data_PCOD9575625
_publ_section_title
;
Structure prediction by ZEFSAII (Michael W. Deem and Ramdas Pophale) SiO2 
 PCOD9575625
Probable space group: P 31 1 2
;
_chemical_formula_sum "Si O2"
_cell_formula_units_Z 36
_cell_length_a 8.933943
_cell_length_b 8.933943
_cell_length_c 25.514146
_cell_angle_alpha 90.000000
_cell_angle_beta 90.000000
_cell_angle_gamma 120.000000
_cell_volume 1763.591604
_symmetry_space_group_name_H-M "P 31 1 2"
_symmetry_group_IT_number 151
_symmetry_cell_setting 'hexagonal'
loop_
_space_group_symop_operation_xyz
x,y,z
-y,x-y,1/3+z
-x+y,-x,2/3+z
-y,-x,2/3-z
-x+y,y,1/3-z
x,x-y,-z
loop_
_atom_site_type_symbol
_atom_site_label
_atom_site_fract_x
_atom_site_fract_y
_atom_site_fract_z
Si Si1 0.803119 0.940610 0.581037
Si Si2 0.411097 0.361583 0.523569
Si Si3 0.561045 0.724300 0.795460
Si Si4 0.990119 0.810046 0.282946
Si Si5 0.352528 0.131917 0.843233
Si Si6 0.105336 0.382845 0.980132
O O1 0.749811 0.781657 0.543249
O O2 0.702512 0.865253 0.634839
O O3 0.767053 0.079075 0.551260
O O4 0.009847 0.041698 0.588998
O O5 0.348160 0.174080 0.500000
O O6 0.333718 0.439906 0.482953
O O7 0.313182 0.335769 0.578467
O O8 0.617780 0.464619 0.525495
O O9 0.418087 0.581914 0.833334
O O10 0.722382 0.695701 0.808851
O O11 0.559281 0.750408 0.732445
O O12 0.116605 0.883396 0.333334
O O13 0.784477 0.709960 0.294372
O O14 0.087840 0.543920 0.000000
#
# Coordination Sequence:
#
# PCOD9575625 Si02
#       6
#     6   6   6   6   6   6
#     4  10  21  42  69  96 129 185 224 272 338 419
#     4  12  23  42  70  98 131 176 222 277 341 414
#     4  12  26  45  67 102 140 180 227 292 347 420
#     4  10  21  43  70  92 129 178 232 273 337 412
#     4  11  23  41  68 101 137 175 226 281 349 409
#     4  11  23  41  69 100 136 175 231 285 343 412
#
# _framework density 20.412891999999999
#
# number of rings (size 3 to 8) (size 9 to 14) (size 15 to 20)
#    0.000    1.000    5.000    1.500    4.667    0.000 
#    3.000    0.000    0.000    0.000    0.000    0.000 
#    0.000    0.000    0.000    0.000    0.000    0.000 
#
# Total GULP energy -200571.942428 kJ/mol
# GULP energy per Si atom -5571.442845 kJ/mol
# Density = 2.036643 g / cm^3
# Si number density = 20.412892 Si / 1000 Ang^3
#
#
#
# Elastic Constant Matrix: (Units=GPa)
#
#
# Indices 1 2 3 4 5 6 
#
# 1 55.5208 31.0523 33.3398 0.0008 9.4480 0.0000
# 2 31.0523 55.5208 33.3398 -0.0008 -9.4480 0.0000
# 3 33.3398 33.3398 133.1331 0.0000 0.0000 0.0000
# 4 0.0008 -0.0008 0.0000 27.2106 0.0000 -9.4480
# 5 9.4480 -9.4480 0.0000 0.0000 27.2106 0.0008
# 6 0.0000 0.0000 0.0000 -9.4480 0.0008 12.2343
#
#
#
# Elastic Compliance Matrix: (Units=1/GPa)
#
#
# Indices 1 2 3 4 5 6 
#
# 1 0.035077 -0.020765 -0.003584 -0.000002 -0.019389 0.000000
# 2 -0.020765 0.035077 -0.003584 0.000002 0.019389 0.000000
# 3 -0.003584 -0.003584 0.009306 0.000000 0.000000 0.000000
# 4 -0.000002 0.000002 0.000000 0.050215 0.000000 0.038779
# 5 -0.019389 0.019389 0.000000 0.000000 0.050215 -0.000003
# 6 0.000000 0.000000 0.000000 0.038779 -0.000003 0.111684
#
#
# Mechanical properties :
#
#
# Convention : Reuss Voigt Hill
#
# Bulk Modulus (GPa) = 42.38499 48.84874 45.61687
# Shear Modulus (GPa) = 14.07241 23.09396 18.58319
#
# Velocity S-wave (km/s) = 2.62847 3.36719 3.02050
# Velocity P-wave (km/s) = 5.47912 6.25297 5.87879
#
# Compressibility (1/GPa) = 0.02359326
#
# Stress axis : x y z
#
# Youngs Moduli (GPa) = 28.50890 28.50890 107.45439
#
# Poissons Ratio (x) = 0.59200 0.38511
# Poissons Ratio (y) = 0.59200 0.38511
# Poissons Ratio (z) = 0.10217 0.10217
#
# Static dielectric constant tensor:
#      x y z
#    x 1.741140 0.000000 0.000000 
#    y 0.000000 1.741140 0.000000 
#    z 0.000000 0.000000 1.918130 
# 
# From -- ./inp_files/4634.got.cif
#   From: 2010.05.17/outbox.cif.g08.bks.cpg/sg151_3_cif.got.tgz:4634.got - 2010.05.20 10:33:20.
