data_PCOD9575303
_publ_section_title
;
Structure prediction by ZEFSAII (Michael W. Deem and Ramdas Pophale) SiO2 
 PCOD9575303
Probable space group: R -3
;
_chemical_formula_sum "Si O2"
_cell_formula_units_Z 54
_cell_length_a 11.420975
_cell_length_b 11.420975
_cell_length_c 22.260678
_cell_angle_alpha 90.000000
_cell_angle_beta 90.000000
_cell_angle_gamma 120.000000
_cell_volume 2514.637461
_symmetry_space_group_name_H-M "R -3"
_symmetry_group_IT_number 148
_symmetry_cell_setting 'hexagonal'
loop_
_space_group_symop_operation_xyz
x,y,z
-y,x-y,z
-x+y,-x,z
-x,-y,-z
y,-x+y,-z
x-y,x,-z
2/3+x,1/3+y,1/3+z
2/3-y,1/3+x-y,1/3+z
2/3-x+y,1/3-x,1/3+z
2/3-x,1/3-y,1/3-z
2/3+y,1/3-x+y,1/3-z
2/3+x-y,1/3+x,1/3-z
1/3+x,2/3+y,2/3+z
1/3-y,2/3+x-y,2/3+z
1/3-x+y,2/3-x,2/3+z
1/3-x,2/3-y,2/3-z
1/3+y,2/3-x+y,2/3-z
1/3+x-y,2/3+x,2/3-z
loop_
_atom_site_type_symbol
_atom_site_label
_atom_site_fract_x
_atom_site_fract_y
_atom_site_fract_z
Si Si1 0.830856 0.355572 0.044725
Si Si2 0.349229 0.520457 0.820254
Si Si3 0.725716 0.966333 0.027614
O O1 0.782381 0.465453 0.040090
O O2 0.925834 0.348693 0.994980
O O3 0.843204 0.097559 0.995295
O O4 0.464995 0.679683 0.814814
O O5 0.357788 0.476454 0.887599
O O6 0.354863 0.434812 0.765670
#
# Coordination Sequence:
#
# PCOD9575303 Si02
#       3
#    18  18  18
#     4   8  20  40  56  79 119 160 192 221 284 363
#     4   8  15  35  56  80 117 141 189 236 283 333
#     4  12  20  32  61  91 114 144 194 251 284 330
#
# _framework density 21.474267999999999
#
# number of rings (size 3 to 8) (size 9 to 14) (size 15 to 20)
#    1.333    1.333    3.333    0.333    0.000    2.667 
#    0.000    0.000    0.000    0.000    0.000    2.333 
#    0.000    0.000    0.000    0.000    0.000    0.000 
#
# Total GULP energy -100411.408473 kJ/mol
# GULP energy per Si atom -5578.411582 kJ/mol
# Density = 2.142539 g / cm^3
# Si number density = 21.474268 Si / 1000 Ang^3
#
#
#
# Elastic Constant Matrix: (Units=GPa)
#
#
# Indices 1 2 3 4 5 6 
#
# 1 68.1284 10.1551 31.4075 11.0616 -0.4100 0.0000
# 2 10.1551 68.1284 31.4075 -11.0616 0.4100 0.0000
# 3 31.4075 31.4075 120.0269 0.0000 0.0000 0.0000
# 4 11.0616 -11.0616 0.0000 34.0647 0.0000 0.4100
# 5 -0.4100 0.4100 0.0000 0.0000 34.0647 11.0616
# 6 0.0000 0.0000 0.0000 0.4100 11.0616 28.9866
#
#
#
# Elastic Compliance Matrix: (Units=1/GPa)
#
#
# Indices 1 2 3 4 5 6 
#
# 1 0.017931 -0.001762 -0.004231 -0.006395 0.000237 0.000000
# 2 -0.001762 0.017931 -0.004231 0.006395 -0.000237 0.000000
# 3 -0.004231 -0.004231 0.010546 0.000000 0.000000 0.000000
# 4 -0.006395 0.006395 0.000000 0.033515 0.000000 -0.000474
# 5 0.000237 -0.000237 0.000000 0.000000 0.033515 -0.012789
# 6 0.000000 0.000000 0.000000 -0.000474 -0.012789 0.039386
#
#
# Mechanical properties :
#
#
# Convention : Reuss Voigt Hill
#
# Bulk Modulus (GPa) = 38.52092 44.69153 41.60622
# Shear Modulus (GPa) = 27.48399 31.64410 29.56404
#
# Velocity S-wave (km/s) = 3.58139 3.84289 3.71444
# Velocity P-wave (km/s) = 5.92275 6.36767 6.14923
#
# Compressibility (1/GPa) = 0.02595992
#
# Stress axis : x y z
#
# Youngs Moduli (GPa) = 55.76934 55.76934 94.82540
#
# Poissons Ratio (x) = 0.09826 0.40120
# Poissons Ratio (y) = 0.09826 0.40120
# Poissons Ratio (z) = 0.23596 0.23596
#
# Static dielectric constant tensor:
#      x y z
#    x 1.825290 0.000000 0.000000 
#    y 0.000000 1.825290 0.000000 
#    z 0.000000 0.000000 1.721690 
# 
# From -- ./inp_files/2936.got.cif
#   From: 2010.05.17/outbox.cif.g08.bks.cpg/sg148_2_cif.got.tgz:2936.got - 2010.05.20 13:50:20.
