data_PCOD9575182
_publ_section_title
;
Structure prediction by ZEFSAII (Michael W. Deem and Ramdas Pophale) SiO2 
 PCOD9575182
Probable space group: R -3
;
_chemical_formula_sum "Si O2"
_cell_formula_units_Z 54
_cell_length_a 11.365242
_cell_length_b 11.365242
_cell_length_c 20.654456
_cell_angle_alpha 90.000000
_cell_angle_beta 90.000000
_cell_angle_gamma 120.000000
_cell_volume 2310.477629
_symmetry_space_group_name_H-M "R -3"
_symmetry_group_IT_number 148
_symmetry_cell_setting 'hexagonal'
loop_
_space_group_symop_operation_xyz
x,y,z
-y,x-y,z
-x+y,-x,z
-x,-y,-z
y,-x+y,-z
x-y,x,-z
2/3+x,1/3+y,1/3+z
2/3-y,1/3+x-y,1/3+z
2/3-x+y,1/3-x,1/3+z
2/3-x,1/3-y,1/3-z
2/3+y,1/3-x+y,1/3-z
2/3+x-y,1/3+x,1/3-z
1/3+x,2/3+y,2/3+z
1/3-y,2/3+x-y,2/3+z
1/3-x+y,2/3-x,2/3+z
1/3-x,2/3-y,2/3-z
1/3+y,2/3-x+y,2/3-z
1/3+x-y,2/3+x,2/3-z
loop_
_atom_site_type_symbol
_atom_site_label
_atom_site_fract_x
_atom_site_fract_y
_atom_site_fract_z
Si Si1 0.345885 0.518780 0.279483
Si Si2 0.106895 0.386257 0.916604
Si Si3 0.892414 0.612730 0.524069
O O1 0.463546 0.675810 0.282923
O O2 0.359433 0.441777 0.341144
O O3 0.323846 0.432930 0.215351
O O4 0.101445 0.508843 0.879619
O O5 0.247763 0.396307 0.896165
O O6 0.986330 0.250402 0.884610
#
# Coordination Sequence:
#
# PCOD9575182 Si02
#       3
#    18  18  18
#     4  10  22  42  71 100 138 178 238 292 349 415
#     4  11  23  41  62  99 137 185 227 281 354 409
#     4  11  24  39  67  96 139 181 228 288 341 423
#
# _framework density 23.371793
#
# number of rings (size 3 to 8) (size 9 to 14) (size 15 to 20)
#    0.667    0.667    3.333    1.667    4.667    0.000 
#    0.000    1.667    0.000    0.000    0.000   11.667 
#    0.000    0.000    0.000    0.000    0.000    0.000 
#
# Total GULP energy -100676.077557 kJ/mol
# GULP energy per Si atom -5593.115420 kJ/mol
# Density = 2.331860 g / cm^3
# Si number density = 23.371793 Si / 1000 Ang^3
#
#
#
# Elastic Constant Matrix: (Units=GPa)
#
#
# Indices 1 2 3 4 5 6 
#
# 1 60.1927 -10.5116 24.8658 -4.1859 -3.1806 0.0000
# 2 -10.5116 60.1927 24.8658 4.1859 3.1806 0.0000
# 3 24.8658 24.8658 115.3818 0.0000 0.0000 0.0000
# 4 -4.1859 4.1859 0.0000 37.0997 0.0000 3.1806
# 5 -3.1806 3.1806 0.0000 0.0000 37.0997 -4.1859
# 6 0.0000 0.0000 0.0000 3.1806 -4.1859 35.3522
#
#
#
# Elastic Compliance Matrix: (Units=1/GPa)
#
#
# Indices 1 2 3 4 5 6 
#
# 1 0.020056 0.005609 -0.005531 0.001630 0.001239 0.000000
# 2 0.005609 0.020056 -0.005531 -0.001630 -0.001239 0.000000
# 3 -0.005531 -0.005531 0.011051 0.000000 0.000000 0.000000
# 4 0.001630 -0.001630 0.000000 0.027535 0.000000 -0.002477
# 5 0.001239 -0.001239 0.000000 0.000000 0.027535 0.003260
# 6 0.000000 0.000000 0.000000 -0.002477 0.003260 0.028896
#
#
# Mechanical properties :
#
#
# Convention : Reuss Voigt Hill
#
# Bulk Modulus (GPa) = 24.84051 34.91189 29.87620
# Shear Modulus (GPa) = 31.35685 35.01344 33.18515
#
# Velocity S-wave (km/s) = 3.66683 3.87474 3.77222
# Velocity P-wave (km/s) = 5.34594 5.91508 5.63769
#
# Compressibility (1/GPa) = 0.04025683
#
# Stress axis : x y z
#
# Youngs Moduli (GPa) = 49.85920 49.85920 90.49066
#
# Poissons Ratio (x) = -0.27964 0.50051
# Poissons Ratio (y) = -0.27964 0.50051
# Poissons Ratio (z) = 0.27577 0.27577
#
# Static dielectric constant tensor:
#      x y z
#    x 1.919990 0.000000 0.000000 
#    y 0.000000 1.919990 0.000000 
#    z 0.000000 0.000000 1.847190 
# 
# From -- ./inp_files/2938.got.cif
#   From: 2010.05.17/outbox.cif.g08.bks.cpg/sg148_2_cif.got.tgz:2938.got - 2010.05.20 13:50:20.
