data_PCOD9575769
_publ_section_title
;
Structure prediction by ZEFSAII (Michael W. Deem and Ramdas Pophale) SiO2 
 PCOD9575769
Probable space group: P 31 2 1
;
_chemical_formula_sum "Si O2"
_cell_formula_units_Z 36
_cell_length_a 9.456887
_cell_length_b 9.456887
_cell_length_c 20.687749
_cell_angle_alpha 90.000000
_cell_angle_beta 90.000000
_cell_angle_gamma 120.000000
_cell_volume 1602.286854
_symmetry_space_group_name_H-M "P 31 2 1"
_symmetry_group_IT_number 152
_symmetry_cell_setting 'hexagonal'
loop_
_space_group_symop_operation_xyz
x,y,z
-y,x-y,1/3+z
-x+y,-x,2/3+z
x-y,-y,2/3-z
-x,-x+y,1/3-z
y,x,-z
loop_
_atom_site_type_symbol
_atom_site_label
_atom_site_fract_x
_atom_site_fract_y
_atom_site_fract_z
Si Si1 0.369057 0.533522 0.253919
Si Si2 0.189213 0.965658 0.944739
Si Si3 0.464869 0.148347 0.549772
Si Si4 0.890000 0.518363 0.756035
Si Si5 0.041006 0.158023 0.907412
Si Si6 0.268712 0.511452 0.102007
O O1 0.214857 0.374921 0.282198
O O2 0.534393 0.525587 0.257923
O O3 0.419706 0.714559 0.279134
O O4 0.320684 0.524148 0.177666
O O5 0.056445 0.996331 0.906559
O O6 0.359838 0.090236 0.911239
O O7 0.191952 0.028245 0.016822
O O8 0.525065 0.128772 0.479676
O O9 0.591590 0.322868 0.577835
O O10 0.278723 0.106588 0.544318
O O11 0.893121 0.683455 0.782557
O O12 0.076647 0.600152 0.731564
#
# Coordination Sequence:
#
# PCOD9575769 Si02
#       6
#     6   6   6   6   6   6
#     4   9  17  31  52  75 101 136 175 216 264 322
#     4  10  19  32  51  75 106 139 176 218 268 331
#     4   9  17  31  52  74  99 134 177 220 265 318
#     4   8  16  32  52  73  98 133 179 217 259 324
#     4   9  19  33  51  75 105 142 175 213 275 336
#     4   9  17  31  52  76 101 135 176 219 264 316
#
# _framework density 22.467886
#
# number of rings (size 3 to 8) (size 9 to 14) (size 15 to 20)
#    0.000    3.000    0.000    1.500    0.000    2.667 
#    0.000    1.667    0.000   28.000    0.000    0.000 
#    0.000    0.000    0.000    0.000    0.000    0.000 
#
# Total GULP energy -200722.763315 kJ/mol
# GULP energy per Si atom -5575.632314 kJ/mol
# Density = 2.241675 g / cm^3
# Si number density = 22.467886 Si / 1000 Ang^3
#
#
#
# Elastic Constant Matrix: (Units=GPa)
#
#
# Indices 1 2 3 4 5 6 
#
# 1 143.7064 71.6544 3.3646 -3.4410 0.0000 0.0000
# 2 71.6544 143.7064 3.3646 3.4410 0.0000 0.0000
# 3 3.3646 3.3646 39.5414 0.0000 0.0000 0.0000
# 4 -3.4410 3.4410 0.0000 -5.5087 0.0000 0.0000
# 5 0.0000 0.0000 0.0000 0.0000 -5.5087 -3.4410
# 6 0.0000 0.0000 0.0000 0.0000 -3.4410 36.0260
#
#
#
# Elastic Compliance Matrix: (Units=1/GPa)
#
#
# Indices 1 2 3 4 5 6 
#
# 1 0.008877 -0.004221 -0.000396 -0.008181 0.000000 0.000000
# 2 -0.004221 0.008877 -0.000396 0.008181 0.000000 0.000000
# 3 -0.000396 -0.000396 0.025357 0.000000 0.000000 0.000000
# 4 -0.008181 0.008181 0.000000 -0.171310 0.000000 0.000000
# 5 0.000000 0.000000 0.000000 0.000000 -0.171310 -0.016362
# 6 0.000000 0.000000 0.000000 0.000000 -0.016362 0.026195
#
#
# Mechanical properties :
#
#
# Convention : Reuss Voigt Hill
#
# Bulk Modulus (GPa) = 30.22586 53.74679 41.98633
# Shear Modulus (GPa) = -19.82076 21.57310 0.87617
#
# Velocity S-wave (km/s) = -2.97338 3.10203 0.62515
# Velocity P-wave (km/s) = 1.30160 6.06660 4.38736
#
# Compressibility (1/GPa) = 0.03308425
#
# Stress axis : x y z
#
# Youngs Moduli (GPa) = 112.65576 112.65576 39.43625
#
# Poissons Ratio (x) = 0.47550 0.01562
# Poissons Ratio (y) = 0.47550 0.01562
# Poissons Ratio (z) = 0.04463 0.04463
#
# Static dielectric constant tensor:
#      x y z
#    x 1.848710 0.000000 0.000000 
#    y 0.000000 1.848710 0.000000 
#    z 0.000000 0.000000 2.078190 
# 
# From -- ./inp_files/3389.got.cif
#   From: 2010.05.17/outbox.cif.g08.bks.cpg/sg152_2_cif.got.tgz:3389.got - 2010.05.20 10:36:06.
