data_PCOD9575452
_publ_section_title
;
Structure prediction by ZEFSAII (Michael W. Deem and Ramdas Pophale) SiO2 
 PCOD9575452
Probable space group: P 3 2 1
;
_chemical_formula_sum "Si O2"
_cell_formula_units_Z 15
_cell_length_a 7.446340
_cell_length_b 7.446340
_cell_length_c 13.532658
_cell_angle_alpha 90.000000
_cell_angle_beta 90.000000
_cell_angle_gamma 120.000000
_cell_volume 649.829559
_symmetry_space_group_name_H-M "P 3 2 1"
_symmetry_group_IT_number 150
_symmetry_cell_setting 'hexagonal'
loop_
_space_group_symop_operation_xyz
x,y,z
-y,x-y,z
-x+y,-x,z
x-y,-y,-z
-x,-x+y,-z
y,x,-z
loop_
_atom_site_type_symbol
_atom_site_label
_atom_site_fract_x
_atom_site_fract_y
_atom_site_fract_z
Si Si1 0.284490 0.873933 0.905396
Si Si2 0.570363 0.671705 0.291487
Si Si3 0.000000 0.233542 0.500000
O O1 0.124806 0.629626 0.909373
O O2 0.289952 0.974156 0.800433
O O3 0.279425 0.000000 0.000000
O O4 0.524341 0.861775 0.284996
O O5 0.658081 0.664414 0.397987
O O6 0.194665 0.194665 0.500000
#
# Coordination Sequence:
#
# PCOD9575452 Si02
#       3
#     6   6   3
#     4  10  22  38  66  90 127 161 211 251 312 368
#     4  10  24  39  66  88 127 166 214 251 320 369
#     4  10  26  40  62  92 132 158 216 262 316 364
#
# _framework density 23.082975999999999
#
# number of rings (size 3 to 8) (size 9 to 14) (size 15 to 20)
#    2.000    0.000    0.000    2.400    8.400    0.000 
#    0.000    0.000    0.000    3.200    0.000    0.000 
#    0.000    0.000    0.000    0.000    0.000    0.000 
#
# Total GULP energy -83663.305561 kJ/mol
# GULP energy per Si atom -5577.553704 kJ/mol
# Density = 2.303044 g / cm^3
# Si number density = 23.082976 Si / 1000 Ang^3
#
#
#
# Elastic Constant Matrix: (Units=GPa)
#
#
# Indices 1 2 3 4 5 6 
#
# 1 48.6621 2.6457 35.4939 8.3051 0.0000 0.0000
# 2 2.6457 48.6621 35.4939 -8.3051 0.0000 0.0000
# 3 35.4939 35.4939 225.2886 0.0000 0.0000 0.0000
# 4 8.3051 -8.3051 0.0000 33.9399 0.0000 0.0000
# 5 0.0000 0.0000 0.0000 0.0000 33.9399 8.3051
# 6 0.0000 0.0000 0.0000 0.0000 8.3051 23.0082
#
#
#
# Elastic Compliance Matrix: (Units=1/GPa)
#
#
# Indices 1 2 3 4 5 6 
#
# 1 0.024380 0.000543 -0.003927 -0.005833 0.000000 0.000000
# 2 0.000543 0.024380 -0.003927 0.005833 0.000000 0.000000
# 3 -0.003927 -0.003927 0.005676 0.000000 0.000000 0.000000
# 4 -0.005833 0.005833 0.000000 0.032318 0.000000 0.000000
# 5 0.000000 0.000000 0.000000 0.000000 0.032318 -0.011666
# 6 0.000000 0.000000 0.000000 0.000000 -0.011666 0.047674
#
#
# Mechanical properties :
#
#
# Convention : Reuss Voigt Hill
#
# Bulk Modulus (GPa) = 25.11585 52.20887 38.66236
# Shear Modulus (GPa) = 25.68866 34.77621 30.23244
#
# Velocity S-wave (km/s) = 3.33961 3.88567 3.62294
# Velocity P-wave (km/s) = 5.07690 6.54204 5.85548
#
# Compressibility (1/GPa) = 0.03981549
#
# Stress axis : x y z
#
# Youngs Moduli (GPa) = 41.01746 41.01746 176.18032
#
# Poissons Ratio (x) = -0.02227 0.69178
# Poissons Ratio (y) = -0.02227 0.69178
# Poissons Ratio (z) = 0.16106 0.16106
#
# Static dielectric constant tensor:
#      x y z
#    x 1.885140 0.000000 0.000000 
#    y 0.000000 1.885140 0.000000 
#    z 0.000000 0.000000 1.793820 
# 
# From -- ./inp_files/820.got.cif
#   From: 2010.05.17/outbox.cif.g08.bks.cpg/sg150_cif.got.tgz:820.got - 2010.05.20 13:53:18.
