data_PCOD9575220
_publ_section_title
;
Structure prediction by ZEFSAII (Michael W. Deem and Ramdas Pophale) SiO2 
 PCOD9575220
Probable space group: R -3
;
_chemical_formula_sum "Si O2"
_cell_formula_units_Z 90
_cell_length_a 17.259736
_cell_length_b 17.259736
_cell_length_c 15.698818
_cell_angle_alpha 90.000000
_cell_angle_beta 90.000000
_cell_angle_gamma 120.000000
_cell_volume 4050.101278
_symmetry_space_group_name_H-M "R -3"
_symmetry_group_IT_number 148
_symmetry_cell_setting 'hexagonal'
loop_
_space_group_symop_operation_xyz
x,y,z
-y,x-y,z
-x+y,-x,z
-x,-y,-z
y,-x+y,-z
x-y,x,-z
2/3+x,1/3+y,1/3+z
2/3-y,1/3+x-y,1/3+z
2/3-x+y,1/3-x,1/3+z
2/3-x,1/3-y,1/3-z
2/3+y,1/3-x+y,1/3-z
2/3+x-y,1/3+x,1/3-z
1/3+x,2/3+y,2/3+z
1/3-y,2/3+x-y,2/3+z
1/3-x+y,2/3-x,2/3+z
1/3-x,2/3-y,2/3-z
1/3+y,2/3-x+y,2/3-z
1/3+x-y,2/3+x,2/3-z
loop_
_atom_site_type_symbol
_atom_site_label
_atom_site_fract_x
_atom_site_fract_y
_atom_site_fract_z
Si Si1 0.942471 0.395726 0.660156
Si Si2 0.585304 0.005950 0.703399
Si Si3 0.424486 0.654319 0.909491
Si Si4 0.762458 0.494198 0.394299
Si Si5 0.847544 0.348323 0.836637
O O1 0.973696 0.499388 0.636129
O O2 0.849562 0.331965 0.610750
O O3 0.916121 0.386895 0.759183
O O4 0.016210 0.365449 0.654309
O O5 0.646079 0.094763 0.756362
O O6 0.503722 0.926160 0.755583
O O7 0.421471 0.744526 0.935582
O O8 0.416972 0.634515 0.808384
O O9 0.817908 0.451740 0.352188
O O10 0.757533 0.264344 0.801140
#
# Coordination Sequence:
#
# PCOD9575220 Si02
#       5
#    18  18  18  18  18
#     4  11  26  46  70 103 145 179 240 286 341 417
#     4  11  26  44  68 106 140 187 223 293 353 406
#     4  10  24  42  72 104 130 182 235 284 346 409
#     4  12  21  45  72 100 139 178 229 285 355 422
#     4  10  25  46  70  98 138 191 238 285 347 402
#
# _framework density 22.221665999999999
#
# number of rings (size 3 to 8) (size 9 to 14) (size 15 to 20)
#    0.400    0.800    4.000    0.400   11.200    2.400 
#    0.000    3.000    0.000    0.000    0.000    0.000 
#    0.000    0.000    0.000    0.000    0.000    0.000 
#
# Total GULP energy -167041.077715 kJ/mol
# GULP energy per Si atom -5568.035924 kJ/mol
# Density = 2.217109 g / cm^3
# Si number density = 22.221666 Si / 1000 Ang^3
#
#
#
# Elastic Constant Matrix: (Units=GPa)
#
#
# Indices 1 2 3 4 5 6 
#
# 1 132.5757 76.2337 19.0645 5.2991 -3.3285 0.0000
# 2 76.2337 132.5757 19.0645 -5.2991 3.3285 0.0000
# 3 19.0645 19.0645 28.0929 0.0000 0.0000 0.0000
# 4 5.2991 -5.2991 0.0000 21.7990 0.0000 3.3285
# 5 -3.3285 3.3285 0.0000 0.0000 21.7990 5.2991
# 6 0.0000 0.0000 0.0000 3.3285 5.2991 28.1710
#
#
#
# Elastic Compliance Matrix: (Units=1/GPa)
#
#
# Indices 1 2 3 4 5 6 
#
# 1 0.012212 -0.006746 -0.003710 -0.004608 0.002895 0.000000
# 2 -0.006746 0.012212 -0.003710 0.004608 -0.002895 0.000000
# 3 -0.003710 -0.003710 0.040631 0.000000 0.000000 0.000000
# 4 -0.004608 0.004608 0.000000 0.048998 0.000000 -0.005789
# 5 0.002895 -0.002895 0.000000 0.000000 0.048998 -0.009217
# 6 0.000000 0.000000 0.000000 -0.005789 -0.009217 0.037915
#
#
# Mechanical properties :
#
#
# Convention : Reuss Voigt Hill
#
# Bulk Modulus (GPa) = 27.22912 57.99661 42.61287
# Shear Modulus (GPa) = 20.70064 26.27925 23.48995
#
# Velocity S-wave (km/s) = 3.05545 3.44262 3.25479
# Velocity P-wave (km/s) = 4.97269 6.47750 5.77432
#
# Compressibility (1/GPa) = 0.03672538
#
# Stress axis : x y z
#
# Youngs Moduli (GPa) = 81.88638 81.88638 24.61167
#
# Poissons Ratio (x) = 0.55237 0.09130
# Poissons Ratio (y) = 0.55237 0.09130
# Poissons Ratio (z) = 0.30377 0.30377
#
# Static dielectric constant tensor:
#      x y z
#    x 1.866270 0.000000 0.000000 
#    y 0.000000 1.866270 0.000000 
#    z 0.000000 0.000000 1.801780 
# 
# From -- ./inp_files/2678.got.cif
#   From: 2010.05.17/outbox.cif.g08.bks.cpg/sg148_2_cif.got.tgz:2678.got - 2010.05.20 13:50:20.
