data_PCOD9575660
_publ_section_title
;
Structure prediction by ZEFSAII (Michael W. Deem and Ramdas Pophale) SiO2 
 PCOD9575660
Probable space group: P 31 1 2
;
_chemical_formula_sum "Si O2"
_cell_formula_units_Z 24
_cell_length_a 14.682983
_cell_length_b 14.682983
_cell_length_c 4.736668
_cell_angle_alpha 90.000000
_cell_angle_beta 90.000000
_cell_angle_gamma 120.000000
_cell_volume 884.366268
_symmetry_space_group_name_H-M "P 31 1 2"
_symmetry_group_IT_number 151
_symmetry_cell_setting 'hexagonal'
loop_
_space_group_symop_operation_xyz
x,y,z
-y,x-y,1/3+z
-x+y,-x,2/3+z
-y,-x,2/3-z
-x+y,y,1/3-z
x,x-y,-z
loop_
_atom_site_type_symbol
_atom_site_label
_atom_site_fract_x
_atom_site_fract_y
_atom_site_fract_z
Si Si1 0.620178 0.702556 0.879581
Si Si2 0.272792 0.545584 0.166667
Si Si3 0.110952 0.889049 0.833334
Si Si4 0.939370 0.060631 0.833334
Si Si5 0.422314 0.367136 0.268679
Si Si6 0.729597 0.459193 0.666667
O O1 0.520001 0.705812 0.741831
O O2 0.709932 0.811853 0.749318
O O3 0.628001 0.613569 0.710965
O O4 0.635795 0.669947 0.194960
O O5 0.380107 0.619894 0.333334
O O6 0.164083 0.011187 0.726174
O O7 0.043829 0.087658 0.666667
O O8 0.522813 0.477188 0.333334
O O9 0.713123 0.533238 0.441487
O O10 0.757857 0.378929 0.500000
#
# Coordination Sequence:
#
# PCOD9575660 Si02
#       6
#     6   3   3   3   6   3
#     4  11  28  49  79 121 170 211 280 362 425 508
#     4  11  28  47  84 124 174 234 289 347 456 550
#     4  10  24  48  78 114 168 220 276 347 429 514
#     4   9  20  43  76 108 148 218 269 326 411 510
#     4  12  27  50  81 120 164 214 280 358 437 513
#     4  12  26  52  88 118 170 228 294 360 460 544
#
# _framework density 27.138076000000002
#
# number of rings (size 3 to 8) (size 9 to 14) (size 15 to 20)
#    0.000    1.000    1.250    3.000   10.500    2.000 
#    6.750    2.500    0.000    0.000    0.000    0.000 
#    0.000    0.000    0.000    0.000    0.000    0.000 
#
# Total GULP energy -133979.373961 kJ/mol
# GULP energy per Si atom -5582.473915 kJ/mol
# Density = 2.707631 g / cm^3
# Si number density = 27.138076 Si / 1000 Ang^3
#
#
#
# Elastic Constant Matrix: (Units=GPa)
#
#
# Indices 1 2 3 4 5 6 
#
# 1 139.7532 80.8796 45.3190 -0.0002 -13.8338 0.0000
# 2 80.8796 139.7532 45.3190 0.0002 13.8338 0.0000
# 3 45.3190 45.3190 130.9505 0.0000 0.0000 0.0000
# 4 -0.0002 0.0002 0.0000 32.4661 0.0000 13.8338
# 5 -13.8338 13.8338 0.0000 0.0000 32.4661 -0.0002
# 6 0.0000 0.0000 0.0000 13.8338 -0.0002 29.4368
#
#
#
# Elastic Compliance Matrix: (Units=1/GPa)
#
#
# Indices 1 2 3 4 5 6 
#
# 1 0.013261 -0.007977 -0.001829 0.000000 0.009050 0.000000
# 2 -0.007977 0.013261 -0.001829 0.000000 -0.009050 0.000000
# 3 -0.001829 -0.001829 0.008902 0.000000 0.000000 0.000000
# 4 0.000000 0.000000 0.000000 0.038514 0.000000 -0.018099
# 5 0.009050 -0.009050 0.000000 0.000000 0.038514 0.000000
# 6 0.000000 0.000000 0.000000 -0.018099 0.000000 0.042477
#
#
# Mechanical properties :
#
#
# Convention : Reuss Voigt Hill
#
# Bulk Modulus (GPa) = 82.26956 83.72132 82.99544
# Shear Modulus (GPa) = 27.43499 34.80307 31.11903
#
# Velocity S-wave (km/s) = 3.18298 3.58501 3.38996
# Velocity P-wave (km/s) = 6.62491 6.93206 6.78023
#
# Compressibility (1/GPa) = 0.01215516
#
# Stress axis : x y z
#
# Youngs Moduli (GPa) = 75.40891 75.40891 112.33301
#
# Poissons Ratio (x) = 0.60157 0.20540
# Poissons Ratio (y) = 0.60157 0.20540
# Poissons Ratio (z) = 0.13789 0.13789
#
# Static dielectric constant tensor:
#      x y z
#    x 2.151240 0.000000 0.000000 
#    y 0.000000 2.151240 0.000000 
#    z 0.000000 0.000000 -0.244270 
# 
# From -- ./inp_files/275.got.cif
#   From: 2010.05.17/outbox.cif.g08.bks.cpg/sg151_1_cif.got.tgz:275.got - 2010.05.20 10:33:20.
