data_PCOD9575456
_publ_section_title
;
Structure prediction by ZEFSAII (Michael W. Deem and Ramdas Pophale) SiO2 
 PCOD9575456
Probable space group: P 3 2 1
;
_chemical_formula_sum "Si O2"
_cell_formula_units_Z 8
_cell_length_a 6.918065
_cell_length_b 6.918065
_cell_length_c 9.667667
_cell_angle_alpha 90.000000
_cell_angle_beta 90.000000
_cell_angle_gamma 120.000000
_cell_volume 400.702075
_symmetry_space_group_name_H-M "P 3 2 1"
_symmetry_group_IT_number 150
_symmetry_cell_setting 'hexagonal'
loop_
_space_group_symop_operation_xyz
x,y,z
-y,x-y,z
-x+y,-x,z
x-y,-y,-z
-x,-x+y,-z
y,x,-z
loop_
_atom_site_type_symbol
_atom_site_label
_atom_site_fract_x
_atom_site_fract_y
_atom_site_fract_z
Si Si1 0.882730 0.612076 0.857269
Si Si2 0.000000 0.000000 0.663696
O O1 0.614790 0.510236 0.852398
O O2 0.986403 0.779784 0.730590
O O3 0.000000 0.732155 0.000000
O O4 0.000000 0.000000 0.500000
#
# Coordination Sequence:
#
# PCOD9575456 Si02
#       2
#     6   2
#     4  10  22  41  66  90 117 153 207 256 296 341
#     4  12  25  41  58  90 133 161 193 240 301 377
#
# _framework density 19.964959
#
# number of rings (size 3 to 8) (size 9 to 14) (size 15 to 20)
#    1.500    0.000    0.000    6.750    0.000    3.000 
#    4.500    0.000    0.000    0.000    0.000    0.000 
#    0.000    0.000    0.000    0.000    0.000    0.000 
#
# Total GULP energy -44577.983655 kJ/mol
# GULP energy per Si atom -5572.247957 kJ/mol
# Density = 1.991952 g / cm^3
# Si number density = 19.964959 Si / 1000 Ang^3
#
#
#
# Elastic Constant Matrix: (Units=GPa)
#
#
# Indices 1 2 3 4 5 6 
#
# 1 98.5415 35.8992 66.4375 3.3824 0.0000 0.0000
# 2 35.8992 98.5415 66.4375 -3.3824 0.0000 0.0000
# 3 66.4375 66.4375 226.2508 0.0000 0.0000 0.0000
# 4 3.3824 -3.3824 0.0000 10.5394 0.0000 0.0000
# 5 0.0000 0.0000 0.0000 0.0000 10.5394 3.3824
# 6 0.0000 0.0000 0.0000 0.0000 3.3824 31.3211
#
#
#
# Elastic Compliance Matrix: (Units=1/GPa)
#
#
# Indices 1 2 3 4 5 6 
#
# 1 0.013508 -0.003029 -0.003077 -0.005307 0.000000 0.000000
# 2 -0.003029 0.013508 -0.003077 0.005307 0.000000 0.000000
# 3 -0.003077 -0.003077 0.006227 0.000000 0.000000 0.000000
# 4 -0.005307 0.005307 0.000000 0.098289 0.000000 0.000000
# 5 0.000000 0.000000 0.000000 0.000000 0.098289 -0.010614
# 6 0.000000 0.000000 0.000000 0.000000 -0.010614 0.033074
#
#
# Mechanical properties :
#
#
# Convention : Reuss Voigt Hill
#
# Bulk Modulus (GPa) = 67.21653 84.54249 75.87951
# Shear Modulus (GPa) = 17.46904 27.45059 22.45982
#
# Velocity S-wave (km/s) = 2.96122 3.71204 3.35768
# Velocity P-wave (km/s) = 6.74034 7.79806 7.28841
#
# Compressibility (1/GPa) = 0.01487729
#
# Stress axis : x y z
#
# Youngs Moduli (GPa) = 74.02881 74.02881 160.58698
#
# Poissons Ratio (x) = 0.22420 0.49418
# Poissons Ratio (y) = 0.22420 0.49418
# Poissons Ratio (z) = 0.22781 0.22781
#
# Static dielectric constant tensor:
#      x y z
#    x 1.747170 0.000000 0.000000 
#    y 0.000000 1.747170 0.000000 
#    z 0.000000 0.000000 1.619450 
# 
# From -- ./inp_files/310.got.cif
#   From: 2010.05.17/outbox.cif.g08.bks.cpg/sg150_cif.got.tgz:310.got - 2010.05.20 13:53:18.
