data_PCOD9575831
_publ_section_title
;
Structure prediction by ZEFSAII (Michael W. Deem and Ramdas Pophale) SiO2 
 PCOD9575831
Probable space group: P 31 2 1
;
_chemical_formula_sum "Si O2"
_cell_formula_units_Z 36
_cell_length_a 7.248251
_cell_length_b 7.248251
_cell_length_c 31.394098
_cell_angle_alpha 90.000000
_cell_angle_beta 90.000000
_cell_angle_gamma 120.000000
_cell_volume 1428.384371
_symmetry_space_group_name_H-M "P 31 2 1"
_symmetry_group_IT_number 152
_symmetry_cell_setting 'hexagonal'
loop_
_space_group_symop_operation_xyz
x,y,z
-y,x-y,1/3+z
-x+y,-x,2/3+z
x-y,-y,2/3-z
-x,-x+y,1/3-z
y,x,-z
loop_
_atom_site_type_symbol
_atom_site_label
_atom_site_fract_x
_atom_site_fract_y
_atom_site_fract_z
Si Si1 0.766635 0.115579 0.244846
Si Si2 0.514651 0.727989 0.727855
Si Si3 0.209362 0.660474 0.970276
Si Si4 0.668936 0.348057 0.783148
Si Si5 0.638118 0.713048 0.815978
Si Si6 0.706936 0.000000 0.333334
Si Si7 0.899866 0.899866 0.500000
O O1 0.714966 0.300369 0.255356
O O2 0.839866 0.061827 0.289796
O O3 0.551383 0.899112 0.231202
O O4 0.938032 0.183405 0.207834
O O5 0.580767 0.827663 0.680544
O O6 0.478239 0.495679 0.717028
O O7 0.669700 0.813712 0.768630
O O8 0.343766 0.777461 0.927741
O O9 0.307275 0.515786 0.987577
O O10 0.552801 0.464303 0.805647
O O11 0.730549 0.243126 0.820833
O O12 0.861283 0.805371 0.839714
#
# Coordination Sequence:
#
# PCOD9575831 Si02
#       7
#     6   6   6   6   6   3   3
#     4   9  18  36  58  81 111 152 195 245 303 356
#     4  10  20  36  58  83 115 151 195 245 304 365
#     4   9  19  35  58  84 112 156 200 245 299 358
#     4   9  18  35  58  81 116 158 201 241 293 352
#     4  10  20  35  57  85 118 154 193 245 296 354
#     4   8  16  36  58  72 104 152 188 230 296 356
#     4  10  22  36  56  86 116 150 196 246 306 354
#
# _framework density 25.203302999999998
#
# number of rings (size 3 to 8) (size 9 to 14) (size 15 to 20)
#    0.000    2.667    0.000    2.000    0.000    2.000 
#    0.000   18.333    0.000    8.000    0.000    0.000 
#    0.000    0.000    0.000    0.000    0.000    0.000 
#
# Total GULP energy -200954.210947 kJ/mol
# GULP energy per Si atom -5582.061415 kJ/mol
# Density = 2.514594 g / cm^3
# Si number density = 25.203303 Si / 1000 Ang^3
#
#
#
# Elastic Constant Matrix: (Units=GPa)
#
#
# Indices 1 2 3 4 5 6 
#
# 1 54.0553 24.3792 48.1043 -7.1203 -0.0001 0.0000
# 2 24.3792 54.0553 48.1043 7.1203 0.0001 0.0000
# 3 48.1043 48.1043 227.8854 0.0000 0.0000 0.0000
# 4 -7.1203 7.1203 0.0000 41.0060 0.0000 0.0001
# 5 -0.0001 0.0001 0.0000 0.0000 41.0060 -7.1203
# 6 0.0000 0.0000 0.0000 0.0001 -7.1203 14.8381
#
#
#
# Elastic Compliance Matrix: (Units=1/GPa)
#
#
# Indices 1 2 3 4 5 6 
#
# 1 0.026982 -0.009778 -0.003632 0.006383 0.000000 0.000000
# 2 -0.009778 0.026982 -0.003632 -0.006383 0.000000 0.000000
# 3 -0.003632 -0.003632 0.005921 0.000000 0.000000 0.000000
# 4 0.006383 -0.006383 0.000000 0.026603 0.000000 0.000000
# 5 0.000000 0.000000 0.000000 0.000000 0.026603 0.012766
# 6 0.000000 0.000000 0.000000 0.000000 0.012766 0.073520
#
#
# Mechanical properties :
#
#
# Convention : Reuss Voigt Hill
#
# Bulk Modulus (GPa) = 38.75512 64.13019 51.44266
# Shear Modulus (GPa) = 21.80586 33.73054 27.76820
#
# Velocity S-wave (km/s) = 2.94462 3.66230 3.32289
# Velocity P-wave (km/s) = 5.19340 6.58663 5.93106
#
# Compressibility (1/GPa) = 0.02580304
#
# Stress axis : x y z
#
# Youngs Moduli (GPa) = 37.06162 37.06162 168.88015
#
# Poissons Ratio (x) = 0.36239 0.61331
# Poissons Ratio (y) = 0.36239 0.61331
# Poissons Ratio (z) = 0.13459 0.13459
#
# Static dielectric constant tensor:
#      x y z
#    x 2.045930 0.000000 0.000000 
#    y 0.000000 2.045930 0.000000 
#    z 0.000000 0.000000 2.083820 
# 
# From -- ./inp_files/3591.got.cif
#   From: 2010.05.17/outbox.cif.g08.bks.cpg/sg152_2_cif.got.tgz:3591.got - 2010.05.20 10:36:06.
