data_PCOD9575840
_publ_section_title
;
Structure prediction by ZEFSAII (Michael W. Deem and Ramdas Pophale) SiO2 
 PCOD9575840
Probable space group: P 31 2 1
;
_chemical_formula_sum "Si O2"
_cell_formula_units_Z 45
_cell_length_a 14.516798
_cell_length_b 14.516798
_cell_length_c 12.512903
_cell_angle_alpha 90.000000
_cell_angle_beta 90.000000
_cell_angle_gamma 120.000000
_cell_volume 2283.654384
_symmetry_space_group_name_H-M "P 31 2 1"
_symmetry_group_IT_number 152
_symmetry_cell_setting 'hexagonal'
loop_
_space_group_symop_operation_xyz
x,y,z
-y,x-y,1/3+z
-x+y,-x,2/3+z
x-y,-y,2/3-z
-x,-x+y,1/3-z
y,x,-z
loop_
_atom_site_type_symbol
_atom_site_label
_atom_site_fract_x
_atom_site_fract_y
_atom_site_fract_z
Si Si1 0.245996 0.320350 0.846354
Si Si2 0.638192 0.638192 0.500000
Si Si3 0.840361 0.646968 0.601038
Si Si4 0.291945 0.590106 0.083525
Si Si5 0.052702 0.526761 0.550858
Si Si6 0.045681 0.706373 0.278189
Si Si7 0.535608 0.469567 0.675251
Si Si8 0.272300 0.545225 0.590242
O O1 0.280005 0.237040 0.888484
O O2 0.351726 0.436356 0.857853
O O3 0.223100 0.296154 0.720183
O O4 0.170564 0.326136 0.938806
O O5 0.751759 0.654154 0.531976
O O6 0.565021 0.570972 0.599475
O O7 0.808108 0.523672 0.585402
O O8 0.272273 0.631426 0.193678
O O9 0.403653 0.680260 0.038280
O O10 0.188653 0.569063 0.014163
O O11 0.967251 0.458813 0.461430
O O12 0.158535 0.518216 0.542912
O O13 0.000000 0.493355 0.666667
O O14 0.962786 0.584279 0.313150
O O15 0.157093 0.712275 0.253950
O O16 0.000000 0.724950 0.166667
#
# Coordination Sequence:
#
# PCOD9575840 Si02
#       8
#     6   3   6   6   6   6   6   6
#     4  10  20  36  57  79 119 152 193 241 315 358
#     4  10  20  36  60  84 116 148 202 244 314 354
#     4  10  20  37  58  84 115 155 192 252 305 367
#     4  11  22  33  54  80 111 153 202 247 293 349
#     4  11  22  38  52  76 112 156 198 244 297 363
#     4  11  21  37  51  79 116 157 200 248 299 365
#     4  10  21  37  52  74 117 148 190 254 296 342
#     4  12  24  33  54  82 110 154 210 236 295 364
#
# _framework density 19.705257
#
# number of rings (size 3 to 8) (size 9 to 14) (size 15 to 20)
#    0.000    1.333    4.667    2.400    5.600    2.133 
#    0.000    0.000    0.000    0.000    0.000    0.000 
#   44.000    0.000    0.000    0.000    0.000    0.000 
#
# Total GULP energy -251028.126661 kJ/mol
# GULP energy per Si atom -5578.402815 kJ/mol
# Density = 1.966041 g / cm^3
# Si number density = 19.705257 Si / 1000 Ang^3
#
#
#
# Elastic Constant Matrix: (Units=GPa)
#
#
# Indices 1 2 3 4 5 6 
#
# 1 37.8875 3.3207 15.2356 3.6987 0.0000 0.0000
# 2 3.3207 37.8875 15.2356 -3.6987 0.0000 0.0000
# 3 15.2356 15.2356 140.5010 0.0000 0.0000 0.0000
# 4 3.6987 -3.6987 0.0000 27.8945 0.0000 0.0000
# 5 0.0000 0.0000 0.0000 0.0000 27.8945 3.6987
# 6 0.0000 0.0000 0.0000 0.0000 3.6987 17.2834
#
#
#
# Elastic Compliance Matrix: (Units=1/GPa)
#
#
# Indices 1 2 3 4 5 6 
#
# 1 0.028078 -0.001696 -0.002861 -0.003948 0.000000 0.000000
# 2 -0.001696 0.028078 -0.002861 0.003948 0.000000 0.000000
# 3 -0.002861 -0.002861 0.007738 0.000000 0.000000 0.000000
# 4 -0.003948 0.003948 0.000000 0.036896 0.000000 0.000000
# 5 0.000000 0.000000 0.000000 0.000000 0.036896 -0.007896
# 6 0.000000 0.000000 0.000000 0.000000 -0.007896 0.059549
#
#
# Mechanical properties :
#
#
# Convention : Reuss Voigt Hill
#
# Bulk Modulus (GPa) = 20.38348 31.54000 25.96174
# Shear Modulus (GPa) = 21.88910 26.78010 24.33460
#
# Velocity S-wave (km/s) = 3.33652 3.69051 3.51797
# Velocity P-wave (km/s) = 5.02094 5.84811 5.45024
#
# Compressibility (1/GPa) = 0.04905933
#
# Stress axis : x y z
#
# Youngs Moduli (GPa) = 35.61459 35.61459 129.23508
#
# Poissons Ratio (x) = 0.06040 0.36972
# Poissons Ratio (y) = 0.06040 0.36972
# Poissons Ratio (z) = 0.10189 0.10189
#
# Static dielectric constant tensor:
#      x y z
#    x 1.692810 0.000000 0.000000 
#    y 0.000000 1.692810 0.000000 
#    z 0.000000 0.000000 1.768410 
# 
# From -- ./inp_files/1880.got.cif
#   From: 2010.05.17/outbox.cif.g08.bks.cpg/sg152_1_cif.got.tgz:1880.got - 2010.05.20 10:36:06.
