data_PCOD9575314
_publ_section_title
;
Structure prediction by ZEFSAII (Michael W. Deem and Ramdas Pophale) SiO2 
 PCOD9575314
Probable space group: R -3
;
_chemical_formula_sum "Si O2"
_cell_formula_units_Z 108
_cell_length_a 21.735536
_cell_length_b 21.735536
_cell_length_c 13.484486
_cell_angle_alpha 90.000000
_cell_angle_beta 90.000000
_cell_angle_gamma 120.000000
_cell_volume 5517.034976
_symmetry_space_group_name_H-M "R -3"
_symmetry_group_IT_number 148
_symmetry_cell_setting 'hexagonal'
loop_
_space_group_symop_operation_xyz
x,y,z
-y,x-y,z
-x+y,-x,z
-x,-y,-z
y,-x+y,-z
x-y,x,-z
2/3+x,1/3+y,1/3+z
2/3-y,1/3+x-y,1/3+z
2/3-x+y,1/3-x,1/3+z
2/3-x,1/3-y,1/3-z
2/3+y,1/3-x+y,1/3-z
2/3+x-y,1/3+x,1/3-z
1/3+x,2/3+y,2/3+z
1/3-y,2/3+x-y,2/3+z
1/3-x+y,2/3-x,2/3+z
1/3-x,2/3-y,2/3-z
1/3+y,2/3-x+y,2/3-z
1/3+x-y,2/3+x,2/3-z
loop_
_atom_site_type_symbol
_atom_site_label
_atom_site_fract_x
_atom_site_fract_y
_atom_site_fract_z
Si Si1 0.552062 0.040522 0.286988
Si Si2 0.751931 0.983817 0.096960
Si Si3 0.281577 0.337185 0.424361
Si Si4 0.718718 0.552391 0.725763
Si Si5 0.777701 0.893163 0.595730
Si Si6 0.502867 0.863825 0.978899
O O1 0.617626 0.088228 0.359128
O O2 0.495836 0.068236 0.273922
O O3 0.588116 0.029430 0.186558
O O4 0.501070 0.959421 0.323818
O O5 0.784074 0.987652 0.204491
O O6 0.682801 0.993879 0.107728
O O7 0.292177 0.390594 0.334686
O O8 0.220768 0.261870 0.384191
O O9 0.763429 0.581512 0.826724
O O10 0.642851 0.489066 0.757187
O O11 0.761000 0.526407 0.655579
O O12 0.828095 0.870808 0.650398
#
# Coordination Sequence:
#
# PCOD9575314 Si02
#       6
#    18  18  18  18  18  18
#     4  12  25  44  68 101 143 183 233 287 357 420
#     4  12  27  44  71 105 140 185 233 290 355 425
#     4  12  23  42  71  99 135 181 222 288 356 417
#     4  12  23  41  68 100 137 178 226 284 354 423
#     4  12  24  41  68 102 137 179 228 291 352 422
#     4  12  25  43  67  98 141 180 227 284 349 417
#
# _framework density 19.575731999999999
#
# number of rings (size 3 to 8) (size 9 to 14) (size 15 to 20)
#    0.000    0.000    8.333    2.500    0.000    2.000 
#    1.000    0.833    0.000    0.333    0.000    0.000 
#    0.000    0.000    0.000    0.000    0.000    0.000 
#
# Total GULP energy -201132.529321 kJ/mol
# GULP energy per Si atom -5587.014703 kJ/mol
# Density = 1.953118 g / cm^3
# Si number density = 19.575732 Si / 1000 Ang^3
#
#
#
# Elastic Constant Matrix: (Units=GPa)
#
#
# Indices 1 2 3 4 5 6 
#
# 1 121.3268 57.6438 50.6581 2.3998 -3.1833 0.0000
# 2 57.6438 121.3268 50.6581 -2.3998 3.1833 0.0000
# 3 50.6581 50.6581 95.8904 0.0000 0.0000 0.0000
# 4 2.3998 -2.3998 0.0000 34.2902 0.0000 3.1833
# 5 -3.1833 3.1833 0.0000 0.0000 34.2902 2.3998
# 6 0.0000 0.0000 0.0000 3.1833 2.3998 31.8415
#
#
#
# Elastic Compliance Matrix: (Units=1/GPa)
#
#
# Indices 1 2 3 4 5 6 
#
# 1 0.011953 -0.003982 -0.004211 -0.001115 0.001479 0.000000
# 2 -0.003982 0.011953 -0.004211 0.001115 -0.001479 0.000000
# 3 -0.004211 -0.004211 0.014878 0.000000 0.000000 0.000000
# 4 -0.001115 0.001115 0.000000 0.029594 0.000000 -0.002959
# 5 0.001479 -0.001479 0.000000 0.000000 0.029594 -0.002230
# 6 0.000000 0.000000 0.000000 -0.002959 -0.002230 0.031869
#
#
# Mechanical properties :
#
#
# Convention : Reuss Voigt Hill
#
# Bulk Modulus (GPa) = 71.55093 72.94041 72.24567
# Shear Modulus (GPa) = 31.38573 32.05667 31.72120
#
# Velocity S-wave (km/s) = 4.00846 4.05108 4.02983
# Velocity P-wave (km/s) = 7.61931 7.69566 7.65758
#
# Compressibility (1/GPa) = 0.01397606
#
# Stress axis : x y z
#
# Youngs Moduli (GPa) = 83.66007 83.66007 67.21258
#
# Poissons Ratio (x) = 0.33310 0.28305
# Poissons Ratio (y) = 0.33310 0.28305
# Poissons Ratio (z) = 0.35232 0.35232
#
# Static dielectric constant tensor:
#      x y z
#    x 1.706270 0.000000 0.000000 
#    y 0.000000 1.706270 0.000000 
#    z 0.000000 0.000000 1.717930 
# 
# From -- ./inp_files/2057.got.cif
#   From: 2010.05.17/outbox.cif.g08.bks.cpg/sg148_2_cif.got.tgz:2057.got - 2010.05.20 13:50:20.
