data_PCOD9575339
_publ_section_title
;
Structure prediction by ZEFSAII (Michael W. Deem and Ramdas Pophale) SiO2 
 PCOD9575339
Probable space group: R -3
;
_chemical_formula_sum "Si O2"
_cell_formula_units_Z 48
_cell_length_a 30.000000
_cell_length_b 30.000000
_cell_length_c 9.000000
_cell_angle_alpha 90.000000
_cell_angle_beta 90.000000
_cell_angle_gamma 120.000000
_cell_volume 7014.805771
_symmetry_space_group_name_H-M "R -3"
_symmetry_group_IT_number 148
_symmetry_cell_setting 'hexagonal'
loop_
_space_group_symop_operation_xyz
x,y,z
-y,x-y,z
-x+y,-x,z
-x,-y,-z
y,-x+y,-z
x-y,x,-z
2/3+x,1/3+y,1/3+z
2/3-y,1/3+x-y,1/3+z
2/3-x+y,1/3-x,1/3+z
2/3-x,1/3-y,1/3-z
2/3+y,1/3-x+y,1/3-z
2/3+x-y,1/3+x,1/3-z
1/3+x,2/3+y,2/3+z
1/3-y,2/3+x-y,2/3+z
1/3-x+y,2/3-x,2/3+z
1/3-x,2/3-y,2/3-z
1/3+y,2/3-x+y,2/3-z
1/3+x-y,2/3+x,2/3-z
loop_
_atom_site_type_symbol
_atom_site_label
_atom_site_fract_x
_atom_site_fract_y
_atom_site_fract_z
Si Si1 0.819763 0.714314 0.845226
Si Si2 0.267138 0.998580 0.169337
Si Si3 0.512007 0.392633 0.688463
Si Si4 0.516470 0.575464 0.031020
Si Si5 0.679387 0.606326 0.164842
Si Si6 0.557783 0.741447 0.818635
Si Si7 0.687730 0.429552 0.932477
Si Si8 0.698144 0.261717 0.244400
O O1 0.793026 0.653512 0.812963
O O2 0.870396 0.734721 0.741070
O O3 0.771056 0.723168 0.811376
O O4 0.840601 0.739462 0.006814
O O5 0.236161 0.949371 0.278807
O O6 0.331044 0.030534 0.150738
O O7 0.245770 0.037418 0.207402
O O8 0.246398 0.977242 0.005060
O O9 0.501506 0.394482 0.861904
O O10 0.457391 0.373312 0.604144
O O11 0.551482 0.446977 0.610147
O O12 0.542144 0.360275 0.687652
O O13 0.496716 0.712925 0.772663
O O14 0.725771 0.428365 0.803173
O O15 0.708328 0.416611 0.085709
O O16 0.639906 0.237441 0.306265
#
# Coordination Sequence:
#
# PCOD9575339 Si02
#       8
#    18  18  18  18  18  18  18  18
#     4  10  24  43  68  99 138 182 236 299 361 423
#     4  11  25  44  74 103 145 190 244 300 359 438
#     4  11  26  42  69 105 141 192 237 295 365 430
#     4  11  25  41  68 103 139 182 235 302 364 431
#     4  11  24  45  71  99 142 192 244 294 357 434
#     4  10  25  43  67 101 138 192 234 299 358 428
#     4  11  26  45  69 104 151 192 236 303 369 434
#     4  11  25  43  74 103 138 190 248 296 358 436
#
# _framework density 6.84267
#
# number of rings (size 3 to 8) (size 9 to 14) (size 15 to 20)
#    0.000    1.250    0.000    4.000   14.000    5.000 
#    0.000    0.000    0.000    0.000    0.000    0.000 
#    0.000    0.000    0.000    0.000    0.000    0.000 
#
# Total GULP energy -267554.424433 kJ/mol
# GULP energy per Si atom -5574.050509 kJ/mol
# Density = 0.682710 g / cm^3
# Si number density = 6.842670 Si / 1000 Ang^3
#
#
#
# Elastic Constant Matrix: (Units=GPa)
#
#
# Indices 1 2 3 4 5 6 
#
# 1 96.1487 23.1017 26.4385 4.3903 -1.3645 0.0012
# 2 23.1017 96.1002 26.4425 -4.3783 1.4054 -0.0033
# 3 26.4385 26.4425 81.4994 0.0396 -0.0099 0.0115
# 4 4.3903 -4.3783 0.0396 41.5905 0.0301 1.3737
# 5 -1.3645 1.4054 -0.0099 0.0301 41.5625 4.3823
# 6 0.0012 -0.0033 0.0115 1.3737 4.3823 36.5214
#
#
#
# Elastic Compliance Matrix: (Units=1/GPa)
#
#
# Indices 1 2 3 4 5 6 
#
# 1 0.011839 -0.002045 -0.003176 -0.001462 0.000458 0.000000
# 2 -0.002045 0.011846 -0.003181 0.001466 -0.000470 0.000003
# 3 -0.003176 -0.003181 0.014332 -0.000013 0.000007 -0.000005
# 4 -0.001462 0.001466 -0.000013 0.024383 -0.000019 -0.000915
# 5 0.000458 -0.000470 0.000007 -0.000019 0.024400 -0.002927
# 6 0.000000 0.000003 -0.000005 -0.000915 -0.002927 0.027767
#
#
# Mechanical properties :
#
#
# Convention : Reuss Voigt Hill
#
# Bulk Modulus (GPa) = 47.14110 47.30152 47.22131
# Shear Modulus (GPa) = 36.11614 37.11927 36.61771
#
# Velocity S-wave (km/s) = 4.19902 4.25694 4.22808
# Velocity P-wave (km/s) = 6.82079 6.87419 6.84754
#
# Compressibility (1/GPa) = 0.02121291
#
# Stress axis : x y z
#
# Youngs Moduli (GPa) = 84.46945 84.41392 69.77205
#
# Poissons Ratio (x) = 0.17265 0.22160
# Poissons Ratio (y) = 0.17277 0.22193
# Poissons Ratio (z) = 0.26828 0.26851
#
# Static dielectric constant tensor:
#      x y z
#    x 1.754560 0.000000 -0.000070 
#    y 0.000000 1.754620 -0.000010 
#    z -0.000070 -0.000010 1.744930 
# 
# From -- ./inp_files/1156.got.cif
#   From: 2010.05.17/outbox.ucp.g08.bks.cvg/sg148_1_cif.got.tgz:1156.got - 2010.06.11 11:44:40.
