data_PCOD9575074
_publ_section_title
;
Structure prediction by ZEFSAII (Michael W. Deem and Ramdas Pophale) SiO2 
 PCOD9575074
Probable space group: R -3
;
_chemical_formula_sum "Si O2"
_cell_formula_units_Z 132
_cell_length_a 22.764735
_cell_length_b 22.764735
_cell_length_c 15.215758
_cell_angle_alpha 90.000000
_cell_angle_beta 90.000000
_cell_angle_gamma 120.000000
_cell_volume 6828.879075
_symmetry_space_group_name_H-M "R -3"
_symmetry_group_IT_number 148
_symmetry_cell_setting 'hexagonal'
loop_
_space_group_symop_operation_xyz
x,y,z
-y,x-y,z
-x+y,-x,z
-x,-y,-z
y,-x+y,-z
x-y,x,-z
2/3+x,1/3+y,1/3+z
2/3-y,1/3+x-y,1/3+z
2/3-x+y,1/3-x,1/3+z
2/3-x,1/3-y,1/3-z
2/3+y,1/3-x+y,1/3-z
2/3+x-y,1/3+x,1/3-z
1/3+x,2/3+y,2/3+z
1/3-y,2/3+x-y,2/3+z
1/3-x+y,2/3-x,2/3+z
1/3-x,2/3-y,2/3-z
1/3+y,2/3-x+y,2/3-z
1/3+x-y,2/3+x,2/3-z
loop_
_atom_site_type_symbol
_atom_site_label
_atom_site_fract_x
_atom_site_fract_y
_atom_site_fract_z
Si Si1 0.333333 0.666667 0.773261
Si Si2 0.859442 0.283630 0.922618
Si Si3 0.409042 0.227644 0.777925
Si Si4 0.217536 0.342361 0.912913
Si Si5 0.402518 0.198109 0.583742
Si Si6 0.067584 0.379385 0.506599
Si Si7 0.122501 0.628795 0.678210
Si Si8 0.813285 0.437865 0.206291
O O1 0.333335 0.666668 0.666667
O O2 0.266746 0.599661 0.806309
O O3 0.799625 0.232921 0.858309
O O4 0.876787 0.360549 0.911536
O O5 0.928778 0.287832 0.885287
O O6 0.844086 0.251380 0.020717
O O7 0.404198 0.188712 0.687319
O O8 0.328644 0.201025 0.792194
O O9 0.166667 0.333334 0.833334
O O10 0.286057 0.346409 0.873674
O O11 0.177071 0.279826 0.979427
O O12 0.391897 0.261841 0.557725
O O13 0.473945 0.215457 0.544225
O O14 0.100840 0.434465 0.584869
O O15 0.171921 0.609348 0.728716
O O16 0.159285 0.667660 0.591495
#
# Coordination Sequence:
#
# PCOD9575074 Si02
#       8
#     6  18  18  18  18  18  18  18
#     4  12  21  36  57  81 129 172 206 250 309 402
#     4  10  22  40  64  89 122 162 214 258 325 388
#     4  10  20  42  62  88 116 164 207 267 316 386
#     4  11  22  38  55  91 126 160 198 264 324 373
#     4   9  20  37  63  79 120 159 210 252 318 377
#     4   9  19  36  56  85 120 164 191 257 312 376
#     4  10  20  33  56  80 119 153 197 244 304 370
#     4  11  20  37  55  88 113 167 204 248 307 380
#
# _framework density 19.329671999999999
#
# number of rings (size 3 to 8) (size 9 to 14) (size 15 to 20)
#    0.000    1.909    2.727    1.636    1.909    1.091 
#    4.909    0.000    0.000    0.273    0.000    0.000 
#    0.000    0.000    0.000    0.000    0.000    0.000 
#
# Total GULP energy -245163.502928 kJ/mol
# GULP energy per Si atom -5571.897794 kJ/mol
# Density = 1.928568 g / cm^3
# Si number density = 19.329672 Si / 1000 Ang^3
#
#
#
# Elastic Constant Matrix: (Units=GPa)
#
#
# Indices 1 2 3 4 5 6 
#
# 1 53.6285 6.2355 21.5879 -3.3049 0.4303 0.0000
# 2 6.2355 53.6285 21.5879 3.3049 -0.4303 0.0000
# 3 21.5879 21.5879 77.5399 0.0000 0.0000 0.0000
# 4 -3.3049 3.3049 0.0000 22.6145 0.0000 -0.4303
# 5 0.4303 -0.4303 0.0000 0.0000 22.6145 -3.3049
# 6 0.0000 0.0000 0.0000 -0.4303 -3.3049 23.6965
#
#
#
# Elastic Compliance Matrix: (Units=1/GPa)
#
#
# Indices 1 2 3 4 5 6 
#
# 1 0.021224 -0.000323 -0.005819 0.003149 -0.000410 0.000000
# 2 -0.000323 0.021224 -0.005819 -0.003149 0.000410 0.000000
# 3 -0.005819 -0.005819 0.016137 0.000000 0.000000 0.000000
# 4 0.003149 -0.003149 0.000000 0.045155 0.000000 0.000820
# 5 -0.000410 0.000410 0.000000 0.000000 0.045155 0.006298
# 6 0.000000 0.000000 0.000000 0.000820 0.006298 0.043094
#
#
# Mechanical properties :
#
#
# Convention : Reuss Voigt Hill
#
# Bulk Modulus (GPa) = 28.84914 31.51328 30.18121
# Shear Modulus (GPa) = 21.98135 22.81082 22.39608
#
# Velocity S-wave (km/s) = 3.37587 3.43898 3.40757
# Velocity P-wave (km/s) = 5.49113 5.66632 5.57941
#
# Compressibility (1/GPa) = 0.03466308
#
# Stress axis : x y z
#
# Youngs Moduli (GPa) = 47.11619 47.11618 61.97006
#
# Poissons Ratio (x) = 0.01520 0.36062
# Poissons Ratio (y) = 0.01520 0.36062
# Poissons Ratio (z) = 0.27418 0.27418
#
# Static dielectric constant tensor:
#      x y z
#    x 1.752640 0.000000 0.000000 
#    y 0.000000 1.752640 0.000000 
#    z 0.000000 0.000000 1.688650 
# 
# From -- ./inp_files/2258.got.cif
#   From: 2010.05.17/outbox.cif.g08.bks.cpg/sg148_2_cif.got.tgz:2258.got - 2010.05.20 13:50:20.
