data_PCOD9575445
_publ_section_title
;
Structure prediction by ZEFSAII (Michael W. Deem and Ramdas Pophale) SiO2 
 PCOD9575445
Probable space group: P 3 2 1
;
_chemical_formula_sum "Si O2"
_cell_formula_units_Z 24
_cell_length_a 13.365193
_cell_length_b 13.365193
_cell_length_c 6.067680
_cell_angle_alpha 90.000000
_cell_angle_beta 90.000000
_cell_angle_gamma 120.000000
_cell_volume 938.650184
_symmetry_space_group_name_H-M "P 3 2 1"
_symmetry_group_IT_number 150
_symmetry_cell_setting 'hexagonal'
loop_
_space_group_symop_operation_xyz
x,y,z
-y,x-y,z
-x+y,-x,z
x-y,-y,-z
-x,-x+y,-z
y,x,-z
loop_
_atom_site_type_symbol
_atom_site_label
_atom_site_fract_x
_atom_site_fract_y
_atom_site_fract_z
Si Si1 0.124814 0.489124 0.516669
Si Si2 0.171098 0.205753 0.252637
Si Si3 0.278215 0.876502 0.120131
Si Si4 0.439590 0.300141 0.246959
O O1 0.145135 0.514036 0.258720
O O2 0.113283 0.573966 0.684382
O O3 0.222537 0.461265 0.579712
O O4 0.000000 0.376071 0.500000
O O5 0.144733 0.144733 0.500000
O O6 0.117945 0.289576 0.238124
O O7 0.311473 0.280057 0.258261
O O8 0.147547 0.147547 0.000000
O O9 0.207489 0.763183 0.971812
O O10 0.349486 0.000000 0.000000
#
# Coordination Sequence:
#
# PCOD9575445 Si02
#       4
#     6   6   6   6
#     4  12  25  45  76 109 156 201 264 318 398 482
#     4  10  21  43  76 108 149 204 259 322 396 464
#     4  11  24  47  76 113 155 207 264 334 401 479
#     4  11  25  46  70 113 152 209 260 322 398 477
#
# _framework density 25.568632999999998
#
# number of rings (size 3 to 8) (size 9 to 14) (size 15 to 20)
#    0.000    1.000    5.000    1.250    0.000    2.000 
#    9.000    0.000    0.000   13.500    0.000    1.750 
#    0.000    0.000    0.000    0.000    0.000    0.000 
#
# Total GULP energy -133617.111122 kJ/mol
# GULP energy per Si atom -5567.379630 kJ/mol
# Density = 2.551044 g / cm^3
# Si number density = 25.568633 Si / 1000 Ang^3
#
#
#
# Elastic Constant Matrix: (Units=GPa)
#
#
# Indices 1 2 3 4 5 6 
#
# 1 40.2538 107.2145 36.9119 80.5060 0.0000 0.0000
# 2 107.2145 40.2538 36.9119 -80.5060 0.0000 0.0000
# 3 36.9119 36.9119 157.5249 0.0000 0.0000 0.0000
# 4 80.5060 -80.5060 0.0000 -66.1398 0.0000 0.0000
# 5 0.0000 0.0000 0.0000 0.0000 -66.1398 80.5060
# 6 0.0000 0.0000 0.0000 0.0000 80.5060 -33.4804
#
#
#
# Elastic Compliance Matrix: (Units=1/GPa)
#
#
# Indices 1 2 3 4 5 6 
#
# 1 0.007716 -0.000034 -0.001800 0.009434 0.000000 0.000000
# 2 -0.000034 0.007716 -0.001800 -0.009434 0.000000 0.000000
# 3 -0.001800 -0.001800 0.007192 0.000000 0.000000 0.000000
# 4 0.009434 -0.009434 0.000000 0.007847 0.000000 0.000000
# 5 0.000000 0.000000 0.000000 0.000000 0.007847 0.018868
# 6 0.000000 0.000000 0.000000 0.000000 0.018868 0.015501
#
#
# Mechanical properties :
#
#
# Convention : Reuss Voigt Hill
#
# Bulk Modulus (GPa) = 65.12185 66.67877 65.90031
# Shear Modulus (GPa) = 75.52161 -29.35239 23.08461
#
# Velocity S-wave (km/s) = 5.44067 -3.39187 3.00800
# Velocity P-wave (km/s) = 8.06180 3.28562 6.15581
#
# Compressibility (1/GPa) = 0.01535583
#
# Stress axis : x y z
#
# Youngs Moduli (GPa) = 129.59453 129.59453 139.04652
#
# Poissons Ratio (x) = 0.00442 0.25030
# Poissons Ratio (y) = 0.00442 0.25030
# Poissons Ratio (z) = 0.23329 0.23329
#
# Static dielectric constant tensor:
#      x y z
#    x 1.990110 0.000000 0.000000 
#    y 0.000000 1.990110 0.000000 
#    z 0.000000 0.000000 2.369800 
# 
# From -- ./inp_files/131.got.cif
#   From: 2010.05.17/outbox.cif.g08.bks.cpg/sg150_cif.got.tgz:131.got - 2010.05.20 13:53:18.
