data_PCOD9575246
_publ_section_title
;
Structure prediction by ZEFSAII (Michael W. Deem and Ramdas Pophale) SiO2 
 PCOD9575246
Probable space group: R -3
;
_chemical_formula_sum "Si O2"
_cell_formula_units_Z 84
_cell_length_a 14.194774
_cell_length_b 14.194774
_cell_length_c 26.903986
_cell_angle_alpha 90.000000
_cell_angle_beta 90.000000
_cell_angle_gamma 120.000000
_cell_volume 4694.660862
_symmetry_space_group_name_H-M "R -3"
_symmetry_group_IT_number 148
_symmetry_cell_setting 'hexagonal'
loop_
_space_group_symop_operation_xyz
x,y,z
-y,x-y,z
-x+y,-x,z
-x,-y,-z
y,-x+y,-z
x-y,x,-z
2/3+x,1/3+y,1/3+z
2/3-y,1/3+x-y,1/3+z
2/3-x+y,1/3-x,1/3+z
2/3-x,1/3-y,1/3-z
2/3+y,1/3-x+y,1/3-z
2/3+x-y,1/3+x,1/3-z
1/3+x,2/3+y,2/3+z
1/3-y,2/3+x-y,2/3+z
1/3-x+y,2/3-x,2/3+z
1/3-x,2/3-y,2/3-z
1/3+y,2/3-x+y,2/3-z
1/3+x-y,2/3+x,2/3-z
loop_
_atom_site_type_symbol
_atom_site_label
_atom_site_fract_x
_atom_site_fract_y
_atom_site_fract_z
Si Si1 0.259385 0.120752 0.998141
Si Si2 0.695275 0.709130 0.829118
Si Si3 0.478852 0.549731 0.777159
Si Si4 0.480602 0.911682 0.422616
Si Si5 0.333334 0.666668 0.910687
Si Si6 0.666667 0.333334 0.458008
O O1 0.345636 0.170354 0.042843
O O2 0.189537 0.181654 0.996668
O O3 0.307855 0.138937 0.942941
O O4 0.601686 0.632562 0.791599
O O5 0.792712 0.692869 0.846709
O O6 0.752904 0.823185 0.799780
O O7 0.634899 0.708360 0.880338
O O8 0.404827 0.609883 0.775560
O O9 0.429176 0.786331 0.407091
O O10 0.333334 0.666667 0.850801
#
# Coordination Sequence:
#
# PCOD9575246 Si02
#       6
#    18  18  18  18   6   6
#     4  12  23  38  56  89 127 152 183 246 308 352
#     4  11  20  36  58  85 120 152 194 237 288 357
#     4  12  22  36  60  90 118 152 195 238 297 344
#     4  11  21  37  58  86 120 153 190 243 292 356
#     4  12  21  39  63  88 112 154 205 237 285 337
#     4  12  18  33  61  91 114 141 184 253 294 343
#
# _framework density 17.892665999999998
#
# number of rings (size 3 to 8) (size 9 to 14) (size 15 to 20)
#    0.000    0.429    8.571    2.786    0.000    0.000 
#    0.000    3.214    0.000    0.429    0.000    0.000 
#    0.000    0.000    0.000    0.000    0.000    0.000 
#
# Total GULP energy -156147.625433 kJ/mol
# GULP energy per Si atom -5576.700908 kJ/mol
# Density = 1.785194 g / cm^3
# Si number density = 17.892666 Si / 1000 Ang^3
#
#
#
# Elastic Constant Matrix: (Units=GPa)
#
#
# Indices 1 2 3 4 5 6 
#
# 1 38.3188 16.1671 7.4375 2.2386 2.4062 -0.0003
# 2 16.1671 38.3186 7.4372 -2.2386 -2.4059 -0.0004
# 3 7.4375 7.4372 86.9305 -0.0001 -0.0001 -0.0003
# 4 2.2386 -2.2386 -0.0001 25.9311 0.0000 -2.4057
# 5 2.4062 -2.4059 -0.0001 0.0000 25.9310 2.2386
# 6 -0.0003 -0.0004 -0.0003 -2.4057 2.2386 11.0761
#
#
#
# Elastic Compliance Matrix: (Units=1/GPa)
#
#
# Indices 1 2 3 4 5 6 
#
# 1 0.032850 -0.014058 -0.001608 -0.004049 -0.004353 0.000001
# 2 -0.014058 0.032850 -0.001608 0.004050 0.004352 0.000001
# 3 -0.001608 -0.001608 0.011779 0.000000 0.000000 0.000000
# 4 -0.004049 0.004050 0.000000 0.040070 0.000000 0.008703
# 5 -0.004353 0.004352 0.000000 0.000000 0.040071 -0.008099
# 6 0.000001 0.000001 0.000000 0.008703 -0.008099 0.093812
#
#
# Mechanical properties :
#
#
# Convention : Reuss Voigt Hill
#
# Bulk Modulus (GPa) = 23.29260 25.07239 24.18250
# Shear Modulus (GPa) = 16.65066 21.42271 19.03669
#
# Velocity S-wave (km/s) = 3.05386 3.46394 3.26534
# Velocity P-wave (km/s) = 5.04787 5.48102 5.26890
#
# Compressibility (1/GPa) = 0.04293209
#
# Stress axis : x y z
#
# Youngs Moduli (GPa) = 30.44152 30.44142 84.90013
#
# Poissons Ratio (x) = 0.42793 0.13651
# Poissons Ratio (y) = 0.42793 0.13649
# Poissons Ratio (z) = 0.04895 0.04894
#
# Static dielectric constant tensor:
#      x y z
#    x 1.634350 0.000000 0.000000 
#    y 0.000000 1.634350 0.000000 
#    z 0.000000 0.000000 1.617710 
# 
# From -- ./inp_files/3343.got.cif
#   From: 2010.05.17/outbox.cif.g08.bks.cpg/sg148_2_cif.got.tgz:3343.got - 2010.05.20 13:50:20.
