data_PCOD9575555
_publ_section_title
;
Structure prediction by ZEFSAII (Michael W. Deem and Ramdas Pophale) SiO2 
 PCOD9575555
Probable space group: P 31 1 2
;
_chemical_formula_sum "Si O2"
_cell_formula_units_Z 42
_cell_length_a 8.679353
_cell_length_b 8.679353
_cell_length_c 32.193686
_cell_angle_alpha 90.000000
_cell_angle_beta 90.000000
_cell_angle_gamma 120.000000
_cell_volume 2100.274404
_symmetry_space_group_name_H-M "P 31 1 2"
_symmetry_group_IT_number 151
_symmetry_cell_setting 'hexagonal'
loop_
_space_group_symop_operation_xyz
x,y,z
-y,x-y,1/3+z
-x+y,-x,2/3+z
-y,-x,2/3-z
-x+y,y,1/3-z
x,x-y,-z
loop_
_atom_site_type_symbol
_atom_site_label
_atom_site_fract_x
_atom_site_fract_y
_atom_site_fract_z
Si Si1 0.414952 0.902755 0.212848
Si Si2 0.566813 0.604423 0.488212
Si Si3 0.554026 0.366951 0.287806
Si Si4 0.858135 0.098313 0.092237
Si Si5 0.499992 0.275029 0.101431
Si Si6 0.136435 0.684580 0.081206
Si Si7 0.153717 0.043353 0.049304
O O1 0.421006 0.842012 0.166667
O O2 0.417709 0.764416 0.245408
O O3 0.254054 0.938277 0.220641
O O4 0.598156 0.094689 0.216300
O O5 0.542185 0.771093 0.500000
O O6 0.741316 0.687978 0.458641
O O7 0.618810 0.529522 0.528278
O O8 0.402332 0.460562 0.460178
O O9 0.624365 0.375636 0.333334
O O10 0.383841 0.177370 0.278205
O O11 0.702649 0.390440 0.254702
O O12 0.500582 0.518342 0.281668
O O13 0.999825 0.054903 0.073792
O O14 0.339834 0.198232 0.068196
O O15 0.127897 0.852228 0.062822
O O16 0.145296 0.072648 0.000000
#
# Coordination Sequence:
#
# PCOD9575555 Si02
#       7
#     6   6   6   6   6   6   6
#     4  10  19  38  58  86 123 157 193 248 307 367
#     4  11  20  40  61  92 124 154 201 251 318 377
#     4  10  21  41  60  86 120 163 205 249 296 368
#     4  10  21  36  66  83 118 164 200 246 307 362
#     4  10  21  37  66  90 113 164 208 247 301 370
#     4  10  24  38  59  91 122 158 199 258 310 352
#     4  11  22  42  62  91 121 161 209 253 299 372
#
# _framework density 19.997387
#
# number of rings (size 3 to 8) (size 9 to 14) (size 15 to 20)
#    0.000    1.714    2.857    1.714    0.000    0.000 
#    7.714    0.714    0.000    0.000    0.000    0.000 
#    0.000    0.000    0.000    0.000    0.000    0.000 
#
# Total GULP energy -234252.650506 kJ/mol
# GULP energy per Si atom -5577.444060 kJ/mol
# Density = 1.995187 g / cm^3
# Si number density = 19.997387 Si / 1000 Ang^3
#
#
#
# Elastic Constant Matrix: (Units=GPa)
#
#
# Indices 1 2 3 4 5 6 
#
# 1 65.6039 16.2378 23.9015 -0.0004 -8.9414 0.0000
# 2 16.2378 65.6039 23.9015 0.0004 8.9414 0.0000
# 3 23.9015 23.9015 85.7875 0.0000 0.0000 0.0000
# 4 -0.0004 0.0004 0.0000 19.9800 0.0000 8.9414
# 5 -8.9414 8.9414 0.0000 0.0000 19.9800 -0.0004
# 6 0.0000 0.0000 0.0000 8.9414 -0.0004 24.6830
#
#
#
# Elastic Compliance Matrix: (Units=1/GPa)
#
#
# Indices 1 2 3 4 5 6 
#
# 1 0.019385 -0.004791 -0.004066 0.000000 0.010819 0.000000
# 2 -0.004791 0.019385 -0.004066 0.000000 -0.010819 0.000000
# 3 -0.004066 -0.004066 0.013922 0.000000 0.000000 0.000000
# 4 0.000000 0.000000 0.000000 0.059734 0.000000 -0.021639
# 5 0.010819 -0.010819 0.000000 0.000000 0.059734 0.000001
# 6 0.000000 0.000000 0.000000 -0.021639 0.000001 0.048352
#
#
# Mechanical properties :
#
#
# Convention : Reuss Voigt Hill
#
# Bulk Modulus (GPa) = 37.24989 38.34187 37.79588
# Shear Modulus (GPa) = 19.58430 23.12558 21.35494
#
# Velocity S-wave (km/s) = 3.13284 3.40432 3.27140
# Velocity P-wave (km/s) = 5.63508 5.88792 5.76288
#
# Compressibility (1/GPa) = 0.02684571
#
# Stress axis : x y z
#
# Youngs Moduli (GPa) = 51.58669 51.58669 71.82688
#
# Poissons Ratio (x) = 0.24716 0.29205
# Poissons Ratio (y) = 0.24716 0.29205
# Poissons Ratio (z) = 0.20975 0.20975
#
# Static dielectric constant tensor:
#      x y z
#    x 1.719160 0.000000 0.000000 
#    y 0.000000 1.719160 0.000000 
#    z 0.000000 0.000000 1.724690 
# 
# From -- ./inp_files/5004.got.cif
#   From: 2010.05.17/outbox.cif.g08.bks.cpg/sg151_3_cif.got.tgz:5004.got - 2010.05.20 10:33:20.
