data_PCOD9575923
_publ_section_title
;
Structure prediction by ZEFSAII (Michael W. Deem and Ramdas Pophale) SiO2 
 PCOD9575923
Probable space group: P 31 2 1
;
_chemical_formula_sum "Si O2"
_cell_formula_units_Z 42
_cell_length_a 15.703314
_cell_length_b 15.703314
_cell_length_c 11.159198
_cell_angle_alpha 90.000000
_cell_angle_beta 90.000000
_cell_angle_gamma 120.000000
_cell_volume 2383.121829
_symmetry_space_group_name_H-M "P 31 2 1"
_symmetry_group_IT_number 152
_symmetry_cell_setting 'hexagonal'
loop_
_space_group_symop_operation_xyz
x,y,z
-y,x-y,1/3+z
-x+y,-x,2/3+z
x-y,-y,2/3-z
-x,-x+y,1/3-z
y,x,-z
loop_
_atom_site_type_symbol
_atom_site_label
_atom_site_fract_x
_atom_site_fract_y
_atom_site_fract_z
Si Si1 0.587081 0.966339 0.200324
Si Si2 0.504181 0.212202 0.638297
Si Si3 0.551925 0.932063 0.718777
Si Si4 0.521828 0.762619 0.271058
Si Si5 0.740842 0.338213 0.605028
Si Si6 0.561621 0.659734 0.449552
Si Si7 0.634616 0.551663 0.090295
O O1 0.570269 0.856954 0.187692
O O2 0.479984 0.955140 0.216890
O O3 0.635445 0.000000 0.333334
O O4 0.627671 0.025378 0.077213
O O5 0.472348 0.292395 0.610583
O O6 0.623113 0.264889 0.614230
O O7 0.487582 0.173576 0.773944
O O8 0.436371 0.117274 0.554943
O O9 0.446630 0.927509 0.730520
O O10 0.612815 0.000000 0.833334
O O11 0.444565 0.670981 0.193369
O O12 0.449647 0.772648 0.364934
O O13 0.592052 0.738085 0.344552
O O14 0.810998 0.318102 0.690771
O O15 0.650366 0.650366 0.500000
O O16 0.631148 0.631148 0.000000
#
# Coordination Sequence:
#
# PCOD9575923 Si02
#       7
#     6   6   6   6   6   6   6
#     4  10  21  36  52  74 103 143 189 236 282 324
#     4  12  21  39  53  77 111 147 190 235 289 338
#     4  11  24  36  56  79 111 143 197 245 285 327
#     4  11  22  33  53  68 103 137 190 232 275 322
#     4  11  20  32  51  73  97 142 193 227 267 321
#     4  11  24  33  53  77 108 143 185 239 289 329
#     4  10  22  33  53  73 103 138 188 236 277 319
#
# _framework density 17.623943000000001
#
# number of rings (size 3 to 8) (size 9 to 14) (size 15 to 20)
#    0.000    1.143    4.286    4.286   10.000    0.000 
#    0.000    0.000    0.000    0.000    0.000    0.000 
#    0.000    0.000    0.000   19.286    0.000    1.286 
#
# Total GULP energy -234068.392092 kJ/mol
# GULP energy per Si atom -5573.056955 kJ/mol
# Density = 1.758383 g / cm^3
# Si number density = 17.623943 Si / 1000 Ang^3
#
#
#
# Elastic Constant Matrix: (Units=GPa)
#
#
# Indices 1 2 3 4 5 6 
#
# 1 41.4447 13.5139 30.2940 -4.0990 0.0000 0.0000
# 2 13.5139 41.4447 30.2940 4.0990 0.0000 0.0000
# 3 30.2940 30.2940 106.8802 0.0000 0.0000 0.0000
# 4 -4.0990 4.0990 0.0000 29.2141 0.0000 0.0000
# 5 0.0000 0.0000 0.0000 0.0000 29.2141 -4.0990
# 6 0.0000 0.0000 0.0000 0.0000 -4.0990 13.9654
#
#
#
# Elastic Compliance Matrix: (Units=1/GPa)
#
#
# Indices 1 2 3 4 5 6 
#
# 1 0.031903 -0.005438 -0.007501 0.005239 0.000000 0.000000
# 2 -0.005438 0.031903 -0.007501 -0.005239 0.000000 0.000000
# 3 -0.007501 -0.007501 0.013609 0.000000 0.000000 0.000000
# 4 0.005239 -0.005239 0.000000 0.035700 0.000000 0.000000
# 5 0.000000 0.000000 0.000000 0.000000 0.035700 0.010478
# 6 0.000000 0.000000 0.000000 0.000000 0.010478 0.074681
#
#
# Mechanical properties :
#
#
# Convention : Reuss Voigt Hill
#
# Bulk Modulus (GPa) = 27.37193 37.55262 32.46227
# Shear Modulus (GPa) = 18.07967 22.18992 20.13479
#
# Velocity S-wave (km/s) = 3.20638 3.55220 3.38371
# Velocity P-wave (km/s) = 5.41042 6.17885 5.80736
#
# Compressibility (1/GPa) = 0.03653377
#
# Stress axis : x y z
#
# Youngs Moduli (GPa) = 31.34524 31.34524 73.48327
#
# Poissons Ratio (x) = 0.17045 0.55121
# Poissons Ratio (y) = 0.17045 0.55121
# Poissons Ratio (z) = 0.23513 0.23513
#
# Static dielectric constant tensor:
#      x y z
#    x 1.644650 0.000000 0.000000 
#    y 0.000000 1.644650 0.000000 
#    z 0.000000 0.000000 1.759070 
# 
# From -- ./inp_files/1830.got.cif
#   From: 2010.05.17/outbox.cif.g08.bks.cpg/sg152_1_cif.got.tgz:1830.got - 2010.05.20 10:36:06.
