data_PCOD9575524
_publ_section_title
;
Structure prediction by ZEFSAII (Michael W. Deem and Ramdas Pophale) SiO2 
 PCOD9575524
Probable space group: P 31 1 2
;
_chemical_formula_sum "Si O2"
_cell_formula_units_Z 36
_cell_length_a 9.105248
_cell_length_b 9.105248
_cell_length_c 26.823522
_cell_angle_alpha 90.000000
_cell_angle_beta 90.000000
_cell_angle_gamma 120.000000
_cell_volume 1925.883407
_symmetry_space_group_name_H-M "P 31 1 2"
_symmetry_group_IT_number 151
_symmetry_cell_setting 'hexagonal'
loop_
_space_group_symop_operation_xyz
x,y,z
-y,x-y,1/3+z
-x+y,-x,2/3+z
-y,-x,2/3-z
-x+y,y,1/3-z
x,x-y,-z
loop_
_atom_site_type_symbol
_atom_site_label
_atom_site_fract_x
_atom_site_fract_y
_atom_site_fract_z
Si Si1 0.263679 0.447471 0.035370
Si Si2 0.045958 0.560010 0.555283
Si Si3 0.209774 0.375657 0.612449
Si Si4 0.808025 0.542084 0.722970
Si Si5 0.767493 0.176969 0.892267
Si Si6 0.125720 0.656936 0.072849
O O1 0.448748 0.615941 0.041455
O O2 0.299643 0.298914 0.050663
O O3 0.141064 0.488373 0.068262
O O4 0.197675 0.437689 0.979190
O O5 0.987623 0.493812 0.500000
O O6 0.907006 0.585879 0.583640
O O7 0.087609 0.432662 0.586242
O O8 0.220223 0.740242 0.552987
O O9 0.145768 0.291535 0.666667
O O10 0.260894 0.269008 0.576254
O O11 0.742052 0.484103 0.666667
O O12 0.810673 0.392327 0.753864
O O13 0.792778 0.207223 0.833334
O O14 0.938209 0.321566 0.917516
#
# Coordination Sequence:
#
# PCOD9575524 Si02
#       6
#     6   6   6   6   6   6
#     4   9  18  37  63  85 109 150 211 250 292 364
#     4  11  20  35  62  87 119 162 198 244 312 375
#     4  10  18  40  61  83 115 161 208 244 293 381
#     4  11  21  38  60  87 120 160 206 254 308 379
#     4  11  24  38  58  91 128 159 202 263 321 374
#     4  10  19  38  59  87 117 153 208 254 307 364
#
# _framework density 18.692717999999999
#
# number of rings (size 3 to 8) (size 9 to 14) (size 15 to 20)
#    0.000    1.667    5.000    2.500    2.333    0.000 
#    3.000    0.000    0.000    2.000    0.000    0.000 
#    0.000    0.000    0.000    0.000    0.000    0.000 
#
# Total GULP energy -200845.267577 kJ/mol
# GULP energy per Si atom -5579.035210 kJ/mol
# Density = 1.865017 g / cm^3
# Si number density = 18.692718 Si / 1000 Ang^3
#
#
#
# Elastic Constant Matrix: (Units=GPa)
#
#
# Indices 1 2 3 4 5 6 
#
# 1 92.4559 42.4286 36.2242 0.0006 -4.4553 0.0000
# 2 42.4286 92.4559 36.2242 -0.0006 4.4553 0.0000
# 3 36.2242 36.2242 103.3782 0.0000 0.0000 0.0000
# 4 0.0006 -0.0006 0.0000 17.7469 0.0000 4.4553
# 5 -4.4553 4.4553 0.0000 0.0000 17.7469 0.0006
# 6 0.0000 0.0000 0.0000 4.4553 0.0006 25.0137
#
#
#
# Elastic Compliance Matrix: (Units=1/GPa)
#
#
# Indices 1 2 3 4 5 6 
#
# 1 0.015029 -0.005896 -0.003200 -0.000001 0.005253 0.000000
# 2 -0.005896 0.015029 -0.003200 0.000001 -0.005253 0.000000
# 3 -0.003200 -0.003200 0.011916 0.000000 0.000000 0.000000
# 4 -0.000001 0.000001 0.000000 0.058985 0.000000 -0.010506
# 5 0.005253 -0.005253 0.000000 0.000000 0.058985 -0.000001
# 6 0.000000 0.000000 0.000000 -0.010506 -0.000001 0.041849
#
#
# Mechanical properties :
#
#
# Convention : Reuss Voigt Hill
#
# Bulk Modulus (GPa) = 57.53530 57.56044 57.54787
# Shear Modulus (GPa) = 21.53508 23.66237 22.59873
#
# Velocity S-wave (km/s) = 3.39788 3.56175 3.48078
# Velocity P-wave (km/s) = 6.80003 6.91192 6.85620
#
# Compressibility (1/GPa) = 0.01738064
#
# Stress axis : x y z
#
# Youngs Moduli (GPa) = 66.53960 66.53960 83.92168
#
# Poissons Ratio (x) = 0.39232 0.26856
# Poissons Ratio (y) = 0.39232 0.26856
# Poissons Ratio (z) = 0.21293 0.21293
#
# Static dielectric constant tensor:
#      x y z
#    x 1.655890 0.000000 0.000000 
#    y 0.000000 1.655890 0.000000 
#    z 0.000000 0.000000 2.329660 
# 
# From -- ./inp_files/4657.got.cif
#   From: 2010.05.17/outbox.cif.g08.bks.cpg/sg151_3_cif.got.tgz:4657.got - 2010.05.20 10:33:20.
