data_PCOD9575530
_publ_section_title
;
Structure prediction by ZEFSAII (Michael W. Deem and Ramdas Pophale) SiO2 
 PCOD9575530
Probable space group: P 31 1 2
;
_chemical_formula_sum "Si O2"
_cell_formula_units_Z 24
_cell_length_a 7.732412
_cell_length_b 7.732412
_cell_length_c 21.951008
_cell_angle_alpha 90.000000
_cell_angle_beta 90.000000
_cell_angle_gamma 120.000000
_cell_volume 1136.619420
_symmetry_space_group_name_H-M "P 31 1 2"
_symmetry_group_IT_number 151
_symmetry_cell_setting 'hexagonal'
loop_
_space_group_symop_operation_xyz
x,y,z
-y,x-y,1/3+z
-x+y,-x,2/3+z
-y,-x,2/3-z
-x+y,y,1/3-z
x,x-y,-z
loop_
_atom_site_type_symbol
_atom_site_label
_atom_site_fract_x
_atom_site_fract_y
_atom_site_fract_z
Si Si1 0.358128 0.790670 0.055420
Si Si2 0.861040 0.501088 0.305530
Si Si3 0.991052 0.235982 0.886666
Si Si4 0.075196 0.482129 0.196654
O O1 0.418138 0.679129 0.105515
O O2 0.208501 0.856075 0.083642
O O3 0.258987 0.629494 0.000000
O O4 0.545988 0.974546 0.024550
O O5 0.649583 0.350418 0.333334
O O6 0.856490 0.681666 0.271956
O O7 0.923631 0.393025 0.252942
O O8 0.927461 0.072540 0.833334
O O9 0.979672 0.420777 0.854138
O O10 0.187343 0.374686 0.166667
#
# Coordination Sequence:
#
# PCOD9575530 Si02
#       4
#     6   6   6   6
#     4   9  17  32  53  74 100 138 179 214 256 323
#     4  10  19  31  50  80 107 128 165 218 270 314
#     4   9  17  32  52  73  99 136 176 213 257 315
#     4   8  16  33  54  71  94 136 178 205 245 316
#
# _framework density 21.115248000000001
#
# number of rings (size 3 to 8) (size 9 to 14) (size 15 to 20)
#    0.000    3.000    0.000    0.750    0.000    0.000 
#    0.000   18.750    0.000    0.000    0.000    0.000 
#    0.000    0.000    0.000    0.000    0.000    0.000 
#
# Total GULP energy -133688.642153 kJ/mol
# GULP energy per Si atom -5570.360090 kJ/mol
# Density = 2.106719 g / cm^3
# Si number density = 21.115248 Si / 1000 Ang^3
#
#
#
# Elastic Constant Matrix: (Units=GPa)
#
#
# Indices 1 2 3 4 5 6 
#
# 1 59.7199 21.5073 27.4711 -0.0002 9.8801 0.0000
# 2 21.5073 59.7199 27.4711 0.0002 -9.8801 0.0000
# 3 27.4711 27.4711 89.8793 0.0000 0.0000 0.0000
# 4 -0.0002 0.0002 0.0000 8.7438 0.0000 -9.8801
# 5 9.8801 -9.8801 0.0000 0.0000 8.7438 -0.0002
# 6 0.0000 0.0000 0.0000 -9.8801 -0.0002 19.1063
#
#
#
# Elastic Compliance Matrix: (Units=1/GPa)
#
#
# Indices 1 2 3 4 5 6 
#
# 1 0.039237 -0.023718 -0.004744 0.000002 -0.071136 0.000000
# 2 -0.023718 0.039237 -0.004744 -0.000002 0.071136 0.000000
# 3 -0.004744 -0.004744 0.014026 0.000000 0.000000 0.000000
# 4 0.000002 -0.000002 0.000000 0.275130 0.000000 0.142273
# 5 -0.071136 0.071136 0.000000 0.000000 0.275130 0.000003
# 6 0.000000 0.000000 0.000000 0.142273 0.000003 0.125910
#
#
# Mechanical properties :
#
#
# Convention : Reuss Voigt Hill
#
# Bulk Modulus (GPa) = 38.32739 40.24647 39.28693
# Shear Modulus (GPa) = 5.92575 16.17672 11.05123
#
# Velocity S-wave (km/s) = 1.67704 2.77088 2.29023
# Velocity P-wave (km/s) = 4.68411 5.41653 5.06358
#
# Compressibility (1/GPa) = 0.02609100
#
# Stress axis : x y z
#
# Youngs Moduli (GPa) = 25.48599 25.48599 71.29774
#
# Poissons Ratio (x) = 0.60447 0.33820
# Poissons Ratio (y) = 0.60447 0.33820
# Poissons Ratio (z) = 0.12089 0.12089
#
# Static dielectric constant tensor:
#      x y z
#    x 1.772920 0.000000 0.000000 
#    y 0.000000 1.772920 0.000000 
#    z 0.000000 0.000000 1.846040 
# 
# From -- ./inp_files/3735.got.cif
#   From: 2010.05.17/outbox.cif.g08.bks.cpg/sg151_2_cif.got.tgz:3735.got - 2010.05.20 10:33:20.
