data_PCOD9575918
_publ_section_title
;
Structure prediction by ZEFSAII (Michael W. Deem and Ramdas Pophale) SiO2 
 PCOD9575918
Probable space group: P 31 2 1
;
_chemical_formula_sum "Si O2"
_cell_formula_units_Z 33
_cell_length_a 14.384254
_cell_length_b 14.384254
_cell_length_c 7.867196
_cell_angle_alpha 90.000000
_cell_angle_beta 90.000000
_cell_angle_gamma 120.000000
_cell_volume 1409.695419
_symmetry_space_group_name_H-M "P 31 2 1"
_symmetry_group_IT_number 152
_symmetry_cell_setting 'hexagonal'
loop_
_space_group_symop_operation_xyz
x,y,z
-y,x-y,1/3+z
-x+y,-x,2/3+z
x-y,-y,2/3-z
-x,-x+y,1/3-z
y,x,-z
loop_
_atom_site_type_symbol
_atom_site_label
_atom_site_fract_x
_atom_site_fract_y
_atom_site_fract_z
Si Si1 0.111559 0.411376 0.748451
Si Si2 0.397215 0.480153 0.183225
Si Si3 0.847399 0.235058 0.185556
Si Si4 0.960655 0.839355 0.483266
Si Si5 0.457227 0.000000 0.833334
Si Si6 0.335620 0.263889 0.334397
O O1 0.105508 0.521278 0.739186
O O2 0.211468 0.410595 0.656449
O O3 0.000000 0.322326 0.666667
O O4 0.124056 0.385706 0.947028
O O5 0.278821 0.460408 0.167732
O O6 0.451909 0.518490 0.366438
O O7 0.379352 0.357524 0.187623
O O8 0.880842 0.150710 0.117458
O O9 0.913215 0.345238 0.083061
O O10 0.935717 0.935717 0.500000
O O11 0.000000 0.828386 0.666667
O O12 0.048352 0.834241 0.365992
O O13 0.317788 0.317788 0.500000
#
# Coordination Sequence:
#
# PCOD9575918 Si02
#       6
#     6   6   6   6   3   6
#     4  11  26  43  71 102 142 189 248 297 370 438
#     4  10  24  46  70 104 146 189 236 303 375 437
#     4  10  22  44  72 101 140 189 233 301 365 431
#     4  11  23  40  68  98 139 187 228 282 367 426
#     4  10  20  46  72 104 140 184 242 290 360 438
#     4  11  25  44  71 102 143 180 237 301 360 434
#
# _framework density 23.409310999999999
#
# number of rings (size 3 to 8) (size 9 to 14) (size 15 to 20)
#    0.000    1.455    3.636    0.000    5.091    2.909 
#    6.545    0.000    0.000    0.000    0.000    0.000 
#    0.000    0.000    0.000    0.000    0.000    0.000 
#
# Total GULP energy -183980.284269 kJ/mol
# GULP energy per Si atom -5575.160129 kJ/mol
# Density = 2.335603 g / cm^3
# Si number density = 23.409311 Si / 1000 Ang^3
#
#
#
# Elastic Constant Matrix: (Units=GPa)
#
#
# Indices 1 2 3 4 5 6 
#
# 1 146.2990 69.7690 23.9731 12.9961 0.0000 0.0000
# 2 69.7690 146.2990 23.9731 -12.9961 0.0000 0.0000
# 3 23.9731 23.9731 60.7938 0.0000 0.0000 0.0000
# 4 12.9961 -12.9961 0.0000 19.2040 0.0000 0.0000
# 5 0.0000 0.0000 0.0000 0.0000 19.2040 12.9961
# 6 0.0000 0.0000 0.0000 0.0000 12.9961 38.2650
#
#
#
# Elastic Compliance Matrix: (Units=1/GPa)
#
#
# Indices 1 2 3 4 5 6 
#
# 1 0.011019 -0.005947 -0.002000 -0.011482 0.000000 0.000000
# 2 -0.005947 0.011019 -0.002000 0.011482 0.000000 0.000000
# 3 -0.002000 -0.002000 0.018026 0.000000 0.000000 0.000000
# 4 -0.011482 0.011482 0.000000 0.067613 0.000000 0.000000
# 5 0.000000 0.000000 0.000000 0.000000 0.067613 -0.022964
# 6 0.000000 0.000000 0.000000 0.000000 -0.022964 0.033933
#
#
# Mechanical properties :
#
#
# Convention : Reuss Voigt Hill
#
# Bulk Modulus (GPa) = 49.57817 65.42469 57.50143
# Shear Modulus (GPa) = 21.20067 31.04638 26.12353
#
# Velocity S-wave (km/s) = 3.01267 3.64571 3.34420
# Velocity P-wave (km/s) = 5.77290 6.76243 6.28716
#
# Compressibility (1/GPa) = 0.02017017
#
# Stress axis : x y z
#
# Youngs Moduli (GPa) = 90.75061 90.75061 55.47409
#
# Poissons Ratio (x) = 0.53971 0.11095
# Poissons Ratio (y) = 0.53971 0.11095
# Poissons Ratio (z) = 0.18151 0.18151
#
# Static dielectric constant tensor:
#      x y z
#    x 1.934290 0.000000 0.000000 
#    y 0.000000 1.934290 0.000000 
#    z 0.000000 0.000000 0.894370 
# 
# From -- ./inp_files/1169.got.cif
#   From: 2010.05.17/outbox.cif.g08.bks.cpg/sg152_1_cif.got.tgz:1169.got - 2010.05.20 10:36:06.
