data_PCOD9575231
_publ_section_title
;
Structure prediction by ZEFSAII (Michael W. Deem and Ramdas Pophale) SiO2 
 PCOD9575231
Probable space group: R -3
;
_chemical_formula_sum "Si O2"
_cell_formula_units_Z 54
_cell_length_a 14.107441
_cell_length_b 14.107441
_cell_length_c 12.214970
_cell_angle_alpha 90.000000
_cell_angle_beta 90.000000
_cell_angle_gamma 120.000000
_cell_volume 2105.326813
_symmetry_space_group_name_H-M "R -3"
_symmetry_group_IT_number 148
_symmetry_cell_setting 'hexagonal'
loop_
_space_group_symop_operation_xyz
x,y,z
-y,x-y,z
-x+y,-x,z
-x,-y,-z
y,-x+y,-z
x-y,x,-z
2/3+x,1/3+y,1/3+z
2/3-y,1/3+x-y,1/3+z
2/3-x+y,1/3-x,1/3+z
2/3-x,1/3-y,1/3-z
2/3+y,1/3-x+y,1/3-z
2/3+x-y,1/3+x,1/3-z
1/3+x,2/3+y,2/3+z
1/3-y,2/3+x-y,2/3+z
1/3-x+y,2/3-x,2/3+z
1/3-x,2/3-y,2/3-z
1/3+y,2/3-x+y,2/3-z
1/3+x-y,2/3+x,2/3-z
loop_
_atom_site_type_symbol
_atom_site_label
_atom_site_fract_x
_atom_site_fract_y
_atom_site_fract_z
Si Si1 0.137255 0.049192 0.845893
Si Si2 0.627440 0.894286 0.076245
Si Si3 0.341993 0.878582 0.013211
O O1 0.248698 0.077032 0.901003
O O2 0.471460 0.369401 0.858887
O O3 0.167634 0.090822 0.719870
O O4 0.073618 0.115641 0.874043
O O5 0.578854 0.786618 0.001897
O O6 0.631911 0.004012 0.033871
#
# Coordination Sequence:
#
# PCOD9575231 Si02
#       3
#    18  18  18
#     4  10  25  46  73 103 144 188 245 292 361 426
#     4  12  27  47  76 106 151 192 243 298 368 428
#     4  12  27  47  74 109 146 194 243 303 359 433
#
# _framework density 25.649225999999999
#
# number of rings (size 3 to 8) (size 9 to 14) (size 15 to 20)
#    0.667    0.000    3.333    3.000    9.333    2.667 
#    0.000    3.333    0.000    0.000    0.000    0.000 
#    0.000    0.000    0.000    0.000    0.000    0.000 
#
# Total GULP energy -100794.499091 kJ/mol
# GULP energy per Si atom -5599.694394 kJ/mol
# Density = 2.559085 g / cm^3
# Si number density = 25.649226 Si / 1000 Ang^3
#
#
#
# Elastic Constant Matrix: (Units=GPa)
#
#
# Indices 1 2 3 4 5 6 
#
# 1 134.2381 33.6369 -0.7802 -3.1792 5.3243 0.0000
# 2 33.6369 134.2381 -0.7802 3.1792 -5.3243 0.0000
# 3 -0.7802 -0.7802 55.4938 0.0000 0.0000 0.0000
# 4 -3.1792 3.1792 0.0000 28.0022 0.0000 -5.3243
# 5 5.3243 -5.3243 0.0000 0.0000 28.0022 -3.1792
# 6 0.0000 0.0000 0.0000 -5.3243 -3.1792 50.3006
#
#
#
# Elastic Compliance Matrix: (Units=1/GPa)
#
#
# Indices 1 2 3 4 5 6 
#
# 1 0.008088 -0.002131 0.000084 0.001160 -0.001943 0.000000
# 2 -0.002131 0.008088 0.000084 -0.001160 0.001943 0.000000
# 3 0.000084 0.000084 0.018022 0.000000 0.000000 0.000000
# 4 0.001160 -0.001160 0.000000 0.036714 0.000000 0.003886
# 5 -0.001943 0.001943 0.000000 0.000000 0.036714 0.002320
# 6 0.000000 0.000000 0.000000 0.003886 0.002320 0.020438
#
#
# Mechanical properties :
#
#
# Convention : Reuss Voigt Hill
#
# Bulk Modulus (GPa) = 33.03318 43.12477 38.07897
# Shear Modulus (GPa) = 35.19074 40.72057 37.95566
#
# Velocity S-wave (km/s) = 3.70807 3.98879 3.85099
# Velocity P-wave (km/s) = 5.58926 6.16958 5.88657
#
# Compressibility (1/GPa) = 0.03027260
#
# Stress axis : x y z
#
# Youngs Moduli (GPa) = 123.63353 123.63353 55.48658
#
# Poissons Ratio (x) = 0.26344 -0.00465
# Poissons Ratio (y) = 0.26344 -0.00465
# Poissons Ratio (z) = -0.01036 -0.01036
#
# Static dielectric constant tensor:
#      x y z
#    x 1.971250 0.000000 0.000000 
#    y 0.000000 1.971250 0.000000 
#    z 0.000000 0.000000 2.096870 
# 
# From -- ./inp_files/1787.got.cif
#   From: 2010.05.17/outbox.cif.g08.bks.cpg/sg148_1_cif.got.tgz:1787.got - 2010.05.20 13:50:20.
