data_PCOD9575098
_publ_section_title
;
Structure prediction by ZEFSAII (Michael W. Deem and Ramdas Pophale) SiO2 
 PCOD9575098
Probable space group: R -3
;
_chemical_formula_sum "Si O2"
_cell_formula_units_Z 108
_cell_length_a 14.764721
_cell_length_b 14.764721
_cell_length_c 28.635643
_cell_angle_alpha 90.000000
_cell_angle_beta 90.000000
_cell_angle_gamma 120.000000
_cell_volume 5406.149616
_symmetry_space_group_name_H-M "R -3"
_symmetry_group_IT_number 148
_symmetry_cell_setting 'hexagonal'
loop_
_space_group_symop_operation_xyz
x,y,z
-y,x-y,z
-x+y,-x,z
-x,-y,-z
y,-x+y,-z
x-y,x,-z
2/3+x,1/3+y,1/3+z
2/3-y,1/3+x-y,1/3+z
2/3-x+y,1/3-x,1/3+z
2/3-x,1/3-y,1/3-z
2/3+y,1/3-x+y,1/3-z
2/3+x-y,1/3+x,1/3-z
1/3+x,2/3+y,2/3+z
1/3-y,2/3+x-y,2/3+z
1/3-x+y,2/3-x,2/3+z
1/3-x,2/3-y,2/3-z
1/3+y,2/3-x+y,2/3-z
1/3+x-y,2/3+x,2/3-z
loop_
_atom_site_type_symbol
_atom_site_label
_atom_site_fract_x
_atom_site_fract_y
_atom_site_fract_z
Si Si1 0.634064 0.201174 0.614085
Si Si2 0.635650 0.114325 0.846868
Si Si3 0.736681 0.662808 0.402606
Si Si4 0.183786 0.330147 0.887926
Si Si5 0.310131 0.045389 0.905856
Si Si6 0.910560 0.623203 0.676954
O O1 0.747904 0.307212 0.612474
O O2 0.593765 0.114276 0.573872
O O3 0.643733 0.140371 0.658705
O O4 0.542056 0.138226 0.844077
O O5 0.671029 0.102732 0.898451
O O6 0.602516 0.012977 0.814264
O O7 0.639929 0.571116 0.430470
O O8 0.830139 0.637629 0.403435
O O9 0.693378 0.677531 0.353394
O O10 0.166667 0.333334 0.833334
O O11 0.068132 0.277930 0.909470
O O12 0.398091 0.037590 0.935491
O O13 0.833334 0.666667 0.666667
#
# Coordination Sequence:
#
# PCOD9575098 Si02
#       6
#    18  18  18  18  18  18
#     4   9  22  40  63  97 124 158 212 254 313 379
#     4  10  20  39  60  89 124 160 197 247 311 378
#     4  10  24  40  61  90 121 162 211 249 312 372
#     4  11  22  42  65  89 124 164 209 263 310 360
#     4  11  24  39  63  90 125 161 206 259 310 363
#     4  11  23  39  66  90 124 163 203 254 312 369
#
# _framework density 19.977250999999999
#
# number of rings (size 3 to 8) (size 9 to 14) (size 15 to 20)
#    0.333    1.333    1.667    2.167    7.000    2.667 
#    1.000    0.000    0.000    1.000    0.000    0.000 
#    0.000    0.000    0.000    0.000    0.000    0.000 
#
# Total GULP energy -200832.681188 kJ/mol
# GULP energy per Si atom -5578.685589 kJ/mol
# Density = 1.993178 g / cm^3
# Si number density = 19.977251 Si / 1000 Ang^3
#
#
#
# Elastic Constant Matrix: (Units=GPa)
#
#
# Indices 1 2 3 4 5 6 
#
# 1 85.2319 27.6885 -4.8898 -3.8103 -5.1508 0.0000
# 2 27.6885 85.2319 -4.8898 3.8103 5.1508 0.0000
# 3 -4.8898 -4.8898 45.5344 0.0000 0.0000 0.0000
# 4 -3.8103 3.8103 0.0000 15.7077 0.0000 5.1508
# 5 -5.1508 5.1508 0.0000 0.0000 15.7077 -3.8103
# 6 0.0000 0.0000 0.0000 5.1508 -3.8103 28.7717
#
#
#
# Elastic Compliance Matrix: (Units=1/GPa)
#
#
# Indices 1 2 3 4 5 6 
#
# 1 0.014027 -0.005088 0.000960 0.004637 0.006268 0.000000
# 2 -0.005088 0.014027 0.000960 -0.004637 -0.006268 0.000000
# 3 0.000960 0.000960 0.022168 0.000000 0.000000 0.000000
# 4 0.004637 -0.004637 0.000000 0.070023 0.000000 -0.012536
# 5 0.006268 -0.006268 0.000000 0.000000 0.070023 0.009273
# 6 0.000000 0.000000 0.000000 -0.012536 0.009273 0.038229
#
#
# Mechanical properties :
#
#
# Convention : Reuss Voigt Hill
#
# Bulk Modulus (GPa) = 22.78674 27.97954 25.38314
# Shear Modulus (GPa) = 20.04330 25.24338 22.64334
#
# Velocity S-wave (km/s) = 3.17094 3.55858 3.37034
# Velocity P-wave (km/s) = 4.98373 5.56064 5.28007
#
# Compressibility (1/GPa) = 0.04388518
#
# Stress axis : x y z
#
# Youngs Moduli (GPa) = 71.29296 71.29296 45.11086
#
# Poissons Ratio (x) = 0.36272 -0.04330
# Poissons Ratio (y) = 0.36272 -0.04330
# Poissons Ratio (z) = -0.06844 -0.06844
#
# Static dielectric constant tensor:
#      x y z
#    x 1.709670 0.000000 0.000000 
#    y 0.000000 1.709670 0.000000 
#    z 0.000000 0.000000 1.700090 
# 
# From -- ./inp_files/4012.got.cif
#   From: 2010.05.17/outbox.cif.g08.bks.cpg/sg148_3_cif.got.tgz:4012.got - 2010.05.20 13:50:20.
