data_PCOD9575160
_publ_section_title
;
Structure prediction by ZEFSAII (Michael W. Deem and Ramdas Pophale) SiO2 
 PCOD9575160
Probable space group: R -3
;
_chemical_formula_sum "Si O2"
_cell_formula_units_Z 108
_cell_length_a 25.266557
_cell_length_b 25.266557
_cell_length_c 10.430247
_cell_angle_alpha 90.000000
_cell_angle_beta 90.000000
_cell_angle_gamma 120.000000
_cell_volume 5766.567190
_symmetry_space_group_name_H-M "R -3"
_symmetry_group_IT_number 148
_symmetry_cell_setting 'hexagonal'
loop_
_space_group_symop_operation_xyz
x,y,z
-y,x-y,z
-x+y,-x,z
-x,-y,-z
y,-x+y,-z
x-y,x,-z
2/3+x,1/3+y,1/3+z
2/3-y,1/3+x-y,1/3+z
2/3-x+y,1/3-x,1/3+z
2/3-x,1/3-y,1/3-z
2/3+y,1/3-x+y,1/3-z
2/3+x-y,1/3+x,1/3-z
1/3+x,2/3+y,2/3+z
1/3-y,2/3+x-y,2/3+z
1/3-x+y,2/3-x,2/3+z
1/3-x,2/3-y,2/3-z
1/3+y,2/3-x+y,2/3-z
1/3+x-y,2/3+x,2/3-z
loop_
_atom_site_type_symbol
_atom_site_label
_atom_site_fract_x
_atom_site_fract_y
_atom_site_fract_z
Si Si1 0.755429 0.856063 0.227175
Si Si2 0.588539 0.697978 0.353334
Si Si3 0.078621 0.934133 0.001591
Si Si4 0.576280 0.092955 0.532427
Si Si5 0.412324 0.349681 0.930077
Si Si6 0.323395 0.120304 0.349231
O O1 0.751981 0.909332 0.303059
O O2 0.758913 0.808315 0.322930
O O3 0.809711 0.887403 0.121639
O O4 0.692337 0.816310 0.147309
O O5 0.534954 0.644706 0.435774
O O6 0.580579 0.669873 0.212109
O O7 0.656340 0.717095 0.402792
O O8 0.093772 0.908436 0.873326
O O9 0.006194 0.899335 0.018074
O O10 0.530973 0.066065 0.653282
O O11 0.552087 0.039578 0.427420
O O12 0.366398 0.284548 0.993442
#
# Coordination Sequence:
#
# PCOD9575160 Si02
#       6
#    18  18  18  18  18  18
#     4  11  24  43  61  96 129 165 215 263 313 386
#     4  12  24  40  63  90 130 166 217 253 321 374
#     4  11  22  43  68  94 125 160 215 269 322 376
#     4  10  22  39  63  92 126 167 204 267 316 377
#     4  12  24  39  63  89 129 171 211 262 308 382
#     4  10  22  40  63  92 128 164 215 254 319 377
#
# _framework density 18.728646999999999
#
# number of rings (size 3 to 8) (size 9 to 14) (size 15 to 20)
#    0.000    1.000    3.333    3.667    2.333    0.000 
#    0.000    0.000    0.000    0.000    0.000    1.167 
#    0.000    0.000    0.000    0.000    0.000    0.000 
#
# Total GULP energy -201129.579718 kJ/mol
# GULP energy per Si atom -5586.932770 kJ/mol
# Density = 1.868602 g / cm^3
# Si number density = 18.728647 Si / 1000 Ang^3
#
#
#
# Elastic Constant Matrix: (Units=GPa)
#
#
# Indices 1 2 3 4 5 6 
#
# 1 89.4477 24.7522 33.5387 -3.8051 -3.3272 -0.0018
# 2 24.7522 89.4472 33.5357 3.8009 3.3227 -0.0010
# 3 33.5387 33.5357 89.2863 -0.0004 0.0014 -0.0007
# 4 -3.8051 3.8009 -0.0004 15.7525 -0.0018 3.3242
# 5 -3.3272 3.3227 0.0014 -0.0018 15.7520 -3.8038
# 6 -0.0018 -0.0010 -0.0007 3.3242 -3.8038 32.3466
#
#
#
# Elastic Compliance Matrix: (Units=1/GPa)
#
#
# Indices 1 2 3 4 5 6 
#
# 1 0.013754 -0.002518 -0.004221 0.003930 0.003437 0.000001
# 2 -0.002518 0.013753 -0.004220 -0.003927 -0.003433 0.000000
# 3 -0.004221 -0.004220 0.014370 -0.000001 -0.000003 0.000000
# 4 0.003930 -0.003927 -0.000001 0.066828 0.000008 -0.006867
# 5 0.003437 -0.003433 -0.000003 0.000008 0.066832 0.007858
# 6 0.000001 0.000000 0.000000 -0.006867 0.007858 0.032545
#
#
# Mechanical properties :
#
#
# Convention : Reuss Voigt Hill
#
# Bulk Modulus (GPa) = 50.09963 50.20382 50.15173
# Shear Modulus (GPa) = 21.12796 24.52719 22.82758
#
# Velocity S-wave (km/s) = 3.36238 3.62278 3.49500
# Velocity P-wave (km/s) = 6.47167 6.66059 6.56681
#
# Compressibility (1/GPa) = 0.01996023
#
# Stress axis : x y z
#
# Youngs Moduli (GPa) = 72.70504 72.71076 69.58843
#
# Poissons Ratio (x) = 0.18312 0.29371
# Poissons Ratio (y) = 0.18310 0.29364
# Poissons Ratio (z) = 0.30686 0.30681
#
# Static dielectric constant tensor:
#      x y z
#    x 1.636740 0.000000 0.000000 
#    y 0.000000 1.636740 0.000000 
#    z 0.000000 0.000000 1.669060 
# 
# From -- ./inp_files/1537.got.cif
#   From: 2010.05.17/outbox.cif.g08.bks.cpg/sg148_1_cif.got.tgz:1537.got - 2010.05.20 13:50:20.
