data_PCOD9575643
_publ_section_title
;
Structure prediction by ZEFSAII (Michael W. Deem and Ramdas Pophale) SiO2 
 PCOD9575643
Probable space group: P 31 1 2
;
_chemical_formula_sum "Si O2"
_cell_formula_units_Z 42
_cell_length_a 8.573056
_cell_length_b 8.573056
_cell_length_c 28.589536
_cell_angle_alpha 90.000000
_cell_angle_beta 90.000000
_cell_angle_gamma 120.000000
_cell_volume 1819.738820
_symmetry_space_group_name_H-M "P 31 1 2"
_symmetry_group_IT_number 151
_symmetry_cell_setting 'hexagonal'
loop_
_space_group_symop_operation_xyz
x,y,z
-y,x-y,1/3+z
-x+y,-x,2/3+z
-y,-x,2/3-z
-x+y,y,1/3-z
x,x-y,-z
loop_
_atom_site_type_symbol
_atom_site_label
_atom_site_fract_x
_atom_site_fract_y
_atom_site_fract_z
Si Si1 0.962666 0.218792 0.724226
Si Si2 0.763932 0.070230 0.455939
Si Si3 0.941380 0.694111 0.448090
Si Si4 0.274862 0.549723 0.166667
Si Si5 0.257937 0.742064 0.333334
Si Si6 0.176567 0.658322 0.574387
Si Si7 0.612596 0.293526 0.556666
Si Si8 0.980459 0.843241 0.620733
O O1 0.801417 0.218869 0.752963
O O2 0.125600 0.221991 0.755146
O O3 0.059791 0.384069 0.688250
O O4 0.885299 0.031960 0.696913
O O5 0.892380 0.153584 0.501077
O O6 0.719186 0.212822 0.432037
O O7 0.843063 0.995283 0.416691
O O8 0.576244 0.907670 0.473067
O O9 0.741076 0.532077 0.430673
O O10 0.047125 0.582497 0.448720
O O11 0.429149 0.668566 0.203468
O O12 0.374639 0.747872 0.289541
O O13 0.070460 0.756422 0.589466
O O14 0.595190 0.297595 0.500000
O O15 0.871920 0.743839 0.666667
#
# Coordination Sequence:
#
# PCOD9575643 Si02
#       8
#     6   6   6   3   3   6   6   6
#     4  11  24  45  69  98 139 184 240 292 363 434
#     4  11  23  43  68 104 142 173 245 302 361 436
#     4  10  22  45  71 102 135 183 231 302 367 428
#     4  12  26  42  74 110 136 188 246 318 374 438
#     4  10  24  48  68  98 140 194 234 300 346 474
#     4  11  25  44  74  97 145 184 243 291 385 434
#     4  10  23  40  69 102 133 178 241 293 358 440
#     4  12  27  43  67 100 145 189 231 295 370 445
#
# _framework density 23.080234999999998
#
# number of rings (size 3 to 8) (size 9 to 14) (size 15 to 20)
#    0.000    1.143    2.143    3.429   11.000    0.000 
#    0.000    2.143    0.000    0.000    0.000    0.000 
#    0.000    0.000    0.000    0.000    0.000    0.000 
#
# Total GULP energy -234380.660402 kJ/mol
# GULP energy per Si atom -5580.491914 kJ/mol
# Density = 2.302770 g / cm^3
# Si number density = 23.080235 Si / 1000 Ang^3
#
#
#
# Elastic Constant Matrix: (Units=GPa)
#
#
# Indices 1 2 3 4 5 6 
#
# 1 60.6234 25.2192 23.1730 -0.0016 -4.3191 0.0000
# 2 25.2192 60.6234 23.1730 0.0016 4.3191 0.0000
# 3 23.1730 23.1730 96.7203 0.0000 0.0000 0.0000
# 4 -0.0016 0.0016 0.0000 19.4780 0.0000 4.3191
# 5 -4.3191 4.3191 0.0000 0.0000 19.4780 -0.0016
# 6 0.0000 0.0000 0.0000 4.3191 -0.0016 17.7021
#
#
#
# Elastic Compliance Matrix: (Units=1/GPa)
#
#
# Indices 1 2 3 4 5 6 
#
# 1 0.021620 -0.008240 -0.003206 0.000002 0.006621 0.000000
# 2 -0.008240 0.021620 -0.003206 -0.000002 -0.006621 0.000000
# 3 -0.003206 -0.003206 0.011875 0.000000 0.000000 0.000000
# 4 0.000002 -0.000002 0.000000 0.054276 0.000000 -0.013243
# 5 0.006621 -0.006621 0.000000 0.000000 0.054276 0.000005
# 6 0.000000 0.000000 0.000000 -0.013243 0.000005 0.059721
#
#
# Mechanical properties :
#
#
# Convention : Reuss Voigt Hill
#
# Bulk Modulus (GPa) = 38.74109 40.12195 39.43152
# Shear Modulus (GPa) = 19.13525 21.09176 20.11351
#
# Velocity S-wave (km/s) = 2.88249 3.02627 2.95525
# Velocity P-wave (km/s) = 5.28206 5.44357 5.36342
#
# Compressibility (1/GPa) = 0.02581238
#
# Stress axis : x y z
#
# Youngs Moduli (GPa) = 46.25273 46.25273 84.20927
#
# Poissons Ratio (x) = 0.38114 0.26995
# Poissons Ratio (y) = 0.38114 0.26995
# Poissons Ratio (z) = 0.14827 0.14827
#
# Static dielectric constant tensor:
#      x y z
#    x 1.976280 0.000000 0.000000 
#    y 0.000000 1.976280 0.000000 
#    z 0.000000 0.000000 1.576560 
# 
# From -- ./inp_files/5083.got.cif
#   From: 2010.05.17/outbox.cif.g08.bks.cpg/sg151_3_cif.got.tgz:5083.got - 2010.05.20 10:33:20.
