data_PCOD9575629
_publ_section_title
;
Structure prediction by ZEFSAII (Michael W. Deem and Ramdas Pophale) SiO2 
 PCOD9575629
Probable space group: P 31 1 2
;
_chemical_formula_sum "Si O2"
_cell_formula_units_Z 24
_cell_length_a 12.673325
_cell_length_b 12.673325
_cell_length_c 9.544328
_cell_angle_alpha 90.000000
_cell_angle_beta 90.000000
_cell_angle_gamma 120.000000
_cell_volume 1327.569090
_symmetry_space_group_name_H-M "P 31 1 2"
_symmetry_group_IT_number 151
_symmetry_cell_setting 'hexagonal'
loop_
_space_group_symop_operation_xyz
x,y,z
-y,x-y,1/3+z
-x+y,-x,2/3+z
-y,-x,2/3-z
-x+y,y,1/3-z
x,x-y,-z
loop_
_atom_site_type_symbol
_atom_site_label
_atom_site_fract_x
_atom_site_fract_y
_atom_site_fract_z
Si Si1 0.673970 0.165872 0.052787
Si Si2 0.245916 0.177399 0.863341
Si Si3 0.628170 0.552783 0.249165
Si Si4 0.820830 0.827725 0.278714
O O1 0.595241 0.190481 0.166667
O O2 0.715213 0.073306 0.114529
O O3 0.800390 0.283899 0.003533
O O4 0.607618 0.110724 0.905755
O O5 0.185193 0.059348 0.760892
O O6 0.140970 0.201422 0.920910
O O7 0.301853 0.150927 0.000000
O O8 0.503786 0.496215 0.333334
O O9 0.702836 0.698225 0.245557
O O10 0.922069 0.844137 0.166667
#
# Coordination Sequence:
#
# PCOD9575629 Si02
#       4
#     6   6   6   6
#     4  10  23  36  54  81 111 148 190 231 280 340
#     4  11  22  35  57  88 118 150 185 232 287 349
#     4  10  22  37  54  80 111 149 188 233 283 332
#     4  11  20  37  57  85 116 149 187 231 288 342
#
# _framework density 18.078154999999999
#
# number of rings (size 3 to 8) (size 9 to 14) (size 15 to 20)
#    0.000    1.500    5.000    3.000   10.500    0.000 
#    0.000    0.000    0.000    0.000    6.500    0.000 
#    0.000    0.000    0.000    0.000    0.000    0.000 
#
# Total GULP energy -133929.710550 kJ/mol
# GULP energy per Si atom -5580.404606 kJ/mol
# Density = 1.803701 g / cm^3
# Si number density = 18.078155 Si / 1000 Ang^3
#
#
#
# Elastic Constant Matrix: (Units=GPa)
#
#
# Indices 1 2 3 4 5 6 
#
# 1 55.8424 12.9777 25.1874 -0.0001 -4.9771 0.0000
# 2 12.9777 55.8424 25.1874 0.0001 4.9771 0.0000
# 3 25.1874 25.1874 126.9794 0.0000 0.0000 0.0000
# 4 -0.0001 0.0001 0.0000 24.0526 0.0000 4.9771
# 5 -4.9771 4.9771 0.0000 0.0000 24.0526 -0.0001
# 6 0.0000 0.0000 0.0000 4.9771 -0.0001 21.4323
#
#
#
# Elastic Compliance Matrix: (Units=1/GPa)
#
#
# Indices 1 2 3 4 5 6 
#
# 1 0.020753 -0.003754 -0.003372 0.000000 0.005071 0.000000
# 2 -0.003754 0.020753 -0.003372 0.000000 -0.005071 0.000000
# 3 -0.003372 -0.003372 0.009213 0.000000 0.000000 0.000000
# 4 0.000000 0.000000 0.000000 0.043674 0.000000 -0.010142
# 5 0.005071 -0.005071 0.000000 0.000000 0.043674 0.000000
# 6 0.000000 0.000000 0.000000 -0.010142 0.000000 0.049014
#
#
# Mechanical properties :
#
#
# Convention : Reuss Voigt Hill
#
# Bulk Modulus (GPa) = 33.64391 40.59661 37.12026
# Shear Modulus (GPa) = 22.93748 25.59496 24.26622
#
# Velocity S-wave (km/s) = 3.56588 3.76679 3.66771
# Velocity P-wave (km/s) = 5.96696 6.43608 6.20596
#
# Compressibility (1/GPa) = 0.02972307
#
# Stress axis : x y z
#
# Youngs Moduli (GPa) = 48.18627 48.18627 108.54269
#
# Poissons Ratio (x) = 0.18089 0.36599
# Poissons Ratio (y) = 0.18089 0.36599
# Poissons Ratio (z) = 0.16248 0.16248
#
# Static dielectric constant tensor:
#      x y z
#    x 1.625600 0.000000 0.000000 
#    y 0.000000 1.625600 0.000000 
#    z 0.000000 0.000000 1.664090 
# 
# From -- ./inp_files/1424.got.cif
#   From: 2010.05.17/outbox.cif.g08.bks.cpg/sg151_1_cif.got.tgz:1424.got - 2010.05.20 10:33:20.
