data_PCOD9575013
_publ_section_title
;
Structure prediction by ZEFSAII (Michael W. Deem and Ramdas Pophale) SiO2 
 PCOD9575013
Probable space group: R -3
;
_chemical_formula_sum "Si O2"
_cell_formula_units_Z 102
_cell_length_a 18.610649
_cell_length_b 18.610649
_cell_length_c 13.954895
_cell_angle_alpha 90.000000
_cell_angle_beta 90.000000
_cell_angle_gamma 120.000000
_cell_volume 4185.817038
_symmetry_space_group_name_H-M "R -3"
_symmetry_group_IT_number 148
_symmetry_cell_setting 'hexagonal'
loop_
_space_group_symop_operation_xyz
x,y,z
-y,x-y,z
-x+y,-x,z
-x,-y,-z
y,-x+y,-z
x-y,x,-z
2/3+x,1/3+y,1/3+z
2/3-y,1/3+x-y,1/3+z
2/3-x+y,1/3-x,1/3+z
2/3-x,1/3-y,1/3-z
2/3+y,1/3-x+y,1/3-z
2/3+x-y,1/3+x,1/3-z
1/3+x,2/3+y,2/3+z
1/3-y,2/3+x-y,2/3+z
1/3-x+y,2/3-x,2/3+z
1/3-x,2/3-y,2/3-z
1/3+y,2/3-x+y,2/3-z
1/3+x-y,2/3+x,2/3-z
loop_
_atom_site_type_symbol
_atom_site_label
_atom_site_fract_x
_atom_site_fract_y
_atom_site_fract_z
Si Si1 0.353225 0.263959 0.112795
Si Si2 0.640578 0.964272 0.256860
Si Si3 0.803441 0.197169 0.832886
Si Si4 0.814643 0.880086 0.843142
Si Si5 0.666667 0.333333 0.203901
Si Si6 0.820712 0.329513 0.972087
Si Si7 0.000000 0.000000 0.640323
O O1 0.338802 0.287822 0.218295
O O2 0.261610 0.185519 0.090520
O O3 0.433440 0.253926 0.120843
O O4 0.371752 0.334743 0.036595
O O5 0.657311 0.891862 0.220588
O O6 0.557201 0.960742 0.213510
O O7 0.748747 0.206905 0.749309
O O8 0.834035 0.260221 0.922622
O O9 0.901572 0.943692 0.894269
O O10 0.839457 0.841066 0.753546
O O11 0.666668 0.333334 0.088406
O O12 0.725891 0.299594 0.943648
#
# Coordination Sequence:
#
# PCOD9575013 Si02
#       7
#    18  18  18  18   6  18   6
#     4  11  26  44  67  95 145 186 232 287 364 425
#     4  11  25  42  66 102 137 193 230 286 352 435
#     4  10  22  36  62  99 139 168 232 277 347 411
#     4  10  23  44  68  95 136 180 234 298 358 410
#     4   9  21  39  73 104 118 181 239 298 342 419
#     4  10  18  33  58  94 136 172 209 281 339 412
#     4   9  15  25  52  90 130 164 200 253 349 388
#
# _framework density 24.368001
#
# number of rings (size 3 to 8) (size 9 to 14) (size 15 to 20)
#    0.000    1.765    1.765    2.118    9.882    2.824 
#    0.000    0.000    0.000    1.059    0.000    0.000 
#    0.000    0.000    0.000    0.000    0.000    0.000 
#
# Total GULP energy -189526.007841 kJ/mol
# GULP energy per Si atom -5574.294348 kJ/mol
# Density = 2.431254 g / cm^3
# Si number density = 24.368001 Si / 1000 Ang^3
#
#
#
# Elastic Constant Matrix: (Units=GPa)
#
#
# Indices 1 2 3 4 5 6 
#
# 1 99.4827 35.4739 4.2994 3.8679 7.5721 0.0000
# 2 35.4739 99.4827 4.2993 -3.8679 -7.5721 0.0000
# 3 4.2994 4.2993 67.9971 0.0000 0.0000 0.0000
# 4 3.8679 -3.8679 0.0000 23.1549 0.0000 -7.5721
# 5 7.5721 -7.5721 0.0000 0.0000 23.1549 3.8679
# 6 0.0000 0.0000 0.0000 -7.5721 3.8679 32.0044
#
#
#
# Elastic Compliance Matrix: (Units=1/GPa)
#
#
# Indices 1 2 3 4 5 6 
#
# 1 0.012376 -0.004936 -0.000470 -0.002892 -0.005661 0.000000
# 2 -0.004936 0.012376 -0.000470 0.002892 0.005661 0.000000
# 3 -0.000470 -0.000470 0.014766 0.000000 0.000000 0.000000
# 4 -0.002892 0.002892 0.000000 0.047856 0.000000 0.011323
# 5 -0.005661 0.005661 0.000000 0.000000 0.047856 -0.005784
# 6 0.000000 0.000000 0.000000 0.011323 -0.005784 0.034624
#
#
# Mechanical properties :
#
#
# Convention : Reuss Voigt Hill
#
# Bulk Modulus (GPa) = 36.01800 39.45642 37.73721
# Shear Modulus (GPa) = 26.19697 30.52218 28.35957
#
# Velocity S-wave (km/s) = 3.28236 3.54298 3.41516
# Velocity P-wave (km/s) = 5.40168 5.74143 5.57414
#
# Compressibility (1/GPa) = 0.02776390
#
# Stress axis : x y z
#
# Youngs Moduli (GPa) = 80.80304 80.80304 67.72316
#
# Poissons Ratio (x) = 0.39884 0.03186
# Poissons Ratio (y) = 0.39884 0.03186
# Poissons Ratio (z) = 0.03801 0.03801
#
# Static dielectric constant tensor:
#      x y z
#    x 1.958580 0.000000 0.000000 
#    y 0.000000 1.958580 0.000000 
#    z 0.000000 0.000000 1.902930 
# 
# From -- ./inp_files/2099.got.cif
#   From: 2010.05.17/outbox.cif.g08.bks.cpg/sg148_2_cif.got.tgz:2099.got - 2010.05.20 13:50:20.
