data_PCOD9575542
_publ_section_title
;
Structure prediction by ZEFSAII (Michael W. Deem and Ramdas Pophale) SiO2 
 PCOD9575542
Probable space group: P 31 1 2
;
_chemical_formula_sum "Si O2"
_cell_formula_units_Z 39
_cell_length_a 9.165729
_cell_length_b 9.165729
_cell_length_c 29.416469
_cell_angle_alpha 90.000000
_cell_angle_beta 90.000000
_cell_angle_gamma 120.000000
_cell_volume 2140.204129
_symmetry_space_group_name_H-M "P 31 1 2"
_symmetry_group_IT_number 151
_symmetry_cell_setting 'hexagonal'
loop_
_space_group_symop_operation_xyz
x,y,z
-y,x-y,1/3+z
-x+y,-x,2/3+z
-y,-x,2/3-z
-x+y,y,1/3-z
x,x-y,-z
loop_
_atom_site_type_symbol
_atom_site_label
_atom_site_fract_x
_atom_site_fract_y
_atom_site_fract_z
Si Si1 0.111496 0.885823 0.884299
Si Si2 0.594577 0.098020 0.308237
Si Si3 0.730973 0.756244 0.775667
Si Si4 0.721355 0.187083 0.582700
Si Si5 0.089833 0.439497 0.944191
Si Si6 0.262165 0.805990 0.967276
Si Si7 0.571892 0.143783 0.166667
O O1 0.150140 0.849861 0.833334
O O2 0.234960 0.896101 0.924391
O O3 0.937758 0.723830 0.899355
O O4 0.131437 0.069834 0.882899
O O5 0.743012 0.256989 0.333334
O O6 0.683687 0.048029 0.268637
O O7 0.472443 0.156973 0.287189
O O8 0.506876 0.938023 0.341195
O O9 0.653318 0.873587 0.762936
O O10 0.645584 0.619123 0.815600
O O11 0.740677 0.307388 0.540390
O O12 0.529729 0.075068 0.601176
O O13 0.241930 0.633472 0.947921
O O14 0.112553 0.373531 0.993811
#
# Coordination Sequence:
#
# PCOD9575542 Si02
#       7
#     6   6   6   6   6   6   3
#     4  11  20  36  61  88 117 163 207 249 303 390
#     4  10  19  34  64  87 115 157 205 255 305 364
#     4  10  20  38  61  84 117 162 198 252 303 374
#     4  10  22  36  61  89 118 160 207 256 311 375
#     4   9  20  38  62  87 123 153 202 260 309 360
#     4   9  19  37  61  87 117 158 203 244 312 372
#     4  10  20  40  56  84 120 158 204 242 310 380
#
# _framework density 18.222560999999999
#
# number of rings (size 3 to 8) (size 9 to 14) (size 15 to 20)
#    0.000    2.154    3.077    0.000    4.308    0.000 
#    6.923    0.000   16.923    0.000    0.000    0.000 
#    0.000    0.000    0.000    0.000    0.000    0.000 
#
# Total GULP energy -217108.332212 kJ/mol
# GULP energy per Si atom -5566.880313 kJ/mol
# Density = 1.818109 g / cm^3
# Si number density = 18.222561 Si / 1000 Ang^3
#
#
#
# Elastic Constant Matrix: (Units=GPa)
#
#
# Indices 1 2 3 4 5 6 
#
# 1 86.0217 33.0492 41.3627 0.0002 4.0601 0.0000
# 2 33.0492 86.0217 41.3627 -0.0002 -4.0601 0.0000
# 3 41.3627 41.3627 95.5203 0.0000 0.0000 0.0000
# 4 0.0002 -0.0002 0.0000 27.0606 0.0000 -4.0601
# 5 4.0601 -4.0601 0.0000 0.0000 27.0606 0.0002
# 6 0.0000 0.0000 0.0000 -4.0601 0.0002 26.4863
#
#
#
# Elastic Compliance Matrix: (Units=1/GPa)
#
#
# Indices 1 2 3 4 5 6 
#
# 1 0.015667 -0.003655 -0.005202 0.000000 -0.002899 0.000000
# 2 -0.003655 0.015667 -0.005202 0.000000 0.002899 0.000000
# 3 -0.005202 -0.005202 0.014974 0.000000 0.000000 0.000000
# 4 0.000000 0.000000 0.000000 0.037824 0.000000 0.005798
# 5 -0.002899 0.002899 0.000000 0.000000 0.037824 0.000000
# 6 0.000000 0.000000 0.000000 0.005798 0.000000 0.038644
#
#
# Mechanical properties :
#
#
# Convention : Reuss Voigt Hill
#
# Bulk Modulus (GPa) = 54.96960 55.45697 55.21329
# Shear Modulus (GPa) = 25.66993 26.24078 25.95535
#
# Velocity S-wave (km/s) = 3.75732 3.79887 3.77815
# Velocity P-wave (km/s) = 7.00389 7.05274 7.02836
#
# Compressibility (1/GPa) = 0.01819187
#
# Stress axis : x y z
#
# Youngs Moduli (GPa) = 63.82781 63.82781 66.78327
#
# Poissons Ratio (x) = 0.23329 0.34738
# Poissons Ratio (y) = 0.23329 0.34738
# Poissons Ratio (z) = 0.33201 0.33201
#
# Static dielectric constant tensor:
#      x y z
#    x 1.626890 0.000000 0.000000 
#    y 0.000000 1.626890 0.000000 
#    z 0.000000 0.000000 1.684160 
# 
# From -- ./inp_files/4940.got.cif
#   From: 2010.05.17/outbox.cif.g08.bks.cpg/sg151_3_cif.got.tgz:4940.got - 2010.05.20 10:33:20.
