data_PCOD9575205
_publ_section_title
;
Structure prediction by ZEFSAII (Michael W. Deem and Ramdas Pophale) SiO2 
 PCOD9575205
Probable space group: R -3
;
_chemical_formula_sum "Si O2"
_cell_formula_units_Z 54
_cell_length_a 11.566147
_cell_length_b 11.566147
_cell_length_c 19.736130
_cell_angle_alpha 90.000000
_cell_angle_beta 90.000000
_cell_angle_gamma 120.000000
_cell_volume 2286.493885
_symmetry_space_group_name_H-M "R -3"
_symmetry_group_IT_number 148
_symmetry_cell_setting 'hexagonal'
loop_
_space_group_symop_operation_xyz
x,y,z
-y,x-y,z
-x+y,-x,z
-x,-y,-z
y,-x+y,-z
x-y,x,-z
2/3+x,1/3+y,1/3+z
2/3-y,1/3+x-y,1/3+z
2/3-x+y,1/3-x,1/3+z
2/3-x,1/3-y,1/3-z
2/3+y,1/3-x+y,1/3-z
2/3+x-y,1/3+x,1/3-z
1/3+x,2/3+y,2/3+z
1/3-y,2/3+x-y,2/3+z
1/3-x+y,2/3-x,2/3+z
1/3-x,2/3-y,2/3-z
1/3+y,2/3-x+y,2/3-z
1/3+x-y,2/3+x,2/3-z
loop_
_atom_site_type_symbol
_atom_site_label
_atom_site_fract_x
_atom_site_fract_y
_atom_site_fract_z
Si Si1 0.267372 0.192032 0.232883
Si Si2 0.380625 0.351339 0.017463
Si Si3 0.704907 0.805236 0.518821
O O1 0.333334 0.166667 0.166667
O O2 0.360221 0.315450 0.283381
O O3 0.172941 0.238108 0.194457
O O4 0.226101 0.070219 0.284855
O O5 0.283307 0.351404 0.075908
O O6 0.500000 0.500000 0.000000
O O7 0.770992 0.961811 0.516968
#
# Coordination Sequence:
#
# PCOD9575205 Si02
#       3
#    18  18  18
#     4  10  23  43  67  97 142 179 228 293 352 418
#     4  11  22  42  68  98 136 182 230 283 357 418
#     4  11  22  40  68 104 140 182 236 294 344 416
#
# _framework density 23.616942999999999
#
# number of rings (size 3 to 8) (size 9 to 14) (size 15 to 20)
#    0.000    1.333    3.333    2.333    0.000    0.000 
#    2.000    0.000    0.000    4.667    0.000    0.000 
#    0.000    0.000    0.000    0.000    0.000    0.000 
#
# Total GULP energy -100215.449960 kJ/mol
# GULP energy per Si atom -5567.524998 kJ/mol
# Density = 2.356319 g / cm^3
# Si number density = 23.616943 Si / 1000 Ang^3
#
#
#
# Elastic Constant Matrix: (Units=GPa)
#
#
# Indices 1 2 3 4 5 6 
#
# 1 84.1468 28.5688 36.2852 5.7473 -10.8825 0.0000
# 2 28.5688 84.1468 36.2852 -5.7473 10.8825 0.0000
# 3 36.2852 36.2852 172.0988 0.0000 0.0000 0.0000
# 4 5.7473 -5.7473 0.0000 47.7784 0.0000 10.8825
# 5 -10.8825 10.8825 0.0000 0.0000 47.7784 5.7473
# 6 0.0000 0.0000 0.0000 10.8825 5.7473 27.7890
#
#
#
# Elastic Compliance Matrix: (Units=1/GPa)
#
#
# Indices 1 2 3 4 5 6 
#
# 1 0.015287 -0.005022 -0.002164 -0.002443 0.004626 0.000000
# 2 -0.005022 0.015287 -0.002164 0.002443 -0.004626 0.000000
# 3 -0.002164 -0.002164 0.006723 0.000000 0.000000 0.000000
# 4 -0.002443 0.002443 0.000000 0.023625 0.000000 -0.009252
# 5 0.004626 -0.004626 0.000000 0.000000 0.023625 -0.004886
# 6 0.000000 0.000000 0.000000 -0.009252 -0.004886 0.040619
#
#
# Mechanical properties :
#
#
# Convention : Reuss Voigt Hill
#
# Bulk Modulus (GPa) = 53.77316 60.29676 57.03496
# Shear Modulus (GPa) = 33.31830 40.61938 36.96884
#
# Velocity S-wave (km/s) = 3.76011 4.15170 3.96075
# Velocity P-wave (km/s) = 6.45520 6.96912 6.71708
#
# Compressibility (1/GPa) = 0.01859664
#
# Stress axis : x y z
#
# Youngs Moduli (GPa) = 65.41311 65.41311 148.73702
#
# Poissons Ratio (x) = 0.32851 0.32192
# Poissons Ratio (y) = 0.32851 0.32192
# Poissons Ratio (z) = 0.14158 0.14158
#
# Static dielectric constant tensor:
#      x y z
#    x 1.959140 0.000000 0.000000 
#    y 0.000000 1.959140 0.000000 
#    z 0.000000 0.000000 2.016740 
# 
# From -- ./inp_files/2927.got.cif
#   From: 2010.05.17/outbox.cif.g08.bks.cpg/sg148_2_cif.got.tgz:2927.got - 2010.05.20 13:50:20.
