data_PCOD9575503
_publ_section_title
;
Structure prediction by ZEFSAII (Michael W. Deem and Ramdas Pophale) SiO2 
 PCOD9575503
Probable space group: P 31 1 2
;
_chemical_formula_sum "Si O2"
_cell_formula_units_Z 39
_cell_length_a 11.493902
_cell_length_b 11.493902
_cell_length_c 18.697293
_cell_angle_alpha 90.000000
_cell_angle_beta 90.000000
_cell_angle_gamma 120.000000
_cell_volume 2139.165301
_symmetry_space_group_name_H-M "P 31 1 2"
_symmetry_group_IT_number 151
_symmetry_cell_setting 'hexagonal'
loop_
_space_group_symop_operation_xyz
x,y,z
-y,x-y,1/3+z
-x+y,-x,2/3+z
-y,-x,2/3-z
-x+y,y,1/3-z
x,x-y,-z
loop_
_atom_site_type_symbol
_atom_site_label
_atom_site_fract_x
_atom_site_fract_y
_atom_site_fract_z
Si Si1 0.518694 0.759347 0.500000
Si Si2 0.126626 0.248517 0.279200
Si Si3 0.983806 0.991903 0.500000
Si Si4 0.112186 0.495798 0.426895
Si Si5 0.658795 0.569415 0.640641
Si Si6 0.250587 0.501174 0.666667
Si Si7 0.051206 0.595363 0.213847
Si Si8 0.723286 0.799810 0.226797
O O1 0.618141 0.838603 0.566231
O O2 0.434919 0.601877 0.517937
O O3 0.085865 0.116740 0.232341
O O4 0.193203 0.247266 0.354782
O O5 0.992723 0.262298 0.289678
O O6 0.082800 0.938004 0.522766
O O7 0.080119 0.540060 0.500000
O O8 0.218799 0.623395 0.382568
O O9 0.162711 0.393149 0.442213
O O10 0.984914 0.427169 0.376414
O O11 0.763064 0.526128 0.666667
O O12 0.549106 0.488434 0.579036
O O13 0.298834 0.422822 0.613030
O O14 0.004732 0.663094 0.153209
#
# Coordination Sequence:
#
# PCOD9575503 Si02
#       8
#     3   6   3   6   6   3   6   6
#     4   9  18  32  56  86 118 149 174 230 284 349
#     4   9  19  36  57  83 112 143 194 235 287 330
#     4  11  22  38  56  82 112 155 192 234 280 331
#     4  10  18  32  57  87 116 140 179 235 294 340
#     4   9  18  33  55  79 110 150 190 232 270 336
#     4  10  18  32  50  88 122 140 174 232 300 346
#     4  10  19  31  53  83 116 147 183 230 290 336
#     4  11  21  35  54  83 115 147 183 236 285 338
#
# _framework density 18.231411000000001
#
# number of rings (size 3 to 8) (size 9 to 14) (size 15 to 20)
#    0.000    2.154    1.538    4.154    0.000    0.615 
#    2.769    0.000    1.692    0.000    2.000    0.000 
#    0.000    0.000    0.000    0.000    0.000    0.000 
#
# Total GULP energy -217336.419797 kJ/mol
# GULP energy per Si atom -5572.728713 kJ/mol
# Density = 1.818992 g / cm^3
# Si number density = 18.231411 Si / 1000 Ang^3
#
#
#
# Elastic Constant Matrix: (Units=GPa)
#
#
# Indices 1 2 3 4 5 6 
#
# 1 48.6560 44.5534 49.5441 -0.0015 -8.0221 0.0000
# 2 44.5534 48.6560 49.5441 0.0015 8.0220 0.0000
# 3 49.5441 49.5441 128.7222 0.0000 0.0000 0.0000
# 4 -0.0015 0.0015 0.0000 5.3602 0.0000 8.0220
# 5 -8.0221 8.0220 0.0000 0.0000 5.3602 -0.0015
# 6 0.0000 0.0000 0.0000 8.0220 -0.0015 2.0513
#
#
#
# Elastic Compliance Matrix: (Units=1/GPa)
#
#
# Indices 1 2 3 4 5 6 
#
# 1 -0.016036 0.034194 -0.006989 -0.000014 -0.075172 0.000000
# 2 0.034194 -0.016036 -0.006989 0.000014 0.075172 0.000000
# 3 -0.006989 -0.006989 0.013149 0.000000 0.000000 0.000000
# 4 -0.000014 0.000014 0.000000 -0.038445 0.000000 0.150345
# 5 -0.075172 0.075172 0.000000 0.000000 -0.038445 -0.000028
# 6 0.000000 0.000000 0.000000 0.150345 -0.000028 -0.100459
#
#
# Mechanical properties :
#
#
# Convention : Reuss Voigt Hill
#
# Bulk Modulus (GPa) = 46.49138 57.03529 51.76333
# Shear Modulus (GPa) = -21.78340 8.04721 -6.86810
#
# Velocity S-wave (km/s) = -3.46038 2.10321 -1.94303
# Velocity P-wave (km/s) = 3.09684 6.10328 4.83944
#
# Compressibility (1/GPa) = 0.02150936
#
# Stress axis : x y z
#
# Youngs Moduli (GPa) = -62.36154 -62.36154 76.05327
#
# Poissons Ratio (x) = 2.13238 0.53154
# Poissons Ratio (y) = 2.13238 0.53154
# Poissons Ratio (z) = -0.43584 -0.43584
#
# Static dielectric constant tensor:
#      x y z
#    x 1.660000 0.000000 0.000000 
#    y 0.000000 1.660000 0.000000 
#    z 0.000000 0.000000 1.675760 
# 
# From -- ./inp_files/3559.got.cif
#   From: 2010.05.17/outbox.cif.g08.bks.cpg/sg151_2_cif.got.tgz:3559.got - 2010.05.20 10:33:20.
