data_PCOD9575146
_publ_section_title
;
Structure prediction by ZEFSAII (Michael W. Deem and Ramdas Pophale) SiO2 
 PCOD9575146
Probable space group: R -3
;
_chemical_formula_sum "Si O2"
_cell_formula_units_Z 72
_cell_length_a 17.668911
_cell_length_b 17.668911
_cell_length_c 13.181426
_cell_angle_alpha 90.000000
_cell_angle_beta 90.000000
_cell_angle_gamma 120.000000
_cell_volume 3563.794013
_symmetry_space_group_name_H-M "R -3"
_symmetry_group_IT_number 148
_symmetry_cell_setting 'hexagonal'
loop_
_space_group_symop_operation_xyz
x,y,z
-y,x-y,z
-x+y,-x,z
-x,-y,-z
y,-x+y,-z
x-y,x,-z
2/3+x,1/3+y,1/3+z
2/3-y,1/3+x-y,1/3+z
2/3-x+y,1/3-x,1/3+z
2/3-x,1/3-y,1/3-z
2/3+y,1/3-x+y,1/3-z
2/3+x-y,1/3+x,1/3-z
1/3+x,2/3+y,2/3+z
1/3-y,2/3+x-y,2/3+z
1/3-x+y,2/3-x,2/3+z
1/3-x,2/3-y,2/3-z
1/3+y,2/3-x+y,2/3-z
1/3+x-y,2/3+x,2/3-z
loop_
_atom_site_type_symbol
_atom_site_label
_atom_site_fract_x
_atom_site_fract_y
_atom_site_fract_z
Si Si1 0.547859 0.412929 0.298112
Si Si2 0.451031 0.514492 0.303681
Si Si3 0.749149 0.956251 0.413443
Si Si4 0.387635 0.881680 0.936536
O O1 0.646804 0.471447 0.334525
O O2 0.488326 0.452399 0.337801
O O3 0.542970 0.416068 0.175961
O O4 0.396641 0.478396 0.199063
O O5 0.532484 0.608967 0.279227
O O6 0.381685 0.515402 0.380906
O O7 0.794259 0.910336 0.351873
O O8 0.647445 0.907839 0.382333
#
# Coordination Sequence:
#
# PCOD9575146 Si02
#       4
#    18  18  18  18
#     4  11  26  45  63  93 133 174 218 261 315 386
#     4  11  21  42  69  96 124 169 214 266 325 384
#     4  10  21  40  64  96 131 160 214 267 322 376
#     4  10  23  41  65  93 131 170 208 272 316 373
#
# _framework density 20.203187
#
# number of rings (size 3 to 8) (size 9 to 14) (size 15 to 20)
#    0.000    1.500    2.500    1.750    3.500    1.000 
#    1.500    1.250    0.000    0.000    0.000    0.000 
#    0.000    0.000    0.000    0.000    0.000    0.000 
#
# Total GULP energy -134164.768163 kJ/mol
# GULP energy per Si atom -5590.198673 kJ/mol
# Density = 2.015720 g / cm^3
# Si number density = 20.203187 Si / 1000 Ang^3
#
#
#
# Elastic Constant Matrix: (Units=GPa)
#
#
# Indices 1 2 3 4 5 6 
#
# 1 79.8939 29.8253 14.0342 -4.0753 -4.2363 0.0000
# 2 29.8253 79.8939 14.0342 4.0753 4.2363 0.0000
# 3 14.0342 14.0342 22.7176 0.0000 0.0000 0.0000
# 4 -4.0753 4.0753 0.0000 23.4982 0.0000 4.2363
# 5 -4.2363 4.2363 0.0000 0.0000 23.4982 -4.0753
# 6 0.0000 0.0000 0.0000 4.2363 -4.0753 25.0343
#
#
#
# Elastic Compliance Matrix: (Units=1/GPa)
#
#
# Indices 1 2 3 4 5 6 
#
# 1 0.016022 -0.005197 -0.006687 0.003680 0.003825 0.000000
# 2 -0.005197 0.016022 -0.006687 -0.003680 -0.003825 0.000000
# 3 -0.006687 -0.006687 0.052281 0.000000 0.000000 0.000000
# 4 0.003680 -0.003680 0.000000 0.045212 0.000000 -0.007651
# 5 0.003825 -0.003825 0.000000 0.000000 0.045212 0.007360
# 6 0.000000 0.000000 0.000000 -0.007651 0.007360 0.042438
#
#
# Mechanical properties :
#
#
# Convention : Reuss Voigt Hill
#
# Bulk Modulus (GPa) = 21.19462 33.14362 27.16912
# Shear Modulus (GPa) = 18.51458 22.71359 20.61409
#
# Velocity S-wave (km/s) = 3.03052 3.35663 3.19774
# Velocity P-wave (km/s) = 4.77063 5.60923 5.20684
#
# Compressibility (1/GPa) = 0.04718178
#
# Stress axis : x y z
#
# Youngs Moduli (GPa) = 62.41437 62.41437 19.12743
#
# Poissons Ratio (x) = 0.32437 0.12791
# Poissons Ratio (y) = 0.32437 0.12791
# Poissons Ratio (z) = 0.41738 0.41738
#
# Static dielectric constant tensor:
#      x y z
#    x 1.691010 0.000000 0.000000 
#    y 0.000000 1.691010 0.000000 
#    z 0.000000 0.000000 1.701690 
# 
# From -- ./inp_files/1855.got.cif
#   From: 2010.05.17/outbox.cif.g08.bks.cpg/sg148_1_cif.got.tgz:1855.got - 2010.05.20 13:50:20.
