data_PCOD9575171
_publ_section_title
;
Structure prediction by ZEFSAII (Michael W. Deem and Ramdas Pophale) SiO2 
 PCOD9575171
Probable space group: R -3
;
_chemical_formula_sum "Si O2"
_cell_formula_units_Z 72
_cell_length_a 14.257549
_cell_length_b 14.257549
_cell_length_c 18.338334
_cell_angle_alpha 90.000000
_cell_angle_beta 90.000000
_cell_angle_gamma 120.000000
_cell_volume 3228.347348
_symmetry_space_group_name_H-M "R -3"
_symmetry_group_IT_number 148
_symmetry_cell_setting 'hexagonal'
loop_
_space_group_symop_operation_xyz
x,y,z
-y,x-y,z
-x+y,-x,z
-x,-y,-z
y,-x+y,-z
x-y,x,-z
2/3+x,1/3+y,1/3+z
2/3-y,1/3+x-y,1/3+z
2/3-x+y,1/3-x,1/3+z
2/3-x,1/3-y,1/3-z
2/3+y,1/3-x+y,1/3-z
2/3+x-y,1/3+x,1/3-z
1/3+x,2/3+y,2/3+z
1/3-y,2/3+x-y,2/3+z
1/3-x+y,2/3-x,2/3+z
1/3-x,2/3-y,2/3-z
1/3+y,2/3-x+y,2/3-z
1/3+x-y,2/3+x,2/3-z
loop_
_atom_site_type_symbol
_atom_site_label
_atom_site_fract_x
_atom_site_fract_y
_atom_site_fract_z
Si Si1 0.886606 0.401567 0.027244
Si Si2 0.276507 0.941948 0.810639
Si Si3 0.149061 0.688754 0.125416
Si Si4 0.795894 0.439165 0.167162
O O1 0.917603 0.328519 0.076700
O O2 0.825675 0.444433 0.081019
O O3 0.826396 0.334983 0.955756
O O4 0.000000 0.500000 0.000000
O O5 0.166667 0.833334 0.833334
O O6 0.356593 0.894416 0.793890
O O7 0.343140 0.039597 0.868121
O O8 0.251103 0.791711 0.160031
O O9 0.685742 0.441485 0.184009
#
# Coordination Sequence:
#
# PCOD9575171 Si02
#       4
#    18  18  18  18
#     4  12  24  44  72 107 145 193 251 314 385 448
#     4  12  23  44  70 101 142 200 251 309 377 461
#     4  12  28  45  72 111 154 192 254 321 387 471
#     4  10  22  40  70 101 144 192 246 301 385 453
#
# _framework density 22.302432
#
# number of rings (size 3 to 8) (size 9 to 14) (size 15 to 20)
#    0.500    0.000    7.500    0.250    3.500    2.000 
#    0.000    0.000    5.500    0.000    0.000    5.250 
#    0.000    0.000    0.000    0.000    0.000    0.000 
#
# Total GULP energy -133908.033949 kJ/mol
# GULP energy per Si atom -5579.501415 kJ/mol
# Density = 2.225167 g / cm^3
# Si number density = 22.302432 Si / 1000 Ang^3
#
#
#
# Elastic Constant Matrix: (Units=GPa)
#
#
# Indices 1 2 3 4 5 6 
#
# 1 118.4490 41.5443 19.9054 -5.1316 -8.5725 0.0000
# 2 41.5443 118.4490 19.9054 5.1316 8.5725 0.0000
# 3 19.9054 19.9054 69.2471 0.0000 0.0000 0.0000
# 4 -5.1316 5.1316 0.0000 42.2646 0.0000 8.5725
# 5 -8.5725 8.5725 0.0000 0.0000 42.2646 -5.1316
# 6 0.0000 0.0000 0.0000 8.5725 -5.1316 38.4523
#
#
#
# Elastic Compliance Matrix: (Units=1/GPa)
#
#
# Indices 1 2 3 4 5 6 
#
# 1 0.010293 -0.003561 -0.001935 0.001682 0.002810 0.000000
# 2 -0.003561 0.010293 -0.001935 -0.001682 -0.002810 0.000000
# 3 -0.001935 -0.001935 0.015554 0.000000 0.000000 0.000000
# 4 0.001682 -0.001682 0.000000 0.025209 0.000000 -0.005620
# 5 0.002810 -0.002810 0.000000 0.000000 0.025209 0.003364
# 6 0.000000 0.000000 0.000000 -0.005620 0.003364 0.027708
#
#
# Mechanical properties :
#
#
# Convention : Reuss Voigt Hill
#
# Bulk Modulus (GPa) = 46.99963 52.09501 49.54732
# Shear Modulus (GPa) = 36.70532 39.58231 38.14381
#
# Velocity S-wave (km/s) = 4.06125 4.21741 4.14006
# Velocity P-wave (km/s) = 6.56591 6.86473 6.71698
#
# Compressibility (1/GPa) = 0.02127676
#
# Stress axis : x y z
#
# Youngs Moduli (GPa) = 97.15419 97.15419 64.29407
#
# Poissons Ratio (x) = 0.34598 0.12441
# Poissons Ratio (y) = 0.34598 0.12441
# Poissons Ratio (z) = 0.18800 0.18800
#
# Static dielectric constant tensor:
#      x y z
#    x 2.004700 0.000000 0.000000 
#    y 0.000000 2.004700 0.000000 
#    z 0.000000 0.000000 1.789450 
# 
# From -- ./inp_files/2549.got.cif
#   From: 2010.05.17/outbox.cif.g08.bks.cpg/sg148_2_cif.got.tgz:2549.got - 2010.05.20 13:50:20.
