data_PCOD9575843
_publ_section_title
;
Structure prediction by ZEFSAII (Michael W. Deem and Ramdas Pophale) SiO2 
 PCOD9575843
Probable space group: P 31 2 1
;
_chemical_formula_sum "Si O2"
_cell_formula_units_Z 24
_cell_length_a 8.089968
_cell_length_b 8.089968
_cell_length_c 20.201477
_cell_angle_alpha 90.000000
_cell_angle_beta 90.000000
_cell_angle_gamma 120.000000
_cell_volume 1145.004946
_symmetry_space_group_name_H-M "P 31 2 1"
_symmetry_group_IT_number 152
_symmetry_cell_setting 'hexagonal'
loop_
_space_group_symop_operation_xyz
x,y,z
-y,x-y,1/3+z
-x+y,-x,2/3+z
x-y,-y,2/3-z
-x,-x+y,1/3-z
y,x,-z
loop_
_atom_site_type_symbol
_atom_site_label
_atom_site_fract_x
_atom_site_fract_y
_atom_site_fract_z
Si Si1 0.641665 0.648974 0.630161
Si Si2 0.820497 0.407580 0.796082
Si Si3 0.958887 0.568080 0.413377
Si Si4 0.575542 0.000000 0.833334
Si Si5 0.000000 0.603837 0.666667
O O1 0.488140 0.547365 0.689112
O O2 0.683315 0.862297 0.616716
O O3 0.554538 0.525862 0.563922
O O4 0.823546 0.634563 0.650569
O O5 0.624932 0.397402 0.773066
O O6 0.953526 0.475361 0.731793
O O7 0.908382 0.555528 0.856259
O O8 0.769166 0.197809 0.820836
#
# Coordination Sequence:
#
# PCOD9575843 Si02
#       5
#     6   6   6   3   3
#     4  10  20  36  59  83 116 153 193 238 293 353
#     4  10  21  37  59  83 115 150 193 240 293 350
#     4  10  21  38  59  85 116 152 192 239 290 353
#     4  10  20  36  60  86 110 152 198 240 290 356
#     4  10  20  36  58  90 120 152 190 244 302 354
#
# _framework density 20.960609000000002
#
# number of rings (size 3 to 8) (size 9 to 14) (size 15 to 20)
#    0.000    2.000    0.000    4.500    0.000    4.000 
#    0.000   10.000    0.000    4.500    0.000    0.000 
#    0.000    0.000    0.000    0.000    0.000    0.000 
#
# Total GULP energy -134071.814796 kJ/mol
# GULP energy per Si atom -5586.325616 kJ/mol
# Density = 2.091290 g / cm^3
# Si number density = 20.960609 Si / 1000 Ang^3
#
#
#
# Elastic Constant Matrix: (Units=GPa)
#
#
# Indices 1 2 3 4 5 6 
#
# 1 60.4445 19.2776 30.6158 4.4629 -0.0002 0.0000
# 2 19.2776 60.4445 30.6158 -4.4629 0.0002 0.0000
# 3 30.6158 30.6158 148.5437 0.0000 0.0000 0.0000
# 4 4.4629 -4.4629 0.0000 32.5939 0.0000 0.0002
# 5 -0.0002 0.0002 0.0000 0.0000 32.5939 4.4629
# 6 0.0000 0.0000 0.0000 0.0002 4.4629 20.5835
#
#
#
# Elastic Compliance Matrix: (Units=1/GPa)
#
#
# Indices 1 2 3 4 5 6 
#
# 1 0.019969 -0.005066 -0.003072 -0.003428 0.000000 0.000000
# 2 -0.005066 0.019969 -0.003072 0.003428 0.000000 0.000000
# 3 -0.003072 -0.003072 0.007998 0.000000 0.000000 0.000000
# 4 -0.003428 0.003428 0.000000 0.031619 0.000000 0.000000
# 5 0.000000 0.000000 0.000000 0.000000 0.031619 -0.006856
# 6 0.000000 0.000000 0.000000 0.000000 -0.006856 0.050069
#
#
# Mechanical properties :
#
#
# Convention : Reuss Voigt Hill
#
# Bulk Modulus (GPa) = 39.18893 47.82790 43.50842
# Shear Modulus (GPa) = 26.01903 29.74917 27.88410
#
# Velocity S-wave (km/s) = 3.52707 3.77143 3.65130
# Velocity P-wave (km/s) = 5.94340 6.46780 6.21114
#
# Compressibility (1/GPa) = 0.02551741
#
# Stress axis : x y z
#
# Youngs Moduli (GPa) = 50.07849 50.07849 125.02875
#
# Poissons Ratio (x) = 0.25369 0.38403
# Poissons Ratio (y) = 0.25369 0.38403
# Poissons Ratio (z) = 0.15382 0.15382
#
# Static dielectric constant tensor:
#      x y z
#    x 1.779780 0.000000 0.000000 
#    y 0.000000 1.779780 0.000000 
#    z 0.000000 0.000000 1.752870 
# 
# From -- ./inp_files/2676.got.cif
#   From: 2010.05.17/outbox.cif.g08.bks.cpg/sg152_2_cif.got.tgz:2676.got - 2010.05.20 10:36:06.
