data_PCOD9575398
_publ_section_title
;
Structure prediction by ZEFSAII (Michael W. Deem and Ramdas Pophale) SiO2 
 PCOD9575398
Probable space group: P 3 2 1
;
_chemical_formula_sum "Si O2"
_cell_formula_units_Z 19
_cell_length_a 11.916783
_cell_length_b 11.916783
_cell_length_c 9.411717
_cell_angle_alpha 90.000000
_cell_angle_beta 90.000000
_cell_angle_gamma 120.000000
_cell_volume 1157.490816
_symmetry_space_group_name_H-M "P 3 2 1"
_symmetry_group_IT_number 150
_symmetry_cell_setting 'hexagonal'
loop_
_space_group_symop_operation_xyz
x,y,z
-y,x-y,z
-x+y,-x,z
x-y,-y,-z
-x,-x+y,-z
y,x,-z
loop_
_atom_site_type_symbol
_atom_site_label
_atom_site_fract_x
_atom_site_fract_y
_atom_site_fract_z
Si Si1 0.100048 0.586615 0.165219
Si Si2 0.666668 0.333334 0.634943
Si Si3 0.836308 0.572552 0.118511
Si Si4 0.673599 0.673599 0.000000
Si Si5 0.333335 0.666668 0.701864
O O1 0.194229 0.629398 0.298182
O O2 0.978562 0.611278 0.175884
O O3 0.175009 0.667216 0.024853
O O4 0.049166 0.437735 0.122031
O O5 0.666668 0.333334 0.466492
O O6 0.733109 0.477116 0.232362
O O7 0.800426 0.678973 0.065740
#
# Coordination Sequence:
#
# PCOD9575398 Si02
#       5
#     6   2   6   3   2
#     4  10  19  32  54  73 107 137 181 222 279 316
#     4  12  22  32  46  84 118 143 181 219 265 344
#     4  10  18  33  52  76  98 150 174 224 271 324
#     4  10  16  30  60  70 102 130 190 222 266 320
#     4  12  19  29  49  78 121 146 172 216 277 335
#
# _framework density 16.414819000000001
#
# number of rings (size 3 to 8) (size 9 to 14) (size 15 to 20)
#    0.000    1.895    9.474    0.000    0.000    1.263 
#    0.000    0.000    0.000    5.053    0.000    0.000 
#    0.000    0.000    2.526    0.000    0.000    0.000 
#
# Total GULP energy -105787.766001 kJ/mol
# GULP energy per Si atom -5567.777158 kJ/mol
# Density = 1.637746 g / cm^3
# Si number density = 16.414819 Si / 1000 Ang^3
#
#
#
# Elastic Constant Matrix: (Units=GPa)
#
#
# Indices 1 2 3 4 5 6 
#
# 1 82.9035 31.3045 24.6372 1.0442 0.0000 0.0000
# 2 31.3045 82.9019 24.6358 -1.0443 0.0000 0.0000
# 3 24.6372 24.6358 104.9851 0.0007 0.0000 0.0000
# 4 1.0442 -1.0443 0.0007 13.2634 0.0000 0.0000
# 5 0.0000 0.0000 0.0000 0.0000 13.2637 1.0444
# 6 0.0000 0.0000 0.0000 0.0000 1.0444 25.7994
#
#
#
# Elastic Compliance Matrix: (Units=1/GPa)
#
#
# Indices 1 2 3 4 5 6 
#
# 1 0.014592 -0.004850 -0.002286 -0.001531 0.000000 0.000000
# 2 -0.004850 0.014593 -0.002286 0.001531 0.000000 0.000000
# 3 -0.002286 -0.002286 0.010598 -0.000001 0.000000 0.000000
# 4 -0.001531 0.001531 -0.000001 0.075636 0.000000 0.000000
# 5 0.000000 0.000000 0.000000 0.000000 0.075635 -0.003062
# 6 0.000000 0.000000 0.000000 0.000000 -0.003062 0.038885
#
#
# Mechanical properties :
#
#
# Convention : Reuss Voigt Hill
#
# Bulk Modulus (GPa) = 47.75995 47.99396 47.87695
# Shear Modulus (GPa) = 19.54935 23.14617 21.34776
#
# Velocity S-wave (km/s) = 3.45477 3.75917 3.61018
# Velocity P-wave (km/s) = 6.71362 6.93855 6.82701
#
# Compressibility (1/GPa) = 0.02093805
#
# Stress axis : x y z
#
# Youngs Moduli (GPa) = 68.52919 68.52826 94.35610
#
# Poissons Ratio (x) = 0.33237 0.21573
# Poissons Ratio (y) = 0.33237 0.21571
# Poissons Ratio (z) = 0.15668 0.15666
#
# Static dielectric constant tensor:
#      x y z
#    x 1.613420 0.000000 0.000000 
#    y 0.000000 1.613430 0.000000 
#    z 0.000000 0.000000 1.519890 
# 
# From -- ./inp_files/430.got.cif
#   From: 2010.05.17/outbox.cif.g08.bks.cpg/sg150_cif.got.tgz:430.got - 2010.05.20 13:53:18.
