data_PCOD9575158
_publ_section_title
;
Structure prediction by ZEFSAII (Michael W. Deem and Ramdas Pophale) SiO2 
 PCOD9575158
Probable space group: R -3
;
_chemical_formula_sum "Si O2"
_cell_formula_units_Z 72
_cell_length_a 18.551586
_cell_length_b 18.551586
_cell_length_c 12.253223
_cell_angle_alpha 90.000000
_cell_angle_beta 90.000000
_cell_angle_gamma 120.000000
_cell_volume 3652.103333
_symmetry_space_group_name_H-M "R -3"
_symmetry_group_IT_number 148
_symmetry_cell_setting 'hexagonal'
loop_
_space_group_symop_operation_xyz
x,y,z
-y,x-y,z
-x+y,-x,z
-x,-y,-z
y,-x+y,-z
x-y,x,-z
2/3+x,1/3+y,1/3+z
2/3-y,1/3+x-y,1/3+z
2/3-x+y,1/3-x,1/3+z
2/3-x,1/3-y,1/3-z
2/3+y,1/3-x+y,1/3-z
2/3+x-y,1/3+x,1/3-z
1/3+x,2/3+y,2/3+z
1/3-y,2/3+x-y,2/3+z
1/3-x+y,2/3-x,2/3+z
1/3-x,2/3-y,2/3-z
1/3+y,2/3-x+y,2/3-z
1/3+x-y,2/3+x,2/3-z
loop_
_atom_site_type_symbol
_atom_site_label
_atom_site_fract_x
_atom_site_fract_y
_atom_site_fract_z
Si Si1 0.511485 0.808385 0.202694
Si Si2 0.246604 0.323866 0.857992
Si Si3 0.398735 0.151466 0.589632
Si Si4 0.106917 0.361060 0.556772
O O1 0.494105 0.721897 0.153887
O O2 0.522208 0.804488 0.332178
O O3 0.598033 0.879750 0.149148
O O4 0.166667 0.333334 0.833334
O O5 0.275899 0.143769 0.856757
O O6 0.330020 0.412275 0.846552
O O7 0.237201 0.295747 0.983005
O O8 0.333334 0.166667 0.666667
O O9 0.399535 0.067165 0.555528
#
# Coordination Sequence:
#
# PCOD9575158 Si02
#       4
#    18  18  18  18
#     4  11  21  37  60  90 124 167 219 278 333 396
#     4  12  23  38  62  93 125 168 220 275 334 404
#     4  10  22  39  60  89 127 167 214 271 334 400
#     4  11  21  38  60  88 125 168 214 274 339 404
#
# _framework density 19.714666999999999
#
# number of rings (size 3 to 8) (size 9 to 14) (size 15 to 20)
#    0.000    1.000    0.000   10.750    0.000    0.000 
#    0.000    0.000    0.000    1.000    0.000    5.250 
#    0.000    0.000    0.000    0.000    0.000    0.000 
#
# Total GULP energy -133690.627881 kJ/mol
# GULP energy per Si atom -5570.442828 kJ/mol
# Density = 1.966980 g / cm^3
# Si number density = 19.714667 Si / 1000 Ang^3
#
#
#
# Elastic Constant Matrix: (Units=GPa)
#
#
# Indices 1 2 3 4 5 6 
#
# 1 85.5313 65.4458 13.9802 -13.2085 10.0566 0.0000
# 2 65.4458 85.5313 13.9802 13.2085 -10.0566 0.0000
# 3 13.9802 13.9802 96.9317 0.0000 0.0000 0.0000
# 4 -13.2085 13.2085 0.0000 36.7145 0.0000 -10.0566
# 5 10.0566 -10.0566 0.0000 0.0000 36.7145 -13.2085
# 6 0.0000 0.0000 0.0000 -10.0566 -13.2085 10.0427
#
#
#
# Elastic Compliance Matrix: (Units=1/GPa)
#
#
# Indices 1 2 3 4 5 6 
#
# 1 0.101975 -0.095170 -0.000982 0.070925 -0.054001 0.000000
# 2 -0.095170 0.101975 -0.000982 -0.070925 0.054001 0.000000
# 3 -0.000982 -0.000982 0.010600 0.000000 0.000000 0.000000
# 4 0.070925 -0.070925 0.000000 0.107852 0.000000 0.108001
# 5 -0.054001 0.054001 0.000000 0.000000 0.107852 0.141850
# 6 0.000000 0.000000 0.000000 0.108001 0.141850 0.394290
#
#
# Mechanical properties :
#
#
# Convention : Reuss Voigt Hill
#
# Bulk Modulus (GPa) = 49.29942 50.53407 49.91675
# Shear Modulus (GPa) = 4.87533 28.33356 16.60445
#
# Velocity S-wave (km/s) = 1.57427 3.79513 2.90528
# Velocity P-wave (km/s) = 5.32590 6.70018 6.05217
#
# Compressibility (1/GPa) = 0.02028421
#
# Stress axis : x y z
#
# Youngs Moduli (GPa) = 9.80631 9.80631 94.34260
#
# Poissons Ratio (x) = 0.93327 0.09260
# Poissons Ratio (y) = 0.93327 0.09260
# Poissons Ratio (z) = 0.00963 0.00963
#
# Static dielectric constant tensor:
#      x y z
#    x 1.772180 0.000000 0.000000 
#    y 0.000000 1.772180 0.000000 
#    z 0.000000 0.000000 1.826240 
# 
# From -- ./inp_files/1884.got.cif
#   From: 2010.05.17/outbox.cif.g08.bks.cpg/sg148_1_cif.got.tgz:1884.got - 2010.05.20 13:50:20.
