data_PCOD9575752
_publ_section_title
;
Structure prediction by ZEFSAII (Michael W. Deem and Ramdas Pophale) SiO2 
 PCOD9575752
Probable space group: P 31 2 1
;
_chemical_formula_sum "Si O2"
_cell_formula_units_Z 30
_cell_length_a 11.247711
_cell_length_b 11.247711
_cell_length_c 15.365972
_cell_angle_alpha 90.000000
_cell_angle_beta 90.000000
_cell_angle_gamma 120.000000
_cell_volume 1683.522663
_symmetry_space_group_name_H-M "P 31 2 1"
_symmetry_group_IT_number 152
_symmetry_cell_setting 'hexagonal'
loop_
_space_group_symop_operation_xyz
x,y,z
-y,x-y,1/3+z
-x+y,-x,2/3+z
x-y,-y,2/3-z
-x,-x+y,1/3-z
y,x,-z
loop_
_atom_site_type_symbol
_atom_site_label
_atom_site_fract_x
_atom_site_fract_y
_atom_site_fract_z
Si Si1 0.691546 0.345773 0.416667
Si Si2 0.843305 0.421653 0.916667
Si Si3 0.741381 0.000000 0.333334
Si Si4 0.741378 0.741378 0.500000
Si Si5 0.706597 0.070549 0.148604
Si Si6 0.706597 0.636049 0.684730
O O1 0.607935 0.359010 0.336095
O O2 0.607935 0.248924 0.497238
O O3 0.794487 0.496998 0.453964
O O4 0.794486 0.297488 0.379370
O O5 0.943071 0.585157 0.901566
O O6 0.943071 0.357915 0.931767
O O7 0.681548 0.040364 0.251092
O O8 0.884169 0.133348 0.360832
O O9 0.884166 0.750819 0.472502
O O10 0.681545 0.641181 0.582242
#
# Coordination Sequence:
#
# PCOD9575752 Si02
#       6
#     6   6   3   3   6   6
#     4  11  22  38  60  96 131 158 210 274 323 362
#     4  11  22  38  60 100 125 162 210 270 321 374
#     4  10  18  38  60  86 120 162 208 248 302 390
#     4  10  18  38  60  86 120 162 208 248 302 390
#     4  10  21  36  62  91 120 165 207 261 319 382
#     4  10  21  36  62  91 120 165 207 261 319 382
#
# _framework density 17.819776999999998
#
# number of rings (size 3 to 8) (size 9 to 14) (size 15 to 20)
#    0.000    1.600    4.000    2.400    0.000    0.000 
#    0.000    0.000    0.000   19.200    0.000    0.000 
#    0.000    0.000    0.000    0.000    0.000    0.000 
#
# Total GULP energy -167064.210295 kJ/mol
# GULP energy per Si atom -5568.807010 kJ/mol
# Density = 1.777922 g / cm^3
# Si number density = 17.819777 Si / 1000 Ang^3
#
#
#
# Elastic Constant Matrix: (Units=GPa)
#
#
# Indices 1 2 3 4 5 6 
#
# 1 96.4885 64.2578 61.7404 0.0000 0.0001 0.0000
# 2 64.2578 96.4885 61.7404 0.0000 -0.0001 0.0000
# 3 61.7404 61.7404 151.8448 0.0000 0.0000 0.0000
# 4 0.0000 0.0000 0.0000 32.0739 0.0000 -0.0001
# 5 0.0001 -0.0001 0.0000 0.0000 32.0739 0.0000
# 6 0.0000 0.0000 0.0000 -0.0001 0.0000 16.1153
#
#
#
# Elastic Compliance Matrix: (Units=1/GPa)
#
#
# Indices 1 2 3 4 5 6 
#
# 1 0.020036 -0.010990 -0.003678 0.000000 0.000000 0.000000
# 2 -0.010990 0.020036 -0.003678 0.000000 0.000000 0.000000
# 3 -0.003678 -0.003678 0.009577 0.000000 0.000000 0.000000
# 4 0.000000 0.000000 0.000000 0.031178 0.000000 0.000000
# 5 0.000000 0.000000 0.000000 0.000000 0.031178 0.000000
# 6 0.000000 0.000000 0.000000 0.000000 0.000000 0.062053
#
#
# Mechanical properties :
#
#
# Convention : Reuss Voigt Hill
#
# Bulk Modulus (GPa) = 77.18033 80.03324 78.60678
# Shear Modulus (GPa) = 23.24818 26.52486 24.88652
#
# Velocity S-wave (km/s) = 3.61588 3.86230 3.74112
# Velocity P-wave (km/s) = 7.79990 8.05605 7.92901
#
# Compressibility (1/GPa) = 0.01295667
#
# Stress axis : x y z
#
# Youngs Moduli (GPa) = 49.90898 49.90898 104.41758
#
# Poissons Ratio (x) = 0.54849 0.38409
# Poissons Ratio (y) = 0.54849 0.38409
# Poissons Ratio (z) = 0.18358 0.18358
#
# Static dielectric constant tensor:
#      x y z
#    x 1.655080 0.000000 0.000000 
#    y 0.000000 1.655080 0.000000 
#    z 0.000000 0.000000 1.617240 
# 
# From -- ./inp_files/1966.got.cif
#   From: 2010.05.17/outbox.cif.g08.bks.cpg/sg152_1_cif.got.tgz:1966.got - 2010.05.20 10:36:06.
