data_PCOD9575505
_publ_section_title
;
Structure prediction by ZEFSAII (Michael W. Deem and Ramdas Pophale) SiO2 
 PCOD9575505
Probable space group: P 31 1 2
;
_chemical_formula_sum "Si O2"
_cell_formula_units_Z 39
_cell_length_a 12.254081
_cell_length_b 12.254081
_cell_length_c 16.675029
_cell_angle_alpha 90.000000
_cell_angle_beta 90.000000
_cell_angle_gamma 120.000000
_cell_volume 2168.496487
_symmetry_space_group_name_H-M "P 31 1 2"
_symmetry_group_IT_number 151
_symmetry_cell_setting 'hexagonal'
loop_
_space_group_symop_operation_xyz
x,y,z
-y,x-y,1/3+z
-x+y,-x,2/3+z
-y,-x,2/3-z
-x+y,y,1/3-z
x,x-y,-z
loop_
_atom_site_type_symbol
_atom_site_label
_atom_site_fract_x
_atom_site_fract_y
_atom_site_fract_z
Si Si1 0.154535 0.204268 0.475419
Si Si2 0.476768 0.200041 0.796215
Si Si3 0.284688 0.955395 0.362985
Si Si4 0.527852 0.478608 0.923771
Si Si5 0.882737 0.215285 0.982398
Si Si6 0.790193 0.084393 0.254894
Si Si7 0.743941 0.256060 0.833334
O O1 0.250774 0.297068 0.543202
O O2 0.229395 0.238242 0.391805
O O3 0.030611 0.213462 0.460510
O O4 0.126931 0.063466 0.500000
O O5 0.525184 0.342271 0.760394
O O6 0.413335 0.109742 0.720775
O O7 0.369389 0.169394 0.860714
O O8 0.594197 0.197431 0.834165
O O9 0.178374 0.821627 0.333334
O O10 0.417043 0.983018 0.325828
O O11 0.267891 0.068645 0.325112
O O12 0.494852 0.505149 0.833334
O O13 0.407198 0.347764 0.947981
O O14 0.797546 0.224623 0.911741
O O15 0.877271 0.122730 0.333334
#
# Coordination Sequence:
#
# PCOD9575505 Si02
#       7
#     6   6   6   6   6   6   3
#     4  10  21  39  54  82 117 158 216 238 292 373
#     4  10  21  33  56  85 126 148 186 246 320 374
#     4  10  18  32  59  78 110 150 201 247 291 354
#     4   9  18  34  50  87 114 143 189 246 309 359
#     4  10  21  34  53  86 114 158 195 243 301 353
#     4  11  23  35  56  88 119 156 192 260 311 364
#     4  12  18  34  56  88 122 150 188 246 304 368
#
# _framework density 17.984811000000001
#
# number of rings (size 3 to 8) (size 9 to 14) (size 15 to 20)
#    0.000    1.846    4.615    3.231    4.308    3.692 
#    0.000    0.000    0.000    1.846    4.000    0.000 
#    0.000    0.000    0.000    0.000    0.000    0.000 
#
# Total GULP energy -217245.955926 kJ/mol
# GULP energy per Si atom -5570.409126 kJ/mol
# Density = 1.794388 g / cm^3
# Si number density = 17.984811 Si / 1000 Ang^3
#
#
#
# Elastic Constant Matrix: (Units=GPa)
#
#
# Indices 1 2 3 4 5 6 
#
# 1 53.9152 11.8430 25.7187 -0.0011 4.9546 0.0000
# 2 11.8430 53.9152 25.7187 0.0011 -4.9546 0.0000
# 3 25.7187 25.7187 70.6493 0.0000 0.0000 0.0000
# 4 -0.0011 0.0011 0.0000 16.5537 0.0000 -4.9546
# 5 4.9546 -4.9546 0.0000 0.0000 16.5537 -0.0011
# 6 0.0000 0.0000 0.0000 -4.9546 -0.0011 21.0361
#
#
#
# Elastic Compliance Matrix: (Units=1/GPa)
#
#
# Indices 1 2 3 4 5 6 
#
# 1 0.023416 -0.002155 -0.007740 0.000002 -0.007654 0.000000
# 2 -0.002155 0.023416 -0.007740 -0.000002 0.007654 0.000000
# 3 -0.007740 -0.007740 0.019790 0.000000 0.000000 0.000000
# 4 0.000002 -0.000002 0.000000 0.064991 0.000000 0.015307
# 5 -0.007654 0.007654 0.000000 0.000000 0.064991 0.000003
# 6 0.000000 0.000000 0.000000 0.015307 0.000003 0.051143
#
#
# Mechanical properties :
#
#
# Convention : Reuss Voigt Hill
#
# Bulk Modulus (GPa) = 31.89483 33.89339 32.89411
# Shear Modulus (GPa) = 17.03768 18.50865 17.77317
#
# Velocity S-wave (km/s) = 3.08122 3.21148 3.14703
# Velocity P-wave (km/s) = 5.51647 5.71296 5.61557
#
# Compressibility (1/GPa) = 0.03135304
#
# Stress axis : x y z
#
# Youngs Moduli (GPa) = 42.70503 42.70503 50.53158
#
# Poissons Ratio (x) = 0.09202 0.39111
# Poissons Ratio (y) = 0.09202 0.39111
# Poissons Ratio (z) = 0.33053 0.33053
#
# Static dielectric constant tensor:
#      x y z
#    x 1.623370 0.000000 0.000000 
#    y 0.000000 1.623370 0.000000 
#    z 0.000000 0.000000 1.685330 
# 
# From -- ./inp_files/3507.got.cif
#   From: 2010.05.17/outbox.cif.g08.bks.cpg/sg151_2_cif.got.tgz:3507.got - 2010.05.20 10:33:20.
