data_PCOD9575562
_publ_section_title
;
Structure prediction by ZEFSAII (Michael W. Deem and Ramdas Pophale) SiO2 
 PCOD9575562
Probable space group: P 31 1 2
;
_chemical_formula_sum "Si O2"
_cell_formula_units_Z 45
_cell_length_a 11.078280
_cell_length_b 11.078280
_cell_length_c 19.623041
_cell_angle_alpha 90.000000
_cell_angle_beta 90.000000
_cell_angle_gamma 120.000000
_cell_volume 2085.650905
_symmetry_space_group_name_H-M "P 31 1 2"
_symmetry_group_IT_number 151
_symmetry_cell_setting 'hexagonal'
loop_
_space_group_symop_operation_xyz
x,y,z
-y,x-y,1/3+z
-x+y,-x,2/3+z
-y,-x,2/3-z
-x+y,y,1/3-z
x,x-y,-z
loop_
_atom_site_type_symbol
_atom_site_label
_atom_site_fract_x
_atom_site_fract_y
_atom_site_fract_z
Si Si1 0.762883 0.420384 0.095591
Si Si2 0.999604 0.371158 0.151592
Si Si3 0.284971 0.816279 0.695906
Si Si4 0.926965 0.137099 0.574007
Si Si5 0.925732 0.232262 0.961203
Si Si6 0.928480 0.071521 0.833334
Si Si7 0.903114 0.410455 0.575904
Si Si8 0.371241 0.041822 0.977378
O O1 0.735208 0.470415 0.166667
O O2 0.789441 0.539204 0.041827
O O3 0.644312 0.262767 0.084980
O O4 0.897513 0.406274 0.109039
O O5 0.143742 0.460353 0.109543
O O6 0.955158 0.211018 0.137703
O O7 0.959669 0.370357 0.230881
O O8 0.373192 0.746384 0.666667
O O9 0.119158 0.751603 0.684677
O O10 0.338109 0.955927 0.652098
O O11 0.880538 0.085191 0.651003
O O12 0.943909 0.290275 0.576562
O O13 0.049024 0.119987 0.541789
O O14 0.952166 0.188785 0.887945
O O15 0.945050 0.472525 0.500000
O O16 0.959985 0.517997 0.637298
O O17 0.346998 0.173499 0.000000
#
# Coordination Sequence:
#
# PCOD9575562 Si02
#       8
#     6   6   6   6   6   3   6   6
#     4  10  19  40  68 100 134 171 240 288 356 429
#     4  10  23  43  68 103 136 188 242 300 361 448
#     4  11  25  47  68 101 150 200 248 296 372 464
#     4  10  25  42  67  99 150 177 240 310 371 437
#     4  11  24  40  70  98 134 191 236 294 367 443
#     4  12  26  44  68 106 144 192 234 308 384 456
#     4  10  24  44  68 104 144 184 236 309 372 438
#     4  12  26  42  77 110 139 194 256 310 375 452
#
# _framework density 21.575997000000001
#
# number of rings (size 3 to 8) (size 9 to 14) (size 15 to 20)
#    0.000    1.333    2.000    3.200   11.200    0.000 
#    0.000    4.000    0.000    0.000    0.000    0.000 
#    0.000    0.000    0.000    0.000    0.000    0.000 
#
# Total GULP energy -250797.361451 kJ/mol
# GULP energy per Si atom -5573.274699 kJ/mol
# Density = 2.152689 g / cm^3
# Si number density = 21.575997 Si / 1000 Ang^3
#
#
#
# Elastic Constant Matrix: (Units=GPa)
#
#
# Indices 1 2 3 4 5 6 
#
# 1 65.9579 22.0074 27.9711 -0.0006 -4.3816 0.0000
# 2 22.0074 65.9579 27.9711 0.0006 4.3816 0.0000
# 3 27.9711 27.9711 152.7015 0.0000 0.0000 0.0000
# 4 -0.0006 0.0006 0.0000 36.1938 0.0000 4.3816
# 5 -4.3816 4.3816 0.0000 0.0000 36.1938 -0.0006
# 6 0.0000 0.0000 0.0000 4.3816 -0.0006 21.9753
#
#
#
# Elastic Compliance Matrix: (Units=1/GPa)
#
#
# Indices 1 2 3 4 5 6 
#
# 1 0.018091 -0.005224 -0.002357 0.000000 0.002823 0.000000
# 2 -0.005224 0.018091 -0.002357 0.000000 -0.002823 0.000000
# 3 -0.002357 -0.002357 0.007412 0.000000 0.000000 0.000000
# 4 0.000000 0.000000 0.000000 0.028312 0.000000 -0.005645
# 5 0.002823 -0.002823 0.000000 0.000000 0.028312 0.000001
# 6 0.000000 0.000000 0.000000 -0.005645 0.000001 0.046631
#
#
# Mechanical properties :
#
#
# Convention : Reuss Voigt Hill
#
# Bulk Modulus (GPa) = 42.16105 48.94625 45.55365
# Shear Modulus (GPa) = 28.63137 32.65040 30.64089
#
# Velocity S-wave (km/s) = 3.64675 3.89430 3.77256
# Velocity P-wave (km/s) = 6.10859 6.55405 6.33524
#
# Compressibility (1/GPa) = 0.02371857
#
# Stress axis : x y z
#
# Youngs Moduli (GPa) = 55.27506 55.27506 134.91311
#
# Poissons Ratio (x) = 0.28877 0.31798
# Poissons Ratio (y) = 0.28877 0.31798
# Poissons Ratio (z) = 0.13028 0.13028
#
# Static dielectric constant tensor:
#      x y z
#    x 1.821070 0.000000 0.000000 
#    y 0.000000 1.821070 0.000000 
#    z 0.000000 0.000000 1.845100 
# 
# From -- ./inp_files/3589.got.cif
#   From: 2010.05.17/outbox.cif.g08.bks.cpg/sg151_2_cif.got.tgz:3589.got - 2010.05.20 10:33:20.
