data_PCOD9575731
_publ_section_title
;
Structure prediction by ZEFSAII (Michael W. Deem and Ramdas Pophale) SiO2 
 PCOD9575731
Probable space group: P 31 2 1
;
_chemical_formula_sum "Si O2"
_cell_formula_units_Z 45
_cell_length_a 13.513253
_cell_length_b 13.513253
_cell_length_c 14.183341
_cell_angle_alpha 90.000000
_cell_angle_beta 90.000000
_cell_angle_gamma 120.000000
_cell_volume 2242.998545
_symmetry_space_group_name_H-M "P 31 2 1"
_symmetry_group_IT_number 152
_symmetry_cell_setting 'hexagonal'
loop_
_space_group_symop_operation_xyz
x,y,z
-y,x-y,1/3+z
-x+y,-x,2/3+z
x-y,-y,2/3-z
-x,-x+y,1/3-z
y,x,-z
loop_
_atom_site_type_symbol
_atom_site_label
_atom_site_fract_x
_atom_site_fract_y
_atom_site_fract_z
Si Si1 0.687303 0.032588 0.472085
Si Si2 0.356283 0.737208 0.429478
Si Si3 0.466140 0.019290 0.174072
Si Si4 0.382748 0.542029 0.501097
Si Si5 0.568732 0.568271 0.370420
Si Si6 0.000000 0.294725 0.666667
Si Si7 0.796648 0.189998 0.307926
Si Si8 0.145272 0.749069 0.334091
O O1 0.784410 0.136790 0.412037
O O2 0.697033 0.051139 0.583797
O O3 0.570160 0.030674 0.445955
O O4 0.670614 0.914114 0.432434
O O5 0.396337 0.844027 0.500472
O O6 0.325985 0.618901 0.479678
O O7 0.471110 0.766493 0.370944
O O8 0.253147 0.735978 0.371942
O O9 0.365415 0.999952 0.242212
O O10 0.427133 0.968754 0.071250
O O11 0.438389 0.522836 0.407335
O O12 0.498296 0.610602 0.565550
O O13 0.303830 0.431725 0.563657
O O14 0.626184 0.704371 0.377837
O O15 0.880768 0.180264 0.669168
#
# Coordination Sequence:
#
# PCOD9575731 Si02
#       8
#     6   6   6   6   6   3   6   6
#     4  10  18  31  52  78  97 145 195 235 284 332
#     4   9  20  30  48  73 104 149 186 230 274 333
#     4  10  18  34  51  71 109 143 191 229 276 335
#     4  10  22  33  50  76 111 150 196 221 290 346
#     4  10  20  37  49  72 110 152 181 243 272 344
#     4  10  22  34  52  80 112 150 190 238 290 338
#     4   9  18  33  52  71 104 141 199 235 277 342
#     4  11  21  33  51  79 116 151 191 241 283 349
#
# _framework density 20.062429999999999
#
# number of rings (size 3 to 8) (size 9 to 14) (size 15 to 20)
#    0.000    2.133    1.333    4.000    7.467    0.000 
#    0.000    0.000    0.000    0.000    0.000    0.000 
#    0.000   81.067    0.000    0.000    0.000    0.000 
#
# Total GULP energy -250925.187978 kJ/mol
# GULP energy per Si atom -5576.115288 kJ/mol
# Density = 2.001677 g / cm^3
# Si number density = 20.062430 Si / 1000 Ang^3
#
#
#
# Elastic Constant Matrix: (Units=GPa)
#
#
# Indices 1 2 3 4 5 6 
#
# 1 47.5707 6.4190 2.5410 -1.3722 0.0000 0.0000
# 2 6.4190 47.5707 2.5410 1.3722 0.0000 0.0000
# 3 2.5410 2.5410 87.6108 0.0000 0.0000 0.0000
# 4 -1.3722 1.3722 0.0000 21.7176 0.0000 0.0000
# 5 0.0000 0.0000 0.0000 0.0000 21.7176 -1.3722
# 6 0.0000 0.0000 0.0000 0.0000 -1.3722 20.5759
#
#
#
# Elastic Compliance Matrix: (Units=1/GPa)
#
#
# Indices 1 2 3 4 5 6 
#
# 1 0.021488 -0.002915 -0.000539 0.001542 0.000000 0.000000
# 2 -0.002915 0.021488 -0.000539 -0.001542 0.000000 0.000000
# 3 -0.000539 -0.000539 0.011445 0.000000 0.000000 0.000000
# 4 0.001542 -0.001542 0.000000 0.046240 0.000000 0.000000
# 5 0.000000 0.000000 0.000000 0.000000 0.046240 0.003084
# 6 0.000000 0.000000 0.000000 0.000000 0.003084 0.048806
#
#
# Mechanical properties :
#
#
# Convention : Reuss Voigt Hill
#
# Bulk Modulus (GPa) = 21.53492 22.86158 22.19825
# Shear Modulus (GPa) = 22.81311 24.21896 23.51604
#
# Velocity S-wave (km/s) = 3.37576 3.47822 3.42737
# Velocity P-wave (km/s) = 5.09427 5.24887 5.17215
#
# Compressibility (1/GPa) = 0.04643620
#
# Stress axis : x y z
#
# Youngs Moduli (GPa) = 46.53768 46.53768 87.37160
#
# Poissons Ratio (x) = 0.13567 0.04707
# Poissons Ratio (y) = 0.13567 0.04707
# Poissons Ratio (z) = 0.02507 0.02507
#
# Static dielectric constant tensor:
#      x y z
#    x 1.739050 0.000000 0.000000 
#    y 0.000000 1.739050 0.000000 
#    z 0.000000 0.000000 1.753720 
# 
# From -- ./inp_files/2180.got.cif
#   From: 2010.05.17/outbox.cif.g08.bks.cpg/sg152_2_cif.got.tgz:2180.got - 2010.05.20 10:36:06.
