data_PCOD9575764
_publ_section_title
;
Structure prediction by ZEFSAII (Michael W. Deem and Ramdas Pophale) SiO2 
 PCOD9575764
Probable space group: P 31 2 1
;
_chemical_formula_sum "Si O2"
_cell_formula_units_Z 36
_cell_length_a 25.317843
_cell_length_b 25.317843
_cell_length_c 5.385690
_cell_angle_alpha 90.000000
_cell_angle_beta 90.000000
_cell_angle_gamma 120.000000
_cell_volume 2989.684696
_symmetry_space_group_name_H-M "P 31 2 1"
_symmetry_group_IT_number 152
_symmetry_cell_setting 'hexagonal'
loop_
_space_group_symop_operation_xyz
x,y,z
-y,x-y,1/3+z
-x+y,-x,2/3+z
x-y,-y,2/3-z
-x,-x+y,1/3-z
y,x,-z
loop_
_atom_site_type_symbol
_atom_site_label
_atom_site_fract_x
_atom_site_fract_y
_atom_site_fract_z
Si Si1 0.521633 0.247300 0.585061
Si Si2 0.425673 0.034800 0.083735
Si Si3 0.965378 0.519601 0.417111
Si Si4 0.627707 0.357831 0.092745
Si Si5 0.623437 0.175089 0.076363
Si Si6 0.495671 0.176128 0.069421
O O1 0.588942 0.255184 0.617448
O O2 0.533871 0.316498 0.577926
O O3 0.497343 0.209060 0.330258
O O4 0.487685 0.210411 0.832214
O O5 0.489700 0.034122 0.086275
O O6 0.444122 0.105267 0.081050
O O7 0.391091 0.000000 0.333334
O O8 0.391774 0.000000 0.833334
O O9 0.894673 0.500757 0.414909
O O10 0.000000 0.554281 0.666667
O O11 0.000000 0.553593 0.166667
O O12 0.621870 0.296670 0.196257
O O13 0.567134 0.355882 0.005432
O O14 0.558908 0.173568 0.034794
#
# Coordination Sequence:
#
# PCOD9575764 Si02
#       6
#     6   6   6   6   6   6
#     4  11  20  29  39  55  76  97 111 135 165 207
#     4   9  16  29  45  56  68  88 111 142 174 194
#     4   9  19  31  42  54  66  83 116 150 171 195
#     4  11  19  29  38  55  78  95 118 130 158 210
#     4  10  19  30  42  54  70  98 113 138 174 206
#     4  10  21  30  40  58  75  90 118 141 162 208
#
# _framework density 12.041403000000001
#
# number of rings (size 3 to 8) (size 9 to 14) (size 15 to 20)
#    0.000    2.000    1.667    4.000    0.000   12.000 
#    0.000    0.000    0.000    0.000    0.000    0.000 
#    0.000    0.000    0.000    0.000    0.000    0.000 
#
# Total GULP energy -200401.749332 kJ/mol
# GULP energy per Si atom -5566.715259 kJ/mol
# Density = 1.201400 g / cm^3
# Si number density = 12.041403 Si / 1000 Ang^3
#
#
#
# Elastic Constant Matrix: (Units=GPa)
#
#
# Indices 1 2 3 4 5 6 
#
# 1 45.2971 25.6445 33.4582 -0.4874 0.0000 0.0000
# 2 25.6445 45.2971 33.4582 0.4874 0.0000 0.0000
# 3 33.4582 33.4582 98.6711 0.0000 0.0000 0.0000
# 4 -0.4874 0.4874 0.0000 11.3976 0.0000 0.0000
# 5 0.0000 0.0000 0.0000 0.0000 11.3976 -0.4874
# 6 0.0000 0.0000 0.0000 0.0000 -0.4874 9.8263
#
#
#
# Elastic Compliance Matrix: (Units=1/GPa)
#
#
# Indices 1 2 3 4 5 6 
#
# 1 0.035858 -0.015133 -0.007028 0.002180 0.000000 0.000000
# 2 -0.015133 0.035858 -0.007028 -0.002180 0.000000 0.000000
# 3 -0.007028 -0.007028 0.014901 0.000000 0.000000 0.000000
# 4 0.002180 -0.002180 0.000000 0.087925 0.000000 0.000000
# 5 0.000000 0.000000 0.000000 0.000000 0.087925 0.004361
# 6 0.000000 0.000000 0.000000 0.000000 0.004361 0.101984
#
#
# Mechanical properties :
#
#
# Convention : Reuss Voigt Hill
#
# Bulk Modulus (GPa) = 35.41055 41.59857 38.50456
# Shear Modulus (GPa) = 11.56761 12.97124 12.26943
#
# Velocity S-wave (km/s) = 3.10280 3.28566 3.19554
# Velocity P-wave (km/s) = 6.50444 7.00110 6.75733
#
# Compressibility (1/GPa) = 0.02824017
#
# Stress axis : x y z
#
# Youngs Moduli (GPa) = 27.88743 27.88743 67.11123
#
# Poissons Ratio (x) = 0.42203 0.47163
# Poissons Ratio (y) = 0.42203 0.47163
# Poissons Ratio (z) = 0.19598 0.19598
#
# Static dielectric constant tensor:
#      x y z
#    x 1.384600 0.000000 0.000000 
#    y 0.000000 1.384600 0.000000 
#    z 0.000000 0.000000 1.459890 
# 
# From -- ./inp_files/565.got.cif
#   From: 2010.05.17/outbox.cif.g08.bks.cpg/sg152_1_cif.got.tgz:565.got - 2010.05.20 10:36:06.
