data_PCOD9575536
_publ_section_title
;
Structure prediction by ZEFSAII (Michael W. Deem and Ramdas Pophale) SiO2 
 PCOD9575536
Probable space group: P 31 1 2
;
_chemical_formula_sum "Si O2"
_cell_formula_units_Z 39
_cell_length_a 7.254212
_cell_length_b 7.254212
_cell_length_c 35.119756
_cell_angle_alpha 90.000000
_cell_angle_beta 90.000000
_cell_angle_gamma 120.000000
_cell_volume 1600.525539
_symmetry_space_group_name_H-M "P 31 1 2"
_symmetry_group_IT_number 151
_symmetry_cell_setting 'hexagonal'
loop_
_space_group_symop_operation_xyz
x,y,z
-y,x-y,1/3+z
-x+y,-x,2/3+z
-y,-x,2/3-z
-x+y,y,1/3-z
x,x-y,-z
loop_
_atom_site_type_symbol
_atom_site_label
_atom_site_fract_x
_atom_site_fract_y
_atom_site_fract_z
Si Si1 0.818200 0.181801 0.333334
Si Si2 0.085770 0.332768 0.486260
Si Si3 0.988684 0.359326 0.408634
Si Si4 0.772519 0.752682 0.361364
Si Si5 0.962982 0.742089 0.435591
Si Si6 0.508610 0.365759 0.461541
Si Si7 0.703899 0.624339 0.283074
O O1 0.830497 0.303906 0.372498
O O2 0.056925 0.267270 0.317343
O O3 0.063019 0.531510 0.500000
O O4 0.319843 0.413685 0.470193
O O5 0.927232 0.236875 0.449729
O O6 0.066930 0.204702 0.525205
O O7 0.061980 0.600023 0.420473
O O8 0.175577 0.325194 0.393336
O O9 0.931235 0.840685 0.397214
O O10 0.839657 0.684168 0.321937
O O11 0.565238 0.535513 0.374268
O O12 0.727473 0.572602 0.450655
O O13 0.540377 0.270189 0.500000
O O14 0.436996 0.224134 0.422752
#
# Coordination Sequence:
#
# PCOD9575536 Si02
#       7
#     3   6   6   6   6   6   6
#     4  10  20  34  54  80 106 132 172 218 260 308
#     4   9  19  36  53  73 106 143 177 216 264 319
#     4   9  18  34  53  74 103 139 174 214 261 312
#     4   9  18  34  54  77 105 139 176 218 264 309
#     4  10  20  36  55  77 107 140 175 217 264 316
#     4  10  19  33  55  81 105 138 180 223 266 307
#     4   8  17  34  53  72 106 145 175 212 264 320
#
# _framework density 24.366997999999999
#
# number of rings (size 3 to 8) (size 9 to 14) (size 15 to 20)
#    0.000    2.769    0.000    1.385    0.000    6.154 
#    0.000   16.154    0.000    1.846    0.000    0.000 
#    0.000    0.000    0.000    0.000    0.000    0.000 
#
# Total GULP energy -217417.364304 kJ/mol
# GULP energy per Si atom -5574.804213 kJ/mol
# Density = 2.431154 g / cm^3
# Si number density = 24.366998 Si / 1000 Ang^3
#
#
#
# Elastic Constant Matrix: (Units=GPa)
#
#
# Indices 1 2 3 4 5 6 
#
# 1 50.8785 13.4455 43.7635 0.0000 -0.4649 0.0000
# 2 13.4455 50.8785 43.7635 0.0000 0.4649 0.0000
# 3 43.7635 43.7635 240.2239 0.0000 0.0000 0.0000
# 4 0.0000 0.0000 0.0000 46.4993 0.0000 0.4649
# 5 -0.4649 0.4649 0.0000 0.0000 46.4993 0.0000
# 6 0.0000 0.0000 0.0000 0.4649 0.0000 18.7165
#
#
#
# Elastic Compliance Matrix: (Units=1/GPa)
#
#
# Indices 1 2 3 4 5 6 
#
# 1 0.023696 -0.003025 -0.003766 0.000000 0.000267 0.000000
# 2 -0.003025 0.023696 -0.003766 0.000000 -0.000267 0.000000
# 3 -0.003766 -0.003766 0.005535 0.000000 0.000000 0.000000
# 4 0.000000 0.000000 0.000000 0.021511 0.000000 -0.000534
# 5 0.000267 -0.000267 0.000000 0.000000 0.021511 0.000000
# 6 0.000000 0.000000 0.000000 -0.000534 0.000000 0.053442
#
#
# Mechanical properties :
#
#
# Convention : Reuss Voigt Hill
#
# Bulk Modulus (GPa) = 31.43391 60.43619 45.93505
# Shear Modulus (GPa) = 27.60788 38.41028 33.00908
#
# Velocity S-wave (km/s) = 3.36966 3.97460 3.68457
# Velocity P-wave (km/s) = 5.29790 6.77640 6.08224
#
# Compressibility (1/GPa) = 0.03181278
#
# Stress axis : x y z
#
# Youngs Moduli (GPa) = 42.20185 42.20185 180.67414
#
# Poissons Ratio (x) = 0.12767 0.68036
# Poissons Ratio (y) = 0.12767 0.68036
# Poissons Ratio (z) = 0.15892 0.15892
#
# Static dielectric constant tensor:
#      x y z
#    x 1.983500 0.000000 0.000000 
#    y 0.000000 1.983500 0.000000 
#    z 0.000000 0.000000 2.112730 
# 
# From -- ./inp_files/4970.got.cif
#   From: 2010.05.17/outbox.cif.g08.bks.cpg/sg151_3_cif.got.tgz:4970.got - 2010.05.20 10:33:20.
