data_PCOD9575647
_publ_section_title
;
Structure prediction by ZEFSAII (Michael W. Deem and Ramdas Pophale) SiO2 
 PCOD9575647
Probable space group: P 31 1 2
;
_chemical_formula_sum "Si O2"
_cell_formula_units_Z 18
_cell_length_a 10.313796
_cell_length_b 10.313796
_cell_length_c 8.816541
_cell_angle_alpha 90.000000
_cell_angle_beta 90.000000
_cell_angle_gamma 120.000000
_cell_volume 812.205521
_symmetry_space_group_name_H-M "P 31 1 2"
_symmetry_group_IT_number 151
_symmetry_cell_setting 'hexagonal'
loop_
_space_group_symop_operation_xyz
x,y,z
-y,x-y,1/3+z
-x+y,-x,2/3+z
-y,-x,2/3-z
-x+y,y,1/3-z
x,x-y,-z
loop_
_atom_site_type_symbol
_atom_site_label
_atom_site_fract_x
_atom_site_fract_y
_atom_site_fract_z
Si Si1 0.690762 0.104511 0.200755
Si Si2 0.251370 0.252725 0.567515
Si Si3 0.535409 0.766159 0.326299
O O1 0.810163 0.189838 0.333334
O O2 0.587485 0.174970 0.166667
O O3 0.586662 0.930434 0.256851
O O4 0.748972 0.107111 0.030948
O O5 0.138610 0.277220 0.666667
O O6 0.302823 0.380540 0.439569
O O7 0.174702 0.087351 0.500000
O O8 0.357939 0.642062 0.333334
O O9 0.588182 0.794091 0.500000
#
# Coordination Sequence:
#
# PCOD9575647 Si02
#       3
#     6   6   6
#     4  11  24  42  64  94 131 175 226 281 341 410
#     4  10  23  40  62  95 131 172 224 277 339 414
#     4  11  22  40  68  99 134 175 220 280 346 414
#
# _framework density 22.161878000000002
#
# number of rings (size 3 to 8) (size 9 to 14) (size 15 to 20)
#    0.000    1.333    0.000    5.000    0.000   10.667 
#    0.000    1.667    0.000    0.000    0.000    0.000 
#    0.000    0.000    0.000    0.000    0.000    0.000 
#
# Total GULP energy -100249.520984 kJ/mol
# GULP energy per Si atom -5569.417832 kJ/mol
# Density = 2.211144 g / cm^3
# Si number density = 22.161878 Si / 1000 Ang^3
#
#
#
# Elastic Constant Matrix: (Units=GPa)
#
#
# Indices 1 2 3 4 5 6 
#
# 1 66.8066 29.6401 33.4793 -0.0009 4.9843 0.0000
# 2 29.6401 66.8066 33.4793 0.0009 -4.9843 0.0000
# 3 33.4793 33.4793 169.0179 0.0000 0.0000 0.0000
# 4 -0.0009 0.0009 0.0000 21.4693 0.0000 -4.9843
# 5 4.9843 -4.9843 0.0000 0.0000 21.4693 -0.0009
# 6 0.0000 0.0000 0.0000 -4.9843 -0.0009 18.5832
#
#
#
# Elastic Compliance Matrix: (Units=1/GPa)
#
#
# Indices 1 2 3 4 5 6 
#
# 1 0.020357 -0.008335 -0.002381 0.000001 -0.006661 0.000000
# 2 -0.008335 0.020357 -0.002381 -0.000001 0.006661 0.000000
# 3 -0.002381 -0.002381 0.006860 0.000000 0.000000 0.000000
# 4 0.000001 -0.000001 0.000000 0.049671 0.000000 0.013322
# 5 -0.006661 0.006661 0.000000 0.000000 0.049671 0.000002
# 6 0.000000 0.000000 0.000000 0.013322 0.000002 0.057385
#
#
# Mechanical properties :
#
#
# Convention : Reuss Voigt Hill
#
# Bulk Modulus (GPa) = 46.77685 55.09208 50.93447
# Shear Modulus (GPa) = 21.04169 26.03986 23.54078
#
# Velocity S-wave (km/s) = 3.08466 3.43152 3.26271
# Velocity P-wave (km/s) = 5.81718 6.37286 6.10135
#
# Compressibility (1/GPa) = 0.02137809
#
# Stress axis : x y z
#
# Youngs Moduli (GPa) = 49.12287 49.12287 145.77467
#
# Poissons Ratio (x) = 0.40946 0.34713
# Poissons Ratio (y) = 0.40946 0.34713
# Poissons Ratio (z) = 0.11697 0.11697
#
# Static dielectric constant tensor:
#      x y z
#    x 1.864520 0.000000 0.000000 
#    y 0.000000 1.864520 0.000000 
#    z 0.000000 0.000000 2.427450 
# 
# From -- ./inp_files/1116.got.cif
#   From: 2010.05.17/outbox.cif.g08.bks.cpg/sg151_1_cif.got.tgz:1116.got - 2010.05.20 10:33:20.
