data_PCOD9575128
_publ_section_title
;
Structure prediction by ZEFSAII (Michael W. Deem and Ramdas Pophale) SiO2 
 PCOD9575128
Probable space group: R -3
;
_chemical_formula_sum "Si O2"
_cell_formula_units_Z 84
_cell_length_a 15.879660
_cell_length_b 15.879660
_cell_length_c 20.929902
_cell_angle_alpha 90.000000
_cell_angle_beta 90.000000
_cell_angle_gamma 120.000000
_cell_volume 4570.673778
_symmetry_space_group_name_H-M "R -3"
_symmetry_group_IT_number 148
_symmetry_cell_setting 'hexagonal'
loop_
_space_group_symop_operation_xyz
x,y,z
-y,x-y,z
-x+y,-x,z
-x,-y,-z
y,-x+y,-z
x-y,x,-z
2/3+x,1/3+y,1/3+z
2/3-y,1/3+x-y,1/3+z
2/3-x+y,1/3-x,1/3+z
2/3-x,1/3-y,1/3-z
2/3+y,1/3-x+y,1/3-z
2/3+x-y,1/3+x,1/3-z
1/3+x,2/3+y,2/3+z
1/3-y,2/3+x-y,2/3+z
1/3-x+y,2/3-x,2/3+z
1/3-x,2/3-y,2/3-z
1/3+y,2/3-x+y,2/3-z
1/3+x-y,2/3+x,2/3-z
loop_
_atom_site_type_symbol
_atom_site_label
_atom_site_fract_x
_atom_site_fract_y
_atom_site_fract_z
Si Si1 0.998822 0.393247 0.199306
Si Si2 0.962865 0.693552 0.688884
Si Si3 0.390082 0.503433 0.922438
Si Si4 0.666668 0.333334 0.062835
Si Si5 0.000000 0.000000 0.578516
Si Si6 0.222900 0.056605 0.431561
O O1 0.972908 0.316315 0.255910
O O2 0.093168 0.414075 0.157552
O O3 0.035310 0.496343 0.232764
O O4 0.919253 0.368798 0.145069
O O5 0.904729 0.591939 0.649191
O O6 0.891279 0.719203 0.728408
O O7 0.012186 0.775294 0.634356
O O8 0.353106 0.579991 0.919029
O O9 0.666668 0.333334 0.987241
O O10 0.081105 0.110700 0.561191
#
# Coordination Sequence:
#
# PCOD9575128 Si02
#       6
#    18  18  18   6   6  18
#     4  11  21  39  57  85 122 156 195 240 293 349
#     4  10  21  38  54  88 124 154 188 240 301 349
#     4  10  22  38  60  86 121 156 195 250 289 351
#     4  12  21  39  61  82 112 157 204 241 296 340
#     4  12  21  31  58  90 117 154 184 235 305 370
#     4  11  22  34  58  87 121 154 191 237 297 358
#
# _framework density 18.378034
#
# number of rings (size 3 to 8) (size 9 to 14) (size 15 to 20)
#    0.000    1.286    4.286    2.571    3.000    0.857 
#    0.000    3.214    0.000    0.000    0.000    1.500 
#    0.000    0.000    0.000    0.000    0.000    0.000 
#
# Total GULP energy -156175.205670 kJ/mol
# GULP energy per Si atom -5577.685917 kJ/mol
# Density = 1.833620 g / cm^3
# Si number density = 18.378034 Si / 1000 Ang^3
#
#
#
# Elastic Constant Matrix: (Units=GPa)
#
#
# Indices 1 2 3 4 5 6 
#
# 1 46.2515 26.5662 42.8034 -5.2775 4.7976 -0.0008
# 2 26.5662 46.2520 42.8035 5.2776 -4.7968 -0.0010
# 3 42.8034 42.8035 127.7211 0.0001 -0.0001 0.0001
# 4 -5.2775 5.2776 0.0001 22.3639 0.0000 -4.7974
# 5 4.7976 -4.7968 -0.0001 0.0000 22.3643 -5.2778
# 6 -0.0008 -0.0010 0.0001 -4.7974 -5.2778 9.8429
#
#
#
# Elastic Compliance Matrix: (Units=1/GPa)
#
#
# Indices 1 2 3 4 5 6 
#
# 1 0.044364 -0.021702 -0.007595 0.015591 -0.014171 0.000002
# 2 -0.021702 0.044362 -0.007594 -0.015589 0.014171 0.000003
# 3 -0.007595 -0.007594 0.012920 0.000000 0.000000 -0.000002
# 4 0.015591 -0.015589 0.000000 0.058153 0.000001 0.028344
# 5 -0.014171 0.014171 0.000000 0.000001 0.058152 0.031182
# 6 0.000002 0.000003 -0.000002 0.028344 0.031182 0.132131
#
#
# Mechanical properties :
#
#
# Convention : Reuss Voigt Hill
#
# Bulk Modulus (GPa) = 35.88824 49.39676 42.64250
# Shear Modulus (GPa) = 11.54330 18.11765 14.83048
#
# Velocity S-wave (km/s) = 2.50892 3.14320 2.84380
# Velocity P-wave (km/s) = 5.28801 6.33320 5.83406
#
# Compressibility (1/GPa) = 0.02786428
#
# Stress axis : x y z
#
# Youngs Moduli (GPa) = 22.54104 22.54164 77.40015
#
# Poissons Ratio (x) = 0.48919 0.58783
# Poissons Ratio (y) = 0.48918 0.58780
# Poissons Ratio (z) = 0.17119 0.17119
#
# Static dielectric constant tensor:
#      x y z
#    x 1.661750 0.000000 0.000000 
#    y 0.000000 1.661750 0.000000 
#    z 0.000000 0.000000 1.635920 
# 
# From -- ./inp_files/3346.got.cif
#   From: 2010.05.17/outbox.cif.g08.bks.cpg/sg148_2_cif.got.tgz:3346.got - 2010.05.20 13:50:20.
