data_PCOD9575392
_publ_section_title
;
Structure prediction by ZEFSAII (Michael W. Deem and Ramdas Pophale) SiO2 
 PCOD9575392
Probable space group: P 3 1 2
;
_chemical_formula_sum "Si O2"
_cell_formula_units_Z 24
_cell_length_a 13.990247
_cell_length_b 13.990247
_cell_length_c 8.563420
_cell_angle_alpha 90.000000
_cell_angle_beta 90.000000
_cell_angle_gamma 120.000000
_cell_volume 1451.538772
_symmetry_space_group_name_H-M "P 3 1 2"
_symmetry_group_IT_number 149
_symmetry_cell_setting 'hexagonal'
loop_
_space_group_symop_operation_xyz
x,y,z
-y,x-y,z
-x+y,-x,z
-y,-x,-z
-x+y,y,-z
x,x-y,-z
loop_
_atom_site_type_symbol
_atom_site_label
_atom_site_fract_x
_atom_site_fract_y
_atom_site_fract_z
Si Si1 0.999056 0.787017 0.562945
Si Si2 0.999056 0.212040 0.062945
Si Si3 0.120350 0.665723 0.437055
Si Si4 0.545373 0.879651 0.062945
O O1 0.094264 0.905737 0.500000
O O2 0.001140 0.788493 0.750000
O O3 0.033460 0.700126 0.500000
O O4 0.882202 0.764404 0.500000
O O5 0.094266 0.188531 0.000000
O O6 0.033456 0.333333 0.000000
O O7 0.882203 0.117798 0.000000
O O8 0.239071 0.760930 0.500000
O O9 0.097737 0.548869 0.500000
O O10 0.121826 0.667806 0.250000
O O11 0.451131 0.902261 0.000000
O O12 0.521864 0.760932 0.000000
#
# Coordination Sequence:
#
# PCOD9575392 Si02
#       4
#     6   6   6   6
#     4  11  21  35  53  77 105 137 172 212 256 305
#     4  11  21  35  53  77 105 137 172 212 256 305
#     4  11  21  35  53  77 105 137 172 212 256 305
#     4  11  21  35  53  77 105 137 172 212 256 305
#
# _framework density 16.534178000000001
#
# number of rings (size 3 to 8) (size 9 to 14) (size 15 to 20)
#    0.000    1.000    0.000   13.000    0.000    0.000 
#    0.000    0.000    0.000    1.000    0.000    7.000 
#    0.000    0.000    0.000    0.000    0.000    0.000 
#
# Total GULP energy -134202.182429 kJ/mol
# GULP energy per Si atom -5591.757601 kJ/mol
# Density = 1.649655 g / cm^3
# Si number density = 16.534178 Si / 1000 Ang^3
#
#
#
# Elastic Constant Matrix: (Units=GPa)
#
#
# Indices 1 2 3 4 5 6 
#
# 1 132.2233 97.6823 73.0220 0.0001 0.0000 0.0000
# 2 97.6823 132.2233 73.0220 -0.0001 0.0000 0.0000
# 3 73.0220 73.0220 228.1005 0.0000 0.0000 0.0000
# 4 0.0001 -0.0001 0.0000 31.8815 0.0000 0.0000
# 5 0.0000 0.0000 0.0000 0.0000 31.8815 0.0001
# 6 0.0000 0.0000 0.0000 0.0000 0.0001 17.2705
#
#
#
# Elastic Compliance Matrix: (Units=1/GPa)
#
#
# Indices 1 2 3 4 5 6 
#
# 1 0.017206 -0.011746 -0.001748 0.000000 0.000000 0.000000
# 2 -0.011746 0.017206 -0.001748 0.000000 0.000000 0.000000
# 3 -0.001748 -0.001748 0.005503 0.000000 0.000000 0.000000
# 4 0.000000 0.000000 0.000000 0.031366 0.000000 0.000000
# 5 0.000000 0.000000 0.000000 0.000000 0.031366 0.000000
# 6 0.000000 0.000000 0.000000 0.000000 0.000000 0.057902
#
#
# Mechanical properties :
#
#
# Convention : Reuss Voigt Hill
#
# Bulk Modulus (GPa) = 106.02835 108.88882 107.45858
# Shear Modulus (GPa) = 25.74994 32.79477 29.27236
#
# Velocity S-wave (km/s) = 3.95064 4.45843 4.21219
# Velocity P-wave (km/s) = 9.22367 9.61786 9.42283
#
# Compressibility (1/GPa) = 0.00943144
#
# Stress axis : x y z
#
# Youngs Moduli (GPa) = 58.12088 58.12088 181.71438
#
# Poissons Ratio (x) = 0.68266 0.31762
# Poissons Ratio (y) = 0.68266 0.31762
# Poissons Ratio (z) = 0.10159 0.10159
#
# Static dielectric constant tensor:
#      x y z
#    x 1.538340 0.000000 0.000000 
#    y 0.000000 1.538340 0.000000 
#    z 0.000000 0.000000 1.546750 
# 
# From -- ./inp_files/454.got.cif
#   From: 2010.05.17/outbox.cif.g08.bks.cpg/sg149_cif.got.tgz:454.got - 2010.05.20 13:52:34.
