data_PCOD9575948
_publ_section_title
;
Structure prediction by ZEFSAII (Michael W. Deem and Ramdas Pophale) SiO2 
 PCOD9575948
Probable space group: P 31 2 1
;
_chemical_formula_sum "Si O2"
_cell_formula_units_Z 30
_cell_length_a 11.272303
_cell_length_b 11.272303
_cell_length_c 14.328425
_cell_angle_alpha 90.000000
_cell_angle_beta 90.000000
_cell_angle_gamma 120.000000
_cell_volume 1576.719340
_symmetry_space_group_name_H-M "P 31 2 1"
_symmetry_group_IT_number 152
_symmetry_cell_setting 'hexagonal'
loop_
_space_group_symop_operation_xyz
x,y,z
-y,x-y,1/3+z
-x+y,-x,2/3+z
x-y,-y,2/3-z
-x,-x+y,1/3-z
y,x,-z
loop_
_atom_site_type_symbol
_atom_site_label
_atom_site_fract_x
_atom_site_fract_y
_atom_site_fract_z
Si Si1 0.017930 0.302451 0.776287
Si Si2 0.376420 0.252759 0.554276
Si Si3 0.606172 0.162910 0.163601
Si Si4 0.355365 0.708364 0.014207
Si Si5 0.046857 0.711515 0.396632
O O1 0.075913 0.441422 0.835512
O O2 0.140300 0.269845 0.775042
O O3 0.000000 0.327133 0.666667
O O4 0.877637 0.187923 0.820435
O O5 0.381305 0.381305 0.500000
O O6 0.515698 0.267453 0.593039
O O7 0.289984 0.244099 0.645142
O O8 0.643926 0.226349 0.266719
O O9 0.652616 0.056344 0.133807
O O10 0.666320 0.288346 0.088511
O O11 0.509998 0.838359 0.026546
#
# Coordination Sequence:
#
# PCOD9575948 Si02
#       5
#     6   6   6   6   6
#     4  11  22  37  62  89 117 157 206 245 300 369
#     4  11  20  36  62  86 120 159 202 248 300 363
#     4  10  22  37  62  92 124 150 201 253 310 347
#     4  10  21  38  61  96 120 157 201 261 302 355
#     4  10  21  38  63  88 120 162 202 252 305 359
#
# _framework density 19.026848999999999
#
# number of rings (size 3 to 8) (size 9 to 14) (size 15 to 20)
#    0.000    1.600    4.000    1.200    2.800    0.000 
#    0.000    0.000    8.800    0.000    0.000    0.000 
#    0.000    0.000    0.000    0.000    0.000    0.000 
#
# Total GULP energy -167204.051918 kJ/mol
# GULP energy per Si atom -5573.468397 kJ/mol
# Density = 1.898354 g / cm^3
# Si number density = 19.026849 Si / 1000 Ang^3
#
#
#
# Elastic Constant Matrix: (Units=GPa)
#
#
# Indices 1 2 3 4 5 6 
#
# 1 70.5845 21.0302 27.1524 0.2261 0.0000 0.0000
# 2 21.0302 70.5845 27.1524 -0.2261 0.0000 0.0000
# 3 27.1524 27.1524 63.1724 0.0000 0.0000 0.0000
# 4 0.2261 -0.2261 0.0000 33.6713 0.0000 0.0000
# 5 0.0000 0.0000 0.0000 0.0000 33.6713 0.2261
# 6 0.0000 0.0000 0.0000 0.0000 0.2261 24.7771
#
#
#
# Elastic Compliance Matrix: (Units=1/GPa)
#
#
# Indices 1 2 3 4 5 6 
#
# 1 0.017414 -0.002767 -0.006295 -0.000136 0.000000 0.000000
# 2 -0.002767 0.017414 -0.006295 0.000136 0.000000 0.000000
# 3 -0.006295 -0.006295 0.021241 0.000000 0.000000 0.000000
# 4 -0.000136 0.000136 0.000000 0.029701 0.000000 0.000000
# 5 0.000000 0.000000 0.000000 0.000000 0.029701 -0.000271
# 6 0.000000 0.000000 0.000000 0.000000 -0.000271 0.040362
#
#
# Mechanical properties :
#
#
# Convention : Reuss Voigt Hill
#
# Bulk Modulus (GPa) = 39.44233 39.44571 39.44402
# Shear Modulus (GPa) = 25.64096 27.02435 26.33266
#
# Velocity S-wave (km/s) = 3.67498 3.77281 3.72422
# Velocity P-wave (km/s) = 6.22753 6.30519 6.26648
#
# Compressibility (1/GPa) = 0.02535347
#
# Stress axis : x y z
#
# Youngs Moduli (GPa) = 57.42494 57.42494 47.07773
#
# Poissons Ratio (x) = 0.15890 0.29638
# Poissons Ratio (y) = 0.15890 0.29638
# Poissons Ratio (z) = 0.36152 0.36152
#
# Static dielectric constant tensor:
#      x y z
#    x 1.671900 0.000000 0.000000 
#    y 0.000000 1.671900 0.000000 
#    z 0.000000 0.000000 1.712360 
# 
# From -- ./inp_files/1948.got.cif
#   From: 2010.05.17/outbox.cif.g08.bks.cpg/sg152_1_cif.got.tgz:1948.got - 2010.05.20 10:36:06.
