data_PCOD9575787
_publ_section_title
;
Structure prediction by ZEFSAII (Michael W. Deem and Ramdas Pophale) SiO2 
 PCOD9575787
Probable space group: P 31 2 1
;
_chemical_formula_sum "Si O2"
_cell_formula_units_Z 42
_cell_length_a 9.646247
_cell_length_b 9.646247
_cell_length_c 27.638204
_cell_angle_alpha 90.000000
_cell_angle_beta 90.000000
_cell_angle_gamma 120.000000
_cell_volume 2227.189683
_symmetry_space_group_name_H-M "P 31 2 1"
_symmetry_group_IT_number 152
_symmetry_cell_setting 'hexagonal'
loop_
_space_group_symop_operation_xyz
x,y,z
-y,x-y,1/3+z
-x+y,-x,2/3+z
x-y,-y,2/3-z
-x,-x+y,1/3-z
y,x,-z
loop_
_atom_site_type_symbol
_atom_site_label
_atom_site_fract_x
_atom_site_fract_y
_atom_site_fract_z
Si Si1 0.226265 0.846179 0.864292
Si Si2 0.533916 0.130853 0.186242
Si Si3 0.583360 0.461863 0.224312
Si Si4 0.601515 0.165756 0.717892
Si Si5 0.340793 0.973233 0.280782
Si Si6 0.759879 0.008008 0.610079
Si Si7 0.462069 0.291684 0.640494
O O1 0.141502 0.699806 0.827559
O O2 0.334182 0.810674 0.900876
O O3 0.100931 0.859925 0.899562
O O4 0.331207 0.000000 0.833334
O O5 0.562664 0.310364 0.192471
O O6 0.422061 0.016828 0.142966
O O7 0.463667 0.043927 0.236818
O O8 0.427233 0.379335 0.259689
O O9 0.740641 0.532977 0.257586
O O10 0.786060 0.222061 0.725598
O O11 0.584864 0.272346 0.675772
O O12 0.509997 0.977860 0.703787
O O13 0.421218 0.000000 0.333334
O O14 0.253636 0.078947 0.281499
O O15 0.699299 0.910755 0.660019
#
# Coordination Sequence:
#
# PCOD9575787 Si02
#       7
#     6   6   6   6   6   6   6
#     4  10  21  38  59  86 125 164 207 266 311 379
#     4  10  21  37  57  89 119 161 205 253 320 365
#     4  10  19  36  60  83 123 159 206 256 311 372
#     4  11  22  35  66  92 124 159 223 255 317 376
#     4  11  20  38  61  85 119 168 200 259 308 392
#     4   9  20  37  60  84 122 162 204 254 321 366
#     4  11  19  38  60  97 117 167 204 266 307 378
#
# _framework density 18.857845999999999
#
# number of rings (size 3 to 8) (size 9 to 14) (size 15 to 20)
#    0.000    1.714    2.857    2.571    0.000    0.000 
#    0.000    5.000    0.000    0.000    0.000    0.000 
#    0.000    0.000    0.000    0.000    0.000    0.000 
#
# Total GULP energy -234161.975475 kJ/mol
# GULP energy per Si atom -5575.285130 kJ/mol
# Density = 1.881492 g / cm^3
# Si number density = 18.857846 Si / 1000 Ang^3
#
#
#
# Elastic Constant Matrix: (Units=GPa)
#
#
# Indices 1 2 3 4 5 6 
#
# 1 74.1530 32.0937 47.7413 0.2132 0.0008 0.0000
# 2 32.0937 74.1530 47.7413 -0.2132 -0.0008 0.0000
# 3 47.7413 47.7413 113.8788 0.0000 0.0000 0.0000
# 4 0.2132 -0.2132 0.0000 29.2716 0.0000 -0.0008
# 5 0.0008 -0.0008 0.0000 0.0000 29.2716 0.2132
# 6 0.0000 0.0000 0.0000 -0.0008 0.2132 21.0296
#
#
#
# Elastic Compliance Matrix: (Units=1/GPa)
#
#
# Indices 1 2 3 4 5 6 
#
# 1 0.019440 -0.004338 -0.006331 -0.000173 -0.000001 0.000000
# 2 -0.004338 0.019440 -0.006331 0.000173 0.000001 0.000000
# 3 -0.006331 -0.006331 0.014090 0.000000 0.000000 0.000000
# 4 -0.000173 0.000173 0.000000 0.034165 0.000000 0.000001
# 5 -0.000001 0.000001 0.000000 0.000000 0.034165 -0.000346
# 6 0.000000 0.000000 0.000000 0.000001 -0.000346 0.047555
#
#
# Mechanical properties :
#
#
# Convention : Reuss Voigt Hill
#
# Bulk Modulus (GPa) = 52.71834 57.48192 55.10013
# Shear Modulus (GPa) = 23.90305 24.88846 24.39575
#
# Velocity S-wave (km/s) = 3.56411 3.63684 3.60066
# Velocity P-wave (km/s) = 6.70474 6.94142 6.82411
#
# Compressibility (1/GPa) = 0.01896873
#
# Stress axis : x y z
#
# Youngs Moduli (GPa) = 51.44111 51.44111 70.97438
#
# Poissons Ratio (x) = 0.22315 0.44934
# Poissons Ratio (y) = 0.22315 0.44934
# Poissons Ratio (z) = 0.32568 0.32568
#
# Static dielectric constant tensor:
#      x y z
#    x 1.669280 0.000000 0.000000 
#    y 0.000000 1.669280 0.000000 
#    z 0.000000 0.000000 1.686850 
# 
# From -- ./inp_files/3718.got.cif
#   From: 2010.05.17/outbox.cif.g08.bks.cpg/sg152_2_cif.got.tgz:3718.got - 2010.05.20 10:36:06.
