data_PCOD9575703
_publ_section_title
;
Structure prediction by ZEFSAII (Michael W. Deem and Ramdas Pophale) SiO2 
 PCOD9575703
Probable space group: P 31 2 1
;
_chemical_formula_sum "Si O2"
_cell_formula_units_Z 33
_cell_length_a 11.443440
_cell_length_b 11.443440
_cell_length_c 17.490679
_cell_angle_alpha 90.000000
_cell_angle_beta 90.000000
_cell_angle_gamma 120.000000
_cell_volume 1983.583536
_symmetry_space_group_name_H-M "P 31 2 1"
_symmetry_group_IT_number 152
_symmetry_cell_setting 'hexagonal'
loop_
_space_group_symop_operation_xyz
x,y,z
-y,x-y,1/3+z
-x+y,-x,2/3+z
x-y,-y,2/3-z
-x,-x+y,1/3-z
y,x,-z
loop_
_atom_site_type_symbol
_atom_site_label
_atom_site_fract_x
_atom_site_fract_y
_atom_site_fract_z
Si Si1 0.885729 0.746128 0.111696
Si Si2 0.000517 0.000517 0.000000
Si Si3 0.115340 0.254731 0.112523
Si Si4 0.835940 0.285820 0.658414
Si Si5 0.164001 0.715142 0.658006
Si Si6 0.159040 0.317135 0.832821
O O1 0.958344 0.870539 0.052126
O O2 0.814314 0.610572 0.062894
O O3 0.780175 0.777075 0.157483
O O4 0.000000 0.756655 0.166667
O O5 0.043947 0.128871 0.053751
O O6 0.185227 0.389220 0.062738
O O7 0.221653 0.226024 0.159083
O O8 0.000000 0.243956 0.166667
O O9 0.788597 0.394765 0.667098
O O10 0.801137 0.207919 0.577516
O O11 0.000000 0.368450 0.666667
O O12 0.198285 0.793135 0.577153
O O13 0.000000 0.632514 0.666667
#
# Coordination Sequence:
#
# PCOD9575703 Si02
#       6
#     6   3   6   6   6   6
#     4  11  16  24  43  72 105 130 157 211 270 318
#     4  12  14  24  38  70 112 126 148 190 282 324
#     4  11  16  24  43  72 105 130 157 211 270 318
#     4   9  18  29  42  69  96 132 174 202 246 321
#     4   9  18  29  42  69  96 132 174 202 246 321
#     4  10  15  26  44  66  97 132 164 206 254 318
#
# _framework density 16.636555999999999
#
# number of rings (size 3 to 8) (size 9 to 14) (size 15 to 20)
#    0.000    1.818    9.091    0.000    0.000    0.000 
#    0.000    0.000    0.000    0.000   42.545    0.000 
#    0.000    0.000    0.000    0.000    0.000    0.000 
#
# Total GULP energy -183797.825356 kJ/mol
# GULP energy per Si atom -5569.631071 kJ/mol
# Density = 1.659869 g / cm^3
# Si number density = 16.636556 Si / 1000 Ang^3
#
#
#
# Elastic Constant Matrix: (Units=GPa)
#
#
# Indices 1 2 3 4 5 6 
#
# 1 65.2523 28.6525 52.0311 -0.0373 0.0000 0.0000
# 2 28.6525 65.2523 52.0311 0.0373 0.0000 0.0000
# 3 52.0311 52.0311 122.1156 0.0000 0.0000 0.0000
# 4 -0.0373 0.0373 0.0000 5.3755 0.0000 0.0000
# 5 0.0000 0.0000 0.0000 0.0000 5.3755 -0.0373
# 6 0.0000 0.0000 0.0000 0.0000 -0.0373 18.2999
#
#
#
# Elastic Compliance Matrix: (Units=1/GPa)
#
#
# Indices 1 2 3 4 5 6 
#
# 1 0.023749 -0.003574 -0.008596 0.000190 0.000000 0.000000
# 2 -0.003574 0.023749 -0.008596 -0.000190 0.000000 0.000000
# 3 -0.008596 -0.008596 0.015514 0.000000 0.000000 0.000000
# 4 0.000190 -0.000190 0.000000 0.186032 0.000000 0.000000
# 5 0.000000 0.000000 0.000000 0.000000 0.186032 0.000379
# 6 0.000000 0.000000 0.000000 0.000000 0.000379 0.054646
#
#
# Mechanical properties :
#
#
# Convention : Reuss Voigt Hill
#
# Bulk Modulus (GPa) = 46.55562 57.56105 52.05834
# Shear Modulus (GPa) = 9.28652 13.80387 11.54520
#
# Velocity S-wave (km/s) = 2.36519 2.88363 2.63718
# Velocity P-wave (km/s) = 5.95848 6.76471 6.37436
#
# Compressibility (1/GPa) = 0.02147968
#
# Stress axis : x y z
#
# Youngs Moduli (GPa) = 42.10693 42.10693 64.45655
#
# Poissons Ratio (x) = 0.15049 0.55408
# Poissons Ratio (y) = 0.15049 0.55408
# Poissons Ratio (z) = 0.36196 0.36196
#
# Static dielectric constant tensor:
#      x y z
#    x 1.557780 0.000000 0.000000 
#    y 0.000000 1.557780 0.000000 
#    z 0.000000 0.000000 1.585640 
# 
# From -- ./inp_files/2359.got.cif
#   From: 2010.05.17/outbox.cif.g08.bks.cpg/sg152_2_cif.got.tgz:2359.got - 2010.05.20 10:36:06.
