data_PCOD9575649
_publ_section_title
;
Structure prediction by ZEFSAII (Michael W. Deem and Ramdas Pophale) SiO2 
 PCOD9575649
Probable space group: P 31 1 2
;
_chemical_formula_sum "Si O2"
_cell_formula_units_Z 42
_cell_length_a 8.219717
_cell_length_b 8.219717
_cell_length_c 30.982291
_cell_angle_alpha 90.000000
_cell_angle_beta 90.000000
_cell_angle_gamma 120.000000
_cell_volume 1812.833387
_symmetry_space_group_name_H-M "P 31 1 2"
_symmetry_group_IT_number 151
_symmetry_cell_setting 'hexagonal'
loop_
_space_group_symop_operation_xyz
x,y,z
-y,x-y,1/3+z
-x+y,-x,2/3+z
-y,-x,2/3-z
-x+y,y,1/3-z
x,x-y,-z
loop_
_atom_site_type_symbol
_atom_site_label
_atom_site_fract_x
_atom_site_fract_y
_atom_site_fract_z
Si Si1 0.770174 0.873123 0.422059
Si Si2 0.168725 0.443519 0.838410
Si Si3 0.140343 0.883611 0.590042
Si Si4 0.577483 0.443314 0.727599
Si Si5 0.371500 0.222461 0.812490
Si Si6 0.362219 0.257430 0.328711
Si Si7 0.904325 0.426147 0.224028
O O1 0.752044 0.738620 0.460842
O O2 0.756826 0.772317 0.377227
O O3 0.618050 0.937679 0.425775
O O4 0.975008 0.056623 0.426530
O O5 0.342637 0.657364 0.833334
O O6 0.094660 0.388916 0.887620
O O7 0.252191 0.306086 0.832779
O O8 0.012924 0.390853 0.801148
O O9 0.019859 0.664626 0.606596
O O10 0.242820 0.032666 0.627972
O O11 0.453403 0.350541 0.770081
O O12 0.458567 0.321463 0.686957
O O13 0.751455 0.405107 0.737523
O O14 0.489407 0.206120 0.851431
O O15 0.530422 0.469579 0.333334
#
# Coordination Sequence:
#
# PCOD9575649 Si02
#       7
#     6   6   6   6   6   6   6
#     4  10  23  43  69  94 144 185 229 293 354 420
#     4  12  23  38  73 112 146 180 232 296 368 432
#     4  11  24  46  70 103 143 191 239 292 357 436
#     4  10  23  46  70  94 147 190 229 299 359 423
#     4  11  20  42  64 107 142 178 223 295 358 437
#     4  11  27  44  69  98 137 191 253 290 347 429
#     4  11  23  39  70 103 144 182 233 287 375 426
#
# _framework density 23.168151999999999
#
# number of rings (size 3 to 8) (size 9 to 14) (size 15 to 20)
#    0.000    1.143    4.286    2.143    6.000    3.429 
#    2.571    2.857    0.000    0.000    0.000    0.000 
#    0.000    0.000    0.000    0.000    0.000    0.000 
#
# Total GULP energy -234633.735195 kJ/mol
# GULP energy per Si atom -5586.517505 kJ/mol
# Density = 2.311542 g / cm^3
# Si number density = 23.168152 Si / 1000 Ang^3
#
#
#
# Elastic Constant Matrix: (Units=GPa)
#
#
# Indices 1 2 3 4 5 6 
#
# 1 42.6764 12.7138 8.4141 -0.0001 -6.1873 0.0000
# 2 12.7138 42.6764 8.4141 0.0001 6.1873 0.0000
# 3 8.4141 8.4141 87.8812 0.0000 0.0000 0.0000
# 4 -0.0001 0.0001 0.0000 41.6692 0.0000 6.1873
# 5 -6.1873 6.1873 0.0000 0.0000 41.6692 -0.0001
# 6 0.0000 0.0000 0.0000 6.1873 -0.0001 14.9813
#
#
#
# Elastic Compliance Matrix: (Units=1/GPa)
#
#
# Indices 1 2 3 4 5 6 
#
# 1 0.027075 -0.008480 -0.001780 0.000000 0.005279 0.000000
# 2 -0.008480 0.027075 -0.001780 0.000000 -0.005279 0.000000
# 3 -0.001780 -0.001780 0.011720 0.000000 0.000000 0.000000
# 4 0.000000 0.000000 0.000000 0.025566 0.000000 -0.010559
# 5 0.005279 -0.005279 0.000000 0.000000 0.025566 0.000000
# 6 0.000000 0.000000 0.000000 -0.010559 0.000000 0.071111
#
#
# Mechanical properties :
#
#
# Convention : Reuss Voigt Hill
#
# Bulk Modulus (GPa) = 23.93042 25.81314 24.87178
# Shear Modulus (GPa) = 22.11171 29.24342 25.67757
#
# Velocity S-wave (km/s) = 3.09269 3.55663 3.33275
# Velocity P-wave (km/s) = 4.80671 5.29453 5.05650
#
# Compressibility (1/GPa) = 0.04178781
#
# Stress axis : x y z
#
# Youngs Moduli (GPa) = 36.93448 36.93448 85.32487
#
# Poissons Ratio (x) = 0.31322 0.15191
# Poissons Ratio (y) = 0.31322 0.15191
# Poissons Ratio (z) = 0.06576 0.06576
#
# Static dielectric constant tensor:
#      x y z
#    x 1.912820 0.000000 0.000000 
#    y 0.000000 1.912820 0.000000 
#    z 0.000000 0.000000 1.907160 
# 
# From -- ./inp_files/5047.got.cif
#   From: 2010.05.17/outbox.cif.g08.bks.cpg/sg151_3_cif.got.tgz:5047.got - 2010.05.20 10:33:20.
