data_PCOD9575216
_publ_section_title
;
Structure prediction by ZEFSAII (Michael W. Deem and Ramdas Pophale) SiO2 
 PCOD9575216
Probable space group: R -3
;
_chemical_formula_sum "Si O2"
_cell_formula_units_Z 72
_cell_length_a 13.408472
_cell_length_b 13.408472
_cell_length_c 18.407227
_cell_angle_alpha 90.000000
_cell_angle_beta 90.000000
_cell_angle_gamma 120.000000
_cell_volume 2866.009190
_symmetry_space_group_name_H-M "R -3"
_symmetry_group_IT_number 148
_symmetry_cell_setting 'hexagonal'
loop_
_space_group_symop_operation_xyz
x,y,z
-y,x-y,z
-x+y,-x,z
-x,-y,-z
y,-x+y,-z
x-y,x,-z
2/3+x,1/3+y,1/3+z
2/3-y,1/3+x-y,1/3+z
2/3-x+y,1/3-x,1/3+z
2/3-x,1/3-y,1/3-z
2/3+y,1/3-x+y,1/3-z
2/3+x-y,1/3+x,1/3-z
1/3+x,2/3+y,2/3+z
1/3-y,2/3+x-y,2/3+z
1/3-x+y,2/3-x,2/3+z
1/3-x,2/3-y,2/3-z
1/3+y,2/3-x+y,2/3-z
1/3+x-y,2/3+x,2/3-z
loop_
_atom_site_type_symbol
_atom_site_label
_atom_site_fract_x
_atom_site_fract_y
_atom_site_fract_z
Si Si1 0.732801 0.872846 0.722428
Si Si2 0.149437 0.077431 0.121117
Si Si3 0.602938 0.513632 0.846975
Si Si4 0.979604 0.595746 0.947552
O O1 0.808248 0.908279 0.795734
O O2 0.597151 0.817201 0.741269
O O3 0.767032 0.976622 0.668059
O O4 0.744219 0.768096 0.690704
O O5 0.059393 0.123722 0.107957
O O6 0.727156 0.529327 0.863814
O O7 0.636795 0.619227 0.792360
O O8 0.517495 0.491329 0.913154
#
# Coordination Sequence:
#
# PCOD9575216 Si02
#       4
#    18  18  18  18
#     4  11  24  42  69 104 137 182 246 281 361 427
#     4   9  24  45  70  92 141 189 227 299 349 418
#     4   8  19  40  67  93 135 185 221 287 357 417
#     4  10  24  38  69 102 136 179 232 295 345 433
#
# _framework density 25.122042
#
# number of rings (size 3 to 8) (size 9 to 14) (size 15 to 20)
#    2.000    0.500    0.000    0.250    7.000    4.000 
#    0.000    3.750    0.000    0.000    0.000    0.000 
#    0.000    0.000    0.000    0.000    0.000    0.000 
#
# Total GULP energy -134096.101770 kJ/mol
# GULP energy per Si atom -5587.337574 kJ/mol
# Density = 2.506486 g / cm^3
# Si number density = 25.122042 Si / 1000 Ang^3
#
#
#
# Elastic Constant Matrix: (Units=GPa)
#
#
# Indices 1 2 3 4 5 6 
#
# 1 104.9251 23.4887 28.9749 -0.9514 -4.7705 0.0000
# 2 23.4887 104.9251 28.9749 0.9514 4.7705 0.0000
# 3 28.9749 28.9749 70.8529 0.0000 0.0000 0.0000
# 4 -0.9514 0.9514 0.0000 37.8457 0.0000 4.7705
# 5 -4.7705 4.7705 0.0000 0.0000 37.8457 -0.9514
# 6 0.0000 0.0000 0.0000 4.7705 -0.9514 40.7182
#
#
#
# Elastic Compliance Matrix: (Units=1/GPa)
#
#
# Indices 1 2 3 4 5 6 
#
# 1 0.011010 -0.001461 -0.003905 0.000314 0.001572 0.000000
# 2 -0.001461 0.011010 -0.003905 -0.000314 -0.001572 0.000000
# 3 -0.003905 -0.003905 0.017308 0.000000 0.000000 0.000000
# 4 0.000314 -0.000314 0.000000 0.026835 0.000000 -0.003144
# 5 0.001572 -0.001572 0.000000 0.000000 0.026835 0.000627
# 6 0.000000 0.000000 0.000000 -0.003144 0.000627 0.024942
#
#
# Mechanical properties :
#
#
# Convention : Reuss Voigt Hill
#
# Bulk Modulus (GPa) = 48.10922 49.28671 48.69796
# Shear Modulus (GPa) = 34.86458 36.56624 35.71541
#
# Velocity S-wave (km/s) = 3.72937 3.81930 3.77460
# Velocity P-wave (km/s) = 6.14297 6.25387 6.19867
#
# Compressibility (1/GPa) = 0.02078603
#
# Stress axis : x y z
#
# Youngs Moduli (GPa) = 90.82363 90.82363 57.77723
#
# Poissons Ratio (x) = 0.13266 0.22564
# Poissons Ratio (y) = 0.13266 0.22564
# Poissons Ratio (z) = 0.35469 0.35469
#
# Static dielectric constant tensor:
#      x y z
#    x 1.964220 0.000000 0.000000 
#    y 0.000000 1.964220 0.000000 
#    z 0.000000 0.000000 2.064090 
# 
# From -- ./inp_files/2532.got.cif
#   From: 2010.05.17/outbox.cif.g08.bks.cpg/sg148_2_cif.got.tgz:2532.got - 2010.05.20 13:50:20.
