data_PCOD9575527
_publ_section_title
;
Structure prediction by ZEFSAII (Michael W. Deem and Ramdas Pophale) SiO2 
 PCOD9575527
Probable space group: P 31 1 2
;
_chemical_formula_sum "Si O2"
_cell_formula_units_Z 18
_cell_length_a 10.360433
_cell_length_b 10.360433
_cell_length_c 8.836179
_cell_angle_alpha 90.000000
_cell_angle_beta 90.000000
_cell_angle_gamma 120.000000
_cell_volume 821.392910
_symmetry_space_group_name_H-M "P 31 1 2"
_symmetry_group_IT_number 151
_symmetry_cell_setting 'hexagonal'
loop_
_space_group_symop_operation_xyz
x,y,z
-y,x-y,1/3+z
-x+y,-x,2/3+z
-y,-x,2/3-z
-x+y,y,1/3-z
x,x-y,-z
loop_
_atom_site_type_symbol
_atom_site_label
_atom_site_fract_x
_atom_site_fract_y
_atom_site_fract_z
Si Si1 0.669670 0.954650 0.918251
Si Si2 0.968238 0.775681 0.925765
Si Si3 0.542909 0.388028 0.163166
O O1 0.705480 0.948566 0.740655
O O2 0.593406 0.057347 0.934309
O O3 0.590492 0.795246 0.000000
O O4 0.826491 0.051094 0.003595
O O5 0.899162 0.629834 0.817326
O O6 0.079368 0.920633 0.833334
O O7 0.555059 0.444942 0.333334
O O8 0.668841 0.337682 0.166667
#
# Coordination Sequence:
#
# PCOD9575527 Si02
#       3
#     6   6   6
#     4  10  21  39  63  91 126 165 216 265 325 393
#     4  10  22  39  64  93 128 170 213 269 329 391
#     4  10  18  41  65  90 125 168 216 275 324 383
#
# _framework density 21.913996999999998
#
# number of rings (size 3 to 8) (size 9 to 14) (size 15 to 20)
#    0.000    2.000    6.667    0.000    4.667    0.000 
#    6.000    6.667    0.000    0.000    0.000    0.000 
#    0.000    0.000    0.000    0.000    0.000    0.000 
#
# Total GULP energy -100341.013188 kJ/mol
# GULP energy per Si atom -5574.500733 kJ/mol
# Density = 2.186412 g / cm^3
# Si number density = 21.913997 Si / 1000 Ang^3
#
#
#
# Elastic Constant Matrix: (Units=GPa)
#
#
# Indices 1 2 3 4 5 6 
#
# 1 94.3965 53.7004 44.1128 -0.0003 10.5539 0.0000
# 2 53.7004 94.3965 44.1128 0.0003 -10.5539 0.0000
# 3 44.1128 44.1128 76.5582 0.0000 0.0000 0.0000
# 4 -0.0003 0.0003 0.0000 34.1127 0.0000 -10.5539
# 5 10.5539 -10.5539 0.0000 0.0000 34.1127 -0.0003
# 6 0.0000 0.0000 0.0000 -10.5539 -0.0003 20.3481
#
#
#
# Elastic Compliance Matrix: (Units=1/GPa)
#
#
# Indices 1 2 3 4 5 6 
#
# 1 0.019775 -0.009494 -0.005924 0.000000 -0.009055 0.000000
# 2 -0.009494 0.019775 -0.005924 0.000000 0.009055 0.000000
# 3 -0.005924 -0.005924 0.019889 0.000000 0.000000 0.000000
# 4 0.000000 0.000000 0.000000 0.034918 0.000000 0.018111
# 5 -0.009055 0.009055 0.000000 0.000000 0.034918 0.000001
# 6 0.000000 0.000000 0.000000 0.018111 0.000001 0.058538
#
#
# Mechanical properties :
#
#
# Convention : Reuss Voigt Hill
#
# Bulk Modulus (GPa) = 59.68281 61.02256 60.35269
# Shear Modulus (GPa) = 21.17898 25.94306 23.56102
#
# Velocity S-wave (km/s) = 3.11216 3.44446 3.28252
# Velocity P-wave (km/s) = 6.34100 6.61255 6.47820
#
# Compressibility (1/GPa) = 0.01675524
#
# Stress axis : x y z
#
# Youngs Moduli (GPa) = 50.56797 50.56797 50.27892
#
# Poissons Ratio (x) = 0.48008 0.29786
# Poissons Ratio (y) = 0.48008 0.29786
# Poissons Ratio (z) = 0.29958 0.29958
#
# Static dielectric constant tensor:
#      x y z
#    x 1.849080 0.000000 0.000000 
#    y 0.000000 1.849080 0.000000 
#    z 0.000000 0.000000 1.864850 
# 
# From -- ./inp_files/1245.got.cif
#   From: 2010.05.17/outbox.cif.g08.bks.cpg/sg151_1_cif.got.tgz:1245.got - 2010.05.20 10:33:20.
