data_PCOD9575481
_publ_section_title
;
Structure prediction by ZEFSAII (Michael W. Deem and Ramdas Pophale) SiO2 
 PCOD9575481
Probable space group: P 3 2 1
;
_chemical_formula_sum "Si O2"
_cell_formula_units_Z 34
_cell_length_a 13.980153
_cell_length_b 13.980153
_cell_length_c 9.291420
_cell_angle_alpha 90.000000
_cell_angle_beta 90.000000
_cell_angle_gamma 120.000000
_cell_volume 1572.666270
_symmetry_space_group_name_H-M "P 3 2 1"
_symmetry_group_IT_number 150
_symmetry_cell_setting 'hexagonal'
loop_
_space_group_symop_operation_xyz
x,y,z
-y,x-y,z
-x+y,-x,z
x-y,-y,-z
-x,-x+y,-z
y,x,-z
loop_
_atom_site_type_symbol
_atom_site_label
_atom_site_fract_x
_atom_site_fract_y
_atom_site_fract_z
Si Si1 0.493274 0.501969 0.253033
Si Si2 0.110469 0.389415 0.924513
Si Si3 0.261490 0.451036 0.191245
Si Si4 0.261824 0.428877 0.695960
Si Si5 0.333335 0.666668 0.720579
Si Si6 0.666668 0.333335 0.626035
Si Si7 0.376718 0.109536 0.578040
O O1 0.603143 0.539321 0.158042
O O2 0.383347 0.471422 0.160525
O O3 0.447250 0.383236 0.330793
O O4 0.537756 0.607875 0.360571
O O5 0.172161 0.348660 0.812747
O O6 0.196686 0.453502 0.052220
O O7 0.000000 0.293555 0.000000
O O8 0.291745 0.548752 0.303790
O O9 0.167922 0.350865 0.288539
O O10 0.292424 0.544812 0.768676
O O11 0.197023 0.418362 0.551049
O O12 0.333334 0.666667 0.545420
O O13 0.281907 0.000000 0.500000
#
# Coordination Sequence:
#
# PCOD9575481 Si02
#       7
#     6   6   6   6   2   2   6
#     4  12  27  44  66 100 144 178 258 281 343 446
#     4  12  25  44  60  92 138 185 226 293 345 410
#     4  12  25  38  68  88 138 189 228 277 350 411
#     4  12  25  37  68  91 134 185 231 279 343 413
#     4  12  18  37  56  91 123 187 224 265 333 394
#     4  12  21  37  56  91 129 187 224 265 345 388
#     4  12  23  43  62  93 138 184 225 290 346 413
#
# _framework density 21.619333999999998
#
# number of rings (size 3 to 8) (size 9 to 14) (size 15 to 20)
#    0.000    0.000    8.824    0.000    7.412    0.000 
#    0.000    0.000    0.000    0.000    0.000    0.000 
#   35.294    0.000    0.000    0.000    0.000    0.000 
#
# Total GULP energy -189334.806488 kJ/mol
# GULP energy per Si atom -5568.670779 kJ/mol
# Density = 2.157013 g / cm^3
# Si number density = 21.619334 Si / 1000 Ang^3
#
#
#
# Elastic Constant Matrix: (Units=GPa)
#
#
# Indices 1 2 3 4 5 6 
#
# 1 53.8863 -12.9073 -3.9584 1.2913 0.0000 0.0000
# 2 -12.9073 53.8878 -3.9572 -1.2913 0.0000 0.0000
# 3 -3.9584 -3.9572 77.3832 0.0001 0.0000 0.0000
# 4 1.2913 -1.2913 0.0001 30.7891 0.0000 0.0000
# 5 0.0000 0.0000 0.0000 0.0000 30.7886 1.2913
# 6 0.0000 0.0000 0.0000 0.0000 1.2913 33.3971
#
#
#
# Elastic Compliance Matrix: (Units=1/GPa)
#
#
# Indices 1 2 3 4 5 6 
#
# 1 0.019821 0.004825 0.001261 -0.000629 0.000000 0.000000
# 2 0.004825 0.019820 0.001260 0.000629 0.000000 0.000000
# 3 0.001261 0.001260 0.013052 0.000000 0.000000 0.000000
# 4 -0.000629 0.000629 0.000000 0.032532 0.000000 0.000000
# 5 0.000000 0.000000 0.000000 0.000000 0.032532 -0.001258
# 6 0.000000 0.000000 0.000000 0.000000 -0.001258 0.029991
#
#
# Mechanical properties :
#
#
# Convention : Reuss Voigt Hill
#
# Bulk Modulus (GPa) = 14.84005 15.94574 15.39290
# Shear Modulus (GPa) = 32.15061 32.72697 32.43879
#
# Velocity S-wave (km/s) = 3.86051 3.89496 3.87777
# Velocity P-wave (km/s) = 5.17209 5.25541 5.21391
#
# Compressibility (1/GPa) = 0.06738521
#
# Stress axis : x y z
#
# Youngs Moduli (GPa) = 50.45153 50.45309 76.61877
#
# Poissons Ratio (x) = -0.24344 -0.09659
# Poissons Ratio (y) = -0.24343 -0.09657
# Poissons Ratio (z) = -0.06360 -0.06359
#
# Static dielectric constant tensor:
#      x y z
#    x 1.907160 0.000000 0.000000 
#    y 0.000000 1.907150 0.000000 
#    z 0.000000 0.000000 1.858280 
# 
# From -- ./inp_files/670.got.cif
#   From: 2010.05.17/outbox.cif.g08.bks.cpg/sg150_cif.got.tgz:670.got - 2010.05.20 13:53:18.
