data_PCOD9575535
_publ_section_title
;
Structure prediction by ZEFSAII (Michael W. Deem and Ramdas Pophale) SiO2 
 PCOD9575535
Probable space group: P 31 1 2
;
_chemical_formula_sum "Si O2"
_cell_formula_units_Z 27
_cell_length_a 12.971262
_cell_length_b 12.971262
_cell_length_c 10.598609
_cell_angle_alpha 90.000000
_cell_angle_beta 90.000000
_cell_angle_gamma 120.000000
_cell_volume 1544.343716
_symmetry_space_group_name_H-M "P 31 1 2"
_symmetry_group_IT_number 151
_symmetry_cell_setting 'hexagonal'
loop_
_space_group_symop_operation_xyz
x,y,z
-y,x-y,1/3+z
-x+y,-x,2/3+z
-y,-x,2/3-z
-x+y,y,1/3-z
x,x-y,-z
loop_
_atom_site_type_symbol
_atom_site_label
_atom_site_fract_x
_atom_site_fract_y
_atom_site_fract_z
Si Si1 0.971013 0.620131 0.224646
Si Si2 0.641804 0.435724 0.551192
Si Si3 0.147503 0.852498 0.333334
Si Si4 0.953220 0.858703 0.518832
Si Si5 0.768252 0.651756 0.359858
O O1 0.913409 0.480342 0.251136
O O2 0.875521 0.650448 0.286014
O O3 0.093282 0.718550 0.283967
O O4 0.968305 0.641293 0.075585
O O5 0.730473 0.460946 0.666667
O O6 0.610020 0.305010 0.500000
O O7 0.708469 0.535323 0.446536
O O8 0.061893 0.850666 0.449420
O O9 0.915344 0.830688 0.666667
O O10 0.833830 0.771405 0.441013
O O11 0.988750 0.994375 0.500000
#
# Coordination Sequence:
#
# PCOD9575535 Si02
#       5
#     6   6   3   6   6
#     4  10  19  33  50  71 108 148 186 218 273 343
#     4  12  19  32  52  78 116 148 179 228 282 345
#     4  10  22  34  52  74 104 150 190 226 278 346
#     4  11  20  32  49  70 102 137 175 224 274 330
#     4  10  20  31  48  75 105 145 179 218 281 336
#
# _framework density 17.483153999999999
#
# number of rings (size 3 to 8) (size 9 to 14) (size 15 to 20)
#    0.000    1.333    5.556    2.667    3.111    0.000 
#    0.000    0.000    0.000    0.000    0.000    0.000 
#   26.667    0.000   16.000    0.000    0.000    0.000 
#
# Total GULP energy -150434.446291 kJ/mol
# GULP energy per Si atom -5571.646159 kJ/mol
# Density = 1.744336 g / cm^3
# Si number density = 17.483154 Si / 1000 Ang^3
#
#
#
# Elastic Constant Matrix: (Units=GPa)
#
#
# Indices 1 2 3 4 5 6 
#
# 1 52.1610 19.5225 25.3729 0.0000 -1.5382 0.0000
# 2 19.5225 52.1610 25.3729 0.0000 1.5382 0.0000
# 3 25.3729 25.3729 112.7069 0.0000 0.0000 0.0000
# 4 0.0000 0.0000 0.0000 13.3001 0.0000 1.5382
# 5 -1.5382 1.5382 0.0000 0.0000 13.3001 0.0000
# 6 0.0000 0.0000 0.0000 1.5382 0.0000 16.3192
#
#
#
# Elastic Compliance Matrix: (Units=1/GPa)
#
#
# Indices 1 2 3 4 5 6 
#
# 1 0.023786 -0.007191 -0.003736 0.000000 0.003583 0.000000
# 2 -0.007191 0.023786 -0.003736 0.000000 -0.003583 0.000000
# 3 -0.003736 -0.003736 0.010555 0.000000 0.000000 0.000000
# 4 0.000000 0.000000 0.000000 0.076016 0.000000 -0.007165
# 5 0.003583 -0.003583 0.000000 0.000000 0.076016 0.000000
# 6 0.000000 0.000000 0.000000 -0.007165 0.000000 0.061953
#
#
# Mechanical properties :
#
#
# Convention : Reuss Voigt Hill
#
# Bulk Modulus (GPa) = 34.72115 39.72949 37.22532
# Shear Modulus (GPa) = 16.07531 18.36794 17.22163
#
# Velocity S-wave (km/s) = 3.03557 3.24482 3.14194
# Velocity P-wave (km/s) = 5.67355 6.06731 5.87373
#
# Compressibility (1/GPa) = 0.02880089
#
# Stress axis : x y z
#
# Youngs Moduli (GPa) = 42.04218 42.04218 94.74508
#
# Poissons Ratio (x) = 0.30231 0.35396
# Poissons Ratio (y) = 0.30231 0.35396
# Poissons Ratio (z) = 0.15707 0.15707
#
# Static dielectric constant tensor:
#      x y z
#    x 1.593120 0.000000 0.000000 
#    y 0.000000 1.593120 0.000000 
#    z 0.000000 0.000000 0.863950 
# 
# From -- ./inp_files/1496.got.cif
#   From: 2010.05.17/outbox.cif.g08.bks.cpg/sg151_1_cif.got.tgz:1496.got - 2010.05.20 10:33:20.
