data_PCOD9575599
_publ_section_title
;
Structure prediction by ZEFSAII (Michael W. Deem and Ramdas Pophale) SiO2 
 PCOD9575599
Probable space group: P 31 1 2
;
_chemical_formula_sum "Si O2"
_cell_formula_units_Z 42
_cell_length_a 8.796893
_cell_length_b 8.796893
_cell_length_c 28.916431
_cell_angle_alpha 90.000000
_cell_angle_beta 90.000000
_cell_angle_gamma 120.000000
_cell_volume 1937.911500
_symmetry_space_group_name_H-M "P 31 1 2"
_symmetry_group_IT_number 151
_symmetry_cell_setting 'hexagonal'
loop_
_space_group_symop_operation_xyz
x,y,z
-y,x-y,1/3+z
-x+y,-x,2/3+z
-y,-x,2/3-z
-x+y,y,1/3-z
x,x-y,-z
loop_
_atom_site_type_symbol
_atom_site_label
_atom_site_fract_x
_atom_site_fract_y
_atom_site_fract_z
Si Si1 0.446182 0.553819 0.333334
Si Si2 0.234106 0.109689 0.905255
Si Si3 0.395400 0.529089 0.435850
Si Si4 0.165928 0.331855 0.166667
Si Si5 0.519685 0.556163 0.783530
Si Si6 0.681337 0.870557 0.054757
Si Si7 0.894373 0.148991 0.888736
Si Si8 0.824440 0.850247 0.360198
O O1 0.387676 0.585035 0.383266
O O2 0.659967 0.681744 0.337431
O O3 0.395665 0.303287 0.910609
O O4 0.061831 0.131091 0.904388
O O5 0.232399 0.020340 0.857308
O O6 0.201713 0.965343 0.943682
O O7 0.548533 0.687072 0.463187
O O8 0.214079 0.475398 0.461620
O O9 0.403089 0.349346 0.434011
O O10 0.521734 0.478267 0.833334
O O11 0.348930 0.455156 0.752357
O O12 0.737832 0.743370 0.081456
O O13 0.849020 0.068785 0.055997
O O14 0.638548 0.819274 0.000000
O O15 0.874213 0.125788 0.833334
O O16 0.990009 0.009992 0.333334
#
# Coordination Sequence:
#
# PCOD9575599 Si02
#       8
#     3   6   6   3   6   6   6   6
#     4  12  22  40  70  94 132 176 226 292 352 410
#     4  10  21  39  66  94 129 175 222 275 343 408
#     4  11  24  38  63  97 130 172 232 280 344 416
#     4  12  22  42  64  98 136 174 224 296 344 406
#     4  11  23  39  65  96 133 178 226 281 352 430
#     4  10  21  39  67  96 137 177 225 289 356 421
#     4  10  20  40  68  94 125 180 229 275 342 423
#     4  10  21  41  68  97 129 176 239 281 339 430
#
# _framework density 21.672815
#
# number of rings (size 3 to 8) (size 9 to 14) (size 15 to 20)
#    0.000    1.429    2.857    5.143    3.000    0.000 
#    0.000    2.143   11.000    0.000    0.000    0.000 
#    0.000    0.000    0.000    0.000    0.000    0.000 
#
# Total GULP energy -233858.297883 kJ/mol
# GULP energy per Si atom -5568.054711 kJ/mol
# Density = 2.162349 g / cm^3
# Si number density = 21.672815 Si / 1000 Ang^3
#
#
#
# Elastic Constant Matrix: (Units=GPa)
#
#
# Indices 1 2 3 4 5 6 
#
# 1 85.3268 41.6920 22.6989 0.0001 -4.1364 0.0000
# 2 41.6920 85.3268 22.6989 -0.0001 4.1364 0.0000
# 3 22.6989 22.6989 98.3302 0.0000 0.0000 0.0000
# 4 0.0001 -0.0001 0.0000 25.0202 0.0000 4.1364
# 5 -4.1364 4.1364 0.0000 0.0000 25.0202 0.0001
# 6 0.0000 0.0000 0.0000 4.1364 0.0001 21.8174
#
#
#
# Elastic Compliance Matrix: (Units=1/GPa)
#
#
# Indices 1 2 3 4 5 6 
#
# 1 0.016120 -0.007539 -0.001981 0.000000 0.003911 0.000000
# 2 -0.007539 0.016120 -0.001981 0.000000 -0.003911 0.000000
# 3 -0.001981 -0.001981 0.011084 0.000000 0.000000 0.000000
# 4 0.000000 0.000000 0.000000 0.041261 0.000000 -0.007823
# 5 0.003911 -0.003911 0.000000 0.000000 0.041261 0.000000
# 6 0.000000 0.000000 0.000000 -0.007823 0.000000 0.047318
#
#
# Mechanical properties :
#
#
# Convention : Reuss Voigt Hill
#
# Bulk Modulus (GPa) = 49.20614 49.24037 49.22325
# Shear Modulus (GPa) = 24.63784 26.49784 25.56784
#
# Velocity S-wave (km/s) = 3.37532 3.50041 3.43843
# Velocity P-wave (km/s) = 6.15985 6.25351 6.20685
#
# Compressibility (1/GPa) = 0.02032267
#
# Stress axis : x y z
#
# Youngs Moduli (GPa) = 62.03502 62.03502 90.21739
#
# Poissons Ratio (x) = 0.46769 0.17870
# Poissons Ratio (y) = 0.46769 0.17870
# Poissons Ratio (z) = 0.12288 0.12288
#
# Static dielectric constant tensor:
#      x y z
#    x 1.866730 0.000000 0.000000 
#    y 0.000000 1.866730 0.000000 
#    z 0.000000 0.000000 1.534460 
# 
# From -- ./inp_files/5096.got.cif
#   From: 2010.05.17/outbox.cif.g08.bks.cpg/sg151_3_cif.got.tgz:5096.got - 2010.05.20 10:33:20.
