data_PCOD9575626
_publ_section_title
;
Structure prediction by ZEFSAII (Michael W. Deem and Ramdas Pophale) SiO2 
 PCOD9575626
Probable space group: P 31 1 2
;
_chemical_formula_sum "Si O2"
_cell_formula_units_Z 42
_cell_length_a 8.009693
_cell_length_b 8.009693
_cell_length_c 31.241584
_cell_angle_alpha 90.000000
_cell_angle_beta 90.000000
_cell_angle_gamma 120.000000
_cell_volume 1735.782949
_symmetry_space_group_name_H-M "P 31 1 2"
_symmetry_group_IT_number 151
_symmetry_cell_setting 'hexagonal'
loop_
_space_group_symop_operation_xyz
x,y,z
-y,x-y,1/3+z
-x+y,-x,2/3+z
-y,-x,2/3-z
-x+y,y,1/3-z
x,x-y,-z
loop_
_atom_site_type_symbol
_atom_site_label
_atom_site_fract_x
_atom_site_fract_y
_atom_site_fract_z
Si Si1 0.425916 0.609520 0.705231
Si Si2 0.884132 0.480995 0.810069
Si Si3 0.188445 0.975602 0.669666
Si Si4 0.319168 0.116399 0.408876
Si Si5 0.293639 0.218616 0.744348
Si Si6 0.820626 0.784439 0.828943
Si Si7 0.331402 0.846634 0.546048
O O1 0.270943 0.541885 0.666667
O O2 0.432483 0.424326 0.722898
O O3 0.394053 0.706035 0.748399
O O4 0.614442 0.781539 0.682739
O O5 0.695521 0.304480 0.833334
O O6 0.916848 0.387858 0.767756
O O7 0.868313 0.664082 0.795654
O O8 0.059333 0.557317 0.844173
O O9 0.334425 0.157281 0.640291
O O10 0.272470 0.039934 0.717072
O O11 0.980860 0.961720 0.666667
O O12 0.319242 0.295096 0.432221
O O13 0.117844 0.917386 0.411764
O O14 0.329260 0.205748 0.793644
O O15 0.617967 0.758886 0.816299
O O16 0.995580 0.004421 0.833334
#
# Coordination Sequence:
#
# PCOD9575626 Si02
#       7
#     6   6   6   6   6   6   6
#     4  11  25  42  67 100 132 174 230 286 343 406
#     4  10  22  39  65 101 137 175 222 285 343 406
#     4   9  21  43  69  93 127 184 226 275 340 418
#     4   9  17  42  67  88 130 180 220 267 345 404
#     4  11  22  42  69  92 136 178 226 277 346 413
#     4  12  24  42  68 101 132 183 230 280 350 418
#     4  10  21  43  65  93 138 178 218 285 342 409
#
# _framework density 24.196573999999998
#
# number of rings (size 3 to 8) (size 9 to 14) (size 15 to 20)
#    0.000    1.714    2.857    1.714    4.000    1.143 
#    2.571    0.714    0.000    0.000    0.000    0.000 
#    0.000    0.000    0.000    0.000    0.000    0.000 
#
# Total GULP energy -234614.368951 kJ/mol
# GULP energy per Si atom -5586.056404 kJ/mol
# Density = 2.414150 g / cm^3
# Si number density = 24.196574 Si / 1000 Ang^3
#
#
#
# Elastic Constant Matrix: (Units=GPa)
#
#
# Indices 1 2 3 4 5 6 
#
# 1 72.1100 10.3553 18.9807 0.0001 9.1645 0.0000
# 2 10.3553 72.1100 18.9807 -0.0001 -9.1645 0.0000
# 3 18.9807 18.9807 97.6115 0.0000 0.0000 0.0000
# 4 0.0001 -0.0001 0.0000 24.3286 0.0000 -9.1645
# 5 9.1645 -9.1645 0.0000 0.0000 24.3286 0.0001
# 6 0.0000 0.0000 0.0000 -9.1645 0.0001 30.8773
#
#
#
# Elastic Compliance Matrix: (Units=1/GPa)
#
#
# Indices 1 2 3 4 5 6 
#
# 1 0.015775 -0.002457 -0.002590 0.000000 -0.006868 0.000000
# 2 -0.002457 0.015775 -0.002590 0.000000 0.006868 0.000000
# 3 -0.002590 -0.002590 0.011252 0.000000 0.000000 0.000000
# 4 0.000000 0.000000 0.000000 0.046278 0.000000 0.013736
# 5 -0.006868 0.006868 0.000000 0.000000 0.046278 0.000000
# 6 0.000000 0.000000 0.000000 0.013736 0.000000 0.036463
#
#
# Mechanical properties :
#
#
# Convention : Reuss Voigt Hill
#
# Bulk Modulus (GPa) = 36.32449 37.60722 36.96586
# Shear Modulus (GPa) = 25.47517 28.80789 27.14153
#
# Velocity S-wave (km/s) = 3.24827 3.45422 3.35283
# Velocity P-wave (km/s) = 5.39567 5.61114 5.50446
#
# Compressibility (1/GPa) = 0.02752964
#
# Stress axis : x y z
#
# Youngs Moduli (GPa) = 63.39146 63.39146 88.87403
#
# Poissons Ratio (x) = 0.15572 0.23017
# Poissons Ratio (y) = 0.15572 0.23017
# Poissons Ratio (z) = 0.16417 0.16417
#
# Static dielectric constant tensor:
#      x y z
#    x 1.954200 0.000000 0.000000 
#    y 0.000000 1.954200 0.000000 
#    z 0.000000 0.000000 1.980140 
# 
# From -- ./inp_files/5006.got.cif
#   From: 2010.05.17/outbox.cif.g08.bks.cpg/sg151_3_cif.got.tgz:5006.got - 2010.05.20 10:33:20.
