data_PCOD9575038
_publ_section_title
;
Structure prediction by ZEFSAII (Michael W. Deem and Ramdas Pophale) SiO2 
 PCOD9575038
Probable space group: R -3
;
_chemical_formula_sum "Si O2"
_cell_formula_units_Z 132
_cell_length_a 23.465148
_cell_length_b 23.465148
_cell_length_c 15.660690
_cell_angle_alpha 90.000000
_cell_angle_beta 90.000000
_cell_angle_gamma 120.000000
_cell_volume 7467.721620
_symmetry_space_group_name_H-M "R -3"
_symmetry_group_IT_number 148
_symmetry_cell_setting 'hexagonal'
loop_
_space_group_symop_operation_xyz
x,y,z
-y,x-y,z
-x+y,-x,z
-x,-y,-z
y,-x+y,-z
x-y,x,-z
2/3+x,1/3+y,1/3+z
2/3-y,1/3+x-y,1/3+z
2/3-x+y,1/3-x,1/3+z
2/3-x,1/3-y,1/3-z
2/3+y,1/3-x+y,1/3-z
2/3+x-y,1/3+x,1/3-z
1/3+x,2/3+y,2/3+z
1/3-y,2/3+x-y,2/3+z
1/3-x+y,2/3-x,2/3+z
1/3-x,2/3-y,2/3-z
1/3+y,2/3-x+y,2/3-z
1/3+x-y,2/3+x,2/3-z
loop_
_atom_site_type_symbol
_atom_site_label
_atom_site_fract_x
_atom_site_fract_y
_atom_site_fract_z
Si Si1 0.545670 0.045714 0.074255
Si Si2 0.546465 0.694035 0.496150
Si Si3 0.000000 0.000000 0.102928
Si Si4 0.853401 0.934885 0.842086
Si Si5 0.904813 0.669235 0.919055
Si Si6 0.584558 0.766768 0.674612
Si Si7 0.698321 0.132707 0.053724
Si Si8 0.389291 0.394890 0.544242
O O1 0.518640 0.092760 0.106222
O O2 0.620406 0.087852 0.042952
O O3 0.546687 0.005344 0.157599
O O4 0.500000 0.000000 0.000000
O O5 0.468835 0.647546 0.488238
O O6 0.563495 0.719039 0.593512
O O7 0.581221 0.652340 0.470549
O O8 0.071073 0.014748 0.136127
O O9 0.000000 0.000000 0.000000
O O10 0.821211 0.954850 0.765607
O O11 0.808365 0.924437 0.925510
O O12 0.897037 0.723916 0.972643
O O13 0.981153 0.689658 0.912279
O O14 0.863925 0.600247 0.967509
O O15 0.643895 0.764970 0.724028
O O16 0.720307 0.095543 0.122448
#
# Coordination Sequence:
#
# PCOD9575038 Si02
#       8
#    18  18   6  18  18  18  18  18
#     4  10  22  38  56  80 110 140 178 229 276 319
#     4  11  21  34  54  79 107 141 180 221 270 324
#     4  12  24  36  54  78 108 151 191 229 282 336
#     4  11  22  36  54  78 110 144 182 223 268 327
#     4  10  20  35  55  79 108 144 181 220 270 325
#     4  10  20  34  52  79 111 143 178 221 266 318
#     4  10  20  36  54  77 109 144 179 220 270 327
#     4  10  19  31  53  80 109 143 179 218 266 324
#
# _framework density 17.676075000000001
#
# number of rings (size 3 to 8) (size 9 to 14) (size 15 to 20)
#    0.000    1.636    0.000    5.727    0.000    7.636 
#    0.000    1.364    0.000    0.000    0.000    0.000 
#    0.000    3.273    0.000    0.000    0.000    0.000 
#
# Total GULP energy -245926.351172 kJ/mol
# GULP energy per Si atom -5589.235254 kJ/mol
# Density = 1.763584 g / cm^3
# Si number density = 17.676075 Si / 1000 Ang^3
#
#
#
# Elastic Constant Matrix: (Units=GPa)
#
#
# Indices 1 2 3 4 5 6 
#
# 1 87.0414 26.3220 41.1276 5.5668 -1.7377 0.0000
# 2 26.3220 87.0414 41.1276 -5.5668 1.7377 0.0000
# 3 41.1276 41.1276 69.6650 0.0000 0.0000 0.0000
# 4 5.5668 -5.5668 0.0000 22.0437 0.0000 1.7377
# 5 -1.7377 1.7377 0.0000 0.0000 22.0437 5.5668
# 6 0.0000 0.0000 0.0000 1.7377 5.5668 30.3597
#
#
#
# Elastic Compliance Matrix: (Units=1/GPa)
#
#
# Indices 1 2 3 4 5 6 
#
# 1 0.016391 -0.000960 -0.009110 -0.004382 0.001368 0.000000
# 2 -0.000960 0.016391 -0.009110 0.004382 -0.001368 0.000000
# 3 -0.009110 -0.009110 0.025111 0.000000 0.000000 0.000000
# 4 -0.004382 0.004382 0.000000 0.047793 0.000000 -0.002736
# 5 0.001368 -0.001368 0.000000 0.000000 0.047793 -0.008763
# 6 0.000000 0.000000 0.000000 -0.002736 -0.008763 0.034702
#
#
# Mechanical properties :
#
#
# Convention : Reuss Voigt Hill
#
# Bulk Modulus (GPa) = 51.19471 51.21137 51.20304
# Shear Modulus (GPa) = 21.45439 23.90080 22.67760
#
# Velocity S-wave (km/s) = 3.48768 3.68116 3.58572
# Velocity P-wave (km/s) = 6.72637 6.86316 6.79511
#
# Compressibility (1/GPa) = 0.01953327
#
# Stress axis : x y z
#
# Youngs Moduli (GPa) = 61.00854 61.00854 39.82328
#
# Poissons Ratio (x) = 0.05855 0.36279
# Poissons Ratio (y) = 0.05855 0.36279
# Poissons Ratio (z) = 0.55579 0.55579
#
# Static dielectric constant tensor:
#      x y z
#    x 1.597810 0.000000 0.000000 
#    y 0.000000 1.597810 0.000000 
#    z 0.000000 0.000000 1.595120 
# 
# From -- ./inp_files/2241.got.cif
#   From: 2010.05.17/outbox.cif.g08.bks.cpg/sg148_2_cif.got.tgz:2241.got - 2010.05.20 13:50:20.
