data_PCOD9575355
_publ_section_title
;
Structure prediction by ZEFSAII (Michael W. Deem and Ramdas Pophale) SiO2 
 PCOD9575355
Probable space group: P 3 1 2
;
_chemical_formula_sum "Si O2"
_cell_formula_units_Z 48
_cell_length_a 12.951063
_cell_length_b 12.951063
_cell_length_c 20.769088
_cell_angle_alpha 90.000000
_cell_angle_beta 90.000000
_cell_angle_gamma 120.000000
_cell_volume 3016.885934
_symmetry_space_group_name_H-M "P 3 1 2"
_symmetry_group_IT_number 149
_symmetry_cell_setting 'hexagonal'
loop_
_space_group_symop_operation_xyz
x,y,z
-y,x-y,z
-x+y,-x,z
-y,-x,-z
-x+y,y,-z
x,x-y,-z
loop_
_atom_site_type_symbol
_atom_site_label
_atom_site_fract_x
_atom_site_fract_y
_atom_site_fract_z
Si Si1 0.999988 0.754439 0.879959
Si Si2 0.999988 0.245549 0.879959
Si Si3 0.909859 0.576331 0.236719
Si Si4 0.578362 0.667123 0.500000
Si Si5 0.666931 0.089886 0.615349
Si Si6 0.332645 0.420652 0.000000
Si Si7 0.666472 0.576331 0.236719
Si Si8 0.910114 0.577045 0.384651
O O1 0.879584 0.759168 0.892355
O O2 0.980387 0.680425 0.814444
O O3 0.113266 0.886734 0.875349
O O4 0.026727 0.688167 0.937621
O O5 0.026728 0.338560 0.937621
O O6 0.980387 0.299962 0.814443
O O7 0.771704 0.543408 0.233351
O O8 0.920322 0.460161 0.222476
O O9 0.948679 0.613761 0.310650
O O10 0.443387 0.556614 0.500000
O O11 0.580875 0.790438 0.500000
O O12 0.640938 0.651241 0.436854
O O13 0.640938 0.651241 0.563146
O O14 0.665082 0.051321 0.689350
O O15 0.559531 0.119063 0.609679
O O16 0.791892 0.208108 0.602968
O O17 0.460298 0.539703 0.000000
O O18 0.225716 0.451431 0.000000
#
# Coordination Sequence:
#
# PCOD9575355 Si02
#       8
#     6   6   6   6   6   6   6   6
#     4  10  20  33  50  71  97 130 165 198 229 269
#     4  10  20  33  50  71  97 130 165 198 229 269
#     4   9  17  30  49  73  99 125 154 192 240 288
#     4  10  20  32  46  64  90 124 158 192 230 278
#     4   9  17  30  50  74  96 119 151 195 244 288
#     4  10  20  34  52  72  94 120 152 194 242 288
#     4   9  17  30  49  73  99 125 154 192 240 288
#     4   9  17  30  50  74  96 119 151 195 244 288
#
# _framework density 15.910447
#
# number of rings (size 3 to 8) (size 9 to 14) (size 15 to 20)
#    0.000    2.500    0.000    2.500    0.000    3.000 
#    0.000    2.500    0.000    6.000    0.000    0.000 
#    0.000    0.000    0.000    0.000    0.000    0.000 
#
# Total GULP energy -267669.201708 kJ/mol
# GULP energy per Si atom -5576.441702 kJ/mol
# Density = 1.587423 g / cm^3
# Si number density = 15.910447 Si / 1000 Ang^3
#
#
#
# Elastic Constant Matrix: (Units=GPa)
#
#
# Indices 1 2 3 4 5 6 
#
# 1 116.5525 78.2684 86.0381 0.0000 0.0000 0.0000
# 2 78.2684 116.5525 86.0381 0.0000 0.0000 0.0000
# 3 86.0381 86.0381 127.2408 0.0000 0.0000 0.0000
# 4 0.0000 0.0000 0.0000 20.2298 0.0000 0.0000
# 5 0.0000 0.0000 0.0000 0.0000 20.2298 0.0000
# 6 0.0000 0.0000 0.0000 0.0000 0.0000 19.1420
#
#
#
# Elastic Compliance Matrix: (Units=1/GPa)
#
#
# Indices 1 2 3 4 5 6 
#
# 1 0.019432 -0.006688 -0.008618 0.000000 0.000000 0.000000
# 2 -0.006688 0.019432 -0.008618 0.000000 0.000000 0.000000
# 3 -0.008618 -0.008618 0.019513 0.000000 0.000000 0.000000
# 4 0.000000 0.000000 0.000000 0.049432 0.000000 0.000000
# 5 0.000000 0.000000 0.000000 0.000000 0.049432 0.000000
# 6 0.000000 0.000000 0.000000 0.000000 0.000000 0.052241
#
#
# Mechanical properties :
#
#
# Convention : Reuss Voigt Hill
#
# Bulk Modulus (GPa) = 94.95051 95.67055 95.31053
# Shear Modulus (GPa) = 19.16883 19.25374 19.21128
#
# Velocity S-wave (km/s) = 3.47478 3.48247 3.47863
# Velocity P-wave (km/s) = 8.71243 8.74250 8.72748
#
# Compressibility (1/GPa) = 0.01053180
#
# Stress axis : x y z
#
# Youngs Moduli (GPa) = 51.46029 51.46029 51.24737
#
# Poissons Ratio (x) = 0.34417 0.44163
# Poissons Ratio (y) = 0.34417 0.44163
# Poissons Ratio (z) = 0.44346 0.44346
#
# Static dielectric constant tensor:
#      x y z
#    x 1.501330 0.000000 0.000000 
#    y 0.000000 1.501330 0.000000 
#    z 0.000000 0.000000 1.535660 
# 
# From -- ./inp_files/1150.got.cif
#   From: 2010.05.17/outbox.cif.g08.bks.cpg/sg149_cif.got.tgz:1150.got - 2010.05.20 13:52:34.
