data_PCOD9575995
_publ_section_title
;
Structure prediction by ZEFSAII (Michael W. Deem and Ramdas Pophale) SiO2 
 PCOD9575995
Probable space group: P 31 2 1
;
_chemical_formula_sum "Si O2"
_cell_formula_units_Z 36
_cell_length_a 8.559146
_cell_length_b 8.559146
_cell_length_c 28.234115
_cell_angle_alpha 90.000000
_cell_angle_beta 90.000000
_cell_angle_gamma 120.000000
_cell_volume 1791.289087
_symmetry_space_group_name_H-M "P 31 2 1"
_symmetry_group_IT_number 152
_symmetry_cell_setting 'hexagonal'
loop_
_space_group_symop_operation_xyz
x,y,z
-y,x-y,1/3+z
-x+y,-x,2/3+z
x-y,-y,2/3-z
-x,-x+y,1/3-z
y,x,-z
loop_
_atom_site_type_symbol
_atom_site_label
_atom_site_fract_x
_atom_site_fract_y
_atom_site_fract_z
Si Si1 0.359159 0.527693 0.882888
Si Si2 0.483191 0.214608 0.221623
Si Si3 0.868720 0.771036 0.711286
Si Si4 0.756882 0.484754 0.296006
Si Si5 0.831550 0.474728 0.054377
Si Si6 0.142559 0.000871 0.277289
O O1 0.541366 0.514120 0.884632
O O2 0.277732 0.475145 0.830848
O O3 0.229756 0.393425 0.923061
O O4 0.380353 0.722166 0.897791
O O5 0.647825 0.372151 0.250353
O O6 0.309265 0.169291 0.253781
O O7 0.677562 0.762261 0.699877
O O8 0.000000 0.796521 0.666667
O O9 0.968504 0.954503 0.742529
O O10 0.651414 0.377094 0.343109
O O11 0.956868 0.513088 0.289565
O O12 0.823990 0.657979 0.059269
O O13 0.114647 0.000000 0.333334
#
# Coordination Sequence:
#
# PCOD9575995 Si02
#       6
#     6   6   6   6   6   6
#     4  11  25  42  61  95 134 179 220 264 336 398
#     4  11  24  42  67  91 137 178 217 275 332 394
#     4  10  23  40  64  98 130 167 224 271 329 396
#     4  11  22  40  68  96 128 171 223 284 321 392
#     4  10  22  37  65  95 126 168 218 273 327 389
#     4   9  18  40  65  94 123 170 214 265 334 391
#
# _framework density 20.097256999999999
#
# number of rings (size 3 to 8) (size 9 to 14) (size 15 to 20)
#    0.000    1.667    1.667    2.000    4.667    1.333 
#    0.000    6.667    0.000    0.000    0.000    0.000 
#    0.000    0.000    0.000    0.000    0.000    0.000 
#
# Total GULP energy -200492.558912 kJ/mol
# GULP energy per Si atom -5569.237748 kJ/mol
# Density = 2.005151 g / cm^3
# Si number density = 20.097257 Si / 1000 Ang^3
#
#
#
# Elastic Constant Matrix: (Units=GPa)
#
#
# Indices 1 2 3 4 5 6 
#
# 1 44.1229 84.0770 47.1699 0.6399 0.0000 0.0000
# 2 84.0770 44.1229 47.1699 -0.6399 0.0000 0.0000
# 3 47.1699 47.1699 113.0698 0.0000 0.0000 0.0000
# 4 0.6399 -0.6399 0.0000 16.3028 0.0000 0.0000
# 5 0.0000 0.0000 0.0000 0.0000 16.3028 0.6399
# 6 0.0000 0.0000 0.0000 0.0000 0.6399 -19.9770
#
#
#
# Elastic Compliance Matrix: (Units=1/GPa)
#
#
# Indices 1 2 3 4 5 6 
#
# 1 -0.006871 0.018127 -0.004696 0.000981 0.000000 0.000000
# 2 0.018127 -0.006871 -0.004696 -0.000981 0.000000 0.000000
# 3 -0.004696 -0.004696 0.012762 0.000000 0.000000 0.000000
# 4 0.000981 -0.000981 0.000000 0.061262 0.000000 0.000000
# 5 0.000000 0.000000 0.000000 0.000000 0.061262 0.001962
# 6 0.000000 0.000000 0.000000 0.000000 0.001962 -0.049995
#
#
# Mechanical properties :
#
#
# Convention : Reuss Voigt Hill
#
# Bulk Modulus (GPa) = 60.63954 62.01659 61.32806
# Shear Modulus (GPa) = 83.92630 4.05232 43.98931
#
# Velocity S-wave (km/s) = 6.46921 1.42152 4.68356
# Velocity P-wave (km/s) = 9.27575 5.79824 7.73495
#
# Compressibility (1/GPa) = 0.01649089
#
# Stress axis : x y z
#
# Youngs Moduli (GPa) = -145.54347 -145.54347 78.35848
#
# Poissons Ratio (x) = 2.63819 0.36794
# Poissons Ratio (y) = 2.63819 0.36794
# Poissons Ratio (z) = -0.68341 -0.68341
#
# Static dielectric constant tensor:
#      x y z
#    x 1.859480 0.000000 0.000000 
#    y 0.000000 1.859480 0.000000 
#    z 0.000000 0.000000 1.711710 
# 
# From -- ./inp_files/3380.got.cif
#   From: 2010.05.17/outbox.cif.g08.bks.cpg/sg152_2_cif.got.tgz:3380.got - 2010.05.20 10:36:06.
