data_PCOD9575689
_publ_section_title
;
Structure prediction by ZEFSAII (Michael W. Deem and Ramdas Pophale) SiO2 
 PCOD9575689
Probable space group: P 31 1 2
;
_chemical_formula_sum "Si O2"
_cell_formula_units_Z 18
_cell_length_a 7.069890
_cell_length_b 7.069890
_cell_length_c 17.078580
_cell_angle_alpha 90.000000
_cell_angle_beta 90.000000
_cell_angle_gamma 120.000000
_cell_volume 739.277866
_symmetry_space_group_name_H-M "P 31 1 2"
_symmetry_group_IT_number 151
_symmetry_cell_setting 'hexagonal'
loop_
_space_group_symop_operation_xyz
x,y,z
-y,x-y,1/3+z
-x+y,-x,2/3+z
-y,-x,2/3-z
-x+y,y,1/3-z
x,x-y,-z
loop_
_atom_site_type_symbol
_atom_site_label
_atom_site_fract_x
_atom_site_fract_y
_atom_site_fract_z
Si Si1 0.658879 0.829440 0.500000
Si Si2 0.818754 0.181246 0.833334
Si Si3 0.061712 0.543272 0.297290
Si Si4 0.300069 0.989684 0.121822
O O1 0.509492 0.725864 0.575703
O O2 0.214480 0.273127 0.463905
O O3 0.909765 0.726264 0.827878
O O4 0.870004 0.342103 0.758978
O O5 0.213630 0.786371 0.333334
O O6 0.986242 0.370127 0.366844
O O7 0.481892 0.963783 0.166667
#
# Coordination Sequence:
#
# PCOD9575689 Si02
#       4
#     3   3   6   6
#     4  11  28  48  74 117 158 216 282 339 421 510
#     4  11  26  48  82 119 156 218 288 345 425 504
#     4  12  25  49  81 113 163 220 279 353 417 505
#     4  11  25  49  76 116 163 219 276 346 426 499
#
# _framework density 24.348084
#
# number of rings (size 3 to 8) (size 9 to 14) (size 15 to 20)
#    0.000    0.667    3.333    3.000    7.000    0.000 
#    0.000    0.000    0.000    0.000    0.000    0.000 
#    0.000    0.000    0.000    0.000    0.000    0.000 
#
# Total GULP energy -100634.729301 kJ/mol
# GULP energy per Si atom -5590.818294 kJ/mol
# Density = 2.429267 g / cm^3
# Si number density = 24.348084 Si / 1000 Ang^3
#
#
#
# Elastic Constant Matrix: (Units=GPa)
#
#
# Indices 1 2 3 4 5 6 
#
# 1 137.4060 76.2294 74.0156 0.0002 19.0770 0.0000
# 2 76.2294 137.4060 74.0156 -0.0002 -19.0770 0.0000
# 3 74.0156 74.0156 203.4112 0.0000 0.0000 0.0000
# 4 0.0002 -0.0002 0.0000 45.4214 0.0000 -19.0770
# 5 19.0770 -19.0770 0.0000 0.0000 45.4214 0.0002
# 6 0.0000 0.0000 0.0000 -19.0770 0.0002 30.5883
#
#
#
# Elastic Compliance Matrix: (Units=1/GPa)
#
#
# Indices 1 2 3 4 5 6 
#
# 1 0.014203 -0.007944 -0.002277 0.000000 -0.009302 0.000000
# 2 -0.007944 0.014203 -0.002277 0.000000 0.009302 0.000000
# 3 -0.002277 -0.002277 0.006574 0.000000 0.000000 0.000000
# 4 0.000000 0.000000 0.000000 0.029830 0.000000 0.018604
# 5 -0.009302 0.009302 0.000000 0.000000 0.029830 0.000000
# 6 0.000000 0.000000 0.000000 0.018604 0.000000 0.044295
#
#
# Mechanical properties :
#
#
# Convention : Reuss Voigt Hill
#
# Bulk Modulus (GPa) = 100.18398 102.97162 101.57780
# Shear Modulus (GPa) = 29.89365 41.21706 35.55535
#
# Velocity S-wave (km/s) = 3.50774 4.11886 3.82552
# Velocity P-wave (km/s) = 7.59221 8.06246 7.83086
#
# Compressibility (1/GPa) = 0.00998164
#
# Stress axis : x y z
#
# Youngs Moduli (GPa) = 70.40669 70.40669 152.12462
#
# Poissons Ratio (x) = 0.55933 0.34646
# Poissons Ratio (y) = 0.55933 0.34646
# Poissons Ratio (z) = 0.16035 0.16035
#
# Static dielectric constant tensor:
#      x y z
#    x 1.993000 0.000000 0.000000 
#    y 0.000000 1.993000 0.000000 
#    z 0.000000 0.000000 2.098560 
# 
# From -- ./inp_files/3171.got.cif
#   From: 2010.05.17/outbox.cif.g08.bks.cpg/sg151_2_cif.got.tgz:3171.got - 2010.05.20 10:33:20.
