data_PCOD9575504
_publ_section_title
;
Structure prediction by ZEFSAII (Michael W. Deem and Ramdas Pophale) SiO2 
 PCOD9575504
Probable space group: P 31 1 2
;
_chemical_formula_sum "Si O2"
_cell_formula_units_Z 39
_cell_length_a 8.750761
_cell_length_b 8.750761
_cell_length_c 24.811652
_cell_angle_alpha 90.000000
_cell_angle_beta 90.000000
_cell_angle_gamma 120.000000
_cell_volume 1645.424495
_symmetry_space_group_name_H-M "P 31 1 2"
_symmetry_group_IT_number 151
_symmetry_cell_setting 'hexagonal'
loop_
_space_group_symop_operation_xyz
x,y,z
-y,x-y,1/3+z
-x+y,-x,2/3+z
-y,-x,2/3-z
-x+y,y,1/3-z
x,x-y,-z
loop_
_atom_site_type_symbol
_atom_site_label
_atom_site_fract_x
_atom_site_fract_y
_atom_site_fract_z
Si Si1 0.348784 0.540463 0.537626
Si Si2 0.164106 0.280917 0.101488
Si Si3 0.728403 0.541157 0.400000
Si Si4 0.554258 0.445743 0.833334
Si Si5 0.026298 0.266703 0.417683
Si Si6 0.528872 0.622979 0.961023
Si Si7 0.684078 0.610906 0.215391
O O1 0.285770 0.642885 0.500000
O O2 0.175684 0.427360 0.573874
O O3 0.430082 0.477055 0.490767
O O4 0.519252 0.674108 0.571973
O O5 0.990413 0.264412 0.074419
O O6 0.124607 0.249213 0.166667
O O7 0.216638 0.142983 0.076662
O O8 0.522854 0.385934 0.400323
O O9 0.779554 0.473296 0.454096
O O10 0.893255 0.576375 0.362133
O O11 0.652641 0.631929 0.802598
O O12 0.081895 0.432565 0.377543
O O13 0.193194 0.242960 0.428835
O O14 0.508170 0.754085 0.000000
O O15 0.805880 0.611760 0.166667
#
# Coordination Sequence:
#
# PCOD9575504 Si02
#       7
#     6   6   6   3   6   6   6
#     4  11  21  39  65  93 125 162 207 263 319 370
#     4  11  20  35  61 100 127 150 205 268 323 369
#     4  11  21  36  59  89 130 160 204 257 320 373
#     4  10  18  32  54  88 120 162 196 248 310 370
#     4  11  21  35  60  89 123 166 201 255 314 378
#     4  11  26  45  63  86 129 177 216 253 321 393
#     4  12  22  33  62 103 128 152 203 272 322 367
#
# _framework density 23.702088
#
# number of rings (size 3 to 8) (size 9 to 14) (size 15 to 20)
#    0.000    0.923    6.923    2.308    5.385    0.000 
#    0.000    3.846    0.000    0.000    0.000    0.000 
#    0.000    0.000    0.000    0.000    0.000    0.000 
#
# Total GULP energy -217144.006089 kJ/mol
# GULP energy per Si atom -5567.795028 kJ/mol
# Density = 2.364814 g / cm^3
# Si number density = 23.702088 Si / 1000 Ang^3
#
#
#
# Elastic Constant Matrix: (Units=GPa)
#
#
# Indices 1 2 3 4 5 6 
#
# 1 102.4601 30.1689 -2.2998 0.0003 0.0589 0.0000
# 2 30.1689 102.4601 -2.2998 -0.0003 -0.0589 0.0000
# 3 -2.2998 -2.2998 21.0818 0.0000 0.0000 0.0000
# 4 0.0003 -0.0003 0.0000 10.3431 0.0000 -0.0589
# 5 0.0589 -0.0589 0.0000 0.0000 10.3431 0.0003
# 6 0.0000 0.0000 0.0000 -0.0589 0.0003 36.1456
#
#
#
# Elastic Compliance Matrix: (Units=1/GPa)
#
#
# Indices 1 2 3 4 5 6 
#
# 1 0.010701 -0.003132 0.000826 0.000000 -0.000079 0.000000
# 2 -0.003132 0.010701 0.000826 0.000000 0.000079 0.000000
# 3 0.000826 0.000826 0.047614 0.000000 0.000000 0.000000
# 4 0.000000 0.000000 0.000000 0.096684 0.000000 0.000157
# 5 -0.000079 0.000079 0.000000 0.000000 0.096684 -0.000001
# 6 0.000000 0.000000 0.000000 0.000157 -0.000001 0.027666
#
#
# Mechanical properties :
#
#
# Convention : Reuss Voigt Hill
#
# Bulk Modulus (GPa) = 15.13916 30.79339 22.96628
# Shear Modulus (GPa) = 15.87154 24.72854 20.30004
#
# Velocity S-wave (km/s) = 2.59052 3.23353 2.92972
# Velocity P-wave (km/s) = 3.91776 5.19240 4.59945
#
# Compressibility (1/GPa) = 0.06605386
#
# Stress axis : x y z
#
# Youngs Moduli (GPa) = 93.45123 93.45123 21.00206
#
# Poissons Ratio (x) = 0.29272 -0.01734
# Poissons Ratio (y) = 0.29272 -0.01734
# Poissons Ratio (z) = -0.07716 -0.07716
#
# Static dielectric constant tensor:
#      x y z
#    x 2.167450 0.000000 0.000000 
#    y 0.000000 2.167450 0.000000 
#    z 0.000000 0.000000 2.028380 
# 
# From -- ./inp_files/4944.got.cif
#   From: 2010.05.17/outbox.cif.g08.bks.cpg/sg151_3_cif.got.tgz:4944.got - 2010.05.20 10:33:20.
