data_PCOD9575568
_publ_section_title
;
Structure prediction by ZEFSAII (Michael W. Deem and Ramdas Pophale) SiO2 
 PCOD9575568
Probable space group: P 31 1 2
;
_chemical_formula_sum "Si O2"
_cell_formula_units_Z 45
_cell_length_a 10.967892
_cell_length_b 10.967892
_cell_length_c 18.667835
_cell_angle_alpha 90.000000
_cell_angle_beta 90.000000
_cell_angle_gamma 120.000000
_cell_volume 1944.781954
_symmetry_space_group_name_H-M "P 31 1 2"
_symmetry_group_IT_number 151
_symmetry_cell_setting 'hexagonal'
loop_
_space_group_symop_operation_xyz
x,y,z
-y,x-y,1/3+z
-x+y,-x,2/3+z
-y,-x,2/3-z
-x+y,y,1/3-z
x,x-y,-z
loop_
_atom_site_type_symbol
_atom_site_label
_atom_site_fract_x
_atom_site_fract_y
_atom_site_fract_z
Si Si1 0.031189 0.690021 0.889037
Si Si2 0.736013 0.548100 0.042689
Si Si3 0.132370 0.496542 0.395671
Si Si4 0.908918 0.071697 0.041710
Si Si5 0.738611 0.300820 0.103554
Si Si6 0.168538 0.584269 0.000000
Si Si7 0.123118 0.373151 0.536989
Si Si8 0.458926 0.927361 0.430899
O O1 0.076729 0.638297 0.959541
O O2 0.094480 0.648220 0.822406
O O3 0.030049 0.830196 0.912319
O O4 0.865176 0.587701 0.875587
O O5 0.802861 0.465547 0.082585
O O6 0.605834 0.524165 0.091018
O O7 0.840605 0.707320 0.016617
O O8 0.676141 0.462151 0.968819
O O9 0.302159 0.570847 0.391652
O O10 0.091244 0.371634 0.452359
O O11 0.083551 0.601006 0.427410
O O12 0.095975 0.486876 0.312120
O O13 0.776332 0.961354 0.090505
O O14 0.963464 0.981732 0.000000
O O15 0.630300 0.260599 0.166667
O O16 0.291409 0.454994 0.553262
#
# Coordination Sequence:
#
# PCOD9575568 Si02
#       8
#     6   6   6   6   6   3   6   6
#     4  11  25  38  65  97 136 182 233 291 354 430
#     4  10  20  33  57  89 132 167 216 285 325 414
#     4  11  23  36  66  99 134 171 222 297 352 409
#     4  11  21  41  67  95 136 182 237 288 349 420
#     4  10  20  37  55  89 130 178 220 265 351 407
#     4  12  22  44  64  96 128 166 240 290 352 410
#     4  11  21  39  63 102 134 177 235 285 357 419
#     4  12  20  38  60 101 133 174 225 293 363 413
#
# _framework density 23.138842
#
# number of rings (size 3 to 8) (size 9 to 14) (size 15 to 20)
#    0.000    1.067    6.667    1.600    0.000    2.667 
#    0.000    0.000    0.000    3.200    0.000    0.000 
#    0.000    0.000    0.000    0.000    0.000    0.000 
#
# Total GULP energy -251200.209664 kJ/mol
# GULP energy per Si atom -5582.226881 kJ/mol
# Density = 2.308618 g / cm^3
# Si number density = 23.138842 Si / 1000 Ang^3
#
#
#
# Elastic Constant Matrix: (Units=GPa)
#
#
# Indices 1 2 3 4 5 6 
#
# 1 68.6286 8.5792 22.3409 0.0000 -3.2039 0.0000
# 2 8.5792 68.6286 22.3409 0.0000 3.2039 0.0000
# 3 22.3409 22.3409 124.2889 0.0000 0.0000 0.0000
# 4 0.0000 0.0000 0.0000 29.1407 0.0000 3.2039
# 5 -3.2039 3.2039 0.0000 0.0000 29.1407 0.0000
# 6 0.0000 0.0000 0.0000 3.2039 0.0000 30.0247
#
#
#
# Elastic Compliance Matrix: (Units=1/GPa)
#
#
# Indices 1 2 3 4 5 6 
#
# 1 0.015653 -0.001197 -0.002598 0.000000 0.001853 0.000000
# 2 -0.001197 0.015653 -0.002598 0.000000 -0.001853 0.000000
# 3 -0.002598 -0.002598 0.008980 0.000000 0.000000 0.000000
# 4 0.000000 0.000000 0.000000 0.034724 0.000000 -0.003705
# 5 0.001853 -0.001853 0.000000 0.000000 0.034724 0.000000
# 6 0.000000 0.000000 0.000000 -0.003705 0.000000 0.033701
#
#
# Mechanical properties :
#
#
# Convention : Reuss Voigt Hill
#
# Bulk Modulus (GPa) = 36.36650 40.89645 38.63148
# Shear Modulus (GPa) = 30.23168 31.54691 30.88929
#
# Velocity S-wave (km/s) = 3.61852 3.69640 3.65767
# Velocity P-wave (km/s) = 5.76273 5.99421 5.87961
#
# Compressibility (1/GPa) = 0.02749783
#
# Stress axis : x y z
#
# Youngs Moduli (GPa) = 63.88459 63.88459 111.35982
#
# Poissons Ratio (x) = 0.07650 0.28936
# Poissons Ratio (y) = 0.07650 0.28936
# Poissons Ratio (z) = 0.16600 0.16600
#
# Static dielectric constant tensor:
#      x y z
#    x 1.914390 0.000000 0.000000 
#    y 0.000000 1.914390 0.000000 
#    z 0.000000 0.000000 1.934810 
# 
# From -- ./inp_files/3576.got.cif
#   From: 2010.05.17/outbox.cif.g08.bks.cpg/sg151_2_cif.got.tgz:3576.got - 2010.05.20 10:33:20.
