data_PCOD9575290
_publ_section_title
;
Structure prediction by ZEFSAII (Michael W. Deem and Ramdas Pophale) SiO2 
 PCOD9575290
Probable space group: R -3
;
_chemical_formula_sum "Si O2"
_cell_formula_units_Z 54
_cell_length_a 13.893636
_cell_length_b 13.893636
_cell_length_c 12.728128
_cell_angle_alpha 90.000000
_cell_angle_beta 90.000000
_cell_angle_gamma 120.000000
_cell_volume 2127.781355
_symmetry_space_group_name_H-M "R -3"
_symmetry_group_IT_number 148
_symmetry_cell_setting 'hexagonal'
loop_
_space_group_symop_operation_xyz
x,y,z
-y,x-y,z
-x+y,-x,z
-x,-y,-z
y,-x+y,-z
x-y,x,-z
2/3+x,1/3+y,1/3+z
2/3-y,1/3+x-y,1/3+z
2/3-x+y,1/3-x,1/3+z
2/3-x,1/3-y,1/3-z
2/3+y,1/3-x+y,1/3-z
2/3+x-y,1/3+x,1/3-z
1/3+x,2/3+y,2/3+z
1/3-y,2/3+x-y,2/3+z
1/3-x+y,2/3-x,2/3+z
1/3-x,2/3-y,2/3-z
1/3+y,2/3-x+y,2/3-z
1/3+x-y,2/3+x,2/3-z
loop_
_atom_site_type_symbol
_atom_site_label
_atom_site_fract_x
_atom_site_fract_y
_atom_site_fract_z
Si Si1 0.525799 0.669041 0.369851
Si Si2 0.878196 0.489500 0.402245
Si Si3 0.648969 0.552003 0.682343
O O1 0.464076 0.634489 0.481861
O O2 0.457931 0.568592 0.285725
O O3 0.526001 0.779259 0.335390
O O4 0.654902 0.706008 0.393538
O O5 0.865890 0.385099 0.338488
O O6 0.006983 0.583908 0.409539
#
# Coordination Sequence:
#
# PCOD9575290 Si02
#       3
#    18  18  18
#     4  11  25  44  71 103 147 191 243 299 360 439
#     4  12  25  43  73 110 144 187 240 302 366 425
#     4  11  24  43  69 101 142 192 238 298 360 421
#
# _framework density 25.378547999999999
#
# number of rings (size 3 to 8) (size 9 to 14) (size 15 to 20)
#    0.000    0.667    3.333    4.000    4.667    0.000 
#    0.000    0.000    0.000    2.000    0.000    0.000 
#    0.000    0.000    0.000    0.000    0.000    0.000 
#
# Total GULP energy -100211.828211 kJ/mol
# GULP energy per Si atom -5567.323790 kJ/mol
# Density = 2.532079 g / cm^3
# Si number density = 25.378548 Si / 1000 Ang^3
#
#
#
# Elastic Constant Matrix: (Units=GPa)
#
#
# Indices 1 2 3 4 5 6 
#
# 1 183.4544 69.2026 18.8100 -2.4413 -0.3948 0.0000
# 2 69.2026 183.4544 18.8100 2.4413 0.3948 0.0000
# 3 18.8100 18.8100 35.6564 0.0000 0.0000 0.0000
# 4 -2.4413 2.4413 0.0000 17.2977 0.0000 0.3948
# 5 -0.3948 0.3948 0.0000 0.0000 17.2977 -2.4413
# 6 0.0000 0.0000 0.0000 0.3948 -2.4413 57.1259
#
#
#
# Elastic Compliance Matrix: (Units=1/GPa)
#
#
# Indices 1 2 3 4 5 6 
#
# 1 0.006551 -0.002256 -0.002266 0.001243 0.000201 0.000000
# 2 -0.002256 0.006551 -0.002266 -0.001243 -0.000201 0.000000
# 3 -0.002266 -0.002266 0.030436 0.000000 0.000000 0.000000
# 4 0.001243 -0.001243 0.000000 0.058171 0.000000 -0.000402
# 5 0.000201 -0.000201 0.000000 0.000000 0.058171 0.002486
# 6 0.000000 0.000000 0.000000 -0.000402 0.002486 0.017614
#
#
# Mechanical properties :
#
#
# Convention : Reuss Voigt Hill
#
# Bulk Modulus (GPa) = 33.37441 68.46782 50.92112
# Shear Modulus (GPa) = 24.86844 38.06047 31.46445
#
# Velocity S-wave (km/s) = 3.13373 3.87681 3.52491
# Velocity P-wave (km/s) = 5.12571 6.86125 6.05597
#
# Compressibility (1/GPa) = 0.02996307
#
# Stress axis : x y z
#
# Youngs Moduli (GPa) = 152.64345 152.64345 32.85567
#
# Poissons Ratio (x) = 0.34435 0.07445
# Poissons Ratio (y) = 0.34435 0.07445
# Poissons Ratio (z) = 0.34588 0.34588
#
# Static dielectric constant tensor:
#      x y z
#    x 2.069000 0.000000 0.000000 
#    y 0.000000 2.069000 0.000000 
#    z 0.000000 0.000000 1.967190 
# 
# From -- ./inp_files/1776.got.cif
#   From: 2010.05.17/outbox.cif.g08.bks.cpg/sg148_1_cif.got.tgz:1776.got - 2010.05.20 13:50:20.
