data_PCOD9575805
_publ_section_title
;
Structure prediction by ZEFSAII (Michael W. Deem and Ramdas Pophale) SiO2 
 PCOD9575805
Probable space group: P 31 2 1
;
_chemical_formula_sum "Si O2"
_cell_formula_units_Z 39
_cell_length_a 9.648586
_cell_length_b 9.648586
_cell_length_c 26.586012
_cell_angle_alpha 90.000000
_cell_angle_beta 90.000000
_cell_angle_gamma 120.000000
_cell_volume 2143.439217
_symmetry_space_group_name_H-M "P 31 2 1"
_symmetry_group_IT_number 152
_symmetry_cell_setting 'hexagonal'
loop_
_space_group_symop_operation_xyz
x,y,z
-y,x-y,1/3+z
-x+y,-x,2/3+z
x-y,-y,2/3-z
-x,-x+y,1/3-z
y,x,-z
loop_
_atom_site_type_symbol
_atom_site_label
_atom_site_fract_x
_atom_site_fract_y
_atom_site_fract_z
Si Si1 0.135571 0.674504 0.380200
Si Si2 0.982183 0.000000 0.833334
Si Si3 0.131972 0.835718 0.901025
Si Si4 0.660412 0.638860 0.658820
Si Si5 0.356144 0.562808 0.409930
Si Si6 0.000000 0.433573 0.166667
Si Si7 0.000000 0.187125 0.666667
Si Si8 0.882191 0.795489 0.264668
O O1 0.085690 0.528372 0.340644
O O2 0.259994 0.656859 0.415752
O O3 0.980322 0.638703 0.412324
O O4 0.198665 0.849755 0.355815
O O5 0.944264 0.103177 0.872834
O O6 0.134305 0.105093 0.797455
O O7 0.219870 0.937702 0.950963
O O8 0.277171 0.874089 0.864052
O O9 0.662080 0.493123 0.631046
O O10 0.773765 0.724288 0.706739
O O11 0.434291 0.538681 0.459548
O O12 0.237241 0.380927 0.392890
O O13 0.078831 0.125044 0.625180
#
# Coordination Sequence:
#
# PCOD9575805 Si02
#       8
#     6   3   6   6   6   3   3   6
#     4  11  20  37  61  90 118 153 202 266 311 345
#     4  11  21  36  60  98 121 167 210 260 309 387
#     4  10  20  38  62  84 124 164 209 251 309 373
#     4  10  19  38  64  87 112 171 212 246 303 386
#     4  10  21  38  59  88 122 159 209 252 312 375
#     4   9  21  40  58  78 119 173 204 242 305 397
#     4  12  20  38  62  92 120 156 206 272 298 356
#     4  11  20  35  63  88 121 164 208 248 311 381
#
# _framework density 18.195056999999998
#
# number of rings (size 3 to 8) (size 9 to 14) (size 15 to 20)
#    0.000    1.538    4.615    1.385    0.000    0.000 
#    5.538    5.385    0.000    0.000    0.000    0.000 
#    0.000    0.000    0.000    0.000    0.000    0.000 
#
# Total GULP energy -217161.962515 kJ/mol
# GULP energy per Si atom -5568.255449 kJ/mol
# Density = 1.815364 g / cm^3
# Si number density = 18.195057 Si / 1000 Ang^3
#
#
#
# Elastic Constant Matrix: (Units=GPa)
#
#
# Indices 1 2 3 4 5 6 
#
# 1 81.1301 38.4060 34.3021 -2.6251 0.0000 0.0000
# 2 38.4060 81.1301 34.3021 2.6251 0.0000 0.0000
# 3 34.3021 34.3021 91.6980 0.0000 0.0000 0.0000
# 4 -2.6251 2.6251 0.0000 26.4078 0.0000 0.0000
# 5 0.0000 0.0000 0.0000 0.0000 26.4078 -2.6251
# 6 0.0000 0.0000 0.0000 0.0000 -2.6251 21.3620
#
#
#
# Elastic Compliance Matrix: (Units=1/GPa)
#
#
# Indices 1 2 3 4 5 6 
#
# 1 0.017174 -0.006521 -0.003985 0.002355 0.000000 0.000000
# 2 -0.006521 0.017174 -0.003985 -0.002355 0.000000 0.000000
# 3 -0.003985 -0.003985 0.013887 0.000000 0.000000 0.000000
# 4 0.002355 -0.002355 0.000000 0.038336 0.000000 0.000000
# 5 0.000000 0.000000 0.000000 0.000000 0.038336 0.004711
# 6 0.000000 0.000000 0.000000 0.000000 0.004711 0.047391
#
#
# Mechanical properties :
#
#
# Convention : Reuss Voigt Hill
#
# Bulk Modulus (GPa) = 51.94159 51.99762 51.96960
# Shear Modulus (GPa) = 24.07348 24.63207 24.35277
#
# Velocity S-wave (km/s) = 3.64136 3.68336 3.66242
# Velocity P-wave (km/s) = 6.80356 6.83590 6.81975
#
# Compressibility (1/GPa) = 0.01925240
#
# Stress axis : x y z
#
# Youngs Moduli (GPa) = 58.22725 58.22725 72.01131
#
# Poissons Ratio (x) = 0.37972 0.28696
# Poissons Ratio (y) = 0.37972 0.28696
# Poissons Ratio (z) = 0.23203 0.23203
#
# Static dielectric constant tensor:
#      x y z
#    x 1.636730 0.000000 0.000000 
#    y 0.000000 1.636730 0.000000 
#    z 0.000000 0.000000 1.683490 
# 
# From -- ./inp_files/3666.got.cif
#   From: 2010.05.17/outbox.cif.g08.bks.cpg/sg152_2_cif.got.tgz:3666.got - 2010.05.20 10:36:06.
