data_PCOD9575885
_publ_section_title
;
Structure prediction by ZEFSAII (Michael W. Deem and Ramdas Pophale) SiO2 
 PCOD9575885
Probable space group: P 31 2 1
;
_chemical_formula_sum "Si O2"
_cell_formula_units_Z 39
_cell_length_a 8.590305
_cell_length_b 8.590305
_cell_length_c 29.816037
_cell_angle_alpha 90.000000
_cell_angle_beta 90.000000
_cell_angle_gamma 120.000000
_cell_volume 1905.450706
_symmetry_space_group_name_H-M "P 31 2 1"
_symmetry_group_IT_number 152
_symmetry_cell_setting 'hexagonal'
loop_
_space_group_symop_operation_xyz
x,y,z
-y,x-y,1/3+z
-x+y,-x,2/3+z
x-y,-y,2/3-z
-x,-x+y,1/3-z
y,x,-z
loop_
_atom_site_type_symbol
_atom_site_label
_atom_site_fract_x
_atom_site_fract_y
_atom_site_fract_z
Si Si1 0.789904 0.541988 0.797716
Si Si2 0.765874 0.571455 0.079395
Si Si3 0.198280 0.305216 0.070250
Si Si4 0.488608 0.488608 0.000000
Si Si5 0.354900 0.374328 0.218180
Si Si6 0.443073 0.023366 0.785314
Si Si7 0.065738 0.916223 0.382742
O O1 0.813610 0.370902 0.784433
O O2 0.867224 0.600942 0.847638
O O3 0.586806 0.494488 0.787385
O O4 0.922075 0.693794 0.763532
O O5 0.912989 0.509260 0.081238
O O6 0.851739 0.785346 0.082647
O O7 0.646344 0.522372 0.034300
O O8 0.156035 0.423997 0.103828
O O9 0.316222 0.432917 0.030548
O O10 0.017248 0.134449 0.053231
O O11 0.169148 0.376666 0.208964
O O12 0.320699 0.270456 0.265974
O O13 0.511029 0.000000 0.833334
O O14 0.132028 0.000000 0.333334
#
# Coordination Sequence:
#
# PCOD9575885 Si02
#       7
#     6   6   6   3   6   6   6
#     4  10  20  40  63  95 119 170 209 264 322 396
#     4  10  22  40  61  89 129 160 215 258 323 387
#     4  10  21  40  65  87 126 163 217 259 323 386
#     4  10  20  42  62  86 122 178 204 262 312 392
#     4  10  21  38  66  89 129 163 213 267 330 389
#     4  10  20  41  63  94 125 169 205 274 326 380
#     4  11  22  42  60  90 124 170 209 274 317 389
#
# _framework density 20.467599
#
# number of rings (size 3 to 8) (size 9 to 14) (size 15 to 20)
#    0.000    1.846    3.077    0.923    0.000    0.000 
#   19.385    0.000    0.000    0.000    0.000    0.000 
#    0.000    0.000    0.000    0.000    0.000    0.000 
#
# Total GULP energy -217214.456631 kJ/mol
# GULP energy per Si atom -5569.601452 kJ/mol
# Density = 2.042101 g / cm^3
# Si number density = 20.467599 Si / 1000 Ang^3
#
#
#
# Elastic Constant Matrix: (Units=GPa)
#
#
# Indices 1 2 3 4 5 6 
#
# 1 58.9486 12.1356 17.1367 5.1213 0.0010 0.0000
# 2 12.1356 58.9486 17.1367 -5.1213 -0.0010 0.0000
# 3 17.1367 17.1367 71.2701 0.0000 0.0000 0.0000
# 4 5.1213 -5.1213 0.0000 1.5495 0.0000 -0.0010
# 5 0.0010 -0.0010 0.0000 0.0000 1.5495 5.1213
# 6 0.0000 0.0000 0.0000 -0.0010 5.1213 23.4065
#
#
#
# Elastic Compliance Matrix: (Units=1/GPa)
#
#
# Indices 1 2 3 4 5 6 
#
# 1 0.046536 -0.030623 -0.003826 -0.255015 -0.000051 0.000000
# 2 -0.030623 0.046536 -0.003826 0.255015 0.000051 0.000000
# 3 -0.003826 -0.003826 0.015871 0.000000 0.000000 0.000000
# 4 -0.255015 0.255015 0.000000 2.331026 0.000000 0.000102
# 5 -0.000051 0.000051 0.000000 0.000000 2.331026 -0.510029
# 6 0.000000 0.000000 0.000000 0.000102 -0.510029 0.154318
#
#
# Mechanical properties :
#
#
# Convention : Reuss Voigt Hill
#
# Bulk Modulus (GPa) = 30.87206 31.33170 31.10188
# Shear Modulus (GPa) = 0.99747 14.81833 7.90790
#
# Velocity S-wave (km/s) = 0.69886 2.69362 1.96774
# Velocity P-wave (km/s) = 3.97081 5.00153 4.51568
#
# Compressibility (1/GPa) = 0.03239175
#
# Stress axis : x y z
#
# Youngs Moduli (GPa) = 21.48885 21.48885 63.00761
#
# Poissons Ratio (x) = 0.65806 0.24108
# Poissons Ratio (y) = 0.65806 0.24108
# Poissons Ratio (z) = 0.08222 0.08222
#
# Static dielectric constant tensor:
#      x y z
#    x 1.752140 0.000000 0.000000 
#    y 0.000000 1.752140 0.000000 
#    z 0.000000 0.000000 1.896690 
# 
# From -- ./inp_files/3643.got.cif
#   From: 2010.05.17/outbox.cif.g08.bks.cpg/sg152_2_cif.got.tgz:3643.got - 2010.05.20 10:36:06.
