data_PCOD9575340
_publ_section_title
;
Structure prediction by ZEFSAII (Michael W. Deem and Ramdas Pophale) SiO2 
 PCOD9575340
Probable space group: R -3
;
_chemical_formula_sum "Si O2"
_cell_formula_units_Z 48
_cell_length_a 30.000000
_cell_length_b 30.000000
_cell_length_c 9.000000
_cell_angle_alpha 90.000000
_cell_angle_beta 90.000000
_cell_angle_gamma 120.000000
_cell_volume 7014.805771
_symmetry_space_group_name_H-M "R -3"
_symmetry_group_IT_number 148
_symmetry_cell_setting 'hexagonal'
loop_
_space_group_symop_operation_xyz
x,y,z
-y,x-y,z
-x+y,-x,z
-x,-y,-z
y,-x+y,-z
x-y,x,-z
2/3+x,1/3+y,1/3+z
2/3-y,1/3+x-y,1/3+z
2/3-x+y,1/3-x,1/3+z
2/3-x,1/3-y,1/3-z
2/3+y,1/3-x+y,1/3-z
2/3+x-y,1/3+x,1/3-z
1/3+x,2/3+y,2/3+z
1/3-y,2/3+x-y,2/3+z
1/3-x+y,2/3-x,2/3+z
1/3-x,2/3-y,2/3-z
1/3+y,2/3-x+y,2/3-z
1/3+x-y,2/3+x,2/3-z
loop_
_atom_site_type_symbol
_atom_site_label
_atom_site_fract_x
_atom_site_fract_y
_atom_site_fract_z
Si Si1 0.146005 0.450908 0.069892
Si Si2 0.436930 0.663056 0.207304
Si Si3 0.834753 0.639987 0.821793
Si Si4 0.469007 0.950230 0.608470
Si Si5 0.301597 0.861843 0.716681
Si Si6 0.028654 0.350711 0.699354
Si Si7 0.385110 0.933651 0.252084
Si Si8 0.818519 0.300314 0.143618
O O1 0.186987 0.509826 0.119268
O O2 0.153477 0.407098 0.156290
O O3 0.088124 0.438889 0.104815
O O4 0.150202 0.447168 0.892447
O O5 0.383756 0.615186 0.137389
O O6 0.445882 0.643224 0.371879
O O7 0.833334 0.666667 0.666667
O O8 0.776357 0.614692 0.884193
O O9 0.875137 0.688089 0.922824
O O10 0.506195 0.929950 0.668889
O O11 0.422310 0.897875 0.536422
O O12 0.500000 0.000000 0.500000
O O13 0.332001 0.923386 0.693069
O O14 0.328847 0.837317 0.618276
O O15 0.051418 0.313363 0.666501
O O16 0.994718 0.338977 0.542956
O O17 0.354819 0.885045 0.360636
#
# Coordination Sequence:
#
# PCOD9575340 Si02
#       8
#    18  18  18  18  18  18  18  18
#     4  11  25  43  69 106 145 189 247 311 370 457
#     4  11  25  49  80 110 148 185 246 319 405 481
#     4  12  27  42  72 101 142 195 250 308 367 447
#     4  12  23  45  70  95 146 195 245 296 367 442
#     4  12  24  43  67 100 142 195 248 305 372 440
#     4  12  25  41  63  94 141 199 258 314 368 432
#     4  11  23  43  61  94 138 180 244 300 357 431
#     4  11  25  44  72 105 141 191 242 309 376 459
#
# _framework density 6.84267
#
# number of rings (size 3 to 8) (size 9 to 14) (size 15 to 20)
#    0.000    0.500    5.000    3.125    7.000    2.000 
#    0.000    0.000    0.000    0.000    0.000    2.625 
#    0.000    0.000    0.000    0.000    0.000    0.000 
#
# Total GULP energy -267378.366781 kJ/mol
# GULP energy per Si atom -5570.382641 kJ/mol
# Density = 0.682710 g / cm^3
# Si number density = 6.842670 Si / 1000 Ang^3
#
#
#
# Elastic Constant Matrix: (Units=GPa)
#
#
# Indices 1 2 3 4 5 6 
#
# 1 114.9007 34.2701 34.9064 -1.2309 -7.6672 -0.0005
# 2 34.2701 114.9449 34.9679 1.2333 7.6388 -0.0003
# 3 34.9064 34.9679 102.4409 0.0198 -0.1434 0.0292
# 4 -1.2309 1.2333 0.0198 38.2415 0.0045 7.6264
# 5 -7.6672 7.6388 -0.1434 0.0045 38.1766 -1.2228
# 6 -0.0005 -0.0003 0.0292 7.6264 -1.2228 40.3337
#
#
#
# Elastic Compliance Matrix: (Units=1/GPa)
#
#
# Indices 1 2 3 4 5 6 
#
# 1 0.010438 -0.002463 -0.002713 0.000416 0.002579 0.000002
# 2 -0.002463 0.010441 -0.002728 -0.000415 -0.002594 0.000002
# 3 -0.002713 -0.002728 0.011617 -0.000004 0.000045 -0.000006
# 4 0.000416 -0.000415 -0.000004 0.027202 -0.000001 -0.005144
# 5 0.002579 -0.002594 0.000045 -0.000001 0.027258 0.000827
# 6 0.000002 0.000002 -0.000006 -0.005144 0.000827 0.025791
#
#
# Mechanical properties :
#
#
# Convention : Reuss Voigt Hill
#
# Bulk Modulus (GPa) = 59.91908 60.06395 59.99152
# Shear Modulus (GPa) = 37.28065 38.55983 37.92024
#
# Velocity S-wave (km/s) = 4.26618 4.33875 4.30262
# Velocity P-wave (km/s) = 7.31569 7.37718 7.34650
#
# Compressibility (1/GPa) = 0.01668917
#
# Stress axis : x y z
#
# Youngs Moduli (GPa) = 95.80061 95.77709 86.07757
#
# Poissons Ratio (x) = 0.23588 0.23350
# Poissons Ratio (y) = 0.23593 0.23485
# Poissons Ratio (z) = 0.25987 0.26131
#
# Static dielectric constant tensor:
#      x y z
#    x 1.767700 0.000000 -0.000020 
#    y 0.000000 1.767720 -0.000020 
#    z -0.000020 -0.000020 1.833300 
# 
# From -- ./inp_files/1119.got.cif
#   From: 2010.05.17/outbox.ucp.g08.bks.cvg/sg148_1_cif.got.tgz:1119.got - 2010.06.11 11:44:40.
