data_PCOD9575375
_publ_section_title
;
Structure prediction by ZEFSAII (Michael W. Deem and Ramdas Pophale) SiO2 
 PCOD9575375
Probable space group: P 3 1 2
;
_chemical_formula_sum "Si O2"
_cell_formula_units_Z 26
_cell_length_a 11.381929
_cell_length_b 11.381929
_cell_length_c 12.415127
_cell_angle_alpha 90.000000
_cell_angle_beta 90.000000
_cell_angle_gamma 120.000000
_cell_volume 1392.879487
_symmetry_space_group_name_H-M "P 3 1 2"
_symmetry_group_IT_number 149
_symmetry_cell_setting 'hexagonal'
loop_
_space_group_symop_operation_xyz
x,y,z
-y,x-y,z
-x+y,-x,z
-y,-x,-z
-x+y,y,-z
x,x-y,-z
loop_
_atom_site_type_symbol
_atom_site_label
_atom_site_fract_x
_atom_site_fract_y
_atom_site_fract_z
Si Si1 0.389316 0.055626 0.262681
Si Si2 0.175953 0.351907 0.871125
Si Si3 0.394013 0.058913 0.500000
Si Si4 0.944374 0.610685 0.262681
Si Si5 0.333335 0.666668 0.129672
O O1 0.344656 0.991803 0.383264
O O2 0.421058 0.210528 0.267107
O O3 0.526049 0.052096 0.233889
O O4 0.267841 0.970981 0.180471
O O5 0.255468 0.510941 0.837597
O O6 0.029017 0.296858 0.819529
O O7 0.170258 0.340515 0.000000
O O8 0.554259 0.108518 0.500000
O O9 0.370018 0.185009 0.500000
O O10 0.344655 0.991803 0.616736
O O11 0.333334 0.666667 0.000000
#
# Coordination Sequence:
#
# PCOD9575375 Si02
#       5
#     6   6   6   6   2
#     4  10  20  36  59  85 113 143 182 227 277 329
#     4  11  22  37  57  79 109 149 190 227 270 327
#     4   8  15  29  52  82 112 142 173 217 274 334
#     4  10  20  36  59  85 113 143 182 227 277 329
#     4   9  18  36  57  73 101 148 189 219 262 329
#
# _framework density 18.666366
#
# number of rings (size 3 to 8) (size 9 to 14) (size 15 to 20)
#    0.000    2.308    2.308    0.692    0.000    5.538 
#    1.385    0.000    0.000    2.769    0.000    0.000 
#    0.000    0.000    0.000    0.000    0.000    0.000 
#
# Total GULP energy -144742.028869 kJ/mol
# GULP energy per Si atom -5567.001110 kJ/mol
# Density = 1.862388 g / cm^3
# Si number density = 18.666366 Si / 1000 Ang^3
#
#
#
# Elastic Constant Matrix: (Units=GPa)
#
#
# Indices 1 2 3 4 5 6 
#
# 1 56.8977 8.7747 31.7407 0.0001 -0.0001 0.0000
# 2 8.7747 56.8977 31.7408 0.0000 0.0001 0.0000
# 3 31.7407 31.7408 118.3206 0.0001 0.0000 -0.0001
# 4 0.0001 0.0000 0.0001 26.3796 0.0000 0.0001
# 5 -0.0001 0.0001 0.0000 0.0000 26.3796 0.0000
# 6 0.0000 0.0000 -0.0001 0.0001 0.0000 24.0616
#
#
#
# Elastic Compliance Matrix: (Units=1/GPa)
#
#
# Indices 1 2 3 4 5 6 
#
# 1 0.020669 -0.000111 -0.005515 0.000000 0.000000 0.000000
# 2 -0.000111 0.020669 -0.005515 0.000000 0.000000 0.000000
# 3 -0.005515 -0.005515 0.011410 0.000000 0.000000 0.000000
# 4 0.000000 0.000000 0.000000 0.037908 0.000000 0.000000
# 5 0.000000 0.000000 0.000000 0.000000 0.037908 0.000000
# 6 0.000000 0.000000 0.000000 0.000000 0.000000 0.041560
#
#
# Mechanical properties :
#
#
# Convention : Reuss Voigt Hill
#
# Bulk Modulus (GPa) = 32.82250 41.84760 37.33505
# Shear Modulus (GPa) = 24.68380 26.02149 25.35264
#
# Velocity S-wave (km/s) = 3.64038 3.73772 3.68937
# Velocity P-wave (km/s) = 5.94069 6.41052 6.18007
#
# Compressibility (1/GPa) = 0.03046691
#
# Stress axis : x y z
#
# Youngs Moduli (GPa) = 48.38157 48.38146 87.63870
#
# Poissons Ratio (x) = 0.00537 0.48332
# Poissons Ratio (y) = 0.00537 0.48332
# Poissons Ratio (z) = 0.26682 0.26682
#
# Static dielectric constant tensor:
#      x y z
#    x 1.645500 0.000000 0.000000 
#    y 0.000000 1.645500 0.000000 
#    z 0.000000 0.000000 1.690170 
# 
# From -- ./inp_files/851.got.cif
#   From: 2010.05.17/outbox.cif.g08.bks.cpg/sg149_cif.got.tgz:851.got - 2010.05.20 13:52:34.
