data_PCOD9575474
_publ_section_title
;
Structure prediction by ZEFSAII (Michael W. Deem and Ramdas Pophale) SiO2 
 PCOD9575474
Probable space group: P 3 2 1
;
_chemical_formula_sum "Si O2"
_cell_formula_units_Z 24
_cell_length_a 14.110147
_cell_length_b 14.110147
_cell_length_c 6.387704
_cell_angle_alpha 90.000000
_cell_angle_beta 90.000000
_cell_angle_gamma 120.000000
_cell_volume 1101.383311
_symmetry_space_group_name_H-M "P 3 2 1"
_symmetry_group_IT_number 150
_symmetry_cell_setting 'hexagonal'
loop_
_space_group_symop_operation_xyz
x,y,z
-y,x-y,z
-x+y,-x,z
x-y,-y,-z
-x,-x+y,-z
y,x,-z
loop_
_atom_site_type_symbol
_atom_site_label
_atom_site_fract_x
_atom_site_fract_y
_atom_site_fract_z
Si Si1 0.696909 0.113374 0.361863
Si Si2 0.748088 0.203751 0.771806
Si Si3 0.251150 0.128157 0.017900
Si Si4 0.423559 0.882430 0.984911
O O1 0.746537 0.214999 0.524756
O O2 0.794953 0.124884 0.209174
O O3 0.645228 0.000000 0.500000
O O4 0.604695 0.123822 0.228229
O O5 0.625746 0.120299 0.843918
O O6 0.790485 0.306761 0.928517
O O7 0.821251 0.150125 0.818404
O O8 0.153265 0.153265 0.000000
O O9 0.204920 0.000000 0.000000
O O10 0.432446 0.000000 0.000000
#
# Coordination Sequence:
#
# PCOD9575474 Si02
#       4
#     6   6   6   6
#     4  11  21  45  71  95 134 185 229 279 346 411
#     4  11  23  42  68 101 139 179 227 284 346 414
#     4  11  23  42  67 100 143 185 230 286 337 403
#     4  11  23  42  68 101 141 176 225 287 344 408
#
# _framework density 21.790776999999999
#
# number of rings (size 3 to 8) (size 9 to 14) (size 15 to 20)
#    0.000    1.000    5.000    3.000    0.000    5.000 
#    0.000    0.000    0.000    3.000    0.000    0.000 
#    0.000    0.000    0.000    0.000    0.000    0.000 
#
# Total GULP energy -133697.820555 kJ/mol
# GULP energy per Si atom -5570.742523 kJ/mol
# Density = 2.174118 g / cm^3
# Si number density = 21.790777 Si / 1000 Ang^3
#
#
#
# Elastic Constant Matrix: (Units=GPa)
#
#
# Indices 1 2 3 4 5 6 
#
# 1 95.3241 36.0310 44.1887 -16.9387 0.0000 0.0000
# 2 36.0310 95.3241 44.1887 16.9387 0.0000 0.0000
# 3 44.1887 44.1887 137.7401 0.0000 0.0000 0.0000
# 4 -16.9387 16.9387 0.0000 17.3199 0.0000 0.0000
# 5 0.0000 0.0000 0.0000 0.0000 17.3199 -16.9387
# 6 0.0000 0.0000 0.0000 0.0000 -16.9387 29.6465
#
#
#
# Elastic Compliance Matrix: (Units=1/GPa)
#
#
# Indices 1 2 3 4 5 6 
#
# 1 0.023967 -0.014258 -0.003115 0.037383 0.000000 0.000000
# 2 -0.014258 0.023967 -0.003115 -0.037383 0.000000 0.000000
# 3 -0.003115 -0.003115 0.009258 0.000000 0.000000 0.000000
# 4 0.037383 -0.037383 0.000000 0.130858 0.000000 0.000000
# 5 0.000000 0.000000 0.000000 0.000000 0.130858 0.074767
# 6 0.000000 0.000000 0.000000 0.000000 0.074767 0.076449
#
#
# Mechanical properties :
#
#
# Convention : Reuss Voigt Hill
#
# Bulk Modulus (GPa) = 61.66355 64.13389 62.89872
# Shear Modulus (GPa) = 11.31895 26.45594 18.88744
#
# Velocity S-wave (km/s) = 2.28159 3.48816 2.94728
# Velocity P-wave (km/s) = 5.94141 6.76155 6.36470
#
# Compressibility (1/GPa) = 0.01621703
#
# Stress axis : x y z
#
# Youngs Moduli (GPa) = 41.72487 41.72487 108.00943
#
# Poissons Ratio (x) = 0.59491 0.33641
# Poissons Ratio (y) = 0.59491 0.33641
# Poissons Ratio (z) = 0.12996 0.12996
#
# Static dielectric constant tensor:
#      x y z
#    x 1.924110 0.000000 0.000000 
#    y 0.000000 1.924110 0.000000 
#    z 0.000000 0.000000 1.836380 
# 
# From -- ./inp_files/117.got.cif
#   From: 2010.05.17/outbox.cif.g08.bks.cpg/sg150_cif.got.tgz:117.got - 2010.05.20 13:53:18.
