data_PCOD9575936
_publ_section_title
;
Structure prediction by ZEFSAII (Michael W. Deem and Ramdas Pophale) SiO2 
 PCOD9575936
Probable space group: P 31 2 1
;
_chemical_formula_sum "Si O2"
_cell_formula_units_Z 36
_cell_length_a 13.375287
_cell_length_b 13.375287
_cell_length_c 13.927543
_cell_angle_alpha 90.000000
_cell_angle_beta 90.000000
_cell_angle_gamma 120.000000
_cell_volume 2157.800846
_symmetry_space_group_name_H-M "P 31 2 1"
_symmetry_group_IT_number 152
_symmetry_cell_setting 'hexagonal'
loop_
_space_group_symop_operation_xyz
x,y,z
-y,x-y,1/3+z
-x+y,-x,2/3+z
x-y,-y,2/3-z
-x,-x+y,1/3-z
y,x,-z
loop_
_atom_site_type_symbol
_atom_site_label
_atom_site_fract_x
_atom_site_fract_y
_atom_site_fract_z
Si Si1 0.936836 0.882439 0.394955
Si Si2 0.267521 0.529549 0.450488
Si Si3 0.683414 0.192703 0.663614
Si Si4 0.695910 0.723445 0.727507
Si Si5 0.461374 0.961779 0.725073
Si Si6 0.279757 0.100753 0.255109
O O1 0.901957 0.901957 0.500000
O O2 0.828248 0.780384 0.341089
O O3 0.044056 0.860212 0.405334
O O4 0.984537 0.000000 0.333334
O O5 0.285866 0.538297 0.565020
O O6 0.247762 0.628261 0.405459
O O7 0.152613 0.408003 0.427340
O O8 0.380905 0.538066 0.401865
O O9 0.793743 0.197058 0.616183
O O10 0.583708 0.060832 0.683670
O O11 0.637400 0.600962 0.672252
O O12 0.768131 0.721797 0.818850
O O13 0.452430 0.000000 0.833334
O O14 0.242834 0.000000 0.333334
#
# Coordination Sequence:
#
# PCOD9575936 Si02
#       6
#     6   6   6   6   6   6
#     4  11  22  38  59  91 122 153 189 233 296 357
#     4  10  21  38  60  85 110 161 198 246 287 349
#     4  10  21  37  58  86 117 145 203 244 295 348
#     4  11  21  37  61  86 122 153 195 240 296 349
#     4   9  20  38  59  83 112 154 200 238 286 348
#     4  11  22  36  59  87 117 154 191 245 292 349
#
# _framework density 16.683653
#
# number of rings (size 3 to 8) (size 9 to 14) (size 15 to 20)
#    0.000    1.667    3.333    1.500    2.333    0.000 
#    0.000    0.000    0.000    5.000    0.000    0.000 
#    0.000    0.000    0.000    0.000    0.000    0.000 
#
# Total GULP energy -200980.690506 kJ/mol
# GULP energy per Si atom -5582.796958 kJ/mol
# Density = 1.664568 g / cm^3
# Si number density = 16.683653 Si / 1000 Ang^3
#
#
#
# Elastic Constant Matrix: (Units=GPa)
#
#
# Indices 1 2 3 4 5 6 
#
# 1 127.6936 85.4070 86.7583 -0.3654 0.0000 0.0000
# 2 85.4070 127.6936 86.7583 0.3654 0.0000 0.0000
# 3 86.7583 86.7583 137.9515 0.0000 0.0000 0.0000
# 4 -0.3654 0.3654 0.0000 26.4770 0.0000 0.0000
# 5 0.0000 0.0000 0.0000 0.0000 26.4770 -0.3654
# 6 0.0000 0.0000 0.0000 0.0000 -0.3654 21.1433
#
#
#
# Elastic Compliance Matrix: (Units=1/GPa)
#
#
# Indices 1 2 3 4 5 6 
#
# 1 0.016636 -0.007018 -0.006049 0.000326 0.000000 0.000000
# 2 -0.007018 0.016636 -0.006049 -0.000326 0.000000 0.000000
# 3 -0.006049 -0.006049 0.014857 0.000000 0.000000 0.000000
# 4 0.000326 -0.000326 0.000000 0.037778 0.000000 0.000000
# 5 0.000000 0.000000 0.000000 0.000000 0.037778 0.000653
# 6 0.000000 0.000000 0.000000 0.000000 0.000653 0.047308
#
#
# Mechanical properties :
#
#
# Convention : Reuss Voigt Hill
#
# Bulk Modulus (GPa) = 101.03192 101.24287 101.13740
# Shear Modulus (GPa) = 23.52708 23.78046 23.65377
#
# Velocity S-wave (km/s) = 3.75932 3.77951 3.76943
# Velocity P-wave (km/s) = 8.91808 8.93655 8.92732
#
# Compressibility (1/GPa) = 0.00989786
#
# Stress axis : x y z
#
# Youngs Moduli (GPa) = 60.11158 60.11158 67.30891
#
# Poissons Ratio (x) = 0.42187 0.40712
# Poissons Ratio (y) = 0.42187 0.40712
# Poissons Ratio (z) = 0.36359 0.36359
#
# Static dielectric constant tensor:
#      x y z
#    x 1.538220 0.000000 0.000000 
#    y 0.000000 1.538220 0.000000 
#    z 0.000000 0.000000 1.541480 
# 
# From -- ./inp_files/2019.got.cif
#   From: 2010.05.17/outbox.cif.g08.bks.cpg/sg152_2_cif.got.tgz:2019.got - 2010.05.20 10:36:06.
