data_PCOD9575412
_publ_section_title
;
Structure prediction by ZEFSAII (Michael W. Deem and Ramdas Pophale) SiO2 
 PCOD9575412
Probable space group: P 3 2 1
;
_chemical_formula_sum "Si O2"
_cell_formula_units_Z 26
_cell_length_a 12.543930
_cell_length_b 12.543930
_cell_length_c 11.087719
_cell_angle_alpha 90.000000
_cell_angle_beta 90.000000
_cell_angle_gamma 120.000000
_cell_volume 1510.915186
_symmetry_space_group_name_H-M "P 3 2 1"
_symmetry_group_IT_number 150
_symmetry_cell_setting 'hexagonal'
loop_
_space_group_symop_operation_xyz
x,y,z
-y,x-y,z
-x+y,-x,z
x-y,-y,-z
-x,-x+y,-z
y,x,-z
loop_
_atom_site_type_symbol
_atom_site_label
_atom_site_fract_x
_atom_site_fract_y
_atom_site_fract_z
Si Si1 0.260946 0.998616 0.869762
Si Si2 0.585401 0.920462 0.618918
Si Si3 0.078013 0.409955 0.621181
Si Si4 0.000000 0.000000 0.359995
Si Si5 0.792442 0.001308 0.795733
O O1 0.319095 0.981823 0.746214
O O2 0.120364 0.883451 0.870328
O O3 0.254217 0.123093 0.858326
O O4 0.318758 0.000000 0.000000
O O5 0.577521 0.788948 0.610078
O O6 0.452809 0.909029 0.628578
O O7 0.648956 0.000000 0.500000
O O8 0.670156 0.985803 0.735133
O O9 0.000000 0.344722 0.500000
O O10 0.120059 0.119008 0.310193
O O11 0.000000 0.000000 0.500000
#
# Coordination Sequence:
#
# PCOD9575412 Si02
#       5
#     6   6   6   2   6
#     4  10  19  33  51  76 104 130 161 203 248 296
#     4  10  19  33  52  74 100 131 166 206 248 292
#     4  10  21  35  53  75 100 131 168 207 246 291
#     4   9  15  24  43  77 109 126 151 200 247 291
#     4   9  18  29  49  74 100 132 163 196 247 298
#
# _framework density 17.208112
#
# number of rings (size 3 to 8) (size 9 to 14) (size 15 to 20)
#    0.000    2.308    0.000    3.692    0.000    6.462 
#    0.000    4.615    0.000    1.385    0.000    0.000 
#    0.000    0.000    0.000    0.000    0.000    0.000 
#
# Total GULP energy -144954.296446 kJ/mol
# GULP energy per Si atom -5575.165248 kJ/mol
# Density = 1.716895 g / cm^3
# Si number density = 17.208112 Si / 1000 Ang^3
#
#
#
# Elastic Constant Matrix: (Units=GPa)
#
#
# Indices 1 2 3 4 5 6 
#
# 1 71.4499 33.1457 48.7978 -0.9813 0.0000 0.0000
# 2 33.1457 71.4499 48.7978 0.9813 0.0000 0.0000
# 3 48.7978 48.7978 151.0682 0.0000 0.0000 0.0000
# 4 -0.9813 0.9813 0.0000 -15.0623 0.0000 0.0000
# 5 0.0000 0.0000 0.0000 0.0000 -15.0623 -0.9813
# 6 0.0000 0.0000 0.0000 0.0000 -0.9813 19.1521
#
#
#
# Elastic Compliance Matrix: (Units=1/GPa)
#
#
# Indices 1 2 3 4 5 6 
#
# 1 0.019853 -0.006167 -0.004421 -0.001695 0.000000 0.000000
# 2 -0.006167 0.019853 -0.004421 0.001695 0.000000 0.000000
# 3 -0.004421 -0.004421 0.009475 0.000000 0.000000 0.000000
# 4 -0.001695 0.001695 0.000000 -0.066170 0.000000 0.000000
# 5 0.000000 0.000000 0.000000 0.000000 -0.066170 -0.003390
# 6 0.000000 0.000000 0.000000 0.000000 -0.003390 0.052040
#
#
# Mechanical properties :
#
#
# Convention : Reuss Voigt Hill
#
# Bulk Modulus (GPa) = 52.18200 61.71674 56.94937
# Shear Modulus (GPa) = 946.01168 8.68729 477.34948
#
# Velocity S-wave (km/s) = 23.47213 2.24929 16.67334
# Velocity P-wave (km/s) = 27.65823 6.53365 20.09560
#
# Compressibility (1/GPa) = 0.01916370
#
# Stress axis : x y z
#
# Youngs Moduli (GPa) = 50.37101 50.37101 105.53614
#
# Poissons Ratio (x) = 0.31065 0.46654
# Poissons Ratio (y) = 0.31065 0.46654
# Poissons Ratio (z) = 0.22267 0.22267
#
# Static dielectric constant tensor:
#      x y z
#    x 1.581870 0.000000 0.000000 
#    y 0.000000 1.581870 0.000000 
#    z 0.000000 0.000000 1.611240 
# 
# From -- ./inp_files/897.got.cif
#   From: 2010.05.17/outbox.cif.g08.bks.cpg/sg150_cif.got.tgz:897.got - 2010.05.20 13:53:18.
