data_PCOD9575922
_publ_section_title
;
Structure prediction by ZEFSAII (Michael W. Deem and Ramdas Pophale) SiO2 
 PCOD9575922
Probable space group: P 31 2 1
;
_chemical_formula_sum "Si O2"
_cell_formula_units_Z 42
_cell_length_a 14.477393
_cell_length_b 14.477393
_cell_length_c 12.452728
_cell_angle_alpha 90.000000
_cell_angle_beta 90.000000
_cell_angle_gamma 120.000000
_cell_volume 2260.350882
_symmetry_space_group_name_H-M "P 31 2 1"
_symmetry_group_IT_number 152
_symmetry_cell_setting 'hexagonal'
loop_
_space_group_symop_operation_xyz
x,y,z
-y,x-y,1/3+z
-x+y,-x,2/3+z
x-y,-y,2/3-z
-x,-x+y,1/3-z
y,x,-z
loop_
_atom_site_type_symbol
_atom_site_label
_atom_site_fract_x
_atom_site_fract_y
_atom_site_fract_z
Si Si1 0.303711 0.751605 0.242986
Si Si2 0.920700 0.483961 0.348765
Si Si3 0.490579 0.887840 0.397654
Si Si4 0.366141 0.246059 0.539423
Si Si5 0.926045 0.243113 0.015301
Si Si6 0.144772 0.395152 0.074673
Si Si7 0.844704 0.403988 0.972082
O O1 0.376352 0.816228 0.342364
O O2 0.209368 0.777494 0.217234
O O3 0.241752 0.626118 0.270886
O O4 0.383247 0.786364 0.141927
O O5 0.899498 0.473420 0.476011
O O6 0.864972 0.540901 0.289110
O O7 0.884327 0.372056 0.287427
O O8 0.048503 0.563972 0.339751
O O9 0.559192 0.827851 0.386362
O O10 0.549177 0.000000 0.333334
O O11 0.307494 0.307494 0.500000
O O12 0.285318 0.142770 0.607654
O O13 0.883500 0.233918 0.136908
O O14 0.052709 0.294174 0.010053
O O15 0.895378 0.328292 0.969662
#
# Coordination Sequence:
#
# PCOD9575922 Si02
#       7
#     6   6   6   6   6   6   6
#     4  11  24  33  55  84 120 158 204 248 297 366
#     4  11  22  38  57  83 122 168 205 246 296 377
#     4  12  26  40  55  88 124 164 205 254 315 375
#     4  11  21  37  62  88 120 160 208 262 306 368
#     4   9  20  37  57  87 113 150 210 257 302 357
#     4  10  22  37  59  81 118 164 204 250 304 373
#     4  10  21  36  50  81 119 159 202 243 294 357
#
# _framework density 18.581185000000001
#
# number of rings (size 3 to 8) (size 9 to 14) (size 15 to 20)
#    0.000    1.429    4.286    0.857   10.000    0.000 
#    0.000    0.000    0.000    0.000    3.714    0.000 
#    0.000    0.000    0.000    0.000    0.000    0.000 
#
# Total GULP energy -234083.913700 kJ/mol
# GULP energy per Si atom -5573.426517 kJ/mol
# Density = 1.853889 g / cm^3
# Si number density = 18.581185 Si / 1000 Ang^3
#
#
#
# Elastic Constant Matrix: (Units=GPa)
#
#
# Indices 1 2 3 4 5 6 
#
# 1 76.2834 27.0752 26.3485 4.4725 -0.0001 0.0000
# 2 27.0752 76.2834 26.3485 -4.4725 0.0001 0.0000
# 3 26.3485 26.3485 67.9491 0.0000 0.0000 0.0000
# 4 4.4725 -4.4725 0.0000 22.1418 0.0000 0.0001
# 5 -0.0001 0.0001 0.0000 0.0000 22.1418 4.4725
# 6 0.0000 0.0000 0.0000 0.0001 4.4725 24.6041
#
#
#
# Elastic Compliance Matrix: (Units=1/GPa)
#
#
# Indices 1 2 3 4 5 6 
#
# 1 0.016578 -0.004519 -0.004676 -0.004261 0.000000 0.000000
# 2 -0.004519 0.016578 -0.004676 0.004261 0.000000 0.000000
# 3 -0.004676 -0.004676 0.018343 0.000000 0.000000 0.000000
# 4 -0.004261 0.004261 0.000000 0.046885 0.000000 0.000000
# 5 0.000000 0.000000 0.000000 0.000000 0.046885 -0.008523
# 6 0.000000 0.000000 0.000000 0.000000 -0.008523 0.042193
#
#
# Mechanical properties :
#
#
# Convention : Reuss Voigt Hill
#
# Bulk Modulus (GPa) = 42.09264 42.22893 42.16078
# Shear Modulus (GPa) = 22.40917 23.16045 22.78481
#
# Velocity S-wave (km/s) = 3.47654 3.53433 3.50556
# Velocity P-wave (km/s) = 6.23038 6.27944 6.25496
#
# Compressibility (1/GPa) = 0.02375712
#
# Stress axis : x y z
#
# Youngs Moduli (GPa) = 60.32156 60.32156 54.51537
#
# Poissons Ratio (x) = 0.27257 0.25492
# Poissons Ratio (y) = 0.27257 0.25492
# Poissons Ratio (z) = 0.28207 0.28207
#
# Static dielectric constant tensor:
#      x y z
#    x 1.679980 0.000000 0.000000 
#    y 0.000000 1.679980 0.000000 
#    z 0.000000 0.000000 1.695110 
# 
# From -- ./inp_files/1795.got.cif
#   From: 2010.05.17/outbox.cif.g08.bks.cpg/sg152_1_cif.got.tgz:1795.got - 2010.05.20 10:36:06.
