data_PCOD9575193
_publ_section_title
;
Structure prediction by ZEFSAII (Michael W. Deem and Ramdas Pophale) SiO2 
 PCOD9575193
Probable space group: R -3
;
_chemical_formula_sum "Si O2"
_cell_formula_units_Z 102
_cell_length_a 20.468698
_cell_length_b 20.468698
_cell_length_c 13.639171
_cell_angle_alpha 90.000000
_cell_angle_beta 90.000000
_cell_angle_gamma 120.000000
_cell_volume 4948.790202
_symmetry_space_group_name_H-M "R -3"
_symmetry_group_IT_number 148
_symmetry_cell_setting 'hexagonal'
loop_
_space_group_symop_operation_xyz
x,y,z
-y,x-y,z
-x+y,-x,z
-x,-y,-z
y,-x+y,-z
x-y,x,-z
2/3+x,1/3+y,1/3+z
2/3-y,1/3+x-y,1/3+z
2/3-x+y,1/3-x,1/3+z
2/3-x,1/3-y,1/3-z
2/3+y,1/3-x+y,1/3-z
2/3+x-y,1/3+x,1/3-z
1/3+x,2/3+y,2/3+z
1/3-y,2/3+x-y,2/3+z
1/3-x+y,2/3-x,2/3+z
1/3-x,2/3-y,2/3-z
1/3+y,2/3-x+y,2/3-z
1/3+x-y,2/3+x,2/3-z
loop_
_atom_site_type_symbol
_atom_site_label
_atom_site_fract_x
_atom_site_fract_y
_atom_site_fract_z
Si Si1 0.333334 0.666667 0.551164
Si Si2 0.666668 0.333334 0.946931
Si Si3 0.274284 0.950671 0.813442
Si Si4 0.830176 0.693502 0.303193
Si Si5 0.530925 0.263100 0.076619
Si Si6 0.842039 0.573558 0.619801
Si Si7 0.112154 0.777540 0.478561
O O1 0.333335 0.666668 0.666667
O O2 0.249011 0.633403 0.506079
O O3 0.666668 0.333335 0.833334
O O4 0.585882 0.314267 0.990102
O O5 0.221253 0.887069 0.734306
O O6 0.228663 0.916415 0.914826
O O7 0.357497 0.966193 0.828600
O O8 0.279966 0.027236 0.775687
O O9 0.865220 0.779741 0.263999
O O10 0.822529 0.690772 0.419440
O O11 0.521146 0.180677 0.061168
O O12 0.788236 0.601374 0.574780
O O13 0.860531 0.600902 0.732110
#
# Coordination Sequence:
#
# PCOD9575193 Si02
#       7
#     6   6  18  18  18  18  18
#     4  10  23  49  67  95 130 175 218 277 313 395
#     4  10  23  37  67  98 127 172 206 268 322 389
#     4  10  23  45  63  98 136 167 224 269 329 405
#     4  10  23  43  70  94 134 178 212 278 329 393
#     4   9  22  44  63  97 134 158 226 263 322 398
#     4  10  24  43  63 101 130 167 222 270 327 398
#     4  11  24  39  71  93 129 178 215 271 332 388
#
# _framework density 20.611097999999998
#
# number of rings (size 3 to 8) (size 9 to 14) (size 15 to 20)
#    0.000    2.118    0.000    1.059   14.824    0.000 
#    9.529    0.000    0.000    0.000    0.000    0.000 
#    0.000    0.000    0.000    0.000    0.000    0.000 
#
# Total GULP energy -189880.036877 kJ/mol
# GULP energy per Si atom -5584.706967 kJ/mol
# Density = 2.056419 g / cm^3
# Si number density = 20.611098 Si / 1000 Ang^3
#
#
#
# Elastic Constant Matrix: (Units=GPa)
#
#
# Indices 1 2 3 4 5 6 
#
# 1 62.4135 8.1996 33.2508 -0.4546 0.8504 0.0004
# 2 8.1996 62.4160 33.2515 0.4549 -0.8503 0.0005
# 3 33.2508 33.2515 165.4005 0.0004 0.0000 0.0002
# 4 -0.4546 0.4549 0.0004 5.4037 0.0001 -0.8502
# 5 0.8504 -0.8503 0.0000 0.0001 5.4041 -0.4547
# 6 0.0004 0.0005 0.0002 -0.8502 -0.4547 27.1073
#
#
#
# Elastic Compliance Matrix: (Units=1/GPa)
#
#
# Indices 1 2 3 4 5 6 
#
# 1 0.018016 -0.000547 -0.003512 0.001562 -0.002921 0.000000
# 2 -0.000547 0.018015 -0.003512 -0.001562 0.002921 0.000000
# 3 -0.003512 -0.003512 0.007458 0.000000 0.000000 0.000000
# 4 0.001562 -0.001562 0.000000 0.186241 -0.000003 0.005841
# 5 -0.002921 0.002921 0.000000 -0.000003 0.186226 0.003124
# 6 0.000000 0.000000 0.000000 0.005841 0.003124 0.037126
#
#
# Mechanical properties :
#
#
# Convention : Reuss Voigt Hill
#
# Bulk Modulus (GPa) = 35.27567 48.84821 42.06194
# Shear Modulus (GPa) = 10.46740 21.95157 16.20949
#
# Velocity S-wave (km/s) = 2.25600 3.26703 2.80740
# Velocity P-wave (km/s) = 4.89266 6.16301 5.56421
#
# Compressibility (1/GPa) = 0.02834815
#
# Stress axis : x y z
#
# Youngs Moduli (GPa) = 55.50576 55.50798 134.08565
#
# Poissons Ratio (x) = 0.03037 0.47089
# Poissons Ratio (y) = 0.03036 0.47088
# Poissons Ratio (z) = 0.19493 0.19493
#
# Static dielectric constant tensor:
#      x y z
#    x 1.770490 0.000000 0.000000 
#    y 0.000000 1.770470 0.000000 
#    z 0.000000 0.000000 1.716400 
# 
# From -- ./inp_files/2080.got.cif
#   From: 2010.05.17/outbox.cif.g08.bks.cpg/sg148_2_cif.got.tgz:2080.got - 2010.05.20 13:50:20.
