data_PCOD9575005
_publ_section_title
;
Structure prediction by ZEFSAII (Michael W. Deem and Ramdas Pophale) SiO2 
 PCOD9575005
Probable space group: R -3
;
_chemical_formula_sum "Si O2"
_cell_formula_units_Z 108
_cell_length_a 22.273920
_cell_length_b 22.273920
_cell_length_c 10.903271
_cell_angle_alpha 90.000000
_cell_angle_beta 90.000000
_cell_angle_gamma 120.000000
_cell_volume 4684.688831
_symmetry_space_group_name_H-M "R -3"
_symmetry_group_IT_number 148
_symmetry_cell_setting 'hexagonal'
loop_
_space_group_symop_operation_xyz
x,y,z
-y,x-y,z
-x+y,-x,z
-x,-y,-z
y,-x+y,-z
x-y,x,-z
2/3+x,1/3+y,1/3+z
2/3-y,1/3+x-y,1/3+z
2/3-x+y,1/3-x,1/3+z
2/3-x,1/3-y,1/3-z
2/3+y,1/3-x+y,1/3-z
2/3+x-y,1/3+x,1/3-z
1/3+x,2/3+y,2/3+z
1/3-y,2/3+x-y,2/3+z
1/3-x+y,2/3-x,2/3+z
1/3-x,2/3-y,2/3-z
1/3+y,2/3-x+y,2/3-z
1/3+x-y,2/3+x,2/3-z
loop_
_atom_site_type_symbol
_atom_site_label
_atom_site_fract_x
_atom_site_fract_y
_atom_site_fract_z
Si Si1 0.747205 0.913065 0.922199
Si Si2 0.817392 0.859409 0.730813
Si Si3 0.300007 0.760940 0.592695
Si Si4 0.821771 0.628597 0.928240
Si Si5 0.718786 0.695439 0.266773
Si Si6 0.097775 0.369588 0.437175
O O1 0.781437 0.875623 0.847044
O O2 0.742291 0.968787 0.837768
O O3 0.791795 0.939256 0.046435
O O4 0.669459 0.860103 0.960318
O O5 0.894155 0.893311 0.791294
O O6 0.785052 0.880445 0.616922
O O7 0.798521 0.780180 0.714829
O O8 0.351575 0.777358 0.708027
O O9 0.898113 0.642934 0.961827
O O10 0.807933 0.666707 0.816532
O O11 0.680526 0.730254 0.330484
O O12 0.658915 0.623759 0.206762
#
# Coordination Sequence:
#
# PCOD9575005 Si02
#       6
#    18  18  18  18  18  18
#     4  10  18  32  55  76 104 137 179 213 256 315
#     4  10  18  31  51  78  99 142 177 209 255 315
#     4  10  21  34  55  82 110 138 174 221 266 311
#     4  11  20  35  53  75 108 139 179 216 257 317
#     4  11  22  34  53  78 106 140 178 216 260 308
#     4  12  20  33  55  78 106 138 177 217 258 310
#
# _framework density 23.053825
#
# number of rings (size 3 to 8) (size 9 to 14) (size 15 to 20)
#    0.000    1.333    6.667    1.167    0.000    0.000 
#    0.000    2.500    0.000    0.000    0.000    0.000 
#    0.000    0.000    0.000   24.500    0.000    0.000 
#
# Total GULP energy -200523.643083 kJ/mol
# GULP energy per Si atom -5570.101197 kJ/mol
# Density = 2.300135 g / cm^3
# Si number density = 23.053825 Si / 1000 Ang^3
#
#
#
# Elastic Constant Matrix: (Units=GPa)
#
#
# Indices 1 2 3 4 5 6 
#
# 1 24.8224 16.1881 3.0870 -12.0524 0.8142 0.0000
# 2 16.1881 24.8224 3.0870 12.0524 -0.8142 0.0000
# 3 3.0870 3.0870 25.4013 0.0000 0.0001 0.0000
# 4 -12.0524 12.0524 0.0000 27.2760 0.0000 -0.8142
# 5 0.8142 -0.8142 0.0001 0.0000 27.2761 -12.0524
# 6 0.0000 0.0000 0.0000 -0.8142 -12.0524 4.3171
#
#
#
# Elastic Compliance Matrix: (Units=1/GPa)
#
#
# Indices 1 2 3 4 5 6 
#
# 1 -0.229646 0.254484 -0.003019 -0.213922 0.014452 0.000002
# 2 0.254484 -0.229646 -0.003019 0.213922 -0.014452 -0.000001
# 3 -0.003019 -0.003019 0.040102 0.000000 0.000001 0.000002
# 4 -0.213922 0.213922 0.000000 -0.153252 0.000000 -0.028901
# 5 0.014452 -0.014452 0.000001 0.000000 -0.153257 -0.427856
# 6 0.000002 -0.000001 0.000002 -0.028901 -0.427856 -0.968289
#
#
# Mechanical properties :
#
#
# Convention : Reuss Voigt Hill
#
# Bulk Modulus (GPa) = 12.86930 13.30780 13.08855
# Shear Modulus (GPa) = -2.30949 15.28612 6.48831
#
# Velocity S-wave (km/s) = -1.00198 2.57779 1.67944
# Velocity P-wave (km/s) = 2.06296 3.82688 3.07415
#
# Compressibility (1/GPa) = 0.07770429
#
# Stress axis : x y z
#
# Youngs Moduli (GPa) = -4.35453 -4.35453 24.93658
#
# Poissons Ratio (x) = 1.10816 0.07527
# Poissons Ratio (y) = 1.10816 0.07527
# Poissons Ratio (z) = -0.01314 -0.01314
#
# Static dielectric constant tensor:
#      x y z
#    x 1.912120 0.000000 0.000000 
#    y 0.000000 1.912120 0.000000 
#    z 0.000000 0.000000 1.943190 
# 
# From -- ./inp_files/1539.got.cif
#   From: 2010.05.17/outbox.cif.g08.bks.cpg/sg148_1_cif.got.tgz:1539.got - 2010.05.20 13:50:20.
