data_PCOD9575244
_publ_section_title
;
Structure prediction by ZEFSAII (Michael W. Deem and Ramdas Pophale) SiO2 
 PCOD9575244
Probable space group: R -3
;
_chemical_formula_sum "Si O2"
_cell_formula_units_Z 126
_cell_length_a 26.963334
_cell_length_b 26.963334
_cell_length_c 10.657654
_cell_angle_alpha 90.000000
_cell_angle_beta 90.000000
_cell_angle_gamma 120.000000
_cell_volume 6710.261289
_symmetry_space_group_name_H-M "R -3"
_symmetry_group_IT_number 148
_symmetry_cell_setting 'hexagonal'
loop_
_space_group_symop_operation_xyz
x,y,z
-y,x-y,z
-x+y,-x,z
-x,-y,-z
y,-x+y,-z
x-y,x,-z
2/3+x,1/3+y,1/3+z
2/3-y,1/3+x-y,1/3+z
2/3-x+y,1/3-x,1/3+z
2/3-x,1/3-y,1/3-z
2/3+y,1/3-x+y,1/3-z
2/3+x-y,1/3+x,1/3-z
1/3+x,2/3+y,2/3+z
1/3-y,2/3+x-y,2/3+z
1/3-x+y,2/3-x,2/3+z
1/3-x,2/3-y,2/3-z
1/3+y,2/3-x+y,2/3-z
1/3+x-y,2/3+x,2/3-z
loop_
_atom_site_type_symbol
_atom_site_label
_atom_site_fract_x
_atom_site_fract_y
_atom_site_fract_z
Si Si1 0.581740 0.573402 0.298628
Si Si2 0.428405 0.167070 0.843879
Si Si3 0.638171 0.911464 0.382882
Si Si4 0.882217 0.403127 0.223087
Si Si5 0.826176 0.771908 0.594129
Si Si6 0.372437 0.985928 0.559569
Si Si7 0.288161 0.439977 0.623951
O O1 0.529288 0.584566 0.297079
O O2 0.559849 0.509429 0.257588
O O3 0.608891 0.593016 0.435025
O O4 0.637258 0.610074 0.209018
O O5 0.384242 0.131534 0.732701
O O6 0.475050 0.147720 0.861281
O O7 0.445094 0.231073 0.814820
O O8 0.705240 0.932157 0.410240
O O9 0.593433 0.877124 0.494573
O O10 0.627705 0.964677 0.356920
O O11 0.860511 0.348143 0.313586
O O12 0.862061 0.447118 0.264703
O O13 0.878425 0.388602 0.074804
O O14 0.396575 0.946917 0.614486
#
# Coordination Sequence:
#
# PCOD9575244 Si02
#       7
#    18  18  18  18  18  18  18
#     4  11  20  35  57  83 126 166 210 248 297 367
#     4  12  23  38  63  91 120 168 214 253 322 374
#     4  12  20  39  61  90 130 173 208 249 306 386
#     4  11  23  45  59  85 127 165 207 265 315 368
#     4  12  25  42  65  90 131 166 214 264 314 381
#     4  11  20  35  56  89 126 171 210 249 297 372
#     4  11  24  39  62  88 121 170 211 258 317 369
#
# _framework density 18.777211000000001
#
# number of rings (size 3 to 8) (size 9 to 14) (size 15 to 20)
#    0.000    0.571    7.143    4.714    0.000    0.571 
#    5.143    0.000    0.000    0.571    0.000    0.000 
#    0.000    0.000    0.000    0.000    0.000    0.000 
#
# Total GULP energy -233919.313198 kJ/mol
# GULP energy per Si atom -5569.507457 kJ/mol
# Density = 1.873447 g / cm^3
# Si number density = 18.777211 Si / 1000 Ang^3
#
#
#
# Elastic Constant Matrix: (Units=GPa)
#
#
# Indices 1 2 3 4 5 6 
#
# 1 80.3043 38.3218 22.2607 -2.9449 0.5690 0.0005
# 2 38.3218 80.3033 22.2597 2.9455 -0.5673 0.0001
# 3 22.2607 22.2597 61.9352 0.0022 0.0044 0.0011
# 4 -2.9449 2.9455 0.0022 18.6304 0.0012 -0.5675
# 5 0.5690 -0.5673 0.0044 0.0012 18.6337 -2.9447
# 6 0.0005 0.0001 0.0011 -0.5675 -2.9447 20.9907
#
#
#
# Elastic Compliance Matrix: (Units=1/GPa)
#
#
# Indices 1 2 3 4 5 6 
#
# 1 0.017062 -0.007318 -0.003502 0.003855 -0.000743 0.000000
# 2 -0.007318 0.017062 -0.003502 -0.003854 0.000744 0.000000
# 3 -0.003502 -0.003502 0.018663 -0.000002 -0.000004 -0.000002
# 4 0.003855 -0.003854 -0.000002 0.054940 -0.000004 0.001485
# 5 -0.000743 0.000744 -0.000004 -0.000004 0.054929 0.007706
# 6 0.000000 0.000000 -0.000002 0.001485 0.007706 0.048761
#
#
# Mechanical properties :
#
#
# Convention : Reuss Voigt Hill
#
# Bulk Modulus (GPa) = 41.41970 43.13636 42.27803
# Shear Modulus (GPa) = 20.15225 20.96433 20.55829
#
# Velocity S-wave (km/s) = 3.27957 3.34500 3.31245
# Velocity P-wave (km/s) = 6.03715 6.15965 6.09871
#
# Compressibility (1/GPa) = 0.02414310
#
# Stress axis : x y z
#
# Youngs Moduli (GPa) = 58.60820 58.60815 53.58084
#
# Poissons Ratio (x) = 0.42891 0.18767
# Poissons Ratio (y) = 0.42891 0.18764
# Poissons Ratio (z) = 0.20527 0.20524
#
# Static dielectric constant tensor:
#      x y z
#    x 1.703240 0.000000 0.000000 
#    y 0.000000 1.703240 0.000000 
#    z 0.000000 0.000000 1.736970 
# 
# From -- ./inp_files/1595.got.cif
#   From: 2010.05.17/outbox.cif.g08.bks.cpg/sg148_1_cif.got.tgz:1595.got - 2010.05.20 13:50:20.
