data_PCOD9575853
_publ_section_title
;
Structure prediction by ZEFSAII (Michael W. Deem and Ramdas Pophale) SiO2 
 PCOD9575853
Probable space group: P 31 2 1
;
_chemical_formula_sum "Si O2"
_cell_formula_units_Z 30
_cell_length_a 14.459940
_cell_length_b 14.459940
_cell_length_c 7.673448
_cell_angle_alpha 90.000000
_cell_angle_beta 90.000000
_cell_angle_gamma 120.000000
_cell_volume 1389.485976
_symmetry_space_group_name_H-M "P 31 2 1"
_symmetry_group_IT_number 152
_symmetry_cell_setting 'hexagonal'
loop_
_space_group_symop_operation_xyz
x,y,z
-y,x-y,1/3+z
-x+y,-x,2/3+z
x-y,-y,2/3-z
-x,-x+y,1/3-z
y,x,-z
loop_
_atom_site_type_symbol
_atom_site_label
_atom_site_fract_x
_atom_site_fract_y
_atom_site_fract_z
Si Si1 0.631009 0.599441 0.795579
Si Si2 0.803410 0.643902 0.314454
Si Si3 0.386477 0.420081 0.294760
Si Si4 0.149890 0.808278 0.417394
Si Si5 0.119862 0.138109 0.194332
O O1 0.618770 0.683117 0.672409
O O2 0.532983 0.483419 0.759431
O O3 0.751452 0.619825 0.784753
O O4 0.623657 0.623657 0.000000
O O5 0.858169 0.583591 0.404893
O O6 0.882102 0.767052 0.371477
O O7 0.810291 0.619377 0.111018
O O8 0.400703 0.400703 0.500000
O O9 0.377170 0.314040 0.205377
O O10 0.088459 0.875566 0.388015
O O11 0.000000 0.042741 0.166667
O O12 0.167437 0.167437 0.000000
#
# Coordination Sequence:
#
# PCOD9575853 Si02
#       5
#     6   6   6   6   6
#     4  10  20  37  61  86 113 150 195 240 286 343
#     4   9  20  40  58  78 113 156 192 233 289 347
#     4   9  19  37  59  81 112 149 186 233 291 344
#     4   9  20  40  59  79 114 155 192 234 287 348
#     4  11  22  32  51  84 116 148 189 236 285 338
#
# _framework density 21.590716
#
# number of rings (size 3 to 8) (size 9 to 14) (size 15 to 20)
#    0.000    2.400    0.000    3.000    0.000    9.600 
#    0.000    7.000    0.000    0.000    0.000    0.000 
#    0.000    0.000    0.000    0.000    0.000    0.000 
#
# Total GULP energy -167226.497564 kJ/mol
# GULP energy per Si atom -5574.216585 kJ/mol
# Density = 2.154157 g / cm^3
# Si number density = 21.590716 Si / 1000 Ang^3
#
#
#
# Elastic Constant Matrix: (Units=GPa)
#
#
# Indices 1 2 3 4 5 6 
#
# 1 157.1654 109.4567 13.8303 6.0683 0.0000 0.0000
# 2 109.4567 157.1654 13.8303 -6.0683 0.0000 0.0000
# 3 13.8303 13.8303 32.1375 0.0000 0.0000 0.0000
# 4 6.0683 -6.0683 0.0000 28.3617 0.0000 0.0000
# 5 0.0000 0.0000 0.0000 0.0000 28.3617 6.0683
# 6 0.0000 0.0000 0.0000 0.0000 6.0683 23.8543
#
#
#
# Elastic Compliance Matrix: (Units=1/GPa)
#
#
# Indices 1 2 3 4 5 6 
#
# 1 0.013046 -0.009121 -0.001690 -0.004743 0.000000 0.000000
# 2 -0.009121 0.013046 -0.001690 0.004743 0.000000 0.000000
# 3 -0.001690 -0.001690 0.032570 0.000000 0.000000 0.000000
# 4 -0.004743 0.004743 0.000000 0.037288 0.000000 0.000000
# 5 0.000000 0.000000 0.000000 0.000000 0.037288 -0.009486
# 6 0.000000 0.000000 0.000000 0.000000 -0.009486 0.044334
#
#
# Mechanical properties :
#
#
# Convention : Reuss Voigt Hill
#
# Bulk Modulus (GPa) = 29.70515 68.96701 49.33608
# Shear Modulus (GPa) = 23.38691 30.07228 26.72960
#
# Velocity S-wave (km/s) = 3.29476 3.73612 3.52236
# Velocity P-wave (km/s) = 5.31621 7.11503 6.28036
#
# Compressibility (1/GPa) = 0.03366420
#
# Stress axis : x y z
#
# Youngs Moduli (GPa) = 76.64900 76.64900 30.70272
#
# Poissons Ratio (x) = 0.69908 0.05187
# Poissons Ratio (y) = 0.69908 0.05187
# Poissons Ratio (z) = 0.12950 0.12950
#
# Static dielectric constant tensor:
#      x y z
#    x 1.804990 0.000000 0.000000 
#    y 0.000000 1.804990 0.000000 
#    z 0.000000 0.000000 1.902410 
# 
# From -- ./inp_files/1048.got.cif
#   From: 2010.05.17/outbox.cif.g08.bks.cpg/sg152_1_cif.got.tgz:1048.got - 2010.05.20 10:36:06.
