data_PCOD9575654
_publ_section_title
;
Structure prediction by ZEFSAII (Michael W. Deem and Ramdas Pophale) SiO2 
 PCOD9575654
Probable space group: P 31 1 2
;
_chemical_formula_sum "Si O2"
_cell_formula_units_Z 33
_cell_length_a 11.777580
_cell_length_b 11.777580
_cell_length_c 14.890594
_cell_angle_alpha 90.000000
_cell_angle_beta 90.000000
_cell_angle_gamma 120.000000
_cell_volume 1788.771143
_symmetry_space_group_name_H-M "P 31 1 2"
_symmetry_group_IT_number 151
_symmetry_cell_setting 'hexagonal'
loop_
_space_group_symop_operation_xyz
x,y,z
-y,x-y,1/3+z
-x+y,-x,2/3+z
-y,-x,2/3-z
-x+y,y,1/3-z
x,x-y,-z
loop_
_atom_site_type_symbol
_atom_site_label
_atom_site_fract_x
_atom_site_fract_y
_atom_site_fract_z
Si Si1 0.765900 0.260869 0.051256
Si Si2 0.484700 0.021812 0.838422
Si Si3 0.312549 0.239126 0.571413
Si Si4 0.417603 0.835205 0.666667
Si Si5 0.195892 0.391783 0.666667
Si Si6 0.123419 0.509478 0.357902
Si Si7 0.941744 0.470872 0.500000
O O1 0.862659 0.326673 0.135009
O O2 0.628729 0.152079 0.091606
O O3 0.759776 0.379888 0.000000
O O4 0.806613 0.179207 0.985174
O O5 0.637888 0.077904 0.859534
O O6 0.442789 0.921768 0.755190
O O7 0.410814 0.950693 0.929644
O O8 0.247462 0.123731 0.500000
O O9 0.223062 0.298910 0.602432
O O10 0.479622 0.742991 0.685091
O O11 0.340840 0.492503 0.704784
O O12 0.034118 0.432725 0.442458
#
# Coordination Sequence:
#
# PCOD9575654 Si02
#       7
#     6   6   6   3   3   6   3
#     4  12  22  37  59  93 123 162 203 248 312 372
#     4  11  21  39  59  92 123 163 200 252 316 365
#     4  11  20  37  59  87 119 155 207 251 297 372
#     4  11  22  38  66  86 132 157 208 254 308 381
#     4   9  20  38  56  86 114 155 208 242 304 365
#     4  10  24  37  59  94 122 161 203 256 316 362
#     4  12  24  36  58  88 130 158 196 264 310 364
#
# _framework density 18.448421
#
# number of rings (size 3 to 8) (size 9 to 14) (size 15 to 20)
#    0.000    1.091    6.364    1.636    7.636    0.000 
#    0.000    0.000    0.000    4.364    2.364    0.000 
#    0.000    0.000    0.000    0.000    0.000    0.000 
#
# Total GULP energy -184113.613028 kJ/mol
# GULP energy per Si atom -5579.200395 kJ/mol
# Density = 1.840643 g / cm^3
# Si number density = 18.448421 Si / 1000 Ang^3
#
#
#
# Elastic Constant Matrix: (Units=GPa)
#
#
# Indices 1 2 3 4 5 6 
#
# 1 46.0769 12.8631 9.6184 0.0000 -17.8182 0.0000
# 2 12.8631 46.0769 9.6184 0.0000 17.8182 0.0000
# 3 9.6184 9.6184 84.5845 0.0000 0.0000 0.0000
# 4 0.0000 0.0000 0.0000 11.3688 0.0000 17.8182
# 5 -17.8182 17.8182 0.0000 0.0000 11.3688 0.0000
# 6 0.0000 0.0000 0.0000 17.8182 0.0000 16.6069
#
#
#
# Elastic Compliance Matrix: (Units=1/GPa)
#
#
# Indices 1 2 3 4 5 6 
#
# 1 -0.013276 0.030896 -0.002004 0.000000 -0.069230 0.000000
# 2 0.030896 -0.013276 -0.002004 0.000000 0.069230 0.000000
# 3 -0.002004 -0.002004 0.012278 0.000000 0.000000 0.000000
# 4 0.000000 0.000000 0.000000 -0.129048 0.000000 0.138461
# 5 -0.069230 0.069230 0.000000 0.000000 -0.129048 0.000000
# 6 0.000000 0.000000 0.000000 0.138461 0.000000 -0.088344
#
#
# Mechanical properties :
#
#
# Convention : Reuss Voigt Hill
#
# Bulk Modulus (GPa) = 25.31377 26.77092 26.04234
# Shear Modulus (GPa) = -12.45879 17.51147 2.52634
#
# Velocity S-wave (km/s) = -2.60153 3.08427 1.17149
# Velocity P-wave (km/s) = 2.17421 5.21789 3.99710
#
# Compressibility (1/GPa) = 0.03950420
#
# Stress axis : x y z
#
# Youngs Moduli (GPa) = -75.32471 -75.32471 81.44526
#
# Poissons Ratio (x) = 2.32725 0.16319
# Poissons Ratio (y) = 2.32725 0.16319
# Poissons Ratio (z) = -0.15093 -0.15093
#
# Static dielectric constant tensor:
#      x y z
#    x 1.642930 0.000000 0.000000 
#    y 0.000000 1.642930 0.000000 
#    z 0.000000 0.000000 1.672670 
# 
# From -- ./inp_files/2990.got.cif
#   From: 2010.05.17/outbox.cif.g08.bks.cpg/sg151_2_cif.got.tgz:2990.got - 2010.05.20 10:33:20.
