data_PCOD9575338
_publ_section_title
;
Structure prediction by ZEFSAII (Michael W. Deem and Ramdas Pophale) SiO2 
 PCOD9575338
Probable space group: R -3
;
_chemical_formula_sum "Si O2"
_cell_formula_units_Z 24
_cell_length_a 24.000000
_cell_length_b 24.000000
_cell_length_c 9.000000
_cell_angle_alpha 90.000000
_cell_angle_beta 90.000000
_cell_angle_gamma 120.000000
_cell_volume 4489.475693
_symmetry_space_group_name_H-M "R -3"
_symmetry_group_IT_number 148
_symmetry_cell_setting 'hexagonal'
loop_
_space_group_symop_operation_xyz
x,y,z
-y,x-y,z
-x+y,-x,z
-x,-y,-z
y,-x+y,-z
x-y,x,-z
2/3+x,1/3+y,1/3+z
2/3-y,1/3+x-y,1/3+z
2/3-x+y,1/3-x,1/3+z
2/3-x,1/3-y,1/3-z
2/3+y,1/3-x+y,1/3-z
2/3+x-y,1/3+x,1/3-z
1/3+x,2/3+y,2/3+z
1/3-y,2/3+x-y,2/3+z
1/3-x+y,2/3-x,2/3+z
1/3-x,2/3-y,2/3-z
1/3+y,2/3-x+y,2/3-z
1/3+x-y,2/3+x,2/3-z
loop_
_atom_site_type_symbol
_atom_site_label
_atom_site_fract_x
_atom_site_fract_y
_atom_site_fract_z
Si Si1 0.992191 0.551405 0.904356
Si Si2 0.207852 0.396756 0.934813
Si Si3 0.419184 0.097868 0.229335
Si Si4 0.754850 0.736160 0.233316
O O1 0.956919 0.518088 0.751836
O O2 0.060248 0.612173 0.858535
O O3 0.951276 0.575387 0.997048
O O4 0.000000 0.500000 0.000000
O O5 0.166667 0.333334 0.833334
O O6 0.272155 0.438748 0.840702
O O7 0.157532 0.420596 0.964888
O O8 0.341298 0.053498 0.215519
O O9 0.432654 0.099873 0.403408
#
# Coordination Sequence:
#
# PCOD9575338 Si02
#       4
#    18  18  18  18
#     4  12  22  32  55  77 108 148 185 217 274 325
#     4  10  21  34  49  76 105 145 181 218 263 322
#     4  11  20  34  51  73 111 147 177 219 262 318
#     4  11  21  35  51  74 111 146 178 218 268 321
#
# _framework density 5.3458360000000003
#
# number of rings (size 3 to 8) (size 9 to 14) (size 15 to 20)
#    0.000    1.000    7.500    3.000    3.500    0.000 
#    0.000    0.000    0.000    0.000    0.000    0.000 
#    2.500    4.000    0.000    0.000    0.000    0.000 
#
# Total GULP energy -133867.523289 kJ/mol
# GULP energy per Si atom -5577.813470 kJ/mol
# Density = 0.533367 g / cm^3
# Si number density = 5.345836 Si / 1000 Ang^3
#
#
#
# Elastic Constant Matrix: (Units=GPa)
#
#
# Indices 1 2 3 4 5 6 
#
# 1 40.2208 -0.8060 20.8668 4.1885 -1.1442 -0.0003
# 2 -0.8060 40.2216 20.8672 -4.1883 1.1437 -0.0002
# 3 20.8668 20.8672 50.8877 0.0001 0.0002 0.0000
# 4 4.1885 -4.1883 0.0001 23.2668 0.0000 1.1440
# 5 -1.1442 1.1437 0.0002 0.0000 23.2667 4.1885
# 6 -0.0003 -0.0002 0.0000 1.1440 4.1885 20.5136
#
#
#
# Elastic Compliance Matrix: (Units=1/GPa)
#
#
# Indices 1 2 3 4 5 6 
#
# 1 0.035108 0.009732 -0.018387 -0.004568 0.001248 0.000000
# 2 0.009732 0.035108 -0.018387 0.004568 -0.001247 0.000000
# 3 -0.018387 -0.018387 0.034731 0.000000 -0.000001 0.000000
# 4 -0.004568 0.004568 0.000000 0.044747 0.000000 -0.002495
# 5 0.001248 -0.001247 -0.000001 0.000000 0.044747 -0.009136
# 6 0.000000 0.000000 0.000000 -0.002495 -0.009136 0.050753
#
#
# Mechanical properties :
#
#
# Convention : Reuss Voigt Hill
#
# Bulk Modulus (GPa) = 19.66100 23.68733 21.67416
# Shear Modulus (GPa) = 15.81116 19.43622 17.62369
#
# Velocity S-wave (km/s) = 3.14329 3.48504 3.31857
# Velocity P-wave (km/s) = 5.04576 5.56741 5.31299
#
# Compressibility (1/GPa) = 0.05086212
#
# Stress axis : x y z
#
# Youngs Moduli (GPa) = 28.48330 28.48380 28.79304
#
# Poissons Ratio (x) = -0.27719 0.52942
# Poissons Ratio (y) = -0.27719 0.52942
# Poissons Ratio (z) = 0.52372 0.52373
#
# Static dielectric constant tensor:
#      x y z
#    x 1.556490 0.000000 0.000000 
#    y 0.000000 1.556490 0.000000 
#    z 0.000000 0.000000 1.523620 
# 
# From -- ./inp_files/798.got.cif
#   From: 2010.05.17/outbox.ucp.g08.bks.cvg/sg148_1_cif.got.tgz:798.got - 2010.06.11 11:44:40.
