data_PCOD9575945
_publ_section_title
;
Structure prediction by ZEFSAII (Michael W. Deem and Ramdas Pophale) SiO2 
 PCOD9575945
Probable space group: P 31 2 1
;
_chemical_formula_sum "Si O2"
_cell_formula_units_Z 36
_cell_length_a 7.378860
_cell_length_b 7.378860
_cell_length_c 30.498289
_cell_angle_alpha 90.000000
_cell_angle_beta 90.000000
_cell_angle_gamma 120.000000
_cell_volume 1438.085304
_symmetry_space_group_name_H-M "P 31 2 1"
_symmetry_group_IT_number 152
_symmetry_cell_setting 'hexagonal'
loop_
_space_group_symop_operation_xyz
x,y,z
-y,x-y,1/3+z
-x+y,-x,2/3+z
x-y,-y,2/3-z
-x,-x+y,1/3-z
y,x,-z
loop_
_atom_site_type_symbol
_atom_site_label
_atom_site_fract_x
_atom_site_fract_y
_atom_site_fract_z
Si Si1 0.105729 0.000000 0.833334
Si Si2 0.383966 0.593397 0.640646
Si Si3 0.686455 0.324716 0.451243
Si Si4 0.378892 0.250657 0.910237
Si Si5 0.715034 0.650380 0.179893
Si Si6 0.659479 0.000000 0.333334
Si Si7 0.436655 0.234951 0.606566
O O1 0.872020 0.813700 0.844045
O O2 0.182880 0.922257 0.792881
O O3 0.448638 0.709674 0.593430
O O4 0.190215 0.619305 0.655291
O O5 0.335908 0.365847 0.626111
O O6 0.532255 0.659489 0.683534
O O7 0.500505 0.267796 0.485337
O O8 0.900029 0.428879 0.478605
O O9 0.625185 0.086097 0.436938
O O10 0.603553 0.272832 0.920409
O O11 0.263471 0.196965 0.957356
O O12 0.792719 0.684309 0.230370
#
# Coordination Sequence:
#
# PCOD9575945 Si02
#       7
#     3   6   6   6   6   3   6
#     4  10  22  38  58  90 120 154 198 248 302 360
#     4  10  21  38  60  84 115 152 198 242 299 357
#     4  10  21  39  60  85 118 162 201 246 299 362
#     4   9  20  38  61  82 116 155 199 246 302 358
#     4  11  22  37  60  87 122 156 199 246 302 360
#     4   8  18  40  62  82 112 158 194 242 298 360
#     4  11  22  39  61  89 119 155 199 254 304 362
#
# _framework density 25.033287999999999
#
# number of rings (size 3 to 8) (size 9 to 14) (size 15 to 20)
#    0.000    2.000    0.000    3.000    0.000    6.000 
#    0.000    8.333    0.000    1.000    0.000    0.000 
#    0.000    0.000    0.000    0.000    0.000    0.000 
#
# Total GULP energy -201166.352813 kJ/mol
# GULP energy per Si atom -5587.954245 kJ/mol
# Density = 2.497631 g / cm^3
# Si number density = 25.033288 Si / 1000 Ang^3
#
#
#
# Elastic Constant Matrix: (Units=GPa)
#
#
# Indices 1 2 3 4 5 6 
#
# 1 64.4212 12.1016 45.8055 -8.4278 -0.0003 0.0000
# 2 12.1016 64.4212 45.8055 8.4278 0.0003 0.0000
# 3 45.8055 45.8055 172.3658 0.0000 0.0000 0.0000
# 4 -8.4278 8.4278 0.0000 45.8541 0.0000 0.0003
# 5 -0.0003 0.0003 0.0000 0.0000 45.8541 -8.4278
# 6 0.0000 0.0000 0.0000 0.0003 -8.4278 26.1598
#
#
#
# Elastic Compliance Matrix: (Units=1/GPa)
#
#
# Indices 1 2 3 4 5 6 
#
# 1 0.019741 -0.000575 -0.005093 0.003734 0.000000 0.000000
# 2 -0.000575 0.019741 -0.005093 -0.003734 0.000000 0.000000
# 3 -0.005093 -0.005093 0.008509 0.000000 0.000000 0.000000
# 4 0.003734 -0.003734 0.000000 0.023181 0.000000 0.000000
# 5 0.000000 0.000000 0.000000 0.000000 0.023181 0.007468
# 6 0.000000 0.000000 0.000000 0.000000 0.007468 0.040633
#
#
# Mechanical properties :
#
#
# Convention : Reuss Voigt Hill
#
# Bulk Modulus (GPa) = 37.78321 56.51483 47.14902
# Shear Modulus (GPa) = 30.24246 36.73994 33.49120
#
# Velocity S-wave (km/s) = 3.47953 3.83514 3.66165
# Velocity P-wave (km/s) = 5.59185 6.49892 6.06237
#
# Compressibility (1/GPa) = 0.02646678
#
# Stress axis : x y z
#
# Youngs Moduli (GPa) = 50.65644 50.65644 117.52864
#
# Poissons Ratio (x) = 0.02915 0.59859
# Poissons Ratio (y) = 0.02915 0.59859
# Poissons Ratio (z) = 0.25800 0.25800
#
# Static dielectric constant tensor:
#      x y z
#    x 2.016720 0.000000 0.000000 
#    y 0.000000 2.016720 0.000000 
#    z 0.000000 0.000000 2.012460 
# 
# From -- ./inp_files/3457.got.cif
#   From: 2010.05.17/outbox.cif.g08.bks.cpg/sg152_2_cif.got.tgz:3457.got - 2010.05.20 10:36:06.
