data_PCOD9575027
_publ_section_title
;
Structure prediction by ZEFSAII (Michael W. Deem and Ramdas Pophale) SiO2 
 PCOD9575027
Probable space group: R -3
;
_chemical_formula_sum "Si O2"
_cell_formula_units_Z 108
_cell_length_a 18.025392
_cell_length_b 18.025392
_cell_length_c 27.220451
_cell_angle_alpha 90.000000
_cell_angle_beta 90.000000
_cell_angle_gamma 120.000000
_cell_volume 7659.411182
_symmetry_space_group_name_H-M "R -3"
_symmetry_group_IT_number 148
_symmetry_cell_setting 'hexagonal'
loop_
_space_group_symop_operation_xyz
x,y,z
-y,x-y,z
-x+y,-x,z
-x,-y,-z
y,-x+y,-z
x-y,x,-z
2/3+x,1/3+y,1/3+z
2/3-y,1/3+x-y,1/3+z
2/3-x+y,1/3-x,1/3+z
2/3-x,1/3-y,1/3-z
2/3+y,1/3-x+y,1/3-z
2/3+x-y,1/3+x,1/3-z
1/3+x,2/3+y,2/3+z
1/3-y,2/3+x-y,2/3+z
1/3-x+y,2/3-x,2/3+z
1/3-x,2/3-y,2/3-z
1/3+y,2/3-x+y,2/3-z
1/3+x-y,2/3+x,2/3-z
loop_
_atom_site_type_symbol
_atom_site_label
_atom_site_fract_x
_atom_site_fract_y
_atom_site_fract_z
Si Si1 0.000288 0.173292 0.628051
Si Si2 0.932469 0.243413 0.543907
Si Si3 0.173292 0.000288 0.371949
Si Si4 0.644277 0.910080 0.210574
Si Si5 0.507188 0.666108 0.410003
Si Si6 0.999441 0.173854 0.256664
O O1 0.974694 0.226379 0.591780
O O2 0.091607 0.183214 0.615698
O O3 0.000891 0.195687 0.685422
O O4 0.925720 0.074280 0.622922
O O5 0.847655 0.152345 0.531844
O O6 0.899839 0.308812 0.558257
O O7 1.000000 0.276789 0.500000
O O8 0.226379 0.974694 0.408220
O O9 0.195687 0.000891 0.314578
O O10 0.742306 0.975478 0.224924
O O11 0.424400 0.575600 0.421854
O O12 0.486589 0.743295 0.415954
#
# Coordination Sequence:
#
# PCOD9575027 Si02
#       6
#    18  18  18  18  18  18
#     4   9  16  27  43  62  83 107 135 164 194 231
#     4  10  19  29  41  59  84 111 135 161 196 238
#     4   9  16  27  43  62  83 107 135 164 194 231
#     4  10  19  29  41  59  84 111 135 161 196 238
#     4   9  17  29  45  62  79 102 134 171 205 235
#     4   9  17  29  45  62  79 102 134 171 205 235
#
# _framework density 14.100300000000001
#
# number of rings (size 3 to 8) (size 9 to 14) (size 15 to 20)
#    0.000    2.667    0.000    2.667    0.000    7.333 
#    0.000    0.000    0.000    5.333    0.000    0.000 
#    0.000    0.000    0.000    0.000    0.000  101.000 
#
# Total GULP energy -200611.907991 kJ/mol
# GULP energy per Si atom -5572.553000 kJ/mol
# Density = 1.406821 g / cm^3
# Si number density = 14.100300 Si / 1000 Ang^3
#
#
#
# Elastic Constant Matrix: (Units=GPa)
#
#
# Indices 1 2 3 4 5 6 
#
# 1 93.5097 57.0126 51.6025 0.0157 0.0000 0.0000
# 2 57.0126 93.5097 51.6025 -0.0157 0.0000 0.0000
# 3 51.6025 51.6025 54.2129 0.0000 0.0000 0.0000
# 4 0.0157 -0.0157 0.0000 21.1429 0.0000 0.0000
# 5 0.0000 0.0000 0.0000 0.0000 21.1429 0.0157
# 6 0.0000 0.0000 0.0000 0.0000 0.0157 18.2485
#
#
#
# Elastic Compliance Matrix: (Units=1/GPa)
#
#
# Indices 1 2 3 4 5 6 
#
# 1 0.023262 -0.004137 -0.018204 -0.000020 0.000000 0.000000
# 2 -0.004137 0.023262 -0.018204 0.000020 0.000000 0.000000
# 3 -0.018204 -0.018204 0.053102 0.000000 0.000000 0.000000
# 4 -0.000020 0.000020 0.000000 0.047297 0.000000 0.000000
# 5 0.000000 0.000000 0.000000 0.000000 0.047297 -0.000041
# 6 0.000000 0.000000 0.000000 0.000000 -0.000041 0.054799
#
#
# Mechanical properties :
#
#
# Convention : Reuss Voigt Hill
#
# Bulk Modulus (GPa) = 53.95354 62.40752 58.18053
# Shear Modulus (GPa) = 14.86811 17.50782 16.18796
#
# Velocity S-wave (km/s) = 3.25076 3.52755 3.39198
# Velocity P-wave (km/s) = 7.24134 7.80687 7.52942
#
# Compressibility (1/GPa) = 0.01853447
#
# Stress axis : x y z
#
# Youngs Moduli (GPa) = 42.98778 42.98778 18.83182
#
# Poissons Ratio (x) = 0.17784 0.34282
# Poissons Ratio (y) = 0.17784 0.34282
# Poissons Ratio (z) = 0.78257 0.78257
#
# Static dielectric constant tensor:
#      x y z
#    x 1.447740 0.000000 0.000000 
#    y 0.000000 1.447740 0.000000 
#    z 0.000000 0.000000 1.450360 
# 
# From -- ./inp_files/3084.got.cif
#   From: 2010.05.17/outbox.cif.g08.bks.cpg/sg148_2_cif.got.tgz:3084.got - 2010.05.20 13:50:20.
