data_PCOD9575635
_publ_section_title
;
Structure prediction by ZEFSAII (Michael W. Deem and Ramdas Pophale) SiO2 
 PCOD9575635
Probable space group: P 31 1 2
;
_chemical_formula_sum "Si O2"
_cell_formula_units_Z 27
_cell_length_a 11.909119
_cell_length_b 11.909119
_cell_length_c 10.249539
_cell_angle_alpha 90.000000
_cell_angle_beta 90.000000
_cell_angle_gamma 120.000000
_cell_volume 1258.908697
_symmetry_space_group_name_H-M "P 31 1 2"
_symmetry_group_IT_number 151
_symmetry_cell_setting 'hexagonal'
loop_
_space_group_symop_operation_xyz
x,y,z
-y,x-y,1/3+z
-x+y,-x,2/3+z
-y,-x,2/3-z
-x+y,y,1/3-z
x,x-y,-z
loop_
_atom_site_type_symbol
_atom_site_label
_atom_site_fract_x
_atom_site_fract_y
_atom_site_fract_z
Si Si1 0.112540 0.148538 0.814420
Si Si2 0.076563 0.771431 0.959911
Si Si3 0.850234 0.396781 0.772790
Si Si4 0.469502 0.530499 0.333334
Si Si5 0.398365 0.214778 0.792179
O O1 0.089232 0.178464 0.666667
O O2 0.263574 0.198282 0.844530
O O3 0.080567 0.227388 0.917309
O O4 0.004147 0.995854 0.833334
O O5 0.140698 0.859303 0.833334
O O6 0.141478 0.683257 0.978642
O O7 0.923966 0.667361 0.947956
O O8 0.734294 0.265707 0.833334
O O9 0.799251 0.499490 0.783299
O O10 0.866654 0.341740 0.633733
O O11 0.973479 0.461623 0.869972
#
# Coordination Sequence:
#
# PCOD9575635 Si02
#       5
#     6   6   6   3   6
#     4  12  25  43  72 105 147 189 239 292 365 440
#     4  11  24  45  71 102 138 191 239 298 359 434
#     4  11  19  41  64  98 133 179 227 292 359 432
#     4  10  22  40  76  90 136 190 242 286 368 422
#     4  11  24  40  67 102 143 180 235 292 369 423
#
# _framework density 21.447147999999999
#
# number of rings (size 3 to 8) (size 9 to 14) (size 15 to 20)
#    0.000    0.889    6.667    2.000    0.000    0.000 
#   16.000    0.000   12.222    0.000    0.000    0.000 
#    0.000    0.000    0.000    0.000    0.000    0.000 
#
# Total GULP energy -150457.712558 kJ/mol
# GULP energy per Si atom -5572.507873 kJ/mol
# Density = 2.139833 g / cm^3
# Si number density = 21.447148 Si / 1000 Ang^3
#
#
#
# Elastic Constant Matrix: (Units=GPa)
#
#
# Indices 1 2 3 4 5 6 
#
# 1 88.4599 55.6433 55.4056 -0.0005 -7.1990 0.0000
# 2 55.6433 88.4599 55.4056 0.0005 7.1990 0.0000
# 3 55.4056 55.4056 130.5672 0.0000 0.0000 0.0000
# 4 -0.0005 0.0005 0.0000 24.5108 0.0000 7.1990
# 5 -7.1990 7.1990 0.0000 0.0000 24.5108 -0.0005
# 6 0.0000 0.0000 0.0000 7.1990 -0.0005 16.4083
#
#
#
# Elastic Compliance Matrix: (Units=1/GPa)
#
#
# Indices 1 2 3 4 5 6 
#
# 1 0.022640 -0.012340 -0.004371 0.000001 0.010274 0.000000
# 2 -0.012340 0.022640 -0.004371 -0.000001 -0.010274 0.000000
# 3 -0.004371 -0.004371 0.011369 0.000000 0.000000 0.000000
# 4 0.000001 -0.000001 0.000000 0.046834 0.000000 -0.020548
# 5 0.010274 -0.010274 0.000000 0.000000 0.046834 0.000001
# 6 0.000000 0.000000 0.000000 -0.020548 0.000001 0.069960
#
#
# Mechanical properties :
#
#
# Convention : Reuss Voigt Hill
#
# Bulk Modulus (GPa) = 69.03343 71.15509 70.09426
# Shear Modulus (GPa) = 18.70778 22.48814 20.59796
#
# Velocity S-wave (km/s) = 2.95663 3.24163 3.10240
# Velocity P-wave (km/s) = 6.62670 6.87458 6.75178
#
# Compressibility (1/GPa) = 0.01448574
#
# Stress axis : x y z
#
# Youngs Moduli (GPa) = 44.16890 44.16890 87.96200
#
# Poissons Ratio (x) = 0.54503 0.38449
# Poissons Ratio (y) = 0.54503 0.38449
# Poissons Ratio (z) = 0.19306 0.19306
#
# Static dielectric constant tensor:
#      x y z
#    x 1.883380 0.000000 0.000000 
#    y 0.000000 1.883380 0.000000 
#    z 0.000000 0.000000 1.826290 
# 
# From -- ./inp_files/2382.got.cif
#   From: 2010.05.17/outbox.cif.g08.bks.cpg/sg151_2_cif.got.tgz:2382.got - 2010.05.20 10:33:20.
