data_PCOD9575813
_publ_section_title
;
Structure prediction by ZEFSAII (Michael W. Deem and Ramdas Pophale) SiO2 
 PCOD9575813
Probable space group: P 31 2 1
;
_chemical_formula_sum "Si O2"
_cell_formula_units_Z 33
_cell_length_a 20.150131
_cell_length_b 20.150131
_cell_length_c 5.008951
_cell_angle_alpha 90.000000
_cell_angle_beta 90.000000
_cell_angle_gamma 120.000000
_cell_volume 1761.299301
_symmetry_space_group_name_H-M "P 31 2 1"
_symmetry_group_IT_number 152
_symmetry_cell_setting 'hexagonal'
loop_
_space_group_symop_operation_xyz
x,y,z
-y,x-y,1/3+z
-x+y,-x,2/3+z
x-y,-y,2/3-z
-x,-x+y,1/3-z
y,x,-z
loop_
_atom_site_type_symbol
_atom_site_label
_atom_site_fract_x
_atom_site_fract_y
_atom_site_fract_z
Si Si1 0.351294 0.000000 0.333334
Si Si2 0.348817 0.492483 0.985036
Si Si3 0.387777 0.161227 0.357495
Si Si4 0.790238 0.282457 0.185490
Si Si5 0.070221 0.504840 0.993917
Si Si6 0.910340 0.613271 0.182889
O O1 0.344371 0.072060 0.422447
O O2 0.418102 0.031975 0.113096
O O3 0.299016 0.534356 0.052099
O O4 0.436421 0.534713 0.079936
O O5 0.309814 0.420302 0.187336
O O6 0.337602 0.459241 0.688267
O O7 0.462245 0.200536 0.551256
O O8 0.346424 0.208846 0.426361
O O9 0.419971 0.174979 0.057576
O O10 0.848360 0.373618 0.205556
O O11 0.000000 0.500310 0.166667
O O12 0.000000 0.666063 0.166667
#
# Coordination Sequence:
#
# PCOD9575813 Si02
#       6
#     3   6   6   6   6   6
#     4  10  20  32  52  78 104 128 180 222 266 310
#     4  10  22  33  52  73 102 133 175 221 266 316
#     4   9  18  33  51  72 100 133 159 212 265 310
#     4   9  19  36  48  69 100 131 163 216 274 307
#     4  11  21  32  56  77 101 131 188 223 268 324
#     4  10  20  34  51  74 105 136 166 212 272 320
#
# _framework density 18.736166999999998
#
# number of rings (size 3 to 8) (size 9 to 14) (size 15 to 20)
#    0.000    2.182    1.818    1.091    5.091    0.000 
#    0.000    0.000   20.000    0.000    0.000    0.000 
#    0.000    0.000   30.909    0.000    0.000    0.000 
#
# Total GULP energy -183835.858661 kJ/mol
# GULP energy per Si atom -5570.783596 kJ/mol
# Density = 1.869352 g / cm^3
# Si number density = 18.736167 Si / 1000 Ang^3
#
#
#
# Elastic Constant Matrix: (Units=GPa)
#
#
# Indices 1 2 3 4 5 6 
#
# 1 80.7742 45.7481 13.6860 0.7182 0.0000 0.0000
# 2 45.7481 80.7742 13.6860 -0.7182 0.0000 0.0000
# 3 13.6860 13.6860 59.5821 0.0000 0.0000 0.0000
# 4 0.7182 -0.7182 0.0000 20.8105 0.0000 0.0000
# 5 0.0000 0.0000 0.0000 0.0000 20.8105 0.7182
# 6 0.0000 0.0000 0.0000 0.0000 0.7182 17.5130
#
#
#
# Elastic Compliance Matrix: (Units=1/GPa)
#
#
# Indices 1 2 3 4 5 6 
#
# 1 0.018454 -0.010137 -0.001910 -0.000987 0.000000 0.000000
# 2 -0.010137 0.018454 -0.001910 0.000987 0.000000 0.000000
# 3 -0.001910 -0.001910 0.017661 0.000000 0.000000 0.000000
# 4 -0.000987 0.000987 0.000000 0.048121 0.000000 0.000000
# 5 0.000000 0.000000 0.000000 0.000000 0.048121 -0.001974
# 6 0.000000 0.000000 0.000000 0.000000 -0.001974 0.057181
#
#
# Mechanical properties :
#
#
# Convention : Reuss Voigt Hill
#
# Bulk Modulus (GPa) = 37.51836 40.81897 39.16866
# Shear Modulus (GPa) = 20.42553 21.69416 21.05984
#
# Velocity S-wave (km/s) = 3.30535 3.40645 3.35628
# Velocity P-wave (km/s) = 5.88516 6.10781 5.99752
#
# Compressibility (1/GPa) = 0.02665362
#
# Stress axis : x y z
#
# Youngs Moduli (GPa) = 54.18927 54.18927 56.62125
#
# Poissons Ratio (x) = 0.54931 0.10817
# Poissons Ratio (y) = 0.54931 0.10817
# Poissons Ratio (z) = 0.10352 0.10352
#
# Static dielectric constant tensor:
#      x y z
#    x 1.711320 0.000000 0.000000 
#    y 0.000000 1.711320 0.000000 
#    z 0.000000 0.000000 1.686510 
# 
# From -- ./inp_files/450.got.cif
#   From: 2010.05.17/outbox.cif.g08.bks.cpg/sg152_1_cif.got.tgz:450.got - 2010.05.20 10:36:06.
