data_PCOD9575395
_publ_section_title
;
Structure prediction by ZEFSAII (Michael W. Deem and Ramdas Pophale) SiO2 
 PCOD9575395
Probable space group: P 3 1 2
;
_chemical_formula_sum "Si O2"
_cell_formula_units_Z 36
_cell_length_a 21.914328
_cell_length_b 21.914328
_cell_length_c 7.666342
_cell_angle_alpha 90.000000
_cell_angle_beta 90.000000
_cell_angle_gamma 120.000000
_cell_volume 3188.417150
_symmetry_space_group_name_H-M "P 3 1 2"
_symmetry_group_IT_number 149
_symmetry_cell_setting 'hexagonal'
loop_
_space_group_symop_operation_xyz
x,y,z
-y,x-y,z
-x+y,-x,z
-y,-x,-z
-x+y,y,-z
x,x-y,-z
loop_
_atom_site_type_symbol
_atom_site_label
_atom_site_fract_x
_atom_site_fract_y
_atom_site_fract_z
Si Si1 0.522759 0.333788 0.204798
Si Si2 0.867275 0.280728 0.500000
Si Si3 0.143907 0.144363 0.795202
Si Si4 0.799392 0.052606 0.500000
Si Si5 0.522759 0.333789 0.795202
Si Si6 0.143908 0.999545 0.795202
O O1 0.458909 0.320531 0.330116
O O2 0.593579 0.406420 0.245410
O O3 0.536206 0.268103 0.231803
O O4 0.506229 0.333855 0.000000
O O5 0.795058 0.204943 0.500000
O O6 0.930220 0.263554 0.499999
O O7 0.861623 0.320532 0.330116
O O8 0.207758 0.194955 0.669884
O O9 0.130460 0.065230 0.768197
O O10 0.073087 0.146175 0.754590
O O11 0.160438 0.160960 0.000000
O O12 0.871610 0.128391 0.500000
O O13 0.805045 0.012803 0.330116
#
# Coordination Sequence:
#
# PCOD9575395 Si02
#       6
#     6   6   6   6   6   6
#     4   9  16  25  37  51  65  81 103 133 167 199
#     4   9  17  26  34  46  64  85 106 126 154 196
#     4   9  16  25  37  51  65  81 103 133 167 199
#     4   9  17  26  34  46  64  85 106 126 154 196
#     4   9  16  25  37  51  65  81 103 133 167 199
#     4   9  16  25  37  51  65  81 103 133 167 199
#
# _framework density 11.290869000000001
#
# number of rings (size 3 to 8) (size 9 to 14) (size 15 to 20)
#    0.000    3.000    0.000    1.667    0.000    4.000 
#    0.000   10.000    0.000    0.000    0.000    0.000 
#    0.000    0.000    0.000    0.000    0.000    0.000 
#
# Total GULP energy -200418.410594 kJ/mol
# GULP energy per Si atom -5567.178072 kJ/mol
# Density = 1.126517 g / cm^3
# Si number density = 11.290869 Si / 1000 Ang^3
#
#
#
# Elastic Constant Matrix: (Units=GPa)
#
#
# Indices 1 2 3 4 5 6 
#
# 1 63.4801 40.6431 50.5968 0.0000 0.0000 0.0000
# 2 40.6431 63.4801 50.5968 0.0000 0.0000 0.0000
# 3 50.5968 50.5968 70.1630 0.0000 0.0000 0.0000
# 4 0.0000 0.0000 0.0000 11.6549 0.0000 0.0000
# 5 0.0000 0.0000 0.0000 0.0000 11.6549 0.0000
# 6 0.0000 0.0000 0.0000 0.0000 0.0000 11.4185
#
#
#
# Elastic Compliance Matrix: (Units=1/GPa)
#
#
# Indices 1 2 3 4 5 6 
#
# 1 0.037946 -0.005843 -0.023151 0.000000 0.000000 0.000000
# 2 -0.005843 0.037946 -0.023151 0.000000 0.000000 0.000000
# 3 -0.023151 -0.023151 0.047642 0.000000 0.000000 0.000000
# 4 0.000000 0.000000 0.000000 0.085801 0.000000 0.000000
# 5 0.000000 0.000000 0.000000 0.000000 0.085801 0.000000
# 6 0.000000 0.000000 0.000000 0.000000 0.000000 0.087577
#
#
# Mechanical properties :
#
#
# Convention : Reuss Voigt Hill
#
# Bulk Modulus (GPa) = 51.95957 53.42183 52.69070
# Shear Modulus (GPa) = 10.13342 10.63142 10.38242
#
# Velocity S-wave (km/s) = 2.99906 3.07187 3.03568
# Velocity P-wave (km/s) = 7.62309 7.74589 7.68473
#
# Compressibility (1/GPa) = 0.01924573
#
# Stress axis : x y z
#
# Youngs Moduli (GPa) = 26.35321 26.35321 20.98987
#
# Poissons Ratio (x) = 0.15397 0.48593
# Poissons Ratio (y) = 0.15397 0.48593
# Poissons Ratio (z) = 0.61010 0.61010
#
# Static dielectric constant tensor:
#      x y z
#    x 1.343620 0.000000 0.000000 
#    y 0.000000 1.343620 0.000000 
#    z 0.000000 0.000000 1.391260 
# 
# From -- ./inp_files/639.got.cif
#   From: 2010.05.17/outbox.cif.g08.bks.cpg/sg149_cif.got.tgz:639.got - 2010.05.20 13:52:34.
