data_PCOD9575913
_publ_section_title
;
Structure prediction by ZEFSAII (Michael W. Deem and Ramdas Pophale) SiO2 
 PCOD9575913
Probable space group: P 31 2 1
;
_chemical_formula_sum "Si O2"
_cell_formula_units_Z 24
_cell_length_a 7.307605
_cell_length_b 7.307605
_cell_length_c 20.636447
_cell_angle_alpha 90.000000
_cell_angle_beta 90.000000
_cell_angle_gamma 120.000000
_cell_volume 954.367599
_symmetry_space_group_name_H-M "P 31 2 1"
_symmetry_group_IT_number 152
_symmetry_cell_setting 'hexagonal'
loop_
_space_group_symop_operation_xyz
x,y,z
-y,x-y,1/3+z
-x+y,-x,2/3+z
x-y,-y,2/3-z
-x,-x+y,1/3-z
y,x,-z
loop_
_atom_site_type_symbol
_atom_site_label
_atom_site_fract_x
_atom_site_fract_y
_atom_site_fract_z
Si Si1 0.683513 0.715745 0.178368
Si Si2 0.776189 0.168307 0.156952
Si Si3 0.453491 0.552100 0.298130
Si Si4 0.423350 0.196536 0.379375
O O1 0.772403 0.963253 0.185903
O O2 0.434548 0.605433 0.155583
O O3 0.654680 0.620588 0.250480
O O4 0.783672 0.651279 0.120077
O O5 0.736618 0.121714 0.080858
O O6 0.000000 0.370006 0.166667
O O7 0.443691 0.417901 0.358997
O O8 0.414906 0.749646 0.301278
O O9 0.273305 0.000000 0.333334
#
# Coordination Sequence:
#
# PCOD9575913 Si02
#       4
#     6   6   6   6
#     4  10  20  45  66  96 146 176 231 298 336 413
#     4  10  21  42  71  97 135 186 227 279 357 415
#     4  10  24  43  67 105 134 185 238 272 370 412
#     4  12  23  45  69  99 147 178 231 303 333 427
#
# _framework density 25.147541
#
# number of rings (size 3 to 8) (size 9 to 14) (size 15 to 20)
#    1.500    0.000    5.000    0.000    0.000    4.000 
#    0.000    2.500    0.000    0.000    0.000    0.000 
#    0.000    0.000    0.000    0.000    0.000    0.000 
#
# Total GULP energy -133841.423927 kJ/mol
# GULP energy per Si atom -5576.725997 kJ/mol
# Density = 2.509030 g / cm^3
# Si number density = 25.147541 Si / 1000 Ang^3
#
#
#
# Elastic Constant Matrix: (Units=GPa)
#
#
# Indices 1 2 3 4 5 6 
#
# 1 67.8188 -12.5613 9.4613 3.7138 -0.0001 0.0000
# 2 -12.5613 67.8188 9.4613 -3.7138 0.0001 0.0000
# 3 9.4613 9.4613 33.0104 0.0000 0.0000 0.0000
# 4 3.7138 -3.7138 0.0000 23.4965 0.0000 0.0001
# 5 -0.0001 0.0001 0.0000 0.0000 23.4965 3.7138
# 6 0.0000 0.0000 0.0000 0.0001 3.7138 40.1901
#
#
#
# Elastic Compliance Matrix: (Units=1/GPa)
#
#
# Indices 1 2 3 4 5 6 
#
# 1 0.016346 0.003721 -0.005751 -0.001996 0.000000 0.000000
# 2 0.003721 0.016346 -0.005751 0.001996 0.000000 0.000000
# 3 -0.005751 -0.005751 0.033590 0.000000 0.000000 0.000000
# 4 -0.001996 0.001996 0.000000 0.043190 0.000000 0.000000
# 5 0.000000 0.000000 0.000000 0.000000 0.043190 -0.003991
# 6 0.000000 0.000000 0.000000 0.000000 -0.003991 0.025251
#
#
# Mechanical properties :
#
#
# Convention : Reuss Voigt Hill
#
# Bulk Modulus (GPa) = 19.71686 20.15227 19.93456
# Shear Modulus (GPa) = 23.76610 28.25573 26.01091
#
# Velocity S-wave (km/s) = 3.07753 3.35565 3.21959
# Velocity P-wave (km/s) = 4.52612 4.80050 4.66533
#
# Compressibility (1/GPa) = 0.05071802
#
# Stress axis : x y z
#
# Youngs Moduli (GPa) = 61.17719 61.17719 29.77049
#
# Poissons Ratio (x) = -0.22762 0.17122
# Poissons Ratio (y) = -0.22762 0.17122
# Poissons Ratio (z) = 0.35185 0.35185
#
# Static dielectric constant tensor:
#      x y z
#    x 2.067650 0.000000 0.000000 
#    y 0.000000 2.067650 0.000000 
#    z 0.000000 0.000000 1.980890 
# 
# From -- ./inp_files/2922.got.cif
#   From: 2010.05.17/outbox.cif.g08.bks.cpg/sg152_2_cif.got.tgz:2922.got - 2010.05.20 10:36:06.
