data_PCOD9575187
_publ_section_title
;
Structure prediction by ZEFSAII (Michael W. Deem and Ramdas Pophale) SiO2 
 PCOD9575187
Probable space group: R -3
;
_chemical_formula_sum "Si O2"
_cell_formula_units_Z 114
_cell_length_a 21.848017
_cell_length_b 21.848017
_cell_length_c 13.914306
_cell_angle_alpha 90.000000
_cell_angle_beta 90.000000
_cell_angle_gamma 120.000000
_cell_volume 5751.964961
_symmetry_space_group_name_H-M "R -3"
_symmetry_group_IT_number 148
_symmetry_cell_setting 'hexagonal'
loop_
_space_group_symop_operation_xyz
x,y,z
-y,x-y,z
-x+y,-x,z
-x,-y,-z
y,-x+y,-z
x-y,x,-z
2/3+x,1/3+y,1/3+z
2/3-y,1/3+x-y,1/3+z
2/3-x+y,1/3-x,1/3+z
2/3-x,1/3-y,1/3-z
2/3+y,1/3-x+y,1/3-z
2/3+x-y,1/3+x,1/3-z
1/3+x,2/3+y,2/3+z
1/3-y,2/3+x-y,2/3+z
1/3-x+y,2/3-x,2/3+z
1/3-x,2/3-y,2/3-z
1/3+y,2/3-x+y,2/3-z
1/3+x-y,2/3+x,2/3-z
loop_
_atom_site_type_symbol
_atom_site_label
_atom_site_fract_x
_atom_site_fract_y
_atom_site_fract_z
Si Si1 0.428464 0.296065 0.407684
Si Si2 0.737169 0.829523 0.819439
Si Si3 0.860187 0.099318 0.762016
Si Si4 0.000000 0.000000 0.886876
Si Si5 0.757294 0.163996 0.773335
Si Si6 0.867136 0.846958 0.119441
Si Si7 0.404244 0.142462 0.935094
O O1 0.431225 0.363808 0.457120
O O2 0.444110 0.253592 0.490422
O O3 0.483139 0.320408 0.317912
O O4 0.346809 0.242192 0.384282
O O5 0.666667 0.833334 0.833334
O O6 0.801705 0.896936 0.866790
O O7 0.760095 0.831092 0.710481
O O8 0.800572 0.122095 0.764791
O O9 0.892297 0.120677 0.655440
O O10 0.828425 0.019760 0.798392
O O11 0.073539 0.071220 0.864363
O O12 0.000000 0.000000 0.000000
O O13 0.791937 0.212619 0.866539
O O14 0.673876 0.109745 0.774950
#
# Coordination Sequence:
#
# PCOD9575187 Si02
#       7
#    18  18  18   6  18  18  18
#     4  11  23  43  67  97 136 168 217 280 336 398
#     4  12  25  43  64 102 134 169 222 281 336 397
#     4  10  22  44  66  95 131 177 216 270 334 402
#     4  12  24  39  66  96 130 182 211 261 327 411
#     4  10  24  44  68  94 131 177 225 274 332 396
#     4  12  25  41  68  99 137 176 220 268 341 404
#     4  11  25  45  70  98 131 177 223 282 331 401
#
# _framework density 19.819313999999999
#
# number of rings (size 3 to 8) (size 9 to 14) (size 15 to 20)
#    0.000    0.947    3.158    3.789    6.632    0.000 
#    0.000    0.000    0.000    0.316    0.000    0.000 
#    0.000    0.000    0.000    0.000    0.000    0.000 
#
# Total GULP energy -211975.309882 kJ/mol
# GULP energy per Si atom -5578.297628 kJ/mol
# Density = 1.977420 g / cm^3
# Si number density = 19.819314 Si / 1000 Ang^3
#
#
#
# Elastic Constant Matrix: (Units=GPa)
#
#
# Indices 1 2 3 4 5 6 
#
# 1 73.7003 21.1717 30.5197 -4.2297 -4.1546 0.0000
# 2 21.1717 73.7003 30.5197 4.2297 4.1546 0.0000
# 3 30.5197 30.5197 99.6988 0.0000 0.0000 0.0000
# 4 -4.2297 4.2297 0.0000 32.6517 0.0000 4.1546
# 5 -4.1546 4.1546 0.0000 0.0000 32.6517 -4.2297
# 6 0.0000 0.0000 0.0000 4.1546 -4.2297 26.2643
#
#
#
# Elastic Compliance Matrix: (Units=1/GPa)
#
#
# Indices 1 2 3 4 5 6 
#
# 1 0.016488 -0.003363 -0.004018 0.002571 0.002526 0.000000
# 2 -0.003363 0.016488 -0.004018 -0.002571 -0.002526 0.000000
# 3 -0.004018 -0.004018 0.012490 0.000000 0.000000 0.000000
# 4 0.002571 -0.002571 0.000000 0.031935 0.000000 -0.005052
# 5 0.002526 -0.002526 0.000000 0.000000 0.031935 0.005143
# 6 0.000000 0.000000 0.000000 -0.005052 0.005143 0.039702
#
#
# Mechanical properties :
#
#
# Convention : Reuss Voigt Hill
#
# Bulk Modulus (GPa) = 44.11222 45.72462 44.91842
# Shear Modulus (GPa) = 27.87178 29.30608 28.58893
#
# Velocity S-wave (km/s) = 3.75413 3.84951 3.80212
# Velocity P-wave (km/s) = 6.41068 6.54822 6.47981
#
# Compressibility (1/GPa) = 0.02266946
#
# Stress axis : x y z
#
# Youngs Moduli (GPa) = 60.64909 60.64909 80.06271
#
# Poissons Ratio (x) = 0.20394 0.32169
# Poissons Ratio (y) = 0.20394 0.32169
# Poissons Ratio (z) = 0.24369 0.24369
#
# Static dielectric constant tensor:
#      x y z
#    x 1.684700 0.000000 0.000000 
#    y 0.000000 1.684700 0.000000 
#    z 0.000000 0.000000 1.697880 
# 
# From -- ./inp_files/2134.got.cif
#   From: 2010.05.17/outbox.cif.g08.bks.cpg/sg148_2_cif.got.tgz:2134.got - 2010.05.20 13:50:20.
