data_PCOD9575289
_publ_section_title
;
Structure prediction by ZEFSAII (Michael W. Deem and Ramdas Pophale) SiO2 
 PCOD9575289
Probable space group: R -3
;
_chemical_formula_sum "Si O2"
_cell_formula_units_Z 60
_cell_length_a 12.460528
_cell_length_b 12.460528
_cell_length_c 17.281283
_cell_angle_alpha 90.000000
_cell_angle_beta 90.000000
_cell_angle_gamma 120.000000
_cell_volume 2323.697040
_symmetry_space_group_name_H-M "R -3"
_symmetry_group_IT_number 148
_symmetry_cell_setting 'hexagonal'
loop_
_space_group_symop_operation_xyz
x,y,z
-y,x-y,z
-x+y,-x,z
-x,-y,-z
y,-x+y,-z
x-y,x,-z
2/3+x,1/3+y,1/3+z
2/3-y,1/3+x-y,1/3+z
2/3-x+y,1/3-x,1/3+z
2/3-x,1/3-y,1/3-z
2/3+y,1/3-x+y,1/3-z
2/3+x-y,1/3+x,1/3-z
1/3+x,2/3+y,2/3+z
1/3-y,2/3+x-y,2/3+z
1/3-x+y,2/3-x,2/3+z
1/3-x,2/3-y,2/3-z
1/3+y,2/3-x+y,2/3-z
1/3+x-y,2/3+x,2/3-z
loop_
_atom_site_type_symbol
_atom_site_label
_atom_site_fract_x
_atom_site_fract_y
_atom_site_fract_z
Si Si1 0.339746 0.913230 0.331870
Si Si2 0.804437 0.084189 0.092533
Si Si3 0.398953 0.889256 0.113194
Si Si4 0.666667 0.333334 0.242379
O O1 0.261676 0.911701 0.407540
O O2 0.272090 0.776705 0.293878
O O3 0.482713 0.998041 0.355817
O O4 0.331619 0.995619 0.262319
O O5 0.833334 0.166667 0.166667
O O6 0.881799 0.014565 0.108543
O O7 0.477265 0.884340 0.187071
O O8 0.666668 0.333335 0.333334
#
# Coordination Sequence:
#
# PCOD9575289 Si02
#       4
#    18  18  18   6
#     4  11  24  43  70 106 138 187 254 311 378 474
#     4  12  25  44  78 110 146 195 255 309 378 460
#     4  11  24  43  67  95 143 192 235 310 398 450
#     4  12  24  51  78 102 162 204 238 317 385 432
#
# _framework density 25.820921999999999
#
# number of rings (size 3 to 8) (size 9 to 14) (size 15 to 20)
#    0.000    0.600    3.000    3.900    0.000    9.600 
#    0.000    3.000    0.000    0.000    0.000    0.000 
#    0.000    0.000    0.000    0.000    0.000    0.000 
#
# Total GULP energy -111604.642856 kJ/mol
# GULP energy per Si atom -5580.232143 kJ/mol
# Density = 2.576215 g / cm^3
# Si number density = 25.820922 Si / 1000 Ang^3
#
#
#
# Elastic Constant Matrix: (Units=GPa)
#
#
# Indices 1 2 3 4 5 6 
#
# 1 120.1703 43.3137 32.5467 -1.1687 3.7028 -0.0003
# 2 43.3137 120.1693 32.5463 1.1686 -3.7027 -0.0004
# 3 32.5467 32.5463 109.4938 0.0001 0.0002 -0.0001
# 4 -1.1687 1.1686 0.0001 51.3660 -0.0001 -3.7027
# 5 3.7028 -3.7027 0.0002 -0.0001 51.3666 -1.1686
# 6 -0.0003 -0.0004 -0.0001 -3.7027 -1.1686 38.4278
#
#
#
# Elastic Compliance Matrix: (Units=1/GPa)
#
#
# Indices 1 2 3 4 5 6 
#
# 1 0.010025 -0.003087 -0.002062 0.000298 -0.000945 0.000000
# 2 -0.003087 0.010025 -0.002062 -0.000298 0.000945 0.000000
# 3 -0.002062 -0.002062 0.010359 0.000000 0.000000 0.000000
# 4 0.000298 -0.000298 0.000000 0.019618 0.000000 0.001890
# 5 -0.000945 0.000945 0.000000 0.000000 0.019618 0.000597
# 6 0.000000 0.000000 0.000000 0.001890 0.000597 0.026223
#
#
# Mechanical properties :
#
#
# Convention : Reuss Voigt Hill
#
# Bulk Modulus (GPa) = 62.55572 62.96074 62.75823
# Shear Modulus (GPa) = 43.24572 44.32718 43.78645
#
# Velocity S-wave (km/s) = 4.09691 4.14782 4.12245
# Velocity P-wave (km/s) = 6.83073 6.88301 6.85692
#
# Compressibility (1/GPa) = 0.01598575
#
# Stress axis : x y z
#
# Youngs Moduli (GPa) = 99.75390 99.75318 96.53499
#
# Poissons Ratio (x) = 0.30791 0.19908
# Poissons Ratio (y) = 0.30792 0.19908
# Poissons Ratio (z) = 0.20572 0.20572
#
# Static dielectric constant tensor:
#      x y z
#    x 2.071600 0.000000 0.000000 
#    y 0.000000 2.071600 0.000000 
#    z 0.000000 0.000000 2.060160 
# 
# From -- ./inp_files/1835.got.cif
#   From: 2010.05.17/outbox.cif.g08.bks.cpg/sg148_1_cif.got.tgz:1835.got - 2010.05.20 13:50:20.
