data_PCOD9575700
_publ_section_title
;
Structure prediction by ZEFSAII (Michael W. Deem and Ramdas Pophale) SiO2 
 PCOD9575700
Probable space group: P 31 1 2
;
_chemical_formula_sum "Si O2"
_cell_formula_units_Z 36
_cell_length_a 9.000000
_cell_length_b 9.000000
_cell_length_c 27.000000
_cell_angle_alpha 90.000000
_cell_angle_beta 90.000000
_cell_angle_gamma 120.000000
_cell_volume 1893.997558
_symmetry_space_group_name_H-M "P 31 1 2"
_symmetry_group_IT_number 151
_symmetry_cell_setting 'hexagonal'
loop_
_space_group_symop_operation_xyz
x,y,z
-y,x-y,1/3+z
-x+y,-x,2/3+z
-y,-x,2/3-z
-x+y,y,1/3-z
x,x-y,-z
loop_
_atom_site_type_symbol
_atom_site_label
_atom_site_fract_x
_atom_site_fract_y
_atom_site_fract_z
Si Si1 0.669147 0.915857 0.447461
Si Si2 0.618991 0.257583 0.886488
Si Si3 0.917289 0.657456 0.295551
Si Si4 0.278614 0.668220 0.279601
Si Si5 0.937113 0.967107 0.890438
Si Si6 0.393232 0.351733 0.743696
O O1 0.664768 0.832384 0.500000
O O2 0.500197 0.773835 0.418841
O O3 0.855326 0.962806 0.426641
O O4 0.660322 0.090191 0.450888
O O5 0.711925 0.288076 0.833334
O O6 0.714368 0.220352 0.931323
O O7 0.616895 0.429926 0.900241
O O8 0.902150 0.639410 0.355284
O O9 0.099042 0.665218 0.287662
O O10 0.937510 0.822874 0.265690
O O11 0.345587 0.654414 0.333334
O O12 0.395003 0.861724 0.259346
O O13 0.780201 0.770601 0.890694
O O14 0.962882 0.037119 0.833334
#
# Coordination Sequence:
#
# PCOD9575700 Si02
#       6
#     6   6   6   6   6   6
#     4  10  21  37  55  82 118 150 189 242 293 353
#     4  11  21  36  59  85 114 153 198 245 295 357
#     4   9  19  37  60  82 112 152 196 243 295 356
#     4   8  17  36  59  79 108 149 191 236 290 348
#     4  10  19  36  58  83 117 154 192 240 298 355
#     4  10  20  38  60  85 114 152 196 244 298 359
#
# _framework density 19.007415999999999
#
# number of rings (size 3 to 8) (size 9 to 14) (size 15 to 20)
#    0.000    2.333    0.000    4.500    0.000    0.667 
#    0.000   20.000    0.000    0.000    0.000    0.000 
#    0.000    0.000    0.000    0.000    0.000    0.000 
#
# Total GULP energy -200661.894635 kJ/mol
# GULP energy per Si atom -5573.941518 kJ/mol
# Density = 1.896415 g / cm^3
# Si number density = 19.007416 Si / 1000 Ang^3
#
#
#
# Elastic Constant Matrix: (Units=GPa)
#
#
# Indices 1 2 3 4 5 6 
#
# 1 78.1446 23.9556 26.7476 -0.0002 -1.0164 0.0000
# 2 23.9556 78.1446 26.7476 0.0002 1.0164 0.0000
# 3 26.7476 26.7476 96.7053 0.0000 0.0000 0.0000
# 4 -0.0002 0.0002 0.0000 25.9660 0.0000 1.0164
# 5 -1.0164 1.0164 0.0000 0.0000 25.9660 -0.0002
# 6 0.0000 0.0000 0.0000 1.0164 -0.0002 27.0945
#
#
#
# Elastic Compliance Matrix: (Units=1/GPa)
#
#
# Indices 1 2 3 4 5 6 
#
# 1 0.014968 -0.003513 -0.003168 0.000000 0.000723 0.000000
# 2 -0.003513 0.014968 -0.003168 0.000000 -0.000723 0.000000
# 3 -0.003168 -0.003168 0.012093 0.000000 0.000000 0.000000
# 4 0.000000 0.000000 0.000000 0.038568 0.000000 -0.001447
# 5 0.000723 -0.000723 0.000000 0.000000 0.038568 0.000000
# 6 0.000000 0.000000 0.000000 -0.001447 0.000000 0.036962
#
#
# Mechanical properties :
#
#
# Convention : Reuss Voigt Hill
#
# Bulk Modulus (GPa) = 44.78434 45.32179 45.05306
# Shear Modulus (GPa) = 27.28215 27.50822 27.39519
#
# Velocity S-wave (km/s) = 3.79270 3.80838 3.80055
# Velocity P-wave (km/s) = 6.54157 6.57529 6.55845
#
# Compressibility (1/GPa) = 0.02232924
#
# Stress axis : x y z
#
# Youngs Moduli (GPa) = 66.81075 66.81075 82.69093
#
# Poissons Ratio (x) = 0.23473 0.26197
# Poissons Ratio (y) = 0.23473 0.26197
# Poissons Ratio (z) = 0.21166 0.21166
#
# Static dielectric constant tensor:
#      x y z
#    x 1.676500 0.000000 0.000000 
#    y 0.000000 1.676500 0.000000 
#    z 0.000000 0.000000 1.696830 
# 
# From -- ./inp_files/4630.got.cif
#   From: 2010.05.17/outbox.ucp.g08.bks.cvg/sg151_3_cif.got.tgz:4630.got - 2010.06.11 15:12:55.
