data_PCOD9575502
_publ_section_title
;
Structure prediction by ZEFSAII (Michael W. Deem and Ramdas Pophale) SiO2 
 PCOD9575502
Probable space group: P 31 1 2
;
_chemical_formula_sum "Si O2"
_cell_formula_units_Z 24
_cell_length_a 11.154372
_cell_length_b 11.154372
_cell_length_c 12.706962
_cell_angle_alpha 90.000000
_cell_angle_beta 90.000000
_cell_angle_gamma 120.000000
_cell_volume 1369.186509
_symmetry_space_group_name_H-M "P 31 1 2"
_symmetry_group_IT_number 151
_symmetry_cell_setting 'hexagonal'
loop_
_space_group_symop_operation_xyz
x,y,z
-y,x-y,1/3+z
-x+y,-x,2/3+z
-y,-x,2/3-z
-x+y,y,1/3-z
x,x-y,-z
loop_
_atom_site_type_symbol
_atom_site_label
_atom_site_fract_x
_atom_site_fract_y
_atom_site_fract_z
Si Si1 0.677262 0.529949 0.418674
Si Si2 0.959584 0.633201 0.692746
Si Si3 0.985491 0.014510 0.833334
Si Si4 0.049481 0.213129 0.011936
Si Si5 0.899702 0.449851 0.500000
O O1 0.581971 0.418030 0.333334
O O2 0.621778 0.541373 0.534600
O O3 0.716256 0.675582 0.366005
O O4 0.802451 0.501684 0.445167
O O5 0.825017 0.650033 0.666667
O O6 0.980582 0.557544 0.593079
O O7 0.087195 0.788217 0.707928
O O8 0.842688 0.962898 0.772916
O O9 0.097063 0.021043 0.750906
#
# Coordination Sequence:
#
# PCOD9575502 Si02
#       5
#     6   6   3   6   3
#     4  11  21  34  55  83 114 152 190 239 289 361
#     4  10  18  36  59  80 111 153 188 239 309 353
#     4  10  18  31  58  87 108 136 190 240 294 352
#     4  11  19  35  57  86 113 152 190 241 305 359
#     4  10  22  35  58  81 116 150 194 242 302 356
#
# _framework density 17.528656999999999
#
# number of rings (size 3 to 8) (size 9 to 14) (size 15 to 20)
#    0.000    1.500    5.000    3.750    0.000    3.000 
#    0.000    0.000    5.500    0.000    0.000    0.000 
#    0.000    0.000    0.000    0.000    0.000    0.000 
#
# Total GULP energy -133749.271065 kJ/mol
# GULP energy per Si atom -5572.886294 kJ/mol
# Density = 1.748876 g / cm^3
# Si number density = 17.528657 Si / 1000 Ang^3
#
#
#
# Elastic Constant Matrix: (Units=GPa)
#
#
# Indices 1 2 3 4 5 6 
#
# 1 44.9372 10.6160 33.3237 -0.0004 -1.4119 0.0000
# 2 10.6160 44.9372 33.3237 0.0004 1.4119 0.0000
# 3 33.3237 33.3237 104.1053 0.0000 0.0000 0.0000
# 4 -0.0004 0.0004 0.0000 27.3555 0.0000 1.4119
# 5 -1.4119 1.4119 0.0000 0.0000 27.3555 -0.0004
# 6 0.0000 0.0000 0.0000 1.4119 -0.0004 17.1606
#
#
#
# Elastic Compliance Matrix: (Units=1/GPa)
#
#
# Indices 1 2 3 4 5 6 
#
# 1 0.029242 -0.000019 -0.009354 0.000000 0.001510 0.000000
# 2 -0.000019 0.029242 -0.009354 0.000000 -0.001510 0.000000
# 3 -0.009354 -0.009354 0.015594 0.000000 0.000000 0.000000
# 4 0.000000 0.000000 0.000000 0.036712 0.000000 -0.003020
# 5 0.001510 -0.001510 0.000000 0.000000 0.036712 0.000001
# 6 0.000000 0.000000 0.000000 -0.003020 0.000001 0.058522
#
#
# Mechanical properties :
#
#
# Convention : Reuss Voigt Hill
#
# Bulk Modulus (GPa) = 27.30494 38.72297 33.01396
# Shear Modulus (GPa) = 19.55533 22.15541 20.85537
#
# Velocity S-wave (km/s) = 3.34371 3.55907 3.45307
# Velocity P-wave (km/s) = 5.52434 6.24728 5.89690
#
# Compressibility (1/GPa) = 0.03662341
#
# Stress axis : x y z
#
# Youngs Moduli (GPa) = 34.19755 34.19755 64.12672
#
# Poissons Ratio (x) = 0.00065 0.59985
# Poissons Ratio (y) = 0.00065 0.59985
# Poissons Ratio (z) = 0.31989 0.31989
#
# Static dielectric constant tensor:
#      x y z
#    x 1.591010 0.000000 0.000000 
#    y 0.000000 1.591010 0.000000 
#    z 0.000000 0.000000 1.663360 
# 
# From -- ./inp_files/2376.got.cif
#   From: 2010.05.17/outbox.cif.g08.bks.cpg/sg151_2_cif.got.tgz:2376.got - 2010.05.20 10:33:20.
