data_PCOD9575491
_publ_section_title
;
Structure prediction by ZEFSAII (Michael W. Deem and Ramdas Pophale) SiO2 
 PCOD9575491
Probable space group: P 31 1 2
;
_chemical_formula_sum "Si O2"
_cell_formula_units_Z 30
_cell_length_a 11.231028
_cell_length_b 11.231028
_cell_length_c 14.539212
_cell_angle_alpha 90.000000
_cell_angle_beta 90.000000
_cell_angle_gamma 120.000000
_cell_volume 1588.219489
_symmetry_space_group_name_H-M "P 31 1 2"
_symmetry_group_IT_number 151
_symmetry_cell_setting 'hexagonal'
loop_
_space_group_symop_operation_xyz
x,y,z
-y,x-y,1/3+z
-x+y,-x,2/3+z
-y,-x,2/3-z
-x+y,y,1/3-z
x,x-y,-z
loop_
_atom_site_type_symbol
_atom_site_label
_atom_site_fract_x
_atom_site_fract_y
_atom_site_fract_z
Si Si1 0.272362 0.945324 0.607209
Si Si2 0.094837 0.905164 0.333334
Si Si3 0.476229 0.704718 0.608540
Si Si4 0.599146 0.979466 0.916449
Si Si5 0.565665 0.282833 0.500000
Si Si6 0.954401 0.908803 0.166667
Si Si7 0.578812 0.421189 0.333334
O O1 0.205648 0.822568 0.679177
O O2 0.312594 0.899076 0.512415
O O3 0.182173 0.008061 0.567743
O O4 0.417300 0.060985 0.648748
O O5 0.036434 0.744932 0.311068
O O6 0.074313 0.976120 0.242241
O O7 0.354235 0.708469 0.666667
O O8 0.472963 0.736482 0.500000
O O9 0.458855 0.554255 0.621263
O O10 0.664090 0.137796 0.886068
O O11 0.644628 0.393653 0.422237
#
# Coordination Sequence:
#
# PCOD9575491 Si02
#       7
#     6   3   6   6   3   3   3
#     4  10  19  36  58  87 114 156 203 248 306 374
#     4  10  18  35  60  79 114 152 204 242 290 366
#     4  12  20  33  56  91 129 153 193 265 330 366
#     4  10  19  33  58  88 112 156 200 248 304 376
#     4  10  21  36  62  84 110 160 211 234 303 374
#     4  10  23  40  62  88 110 168 211 240 309 386
#     4  10  16  33  58  79 108 148 198 244 284 366
#
# _framework density 18.889078000000001
#
# number of rings (size 3 to 8) (size 9 to 14) (size 15 to 20)
#    0.000    1.600    4.000    6.600    0.000    0.000 
#    1.800    0.000   19.800    0.000    0.000    0.000 
#    0.000    0.000    0.000    0.000    0.000    0.000 
#
# Total GULP energy -167092.215254 kJ/mol
# GULP energy per Si atom -5569.740508 kJ/mol
# Density = 1.884609 g / cm^3
# Si number density = 18.889078 Si / 1000 Ang^3
#
#
#
# Elastic Constant Matrix: (Units=GPa)
#
#
# Indices 1 2 3 4 5 6 
#
# 1 68.4700 19.4794 47.2900 0.0001 -3.0945 0.0000
# 2 19.4794 68.4700 47.2900 -0.0001 3.0945 0.0000
# 3 47.2900 47.2900 137.9782 0.0000 0.0000 0.0000
# 4 0.0001 -0.0001 0.0000 41.9446 0.0000 3.0945
# 5 -3.0945 3.0945 0.0000 0.0000 41.9446 0.0001
# 6 0.0000 0.0000 0.0000 3.0945 0.0001 24.4953
#
#
#
# Elastic Compliance Matrix: (Units=1/GPa)
#
#
# Indices 1 2 3 4 5 6 
#
# 1 0.019306 -0.001298 -0.006172 0.000000 0.001520 0.000000
# 2 -0.001298 0.019306 -0.006172 0.000000 -0.001520 0.000000
# 3 -0.006172 -0.006172 0.011478 0.000000 0.000000 0.000000
# 4 0.000000 0.000000 0.000000 0.024065 0.000000 -0.003040
# 5 0.001520 -0.001520 0.000000 0.000000 0.024065 0.000000
# 6 0.000000 0.000000 0.000000 -0.003040 0.000000 0.041208
#
#
# Mechanical properties :
#
#
# Convention : Reuss Voigt Hill
#
# Bulk Modulus (GPa) = 43.84890 55.89297 49.87093
# Shear Modulus (GPa) = 28.68395 32.40082 30.54239
#
# Velocity S-wave (km/s) = 3.90108 4.14614 4.02547
# Velocity P-wave (km/s) = 6.59966 7.25086 6.93291
#
# Compressibility (1/GPa) = 0.02280559
#
# Stress axis : x y z
#
# Youngs Moduli (GPa) = 51.79841 51.79841 87.12301
#
# Poissons Ratio (x) = 0.06726 0.53770
# Poissons Ratio (y) = 0.06726 0.53770
# Poissons Ratio (z) = 0.31968 0.31968
#
# Static dielectric constant tensor:
#      x y z
#    x 1.690470 0.000000 0.000000 
#    y 0.000000 1.690470 0.000000 
#    z 0.000000 0.000000 1.719860 
# 
# From -- ./inp_files/2866.got.cif
#   From: 2010.05.17/outbox.cif.g08.bks.cpg/sg151_2_cif.got.tgz:2866.got - 2010.05.20 10:33:20.
