data_PCOD9575999
_publ_section_title
;
Structure prediction by ZEFSAII (Michael W. Deem and Ramdas Pophale) SiO2 
 PCOD9575999
Probable space group: P 31 2 1
;
_chemical_formula_sum "Si O2"
_cell_formula_units_Z 24
_cell_length_a 9.559936
_cell_length_b 9.559936
_cell_length_c 10.926578
_cell_angle_alpha 90.000000
_cell_angle_beta 90.000000
_cell_angle_gamma 120.000000
_cell_volume 864.818102
_symmetry_space_group_name_H-M "P 31 2 1"
_symmetry_group_IT_number 152
_symmetry_cell_setting 'hexagonal'
loop_
_space_group_symop_operation_xyz
x,y,z
-y,x-y,1/3+z
-x+y,-x,2/3+z
x-y,-y,2/3-z
-x,-x+y,1/3-z
y,x,-z
loop_
_atom_site_type_symbol
_atom_site_label
_atom_site_fract_x
_atom_site_fract_y
_atom_site_fract_z
Si Si1 0.231027 0.508362 0.851493
Si Si2 0.510904 0.510904 0.000000
Si Si3 0.786445 0.279268 0.981230
Si Si4 0.241348 0.241348 0.500000
Si Si5 0.000000 0.955411 0.666667
Si Si6 0.000000 0.243592 0.166667
O O1 0.336708 0.480103 0.953521
O O2 0.062656 0.417352 0.776579
O O3 0.357880 0.564285 0.740212
O O4 0.212721 0.651083 0.914053
O O5 0.943581 0.308305 0.054333
O O6 0.738717 0.151267 0.870808
O O7 0.126917 0.134964 0.387316
O O8 0.930643 0.818125 0.562505
#
# Coordination Sequence:
#
# PCOD9575999 Si02
#       6
#     6   3   6   3   3   3
#     4  10  24  45  70 104 148 193 250 312 382 452
#     4  10  24  48  76 112 156 204 256 316 384 458
#     4  10  22  38  64 100 142 198 250 310 376 450
#     4   9  18  35  62  96 146 194 252 308 374 448
#     4   8  16  34  60 104 148 198 248 310 376 450
#     4   9  18  35  62  96 146 194 252 308 374 448
#
# _framework density 27.751498999999999
#
# number of rings (size 3 to 8) (size 9 to 14) (size 15 to 20)
#    0.000    2.500    0.000    0.000    0.000   11.000 
#    0.000    5.000    0.000    0.000    0.000    0.000 
#    0.000  130.000    0.000    0.000    0.000    0.000 
#
# Total GULP energy -133939.781979 kJ/mol
# GULP energy per Si atom -5580.824249 kJ/mol
# Density = 2.768834 g / cm^3
# Si number density = 27.751499 Si / 1000 Ang^3
#
#
#
# Elastic Constant Matrix: (Units=GPa)
#
#
# Indices 1 2 3 4 5 6 
#
# 1 69.4828 16.8444 13.2677 -1.1751 0.0000 0.0000
# 2 16.8444 69.4828 13.2677 1.1751 0.0000 0.0000
# 3 13.2677 13.2677 122.4762 0.0000 0.0000 0.0000
# 4 -1.1751 1.1751 0.0000 54.8019 0.0000 0.0000
# 5 0.0000 0.0000 0.0000 0.0000 54.8019 -1.1751
# 6 0.0000 0.0000 0.0000 0.0000 -1.1751 26.3192
#
#
#
# Elastic Compliance Matrix: (Units=1/GPa)
#
#
# Indices 1 2 3 4 5 6 
#
# 1 0.015499 -0.003516 -0.001298 0.000408 0.000000 0.000000
# 2 -0.003516 0.015499 -0.001298 -0.000408 0.000000 0.000000
# 3 -0.001298 -0.001298 0.008446 0.000000 0.000000 0.000000
# 4 0.000408 -0.000408 0.000000 0.018265 0.000000 0.000000
# 5 0.000000 0.000000 0.000000 0.000000 0.018265 0.000815
# 6 0.000000 0.000000 0.000000 0.000000 0.000815 0.038031
#
#
# Mechanical properties :
#
#
# Convention : Reuss Voigt Hill
#
# Bulk Modulus (GPa) = 36.73846 38.68904 37.71375
# Shear Modulus (GPa) = 36.95367 41.72206 39.33787
#
# Velocity S-wave (km/s) = 3.65306 3.88160 3.76906
# Velocity P-wave (km/s) = 5.57317 5.83614 5.70617
#
# Compressibility (1/GPa) = 0.02721943
#
# Stress axis : x y z
#
# Youngs Moduli (GPa) = 64.51912 64.51912 118.39795
#
# Poissons Ratio (x) = 0.22688 0.15369
# Poissons Ratio (y) = 0.22688 0.15369
# Poissons Ratio (z) = 0.08375 0.08375
#
# Static dielectric constant tensor:
#      x y z
#    x 2.220680 0.000000 0.000000 
#    y 0.000000 2.220680 0.000000 
#    z 0.000000 0.000000 2.211410 
# 
# From -- ./inp_files/1715.got.cif
#   From: 2010.05.17/outbox.cif.g08.bks.cpg/sg152_1_cif.got.tgz:1715.got - 2010.05.20 10:36:06.
