data_PCOD9575341
_publ_section_title
;
Structure prediction by ZEFSAII (Michael W. Deem and Ramdas Pophale) SiO2 
 PCOD9575341
Probable space group: P 3 1 2
;
_chemical_formula_sum "Si O2"
_cell_formula_units_Z 48
_cell_length_a 27.087152
_cell_length_b 27.087152
_cell_length_c 5.441932
_cell_angle_alpha 90.000000
_cell_angle_beta 90.000000
_cell_angle_gamma 120.000000
_cell_volume 3457.884095
_symmetry_space_group_name_H-M "P 3 1 2"
_symmetry_group_IT_number 149
_symmetry_cell_setting 'hexagonal'
loop_
_space_group_symop_operation_xyz
x,y,z
-y,x-y,z
-x+y,-x,z
-y,-x,-z
-x+y,y,-z
x,x-y,-z
loop_
_atom_site_type_symbol
_atom_site_label
_atom_site_fract_x
_atom_site_fract_y
_atom_site_fract_z
Si Si1 0.681408 0.949015 0.999998
Si Si2 0.678681 0.897081 0.499998
Si Si3 0.819349 0.522349 0.000002
Si Si4 0.007816 0.187089 0.500002
Si Si5 0.154364 0.958203 0.000001
Si Si6 0.782789 0.450013 0.500002
Si Si7 0.904653 0.693256 0.499999
Si Si8 0.717164 0.073761 0.999999
O O1 0.658667 0.913507 0.749564
O O2 0.676416 0.005452 1.000000
O O3 0.658667 0.913506 0.250429
O O4 0.749473 0.968438 0.999998
O O5 0.665423 0.832712 0.500000
O O6 0.747819 0.937978 0.499997
O O7 0.808735 0.486274 0.250072
O O8 0.913680 0.666942 0.251031
O O9 0.770580 0.541160 0.000000
O O10 0.882564 0.576268 0.999999
O O11 0.951138 0.191148 0.500001
O O12 0.014411 0.161903 0.753052
O O13 0.014412 0.161903 0.246951
O O14 0.109055 0.890946 0.000000
O O15 0.716419 0.432838 0.500000
O O16 0.789142 0.394571 0.500000
O O17 0.808734 0.486273 0.749935
O O18 0.841949 0.683898 0.500000
O O19 0.913681 0.666942 0.748965
#
# Coordination Sequence:
#
# PCOD9575341 Si02
#       8
#     6   6   6   6   6   6   6   6
#     4  10  16  26  38  54  75 101 131 154 184 221
#     4  10  16  25  39  54  73  96 126 163 193 217
#     4  10  21  33  48  70  90 111 138 159 187 242
#     4  10  16  27  34  53  71  89 127 149 185 223
#     4  10  16  25  40  54  72  95 122 159 190 217
#     4  10  20  36  55  74  91 106 129 166 209 247
#     4  12  21  30  42  53  74 111 137 154 182 223
#     4  12  20  34  43  58  85 111 140 156 179 230
#
# _framework density 13.881321
#
# number of rings (size 3 to 8) (size 9 to 14) (size 15 to 20)
#    0.000    1.500    5.000    6.125    0.000    1.000 
#    0.000    1.250    0.000    0.000    0.000    0.000 
#    0.000    0.000    0.000   16.875    0.000    0.000 
#
# Total GULP energy -267480.493446 kJ/mol
# GULP energy per Si atom -5572.510280 kJ/mol
# Density = 1.384973 g / cm^3
# Si number density = 13.881321 Si / 1000 Ang^3
#
#
#
# Elastic Constant Matrix: (Units=GPa)
#
#
# Indices 1 2 3 4 5 6 
#
# 1 48.8477 24.3175 29.6409 0.0000 0.0001 0.0000
# 2 24.3175 48.8477 29.6409 0.0000 -0.0001 0.0000
# 3 29.6409 29.6409 153.6916 0.0000 0.0000 0.0000
# 4 0.0000 0.0000 0.0000 0.9754 0.0000 -0.0001
# 5 0.0001 -0.0001 0.0000 0.0000 0.9754 0.0000
# 6 0.0000 0.0000 0.0000 -0.0001 0.0000 12.2651
#
#
#
# Elastic Compliance Matrix: (Units=1/GPa)
#
#
# Indices 1 2 3 4 5 6 
#
# 1 0.028483 -0.012284 -0.003124 0.000000 -0.000004 0.000000
# 2 -0.012284 0.028483 -0.003124 0.000000 0.000004 0.000000
# 3 -0.003124 -0.003124 0.007712 0.000000 0.000000 0.000000
# 4 0.000000 0.000000 0.000000 1.025268 0.000000 0.000007
# 5 -0.000004 0.000004 0.000000 0.000000 1.025268 0.000000
# 6 0.000000 0.000000 0.000000 0.000007 0.000000 0.081532
#
#
# Mechanical properties :
#
#
# Convention : Reuss Voigt Hill
#
# Bulk Modulus (GPa) = 36.21473 46.50950 41.36211
# Shear Modulus (GPa) = 2.22914 14.02902 8.12908
#
# Velocity S-wave (km/s) = 1.26860 3.18251 2.42257
# Velocity P-wave (km/s) = 5.31895 6.86165 6.13896
#
# Compressibility (1/GPa) = 0.02761307
#
# Stress axis : x y z
#
# Youngs Moduli (GPa) = 35.10925 35.10925 129.67530
#
# Poissons Ratio (x) = 0.43126 0.40512
# Poissons Ratio (y) = 0.43126 0.40512
# Poissons Ratio (z) = 0.10969 0.10969
#
# Static dielectric constant tensor:
#      x y z
#    x 1.441820 0.000000 0.000000 
#    y 0.000000 1.441820 0.000000 
#    z 0.000000 0.000000 1.554050 
# 
# From -- ./inp_files/276.got.cif
#   From: 2010.05.17/outbox.cif.g08.bks.cpg/sg149_cif.got.tgz:276.got - 2010.05.20 13:52:34.
