data_PCOD9575952
_publ_section_title
;
Structure prediction by ZEFSAII (Michael W. Deem and Ramdas Pophale) SiO2 
 PCOD9575952
Probable space group: P 31 2 1
;
_chemical_formula_sum "Si O2"
_cell_formula_units_Z 42
_cell_length_a 14.141649
_cell_length_b 14.141649
_cell_length_c 11.885526
_cell_angle_alpha 90.000000
_cell_angle_beta 90.000000
_cell_angle_gamma 120.000000
_cell_volume 2058.491820
_symmetry_space_group_name_H-M "P 31 2 1"
_symmetry_group_IT_number 152
_symmetry_cell_setting 'hexagonal'
loop_
_space_group_symop_operation_xyz
x,y,z
-y,x-y,1/3+z
-x+y,-x,2/3+z
x-y,-y,2/3-z
-x,-x+y,1/3-z
y,x,-z
loop_
_atom_site_type_symbol
_atom_site_label
_atom_site_fract_x
_atom_site_fract_y
_atom_site_fract_z
Si Si1 0.426755 0.447347 0.747993
Si Si2 0.376318 0.816483 0.707253
Si Si3 0.176570 0.851389 0.733323
Si Si4 0.640099 0.411422 0.373847
Si Si5 0.087220 0.000000 0.333334
Si Si6 0.208148 0.348361 0.308144
Si Si7 0.000000 0.609139 0.666667
Si Si8 0.825409 0.852734 0.762620
O O1 0.535211 0.452204 0.698982
O O2 0.405753 0.542485 0.701600
O O3 0.345600 0.320896 0.707328
O O4 0.433441 0.454741 0.883211
O O5 0.291151 0.856949 0.728513
O O6 0.407779 0.800419 0.833544
O O7 0.338344 0.697380 0.652038
O O8 0.149352 0.860997 0.862570
O O9 0.097946 0.728573 0.694016
O O10 0.170450 0.934346 0.649307
O O11 0.751841 0.530765 0.364245
O O12 0.065187 0.095070 0.374326
O O13 0.138915 0.981451 0.445402
O O14 0.137590 0.290910 0.417880
#
# Coordination Sequence:
#
# PCOD9575952 Si02
#       8
#     6   6   6   6   3   6   3   6
#     4  10  21  40  63  91 128 167 206 263 317 380
#     4  10  22  41  64  95 122 163 221 259 308 390
#     4  10  21  38  68  87 120 160 212 261 308 366
#     4  10  21  41  64  92 126 167 209 262 321 368
#     4  10  27  38  57  90 132 154 205 252 312 393
#     4   9  21  39  64  91 119 160 215 255 301 382
#     4  10  23  38  57  98 122 158 213 250 314 377
#     4  11  22  42  61  88 123 165 202 257 316 371
#
# _framework density 20.403289000000001
#
# number of rings (size 3 to 8) (size 9 to 14) (size 15 to 20)
#    0.000    2.000    0.000    3.000   10.000    2.286 
#   10.286    2.857    0.000    0.000    0.000    0.000 
#    0.000    0.000    0.000    0.000    0.000    0.000 
#
# Total GULP energy -233873.981000 kJ/mol
# GULP energy per Si atom -5568.428119 kJ/mol
# Density = 2.035685 g / cm^3
# Si number density = 20.403289 Si / 1000 Ang^3
#
#
#
# Elastic Constant Matrix: (Units=GPa)
#
#
# Indices 1 2 3 4 5 6 
#
# 1 23.7036 1.8028 24.5065 5.0971 0.0000 0.0000
# 2 1.8028 23.7036 24.5065 -5.0971 0.0000 0.0000
# 3 24.5065 24.5065 131.8337 0.0000 0.0000 0.0000
# 4 5.0971 -5.0971 0.0000 26.4366 0.0000 0.0000
# 5 0.0000 0.0000 0.0000 0.0000 26.4366 5.0971
# 6 0.0000 0.0000 0.0000 0.0000 5.0971 10.9504
#
#
#
# Elastic Compliance Matrix: (Units=1/GPa)
#
#
# Indices 1 2 3 4 5 6 
#
# 1 0.055578 0.005415 -0.011338 -0.009671 0.000000 0.000000
# 2 0.005415 0.055578 -0.011338 0.009671 0.000000 0.000000
# 3 -0.011338 -0.011338 0.011801 0.000000 0.000000 0.000000
# 4 -0.009671 0.009671 0.000000 0.041556 0.000000 0.000000
# 5 0.000000 0.000000 0.000000 0.000000 0.041556 -0.019343
# 6 0.000000 0.000000 0.000000 0.000000 -0.019343 0.100325
#
#
# Mechanical properties :
#
#
# Convention : Reuss Voigt Hill
#
# Bulk Modulus (GPa) = 11.30782 31.20807 21.25795
# Shear Modulus (GPa) = 13.49924 21.32638 17.41281
#
# Velocity S-wave (km/s) = 2.57499 3.23653 2.92452
# Velocity P-wave (km/s) = 3.79407 5.41254 4.67389
#
# Compressibility (1/GPa) = 0.08843435
#
# Stress axis : x y z
#
# Youngs Moduli (GPa) = 17.99287 17.99287 84.74204
#
# Poissons Ratio (x) = -0.09744 0.96080
# Poissons Ratio (y) = -0.09744 0.96080
# Poissons Ratio (z) = 0.20400 0.20400
#
# Static dielectric constant tensor:
#      x y z
#    x 1.764750 0.000000 0.000000 
#    y 0.000000 1.764750 0.000000 
#    z 0.000000 0.000000 1.652620 
# 
# From -- ./inp_files/1863.got.cif
#   From: 2010.05.17/outbox.cif.g08.bks.cpg/sg152_1_cif.got.tgz:1863.got - 2010.05.20 10:36:06.
