data_PCOD9575586
_publ_section_title
;
Structure prediction by ZEFSAII (Michael W. Deem and Ramdas Pophale) SiO2 
 PCOD9575586
Probable space group: P 31 1 2
;
_chemical_formula_sum "Si O2"
_cell_formula_units_Z 24
_cell_length_a 7.650724
_cell_length_b 7.650724
_cell_length_c 20.050003
_cell_angle_alpha 90.000000
_cell_angle_beta 90.000000
_cell_angle_gamma 120.000000
_cell_volume 1016.366036
_symmetry_space_group_name_H-M "P 31 1 2"
_symmetry_group_IT_number 151
_symmetry_cell_setting 'hexagonal'
loop_
_space_group_symop_operation_xyz
x,y,z
-y,x-y,1/3+z
-x+y,-x,2/3+z
-y,-x,2/3-z
-x+y,y,1/3-z
x,x-y,-z
loop_
_atom_site_type_symbol
_atom_site_label
_atom_site_fract_x
_atom_site_fract_y
_atom_site_fract_z
Si Si1 0.329499 0.045992 0.362661
Si Si2 0.484721 0.351526 0.137867
Si Si3 0.973055 0.074250 0.427918
Si Si4 0.347153 0.983934 0.719431
O O1 0.170555 0.829446 0.333334
O O2 0.190312 0.122221 0.401284
O O3 0.487059 0.038981 0.412052
O O4 0.425360 0.209655 0.303780
O O5 0.683148 0.366295 0.166667
O O6 0.336742 0.124495 0.110392
O O7 0.398265 0.412384 0.202654
O O8 0.969713 0.984857 0.500000
O O9 0.789588 0.894427 0.385758
O O10 0.452499 0.904998 0.666667
#
# Coordination Sequence:
#
# PCOD9575586 Si02
#       4
#     6   6   6   6
#     4  10  21  41  67  94 134 180 226 285 358 411
#     4  11  21  39  69  95 134 173 230 286 339 422
#     4   9  21  38  62  91 128 177 225 281 347 413
#     4  10  20  38  61  95 131 171 217 280 354 399
#
# _framework density 23.613538999999999
#
# number of rings (size 3 to 8) (size 9 to 14) (size 15 to 20)
#    0.000    2.000    2.500    0.750    0.000    1.000 
#   13.500    0.000   11.000    0.000    0.000    0.000 
#    0.000    0.000    0.000    0.000    0.000    0.000 
#
# Total GULP energy -133691.548638 kJ/mol
# GULP energy per Si atom -5570.481193 kJ/mol
# Density = 2.355979 g / cm^3
# Si number density = 23.613539 Si / 1000 Ang^3
#
#
#
# Elastic Constant Matrix: (Units=GPa)
#
#
# Indices 1 2 3 4 5 6 
#
# 1 49.2682 5.2274 14.1566 0.0001 -1.0402 0.0000
# 2 5.2274 49.2682 14.1566 -0.0001 1.0402 0.0000
# 3 14.1566 14.1566 103.3492 0.0000 0.0000 0.0000
# 4 0.0001 -0.0001 0.0000 34.8099 0.0000 1.0402
# 5 -1.0402 1.0402 0.0000 0.0000 34.8099 0.0001
# 6 0.0000 0.0000 0.0000 1.0402 0.0001 22.0204
#
#
#
# Elastic Compliance Matrix: (Units=1/GPa)
#
#
# Indices 1 2 3 4 5 6 
#
# 1 0.021247 -0.001491 -0.002706 0.000000 0.000679 0.000000
# 2 -0.001491 0.021247 -0.002706 0.000000 -0.000679 0.000000
# 3 -0.002706 -0.002706 0.010417 0.000000 0.000000 0.000000
# 4 0.000000 0.000000 0.000000 0.028768 0.000000 -0.001359
# 5 0.000679 -0.000679 0.000000 0.000000 0.028768 0.000000
# 6 0.000000 0.000000 0.000000 -0.001359 0.000000 0.045477
#
#
# Mechanical properties :
#
#
# Convention : Reuss Voigt Hill
#
# Bulk Modulus (GPa) = 25.57228 29.88520 27.72874
# Shear Modulus (GPa) = 27.35737 29.55105 28.45421
#
# Velocity S-wave (km/s) = 3.40743 3.54141 3.47507
# Velocity P-wave (km/s) = 5.13165 5.42269 5.27918
#
# Compressibility (1/GPa) = 0.03910484
#
# Stress axis : x y z
#
# Youngs Moduli (GPa) = 47.06508 47.06508 95.99419
#
# Poissons Ratio (x) = 0.07018 0.25977
# Poissons Ratio (y) = 0.07018 0.25977
# Poissons Ratio (z) = 0.12737 0.12737
#
# Static dielectric constant tensor:
#      x y z
#    x 1.945710 0.000000 0.000000 
#    y 0.000000 1.945710 0.000000 
#    z 0.000000 0.000000 2.069370 
# 
# From -- ./inp_files/3693.got.cif
#   From: 2010.05.17/outbox.cif.g08.bks.cpg/sg151_2_cif.got.tgz:3693.got - 2010.05.20 10:33:20.
