data_PCOD9575049
_publ_section_title
;
Structure prediction by ZEFSAII (Michael W. Deem and Ramdas Pophale) SiO2 
 PCOD9575049
Probable space group: R -3
;
_chemical_formula_sum "Si O2"
_cell_formula_units_Z 144
_cell_length_a 21.675626
_cell_length_b 21.675626
_cell_length_c 19.752736
_cell_angle_alpha 90.000000
_cell_angle_beta 90.000000
_cell_angle_gamma 120.000000
_cell_volume 8037.133623
_symmetry_space_group_name_H-M "R -3"
_symmetry_group_IT_number 148
_symmetry_cell_setting 'hexagonal'
loop_
_space_group_symop_operation_xyz
x,y,z
-y,x-y,z
-x+y,-x,z
-x,-y,-z
y,-x+y,-z
x-y,x,-z
2/3+x,1/3+y,1/3+z
2/3-y,1/3+x-y,1/3+z
2/3-x+y,1/3-x,1/3+z
2/3-x,1/3-y,1/3-z
2/3+y,1/3-x+y,1/3-z
2/3+x-y,1/3+x,1/3-z
1/3+x,2/3+y,2/3+z
1/3-y,2/3+x-y,2/3+z
1/3-x+y,2/3-x,2/3+z
1/3-x,2/3-y,2/3-z
1/3+y,2/3-x+y,2/3-z
1/3+x-y,2/3+x,2/3-z
loop_
_atom_site_type_symbol
_atom_site_label
_atom_site_fract_x
_atom_site_fract_y
_atom_site_fract_z
Si Si1 0.118559 0.734266 0.761921
Si Si2 0.379545 0.945127 0.101212
Si Si3 0.365791 0.965130 0.951626
Si Si4 0.885880 0.043755 0.480716
Si Si5 0.765851 0.055910 0.868241
Si Si6 0.528154 0.947568 0.794908
Si Si7 0.038299 0.250075 0.630761
Si Si8 0.554749 0.986388 0.579676
O O1 0.049551 0.718650 0.717578
O O2 0.114614 0.658689 0.772690
O O3 0.107679 0.758800 0.836449
O O4 0.188562 0.804421 0.736873
O O5 0.399349 0.892564 0.138598
O O6 0.299738 0.927880 0.123100
O O7 0.436935 0.023275 0.130383
O O8 0.377923 0.935542 0.021006
O O9 0.375106 0.939653 0.878552
O O10 0.420418 0.049834 0.957004
O O11 0.855485 0.039648 0.404644
O O12 0.967624 0.099071 0.491587
O O13 0.845304 0.118275 0.882635
O O14 0.738095 0.985485 0.914109
O O15 0.578635 0.014840 0.748440
O O16 0.069402 0.278855 0.704865
#
# Coordination Sequence:
#
# PCOD9575049 Si02
#       8
#    18  18  18  18  18  18  18  18
#     4   9  19  35  51  79 108 144 185 235 289 347
#     4  11  19  35  54  82 110 143 185 238 285 344
#     4  10  19  33  54  79 114 135 178 233 294 338
#     4  11  24  41  57  82 116 160 199 233 282 349
#     4  11  20  35  51  82 114 148 181 237 296 347
#     4  10  20  32  51  79 116 142 182 230 282 349
#     4  10  19  33  56  81 104 145 181 232 289 332
#     4  10  19  34  56  76 110 144 188 237 289 349
#
# _framework density 17.916836
#
# number of rings (size 3 to 8) (size 9 to 14) (size 15 to 20)
#    0.000    1.750    6.250    1.625    3.500    0.500 
#    2.250    0.000    0.000    0.500    0.000    0.000 
#    0.000    3.250    0.000    0.000    0.000    0.000 
#
# Total GULP energy -267310.202884 kJ/mol
# GULP energy per Si atom -5568.962560 kJ/mol
# Density = 1.787606 g / cm^3
# Si number density = 17.916836 Si / 1000 Ang^3
#
#
#
# Elastic Constant Matrix: (Units=GPa)
#
#
# Indices 1 2 3 4 5 6 
#
# 1 32.5345 25.2906 -10.0664 5.7523 -4.3242 0.0000
# 2 25.2906 32.5345 -10.0664 -5.7523 4.3242 0.0000
# 3 -10.0664 -10.0664 66.5258 0.0000 0.0000 0.0000
# 4 5.7523 -5.7523 0.0000 6.0926 0.0000 4.3242
# 5 -4.3242 4.3242 0.0000 0.0000 6.0926 5.7523
# 6 0.0000 0.0000 0.0000 4.3242 5.7523 3.6220
#
#
#
# Elastic Compliance Matrix: (Units=1/GPa)
#
#
# Indices 1 2 3 4 5 6 
#
# 1 -0.042123 0.060378 0.002762 0.096775 -0.072749 0.000000
# 2 0.060378 -0.042123 0.002762 -0.096775 0.072749 0.000000
# 3 0.002762 0.002762 0.015868 0.000000 0.000000 0.000000
# 4 0.096775 -0.096775 0.000000 -0.121871 0.000000 0.145498
# 5 -0.072749 0.072749 0.000000 0.000000 -0.121871 0.193550
# 6 0.000000 0.000000 0.000000 0.145498 0.193550 -0.205002
#
#
# Mechanical properties :
#
#
# Convention : Reuss Voigt Hill
#
# Bulk Modulus (GPa) = 15.76603 15.76783 15.76693
# Shear Modulus (GPa) = -7.96452 11.59056 1.81302
#
# Velocity S-wave (km/s) = -2.11067 2.54620 1.00703
# Velocity P-wave (km/s) = 1.69669 4.17898 3.18925
#
# Compressibility (1/GPa) = 0.06342749
#
# Stress axis : x y z
#
# Youngs Moduli (GPa) = -23.74011 -23.74011 63.02102
#
# Poissons Ratio (x) = 1.43338 -0.17408
# Poissons Ratio (y) = 1.43338 -0.17408
# Poissons Ratio (z) = 0.06558 0.06558
#
# Static dielectric constant tensor:
#      x y z
#    x 1.647210 0.000000 0.000000 
#    y 0.000000 1.647210 0.000000 
#    z 0.000000 0.000000 1.690160 
# 
# From -- ./inp_files/3171.got.cif
#   From: 2010.05.17/outbox.cif.g08.bks.cpg/sg148_2_cif.got.tgz:3171.got - 2010.05.20 13:50:20.
