data_PCOD9575950
_publ_section_title
;
Structure prediction by ZEFSAII (Michael W. Deem and Ramdas Pophale) SiO2 
 PCOD9575950
Probable space group: P 31 2 1
;
_chemical_formula_sum "Si O2"
_cell_formula_units_Z 30
_cell_length_a 9.345716
_cell_length_b 9.345716
_cell_length_c 19.536011
_cell_angle_alpha 90.000000
_cell_angle_beta 90.000000
_cell_angle_gamma 120.000000
_cell_volume 1477.718402
_symmetry_space_group_name_H-M "P 31 2 1"
_symmetry_group_IT_number 152
_symmetry_cell_setting 'hexagonal'
loop_
_space_group_symop_operation_xyz
x,y,z
-y,x-y,1/3+z
-x+y,-x,2/3+z
x-y,-y,2/3-z
-x,-x+y,1/3-z
y,x,-z
loop_
_atom_site_type_symbol
_atom_site_label
_atom_site_fract_x
_atom_site_fract_y
_atom_site_fract_z
Si Si1 0.341117 0.091313 0.903806
Si Si2 0.552015 0.550641 0.236215
Si Si3 0.901431 0.659891 0.825573
Si Si4 0.991555 0.818346 0.361247
Si Si5 0.324486 0.503772 0.355664
O O1 0.285683 0.223882 0.885794
O O2 0.520717 0.164269 0.936465
O O3 0.333737 0.000000 0.833334
O O4 0.196501 0.959940 0.952173
O O5 0.500391 0.419104 0.174663
O O6 0.638770 0.736846 0.208648
O O7 0.390883 0.532666 0.276877
O O8 0.659666 0.502589 0.286402
O O9 0.922351 0.735903 0.901652
O O10 0.972603 0.684710 0.304418
O O11 0.083294 0.000000 0.333334
#
# Coordination Sequence:
#
# PCOD9575950 Si02
#       5
#     6   6   6   6   6
#     4  10  21  38  63  92 128 175 213 270 329 387
#     4  11  23  43  64  96 130 171 219 274 329 399
#     4  10  23  41  63  93 135 167 222 269 334 395
#     4  10  21  40  63  94 127 170 222 268 327 394
#     4  11  22  39  66  91 128 171 218 267 326 392
#
# _framework density 20.301566999999999
#
# number of rings (size 3 to 8) (size 9 to 14) (size 15 to 20)
#    0.000    1.600    2.000    2.400    0.000    1.600 
#    7.200    0.000    0.000    0.000    0.000    0.000 
#    0.000    0.000    0.000    0.000    0.000    0.000 
#
# Total GULP energy -167184.186745 kJ/mol
# GULP energy per Si atom -5572.806225 kJ/mol
# Density = 2.025536 g / cm^3
# Si number density = 20.301567 Si / 1000 Ang^3
#
#
#
# Elastic Constant Matrix: (Units=GPa)
#
#
# Indices 1 2 3 4 5 6 
#
# 1 100.8007 56.0654 34.5088 3.2865 -0.0021 0.0000
# 2 56.0654 100.8007 34.5088 -3.2865 0.0021 0.0000
# 3 34.5088 34.5088 35.6681 0.0000 0.0000 0.0000
# 4 3.2865 -3.2865 0.0000 19.9367 0.0000 0.0021
# 5 -0.0021 0.0021 0.0000 0.0000 19.9367 3.2865
# 6 0.0000 0.0000 0.0000 0.0021 3.2865 22.3676
#
#
#
# Elastic Compliance Matrix: (Units=1/GPa)
#
#
# Indices 1 2 3 4 5 6 
#
# 1 0.017004 -0.005904 -0.010739 -0.003776 0.000002 0.000000
# 2 -0.005904 0.017004 -0.010739 0.003776 -0.000002 0.000000
# 3 -0.010739 -0.010739 0.048816 0.000000 0.000000 0.000000
# 4 -0.003776 0.003776 0.000000 0.051404 0.000000 -0.000005
# 5 0.000002 -0.000002 0.000000 0.000000 0.051404 -0.007553
# 6 0.000000 0.000000 0.000000 -0.000005 -0.007553 0.045817
#
#
# Mechanical properties :
#
#
# Convention : Reuss Voigt Hill
#
# Bulk Modulus (GPa) = 35.63829 54.15951 44.89890
# Shear Modulus (GPa) = 16.91661 19.92732 18.42197
#
# Velocity S-wave (km/s) = 2.88977 3.13639 3.01560
# Velocity P-wave (km/s) = 5.35975 6.31279 5.85569
#
# Compressibility (1/GPa) = 0.02805971
#
# Stress axis : x y z
#
# Youngs Moduli (GPa) = 58.80902 58.80902 20.48499
#
# Poissons Ratio (x) = 0.34723 0.21999
# Poissons Ratio (y) = 0.34723 0.21999
# Poissons Ratio (z) = 0.63155 0.63155
#
# Static dielectric constant tensor:
#      x y z
#    x 1.762030 0.000000 0.000000 
#    y 0.000000 1.762030 0.000000 
#    z 0.000000 0.000000 1.745730 
# 
# From -- ./inp_files/2988.got.cif
#   From: 2010.05.17/outbox.cif.g08.bks.cpg/sg152_2_cif.got.tgz:2988.got - 2010.05.20 10:36:06.
