data_PCOD9575223
_publ_section_title
;
Structure prediction by ZEFSAII (Michael W. Deem and Ramdas Pophale) SiO2 
 PCOD9575223
Probable space group: R -3
;
_chemical_formula_sum "Si O2"
_cell_formula_units_Z 90
_cell_length_a 17.712124
_cell_length_b 17.712124
_cell_length_c 16.220251
_cell_angle_alpha 90.000000
_cell_angle_beta 90.000000
_cell_angle_gamma 120.000000
_cell_volume 4406.862398
_symmetry_space_group_name_H-M "R -3"
_symmetry_group_IT_number 148
_symmetry_cell_setting 'hexagonal'
loop_
_space_group_symop_operation_xyz
x,y,z
-y,x-y,z
-x+y,-x,z
-x,-y,-z
y,-x+y,-z
x-y,x,-z
2/3+x,1/3+y,1/3+z
2/3-y,1/3+x-y,1/3+z
2/3-x+y,1/3-x,1/3+z
2/3-x,1/3-y,1/3-z
2/3+y,1/3-x+y,1/3-z
2/3+x-y,1/3+x,1/3-z
1/3+x,2/3+y,2/3+z
1/3-y,2/3+x-y,2/3+z
1/3-x+y,2/3-x,2/3+z
1/3-x,2/3-y,2/3-z
1/3+y,2/3-x+y,2/3-z
1/3+x-y,2/3+x,2/3-z
loop_
_atom_site_type_symbol
_atom_site_label
_atom_site_fract_x
_atom_site_fract_y
_atom_site_fract_z
Si Si1 0.501005 0.914003 0.459956
Si Si2 0.036037 0.430778 0.999307
Si Si3 0.535269 0.582927 0.324443
Si Si4 0.855425 0.485338 0.843010
Si Si5 0.550862 0.146513 0.365672
O O1 0.584850 0.916196 0.416029
O O2 0.432855 0.889723 0.385187
O O3 0.474073 0.852472 0.539119
O O4 0.500000 0.000000 0.500000
O O5 0.105018 0.462129 0.073444
O O6 0.000000 0.500000 0.000000
O O7 0.955289 0.336054 0.018978
O O8 0.520387 0.595068 0.229937
O O9 0.546747 0.499428 0.334493
O O10 0.827341 0.385543 0.855706
O O11 0.519179 0.199853 0.311071
#
# Coordination Sequence:
#
# PCOD9575223 Si02
#       5
#    18  18  18  18  18
#     4  10  24  45  67 102 142 186 244 303 377 446
#     4  12  26  42  71 109 138 186 246 306 370 456
#     4  11  24  42  70 102 139 186 236 309 370 452
#     4  12  26  46  69 103 149 185 237 294 380 449
#     4  11  26  44  69  98 141 191 249 310 381 448
#
# _framework density 20.422695000000001
#
# number of rings (size 3 to 8) (size 9 to 14) (size 15 to 20)
#    0.000    0.800    4.000    2.800   11.200    0.000 
#    0.000    0.000    0.000    0.000    0.000    0.000 
#    0.000    0.000    0.000    0.000    0.000    0.000 
#
# Total GULP energy -167375.380841 kJ/mol
# GULP energy per Si atom -5579.179361 kJ/mol
# Density = 2.037621 g / cm^3
# Si number density = 20.422695 Si / 1000 Ang^3
#
#
#
# Elastic Constant Matrix: (Units=GPa)
#
#
# Indices 1 2 3 4 5 6 
#
# 1 95.3455 -36.0318 19.9893 -11.1925 -13.9097 0.0000
# 2 -36.0318 95.3455 19.9893 11.1925 13.9097 0.0000
# 3 19.9893 19.9893 113.0779 0.0000 0.0000 0.0000
# 4 -11.1925 11.1925 0.0000 44.4263 0.0000 13.9097
# 5 -13.9097 13.9097 0.0000 0.0000 44.4263 -11.1925
# 6 0.0000 0.0000 0.0000 13.9097 -11.1925 65.6887
#
#
#
# Elastic Compliance Matrix: (Units=1/GPa)
#
#
# Indices 1 2 3 4 5 6 
#
# 1 0.013843 0.005298 -0.003383 0.002153 0.002675 0.000000
# 2 0.005298 0.013843 -0.003383 -0.002153 -0.002675 0.000000
# 3 -0.003383 -0.003383 0.010040 0.000000 0.000000 0.000000
# 4 0.002153 -0.002153 0.000000 0.025269 0.000000 -0.005351
# 5 0.002675 -0.002675 0.000000 0.000000 0.025269 0.004306
# 6 0.000000 0.000000 0.000000 -0.005351 0.004306 0.017090
#
#
# Mechanical properties :
#
#
# Convention : Reuss Voigt Hill
#
# Bulk Modulus (GPa) = 28.74733 34.62918 31.68825
# Shear Modulus (GPa) = 41.70584 50.89639 46.30111
#
# Velocity S-wave (km/s) = 4.52390 4.99756 4.76662
# Velocity P-wave (km/s) = 6.43384 7.09181 6.77082
#
# Compressibility (1/GPa) = 0.03478584
#
# Stress axis : x y z
#
# Youngs Moduli (GPa) = 72.24126 72.24126 99.60470
#
# Poissons Ratio (x) = -0.38270 0.33701
# Poissons Ratio (y) = -0.38270 0.33701
# Poissons Ratio (z) = 0.24443 0.24443
#
# Static dielectric constant tensor:
#      x y z
#    x 1.756920 0.000000 0.000000 
#    y 0.000000 1.756920 0.000000 
#    z 0.000000 0.000000 1.754830 
# 
# From -- ./inp_files/2656.got.cif
#   From: 2010.05.17/outbox.cif.g08.bks.cpg/sg148_2_cif.got.tgz:2656.got - 2010.05.20 13:50:20.
