data_PCOD9575782
_publ_section_title
;
Structure prediction by ZEFSAII (Michael W. Deem and Ramdas Pophale) SiO2 
 PCOD9575782
Probable space group: P 31 2 1
;
_chemical_formula_sum "Si O2"
_cell_formula_units_Z 30
_cell_length_a 18.688662
_cell_length_b 18.688662
_cell_length_c 5.136591
_cell_angle_alpha 90.000000
_cell_angle_beta 90.000000
_cell_angle_gamma 120.000000
_cell_volume 1553.681653
_symmetry_space_group_name_H-M "P 31 2 1"
_symmetry_group_IT_number 152
_symmetry_cell_setting 'hexagonal'
loop_
_space_group_symop_operation_xyz
x,y,z
-y,x-y,1/3+z
-x+y,-x,2/3+z
x-y,-y,2/3-z
-x,-x+y,1/3-z
y,x,-z
loop_
_atom_site_type_symbol
_atom_site_label
_atom_site_fract_x
_atom_site_fract_y
_atom_site_fract_z
Si Si1 0.907472 0.738918 0.169767
Si Si2 0.728469 0.088558 0.333784
Si Si3 0.690274 0.477558 0.264017
Si Si4 0.663601 0.719683 0.756174
Si Si5 0.538234 0.311767 0.089877
O O1 0.908665 0.692137 0.427889
O O2 0.816897 0.729414 0.184379
O O3 0.000000 0.821563 0.166667
O O4 0.902741 0.683917 0.923059
O O5 0.702478 0.155903 0.308970
O O6 0.647824 0.000000 0.333334
O O7 0.703341 0.570005 0.286763
O O8 0.604477 0.406713 0.140067
O O9 0.702679 0.441099 0.538318
O O10 0.752660 0.482511 0.040351
O O11 0.692266 0.692266 0.500000
O O12 0.668060 0.668060 0.000000
#
# Coordination Sequence:
#
# PCOD9575782 Si02
#       5
#     6   6   6   6   6
#     4  10  20  39  65  93 120 162 212 257 310 391
#     4  10  19  35  62  86 113 152 204 263 307 356
#     4  12  25  40  63  89 126 177 220 269 319 390
#     4  12  24  41  65  97 135 171 208 271 344 397
#     4  12  22  41  59  85 124 164 224 262 310 375
#
# _framework density 19.308976999999999
#
# number of rings (size 3 to 8) (size 9 to 14) (size 15 to 20)
#    0.000    0.800    4.000    4.800    0.000    0.800 
#    0.000    3.000    0.000    1.200    0.000    0.000 
#    0.000    0.000    0.000    0.000    0.000    0.000 
#
# Total GULP energy -167214.544166 kJ/mol
# GULP energy per Si atom -5573.818139 kJ/mol
# Density = 1.926503 g / cm^3
# Si number density = 19.308977 Si / 1000 Ang^3
#
#
#
# Elastic Constant Matrix: (Units=GPa)
#
#
# Indices 1 2 3 4 5 6 
#
# 1 77.3110 42.1194 25.6393 -3.1516 0.0000 0.0000
# 2 42.1194 77.3110 25.6393 3.1516 0.0000 0.0000
# 3 25.6393 25.6393 130.4228 0.0000 0.0000 0.0000
# 4 -3.1516 3.1516 0.0000 24.8155 0.0000 0.0000
# 5 0.0000 0.0000 0.0000 0.0000 24.8155 -3.1516
# 6 0.0000 0.0000 0.0000 0.0000 -3.1516 17.5958
#
#
#
# Elastic Compliance Matrix: (Units=1/GPa)
#
#
# Indices 1 2 3 4 5 6 
#
# 1 0.019111 -0.009966 -0.001798 0.003693 0.000000 0.000000
# 2 -0.009966 0.019111 -0.001798 -0.003693 0.000000 0.000000
# 3 -0.001798 -0.001798 0.008374 0.000000 0.000000 0.000000
# 4 0.003693 -0.003693 0.000000 0.041235 0.000000 0.000000
# 5 0.000000 0.000000 0.000000 0.000000 0.041235 0.007386
# 6 0.000000 0.000000 0.000000 0.000000 0.007386 0.058154
#
#
# Mechanical properties :
#
#
# Convention : Reuss Voigt Hill
#
# Bulk Modulus (GPa) = 51.35300 52.42673 51.88987
# Shear Modulus (GPa) = 22.64125 26.22185 24.43155
#
# Velocity S-wave (km/s) = 3.42801 3.68912 3.56096
# Velocity P-wave (km/s) = 6.50549 6.73473 6.62110
#
# Compressibility (1/GPa) = 0.01947306
#
# Stress axis : x y z
#
# Youngs Moduli (GPa) = 52.32561 52.32561 119.41438
#
# Poissons Ratio (x) = 0.52148 0.21468
# Poissons Ratio (y) = 0.52148 0.21468
# Poissons Ratio (z) = 0.09407 0.09407
#
# Static dielectric constant tensor:
#      x y z
#    x 1.724090 0.000000 0.000000 
#    y 0.000000 1.724090 0.000000 
#    z 0.000000 0.000000 1.676790 
# 
# From -- ./inp_files/341.got.cif
#   From: 2010.05.17/outbox.cif.g08.bks.cpg/sg152_1_cif.got.tgz:341.got - 2010.05.20 10:36:06.
