data_PCOD9575186
_publ_section_title
;
Structure prediction by ZEFSAII (Michael W. Deem and Ramdas Pophale) SiO2 
 PCOD9575186
Probable space group: R -3
;
_chemical_formula_sum "Si O2"
_cell_formula_units_Z 144
_cell_length_a 28.715690
_cell_length_b 28.715690
_cell_length_c 9.561626
_cell_angle_alpha 90.000000
_cell_angle_beta 90.000000
_cell_angle_gamma 120.000000
_cell_volume 6828.116095
_symmetry_space_group_name_H-M "R -3"
_symmetry_group_IT_number 148
_symmetry_cell_setting 'hexagonal'
loop_
_space_group_symop_operation_xyz
x,y,z
-y,x-y,z
-x+y,-x,z
-x,-y,-z
y,-x+y,-z
x-y,x,-z
2/3+x,1/3+y,1/3+z
2/3-y,1/3+x-y,1/3+z
2/3-x+y,1/3-x,1/3+z
2/3-x,1/3-y,1/3-z
2/3+y,1/3-x+y,1/3-z
2/3+x-y,1/3+x,1/3-z
1/3+x,2/3+y,2/3+z
1/3-y,2/3+x-y,2/3+z
1/3-x+y,2/3-x,2/3+z
1/3-x,2/3-y,2/3-z
1/3+y,2/3-x+y,2/3-z
1/3+x-y,2/3+x,2/3-z
loop_
_atom_site_type_symbol
_atom_site_label
_atom_site_fract_x
_atom_site_fract_y
_atom_site_fract_z
Si Si1 0.396754 0.850903 0.404744
Si Si2 0.035229 0.276730 0.087339
Si Si3 0.298396 0.193575 0.172513
Si Si4 0.121887 0.352200 0.318364
Si Si5 0.943408 0.277914 0.936070
Si Si6 0.339280 0.497066 0.423079
Si Si7 0.462317 0.120398 0.880967
Si Si8 0.211293 0.574084 0.685206
O O1 0.425362 0.914544 0.400752
O O2 0.446063 0.839554 0.390273
O O3 0.347335 0.838186 0.302359
O O4 0.373205 0.828369 0.556675
O O5 0.072024 0.312657 0.216461
O O6 0.995939 0.215302 0.138842
O O7 0.077978 0.278445 0.976599
O O8 0.004349 0.300033 0.990540
O O9 0.333334 0.166667 0.166667
O O10 0.332419 0.247540 0.256014
O O11 0.166667 0.333334 0.333334
O O12 0.095330 0.353491 0.468814
O O13 0.149445 0.411873 0.249560
O O14 0.918986 0.317081 0.909890
O O15 0.325979 0.467638 0.275612
O O16 0.301544 0.515496 0.502277
O O17 0.230678 0.636444 0.670569
#
# Coordination Sequence:
#
# PCOD9575186 Si02
#       8
#    18  18  18  18  18  18  18  18
#     4  10  23  44  68  99 136 185 228 293 354 425
#     4  12  26  44  69  99 134 188 233 302 341 424
#     4  11  23  41  66  96 137 180 230 287 347 414
#     4  12  29  46  70 101 141 191 240 292 356 429
#     4  11  25  45  65  98 134 181 238 283 351 408
#     4  11  24  44  71 101 137 181 234 289 363 419
#     4  11  27  45  67 100 140 184 235 290 349 425
#     4  10  22  43  73 106 137 175 225 287 360 432
#
# _framework density 21.089272999999999
#
# number of rings (size 3 to 8) (size 9 to 14) (size 15 to 20)
#    0.000    1.000    2.500    3.125   10.500    2.000 
#    0.000    0.000    0.000    0.000    0.000    4.375 
#    0.000    0.000    0.000    0.000    0.000    0.000 
#
# Total GULP energy -267378.204661 kJ/mol
# GULP energy per Si atom -5570.379264 kJ/mol
# Density = 2.104127 g / cm^3
# Si number density = 21.089273 Si / 1000 Ang^3
#
#
#
# Elastic Constant Matrix: (Units=GPa)
#
#
# Indices 1 2 3 4 5 6 
#
# 1 78.6427 37.5176 36.2469 -7.0011 0.9721 -0.0061
# 2 37.5176 78.6298 36.2598 7.0350 -0.9725 0.0026
# 3 36.2469 36.2598 96.3851 0.0183 -0.0426 -0.0016
# 4 -7.0011 7.0350 0.0183 18.6669 0.0028 -0.9912
# 5 0.9721 -0.9725 -0.0426 0.0028 18.6139 -7.0304
# 6 -0.0061 0.0026 -0.0016 -0.9912 -7.0304 20.5598
#
#
#
# Elastic Compliance Matrix: (Units=1/GPa)
#
#
# Indices 1 2 3 4 5 6 
#
# 1 0.019610 -0.008365 -0.004231 0.010512 -0.001468 0.000011
# 2 -0.008365 0.019621 -0.004233 -0.010529 0.001447 -0.000018
# 3 -0.004231 -0.004233 0.013558 -0.000004 0.000035 0.000012
# 4 0.010512 -0.010529 -0.000004 0.061640 0.000018 0.002982
# 5 -0.001468 0.001447 0.000035 0.000018 0.061866 0.021155
# 6 0.000011 -0.000018 0.000012 0.002982 0.021155 0.056016
#
#
# Mechanical properties :
#
#
# Convention : Reuss Voigt Hill
#
# Bulk Modulus (GPa) = 52.26557 52.63402 52.44979
# Shear Modulus (GPa) = 18.35903 21.14366 19.75135
#
# Velocity S-wave (km/s) = 2.95369 3.16979 3.06364
# Velocity P-wave (km/s) = 6.03897 6.19747 6.11873
#
# Compressibility (1/GPa) = 0.01913305
#
# Stress axis : x y z
#
# Youngs Moduli (GPa) = 50.99437 50.96612 73.75452
#
# Poissons Ratio (x) = 0.42631 0.31202
# Poissons Ratio (y) = 0.42654 0.31221
# Poissons Ratio (z) = 0.21573 0.21574
#
# Static dielectric constant tensor:
#      x y z
#    x 1.700380 -0.000010 0.000050 
#    y -0.000010 1.700180 0.000010 
#    z 0.000050 0.000010 1.741890 
# 
# From -- ./inp_files/1121.got.cif
#   From: 2010.05.17/outbox.cif.g08.bks.cpg/sg148_1_cif.got.tgz:1121.got - 2010.05.20 13:50:20.
