data_PCOD9575218
_publ_section_title
;
Structure prediction by ZEFSAII (Michael W. Deem and Ramdas Pophale) SiO2 
 PCOD9575218
Probable space group: R -3
;
_chemical_formula_sum "Si O2"
_cell_formula_units_Z 72
_cell_length_a 14.435697
_cell_length_b 14.435697
_cell_length_c 18.264183
_cell_angle_alpha 90.000000
_cell_angle_beta 90.000000
_cell_angle_gamma 120.000000
_cell_volume 3296.145674
_symmetry_space_group_name_H-M "R -3"
_symmetry_group_IT_number 148
_symmetry_cell_setting 'hexagonal'
loop_
_space_group_symop_operation_xyz
x,y,z
-y,x-y,z
-x+y,-x,z
-x,-y,-z
y,-x+y,-z
x-y,x,-z
2/3+x,1/3+y,1/3+z
2/3-y,1/3+x-y,1/3+z
2/3-x+y,1/3-x,1/3+z
2/3-x,1/3-y,1/3-z
2/3+y,1/3-x+y,1/3-z
2/3+x-y,1/3+x,1/3-z
1/3+x,2/3+y,2/3+z
1/3-y,2/3+x-y,2/3+z
1/3-x+y,2/3-x,2/3+z
1/3-x,2/3-y,2/3-z
1/3+y,2/3-x+y,2/3-z
1/3+x-y,2/3+x,2/3-z
loop_
_atom_site_type_symbol
_atom_site_label
_atom_site_fract_x
_atom_site_fract_y
_atom_site_fract_z
Si Si1 0.638632 0.529601 0.809498
Si Si2 0.291929 0.162296 0.334071
Si Si3 0.666242 0.453732 0.095708
Si Si4 0.273517 0.255537 0.108830
O O1 0.754067 0.539612 0.819285
O O2 0.600196 0.519020 0.725927
O O3 0.648700 0.634371 0.848475
O O4 0.192993 0.176339 0.308040
O O5 0.377799 0.266801 0.376115
O O6 0.338142 0.138272 0.261412
O O7 0.567452 0.334169 0.093764
O O8 0.666654 0.515282 0.167640
#
# Coordination Sequence:
#
# PCOD9575218 Si02
#       4
#    18  18  18  18
#     4  10  24  40  66  99 138 178 233 294 338 417
#     4  11  25  42  72  97 142 185 232 283 361 407
#     4  10  26  43  72  98 140 181 235 286 344 417
#     4  11  25  43  68 103 137 184 231 294 343 419
#
# _framework density 21.843696000000001
#
# number of rings (size 3 to 8) (size 9 to 14) (size 15 to 20)
#    0.500    1.000    0.000    2.500   17.500    1.000 
#    0.000    1.250    0.000    0.000    0.000    0.000 
#    0.000    0.000    0.000    0.000    0.000    0.000 
#
# Total GULP energy -134168.508837 kJ/mol
# GULP energy per Si atom -5590.354535 kJ/mol
# Density = 2.179398 g / cm^3
# Si number density = 21.843696 Si / 1000 Ang^3
#
#
#
# Elastic Constant Matrix: (Units=GPa)
#
#
# Indices 1 2 3 4 5 6 
#
# 1 50.5778 2.0275 4.6619 6.6369 11.1774 0.0000
# 2 2.0275 50.5778 4.6619 -6.6369 -11.1774 0.0000
# 3 4.6619 4.6619 64.6950 0.0000 0.0000 0.0000
# 4 6.6369 -6.6369 0.0000 53.9169 0.0000 -11.1774
# 5 11.1774 -11.1774 0.0000 0.0000 53.9169 6.6369
# 6 0.0000 0.0000 0.0000 -11.1774 6.6369 24.2751
#
#
#
# Elastic Compliance Matrix: (Units=1/GPa)
#
#
# Indices 1 2 3 4 5 6 
#
# 1 0.021453 -0.002198 -0.001388 -0.002911 -0.004903 0.000000
# 2 -0.002198 0.021453 -0.001388 0.002911 0.004903 0.000000
# 3 -0.001388 -0.001388 0.015657 0.000000 0.000000 0.000000
# 4 -0.002911 0.002911 0.000000 0.021297 0.000000 0.009806
# 5 -0.004903 0.004903 0.000000 0.000000 0.021297 -0.005823
# 6 0.000000 0.000000 0.000000 0.009806 -0.005823 0.047301
#
#
# Mechanical properties :
#
#
# Convention : Reuss Voigt Hill
#
# Bulk Modulus (GPa) = 20.56859 20.95034 20.75947
# Shear Modulus (GPa) = 28.63535 36.72176 32.67856
#
# Velocity S-wave (km/s) = 3.62459 4.10459 3.87204
# Velocity P-wave (km/s) = 5.19168 5.66351 5.43272
#
# Compressibility (1/GPa) = 0.04861782
#
# Stress axis : x y z
#
# Youngs Moduli (GPa) = 46.61339 46.61339 63.86871
#
# Poissons Ratio (x) = 0.10244 0.08862
# Poissons Ratio (y) = 0.10244 0.08862
# Poissons Ratio (z) = 0.06468 0.06468
#
# Static dielectric constant tensor:
#      x y z
#    x 1.803510 0.000000 0.000000 
#    y 0.000000 1.803510 0.000000 
#    z 0.000000 0.000000 1.763410 
# 
# From -- ./inp_files/2528.got.cif
#   From: 2010.05.17/outbox.cif.g08.bks.cpg/sg148_2_cif.got.tgz:2528.got - 2010.05.20 13:50:20.
