data_PCOD9575655
_publ_section_title
;
Structure prediction by ZEFSAII (Michael W. Deem and Ramdas Pophale) SiO2 
 PCOD9575655
Probable space group: P 31 1 2
;
_chemical_formula_sum "Si O2"
_cell_formula_units_Z 33
_cell_length_a 11.675928
_cell_length_b 11.675928
_cell_length_c 15.000449
_cell_angle_alpha 90.000000
_cell_angle_beta 90.000000
_cell_angle_gamma 120.000000
_cell_volume 1770.996516
_symmetry_space_group_name_H-M "P 31 1 2"
_symmetry_group_IT_number 151
_symmetry_cell_setting 'hexagonal'
loop_
_space_group_symop_operation_xyz
x,y,z
-y,x-y,1/3+z
-x+y,-x,2/3+z
-y,-x,2/3-z
-x+y,y,1/3-z
x,x-y,-z
loop_
_atom_site_type_symbol
_atom_site_label
_atom_site_fract_x
_atom_site_fract_y
_atom_site_fract_z
Si Si1 0.955813 0.184956 0.164477
Si Si2 0.391022 0.072619 0.446344
Si Si3 0.806589 0.613177 0.666667
Si Si4 0.840550 0.908238 0.104771
Si Si5 0.493813 0.110998 0.760801
Si Si6 0.865003 0.469565 0.409321
O O1 0.911131 0.207339 0.259893
O O2 0.960484 0.296223 0.099855
O O3 0.093974 0.187948 0.166667
O O4 0.839734 0.038469 0.136980
O O5 0.395710 0.197855 0.500000
O O6 0.503909 0.058397 0.497710
O O7 0.430058 0.093110 0.341527
O O8 0.238589 0.955096 0.449669
O O9 0.662920 0.512043 0.701960
O O10 0.952987 0.905974 0.166667
O O11 0.876519 0.938260 0.000000
O O12 0.548249 0.096497 0.666667
O O13 0.539349 0.266115 0.772756
O O14 0.941771 0.470886 0.500000
#
# Coordination Sequence:
#
# PCOD9575655 Si02
#       6
#     6   6   3   6   6   6
#     4  11  26  41  61  92 136 179 222 262 330 404
#     4  11  21  37  62  95 128 167 208 271 339 391
#     4  12  22  38  62  94 130 174 212 282 332 390
#     4  10  24  41  60  90 134 174 217 265 329 403
#     4  12  22  36  66  98 127 163 214 279 337 387
#     4  12  20  35  61  99 133 155 206 280 343 384
#
# _framework density 18.633576999999999
#
# number of rings (size 3 to 8) (size 9 to 14) (size 15 to 20)
#    0.000    0.727    6.364    1.636    7.636    0.000 
#    0.000    0.000    0.000    1.091    4.727    0.000 
#    0.000    0.000    0.000    0.000    0.000    0.000 
#
# Total GULP energy -183800.946676 kJ/mol
# GULP energy per Si atom -5569.725657 kJ/mol
# Density = 1.859117 g / cm^3
# Si number density = 18.633577 Si / 1000 Ang^3
#
#
#
# Elastic Constant Matrix: (Units=GPa)
#
#
# Indices 1 2 3 4 5 6 
#
# 1 99.3993 41.2714 25.5035 -0.0004 -4.4202 0.0000
# 2 41.2714 99.3993 25.5035 0.0004 4.4202 0.0000
# 3 25.5035 25.5035 86.7244 0.0000 0.0000 0.0000
# 4 -0.0004 0.0004 0.0000 22.6426 0.0000 4.4202
# 5 -4.4202 4.4202 0.0000 0.0000 22.6426 -0.0004
# 6 0.0000 0.0000 0.0000 4.4202 -0.0004 29.0640
#
#
#
# Elastic Compliance Matrix: (Units=1/GPa)
#
#
# Indices 1 2 3 4 5 6 
#
# 1 0.012844 -0.004886 -0.002340 0.000000 0.003461 0.000000
# 2 -0.004886 0.012844 -0.002340 0.000000 -0.003461 0.000000
# 3 -0.002340 -0.002340 0.012907 0.000000 0.000000 0.000000
# 4 0.000000 0.000000 0.000000 0.045516 0.000000 -0.006922
# 5 0.003461 -0.003461 0.000000 0.000000 0.045516 0.000001
# 6 0.000000 0.000000 0.000000 -0.006922 0.000001 0.035460
#
#
# Mechanical properties :
#
#
# Convention : Reuss Voigt Hill
#
# Bulk Modulus (GPa) = 51.38350 52.23107 51.80729
# Shear Modulus (GPa) = 26.21841 27.75279 26.98560
#
# Velocity S-wave (km/s) = 3.75514 3.86346 3.80968
# Velocity P-wave (km/s) = 6.81447 6.92771 6.87133
#
# Compressibility (1/GPa) = 0.01946150
#
# Stress axis : x y z
#
# Youngs Moduli (GPa) = 77.86000 77.86000 77.47691
#
# Poissons Ratio (x) = 0.38044 0.18130
# Poissons Ratio (y) = 0.38044 0.18130
# Poissons Ratio (z) = 0.18220 0.18220
#
# Static dielectric constant tensor:
#      x y z
#    x 1.654590 0.000000 0.000000 
#    y 0.000000 1.654590 0.000000 
#    z 0.000000 0.000000 1.672210 
# 
# From -- ./inp_files/2894.got.cif
#   From: 2010.05.17/outbox.cif.g08.bks.cpg/sg151_2_cif.got.tgz:2894.got - 2010.05.20 10:33:20.
