data_PCOD9575296
_publ_section_title
;
Structure prediction by ZEFSAII (Michael W. Deem and Ramdas Pophale) SiO2 
 PCOD9575296
Probable space group: R -3
;
_chemical_formula_sum "Si O2"
_cell_formula_units_Z 54
_cell_length_a 13.456910
_cell_length_b 13.456910
_cell_length_c 14.256388
_cell_angle_alpha 90.000000
_cell_angle_beta 90.000000
_cell_angle_gamma 120.000000
_cell_volume 2235.789097
_symmetry_space_group_name_H-M "R -3"
_symmetry_group_IT_number 148
_symmetry_cell_setting 'hexagonal'
loop_
_space_group_symop_operation_xyz
x,y,z
-y,x-y,z
-x+y,-x,z
-x,-y,-z
y,-x+y,-z
x-y,x,-z
2/3+x,1/3+y,1/3+z
2/3-y,1/3+x-y,1/3+z
2/3-x+y,1/3-x,1/3+z
2/3-x,1/3-y,1/3-z
2/3+y,1/3-x+y,1/3-z
2/3+x-y,1/3+x,1/3-z
1/3+x,2/3+y,2/3+z
1/3-y,2/3+x-y,2/3+z
1/3-x+y,2/3-x,2/3+z
1/3-x,2/3-y,2/3-z
1/3+y,2/3-x+y,2/3-z
1/3+x-y,2/3+x,2/3-z
loop_
_atom_site_type_symbol
_atom_site_label
_atom_site_fract_x
_atom_site_fract_y
_atom_site_fract_z
Si Si1 0.994410 0.419575 0.871424
Si Si2 0.406921 0.592419 0.000220
Si Si3 0.554815 0.646121 0.669334
O O1 0.097961 0.536836 0.915430
O O2 0.016131 0.412432 0.763543
O O3 0.996247 0.315394 0.926431
O O4 0.883486 0.425066 0.904400
O O5 0.457308 0.728304 0.993947
O O6 0.428876 0.543508 0.642239
#
# Coordination Sequence:
#
# PCOD9575296 Si02
#       3
#    18  18  18
#     4  11  25  47  75 113 152 198 251 318 373 451
#     4   9  22  45  78 107 148 193 255 307 376 446
#     4  12  29  48  78 108 156 204 252 313 382 454
#
# _framework density 24.152546000000001
#
# number of rings (size 3 to 8) (size 9 to 14) (size 15 to 20)
#    0.667    0.667    0.000    3.333   14.000    0.000 
#    0.000    1.667    0.000    0.000    0.000    0.000 
#    0.000    0.000    0.000    0.000    0.000    0.000 
#
# Total GULP energy -100874.074166 kJ/mol
# GULP energy per Si atom -5604.115231 kJ/mol
# Density = 2.409757 g / cm^3
# Si number density = 24.152546 Si / 1000 Ang^3
#
#
#
# Elastic Constant Matrix: (Units=GPa)
#
#
# Indices 1 2 3 4 5 6 
#
# 1 117.6847 23.6983 -7.0193 -9.0586 -10.5392 0.0000
# 2 23.6983 117.6847 -7.0193 9.0586 10.5392 0.0000
# 3 -7.0193 -7.0193 47.5967 0.0000 0.0000 0.0000
# 4 -9.0586 9.0586 0.0000 24.9439 0.0000 10.5392
# 5 -10.5392 10.5392 0.0000 0.0000 24.9439 -9.0586
# 6 0.0000 0.0000 0.0000 10.5392 -9.0586 46.9932
#
#
#
# Elastic Compliance Matrix: (Units=1/GPa)
#
#
# Indices 1 2 3 4 5 6 
#
# 1 0.009958 -0.002780 0.001059 0.004626 0.005382 0.000000
# 2 -0.002780 0.009958 0.001059 -0.004626 -0.005382 0.000000
# 3 0.001059 0.001059 0.021322 0.000000 0.000000 0.000000
# 4 0.004626 -0.004626 0.000000 0.047998 0.000000 -0.010765
# 5 0.005382 -0.005382 0.000000 0.000000 0.047998 0.009252
# 6 0.000000 0.000000 0.000000 -0.010765 0.009252 0.025477
#
#
# Mechanical properties :
#
#
# Convention : Reuss Voigt Hill
#
# Bulk Modulus (GPa) = 25.05469 33.58725 29.32097
# Shear Modulus (GPa) = 28.19387 37.59663 32.89525
#
# Velocity S-wave (km/s) = 3.42032 3.94970 3.69450
# Velocity P-wave (km/s) = 5.09845 5.89378 5.51048
#
# Compressibility (1/GPa) = 0.03991268
#
# Stress axis : x y z
#
# Youngs Moduli (GPa) = 100.41774 100.41774 46.89969
#
# Poissons Ratio (x) = 0.27919 -0.04965
# Poissons Ratio (y) = 0.27919 -0.04965
# Poissons Ratio (z) = -0.10630 -0.10630
#
# Static dielectric constant tensor:
#      x y z
#    x 1.940710 0.000000 0.000000 
#    y 0.000000 1.940710 0.000000 
#    z 0.000000 0.000000 1.854790 
# 
# From -- ./inp_files/1782.got.cif
#   From: 2010.05.17/outbox.cif.g08.bks.cpg/sg148_1_cif.got.tgz:1782.got - 2010.05.20 13:50:20.
