data_PCOD9575699
_publ_section_title
;
Structure prediction by ZEFSAII (Michael W. Deem and Ramdas Pophale) SiO2 
 PCOD9575699
Probable space group: P 31 1 2
;
_chemical_formula_sum "Si O2"
_cell_formula_units_Z 36
_cell_length_a 9.000000
_cell_length_b 9.000000
_cell_length_c 27.000000
_cell_angle_alpha 90.000000
_cell_angle_beta 90.000000
_cell_angle_gamma 120.000000
_cell_volume 1893.997558
_symmetry_space_group_name_H-M "P 31 1 2"
_symmetry_group_IT_number 151
_symmetry_cell_setting 'hexagonal'
loop_
_space_group_symop_operation_xyz
x,y,z
-y,x-y,1/3+z
-x+y,-x,2/3+z
-y,-x,2/3-z
-x+y,y,1/3-z
x,x-y,-z
loop_
_atom_site_type_symbol
_atom_site_label
_atom_site_fract_x
_atom_site_fract_y
_atom_site_fract_z
Si Si1 0.274898 0.842609 0.274399
Si Si2 0.963445 0.872083 0.279170
Si Si3 0.827304 0.395049 0.440520
Si Si4 0.304342 0.531095 0.279168
Si Si5 0.928042 0.740724 0.723053
Si Si6 0.504055 0.380429 0.389687
O O1 0.216164 0.783837 0.333334
O O2 0.287095 0.682343 0.253847
O O3 0.114448 0.854462 0.253789
O O4 0.450241 0.018104 0.259500
O O5 0.789850 0.686105 0.280387
O O6 0.936829 0.022169 0.257730
O O7 0.043866 0.956135 0.333334
O O8 0.857795 0.428898 0.500000
O O9 0.805389 0.212940 0.423960
O O10 0.644845 0.372425 0.423812
O O11 0.388650 0.611351 0.333334
O O12 0.454068 0.503950 0.257651
O O13 0.118146 0.357751 0.280375
O O14 0.854091 0.708181 0.666667
O O15 0.578020 0.421981 0.333334
#
# Coordination Sequence:
#
# PCOD9575699 Si02
#       6
#     6   6   6   6   6   6
#     4  10  19  38  62  89 120 159 207 256 308 374
#     4  10  19  34  62  96 120 150 203 257 301 357
#     4  12  26  42  59  89 128 167 209 263 321 375
#     4  10  19  34  62  96 120 150 203 258 301 356
#     4  11  20  37  62  91 123 162 206 253 307 373
#     4  11  20  37  62  89 121 160 201 249 300 369
#
# _framework density 19.007415999999999
#
# number of rings (size 3 to 8) (size 9 to 14) (size 15 to 20)
#    0.000    1.333    0.000   11.500    0.000    0.000 
#    0.000   10.000    0.000    0.000    0.000    0.000 
#    0.000    0.000    0.000    0.000    0.000    0.000 
#
# Total GULP energy -200540.175059 kJ/mol
# GULP energy per Si atom -5570.560418 kJ/mol
# Density = 1.896415 g / cm^3
# Si number density = 19.007416 Si / 1000 Ang^3
#
#
#
# Elastic Constant Matrix: (Units=GPa)
#
#
# Indices 1 2 3 4 5 6 
#
# 1 207.4010 90.3296 28.5127 0.0000 3.8409 0.0000
# 2 90.3296 207.4010 28.5127 0.0000 -3.8409 0.0000
# 3 28.5127 28.5127 51.4003 0.0000 0.0000 0.0000
# 4 0.0000 0.0000 0.0000 8.9505 0.0000 -3.8409
# 5 3.8409 -3.8409 0.0000 0.0000 8.9505 0.0000
# 6 0.0000 0.0000 0.0000 -3.8409 0.0000 58.5357
#
#
#
# Elastic Compliance Matrix: (Units=1/GPa)
#
#
# Indices 1 2 3 4 5 6 
#
# 1 0.006274 -0.002516 -0.002085 0.000000 -0.003772 0.000000
# 2 -0.002516 0.006274 -0.002085 0.000000 0.003772 0.000000
# 3 -0.002085 -0.002085 0.021768 0.000000 0.000000 0.000000
# 4 0.000000 0.000000 0.000000 0.114963 0.000000 0.007543
# 5 -0.003772 0.003772 0.000000 0.000000 0.114963 0.000000
# 6 0.000000 0.000000 0.000000 0.007543 0.000000 0.017579
#
#
# Mechanical properties :
#
#
# Convention : Reuss Voigt Hill
#
# Bulk Modulus (GPa) = 47.74319 84.54581 66.14450
# Shear Modulus (GPa) = 16.54694 36.54383 26.54539
#
# Velocity S-wave (km/s) = 2.95371 4.38951 3.74114
# Velocity P-wave (km/s) = 6.06674 8.38257 7.31685
#
# Compressibility (1/GPa) = 0.02094540
#
# Stress axis : x y z
#
# Youngs Moduli (GPa) = 159.39677 159.39677 45.93913
#
# Poissons Ratio (x) = 0.40098 0.09577
# Poissons Ratio (y) = 0.40098 0.09577
# Poissons Ratio (z) = 0.33229 0.33229
#
# Static dielectric constant tensor:
#      x y z
#    x 1.729490 0.000000 0.000000 
#    y 0.000000 1.729490 0.000000 
#    z 0.000000 0.000000 1.679220 
# 
# From -- ./inp_files/4641.got.cif
#   From: 2010.05.17/outbox.ucp.g08.bks.cvg/sg151_3_cif.got.tgz:4641.got - 2010.06.11 15:12:55.
