data_PCOD9575540
_publ_section_title
;
Structure prediction by ZEFSAII (Michael W. Deem and Ramdas Pophale) SiO2 
 PCOD9575540
Probable space group: P 31 1 2
;
_chemical_formula_sum "Si O2"
_cell_formula_units_Z 30
_cell_length_a 7.890732
_cell_length_b 7.890732
_cell_length_c 25.429297
_cell_angle_alpha 90.000000
_cell_angle_beta 90.000000
_cell_angle_gamma 120.000000
_cell_volume 1371.196110
_symmetry_space_group_name_H-M "P 31 1 2"
_symmetry_group_IT_number 151
_symmetry_cell_setting 'hexagonal'
loop_
_space_group_symop_operation_xyz
x,y,z
-y,x-y,1/3+z
-x+y,-x,2/3+z
-y,-x,2/3-z
-x+y,y,1/3-z
x,x-y,-z
loop_
_atom_site_type_symbol
_atom_site_label
_atom_site_fract_x
_atom_site_fract_y
_atom_site_fract_z
Si Si1 0.605408 0.045243 0.805885
Si Si2 0.091178 0.622725 0.760818
Si Si3 0.492391 0.873981 0.221354
Si Si4 0.636909 0.622169 0.376494
Si Si5 0.597474 0.002124 0.007482
O O1 0.803820 0.196181 0.833334
O O2 0.545816 0.113287 0.753644
O O3 0.612908 0.850922 0.788838
O O4 0.437827 0.007008 0.849133
O O5 0.274018 0.586672 0.771060
O O6 0.964568 0.487014 0.713065
O O7 0.191035 0.843053 0.739346
O O8 0.487851 0.975701 0.166667
O O9 0.523430 0.990858 0.275107
O O10 0.462240 0.537761 0.333334
O O11 0.832682 0.652145 0.350685
O O12 0.587091 0.793546 0.000000
#
# Coordination Sequence:
#
# PCOD9575540 Si02
#       5
#     6   6   6   6   6
#     4  10  19  34  59  86 112 148 194 237 286 357
#     4   9  18  35  58  79 108 150 193 231 280 350
#     4   8  16  32  55  79 107 146 188 229 278 340
#     4  11  21  35  58  85 112 149 192 239 290 344
#     4  10  20  36  58  83 111 147 191 238 288 345
#
# _framework density 21.878710000000002
#
# number of rings (size 3 to 8) (size 9 to 14) (size 15 to 20)
#    0.000    2.400    0.000    6.000    0.000    0.800 
#    0.000    3.000    0.000   48.000    0.000    0.000 
#    0.000    0.000    0.000    0.000    0.000    0.000 
#
# Total GULP energy -167334.963467 kJ/mol
# GULP energy per Si atom -5577.832116 kJ/mol
# Density = 2.182891 g / cm^3
# Si number density = 21.878710 Si / 1000 Ang^3
#
#
#
# Elastic Constant Matrix: (Units=GPa)
#
#
# Indices 1 2 3 4 5 6 
#
# 1 55.9288 19.6724 32.4549 -0.0003 -4.3629 0.0000
# 2 19.6724 55.9288 32.4549 0.0003 4.3629 0.0000
# 3 32.4549 32.4549 130.2130 0.0000 0.0000 0.0000
# 4 -0.0003 0.0003 0.0000 15.7579 0.0000 4.3629
# 5 -4.3629 4.3629 0.0000 0.0000 15.7579 -0.0003
# 6 0.0000 0.0000 0.0000 4.3629 -0.0003 18.1282
#
#
#
# Elastic Compliance Matrix: (Units=1/GPa)
#
#
# Indices 1 2 3 4 5 6 
#
# 1 0.023189 -0.006361 -0.004194 0.000001 0.008182 0.000000
# 2 -0.006361 0.023189 -0.004194 -0.000001 -0.008182 0.000000
# 3 -0.004194 -0.004194 0.009771 0.000000 0.000000 0.000000
# 4 0.000001 -0.000001 0.000000 0.067991 0.000000 -0.016363
# 5 0.008182 -0.008182 0.000000 0.000000 0.067991 0.000001
# 6 0.000000 0.000000 0.000000 -0.016363 0.000001 0.059101
#
#
# Mechanical properties :
#
#
# Convention : Reuss Voigt Hill
#
# Bulk Modulus (GPa) = 37.52344 45.69278 41.60811
# Shear Modulus (GPa) = 17.26429 20.42802 18.84616
#
# Velocity S-wave (km/s) = 2.81212 3.05896 2.93813
# Velocity P-wave (km/s) = 5.26611 5.77981 5.52893
#
# Compressibility (1/GPa) = 0.02665001
#
# Stress axis : x y z
#
# Youngs Moduli (GPa) = 43.12303 43.12303 102.34781
#
# Poissons Ratio (x) = 0.27430 0.42929
# Poissons Ratio (y) = 0.27430 0.42929
# Poissons Ratio (z) = 0.18088 0.18088
#
# Static dielectric constant tensor:
#      x y z
#    x 1.818400 0.000000 0.000000 
#    y 0.000000 1.818400 0.000000 
#    z 0.000000 0.000000 1.839350 
# 
# From -- ./inp_files/4179.got.cif
#   From: 2010.05.17/outbox.cif.g08.bks.cpg/sg151_3_cif.got.tgz:4179.got - 2010.05.20 10:33:20.
