data_PCOD9575757
_publ_section_title
;
Structure prediction by ZEFSAII (Michael W. Deem and Ramdas Pophale) SiO2 
 PCOD9575757
Probable space group: P 31 2 1
;
_chemical_formula_sum "Si O2"
_cell_formula_units_Z 39
_cell_length_a 9.024549
_cell_length_b 9.024549
_cell_length_c 29.260690
_cell_angle_alpha 90.000000
_cell_angle_beta 90.000000
_cell_angle_gamma 120.000000
_cell_volume 2063.793353
_symmetry_space_group_name_H-M "P 31 2 1"
_symmetry_group_IT_number 152
_symmetry_cell_setting 'hexagonal'
loop_
_space_group_symop_operation_xyz
x,y,z
-y,x-y,1/3+z
-x+y,-x,2/3+z
x-y,-y,2/3-z
-x,-x+y,1/3-z
y,x,-z
loop_
_atom_site_type_symbol
_atom_site_label
_atom_site_fract_x
_atom_site_fract_y
_atom_site_fract_z
Si Si1 0.271504 0.921567 0.262854
Si Si2 0.435831 0.435831 0.000000
Si Si3 0.484893 0.623436 0.230940
Si Si4 0.877356 0.398657 0.070333
Si Si5 0.067251 0.000000 0.333334
Si Si6 0.516787 0.150410 0.492742
Si Si7 0.513890 0.000000 0.833334
Si Si8 0.270329 0.945811 0.657042
O O1 0.156926 0.714932 0.264496
O O2 0.175110 0.003773 0.288978
O O3 0.326082 0.960003 0.210477
O O4 0.441851 0.969272 0.290937
O O5 0.407801 0.248890 0.992546
O O6 0.304258 0.530145 0.257366
O O7 0.525530 0.503227 0.199404
O O8 0.462826 0.762348 0.200153
O O9 0.627359 0.698398 0.270415
O O10 0.974728 0.416778 0.118360
O O11 0.964324 0.395781 0.023523
O O12 0.878796 0.837886 0.330030
O O13 0.484084 0.306255 0.506178
#
# Coordination Sequence:
#
# PCOD9575757 Si02
#       8
#     6   3   6   6   3   6   3   6
#     4   9  20  40  61  85 115 160 195 242 309 370
#     4  10  18  40  60  82 124 152 184 254 312 344
#     4  10  23  41  60  92 118 164 201 249 304 362
#     4  10  22  40  62  87 122 157 210 238 302 369
#     4  10  24  36  58  92 122 146 202 248 310 348
#     4  10  21  41  64  83 125 155 210 246 305 364
#     4   8  20  40  60  88 114 166 196 254 294 366
#     4  11  23  38  60  91 122 152 203 260 290 366
#
# _framework density 18.89724
#
# number of rings (size 3 to 8) (size 9 to 14) (size 15 to 20)
#    0.000    2.462    3.077    0.000    6.462    3.692 
#    2.769    0.000    0.000    0.000    0.000    0.000 
#    0.000    0.000    0.000    0.000    0.000    0.000 
#
# Total GULP energy -217291.785162 kJ/mol
# GULP energy per Si atom -5571.584235 kJ/mol
# Density = 1.885423 g / cm^3
# Si number density = 18.897240 Si / 1000 Ang^3
#
#
#
# Elastic Constant Matrix: (Units=GPa)
#
#
# Indices 1 2 3 4 5 6 
#
# 1 58.4515 39.2049 40.0642 -3.4354 -0.0003 0.0000
# 2 39.2049 58.4515 40.0642 3.4354 0.0003 0.0000
# 3 40.0642 40.0642 67.3913 0.0000 0.0000 0.0000
# 4 -3.4354 3.4354 0.0000 -51.3610 0.0000 0.0003
# 5 -0.0003 0.0003 0.0000 0.0000 -51.3610 -3.4354
# 6 0.0000 0.0000 0.0000 0.0003 -3.4354 9.6233
#
#
#
# Elastic Compliance Matrix: (Units=1/GPa)
#
#
# Indices 1 2 3 4 5 6 
#
# 1 0.035369 -0.015377 -0.011885 -0.003394 0.000000 0.000000
# 2 -0.015377 0.035369 -0.011885 0.003394 0.000000 0.000000
# 3 -0.011885 -0.011885 0.028970 0.000000 0.000000 0.000000
# 4 -0.003394 0.003394 0.000000 -0.019016 0.000000 0.000001
# 5 0.000000 0.000000 0.000000 0.000000 -0.019016 -0.006788
# 6 0.000000 0.000000 0.000000 0.000001 -0.006788 0.101491
#
#
# Mechanical properties :
#
#
# Convention : Reuss Voigt Hill
#
# Bulk Modulus (GPa) = 46.70005 46.99566 46.84785
# Shear Modulus (GPa) = 20.11267 -14.28901 2.91183
#
# Velocity S-wave (km/s) = 3.26593 -2.75279 1.24267
# Velocity P-wave (km/s) = 6.24404 3.84958 5.18687
#
# Compressibility (1/GPa) = 0.02141325
#
# Stress axis : x y z
#
# Youngs Moduli (GPa) = 28.27351 28.27351 34.51813
#
# Poissons Ratio (x) = 0.43476 0.41026
# Poissons Ratio (y) = 0.43476 0.41026
# Poissons Ratio (z) = 0.33604 0.33604
#
# Static dielectric constant tensor:
#      x y z
#    x 1.681270 0.000000 0.000000 
#    y 0.000000 1.681270 0.000000 
#    z 0.000000 0.000000 1.713070 
# 
# From -- ./inp_files/3682.got.cif
#   From: 2010.05.17/outbox.cif.g08.bks.cpg/sg152_2_cif.got.tgz:3682.got - 2010.05.20 10:36:06.
