data_PCOD9575150
_publ_section_title
;
Structure prediction by ZEFSAII (Michael W. Deem and Ramdas Pophale) SiO2 
 PCOD9575150
Probable space group: R -3
;
_chemical_formula_sum "Si O2"
_cell_formula_units_Z 144
_cell_length_a 30.019499
_cell_length_b 30.019499
_cell_length_c 9.607403
_cell_angle_alpha 90.000000
_cell_angle_beta 90.000000
_cell_angle_gamma 120.000000
_cell_volume 7497.966919
_symmetry_space_group_name_H-M "R -3"
_symmetry_group_IT_number 148
_symmetry_cell_setting 'hexagonal'
loop_
_space_group_symop_operation_xyz
x,y,z
-y,x-y,z
-x+y,-x,z
-x,-y,-z
y,-x+y,-z
x-y,x,-z
2/3+x,1/3+y,1/3+z
2/3-y,1/3+x-y,1/3+z
2/3-x+y,1/3-x,1/3+z
2/3-x,1/3-y,1/3-z
2/3+y,1/3-x+y,1/3-z
2/3+x-y,1/3+x,1/3-z
1/3+x,2/3+y,2/3+z
1/3-y,2/3+x-y,2/3+z
1/3-x+y,2/3-x,2/3+z
1/3-x,2/3-y,2/3-z
1/3+y,2/3-x+y,2/3-z
1/3+x-y,2/3+x,2/3-z
loop_
_atom_site_type_symbol
_atom_site_label
_atom_site_fract_x
_atom_site_fract_y
_atom_site_fract_z
Si Si1 0.431200 0.064871 0.195977
Si Si2 0.902799 0.290154 0.940719
Si Si3 0.908911 0.905810 0.081993
Si Si4 0.335587 0.573436 0.247196
Si Si5 0.130963 0.268236 0.199772
Si Si6 0.472901 0.526852 0.190648
Si Si7 0.536731 0.852156 0.571011
Si Si8 0.854906 0.543003 0.934060
O O1 0.488175 0.075035 0.156449
O O2 0.436862 0.103469 0.317244
O O3 0.398195 0.005102 0.235339
O O4 0.404147 0.077070 0.071485
O O5 0.846362 0.239802 0.953854
O O6 0.896752 0.324242 0.822711
O O7 0.917216 0.914958 0.251171
O O8 0.855995 0.852958 0.062048
O O9 0.903485 0.949345 0.999510
O O10 0.285783 0.568020 0.167038
O O11 0.338035 0.521029 0.234579
O O12 0.119732 0.264024 0.365055
O O13 0.151246 0.326998 0.153522
O O14 0.079175 0.230750 0.118622
O O15 0.415137 0.503905 0.239663
O O16 0.537324 0.878198 0.425883
#
# Coordination Sequence:
#
# PCOD9575150 Si02
#       8
#    18  18  18  18  18  18  18  18
#     4  11  26  43  66  98 136 174 220 273 332 401
#     4  11  24  43  66  97 129 175 220 267 337 388
#     4  11  24  42  64  91 131 181 222 276 347 406
#     4  11  24  40  64  98 132 171 227 285 333 399
#     4  10  21  42  66  93 131 174 215 268 337 393
#     4  10  21  40  68  95 127 171 217 272 329 398
#     4  11  25  42  65  99 133 173 220 274 337 401
#     4  11  23  40  69  97 127 169 223 275 329 398
#
# _framework density 19.205204999999999
#
# number of rings (size 3 to 8) (size 9 to 14) (size 15 to 20)
#    0.000    1.250    2.500    2.500    1.750    8.000 
#    0.000    2.500    0.000    0.000    0.000    0.000 
#    0.000    0.000    0.000    0.000    0.000    0.000 
#
# Total GULP energy -268212.847049 kJ/mol
# GULP energy per Si atom -5587.767647 kJ/mol
# Density = 1.916149 g / cm^3
# Si number density = 19.205205 Si / 1000 Ang^3
#
#
#
# Elastic Constant Matrix: (Units=GPa)
#
#
# Indices 1 2 3 4 5 6 
#
# 1 101.3231 49.8356 73.1813 -13.1279 -3.1462 0.0019
# 2 49.8356 101.3020 73.1568 13.1329 3.1485 0.0047
# 3 73.1813 73.1568 117.6073 0.0060 0.0031 -0.0012
# 4 -13.1279 13.1329 0.0060 23.0960 0.0051 3.1600
# 5 -3.1462 3.1485 0.0031 0.0051 23.0819 -13.1206
# 6 0.0019 0.0047 -0.0012 3.1600 -13.1206 25.7317
#
#
#
# Elastic Compliance Matrix: (Units=1/GPa)
#
#
# Indices 1 2 3 4 5 6 
#
# 1 0.022331 -0.005690 -0.010357 0.015933 0.003809 -0.000015
# 2 -0.005690 0.022325 -0.010345 -0.015927 -0.003811 0.000008
# 3 -0.010357 -0.010345 0.021383 -0.000010 -0.000001 0.000005
# 4 0.015933 -0.015927 -0.000010 0.062462 -0.000041 -0.007690
# 5 0.003809 -0.003811 -0.000001 -0.000041 0.062474 0.031861
# 6 -0.000015 0.000008 0.000005 -0.007690 0.031861 0.056053
#
#
# Mechanical properties :
#
#
# Convention : Reuss Voigt Hill
#
# Bulk Modulus (GPa) = 75.45057 79.17554 77.31306
# Shear Modulus (GPa) = 16.43487 22.65251 19.54369
#
# Velocity S-wave (km/s) = 2.92850 3.43811 3.19348
# Velocity P-wave (km/s) = 7.12787 7.55489 7.34449
#
# Compressibility (1/GPa) = 0.01325371
#
# Stress axis : x y z
#
# Youngs Moduli (GPa) = 44.78054 44.79242 46.76663
#
# Poissons Ratio (x) = 0.25489 0.48435
# Poissons Ratio (y) = 0.25482 0.48382
# Poissons Ratio (z) = 0.46378 0.46340
#
# Static dielectric constant tensor:
#      x y z
#    x 1.671160 0.000030 -0.000010 
#    y 0.000030 1.671110 0.000010 
#    z -0.000010 0.000010 1.646890 
# 
# From -- ./inp_files/1126.got.cif
#   From: 2010.05.17/outbox.cif.g08.bks.cpg/sg148_1_cif.got.tgz:1126.got - 2010.05.20 13:50:20.
