data_PCOD9575601
_publ_section_title
;
Structure prediction by ZEFSAII (Michael W. Deem and Ramdas Pophale) SiO2 
 PCOD9575601
Probable space group: P 31 1 2
;
_chemical_formula_sum "Si O2"
_cell_formula_units_Z 39
_cell_length_a 8.835427
_cell_length_b 8.835427
_cell_length_c 22.703580
_cell_angle_alpha 90.000000
_cell_angle_beta 90.000000
_cell_angle_gamma 120.000000
_cell_volume 1534.899914
_symmetry_space_group_name_H-M "P 31 1 2"
_symmetry_group_IT_number 151
_symmetry_cell_setting 'hexagonal'
loop_
_space_group_symop_operation_xyz
x,y,z
-y,x-y,1/3+z
-x+y,-x,2/3+z
-y,-x,2/3-z
-x+y,y,1/3-z
x,x-y,-z
loop_
_atom_site_type_symbol
_atom_site_label
_atom_site_fract_x
_atom_site_fract_y
_atom_site_fract_z
Si Si1 0.247054 0.156702 0.561194
Si Si2 0.261916 0.630958 0.000000
Si Si3 0.473027 0.010334 0.019299
Si Si4 0.847131 0.036610 0.240190
Si Si5 0.685825 0.842913 0.500000
Si Si6 0.737169 0.368585 0.000000
Si Si7 0.286849 0.420420 0.797889
Si Si8 0.504155 0.491722 0.430202
O O1 0.146036 0.073018 0.500000
O O2 0.251587 0.340196 0.560869
O O3 0.408538 0.121106 0.553420
O O4 0.111318 0.997252 0.601846
O O5 0.374150 0.542288 0.016256
O O6 0.148518 0.523623 0.944405
O O7 0.338445 0.062506 0.047150
O O8 0.615358 0.169601 0.980995
O O9 0.560761 0.966707 0.075056
O O10 0.032403 0.197227 0.220235
O O11 0.719585 0.983398 0.181568
O O12 0.579223 0.643106 0.477531
O O13 0.856266 0.355513 0.050231
O O14 0.394423 0.605578 0.833334
#
# Coordination Sequence:
#
# PCOD9575601 Si02
#       8
#     6   3   6   6   3   3   6   6
#     4  10  20  41  68 103 138 181 244 316 369 443
#     4  11  26  48  66 101 148 208 248 301 394 493
#     4  11  24  43  70  98 145 196 248 302 386 481
#     4  10  20  41  72 104 132 184 250 307 374 466
#     4  12  24  44  80 106 142 200 260 330 396 452
#     4  11  28  46  62 105 152 192 242 337 380 481
#     4   9  19  37  72 110 139 183 251 321 374 459
#     4  11  27  47  67 104 152 189 253 328 387 467
#
# _framework density 25.408822000000001
#
# number of rings (size 3 to 8) (size 9 to 14) (size 15 to 20)
#    0.000    1.538    3.846    0.923    4.308    3.692 
#    0.000    0.000    0.000    0.000    0.000    0.000 
#    0.000    0.000    0.000    0.000    0.000    0.000 
#
# Total GULP energy -217412.448464 kJ/mol
# GULP energy per Si atom -5574.678166 kJ/mol
# Density = 2.535099 g / cm^3
# Si number density = 25.408822 Si / 1000 Ang^3
#
#
#
# Elastic Constant Matrix: (Units=GPa)
#
#
# Indices 1 2 3 4 5 6 
#
# 1 164.2015 74.4006 39.9460 0.0000 -2.4721 0.0000
# 2 74.4006 164.2015 39.9460 0.0000 2.4721 0.0000
# 3 39.9460 39.9460 51.6437 0.0000 0.0000 0.0000
# 4 0.0000 0.0000 0.0000 33.5058 0.0000 2.4721
# 5 -2.4721 2.4721 0.0000 0.0000 33.5058 0.0000
# 6 0.0000 0.0000 0.0000 2.4721 0.0000 44.9005
#
#
#
# Elastic Compliance Matrix: (Units=1/GPa)
#
#
# Indices 1 2 3 4 5 6 
#
# 1 0.008419 -0.002763 -0.004375 0.000000 0.000825 0.000000
# 2 -0.002763 0.008419 -0.004375 0.000000 -0.000825 0.000000
# 3 -0.004375 -0.004375 0.026131 0.000000 0.000000 0.000000
# 4 0.000000 0.000000 0.000000 0.029967 0.000000 -0.001650
# 5 0.000825 -0.000825 0.000000 0.000000 0.029967 0.000000
# 6 0.000000 0.000000 0.000000 -0.001650 0.000000 0.022362
#
#
# Mechanical properties :
#
#
# Convention : Reuss Voigt Hill
#
# Bulk Modulus (GPa) = 50.14086 76.51466 63.32776
# Shear Modulus (GPa) = 32.27105 37.43269 34.85187
#
# Velocity S-wave (km/s) = 3.56767 3.84241 3.70759
# Velocity P-wave (km/s) = 6.06198 7.06147 6.58072
#
# Compressibility (1/GPa) = 0.01994381
#
# Stress axis : x y z
#
# Youngs Moduli (GPa) = 118.78555 118.78555 38.26843
#
# Poissons Ratio (x) = 0.32816 0.16742
# Poissons Ratio (y) = 0.32816 0.16742
# Poissons Ratio (z) = 0.51966 0.51966
#
# Static dielectric constant tensor:
#      x y z
#    x 2.084220 0.000000 0.000000 
#    y 0.000000 2.084220 0.000000 
#    z 0.000000 0.000000 2.094320 
# 
# From -- ./inp_files/4977.got.cif
#   From: 2010.05.17/outbox.cif.g08.bks.cpg/sg151_3_cif.got.tgz:4977.got - 2010.05.20 10:33:20.
