data_PCOD9575855
_publ_section_title
;
Structure prediction by ZEFSAII (Michael W. Deem and Ramdas Pophale) SiO2 
 PCOD9575855
Probable space group: P 31 2 1
;
_chemical_formula_sum "Si O2"
_cell_formula_units_Z 36
_cell_length_a 8.414103
_cell_length_b 8.414103
_cell_length_c 27.103107
_cell_angle_alpha 90.000000
_cell_angle_beta 90.000000
_cell_angle_gamma 120.000000
_cell_volume 1661.748745
_symmetry_space_group_name_H-M "P 31 2 1"
_symmetry_group_IT_number 152
_symmetry_cell_setting 'hexagonal'
loop_
_space_group_symop_operation_xyz
x,y,z
-y,x-y,1/3+z
-x+y,-x,2/3+z
x-y,-y,2/3-z
-x,-x+y,1/3-z
y,x,-z
loop_
_atom_site_type_symbol
_atom_site_label
_atom_site_fract_x
_atom_site_fract_y
_atom_site_fract_z
Si Si1 0.644450 0.695476 0.621924
Si Si2 0.712593 0.028303 0.960611
Si Si3 0.338398 0.302591 0.789443
Si Si4 0.291205 0.968038 0.238745
Si Si5 0.288329 0.438453 0.106086
Si Si6 0.469834 0.196912 0.533140
O O1 0.483299 0.493400 0.636654
O O2 0.692851 0.844127 0.664117
O O3 0.806862 0.664032 0.603101
O O4 0.593420 0.779037 0.574614
O O5 0.790376 0.137098 0.909186
O O6 0.689812 0.831825 0.951203
O O7 0.310232 0.250313 0.846871
O O8 0.483099 0.519735 0.788229
O O9 0.148482 0.274967 0.768663
O O10 0.231863 0.846419 0.188262
O O11 0.504130 0.030785 0.245155
O O12 0.270566 0.609899 0.127865
#
# Coordination Sequence:
#
# PCOD9575855 Si02
#       6
#     6   6   6   6   6   6
#     4  11  23  40  60  85 122 166 206 251 312 376
#     4  11  23  40  61  86 119 162 209 253 304 371
#     4  10  20  37  61  91 123 153 196 254 313 371
#     4  10  21  38  63  92 121 155 203 257 305 367
#     4   9  20  39  64  90 120 158 200 251 310 370
#     4   9  19  38  63  89 117 156 202 249 304 368
#
# _framework density 21.663923
#
# number of rings (size 3 to 8) (size 9 to 14) (size 15 to 20)
#    0.000    2.000    0.000    3.000    0.000    7.333 
#    0.000    3.333    0.000    2.000    0.000    0.000 
#    0.000    0.000    0.000    0.000    0.000    0.000 
#
# Total GULP energy -201299.595893 kJ/mol
# GULP energy per Si atom -5591.655441 kJ/mol
# Density = 2.161461 g / cm^3
# Si number density = 21.663923 Si / 1000 Ang^3
#
#
#
# Elastic Constant Matrix: (Units=GPa)
#
#
# Indices 1 2 3 4 5 6 
#
# 1 77.3070 44.2041 70.8348 2.8568 0.0000 0.0000
# 2 44.2041 77.3070 70.8348 -2.8568 0.0000 0.0000
# 3 70.8348 70.8348 99.8020 0.0000 0.0000 0.0000
# 4 2.8568 -2.8568 0.0000 25.8975 0.0000 0.0000
# 5 0.0000 0.0000 0.0000 0.0000 25.8975 2.8568
# 6 0.0000 0.0000 0.0000 0.0000 2.8568 16.5515
#
#
#
# Elastic Compliance Matrix: (Units=1/GPa)
#
#
# Indices 1 2 3 4 5 6 
#
# 1 0.039252 0.008457 -0.033861 -0.003397 0.000000 0.000000
# 2 0.008457 0.039252 -0.033861 0.003397 0.000000 0.000000
# 3 -0.033861 -0.033861 0.058086 0.000000 0.000000 0.000000
# 4 -0.003397 0.003397 0.000000 0.039363 0.000000 0.000000
# 5 0.000000 0.000000 0.000000 0.000000 0.039363 -0.006794
# 6 0.000000 0.000000 0.000000 0.000000 -0.006794 0.061590
#
#
# Mechanical properties :
#
#
# Convention : Reuss Voigt Hill
#
# Bulk Modulus (GPa) = 55.37693 69.57375 62.47534
# Shear Modulus (GPa) = 12.45460 18.23878 15.34669
#
# Velocity S-wave (km/s) = 2.40031 2.90469 2.66446
# Velocity P-wave (km/s) = 5.77055 6.59048 6.19410
#
# Compressibility (1/GPa) = 0.01805806
#
# Stress axis : x y z
#
# Youngs Moduli (GPa) = 25.47650 25.47650 17.21580
#
# Poissons Ratio (x) = -0.21545 0.58295
# Poissons Ratio (y) = -0.21545 0.58295
# Poissons Ratio (z) = 0.86267 0.86267
#
# Static dielectric constant tensor:
#      x y z
#    x 1.783080 0.000000 0.000000 
#    y 0.000000 1.783080 0.000000 
#    z 0.000000 0.000000 1.786400 
# 
# From -- ./inp_files/3357.got.cif
#   From: 2010.05.17/outbox.cif.g08.bks.cpg/sg152_2_cif.got.tgz:3357.got - 2010.05.20 10:36:06.
