data_PCOD9575194
_publ_section_title
;
Structure prediction by ZEFSAII (Michael W. Deem and Ramdas Pophale) SiO2 
 PCOD9575194
Probable space group: R -3
;
_chemical_formula_sum "Si O2"
_cell_formula_units_Z 132
_cell_length_a 17.361393
_cell_length_b 17.361393
_cell_length_c 23.718096
_cell_angle_alpha 90.000000
_cell_angle_beta 90.000000
_cell_angle_gamma 120.000000
_cell_volume 6191.267811
_symmetry_space_group_name_H-M "R -3"
_symmetry_group_IT_number 148
_symmetry_cell_setting 'hexagonal'
loop_
_space_group_symop_operation_xyz
x,y,z
-y,x-y,z
-x+y,-x,z
-x,-y,-z
y,-x+y,-z
x-y,x,-z
2/3+x,1/3+y,1/3+z
2/3-y,1/3+x-y,1/3+z
2/3-x+y,1/3-x,1/3+z
2/3-x,1/3-y,1/3-z
2/3+y,1/3-x+y,1/3-z
2/3+x-y,1/3+x,1/3-z
1/3+x,2/3+y,2/3+z
1/3-y,2/3+x-y,2/3+z
1/3-x+y,2/3-x,2/3+z
1/3-x,2/3-y,2/3-z
1/3+y,2/3-x+y,2/3-z
1/3+x-y,2/3+x,2/3-z
loop_
_atom_site_type_symbol
_atom_site_label
_atom_site_fract_x
_atom_site_fract_y
_atom_site_fract_z
Si Si1 0.577513 0.709237 0.122174
Si Si2 0.693669 0.934815 0.346239
Si Si3 0.884874 0.126730 0.866143
Si Si4 0.493561 0.104296 0.418373
Si Si5 0.918485 0.572126 0.371866
Si Si6 0.178386 0.680458 0.095644
Si Si7 0.736481 0.994482 0.230769
Si Si8 0.000000 0.000000 0.568320
O O1 0.669816 0.790475 0.145679
O O2 0.544985 0.760804 0.081768
O O3 0.505944 0.660638 0.171049
O O4 0.597797 0.635545 0.098415
O O5 0.666667 0.833334 0.333334
O O6 0.750885 0.962303 0.402151
O O7 0.761199 0.991945 0.295403
O O8 0.632850 0.980155 0.360510
O O9 0.952349 0.179252 0.814717
O O10 0.928899 0.192062 0.920309
O O11 0.853953 0.023414 0.880455
O O12 0.578713 0.096225 0.401726
O O13 0.454419 0.111763 0.357805
O O14 0.423849 0.010262 0.447887
O O15 0.235553 0.636209 0.078598
O O16 0.000000 0.000000 0.500000
#
# Coordination Sequence:
#
# PCOD9575194 Si02
#       8
#    18  18  18  18  18  18  18   6
#     4  11  19  36  66  93 129 170 218 283 339 394
#     4  11  25  39  62  96 139 184 227 274 348 426
#     4  11  21  40  66  96 137 172 227 292 355 418
#     4  10  23  40  70 101 131 175 236 299 358 411
#     4  11  21  44  68 102 131 176 237 300 353 411
#     4  12  22  39  62  97 130 173 218 277 343 403
#     4  10  23  38  60  95 134 181 223 272 344 428
#     4  12  24  33  60  99 129 156 210 276 337 383
#
# _framework density 21.320352
#
# number of rings (size 3 to 8) (size 9 to 14) (size 15 to 20)
#    0.000    1.091    5.455    0.818    1.909    1.636 
#    0.818    0.682    0.000    0.000    0.000    0.000 
#    0.000    0.000    0.000    0.000    0.000    0.000 
#
# Total GULP energy -245005.861567 kJ/mol
# GULP energy per Si atom -5568.315036 kJ/mol
# Density = 2.127183 g / cm^3
# Si number density = 21.320352 Si / 1000 Ang^3
#
#
#
# Elastic Constant Matrix: (Units=GPa)
#
#
# Indices 1 2 3 4 5 6 
#
# 1 102.4493 48.9230 17.3241 5.2151 -1.1181 0.0000
# 2 48.9230 102.4493 17.3241 -5.2151 1.1181 0.0000
# 3 17.3241 17.3241 55.3134 0.0000 0.0000 0.0000
# 4 5.2151 -5.2151 0.0000 25.6974 0.0000 1.1181
# 5 -1.1181 1.1181 0.0000 0.0000 25.6974 5.2151
# 6 0.0000 0.0000 0.0000 1.1181 5.2151 26.7632
#
#
#
# Elastic Compliance Matrix: (Units=1/GPa)
#
#
# Indices 1 2 3 4 5 6 
#
# 1 0.013302 -0.006186 -0.002229 -0.003955 0.000848 0.000000
# 2 -0.006186 0.013302 -0.002229 0.003955 -0.000848 0.000000
# 3 -0.002229 -0.002229 0.019475 0.000000 0.000000 0.000000
# 4 -0.003955 0.003955 0.000000 0.040594 0.000000 -0.001696
# 5 0.000848 -0.000848 0.000000 0.000000 0.040594 -0.007910
# 6 0.000000 0.000000 0.000000 -0.001696 -0.007910 0.038977
#
#
# Mechanical properties :
#
#
# Convention : Reuss Voigt Hill
#
# Bulk Modulus (GPa) = 40.33504 47.48384 43.90944
# Shear Modulus (GPa) = 25.53683 27.40764 26.47224
#
# Velocity S-wave (km/s) = 3.46463 3.58930 3.52752
# Velocity P-wave (km/s) = 5.91308 6.28469 6.10172
#
# Compressibility (1/GPa) = 0.02479234
#
# Stress axis : x y z
#
# Youngs Moduli (GPa) = 75.17407 75.17407 51.34801
#
# Poissons Ratio (x) = 0.46503 0.11445
# Poissons Ratio (y) = 0.46503 0.11445
# Poissons Ratio (z) = 0.16755 0.16755
#
# Static dielectric constant tensor:
#      x y z
#    x 1.828730 0.000000 0.000000 
#    y 0.000000 1.828730 0.000000 
#    z 0.000000 0.000000 1.824540 
# 
# From -- ./inp_files/3495.got.cif
#   From: 2010.05.17/outbox.cif.g08.bks.cpg/sg148_2_cif.got.tgz:3495.got - 2010.05.20 13:50:20.
