data_PCOD9575569
_publ_section_title
;
Structure prediction by ZEFSAII (Michael W. Deem and Ramdas Pophale) SiO2 
 PCOD9575569
Probable space group: P 31 1 2
;
_chemical_formula_sum "Si O2"
_cell_formula_units_Z 42
_cell_length_a 14.474343
_cell_length_b 14.474343
_cell_length_c 11.631198
_cell_angle_alpha 90.000000
_cell_angle_beta 90.000000
_cell_angle_gamma 120.000000
_cell_volume 2110.341796
_symmetry_space_group_name_H-M "P 31 1 2"
_symmetry_group_IT_number 151
_symmetry_cell_setting 'hexagonal'
loop_
_space_group_symop_operation_xyz
x,y,z
-y,x-y,1/3+z
-x+y,-x,2/3+z
-y,-x,2/3-z
-x+y,y,1/3-z
x,x-y,-z
loop_
_atom_site_type_symbol
_atom_site_label
_atom_site_fract_x
_atom_site_fract_y
_atom_site_fract_z
Si Si1 0.205336 0.579841 0.368172
Si Si2 0.843949 0.671586 0.355570
Si Si3 0.992043 0.497881 0.221176
Si Si4 0.002551 0.708972 0.168718
Si Si5 0.650472 0.818504 0.681843
Si Si6 0.999179 0.293079 0.173908
Si Si7 0.676752 0.441920 0.040542
O O1 0.311403 0.688598 0.333334
O O2 0.183348 0.591674 0.500000
O O3 0.219077 0.476792 0.352172
O O4 0.100250 0.551494 0.295346
O O5 0.958611 0.707694 0.297265
O O6 0.786386 0.703335 0.256453
O O7 0.817812 0.713703 0.471636
O O8 0.783527 0.543531 0.366039
O O9 0.001549 0.597734 0.150844
O O10 0.880272 0.451676 0.288433
O O11 0.982465 0.394569 0.160113
O O12 0.117174 0.806934 0.134256
O O13 0.699701 0.747616 0.633931
O O14 0.682974 0.908886 0.585256
O O15 0.730336 0.460672 0.166667
O O16 0.658411 0.329206 0.000000
#
# Coordination Sequence:
#
# PCOD9575569 Si02
#       7
#     6   6   6   6   6   6   6
#     4  11  24  36  52  74 110 162 208 243 295 358
#     4   9  16  28  48  76 112 146 196 235 293 337
#     4  10  20  34  49  74 112 153 201 251 292 343
#     4   9  16  29  47  74 107 151 192 243 283 352
#     4   9  19  30  50  75 106 148 204 238 301 332
#     4   9  18  30  48  77 106 148 194 255 283 346
#     4  11  20  33  52  80 108 155 201 237 293 359
#
# _framework density 19.901990000000001
#
# number of rings (size 3 to 8) (size 9 to 14) (size 15 to 20)
#    0.000    2.286    2.857    1.714    6.000    1.714 
#    0.000    0.000    0.000    0.000    0.000    0.000 
#    0.000    0.000  131.143  545.714   13.714    0.000 
#
# Total GULP energy -233894.197911 kJ/mol
# GULP energy per Si atom -5568.909474 kJ/mol
# Density = 1.985669 g / cm^3
# Si number density = 19.901990 Si / 1000 Ang^3
#
#
#
# Elastic Constant Matrix: (Units=GPa)
#
#
# Indices 1 2 3 4 5 6 
#
# 1 84.1295 45.7566 28.1644 0.0000 -1.5752 0.0000
# 2 45.7566 84.1295 28.1644 0.0000 1.5752 0.0000
# 3 28.1644 28.1644 37.8978 0.0000 0.0000 0.0000
# 4 0.0000 0.0000 0.0000 8.0953 0.0000 1.5752
# 5 -1.5752 1.5752 0.0000 0.0000 8.0953 0.0000
# 6 0.0000 0.0000 0.0000 1.5752 0.0000 19.1864
#
#
#
# Elastic Compliance Matrix: (Units=1/GPa)
#
#
# Indices 1 2 3 4 5 6 
#
# 1 0.018922 -0.007561 -0.008443 0.000000 0.005153 0.000000
# 2 -0.007561 0.018922 -0.008443 0.000000 -0.005153 0.000000
# 3 -0.008443 -0.008443 0.038936 0.000000 0.000000 0.000000
# 4 0.000000 0.000000 0.000000 0.125534 0.000000 -0.010306
# 5 0.005153 -0.005153 0.000000 0.000000 0.125534 0.000000
# 6 0.000000 0.000000 0.000000 -0.010306 0.000000 0.052966
#
#
# Mechanical properties :
#
#
# Convention : Reuss Voigt Hill
#
# Bulk Modulus (GPa) = 35.86092 45.59196 40.72644
# Shear Modulus (GPa) = 11.38945 14.01348 12.70146
#
# Velocity S-wave (km/s) = 2.39483 2.65641 2.52900
# Velocity P-wave (km/s) = 5.06999 5.68917 5.38848
#
# Compressibility (1/GPa) = 0.02788551
#
# Stress axis : x y z
#
# Youngs Moduli (GPa) = 52.84906 52.84906 25.68350
#
# Poissons Ratio (x) = 0.39961 0.21684
# Poissons Ratio (y) = 0.39961 0.21684
# Poissons Ratio (z) = 0.44619 0.44619
#
# Static dielectric constant tensor:
#      x y z
#    x 1.733590 0.000000 0.000000 
#    y 0.000000 1.733590 0.000000 
#    z 0.000000 0.000000 1.687810 
# 
# From -- ./inp_files/2586.got.cif
#   From: 2010.05.17/outbox.cif.g08.bks.cpg/sg151_2_cif.got.tgz:2586.got - 2010.05.20 10:33:20.
