data_PCOD9575574
_publ_section_title
;
Structure prediction by ZEFSAII (Michael W. Deem and Ramdas Pophale) SiO2 
 PCOD9575574
Probable space group: P 31 1 2
;
_chemical_formula_sum "Si O2"
_cell_formula_units_Z 36
_cell_length_a 8.977003
_cell_length_b 8.977003
_cell_length_c 23.773439
_cell_angle_alpha 90.000000
_cell_angle_beta 90.000000
_cell_angle_gamma 120.000000
_cell_volume 1659.148973
_symmetry_space_group_name_H-M "P 31 1 2"
_symmetry_group_IT_number 151
_symmetry_cell_setting 'hexagonal'
loop_
_space_group_symop_operation_xyz
x,y,z
-y,x-y,1/3+z
-x+y,-x,2/3+z
-y,-x,2/3-z
-x+y,y,1/3-z
x,x-y,-z
loop_
_atom_site_type_symbol
_atom_site_label
_atom_site_fract_x
_atom_site_fract_y
_atom_site_fract_z
Si Si1 0.283212 0.280829 0.728749
Si Si2 0.954106 0.669893 0.264105
Si Si3 0.590361 0.993618 0.222854
Si Si4 0.709305 0.611277 0.607415
Si Si5 0.057791 0.334911 0.060999
Si Si6 0.329421 0.947488 0.592271
O O1 0.268812 0.242117 0.662289
O O2 0.458590 0.461098 0.732198
O O3 0.132541 0.302525 0.757828
O O4 0.289132 0.115872 0.751382
O O5 0.935055 0.482963 0.266452
O O6 0.781363 0.655466 0.239262
O O7 0.487080 0.974159 0.166667
O O8 0.768067 0.169629 0.227257
O O9 0.623958 0.839228 0.235539
O O10 0.806388 0.612775 0.666667
O O11 0.698622 0.783483 0.600360
O O12 0.074206 0.506964 0.087697
O O13 0.049512 0.362367 0.993593
#
# Coordination Sequence:
#
# PCOD9575574 Si02
#       6
#     6   6   6   6   6   6
#     4  10  20  37  60  93 122 157 200 256 306 354
#     4  10  20  35  65  92 119 151 209 262 297 348
#     4  12  25  41  59  89 130 165 198 250 319 380
#     4  12  21  37  61  91 121 162 207 253 299 361
#     4  10  20  35  65  92 119 148 209 260 292 347
#     4  10  20  37  60  93 119 155 199 252 306 356
#
# _framework density 21.697870000000002
#
# number of rings (size 3 to 8) (size 9 to 14) (size 15 to 20)
#    0.000    1.333    3.333    3.000    4.667    2.667 
#    0.000   10.000    0.000    0.000    0.000    0.000 
#    0.000    0.000    0.000    0.000    0.000    0.000 
#
# Total GULP energy -200896.975094 kJ/mol
# GULP energy per Si atom -5580.471530 kJ/mol
# Density = 2.164849 g / cm^3
# Si number density = 21.697870 Si / 1000 Ang^3
#
#
#
# Elastic Constant Matrix: (Units=GPa)
#
#
# Indices 1 2 3 4 5 6 
#
# 1 128.4713 85.8140 -6.3071 -0.0106 -8.7673 0.0000
# 2 85.8140 128.4713 -6.3071 0.0106 8.7673 0.0000
# 3 -6.3071 -6.3071 23.8000 0.0000 0.0000 0.0000
# 4 -0.0106 0.0106 0.0000 -14.7378 0.0000 8.7673
# 5 -8.7673 8.7673 0.0000 0.0000 -14.7378 -0.0106
# 6 0.0000 0.0000 0.0000 8.7673 -0.0106 21.3286
#
#
#
# Elastic Compliance Matrix: (Units=1/GPa)
#
#
# Indices 1 2 3 4 5 6 
#
# 1 0.011789 -0.007048 0.001256 -0.000014 -0.011206 0.000000
# 2 -0.007048 0.011789 0.001256 0.000014 0.011206 0.000000
# 3 0.001256 0.001256 0.042683 0.000000 0.000000 0.000000
# 4 -0.000014 0.000014 0.000000 -0.054521 0.000000 0.022411
# 5 -0.011206 0.011206 0.000000 0.000000 -0.054521 -0.000027
# 6 0.000000 0.000000 0.000000 0.022411 -0.000027 0.037673
#
#
# Mechanical properties :
#
#
# Convention : Reuss Voigt Hill
#
# Bulk Modulus (GPa) = 17.48585 47.46024 32.47304
# Shear Modulus (GPa) = 217.15180 12.20679 114.67930
#
# Velocity S-wave (km/s) = 10.01484 2.37445 7.27788
# Velocity P-wave (km/s) = 11.90822 5.42569 9.25321
#
# Compressibility (1/GPa) = 0.05718911
#
# Stress axis : x y z
#
# Youngs Moduli (GPa) = 84.82789 84.82789 23.42870
#
# Poissons Ratio (x) = 0.59786 -0.02943
# Poissons Ratio (y) = 0.59786 -0.02943
# Poissons Ratio (z) = -0.10657 -0.10657
#
# Static dielectric constant tensor:
#      x y z
#    x 1.788810 0.000000 0.000000 
#    y 0.000000 1.788810 0.000000 
#    z 0.000000 0.000000 2.008530 
# 
# From -- ./inp_files/4625.got.cif
#   From: 2010.05.17/outbox.cif.g08.bks.cpg/sg151_3_cif.got.tgz:4625.got - 2010.05.20 10:33:20.
