data_PCOD9575607
_publ_section_title
;
Structure prediction by ZEFSAII (Michael W. Deem and Ramdas Pophale) SiO2 
 PCOD9575607
Probable space group: P 31 1 2
;
_chemical_formula_sum "Si O2"
_cell_formula_units_Z 36
_cell_length_a 8.183088
_cell_length_b 8.183088
_cell_length_c 27.560017
_cell_angle_alpha 90.000000
_cell_angle_beta 90.000000
_cell_angle_gamma 120.000000
_cell_volume 1598.249422
_symmetry_space_group_name_H-M "P 31 1 2"
_symmetry_group_IT_number 151
_symmetry_cell_setting 'hexagonal'
loop_
_space_group_symop_operation_xyz
x,y,z
-y,x-y,1/3+z
-x+y,-x,2/3+z
-y,-x,2/3-z
-x+y,y,1/3-z
x,x-y,-z
loop_
_atom_site_type_symbol
_atom_site_label
_atom_site_fract_x
_atom_site_fract_y
_atom_site_fract_z
Si Si1 0.882312 0.225866 0.530832
Si Si2 0.521124 0.946904 0.264919
Si Si3 0.264502 0.735499 0.833334
Si Si4 0.174218 0.296372 0.264188
Si Si5 0.827170 0.654340 0.666667
Si Si6 0.539825 0.269913 0.500000
Si Si7 0.086201 0.308019 0.867821
Si Si8 0.276703 0.638352 0.000000
O O1 0.691334 0.195617 0.503890
O O2 0.979166 0.436020 0.553221
O O3 0.031247 0.201539 0.497830
O O4 0.829829 0.087156 0.576780
O O5 0.650300 0.856405 0.249840
O O6 0.355335 0.774024 0.292315
O O7 0.634778 0.105143 0.304522
O O8 0.228416 0.823417 0.881567
O O9 0.172004 0.513360 0.842758
O O10 0.302182 0.447387 0.304637
O O11 0.976417 0.195930 0.292046
O O12 0.376290 0.239708 0.460360
#
# Coordination Sequence:
#
# PCOD9575607 Si02
#       8
#     6   6   3   6   3   3   6   3
#     4  12  24  44  68 106 143 176 241 305 352 444
#     4  11  22  44  64  95 140 185 234 293 356 442
#     4  12  21  43  70 100 132 184 235 295 360 422
#     4  11  25  42  70  98 138 185 236 299 366 439
#     4  10  28  42  66  98 136 194 238 292 368 444
#     4  12  25  41  68 112 138 180 233 297 376 424
#     4  12  24  42  70 104 141 181 233 304 364 432
#     4  10  20  46  66  90 134 192 234 280 378 436
#
# _framework density 22.524645
#
# number of rings (size 3 to 8) (size 9 to 14) (size 15 to 20)
#    0.000    0.667    6.667    0.000    7.000    1.333 
#    0.000    0.000    0.000    0.000    0.000    0.000 
#    0.000    0.000    0.000    0.000    0.000    0.000 
#
# Total GULP energy -200583.244167 kJ/mol
# GULP energy per Si atom -5571.756782 kJ/mol
# Density = 2.247338 g / cm^3
# Si number density = 22.524645 Si / 1000 Ang^3
#
#
#
# Elastic Constant Matrix: (Units=GPa)
#
#
# Indices 1 2 3 4 5 6 
#
# 1 54.4020 39.8635 23.2674 0.0006 -5.6618 0.0000
# 2 39.8635 54.4020 23.2674 -0.0006 5.6618 0.0000
# 3 23.2674 23.2674 87.0250 0.0000 0.0000 0.0000
# 4 0.0006 -0.0006 0.0000 41.5832 0.0000 5.6618
# 5 -5.6618 5.6618 0.0000 0.0000 41.5832 0.0006
# 6 0.0000 0.0000 0.0000 5.6618 0.0006 7.2693
#
#
#
# Elastic Compliance Matrix: (Units=1/GPa)
#
#
# Indices 1 2 3 4 5 6 
#
# 1 0.044582 -0.032360 -0.003268 -0.000001 0.010476 0.000000
# 2 -0.032360 0.044582 -0.003268 0.000001 -0.010476 0.000000
# 3 -0.003268 -0.003268 0.013238 0.000000 0.000000 0.000000
# 4 -0.000001 0.000001 0.000000 0.026901 0.000000 -0.020952
# 5 0.010476 -0.010476 0.000000 0.000000 0.026901 -0.000002
# 6 0.000000 0.000000 0.000000 -0.020952 -0.000002 0.153884
#
#
# Mechanical properties :
#
#
# Convention : Reuss Voigt Hill
#
# Bulk Modulus (GPa) = 40.63268 40.95839 40.79554
# Shear Modulus (GPa) = 12.62364 25.38251 19.00307
#
# Velocity S-wave (km/s) = 2.36992 3.36054 2.90773
# Velocity P-wave (km/s) = 5.05639 5.76896 5.42439
#
# Compressibility (1/GPa) = 0.02461073
#
# Stress axis : x y z
#
# Youngs Moduli (GPa) = 22.43070 22.43070 75.53888
#
# Poissons Ratio (x) = 0.72587 0.24683
# Poissons Ratio (y) = 0.72587 0.24683
# Poissons Ratio (z) = 0.07329 0.07329
#
# Static dielectric constant tensor:
#      x y z
#    x 1.929080 0.000000 0.000000 
#    y 0.000000 1.929080 0.000000 
#    z 0.000000 0.000000 1.829140 
# 
# From -- ./inp_files/4731.got.cif
#   From: 2010.05.17/outbox.cif.g08.bks.cpg/sg151_3_cif.got.tgz:4731.got - 2010.05.20 10:33:20.
