data_PCOD9575138
_publ_section_title
;
Structure prediction by ZEFSAII (Michael W. Deem and Ramdas Pophale) SiO2 
 PCOD9575138
Probable space group: R -3
;
_chemical_formula_sum "Si O2"
_cell_formula_units_Z 108
_cell_length_a 21.598959
_cell_length_b 21.598959
_cell_length_c 12.641447
_cell_angle_alpha 90.000000
_cell_angle_beta 90.000000
_cell_angle_gamma 120.000000
_cell_volume 5107.319889
_symmetry_space_group_name_H-M "R -3"
_symmetry_group_IT_number 148
_symmetry_cell_setting 'hexagonal'
loop_
_space_group_symop_operation_xyz
x,y,z
-y,x-y,z
-x+y,-x,z
-x,-y,-z
y,-x+y,-z
x-y,x,-z
2/3+x,1/3+y,1/3+z
2/3-y,1/3+x-y,1/3+z
2/3-x+y,1/3-x,1/3+z
2/3-x,1/3-y,1/3-z
2/3+y,1/3-x+y,1/3-z
2/3+x-y,1/3+x,1/3-z
1/3+x,2/3+y,2/3+z
1/3-y,2/3+x-y,2/3+z
1/3-x+y,2/3-x,2/3+z
1/3-x,2/3-y,2/3-z
1/3+y,2/3-x+y,2/3-z
1/3+x-y,2/3+x,2/3-z
loop_
_atom_site_type_symbol
_atom_site_label
_atom_site_fract_x
_atom_site_fract_y
_atom_site_fract_z
Si Si1 0.022625 0.695626 0.972700
Si Si2 0.102826 0.213417 0.237288
Si Si3 0.718371 0.494978 0.351208
Si Si4 0.758756 0.491491 0.797488
Si Si5 0.903730 0.547197 0.478029
Si Si6 0.228609 0.311137 0.472678
O O1 0.949235 0.666619 0.906036
O O2 0.086039 0.724319 0.887657
O O3 0.025561 0.751062 0.058670
O O4 0.025897 0.634126 0.041021
O O5 0.071783 0.174582 0.347949
O O6 0.169138 0.201054 0.212898
O O7 0.125415 0.296412 0.228908
O O8 0.049679 0.182904 0.138085
O O9 0.769850 0.463124 0.348118
O O10 0.741429 0.556176 0.262708
O O11 0.790896 0.437984 0.800328
O O12 0.824372 0.569357 0.829335
#
# Coordination Sequence:
#
# PCOD9575138 Si02
#       6
#    18  18  18  18  18  18
#     4  10  21  38  65  97 134 169 214 274 343 407
#     4  11  23  42  68  96 135 172 223 278 334 404
#     4  10  22  42  65  93 128 177 222 273 327 394
#     4  12  28  46  68  97 135 181 233 277 332 396
#     4  10  21  39  63  95 133 171 218 275 335 401
#     4  11  22  41  68 101 134 177 217 278 343 405
#
# _framework density 21.14612
#
# number of rings (size 3 to 8) (size 9 to 14) (size 15 to 20)
#    0.000    1.333    3.333    1.833    4.667    2.667 
#    0.000    5.000    0.000    0.000    0.000    0.000 
#    0.000    0.000    0.000    0.000    0.000    0.000 
#
# Total GULP energy -200876.761469 kJ/mol
# GULP energy per Si atom -5579.910041 kJ/mol
# Density = 2.109799 g / cm^3
# Si number density = 21.146120 Si / 1000 Ang^3
#
#
#
# Elastic Constant Matrix: (Units=GPa)
#
#
# Indices 1 2 3 4 5 6 
#
# 1 58.1377 19.7796 10.0589 -5.3508 1.4430 0.0000
# 2 19.7796 58.1377 10.0589 5.3508 -1.4430 0.0000
# 3 10.0589 10.0589 64.1114 0.0000 0.0000 0.0000
# 4 -5.3508 5.3508 0.0000 32.4211 0.0000 -1.4430
# 5 1.4430 -1.4430 0.0000 0.0000 32.4211 -5.3508
# 6 0.0000 0.0000 0.0000 -1.4430 -5.3508 19.1791
#
#
#
# Elastic Compliance Matrix: (Units=1/GPa)
#
#
# Indices 1 2 3 4 5 6 
#
# 1 0.020400 -0.007024 -0.002099 0.004526 -0.001221 0.000000
# 2 -0.007024 0.020400 -0.002099 -0.004526 0.001221 0.000000
# 3 -0.002099 -0.002099 0.016256 0.000000 0.000000 0.000000
# 4 0.004526 -0.004526 0.000000 0.032447 0.000000 0.002441
# 5 -0.001221 0.001221 0.000000 0.000000 0.032447 0.009052
# 6 0.000000 0.000000 0.000000 0.002441 0.009052 0.054849
#
#
# Mechanical properties :
#
#
# Convention : Reuss Voigt Hill
#
# Bulk Modulus (GPa) = 28.89024 28.90905 28.89965
# Shear Modulus (GPa) = 23.72128 26.17023 24.94576
#
# Velocity S-wave (km/s) = 3.35293 3.52176 3.43838
# Velocity P-wave (km/s) = 5.35550 5.49889 5.42767
#
# Compressibility (1/GPa) = 0.03461376
#
# Stress axis : x y z
#
# Youngs Moduli (GPa) = 49.01882 49.01882 61.51427
#
# Poissons Ratio (x) = 0.34433 0.12910
# Poissons Ratio (y) = 0.34433 0.12910
# Poissons Ratio (z) = 0.10287 0.10287
#
# Static dielectric constant tensor:
#      x y z
#    x 1.758800 0.000000 0.000000 
#    y 0.000000 1.758800 0.000000 
#    z 0.000000 0.000000 1.807840 
# 
# From -- ./inp_files/1542.got.cif
#   From: 2010.05.17/outbox.cif.g08.bks.cpg/sg148_1_cif.got.tgz:1542.got - 2010.05.20 13:50:20.
