data_PCOD9575117
_publ_section_title
;
Structure prediction by ZEFSAII (Michael W. Deem and Ramdas Pophale) SiO2 
 PCOD9575117
Probable space group: R -3
;
_chemical_formula_sum "Si O2"
_cell_formula_units_Z 84
_cell_length_a 14.096669
_cell_length_b 14.096669
_cell_length_c 21.746915
_cell_angle_alpha 90.000000
_cell_angle_beta 90.000000
_cell_angle_gamma 120.000000
_cell_volume 3742.495556
_symmetry_space_group_name_H-M "R -3"
_symmetry_group_IT_number 148
_symmetry_cell_setting 'hexagonal'
loop_
_space_group_symop_operation_xyz
x,y,z
-y,x-y,z
-x+y,-x,z
-x,-y,-z
y,-x+y,-z
x-y,x,-z
2/3+x,1/3+y,1/3+z
2/3-y,1/3+x-y,1/3+z
2/3-x+y,1/3-x,1/3+z
2/3-x,1/3-y,1/3-z
2/3+y,1/3-x+y,1/3-z
2/3+x-y,1/3+x,1/3-z
1/3+x,2/3+y,2/3+z
1/3-y,2/3+x-y,2/3+z
1/3-x+y,2/3-x,2/3+z
1/3-x,2/3-y,2/3-z
1/3+y,2/3-x+y,2/3-z
1/3+x-y,2/3+x,2/3-z
loop_
_atom_site_type_symbol
_atom_site_label
_atom_site_fract_x
_atom_site_fract_y
_atom_site_fract_z
Si Si1 0.041235 0.235238 0.830989
Si Si2 0.333334 0.666668 0.985550
Si Si3 0.666667 0.333334 0.167108
Si Si4 0.487020 0.594121 0.358314
Si Si5 0.898531 0.538107 0.849587
Si Si6 0.078551 0.704081 0.323977
O O1 0.166667 0.333334 0.833334
O O2 0.019813 0.209783 0.758492
O O3 0.956266 0.274906 0.849182
O O4 0.023011 0.119434 0.855799
O O5 0.333334 0.666667 0.909690
O O6 0.231729 0.675405 0.008826
O O7 0.385115 0.473273 0.364872
O O8 0.602738 0.625298 0.330497
O O9 0.880233 0.416578 0.843126
O O10 0.912622 0.572802 0.921381
O O11 0.166667 0.833334 0.333334
#
# Coordination Sequence:
#
# PCOD9575117 Si02
#       6
#    18   6   6  18  18  18
#     4  10  21  37  62  86 122 168 219 269 317 387
#     4   9  15  30  54  81 115 142 211 253 297 381
#     4   9  18  33  54  81 111 152 212 270 309 363
#     4  10  21  36  58  92 118 165 213 255 319 381
#     4  11  26  42  62  97 135 172 216 269 346 403
#     4  11  24  39  65  92 129 173 213 267 328 395
#
# _framework density 22.444917
#
# number of rings (size 3 to 8) (size 9 to 14) (size 15 to 20)
#    0.000    1.714    2.143    1.500    9.000    0.000 
#    0.000    0.000    0.000    0.429    0.000    0.000 
#    0.000    0.000    0.000    0.000    0.000    0.000 
#
# Total GULP energy -156122.758835 kJ/mol
# GULP energy per Si atom -5575.812816 kJ/mol
# Density = 2.239383 g / cm^3
# Si number density = 22.444917 Si / 1000 Ang^3
#
#
#
# Elastic Constant Matrix: (Units=GPa)
#
#
# Indices 1 2 3 4 5 6 
#
# 1 168.7535 82.3298 -8.9213 -3.9822 0.4831 0.0002
# 2 82.3298 168.7538 -8.9217 3.9825 -0.4830 0.0000
# 3 -8.9213 -8.9217 40.2990 0.0000 0.0001 -0.0001
# 4 -3.9822 3.9825 0.0000 21.3580 0.0000 -0.4830
# 5 0.4831 -0.4830 0.0001 0.0000 21.3580 -3.9822
# 6 0.0002 0.0000 -0.0001 -0.4830 -3.9822 43.2119
#
#
#
# Elastic Compliance Matrix: (Units=1/GPa)
#
#
# Indices 1 2 3 4 5 6 
#
# 1 0.007911 -0.003865 0.000896 0.002196 -0.000266 0.000000
# 2 -0.003865 0.007911 0.000896 -0.002196 0.000266 0.000000
# 3 0.000896 0.000896 0.025211 0.000000 0.000000 0.000000
# 4 0.002196 -0.002196 0.000000 0.047652 0.000000 0.000533
# 5 -0.000266 0.000266 0.000000 0.000000 0.047652 0.004391
# 6 0.000000 0.000000 0.000000 0.000533 0.004391 0.023552
#
#
# Mechanical properties :
#
#
# Convention : Reuss Voigt Hill
#
# Bulk Modulus (GPa) = 27.10970 56.30888 41.70929
# Shear Modulus (GPa) = 28.35559 38.07354 33.21457
#
# Velocity S-wave (km/s) = 3.55821 4.12310 3.85102
# Velocity P-wave (km/s) = 5.38383 6.91438 6.19654
#
# Compressibility (1/GPa) = 0.03688717
#
# Stress axis : x y z
#
# Youngs Moduli (GPa) = 126.40134 126.40143 39.66497
#
# Poissons Ratio (x) = 0.48853 -0.03553
# Poissons Ratio (y) = 0.48853 -0.03553
# Poissons Ratio (z) = -0.11322 -0.11324
#
# Static dielectric constant tensor:
#      x y z
#    x 1.894990 0.000000 0.000000 
#    y 0.000000 1.894990 0.000000 
#    z 0.000000 0.000000 1.900210 
# 
# From -- ./inp_files/3360.got.cif
#   From: 2010.05.17/outbox.cif.g08.bks.cpg/sg148_2_cif.got.tgz:3360.got - 2010.05.20 13:50:20.
