data_PCOD9575916
_publ_section_title
;
Structure prediction by ZEFSAII (Michael W. Deem and Ramdas Pophale) SiO2 
 PCOD9575916
Probable space group: P 31 2 1
;
_chemical_formula_sum "Si O2"
_cell_formula_units_Z 42
_cell_length_a 8.669862
_cell_length_b 8.669862
_cell_length_c 32.466625
_cell_angle_alpha 90.000000
_cell_angle_beta 90.000000
_cell_angle_gamma 120.000000
_cell_volume 2113.450819
_symmetry_space_group_name_H-M "P 31 2 1"
_symmetry_group_IT_number 152
_symmetry_cell_setting 'hexagonal'
loop_
_space_group_symop_operation_xyz
x,y,z
-y,x-y,1/3+z
-x+y,-x,2/3+z
x-y,-y,2/3-z
-x,-x+y,1/3-z
y,x,-z
loop_
_atom_site_type_symbol
_atom_site_label
_atom_site_fract_x
_atom_site_fract_y
_atom_site_fract_z
Si Si1 0.302965 0.977107 0.984137
Si Si2 0.859569 0.446231 0.245354
Si Si3 0.170984 0.483992 0.785518
Si Si4 0.910118 0.559421 0.467255
Si Si5 0.000000 0.371041 0.166667
Si Si6 0.617865 0.390283 0.711282
Si Si7 0.830091 0.193703 0.735486
Si Si8 0.065098 0.000000 0.333334
O O1 0.424796 0.059619 0.944161
O O2 0.241323 0.767483 0.984889
O O3 0.423601 0.096453 0.022216
O O4 0.120283 0.975545 0.980650
O O5 0.644294 0.306860 0.246058
O O6 0.894950 0.423323 0.198170
O O7 0.000054 0.660036 0.251187
O O8 0.292891 0.405525 0.799541
O O9 0.122588 0.558035 0.826307
O O10 0.987870 0.324545 0.766479
O O11 0.794931 0.655007 0.474162
O O12 0.850199 0.458914 0.423337
O O13 0.757961 0.322521 0.718765
O O14 0.917242 0.135083 0.700330
#
# Coordination Sequence:
#
# PCOD9575916 Si02
#       8
#     6   6   6   6   3   6   6   3
#     4  11  24  43  67 102 133 184 229 297 358 431
#     4  10  24  44  74  94 139 185 233 292 369 424
#     4  11  26  43  74  99 141 182 237 293 368 438
#     4  11  23  45  67 105 134 181 234 295 356 439
#     4  10  20  46  70  96 136 176 230 296 350 424
#     4  11  24  43  73  96 141 182 239 291 365 432
#     4  11  25  47  67 103 138 186 236 303 351 448
#     4  12  28  42  66 104 142 180 246 290 366 442
#
# _framework density 19.872714999999999
#
# number of rings (size 3 to 8) (size 9 to 14) (size 15 to 20)
#    0.000    1.143    2.857    3.429   10.000    0.000 
#    2.571    0.000    0.000    0.000    0.000    0.000 
#    0.000    0.000    0.000    0.000    0.000    0.000 
#
# Total GULP energy -233941.267464 kJ/mol
# GULP energy per Si atom -5570.030178 kJ/mol
# Density = 1.982748 g / cm^3
# Si number density = 19.872715 Si / 1000 Ang^3
#
#
#
# Elastic Constant Matrix: (Units=GPa)
#
#
# Indices 1 2 3 4 5 6 
#
# 1 1.0788 95.0062 29.9378 20.7595 -0.0020 0.0000
# 2 95.0062 1.0788 29.9378 -20.7595 0.0020 0.0000
# 3 29.9378 29.9378 76.0261 0.0000 0.0000 0.0000
# 4 20.7595 -20.7595 0.0000 25.8683 0.0000 0.0020
# 5 -0.0020 0.0020 0.0000 0.0000 25.8683 20.7595
# 6 0.0000 0.0000 0.0000 0.0020 20.7595 -46.9637
#
#
#
# Elastic Compliance Matrix: (Units=1/GPa)
#
#
# Indices 1 2 3 4 5 6 
#
# 1 0.002967 0.010825 -0.005431 0.006307 -0.000001 0.000000
# 2 0.010825 0.002967 -0.005431 -0.006307 0.000001 0.000000
# 3 -0.005431 -0.005431 0.017431 0.000000 0.000000 0.000000
# 4 0.006307 -0.006307 0.000000 0.028535 0.000000 0.000001
# 5 -0.000001 0.000001 0.000000 0.000000 0.028535 0.012613
# 6 0.000000 0.000000 0.000000 0.000001 0.012613 -0.015718
#
#
# Mechanical properties :
#
#
# Convention : Reuss Voigt Hill
#
# Bulk Modulus (GPa) = 42.93631 43.10523 43.02077
# Shear Modulus (GPa) = 68.91534 -4.15861 32.37837
#
# Velocity S-wave (km/s) = 5.89522 -1.44816 4.04082
# Velocity P-wave (km/s) = 8.24565 4.35219 6.59289
#
# Compressibility (1/GPa) = 0.02329031
#
# Stress axis : x y z
#
# Youngs Moduli (GPa) = 337.09692 337.09692 57.37032
#
# Poissons Ratio (x) = -3.64916 0.31158
# Poissons Ratio (y) = -3.64916 0.31158
# Poissons Ratio (z) = 1.83076 1.83076
#
# Static dielectric constant tensor:
#      x y z
#    x 1.860060 0.000000 0.000000 
#    y 0.000000 1.860060 0.000000 
#    z 0.000000 0.000000 1.719740 
# 
# From -- ./inp_files/3772.got.cif
#   From: 2010.05.17/outbox.cif.g08.bks.cpg/sg152_2_cif.got.tgz:3772.got - 2010.05.20 10:36:06.
