data_PCOD9575462
_publ_section_title
;
Structure prediction by ZEFSAII (Michael W. Deem and Ramdas Pophale) SiO2 
 PCOD9575462
Probable space group: P 3 2 1
;
_chemical_formula_sum "Si O2"
_cell_formula_units_Z 45
_cell_length_a 17.517279
_cell_length_b 17.517279
_cell_length_c 8.213470
_cell_angle_alpha 90.000000
_cell_angle_beta 90.000000
_cell_angle_gamma 120.000000
_cell_volume 2182.682674
_symmetry_space_group_name_H-M "P 3 2 1"
_symmetry_group_IT_number 150
_symmetry_cell_setting 'hexagonal'
loop_
_space_group_symop_operation_xyz
x,y,z
-y,x-y,z
-x+y,-x,z
x-y,-y,-z
-x,-x+y,-z
y,x,-z
loop_
_atom_site_type_symbol
_atom_site_label
_atom_site_fract_x
_atom_site_fract_y
_atom_site_fract_z
Si Si1 0.253872 0.307479 0.751579
Si Si2 0.862720 0.413682 0.086089
Si Si3 0.812042 0.152211 0.765167
Si Si4 0.407288 0.407288 0.500000
Si Si5 0.461956 0.252849 0.043630
Si Si6 0.454097 0.954558 0.257443
Si Si7 0.307345 0.983144 0.183442
Si Si8 0.905696 0.174993 0.427265
O O1 0.292471 0.244324 0.799733
O O2 0.326580 0.374203 0.623683
O O3 0.244627 0.373537 0.875938
O O4 0.159039 0.245838 0.669349
O O5 0.817717 0.308732 0.089976
O O6 0.801137 0.456160 0.100542
O O7 0.941851 0.456476 0.214627
O O8 0.903475 0.446953 0.906714
O O9 0.909289 0.205769 0.844941
O O10 0.842424 0.171253 0.575613
O O11 0.759700 0.195439 0.851370
O O12 0.432140 0.495597 0.399663
O O13 0.358080 0.942740 0.284585
O O14 0.314725 0.061780 0.293308
O O15 0.344784 0.000000 0.000000
O O16 0.000000 0.194598 0.500000
#
# Coordination Sequence:
#
# PCOD9575462 Si02
#       8
#     6   6   6   3   6   6   6   6
#     4  12  23  43  64  97 132 171 225 282 341 413
#     4  11  23  40  62  91 127 168 223 267 330 408
#     4  11  22  39  64  98 127 168 220 282 340 407
#     4  12  24  38  64  98 130 168 222 282 332 400
#     4  12  24  41  66  94 132 179 222 280 343 408
#     4  11  22  40  62  90 127 170 217 270 330 401
#     4  11  21  41  65  97 130 173 226 280 338 424
#     4  10  23  38  64  95 129 168 218 280 344 403
#
# _framework density 20.616831000000001
#
# number of rings (size 3 to 8) (size 9 to 14) (size 15 to 20)
#    0.000    0.800    5.333    3.067    4.667    0.000 
#    0.000    0.000    0.000   13.867    0.000    7.467 
#    0.000    0.000    0.000    0.000    0.000    0.000 
#
# Total GULP energy -250695.462301 kJ/mol
# GULP energy per Si atom -5571.010273 kJ/mol
# Density = 2.056991 g / cm^3
# Si number density = 20.616831 Si / 1000 Ang^3
#
#
#
# Elastic Constant Matrix: (Units=GPa)
#
#
# Indices 1 2 3 4 5 6 
#
# 1 101.6722 45.7910 28.1466 1.7006 0.0000 0.0000
# 2 45.7910 101.6722 28.1466 -1.7006 0.0000 0.0000
# 3 28.1466 28.1466 64.2205 0.0000 0.0000 0.0000
# 4 1.7006 -1.7006 0.0000 30.8922 0.0000 0.0000
# 5 0.0000 0.0000 0.0000 0.0000 30.8922 1.7006
# 6 0.0000 0.0000 0.0000 0.0000 1.7006 27.9406
#
#
#
# Elastic Compliance Matrix: (Units=1/GPa)
#
#
# Indices 1 2 3 4 5 6 
#
# 1 0.013050 -0.004906 -0.003569 -0.000988 0.000000 0.000000
# 2 -0.004906 0.013050 -0.003569 0.000988 0.000000 0.000000
# 3 -0.003569 -0.003569 0.018700 0.000000 0.000000 0.000000
# 4 -0.000988 0.000988 0.000000 0.032479 0.000000 0.000000
# 5 0.000000 0.000000 0.000000 0.000000 0.032479 -0.001977
# 6 0.000000 0.000000 0.000000 0.000000 -0.001977 0.035911
#
#
# Mechanical properties :
#
#
# Convention : Reuss Voigt Hill
#
# Bulk Modulus (GPa) = 48.28436 52.41481 50.34958
# Shear Modulus (GPa) = 28.30280 28.97704 28.63992
#
# Velocity S-wave (km/s) = 3.70915 3.75307 3.73118
# Velocity P-wave (km/s) = 6.46641 6.65276 6.56025
#
# Compressibility (1/GPa) = 0.02071064
#
# Stress axis : x y z
#
# Youngs Moduli (GPa) = 76.63065 76.63065 53.47567
#
# Poissons Ratio (x) = 0.37593 0.19087
# Poissons Ratio (y) = 0.37593 0.19087
# Poissons Ratio (z) = 0.27352 0.27352
#
# Static dielectric constant tensor:
#      x y z
#    x 1.767050 0.000000 0.000000 
#    y 0.000000 1.767050 0.000000 
#    z 0.000000 0.000000 1.806840 
# 
# From -- ./inp_files/758.got.cif
#   From: 2010.05.17/outbox.cif.g08.bks.cpg/sg150_cif.got.tgz:758.got - 2010.05.20 13:53:18.
