data_PCOD9575687
_publ_section_title
;
Structure prediction by ZEFSAII (Michael W. Deem and Ramdas Pophale) SiO2 
 PCOD9575687
Probable space group: P 31 1 2
;
_chemical_formula_sum "Si O2"
_cell_formula_units_Z 36
_cell_length_a 11.336078
_cell_length_b 11.336078
_cell_length_c 14.418953
_cell_angle_alpha 90.000000
_cell_angle_beta 90.000000
_cell_angle_gamma 120.000000
_cell_volume 1604.685798
_symmetry_space_group_name_H-M "P 31 1 2"
_symmetry_group_IT_number 151
_symmetry_cell_setting 'hexagonal'
loop_
_space_group_symop_operation_xyz
x,y,z
-y,x-y,1/3+z
-x+y,-x,2/3+z
-y,-x,2/3-z
-x+y,y,1/3-z
x,x-y,-z
loop_
_atom_site_type_symbol
_atom_site_label
_atom_site_fract_x
_atom_site_fract_y
_atom_site_fract_z
Si Si1 0.237114 0.241622 0.969109
Si Si2 0.579412 0.654699 0.013152
Si Si3 0.214001 0.480993 0.266736
Si Si4 0.757726 0.995477 0.809915
Si Si5 0.447467 0.153479 0.183739
Si Si6 0.651685 0.599280 0.364067
O O1 0.149298 0.272163 0.895093
O O2 0.374075 0.283238 0.913515
O O3 0.256344 0.334177 0.058234
O O4 0.172255 0.086128 0.000000
O O5 0.413003 0.574228 0.017101
O O6 0.649695 0.663878 0.113151
O O7 0.625182 0.812591 0.000000
O O8 0.634938 0.599089 0.930569
O O9 0.271554 0.543107 0.166667
O O10 0.326550 0.438922 0.295085
O O11 0.749199 0.075454 0.721323
O O12 0.916478 0.083523 0.833334
O O13 0.607317 0.214634 0.166667
O O14 0.402614 0.260081 0.217536
O O15 0.553053 0.446948 0.333334
#
# Coordination Sequence:
#
# PCOD9575687 Si02
#       6
#     6   6   6   6   6   6
#     4  11  25  43  69 104 145 190 250 302 372 461
#     4  12  24  44  77 107 151 189 251 316 375 458
#     4  11  24  45  71 105 145 190 245 311 373 441
#     4  11  24  42  69 103 145 194 245 305 386 452
#     4  12  25  46  72 108 148 195 257 313 386 456
#     4  11  25  45  68 103 143 191 247 306 379 454
#
# _framework density 22.434296
#
# number of rings (size 3 to 8) (size 9 to 14) (size 15 to 20)
#    0.000    0.667    5.000    2.500    0.000    7.333 
#    3.000    0.000    0.000    0.000    0.000    0.000 
#    0.000    0.000    0.000    0.000    0.000    0.000 
#
# Total GULP energy -200591.896453 kJ/mol
# GULP energy per Si atom -5571.997124 kJ/mol
# Density = 2.238323 g / cm^3
# Si number density = 22.434296 Si / 1000 Ang^3
#
#
#
# Elastic Constant Matrix: (Units=GPa)
#
#
# Indices 1 2 3 4 5 6 
#
# 1 146.6852 -42.7508 16.5452 -0.0120 -23.2856 0.0000
# 2 -42.7508 146.6852 16.5452 0.0120 23.2856 0.0000
# 3 16.5452 16.5452 56.7139 0.0000 0.0000 0.0000
# 4 -0.0120 0.0120 0.0000 33.8880 0.0000 23.2856
# 5 -23.2856 23.2856 0.0000 0.0000 33.8880 -0.0120
# 6 0.0000 0.0000 0.0000 23.2856 -0.0120 94.7180
#
#
#
# Elastic Compliance Matrix: (Units=1/GPa)
#
#
# Indices 1 2 3 4 5 6 
#
# 1 0.008479 0.002127 -0.003094 0.000002 0.004365 0.000000
# 2 0.002127 0.008479 -0.003094 -0.000002 -0.004365 0.000000
# 3 -0.003094 -0.003094 0.019438 0.000000 0.000000 0.000000
# 4 0.000002 -0.000002 0.000000 0.035507 0.000000 -0.008729
# 5 0.004365 -0.004365 0.000000 0.000000 0.035507 0.000004
# 6 0.000000 0.000000 0.000000 -0.008729 0.000004 0.012704
#
#
# Mechanical properties :
#
#
# Convention : Reuss Voigt Hill
#
# Bulk Modulus (GPa) = 35.36836 36.75151 36.05994
# Shear Modulus (GPa) = 36.32118 56.48178 46.40148
#
# Velocity S-wave (km/s) = 4.02805 5.02307 4.55282
# Velocity P-wave (km/s) = 6.11826 7.07524 6.61408
#
# Compressibility (1/GPa) = 0.02827385
#
# Stress axis : x y z
#
# Youngs Moduli (GPa) = 117.93554 117.93554 51.44625
#
# Poissons Ratio (x) = -0.25090 0.15919
# Poissons Ratio (y) = -0.25090 0.15919
# Poissons Ratio (z) = 0.36493 0.36493
#
# Static dielectric constant tensor:
#      x y z
#    x 1.737470 0.000000 0.000000 
#    y 0.000000 1.737470 0.000000 
#    z 0.000000 0.000000 1.781520 
# 
# From -- ./inp_files/2921.got.cif
#   From: 2010.05.17/outbox.cif.g08.bks.cpg/sg151_2_cif.got.tgz:2921.got - 2010.05.20 10:33:20.
