data_PCOD9575873
_publ_section_title
;
Structure prediction by ZEFSAII (Michael W. Deem and Ramdas Pophale) SiO2 
 PCOD9575873
Probable space group: P 31 2 1
;
_chemical_formula_sum "Si O2"
_cell_formula_units_Z 45
_cell_length_a 15.318397
_cell_length_b 15.318397
_cell_length_c 12.235556
_cell_angle_alpha 90.000000
_cell_angle_beta 90.000000
_cell_angle_gamma 120.000000
_cell_volume 2486.457167
_symmetry_space_group_name_H-M "P 31 2 1"
_symmetry_group_IT_number 152
_symmetry_cell_setting 'hexagonal'
loop_
_space_group_symop_operation_xyz
x,y,z
-y,x-y,1/3+z
-x+y,-x,2/3+z
x-y,-y,2/3-z
-x,-x+y,1/3-z
y,x,-z
loop_
_atom_site_type_symbol
_atom_site_label
_atom_site_fract_x
_atom_site_fract_y
_atom_site_fract_z
Si Si1 0.399006 0.114058 0.820862
Si Si2 0.923206 0.730800 0.769436
Si Si3 0.431869 0.820176 0.917864
Si Si4 0.710227 0.338238 0.561813
Si Si5 0.000000 0.643604 0.166667
Si Si6 0.100630 0.018290 0.594466
Si Si7 0.515114 0.747306 0.297720
Si Si8 0.076584 0.793392 0.962832
O O1 0.490618 0.127512 0.745789
O O2 0.444843 0.148269 0.941676
O O3 0.361209 0.185934 0.771008
O O4 0.310402 0.000000 0.833334
O O5 0.880626 0.808620 0.776303
O O6 0.839987 0.615377 0.750619
O O7 0.000000 0.766831 0.666667
O O8 0.984514 0.744297 0.879115
O O9 0.379122 0.729778 0.827878
O O10 0.541252 0.908459 0.883434
O O11 0.423743 0.761022 0.029340
O O12 0.774507 0.327217 0.464986
O O13 0.771115 0.436756 0.637640
O O14 0.950602 0.675426 0.263547
O O15 0.076627 0.076627 0.500000
O O16 0.193086 0.098548 0.665596
O O17 0.000000 0.965199 0.666667
#
# Coordination Sequence:
#
# PCOD9575873 Si02
#       8
#     6   6   6   6   3   6   6   6
#     4  11  22  38  60  87 117 150 205 252 295 352
#     4  11  22  37  61  92 123 158 207 257 298 367
#     4  10  20  40  59  89 115 157 197 251 309 361
#     4   9  20  38  66  82 120 161 200 245 311 378
#     4  12  24  38  58  90 126 152 202 254 314 358
#     4  11  22  39  60  87 125 168 203 244 313 375
#     4  10  20  39  60  93 116 161 203 249 307 366
#     4  12  24  37  60  89 121 160 199 253 299 373
#
# _framework density 18.098040999999998
#
# number of rings (size 3 to 8) (size 9 to 14) (size 15 to 20)
#    0.000    1.333    4.000    2.400    1.867    1.067 
#    0.000    0.000    0.000    1.600    0.000    0.000 
#    0.000    0.000    0.000    0.000    0.000    0.000 
#
# Total GULP energy -251064.202197 kJ/mol
# GULP energy per Si atom -5579.204493 kJ/mol
# Density = 1.805685 g / cm^3
# Si number density = 18.098041 Si / 1000 Ang^3
#
#
#
# Elastic Constant Matrix: (Units=GPa)
#
#
# Indices 1 2 3 4 5 6 
#
# 1 134.6391 -27.7476 22.6927 11.7129 -0.0001 0.0000
# 2 -27.7476 134.6391 22.6927 -11.7129 0.0001 0.0000
# 3 22.6927 22.6927 78.6199 0.0000 0.0000 0.0000
# 4 11.7129 -11.7129 0.0000 20.6239 0.0000 0.0001
# 5 -0.0001 0.0001 0.0000 0.0000 20.6239 11.7129
# 6 0.0000 0.0000 0.0000 0.0001 11.7129 81.1934
#
#
#
# Elastic Compliance Matrix: (Units=1/GPa)
#
#
# Indices 1 2 3 4 5 6 
#
# 1 0.008685 0.001977 -0.003077 -0.003809 0.000000 0.000000
# 2 0.001977 0.008685 -0.003077 0.003809 0.000000 0.000000
# 3 -0.003077 -0.003077 0.014496 0.000000 0.000000 0.000000
# 4 -0.003809 0.003809 0.000000 0.052814 0.000000 0.000000
# 5 0.000000 0.000000 0.000000 0.000000 0.052814 -0.007619
# 6 0.000000 0.000000 0.000000 0.000000 -0.007619 0.013415
#
#
# Mechanical properties :
#
#
# Convention : Reuss Voigt Hill
#
# Bulk Modulus (GPa) = 42.53492 42.57482 42.55487
# Shear Modulus (GPa) = 29.92184 46.50559 38.21372
#
# Velocity S-wave (km/s) = 4.07051 5.07467 4.60007
# Velocity P-wave (km/s) = 6.75616 7.60999 7.19575
#
# Compressibility (1/GPa) = 0.02351009
#
# Stress axis : x y z
#
# Youngs Moduli (GPa) = 115.14343 115.14343 68.98470
#
# Poissons Ratio (x) = -0.22765 0.21230
# Poissons Ratio (y) = -0.22765 0.21230
# Poissons Ratio (z) = 0.35435 0.35435
#
# Static dielectric constant tensor:
#      x y z
#    x 1.611360 0.000000 0.000000 
#    y 0.000000 1.611360 0.000000 
#    z 0.000000 0.000000 1.635440 
# 
# From -- ./inp_files/1866.got.cif
#   From: 2010.05.17/outbox.cif.g08.bks.cpg/sg152_1_cif.got.tgz:1866.got - 2010.05.20 10:36:06.
