data_PCOD9575811
_publ_section_title
;
Structure prediction by ZEFSAII (Michael W. Deem and Ramdas Pophale) SiO2 
 PCOD9575811
Probable space group: P 31 2 1
;
_chemical_formula_sum "Si O2"
_cell_formula_units_Z 24
_cell_length_a 9.677998
_cell_length_b 9.677998
_cell_length_c 11.132810
_cell_angle_alpha 90.000000
_cell_angle_beta 90.000000
_cell_angle_gamma 120.000000
_cell_volume 903.038954
_symmetry_space_group_name_H-M "P 31 2 1"
_symmetry_group_IT_number 152
_symmetry_cell_setting 'hexagonal'
loop_
_space_group_symop_operation_xyz
x,y,z
-y,x-y,1/3+z
-x+y,-x,2/3+z
x-y,-y,2/3-z
-x,-x+y,1/3-z
y,x,-z
loop_
_atom_site_type_symbol
_atom_site_label
_atom_site_fract_x
_atom_site_fract_y
_atom_site_fract_z
Si Si1 0.759651 0.773433 0.369526
Si Si2 0.602997 0.175690 0.693636
Si Si3 0.778622 0.261632 0.453008
Si Si4 0.277585 0.081475 0.452547
O O1 0.833696 0.833696 0.500000
O O2 0.582188 0.641248 0.617578
O O3 0.639988 0.830868 0.321182
O O4 0.868026 0.794719 0.252501
O O5 0.722698 0.373916 0.391664
O O6 0.652706 0.169394 0.557033
O O7 0.740466 0.162937 0.765955
O O8 0.000000 0.175458 0.666667
O O9 0.947685 0.333147 0.523100
#
# Coordination Sequence:
#
# PCOD9575811 Si02
#       4
#     6   6   6   6
#     4  10  20  27  42  70  86 115 167 192 219 284
#     4  11  16  32  47  58  97 133 141 194 238 254
#     4   9  18  28  44  62  84 126 164 174 224 288
#     4   8  18  29  41  62  85 122 160 176 221 290
#
# _framework density 26.576927000000001
#
# number of rings (size 3 to 8) (size 9 to 14) (size 15 to 20)
#    1.500    1.000    2.500    1.500    0.000    0.000 
#    0.000    0.000    0.000    0.000    0.000    0.000 
#    0.000    0.000    0.000  441.000    0.000    0.000 
#
# Total GULP energy -133756.972771 kJ/mol
# GULP energy per Si atom -5573.207199 kJ/mol
# Density = 2.651644 g / cm^3
# Si number density = 26.576927 Si / 1000 Ang^3
#
#
#
# Elastic Constant Matrix: (Units=GPa)
#
#
# Indices 1 2 3 4 5 6 
#
# 1 98.7651 80.7688 46.2936 11.7080 0.0000 0.0000
# 2 80.7688 98.7651 46.2936 -11.7080 0.0000 0.0000
# 3 46.2936 46.2936 261.1064 0.0000 0.0000 0.0000
# 4 11.7080 -11.7080 0.0000 25.8111 0.0000 0.0000
# 5 0.0000 0.0000 0.0000 0.0000 25.8111 11.7080
# 6 0.0000 0.0000 0.0000 0.0000 11.7080 8.9981
#
#
#
# Elastic Compliance Matrix: (Units=1/GPa)
#
#
# Indices 1 2 3 4 5 6 
#
# 1 0.070864 -0.064734 -0.001087 -0.061508 0.000000 0.000000
# 2 -0.064734 0.070864 -0.001087 0.061508 0.000000 0.000000
# 3 -0.001087 -0.001087 0.004215 0.000000 0.000000 0.000000
# 4 -0.061508 0.061508 0.000000 0.094543 0.000000 0.000000
# 5 0.000000 0.000000 0.000000 0.000000 0.094543 -0.123015
# 6 0.000000 0.000000 0.000000 0.000000 -0.123015 0.271196
#
#
# Mechanical properties :
#
#
# Convention : Reuss Voigt Hill
#
# Bulk Modulus (GPa) = 82.44973 89.48316 85.96644
# Shear Modulus (GPa) = 6.71967 31.14278 18.93123
#
# Velocity S-wave (km/s) = 1.59181 3.42687 2.67182
# Velocity P-wave (km/s) = 5.87102 7.02855 6.47570
#
# Compressibility (1/GPa) = 0.01212860
#
# Stress axis : x y z
#
# Youngs Moduli (GPa) = 14.11149 14.11149 237.23243
#
# Poissons Ratio (x) = 0.91349 0.25785
# Poissons Ratio (y) = 0.91349 0.25785
# Poissons Ratio (z) = 0.01534 0.01534
#
# Static dielectric constant tensor:
#      x y z
#    x 2.089230 0.000000 0.000000 
#    y 0.000000 2.089230 0.000000 
#    z 0.000000 0.000000 2.022090 
# 
# From -- ./inp_files/971.got.cif
#   From: 2010.05.17/outbox.cif.g08.bks.cpg/sg152_1_cif.got.tgz:971.got - 2010.05.20 10:36:06.
