data_PCOD9575424
_publ_section_title
;
Structure prediction by ZEFSAII (Michael W. Deem and Ramdas Pophale) SiO2 
 PCOD9575424
Probable space group: P 3 2 1
;
_chemical_formula_sum "Si O2"
_cell_formula_units_Z 48
_cell_length_a 12.808011
_cell_length_b 12.808011
_cell_length_c 21.083669
_cell_angle_alpha 90.000000
_cell_angle_beta 90.000000
_cell_angle_gamma 120.000000
_cell_volume 2995.299162
_symmetry_space_group_name_H-M "P 3 2 1"
_symmetry_group_IT_number 150
_symmetry_cell_setting 'hexagonal'
loop_
_space_group_symop_operation_xyz
x,y,z
-y,x-y,z
-x+y,-x,z
x-y,-y,-z
-x,-x+y,-z
y,x,-z
loop_
_atom_site_type_symbol
_atom_site_label
_atom_site_fract_x
_atom_site_fract_y
_atom_site_fract_z
Si Si1 0.333338 0.914866 0.318385
Si Si2 0.418472 0.333338 0.681615
Si Si3 0.333949 0.915344 0.560660
Si Si4 0.581395 0.915344 0.560660
Si Si5 0.581746 0.666501 0.799621
Si Si6 0.667291 0.085641 0.056803
Si Si7 0.581746 0.915245 0.799621
Si Si8 0.581650 0.667291 0.943197
O O1 0.206509 0.793491 0.324431
O O2 0.443162 0.886324 0.319164
O O3 0.358850 0.006042 0.376475
O O4 0.344993 0.985606 0.253306
O O5 0.352808 0.358850 0.623525
O O6 0.359387 0.344993 0.746694
O O7 0.442178 0.884357 0.559967
O O8 0.205707 0.794293 0.559262
O O9 0.355541 0.000000 0.500000
O O10 0.644459 0.000000 0.500000
O O11 0.585821 0.792910 0.789494
O O12 0.443496 0.556504 0.794971
O O13 0.624193 0.664251 0.871500
O O14 0.664251 0.040059 0.128500
O O15 0.786195 0.213805 0.051486
O O16 0.550508 0.101017 0.050651
O O17 0.660133 0.000000 0.000000
O O18 0.660133 0.660133 0.000000
#
# Coordination Sequence:
#
# PCOD9575424 Si02
#       8
#     6   6   6   6   6   6   6   6
#     4  10  20  33  50  72  99 129 159 194 237 285
#     4  10  20  33  50  72  99 129 159 194 237 285
#     4  10  20  34  54  78 102 128 159 197 238 280
#     4  10  20  34  54  78 102 128 159 197 238 280
#     4   9  17  30  49  71  94 121 155 197 241 284
#     4   9  17  29  46  69  95 123 155 192 237 285
#     4   9  17  30  49  71  94 121 155 197 241 284
#     4   9  17  29  46  69  95 123 155 192 237 285
#
# _framework density 16.025110000000002
#
# number of rings (size 3 to 8) (size 9 to 14) (size 15 to 20)
#    0.000    2.500    0.000    2.500    0.000    3.000 
#    0.000    5.000    0.000   12.750    0.000    0.000 
#    0.000    0.000    0.000    0.000    0.000    0.000 
#
# Total GULP energy -267618.247548 kJ/mol
# GULP energy per Si atom -5575.380157 kJ/mol
# Density = 1.598864 g / cm^3
# Si number density = 16.025110 Si / 1000 Ang^3
#
#
#
# Elastic Constant Matrix: (Units=GPa)
#
#
# Indices 1 2 3 4 5 6 
#
# 1 99.6705 63.4491 74.4178 -1.8707 0.0000 0.0000
# 2 63.4491 99.6705 74.4178 1.8707 0.0000 0.0000
# 3 74.4178 74.4178 151.2356 0.0000 0.0000 0.0000
# 4 -1.8707 1.8707 0.0000 20.4326 0.0000 0.0000
# 5 0.0000 0.0000 0.0000 0.0000 20.4326 -1.8707
# 6 0.0000 0.0000 0.0000 0.0000 -1.8707 18.1107
#
#
#
# Elastic Compliance Matrix: (Units=1/GPa)
#
#
# Indices 1 2 3 4 5 6 
#
# 1 0.019499 -0.008373 -0.005475 0.002552 0.000000 0.000000
# 2 -0.008373 0.019499 -0.005475 -0.002552 0.000000 0.000000
# 3 -0.005475 -0.005475 0.012000 0.000000 0.000000 0.000000
# 4 0.002552 -0.002552 0.000000 0.049409 0.000000 0.000000
# 5 0.000000 0.000000 0.000000 0.000000 0.049409 0.005103
# 6 0.000000 0.000000 0.000000 0.000000 0.005103 0.055743
#
#
# Mechanical properties :
#
#
# Convention : Reuss Voigt Hill
#
# Bulk Modulus (GPa) = 80.95226 86.12734 83.53980
# Shear Modulus (GPa) = 20.13539 21.01465 20.57502
#
# Velocity S-wave (km/s) = 3.54855 3.62520 3.58708
# Velocity P-wave (km/s) = 8.21067 8.44894 8.33066
#
# Compressibility (1/GPa) = 0.01235296
#
# Stress axis : x y z
#
# Youngs Moduli (GPa) = 51.28584 51.28584 83.33439
#
# Poissons Ratio (x) = 0.42941 0.45622
# Poissons Ratio (y) = 0.42941 0.45622
# Poissons Ratio (z) = 0.28077 0.28077
#
# Static dielectric constant tensor:
#      x y z
#    x 1.501040 0.000000 0.000000 
#    y 0.000000 1.501040 0.000000 
#    z 0.000000 0.000000 1.560570 
# 
# From -- ./inp_files/1143.got.cif
#   From: 2010.05.17/outbox.cif.g08.bks.cpg/sg150_cif.got.tgz:1143.got - 2010.05.20 13:53:18.
