data_PCOD9575900
_publ_section_title
;
Structure prediction by ZEFSAII (Michael W. Deem and Ramdas Pophale) SiO2 
 PCOD9575900
Probable space group: P 31 2 1
;
_chemical_formula_sum "Si O2"
_cell_formula_units_Z 30
_cell_length_a 16.668513
_cell_length_b 16.668513
_cell_length_c 5.521439
_cell_angle_alpha 90.000000
_cell_angle_beta 90.000000
_cell_angle_gamma 120.000000
_cell_volume 1328.546093
_symmetry_space_group_name_H-M "P 31 2 1"
_symmetry_group_IT_number 152
_symmetry_cell_setting 'hexagonal'
loop_
_space_group_symop_operation_xyz
x,y,z
-y,x-y,1/3+z
-x+y,-x,2/3+z
x-y,-y,2/3-z
-x,-x+y,1/3-z
y,x,-z
loop_
_atom_site_type_symbol
_atom_site_label
_atom_site_fract_x
_atom_site_fract_y
_atom_site_fract_z
Si Si1 0.331482 0.331482 0.500000
Si Si2 0.190981 0.942150 0.576428
Si Si3 0.000000 0.911890 0.666667
Si Si4 0.323340 0.746695 0.018363
Si Si5 0.405305 0.494904 0.890862
Si Si6 0.224235 0.388412 0.194562
O O1 0.364011 0.422697 0.667536
O O2 0.238248 0.317057 0.364946
O O3 0.081114 0.903562 0.537565
O O4 0.193511 0.850250 0.648035
O O5 0.241904 0.000000 0.333334
O O6 0.225181 0.000000 0.833334
O O7 0.943298 0.943298 0.500000
O O8 0.266380 0.642909 0.124990
O O9 0.406776 0.822291 0.178488
O O10 0.255966 0.788319 0.985378
O O11 0.494733 0.494733 0.000000
O O12 0.326197 0.445238 0.087527
#
# Coordination Sequence:
#
# PCOD9575900 Si02
#       6
#     3   6   3   6   6   6
#     4  10  22  42  70 104 138 186 248 300 380 446
#     4  11  27  45  70 106 148 194 242 302 385 446
#     4  10  20  42  70 104 140 184 240 298 358 450
#     4  12  23  44  73 103 139 194 251 311 375 458
#     4  10  23  43  70 106 135 183 247 305 378 446
#     4  11  25  43  71 104 146 194 246 319 373 470
#
# _framework density 22.581078000000002
#
# number of rings (size 3 to 8) (size 9 to 14) (size 15 to 20)
#    0.000    1.200    5.000    0.000    7.000    0.000 
#    1.800    1.000    0.000    0.000    0.000    0.000 
#    0.000    0.000    0.000    0.000    0.000    0.000 
#
# Total GULP energy -167296.001476 kJ/mol
# GULP energy per Si atom -5576.533383 kJ/mol
# Density = 2.252968 g / cm^3
# Si number density = 22.581078 Si / 1000 Ang^3
#
#
#
# Elastic Constant Matrix: (Units=GPa)
#
#
# Indices 1 2 3 4 5 6 
#
# 1 77.0962 41.2105 26.4443 0.2573 0.0000 0.0000
# 2 41.2105 77.0962 26.4443 -0.2573 0.0000 0.0000
# 3 26.4443 26.4443 83.8264 0.0000 0.0000 0.0000
# 4 0.2573 -0.2573 0.0000 26.9758 0.0000 0.0000
# 5 0.0000 0.0000 0.0000 0.0000 26.9758 0.2573
# 6 0.0000 0.0000 0.0000 0.0000 0.2573 17.9428
#
#
#
# Elastic Compliance Matrix: (Units=1/GPa)
#
#
# Indices 1 2 3 4 5 6 
#
# 1 0.018855 -0.009015 -0.003104 -0.000266 0.000000 0.000000
# 2 -0.009015 0.018855 -0.003104 0.000266 0.000000 0.000000
# 3 -0.003104 -0.003104 0.013888 0.000000 0.000000 0.000000
# 4 -0.000266 0.000266 0.000000 0.037075 0.000000 0.000000
# 5 0.000000 0.000000 0.000000 0.000000 0.037075 -0.000532
# 6 0.000000 0.000000 0.000000 0.000000 -0.000532 0.055740
#
#
# Mechanical properties :
#
#
# Convention : Reuss Voigt Hill
#
# Bulk Modulus (GPa) = 47.27778 47.35743 47.31760
# Shear Modulus (GPa) = 22.83244 23.97354 23.40299
#
# Velocity S-wave (km/s) = 3.18328 3.26185 3.22281
# Velocity P-wave (km/s) = 5.87311 5.93329 5.90328
#
# Compressibility (1/GPa) = 0.02115158
#
# Stress axis : x y z
#
# Youngs Moduli (GPa) = 53.03570 53.03570 72.00455
#
# Poissons Ratio (x) = 0.47811 0.22352
# Poissons Ratio (y) = 0.47811 0.22352
# Poissons Ratio (z) = 0.16464 0.16464
#
# Static dielectric constant tensor:
#      x y z
#    x 1.965360 0.000000 0.000000 
#    y 0.000000 1.965360 0.000000 
#    z 0.000000 0.000000 1.042040 
# 
# From -- ./inp_files/377.got.cif
#   From: 2010.05.17/outbox.cif.g08.bks.cpg/sg152_1_cif.got.tgz:377.got - 2010.05.20 10:36:06.
