data_PCOD9575196
_publ_section_title
;
Structure prediction by ZEFSAII (Michael W. Deem and Ramdas Pophale) SiO2 
 PCOD9575196
Probable space group: R -3
;
_chemical_formula_sum "Si O2"
_cell_formula_units_Z 108
_cell_length_a 21.254051
_cell_length_b 21.254051
_cell_length_c 11.401040
_cell_angle_alpha 90.000000
_cell_angle_beta 90.000000
_cell_angle_gamma 120.000000
_cell_volume 4460.243179
_symmetry_space_group_name_H-M "R -3"
_symmetry_group_IT_number 148
_symmetry_cell_setting 'hexagonal'
loop_
_space_group_symop_operation_xyz
x,y,z
-y,x-y,z
-x+y,-x,z
-x,-y,-z
y,-x+y,-z
x-y,x,-z
2/3+x,1/3+y,1/3+z
2/3-y,1/3+x-y,1/3+z
2/3-x+y,1/3-x,1/3+z
2/3-x,1/3-y,1/3-z
2/3+y,1/3-x+y,1/3-z
2/3+x-y,1/3+x,1/3-z
1/3+x,2/3+y,2/3+z
1/3-y,2/3+x-y,2/3+z
1/3-x+y,2/3-x,2/3+z
1/3-x,2/3-y,2/3-z
1/3+y,2/3-x+y,2/3-z
1/3+x-y,2/3+x,2/3-z
loop_
_atom_site_type_symbol
_atom_site_label
_atom_site_fract_x
_atom_site_fract_y
_atom_site_fract_z
Si Si1 0.998437 0.145766 0.538414
Si Si2 0.857602 0.309454 0.539689
Si Si3 0.749754 0.047486 0.575552
Si Si4 0.751640 0.550343 0.089371
Si Si5 0.980901 0.392896 0.339890
Si Si6 0.105347 0.940370 0.005842
O O1 0.070172 0.145570 0.485718
O O2 0.000519 0.219079 0.490341
O O3 0.017323 0.161954 0.676136
O O4 0.867332 0.262743 0.641062
O O5 0.860217 0.380691 0.596842
O O6 0.789681 0.253307 0.463621
O O7 0.914841 0.352767 0.432400
O O8 0.673181 0.010943 0.641652
O O9 0.737717 0.089556 0.467355
O O10 0.772266 0.630799 0.049719
O O11 0.734482 0.546104 0.226706
O O12 0.126189 0.022104 0.021147
#
# Coordination Sequence:
#
# PCOD9575196 Si02
#       6
#    18  18  18  18  18  18
#     4  11  24  43  67  97 135 178 228 280 341 402
#     4  11  22  43  65  95 138 176 219 276 335 398
#     4  11  23  40  65 100 130 172 223 278 322 406
#     4  10  23  41  67  96 132 174 223 275 332 409
#     4  11  22  41  66  94 133 177 221 265 341 403
#     4  10  23  40  64  95 125 171 219 274 330 395
#
# _framework density 24.213926000000001
#
# number of rings (size 3 to 8) (size 9 to 14) (size 15 to 20)
#    0.000    1.333    3.333    1.833    2.333    0.000 
#    0.000    5.000    0.000    0.000    0.000    0.000 
#    0.000    0.000    0.000    0.000    0.000    0.000 
#
# Total GULP energy -200479.540426 kJ/mol
# GULP energy per Si atom -5568.876123 kJ/mol
# Density = 2.415881 g / cm^3
# Si number density = 24.213926 Si / 1000 Ang^3
#
#
#
# Elastic Constant Matrix: (Units=GPa)
#
#
# Indices 1 2 3 4 5 6 
#
# 1 77.4699 19.4283 32.8057 -8.3248 -21.7304 0.0000
# 2 19.4283 77.4699 32.8057 8.3248 21.7304 0.0000
# 3 32.8057 32.8057 163.8565 0.0000 0.0001 0.0000
# 4 -8.3248 8.3248 0.0000 48.0090 0.0000 21.7304
# 5 -21.7304 21.7304 0.0001 0.0000 48.0090 -8.3248
# 6 0.0000 0.0000 0.0000 21.7304 -8.3248 29.0208
#
#
#
# Elastic Compliance Matrix: (Units=1/GPa)
#
#
# Indices 1 2 3 4 5 6 
#
# 1 0.020061 -0.008122 -0.002390 0.004887 0.012756 0.000000
# 2 -0.008122 0.020061 -0.002390 -0.004887 -0.012756 0.000000
# 3 -0.002390 -0.002390 0.007060 0.000000 0.000000 0.000000
# 4 0.004887 -0.004887 0.000000 0.034072 0.000000 -0.025513
# 5 0.012756 -0.012756 0.000000 0.000000 0.034072 0.009774
# 6 0.000000 0.000000 0.000000 -0.025513 0.009774 0.056365
#
#
# Mechanical properties :
#
#
# Convention : Reuss Voigt Hill
#
# Bulk Modulus (GPa) = 46.78090 54.31952 50.55021
# Shear Modulus (GPa) = 24.43543 40.59153 32.51348
#
# Velocity S-wave (km/s) = 3.18015 4.09879 3.66834
# Velocity P-wave (km/s) = 5.73117 6.69940 6.23411
#
# Compressibility (1/GPa) = 0.02137625
#
# Stress axis : x y z
#
# Youngs Moduli (GPa) = 49.84895 49.84896 141.64318
#
# Poissons Ratio (x) = 0.40487 0.33856
# Poissons Ratio (y) = 0.40487 0.33856
# Poissons Ratio (z) = 0.11915 0.11915
#
# Static dielectric constant tensor:
#      x y z
#    x 1.990170 0.000000 0.000000 
#    y 0.000000 1.990170 0.000000 
#    z 0.000000 0.000000 2.026030 
# 
# From -- ./inp_files/1550.got.cif
#   From: 2010.05.17/outbox.cif.g08.bks.cpg/sg148_1_cif.got.tgz:1550.got - 2010.05.20 13:50:20.
