data_PCOD9575016
_publ_section_title
;
Structure prediction by ZEFSAII (Michael W. Deem and Ramdas Pophale) SiO2 
 PCOD9575016
Probable space group: R -3
;
_chemical_formula_sum "Si O2"
_cell_formula_units_Z 126
_cell_length_a 27.712619
_cell_length_b 27.712619
_cell_length_c 9.411657
_cell_angle_alpha 90.000000
_cell_angle_beta 90.000000
_cell_angle_gamma 120.000000
_cell_volume 6259.676148
_symmetry_space_group_name_H-M "R -3"
_symmetry_group_IT_number 148
_symmetry_cell_setting 'hexagonal'
loop_
_space_group_symop_operation_xyz
x,y,z
-y,x-y,z
-x+y,-x,z
-x,-y,-z
y,-x+y,-z
x-y,x,-z
2/3+x,1/3+y,1/3+z
2/3-y,1/3+x-y,1/3+z
2/3-x+y,1/3-x,1/3+z
2/3-x,1/3-y,1/3-z
2/3+y,1/3-x+y,1/3-z
2/3+x-y,1/3+x,1/3-z
1/3+x,2/3+y,2/3+z
1/3-y,2/3+x-y,2/3+z
1/3-x+y,2/3-x,2/3+z
1/3-x,2/3-y,2/3-z
1/3+y,2/3-x+y,2/3-z
1/3+x-y,2/3+x,2/3-z
loop_
_atom_site_type_symbol
_atom_site_label
_atom_site_fract_x
_atom_site_fract_y
_atom_site_fract_z
Si Si1 0.579839 0.714999 0.831996
Si Si2 0.454295 0.889709 0.029462
Si Si3 0.059885 0.293543 0.295936
Si Si4 0.920037 0.213574 0.861562
Si Si5 0.581088 0.201901 0.475333
Si Si6 0.958888 0.076832 0.811951
Si Si7 0.697503 0.877514 0.596079
O O1 0.586008 0.668086 0.914174
O O2 0.595352 0.713392 0.667975
O O3 0.518473 0.708001 0.854150
O O4 0.624658 0.771556 0.908445
O O5 0.420318 0.921714 0.999633
O O6 0.505750 0.916017 0.919743
O O7 0.421016 0.826165 0.984312
O O8 0.478192 0.908931 0.186114
O O9 0.066513 0.331013 0.433932
O O10 0.097181 0.331644 0.164677
O O11 0.855299 0.185068 0.907750
O O12 0.578679 0.190498 0.305460
O O13 0.641322 0.215417 0.533088
O O14 0.584659 0.261081 0.508460
#
# Coordination Sequence:
#
# PCOD9575016 Si02
#       7
#    18  18  18  18  18  18  18
#     4  12  20  37  61  91 121 158 216 253 305 391
#     4   9  16  37  61  76 116 161 197 238 312 369
#     4   9  20  39  60  83 115 163 198 250 317 379
#     4   9  19  38  62  83 112 158 201 253 310 360
#     4  10  21  31  58  90 126 167 210 258 310 368
#     4  10  18  35  52  89 128 163 205 260 307 362
#     4   9  21  37  58  85 117 155 202 260 305 359
#
# _framework density 20.128837000000001
#
# number of rings (size 3 to 8) (size 9 to 14) (size 15 to 20)
#    0.000    2.286    2.857    2.429    0.000    1.143 
#    7.714    1.429    0.000    0.000    0.000    2.000 
#    0.000    0.000    0.000    0.000    0.000    0.000 
#
# Total GULP energy -233803.894836 kJ/mol
# GULP energy per Si atom -5566.759401 kJ/mol
# Density = 2.008302 g / cm^3
# Si number density = 20.128837 Si / 1000 Ang^3
#
#
#
# Elastic Constant Matrix: (Units=GPa)
#
#
# Indices 1 2 3 4 5 6 
#
# 1 37.9482 6.5521 8.8672 -1.6603 -7.9547 0.0015
# 2 6.5521 37.9466 8.8667 1.6563 7.9577 -0.0001
# 3 8.8672 8.8667 62.4063 -0.0021 0.0395 0.0133
# 4 -1.6603 1.6563 -0.0021 7.5629 -0.0043 7.9524
# 5 -7.9547 7.9577 0.0395 -0.0043 7.5724 -1.6551
# 6 0.0015 -0.0001 0.0133 7.9524 -1.6551 15.6996
#
#
#
# Elastic Compliance Matrix: (Units=1/GPa)
#
#
# Indices 1 2 3 4 5 6 
#
# 1 0.047780 -0.023944 -0.003434 0.015882 0.075359 -0.000102
# 2 -0.023944 0.047751 -0.003335 -0.015867 -0.075302 0.000104
# 3 -0.003434 -0.003335 0.016986 0.000040 -0.000204 -0.000056
# 4 0.015882 -0.015867 0.000040 0.297675 0.000582 -0.150724
# 5 0.075359 -0.075302 -0.000204 0.000582 0.297137 0.031023
# 6 -0.000102 0.000104 -0.000056 -0.150724 0.031023 0.143314
#
#
# Mechanical properties :
#
#
# Convention : Reuss Voigt Hill
#
# Bulk Modulus (GPa) = 19.57346 20.76365 20.16856
# Shear Modulus (GPa) = 5.38155 13.76798 9.57477
#
# Velocity S-wave (km/s) = 1.63687 2.61816 2.18336
# Velocity P-wave (km/s) = 3.64934 4.41333 4.04939
#
# Compressibility (1/GPa) = 0.05108958
#
# Stress axis : x y z
#
# Youngs Moduli (GPa) = 20.92929 20.94216 58.87217
#
# Poissons Ratio (x) = 0.50144 0.20217
# Poissons Ratio (y) = 0.50114 0.19634
# Poissons Ratio (z) = 0.07187 0.06984
#
# Static dielectric constant tensor:
#      x y z
#    x 1.751900 0.000000 -0.000010 
#    y 0.000000 1.751920 0.000000 
#    z -0.000010 0.000000 1.703300 
# 
# From -- ./inp_files/1101.got.cif
#   From: 2010.05.17/outbox.cif.g08.bks.cpg/sg148_1_cif.got.tgz:1101.got - 2010.05.20 13:50:20.
