data_PCOD9575426
_publ_section_title
;
Structure prediction by ZEFSAII (Michael W. Deem and Ramdas Pophale) SiO2 
 PCOD9575426
Probable space group: P 3 2 1
;
_chemical_formula_sum "Si O2"
_cell_formula_units_Z 48
_cell_length_a 12.642226
_cell_length_b 12.642226
_cell_length_c 20.936654
_cell_angle_alpha 90.000000
_cell_angle_beta 90.000000
_cell_angle_gamma 120.000000
_cell_volume 2897.910758
_symmetry_space_group_name_H-M "P 3 2 1"
_symmetry_group_IT_number 150
_symmetry_cell_setting 'hexagonal'
loop_
_space_group_symop_operation_xyz
x,y,z
-y,x-y,z
-x+y,-x,z
x-y,-y,-z
-x,-x+y,-z
y,x,-z
loop_
_atom_site_type_symbol
_atom_site_label
_atom_site_fract_x
_atom_site_fract_y
_atom_site_fract_z
Si Si1 0.333439 0.918459 0.312588
Si Si2 0.918593 0.333577 0.937190
Si Si3 0.251292 0.250807 0.812418
Si Si4 0.415503 0.081770 0.437934
Si Si5 0.415503 0.333733 0.437934
Si Si6 0.414980 0.333439 0.687412
Si Si7 0.000485 0.251292 0.187582
Si Si8 0.666423 0.081407 0.937190
O O1 0.213182 0.786818 0.321316
O O2 0.452049 0.904098 0.304415
O O3 0.312513 0.979365 0.250094
O O4 0.356244 0.002202 0.374496
O O5 0.981390 0.312494 0.875514
O O6 0.786452 0.213549 0.944692
O O7 0.905643 0.452821 0.928175
O O8 0.000000 0.355349 0.000000
O O9 0.333148 0.312513 0.749906
O O10 0.220540 0.110270 0.812609
O O11 0.331104 0.312494 0.875514
O O12 0.129277 0.258555 0.811746
O O13 0.409250 0.204625 0.437665
O O14 0.555797 0.111594 0.440029
O O15 0.350533 0.000000 0.500000
O O16 0.350533 0.350533 0.500000
O O17 0.356244 0.354042 0.374496
O O18 0.644651 0.000000 0.000000
#
# Coordination Sequence:
#
# PCOD9575426 Si02
#       8
#     6   6   6   6   6   6   6   6
#     4  10  20  34  54  78 104 134 168 208 252 300
#     4  10  20  34  53  76 103 135 170 210 254 301
#     4  10  20  34  52  74 101 133 169 208 251 299
#     4  10  20  34  53  76 103 135 170 210 254 301
#     4  10  20  34  53  76 103 135 170 210 254 301
#     4  10  20  34  54  78 104 134 168 208 252 300
#     4  10  20  34  52  74 101 133 169 208 251 299
#     4  10  20  34  53  76 103 135 170 210 254 301
#
# _framework density 16.563656999999999
#
# number of rings (size 3 to 8) (size 9 to 14) (size 15 to 20)
#    0.000    2.000    0.000    4.000    0.000    0.000 
#    0.000    5.000    0.000   17.000    0.000    0.000 
#    0.000    0.000    0.000    0.000    0.000    0.000 
#
# Total GULP energy -268021.906024 kJ/mol
# GULP energy per Si atom -5583.789709 kJ/mol
# Density = 1.652596 g / cm^3
# Si number density = 16.563657 Si / 1000 Ang^3
#
#
#
# Elastic Constant Matrix: (Units=GPa)
#
#
# Indices 1 2 3 4 5 6 
#
# 1 148.4282 110.4976 105.4923 0.3796 0.0000 0.0000
# 2 110.4976 148.4282 105.4923 -0.3796 0.0000 0.0000
# 3 105.4923 105.4923 170.0186 0.0000 0.0000 0.0000
# 4 0.3796 -0.3796 0.0000 22.0932 0.0000 0.0000
# 5 0.0000 0.0000 0.0000 0.0000 22.0932 0.3796
# 6 0.0000 0.0000 0.0000 0.0000 0.3796 18.9653
#
#
#
# Elastic Compliance Matrix: (Units=1/GPa)
#
#
# Indices 1 2 3 4 5 6 
#
# 1 0.017092 -0.009281 -0.004847 -0.000453 0.000000 0.000000
# 2 -0.009281 0.017092 -0.004847 0.000453 0.000000 0.000000
# 3 -0.004847 -0.004847 0.011896 0.000000 0.000000 0.000000
# 4 -0.000453 0.000453 0.000000 0.045278 0.000000 0.000000
# 5 0.000000 0.000000 0.000000 0.000000 0.045278 -0.000906
# 6 0.000000 0.000000 0.000000 0.000000 -0.000906 0.052746
#
#
# Mechanical properties :
#
#
# Convention : Reuss Voigt Hill
#
# Bulk Modulus (GPa) = 122.97015 123.31550 123.14283
# Shear Modulus (GPa) = 21.73501 22.32318 22.02910
#
# Velocity S-wave (km/s) = 3.62638 3.67511 3.65083
# Velocity P-wave (km/s) = 9.58834 9.62391 9.60614
#
# Compressibility (1/GPa) = 0.00813205
#
# Stress axis : x y z
#
# Youngs Moduli (GPa) = 58.50581 58.50581 84.05853
#
# Poissons Ratio (x) = 0.54298 0.40742
# Poissons Ratio (y) = 0.54298 0.40742
# Poissons Ratio (z) = 0.28357 0.28357
#
# Static dielectric constant tensor:
#      x y z
#    x 1.523370 0.000000 0.000000 
#    y 0.000000 1.523370 0.000000 
#    z 0.000000 0.000000 1.539130 
# 
# From -- ./inp_files/1146.got.cif
#   From: 2010.05.17/outbox.cif.g08.bks.cpg/sg150_cif.got.tgz:1146.got - 2010.05.20 13:53:18.
