data_PCOD9575512
_publ_section_title
;
Structure prediction by ZEFSAII (Michael W. Deem and Ramdas Pophale) SiO2 
 PCOD9575512
Probable space group: P 31 1 2
;
_chemical_formula_sum "Si O2"
_cell_formula_units_Z 33
_cell_length_a 7.911181
_cell_length_b 7.911181
_cell_length_c 26.069640
_cell_angle_alpha 90.000000
_cell_angle_beta 90.000000
_cell_angle_gamma 120.000000
_cell_volume 1413.019995
_symmetry_space_group_name_H-M "P 31 1 2"
_symmetry_group_IT_number 151
_symmetry_cell_setting 'hexagonal'
loop_
_space_group_symop_operation_xyz
x,y,z
-y,x-y,1/3+z
-x+y,-x,2/3+z
-y,-x,2/3-z
-x+y,y,1/3-z
x,x-y,-z
loop_
_atom_site_type_symbol
_atom_site_label
_atom_site_fract_x
_atom_site_fract_y
_atom_site_fract_z
Si Si1 0.303568 0.370546 0.589725
Si Si2 0.523235 0.724982 0.446258
Si Si3 0.319400 0.994242 0.683757
Si Si4 0.679542 0.849452 0.248058
Si Si5 0.596712 0.046459 0.035064
Si Si6 0.918659 0.081342 0.833334
O O1 0.384188 0.570259 0.559961
O O2 0.437122 0.423027 0.640370
O O3 0.092315 0.323281 0.610095
O O4 0.287838 0.220225 0.546901
O O5 0.622483 0.811242 0.500000
O O6 0.676015 0.796266 0.400061
O O7 0.364289 0.493854 0.438970
O O8 0.448554 0.897107 0.666667
O O9 0.468596 0.211060 0.704389
O O10 0.193836 0.965608 0.632767
O O11 0.587898 0.980182 0.269924
O O12 0.820127 0.940712 0.198856
#
# Coordination Sequence:
#
# PCOD9575512 Si02
#       6
#     6   6   6   6   6   3
#     4  10  20  34  61  85 118 161 222 275 328 391
#     4  10  18  34  58  91 119 164 211 274 328 392
#     4  10  20  36  59  89 126 162 213 267 339 420
#     4  10  20  33  61  88 122 160 219 277 331 395
#     4  10  20  38  55  86 125 166 207 278 339 402
#     4  12  20  34  60  96 118 166 228 290 324 410
#
# _framework density 23.354234000000002
#
# number of rings (size 3 to 8) (size 9 to 14) (size 15 to 20)
#    0.000    1.818    5.455    0.000    0.000    0.000 
#    1.636    1.818    0.000   10.909    0.000    0.000 
#    0.000    0.000    0.000    0.000    0.000    0.000 
#
# Total GULP energy -183701.766179 kJ/mol
# GULP energy per Si atom -5566.720187 kJ/mol
# Density = 2.330108 g / cm^3
# Si number density = 23.354234 Si / 1000 Ang^3
#
#
#
# Elastic Constant Matrix: (Units=GPa)
#
#
# Indices 1 2 3 4 5 6 
#
# 1 56.7252 14.9742 43.5531 0.0000 4.8300 0.0000
# 2 14.9742 56.7252 43.5531 0.0000 -4.8300 0.0000
# 3 43.5531 43.5531 221.3318 0.0000 0.0000 0.0000
# 4 0.0000 0.0000 0.0000 23.0762 0.0000 -4.8300
# 5 4.8300 -4.8300 0.0000 0.0000 23.0762 0.0000
# 6 0.0000 0.0000 0.0000 -4.8300 0.0000 20.8755
#
#
#
# Elastic Compliance Matrix: (Units=1/GPa)
#
#
# Indices 1 2 3 4 5 6 
#
# 1 0.021750 -0.003421 -0.003607 0.000000 -0.005268 0.000000
# 2 -0.003421 0.021750 -0.003607 0.000000 0.005268 0.000000
# 3 -0.003607 -0.003607 0.005938 0.000000 0.000000 0.000000
# 4 0.000000 0.000000 0.000000 0.045540 0.000000 0.010537
# 5 -0.005268 0.005268 0.000000 0.000000 0.045540 0.000000
# 6 0.000000 0.000000 0.000000 0.010537 0.000000 0.050341
#
#
# Mechanical properties :
#
#
# Convention : Reuss Voigt Hill
#
# Bulk Modulus (GPa) = 35.50077 59.88255 47.69166
# Shear Modulus (GPa) = 22.57175 28.91905 25.74540
#
# Velocity S-wave (km/s) = 3.11222 3.52274 3.32382
# Velocity P-wave (km/s) = 5.30552 6.49945 5.93260
#
# Compressibility (1/GPa) = 0.02816840
#
# Stress axis : x y z
#
# Youngs Moduli (GPa) = 45.97773 45.97773 168.41996
#
# Poissons Ratio (x) = 0.15728 0.60744
# Poissons Ratio (y) = 0.15728 0.60744
# Poissons Ratio (z) = 0.16583 0.16583
#
# Static dielectric constant tensor:
#      x y z
#    x 1.967060 0.000000 0.000000 
#    y 0.000000 1.967060 0.000000 
#    z 0.000000 0.000000 2.002160 
# 
# From -- ./inp_files/4650.got.cif
#   From: 2010.05.17/outbox.cif.g08.bks.cpg/sg151_3_cif.got.tgz:4650.got - 2010.05.20 10:33:20.
