data_PCOD9575758
_publ_section_title
;
Structure prediction by ZEFSAII (Michael W. Deem and Ramdas Pophale) SiO2 
 PCOD9575758
Probable space group: P 31 2 1
;
_chemical_formula_sum "Si O2"
_cell_formula_units_Z 42
_cell_length_a 8.739887
_cell_length_b 8.739887
_cell_length_c 29.168951
_cell_angle_alpha 90.000000
_cell_angle_beta 90.000000
_cell_angle_gamma 120.000000
_cell_volume 1929.581283
_symmetry_space_group_name_H-M "P 31 2 1"
_symmetry_group_IT_number 152
_symmetry_cell_setting 'hexagonal'
loop_
_space_group_symop_operation_xyz
x,y,z
-y,x-y,1/3+z
-x+y,-x,2/3+z
x-y,-y,2/3-z
-x,-x+y,1/3-z
y,x,-z
loop_
_atom_site_type_symbol
_atom_site_label
_atom_site_fract_x
_atom_site_fract_y
_atom_site_fract_z
Si Si1 0.971665 0.342435 0.954775
Si Si2 0.566000 0.623787 0.817554
Si Si3 0.122728 0.152297 0.594458
Si Si4 0.963611 0.483219 0.238810
Si Si5 0.412073 0.691359 0.517177
Si Si6 0.663437 0.663437 0.000000
Si Si7 0.282043 0.621929 0.007626
Si Si8 0.075828 0.075828 0.500000
O O1 0.823352 0.324663 0.990185
O O2 0.912166 0.370367 0.904195
O O3 0.962403 0.153797 0.954745
O O4 0.162746 0.504389 0.965823
O O5 0.427184 0.628471 0.851996
O O6 0.552870 0.437353 0.824493
O O7 0.746482 0.807468 0.827220
O O8 0.311299 0.321095 0.576971
O O9 0.004919 0.032674 0.551924
O O10 0.033334 0.238076 0.624333
O O11 0.149934 0.497166 0.226644
O O12 0.843636 0.390538 0.194322
O O13 0.847438 0.376663 0.282151
O O14 0.636229 0.470728 0.991158
#
# Coordination Sequence:
#
# PCOD9575758 Si02
#       8
#     6   6   6   6   6   3   6   3
#     4  10  23  42  66  94 133 185 233 267 346 426
#     4  11  22  38  69 101 128 177 225 288 340 415
#     4  10  20  42  66  96 128 184 224 288 345 416
#     4  10  20  42  67  89 134 182 226 267 346 423
#     4  11  21  40  68 100 130 174 228 288 339 415
#     4  12  28  38  70 104 140 174 238 298 362 414
#     4  11  23  42  65 100 133 185 229 283 342 431
#     4  10  18  40  68  90 138 172 226 274 358 406
#
# _framework density 21.766378
#
# number of rings (size 3 to 8) (size 9 to 14) (size 15 to 20)
#    0.000    1.429    5.714    1.714    6.000    0.571 
#    0.000    1.429    3.143    0.000    0.000    0.000 
#    0.000    0.000    0.000    0.000    0.000    0.000 
#
# Total GULP energy -234049.209038 kJ/mol
# GULP energy per Si atom -5572.600215 kJ/mol
# Density = 2.171684 g / cm^3
# Si number density = 21.766378 Si / 1000 Ang^3
#
#
#
# Elastic Constant Matrix: (Units=GPa)
#
#
# Indices 1 2 3 4 5 6 
#
# 1 95.3930 46.7438 31.4300 -2.5246 0.0000 0.0000
# 2 46.7438 95.3930 31.4300 2.5246 0.0000 0.0000
# 3 31.4300 31.4300 75.9189 0.0000 0.0000 0.0000
# 4 -2.5246 2.5246 0.0000 21.6358 0.0000 0.0000
# 5 0.0000 0.0000 0.0000 0.0000 21.6358 -2.5246
# 6 0.0000 0.0000 0.0000 0.0000 -2.5246 24.3246
#
#
#
# Elastic Compliance Matrix: (Units=1/GPa)
#
#
# Indices 1 2 3 4 5 6 
#
# 1 0.014710 -0.006098 -0.003565 0.002428 0.000000 0.000000
# 2 -0.006098 0.014710 -0.003565 -0.002428 0.000000 0.000000
# 3 -0.003565 -0.003565 0.016124 0.000000 0.000000 0.000000
# 4 0.002428 -0.002428 0.000000 0.046786 0.000000 0.000000
# 5 0.000000 0.000000 0.000000 0.000000 0.046786 0.004856
# 6 0.000000 0.000000 0.000000 0.000000 0.004856 0.041615
#
#
# Mechanical properties :
#
#
# Convention : Reuss Voigt Hill
#
# Bulk Modulus (GPa) = 52.39193 53.99029 53.19111
# Shear Modulus (GPa) = 23.41372 23.99264 23.70318
#
# Velocity S-wave (km/s) = 3.28332 3.32366 3.30355
# Velocity P-wave (km/s) = 6.20451 6.29184 6.24833
#
# Compressibility (1/GPa) = 0.01908691
#
# Stress axis : x y z
#
# Youngs Moduli (GPa) = 67.98187 67.98187 62.01897
#
# Poissons Ratio (x) = 0.41452 0.22113
# Poissons Ratio (y) = 0.41452 0.22113
# Poissons Ratio (z) = 0.24239 0.24239
#
# Static dielectric constant tensor:
#      x y z
#    x 1.820890 0.000000 0.000000 
#    y 0.000000 1.820890 0.000000 
#    z 0.000000 0.000000 1.879230 
# 
# From -- ./inp_files/3753.got.cif
#   From: 2010.05.17/outbox.cif.g08.bks.cpg/sg152_2_cif.got.tgz:3753.got - 2010.05.20 10:36:06.
