data_PCOD9575479
_publ_section_title
;
Structure prediction by ZEFSAII (Michael W. Deem and Ramdas Pophale) SiO2 
 PCOD9575479
Probable space group: P 3 2 1
;
_chemical_formula_sum "Si O2"
_cell_formula_units_Z 20
_cell_length_a 11.421573
_cell_length_b 11.421573
_cell_length_c 7.310104
_cell_angle_alpha 90.000000
_cell_angle_beta 90.000000
_cell_angle_gamma 120.000000
_cell_volume 825.859230
_symmetry_space_group_name_H-M "P 3 2 1"
_symmetry_group_IT_number 150
_symmetry_cell_setting 'hexagonal'
loop_
_space_group_symop_operation_xyz
x,y,z
-y,x-y,z
-x+y,-x,z
x-y,-y,-z
-x,-x+y,-z
y,x,-z
loop_
_atom_site_type_symbol
_atom_site_label
_atom_site_fract_x
_atom_site_fract_y
_atom_site_fract_z
Si Si1 0.000000 0.000000 0.782004
Si Si2 0.725377 0.115971 0.787960
Si Si3 0.604103 0.551190 0.692235
Si Si4 0.843002 0.695169 0.191745
O O1 0.847334 0.890454 0.737986
O O2 0.000000 0.000000 0.000000
O O3 0.583524 0.111522 0.813343
O O4 0.825150 0.242210 0.663906
O O5 0.678918 0.963973 0.724798
O O6 0.812022 0.141555 0.975515
O O7 0.530003 0.530003 0.500000
O O8 0.609571 0.685051 0.771150
#
# Coordination Sequence:
#
# PCOD9575479 Si02
#       4
#     2   6   6   6
#     4  12  15  42  76 110 130 159 247 335 346 411
#     4  11  26  47  73 105 148 194 256 303 358 447
#     4  12  28  48  73 108 159 195 243 309 382 440
#     4  11  24  45  79 104 139 191 257 309 364 435
#
# _framework density 24.217202
#
# number of rings (size 3 to 8) (size 9 to 14) (size 15 to 20)
#    0.000    0.600    6.000    1.500   12.600    0.000 
#    1.800    0.000    0.000    0.000    0.000    0.000 
#    0.000    0.000    0.000    0.000    0.000    0.000 
#
# Total GULP energy -111629.239372 kJ/mol
# GULP energy per Si atom -5581.461969 kJ/mol
# Density = 2.416208 g / cm^3
# Si number density = 24.217202 Si / 1000 Ang^3
#
#
#
# Elastic Constant Matrix: (Units=GPa)
#
#
# Indices 1 2 3 4 5 6 
#
# 1 136.0163 41.1784 26.0831 -7.0931 0.0000 0.0000
# 2 41.1784 136.0163 26.0831 7.0931 0.0000 0.0000
# 3 26.0831 26.0831 55.3712 0.0000 0.0000 0.0000
# 4 -7.0931 7.0931 0.0000 25.6481 0.0000 0.0000
# 5 0.0000 0.0000 0.0000 0.0000 25.6481 -7.0931
# 6 0.0000 0.0000 0.0000 0.0000 -7.0931 47.4190
#
#
#
# Elastic Compliance Matrix: (Units=1/GPa)
#
#
# Indices 1 2 3 4 5 6 
#
# 1 0.008776 -0.002224 -0.003086 0.003042 0.000000 0.000000
# 2 -0.002224 0.008776 -0.003086 -0.003042 0.000000 0.000000
# 3 -0.003086 -0.003086 0.020968 0.000000 0.000000 0.000000
# 4 0.003042 -0.003042 0.000000 0.040672 0.000000 0.000000
# 5 0.000000 0.000000 0.000000 0.000000 0.040672 0.006084
# 6 0.000000 0.000000 0.000000 0.000000 0.006084 0.021999
#
#
# Mechanical properties :
#
#
# Convention : Reuss Voigt Hill
#
# Bulk Modulus (GPa) = 46.02730 57.12143 51.57437
# Shear Modulus (GPa) = 30.13927 35.34696 32.74312
#
# Velocity S-wave (km/s) = 3.53163 3.82459 3.68103
# Velocity P-wave (km/s) = 5.97304 6.56823 6.27769
#
# Compressibility (1/GPa) = 0.02172623
#
# Stress axis : x y z
#
# Youngs Moduli (GPa) = 113.95044 113.95044 47.69237
#
# Poissons Ratio (x) = 0.25338 0.14720
# Poissons Ratio (y) = 0.25338 0.14720
# Poissons Ratio (z) = 0.35170 0.35170
#
# Static dielectric constant tensor:
#      x y z
#    x 1.974360 0.000000 0.000000 
#    y 0.000000 1.974360 0.000000 
#    z 0.000000 0.000000 1.995910 
# 
# From -- ./inp_files/457.got.cif
#   From: 2010.05.17/outbox.cif.g08.bks.cpg/sg150_cif.got.tgz:457.got - 2010.05.20 13:53:18.
