data_PCOD9575554
_publ_section_title
;
Structure prediction by ZEFSAII (Michael W. Deem and Ramdas Pophale) SiO2 
 PCOD9575554
Probable space group: P 31 1 2
;
_chemical_formula_sum "Si O2"
_cell_formula_units_Z 42
_cell_length_a 9.384862
_cell_length_b 9.384862
_cell_length_c 28.216994
_cell_angle_alpha 90.000000
_cell_angle_beta 90.000000
_cell_angle_gamma 120.000000
_cell_volume 2152.272018
_symmetry_space_group_name_H-M "P 31 1 2"
_symmetry_group_IT_number 151
_symmetry_cell_setting 'hexagonal'
loop_
_space_group_symop_operation_xyz
x,y,z
-y,x-y,1/3+z
-x+y,-x,2/3+z
-y,-x,2/3-z
-x+y,y,1/3-z
x,x-y,-z
loop_
_atom_site_type_symbol
_atom_site_label
_atom_site_fract_x
_atom_site_fract_y
_atom_site_fract_z
Si Si1 0.944873 0.881188 0.215606
Si Si2 0.790817 0.243994 0.982222
Si Si3 0.592118 0.575609 0.104225
Si Si4 0.030456 0.393297 0.150825
Si Si5 0.588567 0.699093 0.251069
Si Si6 0.181959 0.636508 0.444101
Si Si7 0.905382 0.189279 0.586169
O O1 0.989539 0.979077 0.166667
O O2 0.764453 0.832841 0.230579
O O3 0.951461 0.714517 0.205639
O O4 0.086214 0.981542 0.253049
O O5 0.971328 0.357141 0.958191
O O6 0.662584 0.117653 0.944036
O O7 0.729398 0.364699 0.000000
O O8 0.809360 0.155396 0.027991
O O9 0.478926 0.419001 0.136960
O O10 0.487215 0.667789 0.100130
O O11 0.193644 0.387288 0.166667
O O12 0.080384 0.556805 0.119721
O O13 0.912686 0.242920 0.117016
O O14 0.485752 0.792178 0.256936
O O15 0.182914 0.591457 0.500000
O O16 0.018307 0.643789 0.432853
#
# Coordination Sequence:
#
# PCOD9575554 Si02
#       7
#     6   6   6   6   6   6   6
#     4  10  19  37  66  96 128 174 216 278 346 398
#     4  11  25  44  62  98 142 186 228 273 357 431
#     4  10  21  38  71  95 134 176 231 275 343 417
#     4  12  21  41  71 107 127 173 237 291 340 405
#     4  11  20  40  75  90 133 174 229 287 325 418
#     4  11  21  43  70 106 130 170 241 293 339 406
#     4  11  26  42  62  97 146 178 222 284 361 412
#
# _framework density 19.514264000000001
#
# number of rings (size 3 to 8) (size 9 to 14) (size 15 to 20)
#    0.000    1.143    5.714    1.286    0.000    6.286 
#    5.143    0.000    0.000    0.000    0.000    0.000 
#    0.000    0.000    0.000    0.000    0.000    0.000 
#
# Total GULP energy -234264.007824 kJ/mol
# GULP energy per Si atom -5577.714472 kJ/mol
# Density = 1.946985 g / cm^3
# Si number density = 19.514264 Si / 1000 Ang^3
#
#
#
# Elastic Constant Matrix: (Units=GPa)
#
#
# Indices 1 2 3 4 5 6 
#
# 1 103.4791 52.7938 56.3768 0.0001 -0.9728 0.0000
# 2 52.7938 103.4791 56.3768 -0.0001 0.9728 0.0000
# 3 56.3768 56.3768 135.5662 0.0000 0.0000 0.0000
# 4 0.0001 -0.0001 0.0000 26.4305 0.0000 0.9728
# 5 -0.9728 0.9728 0.0000 0.0000 26.4305 0.0001
# 6 0.0000 0.0000 0.0000 0.9728 0.0001 25.3426
#
#
#
# Elastic Compliance Matrix: (Units=1/GPa)
#
#
# Indices 1 2 3 4 5 6 
#
# 1 0.014450 -0.005308 -0.003802 0.000000 0.000727 0.000000
# 2 -0.005308 0.014450 -0.003802 0.000000 -0.000727 0.000000
# 3 -0.003802 -0.003802 0.010539 0.000000 0.000000 0.000000
# 4 0.000000 0.000000 0.000000 0.037889 0.000000 -0.001454
# 5 0.000727 -0.000727 0.000000 0.000000 0.037889 0.000000
# 6 0.000000 0.000000 0.000000 -0.001454 0.000000 0.039515
#
#
# Mechanical properties :
#
#
# Convention : Reuss Voigt Hill
#
# Bulk Modulus (GPa) = 73.44614 74.84658 74.14636
# Shear Modulus (GPa) = 27.01360 27.43918 27.22639
#
# Velocity S-wave (km/s) = 3.72465 3.75388 3.73930
# Velocity P-wave (km/s) = 7.49775 7.56485 7.53137
#
# Compressibility (1/GPa) = 0.01361542
#
# Stress axis : x y z
#
# Youngs Moduli (GPa) = 69.20486 69.20486 94.88938
#
# Poissons Ratio (x) = 0.36732 0.36076
# Poissons Ratio (y) = 0.36732 0.36076
# Poissons Ratio (z) = 0.26311 0.26311
#
# Static dielectric constant tensor:
#      x y z
#    x 1.697460 0.000000 0.000000 
#    y 0.000000 1.697460 0.000000 
#    z 0.000000 0.000000 1.796960 
# 
# From -- ./inp_files/5017.got.cif
#   From: 2010.05.17/outbox.cif.g08.bks.cpg/sg151_3_cif.got.tgz:5017.got - 2010.05.20 10:33:20.
