data_PCOD9575044
_publ_section_title
;
Structure prediction by ZEFSAII (Michael W. Deem and Ramdas Pophale) SiO2 
 PCOD9575044
Probable space group: R -3
;
_chemical_formula_sum "Si O2"
_cell_formula_units_Z 108
_cell_length_a 14.013012
_cell_length_b 14.013012
_cell_length_c 31.825656
_cell_angle_alpha 90.000000
_cell_angle_beta 90.000000
_cell_angle_gamma 120.000000
_cell_volume 5412.164443
_symmetry_space_group_name_H-M "R -3"
_symmetry_group_IT_number 148
_symmetry_cell_setting 'hexagonal'
loop_
_space_group_symop_operation_xyz
x,y,z
-y,x-y,z
-x+y,-x,z
-x,-y,-z
y,-x+y,-z
x-y,x,-z
2/3+x,1/3+y,1/3+z
2/3-y,1/3+x-y,1/3+z
2/3-x+y,1/3-x,1/3+z
2/3-x,1/3-y,1/3-z
2/3+y,1/3-x+y,1/3-z
2/3+x-y,1/3+x,1/3-z
1/3+x,2/3+y,2/3+z
1/3-y,2/3+x-y,2/3+z
1/3-x+y,2/3-x,2/3+z
1/3-x,2/3-y,2/3-z
1/3+y,2/3-x+y,2/3-z
1/3+x-y,2/3+x,2/3-z
loop_
_atom_site_type_symbol
_atom_site_label
_atom_site_fract_x
_atom_site_fract_y
_atom_site_fract_z
Si Si1 0.048300 0.817141 0.605959
Si Si2 0.565435 0.709962 0.266487
Si Si3 0.053034 0.387636 0.662963
Si Si4 0.684786 0.704929 0.865008
Si Si5 0.595074 0.092086 0.205100
Si Si6 0.779200 0.218804 0.263613
O O1 0.080505 0.783648 0.649798
O O2 0.101749 0.781804 0.568921
O O3 0.918000 0.757034 0.602223
O O4 0.105291 0.947901 0.602410
O O5 0.622508 0.680664 0.304260
O O6 0.616575 0.691277 0.224331
O O7 0.117841 0.386110 0.703990
O O8 0.133971 0.480974 0.629300
O O9 0.594683 0.672521 0.828780
O O10 0.815641 0.751657 0.854720
O O11 0.690375 0.795722 0.897576
O O12 0.674958 0.196564 0.234818
#
# Coordination Sequence:
#
# PCOD9575044 Si02
#       6
#    18  18  18  18  18  18
#     4  10  19  32  53  81 110 146 184 231 280 331
#     4  10  19  32  53  81 110 146 184 231 280 331
#     4  10  19  36  53  80 112 148 190 223 284 335
#     4  10  21  38  58  83 110 151 191 232 288 334
#     4  10  21  38  58  83 110 151 191 232 288 334
#     4  10  21  36  59  82 114 148 189 238 274 339
#
# _framework density 19.955048000000001
#
# number of rings (size 3 to 8) (size 9 to 14) (size 15 to 20)
#    0.000    2.000    1.667    2.333    2.333    0.000 
#    1.000    0.833    0.000    5.333    0.000    0.000 
#    0.000    0.000    0.000    0.000    0.000    0.000 
#
# Total GULP energy -200414.576816 kJ/mol
# GULP energy per Si atom -5567.071578 kJ/mol
# Density = 1.990963 g / cm^3
# Si number density = 19.955048 Si / 1000 Ang^3
#
#
#
# Elastic Constant Matrix: (Units=GPa)
#
#
# Indices 1 2 3 4 5 6 
#
# 1 64.4184 20.3839 26.5263 3.2715 2.0298 0.0000
# 2 20.3839 64.4184 26.5263 -3.2715 -2.0298 0.0000
# 3 26.5263 26.5263 83.2110 0.0000 0.0000 0.0000
# 4 3.2715 -3.2715 0.0000 24.4137 0.0000 -2.0298
# 5 2.0298 -2.0298 0.0000 0.0000 24.4137 3.2715
# 6 0.0000 0.0000 0.0000 -2.0298 3.2715 22.0173
#
#
#
# Elastic Compliance Matrix: (Units=1/GPa)
#
#
# Indices 1 2 3 4 5 6 
#
# 1 0.019042 -0.004312 -0.004696 -0.003129 -0.001942 0.000000
# 2 -0.004312 0.019042 -0.004696 0.003129 0.001942 0.000000
# 3 -0.004696 -0.004696 0.015011 0.000000 0.000000 0.000000
# 4 -0.003129 0.003129 0.000000 0.042122 0.000000 0.003883
# 5 -0.001942 0.001942 0.000000 0.000000 0.042122 -0.006259
# 6 0.000000 0.000000 0.000000 0.003883 -0.006259 0.046707
#
#
# Mechanical properties :
#
#
# Convention : Reuss Voigt Hill
#
# Bulk Modulus (GPa) = 38.92800 39.88010 39.40405
# Shear Modulus (GPa) = 22.72577 23.40970 23.06773
#
# Velocity S-wave (km/s) = 3.37834 3.42880 3.40367
# Velocity P-wave (km/s) = 5.89642 5.97528 5.93598
#
# Compressibility (1/GPa) = 0.02568845
#
# Stress axis : x y z
#
# Youngs Moduli (GPa) = 52.51667 52.51667 66.61610
#
# Poissons Ratio (x) = 0.22645 0.31280
# Poissons Ratio (y) = 0.22645 0.31280
# Poissons Ratio (z) = 0.24660 0.24660
#
# Static dielectric constant tensor:
#      x y z
#    x 1.744050 0.000000 0.000000 
#    y 0.000000 1.744050 0.000000 
#    z 0.000000 0.000000 1.719900 
# 
# From -- ./inp_files/4005.got.cif
#   From: 2010.05.17/outbox.cif.g08.bks.cpg/sg148_3_cif.got.tgz:4005.got - 2010.05.20 13:50:20.
