data_PCOD9575127
_publ_section_title
;
Structure prediction by ZEFSAII (Michael W. Deem and Ramdas Pophale) SiO2 
 PCOD9575127
Probable space group: R -3
;
_chemical_formula_sum "Si O2"
_cell_formula_units_Z 108
_cell_length_a 14.472097
_cell_length_b 14.472097
_cell_length_c 28.758426
_cell_angle_alpha 90.000000
_cell_angle_beta 90.000000
_cell_angle_gamma 120.000000
_cell_volume 5216.253316
_symmetry_space_group_name_H-M "R -3"
_symmetry_group_IT_number 148
_symmetry_cell_setting 'hexagonal'
loop_
_space_group_symop_operation_xyz
x,y,z
-y,x-y,z
-x+y,-x,z
-x,-y,-z
y,-x+y,-z
x-y,x,-z
2/3+x,1/3+y,1/3+z
2/3-y,1/3+x-y,1/3+z
2/3-x+y,1/3-x,1/3+z
2/3-x,1/3-y,1/3-z
2/3+y,1/3-x+y,1/3-z
2/3+x-y,1/3+x,1/3-z
1/3+x,2/3+y,2/3+z
1/3-y,2/3+x-y,2/3+z
1/3-x+y,2/3-x,2/3+z
1/3-x,2/3-y,2/3-z
1/3+y,2/3-x+y,2/3-z
1/3+x-y,2/3+x,2/3-z
loop_
_atom_site_type_symbol
_atom_site_label
_atom_site_fract_x
_atom_site_fract_y
_atom_site_fract_z
Si Si1 0.365605 0.038386 0.800500
Si Si2 0.208992 0.158440 0.701866
Si Si3 0.938060 0.755750 0.267516
Si Si4 0.129958 0.763738 0.102427
Si Si5 0.278654 0.852249 0.657674
Si Si6 0.099127 0.877227 0.397059
O O1 0.357972 0.056024 0.854628
O O2 0.456341 0.009615 0.788889
O O3 0.409523 0.150199 0.772280
O O4 0.250366 0.957184 0.778988
O O5 0.157663 0.220495 0.726583
O O6 0.180008 0.136907 0.647013
O O7 0.335341 0.222740 0.709861
O O8 0.173395 0.043024 0.723257
O O9 0.923267 0.670603 0.307202
O O10 0.071469 0.787230 0.061073
O O11 0.175366 0.688449 0.082274
O O12 0.396552 0.873013 0.665807
#
# Coordination Sequence:
#
# PCOD9575127 Si02
#       6
#    18  18  18  18  18  18
#     4  11  24  41  65  99 141 181 225 282 355 421
#     4  10  21  37  63  97 130 173 222 285 339 409
#     4  11  22  41  67 101 136 177 229 280 346 413
#     4  12  22  44  66  99 141 183 228 288 355 417
#     4  12  25  45  72 104 137 185 246 294 340 407
#     4  10  21  38  61  92 133 170 224 280 341 407
#
# _framework density 20.704516999999999
#
# number of rings (size 3 to 8) (size 9 to 14) (size 15 to 20)
#    0.000    1.000    5.000    2.500    2.333    0.000 
#    1.000    7.500    0.000    0.000    0.000    0.000 
#    0.000    0.000    0.000    0.000    0.000    0.000 
#
# Total GULP energy -201237.066211 kJ/mol
# GULP energy per Si atom -5589.918506 kJ/mol
# Density = 2.065739 g / cm^3
# Si number density = 20.704517 Si / 1000 Ang^3
#
#
#
# Elastic Constant Matrix: (Units=GPa)
#
#
# Indices 1 2 3 4 5 6 
#
# 1 76.6346 7.7093 25.0058 5.3244 1.1395 0.0000
# 2 7.7093 76.6346 25.0058 -5.3244 -1.1395 0.0000
# 3 25.0058 25.0058 124.5422 0.0000 0.0000 0.0000
# 4 5.3244 -5.3244 0.0000 26.4255 0.0000 -1.1395
# 5 1.1395 -1.1395 0.0000 0.0000 26.4255 5.3244
# 6 0.0000 0.0000 0.0000 -1.1395 5.3244 34.4626
#
#
#
# Elastic Compliance Matrix: (Units=1/GPa)
#
#
# Indices 1 2 3 4 5 6 
#
# 1 0.014228 -0.000769 -0.002702 -0.003022 -0.000647 0.000000
# 2 -0.000769 0.014228 -0.002702 0.003022 0.000647 0.000000
# 3 -0.002702 -0.002702 0.009115 0.000000 0.000000 0.000000
# 4 -0.003022 0.003022 0.000000 0.039116 0.000000 0.001293
# 5 -0.000647 0.000647 0.000000 0.000000 0.039116 -0.006043
# 6 0.000000 0.000000 0.000000 0.001293 -0.006043 0.029993
#
#
# Mechanical properties :
#
#
# Convention : Reuss Voigt Hill
#
# Bulk Modulus (GPa) = 39.64693 43.69480 41.67086
# Shear Modulus (GPa) = 30.02122 32.13544 31.07833
#
# Velocity S-wave (km/s) = 3.81200 3.94394 3.87853
# Velocity P-wave (km/s) = 6.21012 6.47220 6.34251
#
# Compressibility (1/GPa) = 0.02522264
#
# Stress axis : x y z
#
# Youngs Moduli (GPa) = 70.28598 70.28598 109.71506
#
# Poissons Ratio (x) = 0.05406 0.29647
# Poissons Ratio (y) = 0.05406 0.29647
# Poissons Ratio (z) = 0.18993 0.18993
#
# Static dielectric constant tensor:
#      x y z
#    x 1.757040 0.000000 0.000000 
#    y 0.000000 1.757040 0.000000 
#    z 0.000000 0.000000 1.738110 
# 
# From -- ./inp_files/4002.got.cif
#   From: 2010.05.17/outbox.cif.g08.bks.cpg/sg148_3_cif.got.tgz:4002.got - 2010.05.20 13:50:20.
