data_PCOD9575154
_publ_section_title
;
Structure prediction by ZEFSAII (Michael W. Deem and Ramdas Pophale) SiO2 
 PCOD9575154
Probable space group: R -3
;
_chemical_formula_sum "Si O2"
_cell_formula_units_Z 126
_cell_length_a 16.995465
_cell_length_b 16.995465
_cell_length_c 24.468212
_cell_angle_alpha 90.000000
_cell_angle_beta 90.000000
_cell_angle_gamma 120.000000
_cell_volume 6120.670064
_symmetry_space_group_name_H-M "R -3"
_symmetry_group_IT_number 148
_symmetry_cell_setting 'hexagonal'
loop_
_space_group_symop_operation_xyz
x,y,z
-y,x-y,z
-x+y,-x,z
-x,-y,-z
y,-x+y,-z
x-y,x,-z
2/3+x,1/3+y,1/3+z
2/3-y,1/3+x-y,1/3+z
2/3-x+y,1/3-x,1/3+z
2/3-x,1/3-y,1/3-z
2/3+y,1/3-x+y,1/3-z
2/3+x-y,1/3+x,1/3-z
1/3+x,2/3+y,2/3+z
1/3-y,2/3+x-y,2/3+z
1/3-x+y,2/3-x,2/3+z
1/3-x,2/3-y,2/3-z
1/3+y,2/3-x+y,2/3-z
1/3+x-y,2/3+x,2/3-z
loop_
_atom_site_type_symbol
_atom_site_label
_atom_site_fract_x
_atom_site_fract_y
_atom_site_fract_z
Si Si1 0.514480 0.806501 0.192184
Si Si2 0.568942 0.920758 0.489815
Si Si3 0.784634 0.828309 0.810073
Si Si4 0.273922 0.251510 0.698390
Si Si5 0.126064 0.225816 0.622796
Si Si6 0.293182 0.834608 0.357468
Si Si7 0.874136 0.178286 0.866282
O O1 0.489067 0.701989 0.186465
O O2 0.490040 0.839173 0.247554
O O3 0.621328 0.864900 0.178959
O O4 0.459903 0.863222 0.483299
O O5 0.612567 0.941997 0.428987
O O6 0.612937 0.870397 0.521151
O O7 0.585363 0.010199 0.521062
O O8 0.819655 0.816208 0.752045
O O9 0.819743 0.787844 0.857567
O O10 0.203317 0.273122 0.668523
O O11 0.368238 0.290539 0.666153
O O12 0.228451 0.142455 0.692709
O O13 0.123101 0.304775 0.588083
O O14 0.030577 0.159811 0.651168
#
# Coordination Sequence:
#
# PCOD9575154 Si02
#       7
#    18  18  18  18  18  18  18
#     4  10  22  37  57  89 134 177 220 246 299 395
#     4  11  23  40  66  88 123 171 220 274 322 382
#     4  11  22  42  62  90 124 165 226 272 323 384
#     4  11  23  40  63  94 130 169 211 272 332 392
#     4  11  24  39  65  96 129 176 218 266 328 399
#     4  11  23  40  63  93 135 169 212 270 333 385
#     4  11  22  42  63  91 125 177 219 264 323 402
#
# _framework density 20.585979999999999
#
# number of rings (size 3 to 8) (size 9 to 14) (size 15 to 20)
#    0.000    1.143    2.857    4.429    6.000    1.143 
#    1.714    1.429    0.000    0.000    0.000    0.000 
#    0.000    3.429    0.000    0.000    0.000    0.000 
#
# Total GULP energy -234753.818300 kJ/mol
# GULP energy per Si atom -5589.376626 kJ/mol
# Density = 2.053913 g / cm^3
# Si number density = 20.585980 Si / 1000 Ang^3
#
#
#
# Elastic Constant Matrix: (Units=GPa)
#
#
# Indices 1 2 3 4 5 6 
#
# 1 66.1009 -0.6172 5.5773 -4.1448 -0.4602 0.0000
# 2 -0.6172 66.1009 5.5773 4.1448 0.4602 0.0000
# 3 5.5773 5.5773 62.1418 0.0000 0.0000 0.0000
# 4 -4.1448 4.1448 0.0000 29.4103 0.0000 0.4602
# 5 -0.4602 0.4602 0.0000 0.0000 29.4103 -4.1448
# 6 0.0000 0.0000 0.0000 0.4602 -4.1448 33.3591
#
#
#
# Elastic Compliance Matrix: (Units=1/GPa)
#
#
# Indices 1 2 3 4 5 6 
#
# 1 0.015383 0.000125 -0.001392 0.002150 0.000239 0.000000
# 2 0.000125 0.015383 -0.001392 -0.002150 -0.000239 0.000000
# 3 -0.001392 -0.001392 0.016342 0.000000 0.000000 0.000000
# 4 0.002150 -0.002150 0.000000 0.034615 0.000000 -0.000478
# 5 0.000239 -0.000239 0.000000 0.000000 0.034615 0.004301
# 6 0.000000 0.000000 0.000000 -0.000478 0.004301 0.030518
#
#
# Mechanical properties :
#
#
# Convention : Reuss Voigt Hill
#
# Bulk Modulus (GPa) = 23.92872 23.93535 23.93204
# Shear Modulus (GPa) = 30.10129 30.68971 30.39550
#
# Velocity S-wave (km/s) = 3.82805 3.86528 3.84671
# Velocity P-wave (km/s) = 5.58459 5.61897 5.60181
#
# Compressibility (1/GPa) = 0.04179079
#
# Stress axis : x y z
#
# Youngs Moduli (GPa) = 65.00475 65.00475 61.19181
#
# Poissons Ratio (x) = -0.00810 0.08517
# Poissons Ratio (y) = -0.00810 0.08517
# Poissons Ratio (z) = 0.09048 0.09048
#
# Static dielectric constant tensor:
#      x y z
#    x 1.749680 0.000000 0.000000 
#    y 0.000000 1.749680 0.000000 
#    z 0.000000 0.000000 1.741800 
# 
# From -- ./inp_files/3453.got.cif
#   From: 2010.05.17/outbox.cif.g08.bks.cpg/sg148_2_cif.got.tgz:3453.got - 2010.05.20 13:50:20.
