data_PCOD9575744
_publ_section_title
;
Structure prediction by ZEFSAII (Michael W. Deem and Ramdas Pophale) SiO2 
 PCOD9575744
Probable space group: P 31 2 1
;
_chemical_formula_sum "Si O2"
_cell_formula_units_Z 36
_cell_length_a 11.213934
_cell_length_b 11.213934
_cell_length_c 13.555457
_cell_angle_alpha 90.000000
_cell_angle_beta 90.000000
_cell_angle_gamma 120.000000
_cell_volume 1476.252978
_symmetry_space_group_name_H-M "P 31 2 1"
_symmetry_group_IT_number 152
_symmetry_cell_setting 'hexagonal'
loop_
_space_group_symop_operation_xyz
x,y,z
-y,x-y,1/3+z
-x+y,-x,2/3+z
x-y,-y,2/3-z
-x,-x+y,1/3-z
y,x,-z
loop_
_atom_site_type_symbol
_atom_site_label
_atom_site_fract_x
_atom_site_fract_y
_atom_site_fract_z
Si Si1 0.400141 0.164375 0.983180
Si Si2 0.823894 0.823894 0.500000
Si Si3 0.533375 0.290844 0.653701
Si Si4 0.503764 0.731674 0.908943
Si Si5 0.903679 0.836285 0.764720
Si Si6 0.000000 0.550860 0.666667
Si Si7 0.991826 0.733727 0.274890
O O1 0.545554 0.177265 0.982153
O O2 0.287107 0.042208 0.918254
O O3 0.415331 0.307835 0.944967
O O4 0.326590 0.130231 0.090212
O O5 0.864362 0.983705 0.517618
O O6 0.623363 0.242930 0.717782
O O7 0.506148 0.229819 0.543153
O O8 0.384266 0.269725 0.681121
O O9 0.647374 0.845775 0.960659
O O10 0.477625 0.582588 0.940003
O O11 0.824513 0.921051 0.752428
O O12 0.000000 0.877981 0.666667
O O13 0.000000 0.670771 0.166667
#
# Coordination Sequence:
#
# PCOD9575744 Si02
#       7
#     6   3   6   6   6   3   6
#     4  10  21  39  65  94 131 167 222 284 322 414
#     4  10  18  34  60  92 120 166 214 262 344 374
#     4  10  24  45  69  96 135 177 229 274 346 410
#     4  10  24  45  66  98 134 181 221 281 343 412
#     4  10  20  36  59  95 121 167 219 272 337 388
#     4  10  20  46  62  90 140 168 226 288 332 406
#     4  10  22  40  63  90 135 168 222 282 329 411
#
# _framework density 24.386064999999999
#
# number of rings (size 3 to 8) (size 9 to 14) (size 15 to 20)
#    0.000    2.000    3.333    0.000    7.000    1.333 
#   12.000    3.333    0.000    0.000    0.000    0.000 
#    0.000    0.000    0.000    0.000    0.000    0.000 
#
# Total GULP energy -200578.998666 kJ/mol
# GULP energy per Si atom -5571.638852 kJ/mol
# Density = 2.433056 g / cm^3
# Si number density = 24.386065 Si / 1000 Ang^3
#
#
#
# Elastic Constant Matrix: (Units=GPa)
#
#
# Indices 1 2 3 4 5 6 
#
# 1 119.9913 41.9171 6.8624 2.3816 0.0000 0.0000
# 2 41.9171 119.9913 6.8624 -2.3816 0.0000 0.0000
# 3 6.8624 6.8624 36.4705 0.0000 0.0000 0.0000
# 4 2.3816 -2.3816 0.0000 21.7836 0.0000 0.0000
# 5 0.0000 0.0000 0.0000 0.0000 21.7836 2.3816
# 6 0.0000 0.0000 0.0000 0.0000 2.3816 39.0371
#
#
#
# Elastic Compliance Matrix: (Units=1/GPa)
#
#
# Indices 1 2 3 4 5 6 
#
# 1 0.009585 -0.003309 -0.001181 -0.001410 0.000000 0.000000
# 2 -0.003309 0.009585 -0.001181 0.001410 0.000000 0.000000
# 3 -0.001181 -0.001181 0.027864 0.000000 0.000000 0.000000
# 4 -0.001410 0.001410 0.000000 0.046214 0.000000 0.000000
# 5 0.000000 0.000000 0.000000 0.000000 0.046214 -0.002819
# 6 0.000000 0.000000 0.000000 0.000000 -0.002819 0.025789
#
#
# Mechanical properties :
#
#
# Convention : Reuss Voigt Hill
#
# Bulk Modulus (GPa) = 28.01690 43.08189 35.54939
# Shear Modulus (GPa) = 26.52639 31.24159 28.88399
#
# Velocity S-wave (km/s) = 3.30171 3.58316 3.44531
# Velocity P-wave (km/s) = 5.10381 5.90116 5.51691
#
# Compressibility (1/GPa) = 0.03569274
#
# Stress axis : x y z
#
# Youngs Moduli (GPa) = 104.32541 104.32541 35.88879
#
# Poissons Ratio (x) = 0.34521 0.04238
# Poissons Ratio (y) = 0.34521 0.04238
# Poissons Ratio (z) = 0.12321 0.12321
#
# Static dielectric constant tensor:
#      x y z
#    x 2.050330 0.000000 0.000000 
#    y 0.000000 2.050330 0.000000 
#    z 0.000000 0.000000 2.174020 
# 
# From -- ./inp_files/2418.got.cif
#   From: 2010.05.17/outbox.cif.g08.bks.cpg/sg152_2_cif.got.tgz:2418.got - 2010.05.20 10:36:06.
