data_PCOD9575931
_publ_section_title
;
Structure prediction by ZEFSAII (Michael W. Deem and Ramdas Pophale) SiO2 
 PCOD9575931
Probable space group: P 31 2 1
;
_chemical_formula_sum "Si O2"
_cell_formula_units_Z 33
_cell_length_a 8.171129
_cell_length_b 8.171129
_cell_length_c 25.750995
_cell_angle_alpha 90.000000
_cell_angle_beta 90.000000
_cell_angle_gamma 120.000000
_cell_volume 1488.979711
_symmetry_space_group_name_H-M "P 31 2 1"
_symmetry_group_IT_number 152
_symmetry_cell_setting 'hexagonal'
loop_
_space_group_symop_operation_xyz
x,y,z
-y,x-y,1/3+z
-x+y,-x,2/3+z
x-y,-y,2/3-z
-x,-x+y,1/3-z
y,x,-z
loop_
_atom_site_type_symbol
_atom_site_label
_atom_site_fract_x
_atom_site_fract_y
_atom_site_fract_z
Si Si1 0.895954 0.906046 0.085965
Si Si2 0.352485 0.638204 0.718845
Si Si3 0.386539 0.883099 0.475840
Si Si4 0.687771 0.867819 0.226948
Si Si5 0.293041 0.264370 0.669915
Si Si6 0.641369 0.000000 0.333334
O O1 0.093573 0.025359 0.116382
O O2 0.704198 0.756321 0.116170
O O3 0.875076 0.063541 0.051900
O O4 0.921404 0.781283 0.041774
O O5 0.317996 0.635325 0.780560
O O6 0.359915 0.460299 0.697947
O O7 0.532466 0.810711 0.693972
O O8 0.158768 0.615026 0.695244
O O9 0.610136 0.004064 0.464585
O O10 0.335259 0.878753 0.536085
O O11 0.683783 0.889392 0.288830
#
# Coordination Sequence:
#
# PCOD9575931 Si02
#       6
#     6   6   6   6   6   3
#     4  10  22  42  62  92 134 173 214 269 332 401
#     4  10  22  38  63  94 131 167 220 269 325 399
#     4  10  24  42  62  94 129 172 216 273 337 401
#     4  11  23  41  71  90 130 174 217 272 339 399
#     4  10  21  36  64  96 127 174 218 267 326 393
#     4  10  22  42  66  90 130 174 214 276 334 400
#
# _framework density 22.162827
#
# number of rings (size 3 to 8) (size 9 to 14) (size 15 to 20)
#    0.000    1.818    0.000    4.909   10.182    1.455 
#    0.000    0.000    8.000    0.000    0.000    0.000 
#    0.000    0.000    0.000    0.000    0.000    0.000 
#
# Total GULP energy -184009.204455 kJ/mol
# GULP energy per Si atom -5576.036499 kJ/mol
# Density = 2.211238 g / cm^3
# Si number density = 22.162827 Si / 1000 Ang^3
#
#
#
# Elastic Constant Matrix: (Units=GPa)
#
#
# Indices 1 2 3 4 5 6 
#
# 1 62.2019 -5.5651 0.9318 -2.5923 -0.0001 0.0000
# 2 -5.5651 62.2019 0.9318 2.5923 0.0001 0.0000
# 3 0.9318 0.9318 71.2041 0.0000 0.0000 0.0000
# 4 -2.5923 2.5923 0.0000 35.7510 0.0000 0.0001
# 5 -0.0001 0.0001 0.0000 0.0000 35.7510 -2.5923
# 6 0.0000 0.0000 0.0000 0.0001 -2.5923 33.8835
#
#
#
# Elastic Compliance Matrix: (Units=1/GPa)
#
#
# Indices 1 2 3 4 5 6 
#
# 1 0.016251 0.001413 -0.000231 0.001076 0.000000 0.000000
# 2 0.001413 0.016251 -0.000231 -0.001076 0.000000 0.000000
# 3 -0.000231 -0.000231 0.014050 0.000000 0.000000 0.000000
# 4 0.001076 -0.001076 0.000000 0.028127 0.000000 0.000000
# 5 0.000000 0.000000 0.000000 0.000000 0.028127 0.002152
# 6 0.000000 0.000000 0.000000 0.000000 0.002152 0.029678
#
#
# Mechanical properties :
#
#
# Convention : Reuss Voigt Hill
#
# Bulk Modulus (GPa) = 20.63832 20.91163 20.77498
# Shear Modulus (GPa) = 34.07487 34.36437 34.21962
#
# Velocity S-wave (km/s) = 3.92532 3.94196 3.93365
# Velocity P-wave (km/s) = 5.46595 5.49315 5.47957
#
# Compressibility (1/GPa) = 0.04845355
#
# Stress axis : x y z
#
# Youngs Moduli (GPa) = 61.53325 61.53325 71.17340
#
# Poissons Ratio (x) = -0.08692 0.01645
# Poissons Ratio (y) = -0.08692 0.01645
# Poissons Ratio (z) = 0.01422 0.01422
#
# Static dielectric constant tensor:
#      x y z
#    x 1.808380 0.000000 0.000000 
#    y 0.000000 1.808380 0.000000 
#    z 0.000000 0.000000 1.907870 
# 
# From -- ./inp_files/3352.got.cif
#   From: 2010.05.17/outbox.cif.g08.bks.cpg/sg152_2_cif.got.tgz:3352.got - 2010.05.20 10:36:06.
