data_PCOD9575315
_publ_section_title
;
Structure prediction by ZEFSAII (Michael W. Deem and Ramdas Pophale) SiO2 
 PCOD9575315
Probable space group: R -3
;
_chemical_formula_sum "Si O2"
_cell_formula_units_Z 72
_cell_length_a 20.156616
_cell_length_b 20.156616
_cell_length_c 9.388986
_cell_angle_alpha 90.000000
_cell_angle_beta 90.000000
_cell_angle_gamma 120.000000
_cell_volume 3303.578018
_symmetry_space_group_name_H-M "R -3"
_symmetry_group_IT_number 148
_symmetry_cell_setting 'hexagonal'
loop_
_space_group_symop_operation_xyz
x,y,z
-y,x-y,z
-x+y,-x,z
-x,-y,-z
y,-x+y,-z
x-y,x,-z
2/3+x,1/3+y,1/3+z
2/3-y,1/3+x-y,1/3+z
2/3-x+y,1/3-x,1/3+z
2/3-x,1/3-y,1/3-z
2/3+y,1/3-x+y,1/3-z
2/3+x-y,1/3+x,1/3-z
1/3+x,2/3+y,2/3+z
1/3-y,2/3+x-y,2/3+z
1/3-x+y,2/3-x,2/3+z
1/3-x,2/3-y,2/3-z
1/3+y,2/3-x+y,2/3-z
1/3+x-y,2/3+x,2/3-z
loop_
_atom_site_type_symbol
_atom_site_label
_atom_site_fract_x
_atom_site_fract_y
_atom_site_fract_z
Si Si1 0.282008 0.091982 0.437302
Si Si2 0.901589 0.541567 0.647225
Si Si3 0.316228 0.916761 0.805800
Si Si4 0.203908 0.515046 0.618319
O O1 0.265241 0.159723 0.401537
O O2 0.256598 0.039387 0.296442
O O3 0.368974 0.109886 0.455446
O O4 0.240557 0.043621 0.577153
O O5 0.838906 0.490604 0.528851
O O6 0.975760 0.610087 0.566286
O O7 0.281445 0.847145 0.695827
O O8 0.201469 0.577657 0.721220
#
# Coordination Sequence:
#
# PCOD9575315 Si02
#       4
#    18  18  18  18
#     4  12  25  42  68 101 140 171 220 276 335 394
#     4  12  26  44  68 105 135 173 223 277 339 395
#     4  12  23  45  68 102 134 173 222 280 337 397
#     4  12  26  46  70  93 134 182 229 270 325 401
#
# _framework density 21.794550999999998
#
# number of rings (size 3 to 8) (size 9 to 14) (size 15 to 20)
#    0.000    0.000    7.500    2.500    3.500    1.000 
#    0.000    0.000    0.000    2.000    0.000    0.000 
#    0.000    0.000    0.000    0.000    0.000    0.000 
#
# Total GULP energy -134276.786975 kJ/mol
# GULP energy per Si atom -5594.866124 kJ/mol
# Density = 2.174495 g / cm^3
# Si number density = 21.794551 Si / 1000 Ang^3
#
#
#
# Elastic Constant Matrix: (Units=GPa)
#
#
# Indices 1 2 3 4 5 6 
#
# 1 66.4503 20.9854 10.5231 3.1755 12.4555 0.0000
# 2 20.9854 66.4501 10.5226 -3.1755 -12.4554 0.0000
# 3 10.5231 10.5226 59.7874 0.0001 0.0004 0.0000
# 4 3.1755 -3.1755 0.0001 26.1446 0.0000 -12.4554
# 5 12.4555 -12.4554 0.0004 0.0000 26.1448 3.1755
# 6 0.0000 0.0000 0.0000 -12.4554 3.1755 22.7323
#
#
#
# Elastic Compliance Matrix: (Units=1/GPa)
#
#
# Indices 1 2 3 4 5 6 
#
# 1 0.021203 -0.009260 -0.002102 -0.003700 -0.014513 0.000000
# 2 -0.009260 0.021203 -0.002102 0.003700 0.014513 0.000000
# 3 -0.002102 -0.002102 0.017466 0.000000 0.000000 0.000000
# 4 -0.003700 0.003700 0.000000 0.052976 0.000000 0.029026
# 5 -0.014513 0.014513 0.000000 0.000000 0.052976 -0.007400
# 6 0.000000 0.000000 0.000000 0.029026 -0.007400 0.060928
#
#
# Mechanical properties :
#
#
# Convention : Reuss Voigt Hill
#
# Bulk Modulus (GPa) = 30.35482 30.75001 30.55241
# Shear Modulus (GPa) = 18.89201 25.04811 21.97006
#
# Velocity S-wave (km/s) = 2.94738 3.39379 3.17843
# Velocity P-wave (km/s) = 5.05378 5.43109 5.24583
#
# Compressibility (1/GPa) = 0.03294369
#
# Stress axis : x y z
#
# Youngs Moduli (GPa) = 47.16225 47.16225 57.25453
#
# Poissons Ratio (x) = 0.43674 0.12035
# Poissons Ratio (y) = 0.43674 0.12035
# Poissons Ratio (z) = 0.09914 0.09913
#
# Static dielectric constant tensor:
#      x y z
#    x 1.782920 0.000000 0.000000 
#    y 0.000000 1.782920 0.000000 
#    z 0.000000 0.000000 1.775450 
# 
# From -- ./inp_files/796.got.cif
#   From: 2010.05.17/outbox.cif.g08.bks.cpg/sg148_1_cif.got.tgz:796.got - 2010.05.20 13:50:20.
