data_PCOD9575119
_publ_section_title
;
Structure prediction by ZEFSAII (Michael W. Deem and Ramdas Pophale) SiO2 
 PCOD9575119
Probable space group: R -3
;
_chemical_formula_sum "Si O2"
_cell_formula_units_Z 108
_cell_length_a 19.576283
_cell_length_b 19.576283
_cell_length_c 14.849768
_cell_angle_alpha 90.000000
_cell_angle_beta 90.000000
_cell_angle_gamma 120.000000
_cell_volume 4928.454707
_symmetry_space_group_name_H-M "R -3"
_symmetry_group_IT_number 148
_symmetry_cell_setting 'hexagonal'
loop_
_space_group_symop_operation_xyz
x,y,z
-y,x-y,z
-x+y,-x,z
-x,-y,-z
y,-x+y,-z
x-y,x,-z
2/3+x,1/3+y,1/3+z
2/3-y,1/3+x-y,1/3+z
2/3-x+y,1/3-x,1/3+z
2/3-x,1/3-y,1/3-z
2/3+y,1/3-x+y,1/3-z
2/3+x-y,1/3+x,1/3-z
1/3+x,2/3+y,2/3+z
1/3-y,2/3+x-y,2/3+z
1/3-x+y,2/3-x,2/3+z
1/3-x,2/3-y,2/3-z
1/3+y,2/3-x+y,2/3-z
1/3+x-y,2/3+x,2/3-z
loop_
_atom_site_type_symbol
_atom_site_label
_atom_site_fract_x
_atom_site_fract_y
_atom_site_fract_z
Si Si1 0.510955 0.208461 0.373186
Si Si2 0.633630 0.928163 0.723809
Si Si3 0.438810 0.065346 0.990905
Si Si4 0.469894 0.843407 0.180749
Si Si5 0.736086 0.905698 0.160036
Si Si6 0.861935 0.135130 0.339866
O O1 0.529004 0.276371 0.297802
O O2 0.436608 0.124266 0.346569
O O3 0.480277 0.236490 0.459461
O O4 0.583501 0.928765 0.807750
O O5 0.681562 0.882521 0.734593
O O6 0.688957 0.016419 0.687952
O O7 0.477574 0.090569 0.892503
O O8 0.429592 0.141071 0.018136
O O9 0.491235 0.054835 0.066998
O O10 0.484647 0.771301 0.171158
O O11 0.485558 0.875883 0.281615
O O12 0.667721 0.849286 0.089745
#
# Coordination Sequence:
#
# PCOD9575119 Si02
#       6
#    18  18  18  18  18  18
#     4   9  17  34  58  81 115 165 202 237 300 367
#     4   9  19  34  57  84 123 153 188 249 308 362
#     4  10  21  36  60  87 118 155 201 255 295 358
#     4  10  22  41  61  82 115 158 202 248 299 361
#     4   9  19  36  55  86 122 155 200 251 295 361
#     4   9  20  37  56  87 117 155 196 241 306 363
#
# _framework density 21.913561000000001
#
# number of rings (size 3 to 8) (size 9 to 14) (size 15 to 20)
#    0.000    2.667    0.000    1.333    7.000    1.333 
#    0.000    6.667    0.000    0.000    0.000    0.000 
#    0.000    0.000    0.000    0.000    0.000    0.000 
#
# Total GULP energy -200686.983656 kJ/mol
# GULP energy per Si atom -5574.638435 kJ/mol
# Density = 2.186368 g / cm^3
# Si number density = 21.913561 Si / 1000 Ang^3
#
#
#
# Elastic Constant Matrix: (Units=GPa)
#
#
# Indices 1 2 3 4 5 6 
#
# 1 67.5239 28.6214 20.5617 12.1882 8.8336 0.0000
# 2 28.6214 67.5239 20.5617 -12.1882 -8.8336 0.0000
# 3 20.5617 20.5617 50.5585 0.0000 0.0000 0.0000
# 4 12.1882 -12.1882 0.0000 9.5683 0.0000 -8.8336
# 5 8.8336 -8.8336 0.0000 0.0000 9.5683 12.1882
# 6 0.0000 0.0000 0.0000 -8.8336 12.1882 19.4513
#
#
#
# Elastic Compliance Matrix: (Units=1/GPa)
#
#
# Indices 1 2 3 4 5 6 
#
# 1 -0.052813 0.065404 -0.005121 0.150586 0.109139 0.000000
# 2 0.065404 -0.052813 -0.005121 -0.150586 -0.109139 0.000000
# 3 -0.005121 -0.005121 0.023944 0.000000 0.000000 0.000000
# 4 0.150586 -0.150586 0.000000 -0.480641 0.000000 -0.218277
# 5 0.109139 -0.109139 0.000000 0.000000 -0.480641 0.301171
# 6 0.000000 0.000000 0.000000 -0.218277 0.301171 -0.236433
#
#
# Mechanical properties :
#
#
# Convention : Reuss Voigt Hill
#
# Bulk Modulus (GPa) = 34.91179 36.12179 35.51679
# Shear Modulus (GPa) = -3.62274 15.44167 5.90947
#
# Velocity S-wave (km/s) = -1.28716 2.65743 1.64395
# Velocity P-wave (km/s) = 3.70906 5.09269 4.45492
#
# Compressibility (1/GPa) = 0.02864362
#
# Stress axis : x y z
#
# Youngs Moduli (GPa) = -18.93489 -18.93489 41.76376
#
# Poissons Ratio (x) = 1.23841 0.21386
# Poissons Ratio (y) = 1.23841 0.21386
# Poissons Ratio (z) = -0.09696 -0.09696
#
# Static dielectric constant tensor:
#      x y z
#    x 1.819390 0.000000 0.000000 
#    y 0.000000 1.819390 0.000000 
#    z 0.000000 0.000000 1.797930 
# 
# From -- ./inp_files/2052.got.cif
#   From: 2010.05.17/outbox.cif.g08.bks.cpg/sg148_2_cif.got.tgz:2052.got - 2010.05.20 13:50:20.
