data_PCOD9575359
_publ_section_title
;
Structure prediction by ZEFSAII (Michael W. Deem and Ramdas Pophale) SiO2 
 PCOD9575359
Probable space group: P 3 1 2
;
_chemical_formula_sum "Si O2"
_cell_formula_units_Z 48
_cell_length_a 12.709972
_cell_length_b 12.709972
_cell_length_c 21.314651
_cell_angle_alpha 90.000000
_cell_angle_beta 90.000000
_cell_angle_gamma 120.000000
_cell_volume 2981.934127
_symmetry_space_group_name_H-M "P 3 1 2"
_symmetry_group_IT_number 149
_symmetry_cell_setting 'hexagonal'
loop_
_space_group_symop_operation_xyz
x,y,z
-y,x-y,z
-x+y,-x,z
-y,-x,-z
-x+y,y,-z
x,x-y,-z
loop_
_atom_site_type_symbol
_atom_site_label
_atom_site_fract_x
_atom_site_fract_y
_atom_site_fract_z
Si Si1 0.416449 0.333443 0.121402
Si Si2 0.583216 0.666750 0.756875
Si Si3 0.413997 0.081247 0.362381
Si Si4 0.083534 0.416784 0.243126
Si Si5 0.918753 0.586004 0.362381
Si Si6 0.666557 0.583551 0.121402
Si Si7 0.916896 0.583897 0.500000
Si Si8 0.750593 0.000533 1.000000
O O1 0.357896 0.354652 0.183483
O O2 0.547144 0.452856 0.111958
O O3 0.430702 0.215351 0.128699
O O4 0.331014 0.310863 0.061521
O O5 0.587755 0.793877 0.761987
O O6 0.444468 0.555532 0.755080
O O7 0.646865 0.657220 0.693534
O O8 0.418128 0.209064 0.353917
O O9 0.551175 0.102350 0.360697
O O10 0.359887 0.030467 0.431920
O O11 0.342780 0.989644 0.306467
O O12 0.996756 0.354652 0.183484
O O13 0.969533 0.640113 0.431920
O O14 0.689137 0.668986 0.061521
O O15 0.781082 0.562164 0.500000
O O16 0.911570 0.455785 0.500000
O O17 0.890511 0.109490 0.000000
O O18 0.742298 0.871149 0.000000
#
# Coordination Sequence:
#
# PCOD9575359 Si02
#       8
#     6   6   6   6   6   6   6   6
#     4  10  20  34  54  78 102 126 154 195 245 292
#     4  10  20  33  48  66  92 127 164 199 234 277
#     4   9  16  27  46  71  97 122 150 190 239 289
#     4  10  20  33  48  66  92 127 164 199 234 277
#     4   9  16  27  46  71  97 122 150 190 239 289
#     4  10  20  34  54  78 102 126 154 195 245 292
#     4   8  13  22  39  66  96 122 148 182 232 288
#     4  10  20  34  52  74 102 136 170 198 224 262
#
# _framework density 16.096935999999999
#
# number of rings (size 3 to 8) (size 9 to 14) (size 15 to 20)
#    0.000    2.500    0.000    2.875    0.000    2.000 
#    0.000    4.375    0.000    9.000    0.000    1.750 
#    0.000    0.000    0.000    0.000    0.000    0.000 
#
# Total GULP energy -267479.101533 kJ/mol
# GULP energy per Si atom -5572.481282 kJ/mol
# Density = 1.606030 g / cm^3
# Si number density = 16.096936 Si / 1000 Ang^3
#
#
#
# Elastic Constant Matrix: (Units=GPa)
#
#
# Indices 1 2 3 4 5 6 
#
# 1 99.2859 64.7488 81.2289 0.0000 -0.0003 0.0000
# 2 64.7488 99.2859 81.2289 0.0000 0.0003 0.0000
# 3 81.2289 81.2289 168.4193 0.0000 0.0000 0.0000
# 4 0.0000 0.0000 0.0000 12.1472 0.0000 0.0003
# 5 -0.0003 0.0003 0.0000 0.0000 12.1472 0.0000
# 6 0.0000 0.0000 0.0000 0.0003 0.0000 17.2686
#
#
#
# Elastic Compliance Matrix: (Units=1/GPa)
#
#
# Indices 1 2 3 4 5 6 
#
# 1 0.020313 -0.008642 -0.005629 0.000000 0.000001 0.000000
# 2 -0.008642 0.020313 -0.005629 0.000000 -0.000001 0.000000
# 3 -0.005629 -0.005629 0.011367 0.000000 0.000000 0.000000
# 4 0.000000 0.000000 0.000000 0.082323 0.000000 -0.000001
# 5 0.000001 -0.000001 0.000000 0.000000 0.082323 0.000000
# 6 0.000000 0.000000 0.000000 -0.000001 0.000000 0.057909
#
#
# Mechanical properties :
#
#
# Convention : Reuss Voigt Hill
#
# Bulk Modulus (GPa) = 82.01025 91.26714 86.63869
# Shear Modulus (GPa) = 15.70291 17.63155 16.66723
#
# Velocity S-wave (km/s) = 3.12672 3.31318 3.22130
# Velocity P-wave (km/s) = 8.00584 8.45327 8.23260
#
# Compressibility (1/GPa) = 0.01219360
#
# Stress axis : x y z
#
# Youngs Moduli (GPa) = 49.23007 49.23007 87.97112
#
# Poissons Ratio (x) = 0.42543 0.49519
# Poissons Ratio (y) = 0.42543 0.49519
# Poissons Ratio (z) = 0.27712 0.27712
#
# Static dielectric constant tensor:
#      x y z
#    x 1.501730 0.000000 0.000000 
#    y 0.000000 1.501730 0.000000 
#    z 0.000000 0.000000 1.567560 
# 
# From -- ./inp_files/1144.got.cif
#   From: 2010.05.17/outbox.cif.g08.bks.cpg/sg149_cif.got.tgz:1144.got - 2010.05.20 13:52:34.
