data_PCOD9575896
_publ_section_title
;
Structure prediction by ZEFSAII (Michael W. Deem and Ramdas Pophale) SiO2 
 PCOD9575896
Probable space group: P 31 2 1
;
_chemical_formula_sum "Si O2"
_cell_formula_units_Z 36
_cell_length_a 8.521995
_cell_length_b 8.521995
_cell_length_c 28.014247
_cell_angle_alpha 90.000000
_cell_angle_beta 90.000000
_cell_angle_gamma 120.000000
_cell_volume 1761.944139
_symmetry_space_group_name_H-M "P 31 2 1"
_symmetry_group_IT_number 152
_symmetry_cell_setting 'hexagonal'
loop_
_space_group_symop_operation_xyz
x,y,z
-y,x-y,1/3+z
-x+y,-x,2/3+z
x-y,-y,2/3-z
-x,-x+y,1/3-z
y,x,-z
loop_
_atom_site_type_symbol
_atom_site_label
_atom_site_fract_x
_atom_site_fract_y
_atom_site_fract_z
Si Si1 0.041834 0.478545 0.054969
Si Si2 0.905332 0.221749 0.615945
Si Si3 0.715019 0.261073 0.467674
Si Si4 0.355777 0.486644 0.286918
Si Si5 0.489753 0.363914 0.892383
Si Si6 0.319339 0.217601 0.450933
O O1 0.847803 0.300320 0.047605
O O2 0.014092 0.632038 0.081137
O O3 0.167305 0.438500 0.089413
O O4 0.129856 0.551364 0.003439
O O5 0.911978 0.409238 0.602482
O O6 0.000000 0.244301 0.666667
O O7 0.028917 0.200551 0.575984
O O8 0.701745 0.056859 0.616652
O O9 0.794006 0.359722 0.517370
O O10 0.515636 0.238910 0.462272
O O11 0.386418 0.840386 0.575013
O O12 0.677043 0.058472 0.460916
O O13 0.237154 0.237154 0.500000
#
# Coordination Sequence:
#
# PCOD9575896 Si02
#       6
#     6   6   6   6   6   6
#     4  11  23  41  70  92 130 170 215 273 322 388
#     4  11  23  43  65  92 134 172 220 265 335 396
#     4  10  23  41  65  94 130 171 214 268 332 389
#     4  11  24  44  64  96 129 174 216 269 332 391
#     4  11  23  41  66  97 128 172 219 269 323 398
#     4  10  20  42  66  92 127 176 212 261 343 390
#
# _framework density 20.431974
#
# number of rings (size 3 to 8) (size 9 to 14) (size 15 to 20)
#    0.000    1.333    3.333    2.000    4.667    0.000 
#   12.000    0.000    0.000    0.000    0.000    0.000 
#    0.000    0.000    0.000    0.000    0.000    0.000 
#
# Total GULP energy -201299.691193 kJ/mol
# GULP energy per Si atom -5591.658089 kJ/mol
# Density = 2.038547 g / cm^3
# Si number density = 20.431974 Si / 1000 Ang^3
#
#
#
# Elastic Constant Matrix: (Units=GPa)
#
#
# Indices 1 2 3 4 5 6 
#
# 1 51.2178 8.2732 10.1805 2.4746 0.0000 0.0000
# 2 8.2732 51.2178 10.1805 -2.4746 0.0000 0.0000
# 3 10.1805 10.1805 81.0764 0.0000 0.0000 0.0000
# 4 2.4746 -2.4746 0.0000 27.1782 0.0000 0.0000
# 5 0.0000 0.0000 0.0000 0.0000 27.1782 2.4746
# 6 0.0000 0.0000 0.0000 0.0000 2.4746 21.4723
#
#
#
# Elastic Compliance Matrix: (Units=1/GPa)
#
#
# Indices 1 2 3 4 5 6 
#
# 1 0.020548 -0.002984 -0.002205 -0.002143 0.000000 0.000000
# 2 -0.002984 0.020548 -0.002205 0.002143 0.000000 0.000000
# 3 -0.002205 -0.002205 0.012888 0.000000 0.000000 0.000000
# 4 -0.002143 0.002143 0.000000 0.037184 0.000000 0.000000
# 5 0.000000 0.000000 0.000000 0.000000 0.037184 -0.004285
# 6 0.000000 0.000000 0.000000 0.000000 -0.004285 0.047066
#
#
# Mechanical properties :
#
#
# Convention : Reuss Voigt Hill
#
# Bulk Modulus (GPa) = 25.51397 26.75339 26.13368
# Shear Modulus (GPa) = 24.59727 25.49090 25.04409
#
# Velocity S-wave (km/s) = 3.47344 3.53597 3.50484
# Velocity P-wave (km/s) = 5.34796 5.45830 5.40342
#
# Compressibility (1/GPa) = 0.03919422
#
# Stress axis : x y z
#
# Youngs Moduli (GPa) = 48.66547 48.66547 77.59205
#
# Poissons Ratio (x) = 0.14523 0.17113
# Poissons Ratio (y) = 0.14523 0.17113
# Poissons Ratio (z) = 0.10733 0.10733
#
# Static dielectric constant tensor:
#      x y z
#    x 1.721620 0.000000 0.000000 
#    y 0.000000 1.721620 0.000000 
#    z 0.000000 0.000000 1.709030 
# 
# From -- ./inp_files/3416.got.cif
#   From: 2010.05.17/outbox.cif.g08.bks.cpg/sg152_2_cif.got.tgz:3416.got - 2010.05.20 10:36:06.
