data_PCOD9575675
_publ_section_title
;
Structure prediction by ZEFSAII (Michael W. Deem and Ramdas Pophale) SiO2 
 PCOD9575675
Probable space group: P 31 1 2
;
_chemical_formula_sum "Si O2"
_cell_formula_units_Z 27
_cell_length_a 7.121589
_cell_length_b 7.121589
_cell_length_c 24.596373
_cell_angle_alpha 90.000000
_cell_angle_beta 90.000000
_cell_angle_gamma 120.000000
_cell_volume 1080.327707
_symmetry_space_group_name_H-M "P 31 1 2"
_symmetry_group_IT_number 151
_symmetry_cell_setting 'hexagonal'
loop_
_space_group_symop_operation_xyz
x,y,z
-y,x-y,1/3+z
-x+y,-x,2/3+z
-y,-x,2/3-z
-x+y,y,1/3-z
x,x-y,-z
loop_
_atom_site_type_symbol
_atom_site_label
_atom_site_fract_x
_atom_site_fract_y
_atom_site_fract_z
Si Si1 0.190466 0.446279 0.227053
Si Si2 0.455395 0.544605 0.333334
Si Si3 0.721780 0.112775 0.239217
Si Si4 0.768903 0.034213 0.116305
Si Si5 0.177536 0.105831 0.380006
O O1 0.274719 0.549437 0.166667
O O2 0.317205 0.556860 0.282356
O O3 0.417673 0.351546 0.097874
O O4 0.225256 0.236611 0.224480
O O5 0.387084 0.311793 0.358947
O O6 0.714658 0.017669 0.179340
O O7 0.485945 0.083897 0.247347
O O8 0.789596 0.977789 0.278235
O O9 0.791972 0.831472 0.097092
O O10 0.070799 0.929202 0.333334
#
# Coordination Sequence:
#
# PCOD9575675 Si02
#       5
#     6   3   6   6   6
#     4   9  19  39  66 102 147 192 253 314 376 457
#     4  12  22  40  68 102 150 208 240 306 402 444
#     4   9  18  39  71  98 138 194 255 304 372 447
#     4   9  18  39  72  98 132 198 254 306 371 450
#     4  11  21  40  64  99 147 193 235 305 372 442
#
# _framework density 24.992418000000001
#
# number of rings (size 3 to 8) (size 9 to 14) (size 15 to 20)
#    0.000    2.222    4.444    2.000    0.000    0.000 
#    8.000    2.222   14.667    0.000    0.000    0.000 
#    0.000    0.000    0.000    0.000    0.000    0.000 
#
# Total GULP energy -150818.987550 kJ/mol
# GULP energy per Si atom -5585.888428 kJ/mol
# Density = 2.493553 g / cm^3
# Si number density = 24.992418 Si / 1000 Ang^3
#
#
#
# Elastic Constant Matrix: (Units=GPa)
#
#
# Indices 1 2 3 4 5 6 
#
# 1 113.6962 42.3626 41.2229 -0.0003 -0.5228 0.0000
# 2 42.3626 113.6962 41.2229 0.0003 0.5228 0.0000
# 3 41.2229 41.2229 124.8308 0.0000 0.0000 0.0000
# 4 -0.0003 0.0003 0.0000 25.7194 0.0000 0.5228
# 5 -0.5228 0.5228 0.0000 0.0000 25.7194 -0.0003
# 6 0.0000 0.0000 0.0000 0.5228 -0.0003 35.6668
#
#
#
# Elastic Compliance Matrix: (Units=1/GPa)
#
#
# Indices 1 2 3 4 5 6 
#
# 1 0.010892 -0.003130 -0.002563 0.000000 0.000285 0.000000
# 2 -0.003130 0.010892 -0.002563 0.000000 -0.000285 0.000000
# 3 -0.002563 -0.002563 0.009704 0.000000 0.000000 0.000000
# 4 0.000000 0.000000 0.000000 0.038893 0.000000 -0.000570
# 5 0.000285 -0.000285 0.000000 0.000000 0.038893 0.000000
# 6 0.000000 0.000000 0.000000 -0.000570 0.000000 0.028046
#
#
# Mechanical properties :
#
#
# Convention : Reuss Voigt Hill
#
# Bulk Modulus (GPa) = 66.77894 66.87112 66.82503
# Shear Modulus (GPa) = 31.48116 32.58210 32.03163
#
# Velocity S-wave (km/s) = 3.55297 3.61457 3.58390
# Velocity P-wave (km/s) = 6.60373 6.65092 6.62737
#
# Compressibility (1/GPa) = 0.01497478
#
# Stress axis : x y z
#
# Youngs Moduli (GPa) = 91.80702 91.80702 103.05278
#
# Poissons Ratio (x) = 0.28739 0.26415
# Poissons Ratio (y) = 0.28739 0.26415
# Poissons Ratio (z) = 0.23532 0.23532
#
# Static dielectric constant tensor:
#      x y z
#    x 2.015800 0.000000 0.000000 
#    y 0.000000 2.015800 0.000000 
#    z 0.000000 0.000000 1.976290 
# 
# From -- ./inp_files/3810.got.cif
#   From: 2010.05.17/outbox.cif.g08.bks.cpg/sg151_2_cif.got.tgz:3810.got - 2010.05.20 10:33:20.
