data_PCOD9575899
_publ_section_title
;
Structure prediction by ZEFSAII (Michael W. Deem and Ramdas Pophale) SiO2 
 PCOD9575899
Probable space group: P 31 2 1
;
_chemical_formula_sum "Si O2"
_cell_formula_units_Z 36
_cell_length_a 11.903510
_cell_length_b 11.903510
_cell_length_c 13.855399
_cell_angle_alpha 90.000000
_cell_angle_beta 90.000000
_cell_angle_gamma 120.000000
_cell_volume 1700.198978
_symmetry_space_group_name_H-M "P 31 2 1"
_symmetry_group_IT_number 152
_symmetry_cell_setting 'hexagonal'
loop_
_space_group_symop_operation_xyz
x,y,z
-y,x-y,1/3+z
-x+y,-x,2/3+z
x-y,-y,2/3-z
-x,-x+y,1/3-z
y,x,-z
loop_
_atom_site_type_symbol
_atom_site_label
_atom_site_fract_x
_atom_site_fract_y
_atom_site_fract_z
Si Si1 0.727061 0.783967 0.862139
Si Si2 0.630326 0.291643 0.765632
Si Si3 0.167643 0.704553 0.061440
Si Si4 0.826300 0.000000 0.333334
Si Si5 0.715001 0.117413 0.663800
Si Si6 0.976381 0.976381 0.500000
Si Si7 0.804768 0.595696 0.797003
O O1 0.640989 0.803839 0.780872
O O2 0.685227 0.827245 0.958784
O O3 0.709662 0.643539 0.841834
O O4 0.880377 0.881726 0.855298
O O5 0.501397 0.270901 0.711803
O O6 0.635091 0.223919 0.866715
O O7 0.683305 0.229160 0.688057
O O8 0.725001 0.445347 0.772516
O O9 0.013108 0.623944 0.049289
O O10 0.877832 0.934729 0.411310
O O11 0.693299 0.888131 0.287505
O O12 0.713891 0.097319 0.550604
#
# Coordination Sequence:
#
# PCOD9575899 Si02
#       7
#     6   6   6   3   6   3   6
#     4  10  21  40  70 104 133 194 241 300 367 432
#     4  11  24  45  65 105 140 188 245 300 354 445
#     4  11  24  44  74 104 142 195 255 300 371 444
#     4  10  26  40  72 108 148 194 232 308 380 434
#     4  11  23  46  74 101 140 199 244 305 367 453
#     4  10  20  42  68 102 146 180 252 300 356 450
#     4  11  25  43  66 106 146 187 235 304 377 434
#
# _framework density 21.173992999999999
#
# number of rings (size 3 to 8) (size 9 to 14) (size 15 to 20)
#    0.000    1.333    3.333    2.000    7.000    1.333 
#    6.000    0.000    0.000    0.000    0.000    0.000 
#    0.000    0.000    0.000    0.000    0.000    0.000 
#
# Total GULP energy -200886.710743 kJ/mol
# GULP energy per Si atom -5580.186410 kJ/mol
# Density = 2.112580 g / cm^3
# Si number density = 21.173993 Si / 1000 Ang^3
#
#
#
# Elastic Constant Matrix: (Units=GPa)
#
#
# Indices 1 2 3 4 5 6 
#
# 1 107.1324 56.2294 53.5187 3.7487 0.0001 0.0000
# 2 56.2294 107.1324 53.5187 -3.7487 -0.0001 0.0000
# 3 53.5187 53.5187 111.5911 0.0000 0.0000 0.0000
# 4 3.7487 -3.7487 0.0000 31.8442 0.0000 -0.0001
# 5 0.0001 -0.0001 0.0000 0.0000 31.8442 3.7487
# 6 0.0000 0.0000 0.0000 -0.0001 3.7487 25.4515
#
#
#
# Elastic Compliance Matrix: (Units=1/GPa)
#
#
# Indices 1 2 3 4 5 6 
#
# 1 0.014459 -0.005533 -0.004281 -0.002353 0.000000 0.000000
# 2 -0.005533 0.014459 -0.004281 0.002353 0.000000 0.000000
# 3 -0.004281 -0.004281 0.013068 0.000000 0.000000 0.000000
# 4 -0.002353 0.002353 0.000000 0.031957 0.000000 0.000000
# 5 0.000000 0.000000 0.000000 0.000000 0.031957 -0.004707
# 6 0.000000 0.000000 0.000000 0.000000 -0.004707 0.039984
#
#
# Mechanical properties :
#
#
# Convention : Reuss Voigt Hill
#
# Bulk Modulus (GPa) = 72.48380 72.48774 72.48577
# Shear Modulus (GPa) = 27.98420 28.66723 28.32572
#
# Velocity S-wave (km/s) = 3.63937 3.68351 3.66151
# Velocity P-wave (km/s) = 7.20880 7.23876 7.22380
#
# Compressibility (1/GPa) = 0.01379619
#
# Stress axis : x y z
#
# Youngs Moduli (GPa) = 69.16041 69.16041 76.52475
#
# Poissons Ratio (x) = 0.38265 0.32761
# Poissons Ratio (y) = 0.38265 0.32761
# Poissons Ratio (z) = 0.29608 0.29608
#
# Static dielectric constant tensor:
#      x y z
#    x 1.781900 0.000000 0.000000 
#    y 0.000000 1.781900 0.000000 
#    z 0.000000 0.000000 1.862720 
# 
# From -- ./inp_files/2077.got.cif
#   From: 2010.05.17/outbox.cif.g08.bks.cpg/sg152_2_cif.got.tgz:2077.got - 2010.05.20 10:36:06.
