data_PCOD9575311
_publ_section_title
;
Structure prediction by ZEFSAII (Michael W. Deem and Ramdas Pophale) SiO2 
 PCOD9575311
Probable space group: R -3
;
_chemical_formula_sum "Si O2"
_cell_formula_units_Z 84
_cell_length_a 17.978835
_cell_length_b 17.978835
_cell_length_c 14.154826
_cell_angle_alpha 90.000000
_cell_angle_beta 90.000000
_cell_angle_gamma 120.000000
_cell_volume 3962.399501
_symmetry_space_group_name_H-M "R -3"
_symmetry_group_IT_number 148
_symmetry_cell_setting 'hexagonal'
loop_
_space_group_symop_operation_xyz
x,y,z
-y,x-y,z
-x+y,-x,z
-x,-y,-z
y,-x+y,-z
x-y,x,-z
2/3+x,1/3+y,1/3+z
2/3-y,1/3+x-y,1/3+z
2/3-x+y,1/3-x,1/3+z
2/3-x,1/3-y,1/3-z
2/3+y,1/3-x+y,1/3-z
2/3+x-y,1/3+x,1/3-z
1/3+x,2/3+y,2/3+z
1/3-y,2/3+x-y,2/3+z
1/3-x+y,2/3-x,2/3+z
1/3-x,2/3-y,2/3-z
1/3+y,2/3-x+y,2/3-z
1/3+x-y,2/3+x,2/3-z
loop_
_atom_site_type_symbol
_atom_site_label
_atom_site_fract_x
_atom_site_fract_y
_atom_site_fract_z
Si Si1 0.333334 0.666668 0.279155
Si Si2 0.810855 0.941752 0.692154
Si Si3 0.666668 0.333335 0.444926
Si Si4 0.580750 0.606550 0.687860
Si Si5 0.804095 0.892544 0.163233
Si Si6 0.696620 0.601605 0.132685
O O1 0.333335 0.666668 0.166667
O O2 0.235124 0.627857 0.315408
O O3 0.735494 0.929538 0.621755
O O4 0.767832 0.855728 0.754950
O O5 0.831458 0.022294 0.758531
O O6 0.666668 0.333335 0.333334
O O7 0.569865 0.298018 0.479369
O O8 0.492451 0.589979 0.734088
O O9 0.576625 0.613697 0.574938
O O10 0.656170 0.692416 0.734652
O O11 0.749886 0.935287 0.197962
#
# Coordination Sequence:
#
# PCOD9575311 Si02
#       6
#     6  18   6  18  18  18
#     4  12  28  53  82 106 143 205 258 310 359 446
#     4  12  25  51  74 105 150 190 254 308 361 449
#     4  12  22  38  73 105 130 179 238 292 359 439
#     4  12  28  46  72 114 154 198 237 319 383 444
#     4  12  24  45  74 104 148 191 243 302 369 434
#     4  12  26  47  75 109 153 195 251 305 380 448
#
# _framework density 21.199276000000001
#
# number of rings (size 3 to 8) (size 9 to 14) (size 15 to 20)
#    0.000    0.000    6.429    3.214    3.000    4.286 
#    0.000    0.000    0.000    0.000    0.000    0.000 
#    0.000    0.000    0.000    0.000    0.000    0.000 
#
# Total GULP energy -156705.850658 kJ/mol
# GULP energy per Si atom -5596.637523 kJ/mol
# Density = 2.115103 g / cm^3
# Si number density = 21.199276 Si / 1000 Ang^3
#
#
#
# Elastic Constant Matrix: (Units=GPa)
#
#
# Indices 1 2 3 4 5 6 
#
# 1 111.3881 42.5386 32.9653 -5.0103 -2.8283 0.0005
# 2 42.5386 111.3892 32.9655 5.0112 2.8289 0.0005
# 3 32.9653 32.9655 97.6417 0.0005 0.0002 0.0004
# 4 -5.0103 5.0112 0.0005 24.5490 0.0000 2.8286
# 5 -2.8283 2.8289 0.0002 0.0000 24.5487 -5.0106
# 6 0.0005 0.0005 0.0004 2.8286 -5.0106 34.4246
#
#
#
# Elastic Compliance Matrix: (Units=1/GPa)
#
#
# Indices 1 2 3 4 5 6 
#
# 1 0.011356 -0.003761 -0.002564 0.003085 0.001742 0.000000
# 2 -0.003761 0.011356 -0.002564 -0.003086 -0.001742 0.000000
# 3 -0.002564 -0.002564 0.011973 0.000000 0.000000 0.000000
# 4 0.003085 -0.003086 0.000000 0.042396 0.000000 -0.003484
# 5 0.001742 -0.001742 0.000000 0.000000 0.042396 0.006171
# 6 0.000000 0.000000 0.000000 -0.003484 0.006171 0.030233
#
#
# Mechanical properties :
#
#
# Convention : Reuss Voigt Hill
#
# Bulk Modulus (GPa) = 59.15040 59.70642 59.42841
# Shear Modulus (GPa) = 28.88112 30.83443 29.85778
#
# Velocity S-wave (km/s) = 3.69503 3.81793 3.75698
# Velocity P-wave (km/s) = 6.79463 6.90369 6.84938
#
# Compressibility (1/GPa) = 0.01690606
#
# Stress axis : x y z
#
# Youngs Moduli (GPa) = 88.06118 88.06174 83.52175
#
# Poissons Ratio (x) = 0.33119 0.21416
# Poissons Ratio (y) = 0.33118 0.21416
# Poissons Ratio (z) = 0.22580 0.22580
#
# Static dielectric constant tensor:
#      x y z
#    x 1.783450 0.000000 0.000000 
#    y 0.000000 1.783440 0.000000 
#    z 0.000000 0.000000 1.740910 
# 
# From -- ./inp_files/1976.got.cif
#   From: 2010.05.17/outbox.cif.g08.bks.cpg/sg148_1_cif.got.tgz:1976.got - 2010.05.20 13:50:20.
