data_PCOD9575975
_publ_section_title
;
Structure prediction by ZEFSAII (Michael W. Deem and Ramdas Pophale) SiO2 
 PCOD9575975
Probable space group: P 31 2 1
;
_chemical_formula_sum "Si O2"
_cell_formula_units_Z 42
_cell_length_a 8.210644
_cell_length_b 8.210644
_cell_length_c 28.580884
_cell_angle_alpha 90.000000
_cell_angle_beta 90.000000
_cell_angle_gamma 120.000000
_cell_volume 1668.632636
_symmetry_space_group_name_H-M "P 31 2 1"
_symmetry_group_IT_number 152
_symmetry_cell_setting 'hexagonal'
loop_
_space_group_symop_operation_xyz
x,y,z
-y,x-y,1/3+z
-x+y,-x,2/3+z
x-y,-y,2/3-z
-x,-x+y,1/3-z
y,x,-z
loop_
_atom_site_type_symbol
_atom_site_label
_atom_site_fract_x
_atom_site_fract_y
_atom_site_fract_z
Si Si1 0.219013 0.463384 0.098387
Si Si2 0.619176 0.116563 0.976400
Si Si3 0.090761 0.085765 0.055684
Si Si4 0.383539 0.997574 0.601903
Si Si5 0.805893 0.833358 0.871461
Si Si6 0.543107 0.407836 0.440786
Si Si7 0.616469 0.032762 0.145609
O O1 0.266250 0.570576 0.048960
O O2 0.077261 0.251782 0.081450
O O3 0.369269 0.469521 0.134238
O O4 0.081408 0.525700 0.123332
O O5 0.835458 0.212550 0.963496
O O6 0.501169 0.920303 0.947996
O O7 0.559379 0.080677 0.029585
O O8 0.300922 0.137162 0.071277
O O9 0.087243 0.087243 0.000000
O O10 0.927353 0.898927 0.078875
O O11 0.483696 0.055266 0.552070
O O12 0.590032 0.784299 0.875905
O O13 0.889839 0.697165 0.859040
O O14 0.898930 0.000000 0.833334
O O15 0.760619 0.496193 0.454058
#
# Coordination Sequence:
#
# PCOD9575975 Si02
#       7
#     6   6   6   6   6   6   6
#     4  10  21  43  71  94 144 182 234 292 375 425
#     4  10  23  43  65  93 138 181 227 292 360 427
#     4  12  22  42  69  99 131 189 237 287 363 449
#     4  12  26  43  67 101 135 181 240 296 365 439
#     4  12  22  40  73 104 135 184 245 288 358 444
#     4  10  21  41  69  99 136 181 234 288 355 437
#     4  12  24  42  69 105 143 186 229 305 366 434
#
# _framework density 25.170309
#
# number of rings (size 3 to 8) (size 9 to 14) (size 15 to 20)
#    0.857    0.000    5.714    2.143    2.000    1.143 
#    2.571    0.000    0.000    0.000    0.000    0.000 
#    0.000    0.000    0.000    0.000    0.000    0.000 
#
# Total GULP energy -234341.807154 kJ/mol
# GULP energy per Si atom -5579.566837 kJ/mol
# Density = 2.511302 g / cm^3
# Si number density = 25.170309 Si / 1000 Ang^3
#
#
#
# Elastic Constant Matrix: (Units=GPa)
#
#
# Indices 1 2 3 4 5 6 
#
# 1 99.8800 31.5604 24.4743 -0.8657 -0.0001 0.0000
# 2 31.5604 99.8800 24.4743 0.8657 0.0001 0.0000
# 3 24.4743 24.4743 127.1374 0.0000 0.0000 0.0000
# 4 -0.8657 0.8657 0.0000 35.7802 0.0000 0.0001
# 5 -0.0001 0.0001 0.0000 0.0000 35.7802 -0.8657
# 6 0.0000 0.0000 0.0000 0.0001 -0.8657 34.1598
#
#
#
# Elastic Compliance Matrix: (Units=1/GPa)
#
#
# Indices 1 2 3 4 5 6 
#
# 1 0.011421 -0.003225 -0.001578 0.000354 0.000000 0.000000
# 2 -0.003225 0.011421 -0.001578 -0.000354 0.000000 0.000000
# 3 -0.001578 -0.001578 0.008473 0.000000 0.000000 0.000000
# 4 0.000354 -0.000354 0.000000 0.027966 0.000000 0.000000
# 5 0.000000 0.000000 0.000000 0.000000 0.027966 0.000709
# 6 0.000000 0.000000 0.000000 0.000000 0.000709 0.029292
#
#
# Mechanical properties :
#
#
# Convention : Reuss Voigt Hill
#
# Bulk Modulus (GPa) = 53.89867 54.21281 54.05574
# Shear Modulus (GPa) = 36.90490 37.56995 37.23742
#
# Velocity S-wave (km/s) = 3.83326 3.86765 3.85049
# Velocity P-wave (km/s) = 6.40718 6.44438 6.42581
#
# Compressibility (1/GPa) = 0.01855334
#
# Stress axis : x y z
#
# Youngs Moduli (GPa) = 87.55958 87.55958 118.02316
#
# Poissons Ratio (x) = 0.28240 0.18620
# Poissons Ratio (y) = 0.28240 0.18620
# Poissons Ratio (z) = 0.13814 0.13814
#
# Static dielectric constant tensor:
#      x y z
#    x 2.135940 0.000000 0.000000 
#    y 0.000000 2.135940 0.000000 
#    z 0.000000 0.000000 2.026370 
# 
# From -- ./inp_files/3728.got.cif
#   From: 2010.05.17/outbox.cif.g08.bks.cpg/sg152_2_cif.got.tgz:3728.got - 2010.05.20 10:36:06.
