data_PCOD9575777
_publ_section_title
;
Structure prediction by ZEFSAII (Michael W. Deem and Ramdas Pophale) SiO2 
 PCOD9575777
Probable space group: P 31 2 1
;
_chemical_formula_sum "Si O2"
_cell_formula_units_Z 30
_cell_length_a 9.687226
_cell_length_b 9.687226
_cell_length_c 19.255983
_cell_angle_alpha 90.000000
_cell_angle_beta 90.000000
_cell_angle_gamma 120.000000
_cell_volume 1564.930984
_symmetry_space_group_name_H-M "P 31 2 1"
_symmetry_group_IT_number 152
_symmetry_cell_setting 'hexagonal'
loop_
_space_group_symop_operation_xyz
x,y,z
-y,x-y,1/3+z
-x+y,-x,2/3+z
x-y,-y,2/3-z
-x,-x+y,1/3-z
y,x,-z
loop_
_atom_site_type_symbol
_atom_site_label
_atom_site_fract_x
_atom_site_fract_y
_atom_site_fract_z
Si Si1 0.661726 0.053834 0.077633
Si Si2 0.974103 0.146273 0.002348
Si Si3 0.731132 0.615078 0.777558
Si Si4 0.873007 0.307597 0.604755
Si Si5 0.714234 0.081110 0.237667
O O1 0.813457 0.132234 0.028837
O O2 0.528018 0.103973 0.075892
O O3 0.737284 0.104534 0.155172
O O4 0.580500 0.865530 0.059771
O O5 0.124425 0.261866 0.052309
O O6 0.001896 0.219958 0.926433
O O7 0.985396 0.985396 0.000000
O O8 0.695801 0.624219 0.858524
O O9 0.887848 0.601037 0.762535
O O10 0.842500 0.456817 0.601938
O O11 0.000000 0.344868 0.666667
#
# Coordination Sequence:
#
# PCOD9575777 Si02
#       5
#     6   6   6   6   6
#     4  10  20  34  54  81 106 133 175 224 259 295
#     4  10  19  34  54  78 107 140 173 213 260 311
#     4   9  20  34  52  79 108 137 173 214 259 312
#     4  10  19  34  55  78 104 140 177 212 258 313
#     4   9  19  36  57  76 103 142 178 207 256 321
#
# _framework density 19.170173999999999
#
# number of rings (size 3 to 8) (size 9 to 14) (size 15 to 20)
#    0.000    2.400    0.000    3.000    0.000    3.200 
#    0.000    3.000    0.000    2.400    0.000   14.000 
#    0.000    0.000    0.000    0.000    0.000    0.000 
#
# Total GULP energy -167016.155346 kJ/mol
# GULP energy per Si atom -5567.205178 kJ/mol
# Density = 1.912654 g / cm^3
# Si number density = 19.170174 Si / 1000 Ang^3
#
#
#
# Elastic Constant Matrix: (Units=GPa)
#
#
# Indices 1 2 3 4 5 6 
#
# 1 49.1599 37.5565 14.7125 -3.9931 -0.0001 0.0000
# 2 37.5565 49.1599 14.7125 3.9931 0.0001 0.0000
# 3 14.7125 14.7125 52.3944 0.0000 0.0000 0.0000
# 4 -3.9931 3.9931 0.0000 24.8841 0.0000 0.0001
# 5 -0.0001 0.0001 0.0000 0.0000 24.8841 -3.9931
# 6 0.0000 0.0000 0.0000 0.0001 -3.9931 5.8017
#
#
#
# Elastic Compliance Matrix: (Units=1/GPa)
#
#
# Indices 1 2 3 4 5 6 
#
# 1 0.054814 -0.042068 -0.003579 0.015546 0.000000 0.000000
# 2 -0.042068 0.054814 -0.003579 -0.015546 0.000000 0.000000
# 3 -0.003579 -0.003579 0.021096 0.000000 0.000000 0.000000
# 4 0.015546 -0.015546 0.000000 0.045176 0.000000 0.000000
# 5 0.000000 0.000000 0.000000 0.000000 0.045176 0.031092
# 6 0.000000 0.000000 0.000000 0.000000 0.031092 0.193763
#
#
# Mechanical properties :
#
#
# Convention : Reuss Voigt Hill
#
# Bulk Modulus (GPa) = 30.98662 31.63079 31.30871
# Shear Modulus (GPa) = 9.54113 16.69618 13.11865
#
# Velocity S-wave (km/s) = 2.23335 2.95438 2.61880
# Velocity P-wave (km/s) = 4.78012 5.30788 5.05090
#
# Compressibility (1/GPa) = 0.03227199
#
# Stress axis : x y z
#
# Youngs Moduli (GPa) = 18.24355 18.24355 47.40214
#
# Poissons Ratio (x) = 0.76746 0.16966
# Poissons Ratio (y) = 0.76746 0.16966
# Poissons Ratio (z) = 0.06530 0.06530
#
# Static dielectric constant tensor:
#      x y z
#    x 1.679640 0.000000 0.000000 
#    y 0.000000 1.679640 0.000000 
#    z 0.000000 0.000000 1.703390 
# 
# From -- ./inp_files/2976.got.cif
#   From: 2010.05.17/outbox.cif.g08.bks.cpg/sg152_2_cif.got.tgz:2976.got - 2010.05.20 10:36:06.
