data_PCOD9575803
_publ_section_title
;
Structure prediction by ZEFSAII (Michael W. Deem and Ramdas Pophale) SiO2 
 PCOD9575803
Probable space group: P 31 2 1
;
_chemical_formula_sum "Si O2"
_cell_formula_units_Z 36
_cell_length_a 8.930809
_cell_length_b 8.930809
_cell_length_c 26.270856
_cell_angle_alpha 90.000000
_cell_angle_beta 90.000000
_cell_angle_gamma 120.000000
_cell_volume 1814.623197
_symmetry_space_group_name_H-M "P 31 2 1"
_symmetry_group_IT_number 152
_symmetry_cell_setting 'hexagonal'
loop_
_space_group_symop_operation_xyz
x,y,z
-y,x-y,1/3+z
-x+y,-x,2/3+z
x-y,-y,2/3-z
-x,-x+y,1/3-z
y,x,-z
loop_
_atom_site_type_symbol
_atom_site_label
_atom_site_fract_x
_atom_site_fract_y
_atom_site_fract_z
Si Si1 0.638409 0.737485 0.386781
Si Si2 0.854030 0.585213 0.431302
Si Si3 0.030547 0.676465 0.536966
Si Si4 0.092391 0.698883 0.086904
Si Si5 0.752512 0.250572 0.800509
Si Si6 0.371581 0.058920 0.058149
O O1 0.795941 0.703914 0.401005
O O2 0.637379 0.873629 0.425839
O O3 0.465933 0.555412 0.396172
O O4 0.631968 0.779990 0.327801
O O5 0.975463 0.684004 0.479314
O O6 0.676442 0.424100 0.453997
O O7 0.935658 0.489554 0.398982
O O8 0.089574 0.532727 0.538944
O O9 0.193203 0.847747 0.559749
O O10 0.185533 0.734896 0.141903
O O11 0.895158 0.647431 0.097912
O O12 0.211198 0.867291 0.054953
#
# Coordination Sequence:
#
# PCOD9575803 Si02
#       6
#     6   6   6   6   6   6
#     4  11  22  39  63  87 125 163 201 252 309 371
#     4  10  20  39  61  89 114 163 210 240 296 375
#     4  11  21  38  61  87 124 159 205 251 299 371
#     4  10  19  38  62  86 120 156 202 254 300 359
#     4   9  19  36  61  87 114 154 209 249 288 360
#     4  11  23  38  60  94 126 155 199 259 319 359
#
# _framework density 19.838830000000002
#
# number of rings (size 3 to 8) (size 9 to 14) (size 15 to 20)
#    0.000    1.667    3.333    2.000    0.000    0.000 
#    6.000    0.000    0.000    6.000    0.000    0.000 
#    0.000    0.000    0.000    0.000    0.000    0.000 
#
# Total GULP energy -200932.746733 kJ/mol
# GULP energy per Si atom -5581.465187 kJ/mol
# Density = 1.979368 g / cm^3
# Si number density = 19.838830 Si / 1000 Ang^3
#
#
#
# Elastic Constant Matrix: (Units=GPa)
#
#
# Indices 1 2 3 4 5 6 
#
# 1 76.6374 23.9247 29.3269 -0.5339 0.0000 0.0000
# 2 23.9247 76.6374 29.3269 0.5339 0.0000 0.0000
# 3 29.3269 29.3269 58.0856 0.0000 0.0000 0.0000
# 4 -0.5339 0.5339 0.0000 17.0772 0.0000 0.0000
# 5 0.0000 0.0000 0.0000 0.0000 17.0772 -0.5339
# 6 0.0000 0.0000 0.0000 0.0000 -0.5339 26.3563
#
#
#
# Elastic Compliance Matrix: (Units=1/GPa)
#
#
# Indices 1 2 3 4 5 6 
#
# 1 0.016539 -0.002444 -0.007116 0.000593 0.000000 0.000000
# 2 -0.002444 0.016539 -0.007116 -0.000593 0.000000 0.000000
# 3 -0.007116 -0.007116 0.024402 0.000000 0.000000 0.000000
# 4 0.000593 -0.000593 0.000000 0.058595 0.000000 0.000000
# 5 0.000000 0.000000 0.000000 0.000000 0.058595 0.001187
# 6 0.000000 0.000000 0.000000 0.000000 0.001187 0.037966
#
#
# Mechanical properties :
#
#
# Convention : Reuss Voigt Hill
#
# Bulk Modulus (GPa) = 41.44882 41.83528 41.64205
# Shear Modulus (GPa) = 19.68269 20.68758 20.18513
#
# Velocity S-wave (km/s) = 3.15323 3.23272 3.19322
# Velocity P-wave (km/s) = 5.84767 5.92176 5.88483
#
# Compressibility (1/GPa) = 0.02412614
#
# Stress axis : x y z
#
# Youngs Moduli (GPa) = 60.46392 60.46392 40.98037
#
# Poissons Ratio (x) = 0.14777 0.29163
# Poissons Ratio (y) = 0.14777 0.29163
# Poissons Ratio (z) = 0.43028 0.43028
#
# Static dielectric constant tensor:
#      x y z
#    x 1.701860 0.000000 0.000000 
#    y 0.000000 1.701860 0.000000 
#    z 0.000000 0.000000 1.705370 
# 
# From -- ./inp_files/3384.got.cif
#   From: 2010.05.17/outbox.cif.g08.bks.cpg/sg152_2_cif.got.tgz:3384.got - 2010.05.20 10:36:06.
