data_PCOD9575630
_publ_section_title
;
Structure prediction by ZEFSAII (Michael W. Deem and Ramdas Pophale) SiO2 
 PCOD9575630
Probable space group: P 31 1 2
;
_chemical_formula_sum "Si O2"
_cell_formula_units_Z 42
_cell_length_a 13.906594
_cell_length_b 13.906594
_cell_length_c 12.438752
_cell_angle_alpha 90.000000
_cell_angle_beta 90.000000
_cell_angle_gamma 120.000000
_cell_volume 2083.286465
_symmetry_space_group_name_H-M "P 31 1 2"
_symmetry_group_IT_number 151
_symmetry_cell_setting 'hexagonal'
loop_
_space_group_symop_operation_xyz
x,y,z
-y,x-y,1/3+z
-x+y,-x,2/3+z
-y,-x,2/3-z
-x+y,y,1/3-z
x,x-y,-z
loop_
_atom_site_type_symbol
_atom_site_label
_atom_site_fract_x
_atom_site_fract_y
_atom_site_fract_z
Si Si1 0.682555 0.489411 0.273540
Si Si2 0.904475 0.260591 0.617420
Si Si3 0.173056 0.526372 0.107330
Si Si4 0.138121 0.061952 0.627125
Si Si5 0.147069 0.860407 0.715828
Si Si6 0.499809 0.030711 0.435668
Si Si7 0.930275 0.291498 0.364502
O O1 0.627668 0.372333 0.333334
O O2 0.745845 0.491689 0.166667
O O3 0.772474 0.580435 0.352727
O O4 0.581343 0.496027 0.219003
O O5 0.946000 0.174665 0.646864
O O6 0.957453 0.368259 0.695457
O O7 0.924938 0.298652 0.493797
O O8 0.290121 0.580242 0.166667
O O9 0.143462 0.402617 0.070420
O O10 0.089852 0.525539 0.196367
O O11 0.173977 0.586989 0.000000
O O12 0.147226 0.073613 0.500000
O O13 0.016141 0.032282 0.666667
O O14 0.164495 0.963887 0.648024
O O15 0.115744 0.884257 0.833334
O O16 0.047497 0.745561 0.669783
O O17 0.614757 0.082605 0.367941
O O18 0.829359 0.170642 0.333334
#
# Coordination Sequence:
#
# PCOD9575630 Si02
#       7
#     6   6   6   6   6   6   6
#     4  10  22  37  60  93 131 177 226 275 334 401
#     4  11  26  42  63 103 143 185 230 287 356 422
#     4  11  25  47  74 101 130 182 240 294 356 422
#     4  12  25  43  67 102 142 181 227 281 357 431
#     4  11  23  45  72 102 134 175 236 288 345 429
#     4  11  23  44  67  99 137 185 235 289 343 418
#     4  12  23  42  72 102 141 184 230 290 358 418
#
# _framework density 20.160454000000001
#
# number of rings (size 3 to 8) (size 9 to 14) (size 15 to 20)
#    0.000    0.857    2.857    5.571    6.000    4.571 
#    2.571    0.000    0.000    0.000    0.000    0.000 
#    0.000    0.000    0.000    0.000    0.000    0.000 
#
# Total GULP energy -234477.524308 kJ/mol
# GULP energy per Si atom -5582.798198 kJ/mol
# Density = 2.011457 g / cm^3
# Si number density = 20.160454 Si / 1000 Ang^3
#
#
#
# Elastic Constant Matrix: (Units=GPa)
#
#
# Indices 1 2 3 4 5 6 
#
# 1 72.8381 38.7468 24.5705 0.0002 12.8390 0.0000
# 2 38.7468 72.8381 24.5705 -0.0002 -12.8390 0.0000
# 3 24.5705 24.5705 140.1965 0.0000 0.0000 0.0000
# 4 0.0002 -0.0002 0.0000 -9.1073 0.0000 -12.8390
# 5 12.8390 -12.8390 0.0000 0.0000 -9.1073 0.0002
# 6 0.0000 0.0000 0.0000 -12.8390 0.0002 17.0456
#
#
#
# Elastic Compliance Matrix: (Units=1/GPa)
#
#
# Indices 1 2 3 4 5 6 
#
# 1 0.011969 -0.002258 -0.001702 0.000000 0.020056 0.000000
# 2 -0.002258 0.011969 -0.001702 0.000000 -0.020056 0.000000
# 3 -0.001702 -0.001702 0.007729 0.000000 0.000000 0.000000
# 4 0.000000 0.000000 0.000000 -0.053254 0.000000 -0.040112
# 5 0.020056 -0.020056 0.000000 0.000000 -0.053254 0.000001
# 6 0.000000 0.000000 0.000000 -0.040112 0.000001 0.028453
#
#
# Mechanical properties :
#
#
# Convention : Reuss Voigt Hill
#
# Bulk Modulus (GPa) = 49.15419 51.29423 50.22421
# Shear Modulus (GPa) = -176.78422 12.96519 -81.90952
#
# Velocity S-wave (km/s) = -9.37438 2.53869 -6.38099
# Velocity P-wave (km/s) = 9.63003 5.83879 5.41507
#
# Compressibility (1/GPa) = 0.02034414
#
# Stress axis : x y z
#
# Youngs Moduli (GPa) = 83.54945 83.54945 129.37591
#
# Poissons Ratio (x) = 0.18862 0.22020
# Poissons Ratio (y) = 0.18862 0.22020
# Poissons Ratio (z) = 0.14220 0.14220
#
# Static dielectric constant tensor:
#      x y z
#    x 1.787440 0.000000 0.000000 
#    y 0.000000 1.787440 0.000000 
#    z 0.000000 0.000000 1.644700 
# 
# From -- ./inp_files/2592.got.cif
#   From: 2010.05.17/outbox.cif.g08.bks.cpg/sg151_2_cif.got.tgz:2592.got - 2010.05.20 10:33:20.
