data_PCOD9575091
_publ_section_title
;
Structure prediction by ZEFSAII (Michael W. Deem and Ramdas Pophale) SiO2 
 PCOD9575091
Probable space group: R -3
;
_chemical_formula_sum "Si O2"
_cell_formula_units_Z 126
_cell_length_a 20.469559
_cell_length_b 20.469559
_cell_length_c 17.281146
_cell_angle_alpha 90.000000
_cell_angle_beta 90.000000
_cell_angle_gamma 120.000000
_cell_volume 6270.759482
_symmetry_space_group_name_H-M "R -3"
_symmetry_group_IT_number 148
_symmetry_cell_setting 'hexagonal'
loop_
_space_group_symop_operation_xyz
x,y,z
-y,x-y,z
-x+y,-x,z
-x,-y,-z
y,-x+y,-z
x-y,x,-z
2/3+x,1/3+y,1/3+z
2/3-y,1/3+x-y,1/3+z
2/3-x+y,1/3-x,1/3+z
2/3-x,1/3-y,1/3-z
2/3+y,1/3-x+y,1/3-z
2/3+x-y,1/3+x,1/3-z
1/3+x,2/3+y,2/3+z
1/3-y,2/3+x-y,2/3+z
1/3-x+y,2/3-x,2/3+z
1/3-x,2/3-y,2/3-z
1/3+y,2/3-x+y,2/3-z
1/3+x-y,2/3+x,2/3-z
loop_
_atom_site_type_symbol
_atom_site_label
_atom_site_fract_x
_atom_site_fract_y
_atom_site_fract_z
Si Si1 0.227540 0.944794 0.498462
Si Si2 0.041854 0.734634 0.368556
Si Si3 0.705457 0.145843 0.559890
Si Si4 0.332905 0.258559 0.948821
Si Si5 0.768903 0.213577 0.040089
Si Si6 0.153542 0.709313 0.474760
Si Si7 0.083938 0.166309 0.534910
O O1 0.279092 0.906195 0.498538
O O2 0.138366 0.888561 0.497490
O O3 0.238787 0.986813 0.578613
O O4 0.262037 0.010645 0.434424
O O5 0.074142 0.797168 0.303183
O O6 0.988935 0.650847 0.333855
O O7 0.106160 0.732076 0.417208
O O8 0.619770 0.117144 0.584053
O O9 0.757686 0.231259 0.533416
O O10 0.262300 0.210312 0.892154
O O11 0.364693 0.215958 0.002700
O O12 0.704167 0.172540 0.105583
O O13 0.743662 0.239944 0.961682
O O14 0.122359 0.124355 0.494400
#
# Coordination Sequence:
#
# PCOD9575091 Si02
#       7
#    18  18  18  18  18  18  18
#     4  10  20  37  61  91 119 159 212 258 306 361
#     4   9  19  35  61  91 116 153 206 262 309 361
#     4  11  22  34  61  87 120 165 204 257 307 362
#     4   9  19  40  60  84 119 158 202 260 313 365
#     4  11  23  38  57  90 123 156 213 260 299 375
#     4  10  22  38  59  84 124 166 206 242 312 377
#     4  12  25  38  57  86 131 175 205 245 299 374
#
# _framework density 20.093259
#
# number of rings (size 3 to 8) (size 9 to 14) (size 15 to 20)
#    0.000    1.714    2.857    1.429    4.000    0.000 
#    0.857   11.429    0.000    0.000    0.000    0.000 
#    0.000    1.143    0.000    0.000    0.000    0.000 
#
# Total GULP energy -233918.097930 kJ/mol
# GULP energy per Si atom -5569.478522 kJ/mol
# Density = 2.004753 g / cm^3
# Si number density = 20.093259 Si / 1000 Ang^3
#
#
#
# Elastic Constant Matrix: (Units=GPa)
#
#
# Indices 1 2 3 4 5 6 
#
# 1 101.4831 51.5926 33.2360 1.8819 -2.3357 0.0000
# 2 51.5926 101.4831 33.2360 -1.8819 2.3357 0.0000
# 3 33.2360 33.2360 68.1461 0.0000 0.0000 0.0000
# 4 1.8819 -1.8819 0.0000 18.5616 0.0000 2.3357
# 5 -2.3357 2.3357 0.0000 0.0000 18.5616 1.8819
# 6 0.0000 0.0000 0.0000 2.3357 1.8819 24.9452
#
#
#
# Elastic Compliance Matrix: (Units=1/GPa)
#
#
# Indices 1 2 3 4 5 6 
#
# 1 0.014365 -0.006077 -0.004042 -0.002072 0.002572 0.000000
# 2 -0.006077 0.014365 -0.004042 0.002072 -0.002572 0.000000
# 3 -0.004042 -0.004042 0.018617 0.000000 0.000000 0.000000
# 4 -0.002072 0.002072 0.000000 0.054942 0.000000 -0.005144
# 5 0.002572 -0.002572 0.000000 0.000000 0.054942 -0.004145
# 6 0.000000 0.000000 0.000000 -0.005144 -0.004145 0.040882
#
#
# Mechanical properties :
#
#
# Convention : Reuss Voigt Hill
#
# Bulk Modulus (GPa) = 52.56389 56.36017 54.46203
# Shear Modulus (GPa) = 21.47983 22.61686 22.04834
#
# Velocity S-wave (km/s) = 3.27311 3.35863 3.31615
# Velocity P-wave (km/s) = 6.36405 6.56892 6.46730
#
# Compressibility (1/GPa) = 0.01902447
#
# Stress axis : x y z
#
# Youngs Moduli (GPa) = 69.61572 69.61572 53.71357
#
# Poissons Ratio (x) = 0.42302 0.21712
# Poissons Ratio (y) = 0.42302 0.21712
# Poissons Ratio (z) = 0.28140 0.28140
#
# Static dielectric constant tensor:
#      x y z
#    x 1.771300 0.000000 0.000000 
#    y 0.000000 1.771300 0.000000 
#    z 0.000000 0.000000 1.755720 
# 
# From -- ./inp_files/2740.got.cif
#   From: 2010.05.17/outbox.cif.g08.bks.cpg/sg148_2_cif.got.tgz:2740.got - 2010.05.20 13:50:20.
