data_PCOD9575323
_publ_section_title
;
Structure prediction by ZEFSAII (Michael W. Deem and Ramdas Pophale) SiO2 
 PCOD9575323
Probable space group: R -3
;
_chemical_formula_sum "Si O2"
_cell_formula_units_Z 42
_cell_length_a 14.062753
_cell_length_b 14.062753
_cell_length_c 10.032773
_cell_angle_alpha 90.000000
_cell_angle_beta 90.000000
_cell_angle_gamma 120.000000
_cell_volume 1718.273592
_symmetry_space_group_name_H-M "R -3"
_symmetry_group_IT_number 148
_symmetry_cell_setting 'hexagonal'
loop_
_space_group_symop_operation_xyz
x,y,z
-y,x-y,z
-x+y,-x,z
-x,-y,-z
y,-x+y,-z
x-y,x,-z
2/3+x,1/3+y,1/3+z
2/3-y,1/3+x-y,1/3+z
2/3-x+y,1/3-x,1/3+z
2/3-x,1/3-y,1/3-z
2/3+y,1/3-x+y,1/3-z
2/3+x-y,1/3+x,1/3-z
1/3+x,2/3+y,2/3+z
1/3-y,2/3+x-y,2/3+z
1/3-x+y,2/3-x,2/3+z
1/3-x,2/3-y,2/3-z
1/3+y,2/3-x+y,2/3-z
1/3+x-y,2/3+x,2/3-z
loop_
_atom_site_type_symbol
_atom_site_label
_atom_site_fract_x
_atom_site_fract_y
_atom_site_fract_z
Si Si1 0.906060 0.617767 0.730940
Si Si2 0.333335 0.666668 0.504916
Si Si3 0.513580 0.111244 0.641148
O O1 0.833334 0.666667 0.666667
O O2 0.916955 0.527400 0.646814
O O3 0.024406 0.725835 0.750643
O O4 0.849503 0.559011 0.869080
O O5 0.333335 0.666668 0.666667
O O6 0.434753 0.775325 0.440764
#
# Coordination Sequence:
#
# PCOD9575323 Si02
#       3
#    18   6  18
#     4  12  25  49  86 124 162 230 277 363 430 508
#     4  12  27  55  89 121 162 228 298 365 418 507
#     4  12  26  53  78 121 172 217 290 344 438 497
#
# _framework density 24.443138000000001
#
# number of rings (size 3 to 8) (size 9 to 14) (size 15 to 20)
#    0.000    0.000    8.571    0.000    0.000    3.429 
#   15.429    0.000    0.000    0.857    0.000    0.000 
#    0.000    0.000    0.000    0.000    0.000    0.000 
#
# Total GULP energy -78159.927024 kJ/mol
# GULP energy per Si atom -5582.851930 kJ/mol
# Density = 2.438750 g / cm^3
# Si number density = 24.443138 Si / 1000 Ang^3
#
#
#
# Elastic Constant Matrix: (Units=GPa)
#
#
# Indices 1 2 3 4 5 6 
#
# 1 153.5631 97.9737 58.8584 -4.7881 20.9024 0.0004
# 2 97.9737 153.5650 58.8582 4.7875 -20.9031 0.0008
# 3 58.8584 58.8582 186.0068 -0.0001 -0.0004 0.0007
# 4 -4.7881 4.7875 -0.0001 44.5366 0.0001 -20.9030
# 5 20.9024 -20.9031 -0.0004 0.0001 44.5365 -4.7878
# 6 0.0004 0.0008 0.0007 -20.9030 -4.7878 27.7951
#
#
#
# Elastic Compliance Matrix: (Units=1/GPa)
#
#
# Indices 1 2 3 4 5 6 
#
# 1 0.016644 -0.011977 -0.001477 0.003077 -0.013433 0.000000
# 2 -0.011977 0.016643 -0.001477 -0.003077 0.013433 0.000000
# 3 -0.001477 -0.001477 0.006311 0.000000 0.000000 0.000000
# 4 0.003077 -0.003077 0.000000 0.035725 0.000000 0.026866
# 5 -0.013433 0.013433 0.000000 0.000000 0.035724 0.006153
# 6 0.000000 0.000000 0.000000 0.026866 0.006153 0.057242
#
#
# Mechanical properties :
#
#
# Convention : Reuss Voigt Hill
#
# Bulk Modulus (GPa) = 102.69844 102.72393 102.71118
# Shear Modulus (GPa) = 24.82684 41.86992 33.34838
#
# Velocity S-wave (km/s) = 3.19046 4.14327 3.69768
# Velocity P-wave (km/s) = 7.46180 8.06262 7.76802
#
# Compressibility (1/GPa) = 0.00973725
#
# Stress axis : x y z
#
# Youngs Moduli (GPa) = 60.08269 60.08355 158.46179
#
# Poissons Ratio (x) = 0.71962 0.23401
# Poissons Ratio (y) = 0.71961 0.23398
# Poissons Ratio (z) = 0.08873 0.08872
#
# Static dielectric constant tensor:
#      x y z
#    x 1.997900 0.000000 0.000000 
#    y 0.000000 1.997900 0.000000 
#    z 0.000000 0.000000 1.972030 
# 
# From -- ./inp_files/1198.got.cif
#   From: 2010.05.17/outbox.cif.g08.bks.cpg/sg148_1_cif.got.tgz:1198.got - 2010.05.20 13:50:20.
