data_PCOD9575057
_publ_section_title
;
Structure prediction by ZEFSAII (Michael W. Deem and Ramdas Pophale) SiO2 
 PCOD9575057
Probable space group: R -3
;
_chemical_formula_sum "Si O2"
_cell_formula_units_Z 144
_cell_length_a 20.803285
_cell_length_b 20.803285
_cell_length_c 19.757985
_cell_angle_alpha 90.000000
_cell_angle_beta 90.000000
_cell_angle_gamma 120.000000
_cell_volume 7405.205598
_symmetry_space_group_name_H-M "R -3"
_symmetry_group_IT_number 148
_symmetry_cell_setting 'hexagonal'
loop_
_space_group_symop_operation_xyz
x,y,z
-y,x-y,z
-x+y,-x,z
-x,-y,-z
y,-x+y,-z
x-y,x,-z
2/3+x,1/3+y,1/3+z
2/3-y,1/3+x-y,1/3+z
2/3-x+y,1/3-x,1/3+z
2/3-x,1/3-y,1/3-z
2/3+y,1/3-x+y,1/3-z
2/3+x-y,1/3+x,1/3-z
1/3+x,2/3+y,2/3+z
1/3-y,2/3+x-y,2/3+z
1/3-x+y,2/3-x,2/3+z
1/3-x,2/3-y,2/3-z
1/3+y,2/3-x+y,2/3-z
1/3+x-y,2/3+x,2/3-z
loop_
_atom_site_type_symbol
_atom_site_label
_atom_site_fract_x
_atom_site_fract_y
_atom_site_fract_z
Si Si1 0.002641 0.339806 0.945790
Si Si2 0.841573 0.649261 0.745274
Si Si3 0.924353 0.092568 0.980786
Si Si4 0.160306 0.592598 0.169226
Si Si5 0.089558 0.497458 0.811126
Si Si6 0.945510 0.407244 0.715439
Si Si7 0.211804 0.328259 0.976540
Si Si8 0.586355 0.562459 0.497429
O O1 0.047352 0.321214 0.891145
O O2 0.977242 0.394516 0.916824
O O3 0.058795 0.382185 0.008305
O O4 0.930077 0.264384 0.963163
O O5 0.833334 0.666667 0.666667
O O6 0.781179 0.572321 0.781302
O O7 0.866945 0.721117 0.793854
O O8 0.897121 0.084979 0.903380
O O9 0.899784 0.144069 0.021565
O O10 0.011565 0.129050 0.987218
O O11 0.216339 0.677828 0.146441
O O12 0.119164 0.603365 0.234422
O O13 0.121594 0.443039 0.832404
O O14 0.020103 0.448371 0.760830
O O15 0.951518 0.464367 0.656929
O O16 0.259914 0.339960 0.910175
O O17 0.500000 0.500000 0.500000
#
# Coordination Sequence:
#
# PCOD9575057 Si02
#       8
#    18  18  18  18  18  18  18  18
#     4  11  21  35  60  88 125 159 190 250 311 362
#     4  10  22  41  63  93 126 157 199 250 313 362
#     4  11  21  36  60  82 119 167 207 248 295 358
#     4  11  23  41  64  86 115 157 209 250 293 353
#     4   9  20  37  57  85 122 156 196 246 299 364
#     4  10  19  35  58  86 117 155 188 246 300 362
#     4  11  20  37  55  88 125 153 198 243 302 363
#     4  11  20  33  56  86 115 156 198 242 303 364
#
# _framework density 19.445779999999999
#
# number of rings (size 3 to 8) (size 9 to 14) (size 15 to 20)
#    0.000    1.500    3.750    2.500    0.000    0.000 
#    6.750    0.000    0.000    0.000    0.000    0.000 
#    0.000    0.000    0.000    0.000    0.000    0.000 
#
# Total GULP energy -267450.582769 kJ/mol
# GULP energy per Si atom -5571.887141 kJ/mol
# Density = 1.940152 g / cm^3
# Si number density = 19.445780 Si / 1000 Ang^3
#
#
#
# Elastic Constant Matrix: (Units=GPa)
#
#
# Indices 1 2 3 4 5 6 
#
# 1 61.7882 15.2941 -3.7055 -0.0007 0.0445 0.0000
# 2 15.2941 61.7882 -3.7055 0.0007 -0.0445 0.0000
# 3 -3.7055 -3.7055 47.6578 0.0000 0.0000 0.0000
# 4 -0.0007 0.0007 0.0000 27.8761 0.0000 -0.0445
# 5 0.0445 -0.0445 0.0000 0.0000 27.8761 -0.0007
# 6 0.0000 0.0000 0.0000 -0.0445 -0.0007 23.2470
#
#
#
# Elastic Compliance Matrix: (Units=1/GPa)
#
#
# Indices 1 2 3 4 5 6 
#
# 1 0.017290 -0.004219 0.001016 0.000001 -0.000034 0.000000
# 2 -0.004219 0.017290 0.001016 -0.000001 0.000034 0.000000
# 3 0.001016 0.001016 0.021141 0.000000 0.000000 0.000000
# 4 0.000001 -0.000001 0.000000 0.035873 0.000000 0.000069
# 5 -0.000034 0.000034 0.000000 0.000000 0.035873 0.000001
# 6 0.000000 0.000000 0.000000 0.000069 0.000001 0.043016
#
#
# Mechanical properties :
#
#
# Convention : Reuss Voigt Hill
#
# Bulk Modulus (GPa) = 19.47504 20.77783 20.12644
# Shear Modulus (GPa) = 26.04562 26.68990 26.36776
#
# Velocity S-wave (km/s) = 3.66375 3.70879 3.68634
# Velocity P-wave (km/s) = 5.28528 5.38965 5.33772
#
# Compressibility (1/GPa) = 0.05134778
#
# Stress axis : x y z
#
# Youngs Moduli (GPa) = 57.83850 57.83850 47.30158
#
# Poissons Ratio (x) = 0.24400 -0.04807
# Poissons Ratio (y) = 0.24400 -0.04807
# Poissons Ratio (z) = -0.05878 -0.05878
#
# Static dielectric constant tensor:
#      x y z
#    x 1.687820 0.000000 0.000000 
#    y 0.000000 1.687820 0.000000 
#    z 0.000000 0.000000 1.780320 
# 
# From -- ./inp_files/3158.got.cif
#   From: 2010.05.17/outbox.cif.g08.bks.cpg/sg148_2_cif.got.tgz:3158.got - 2010.05.20 13:50:20.
