data_PCOD9575472
_publ_section_title
;
Structure prediction by ZEFSAII (Michael W. Deem and Ramdas Pophale) SiO2 
 PCOD9575472
Probable space group: P 3 2 1
;
_chemical_formula_sum "Si O2"
_cell_formula_units_Z 30
_cell_length_a 11.226389
_cell_length_b 11.226389
_cell_length_c 13.010008
_cell_angle_alpha 90.000000
_cell_angle_beta 90.000000
_cell_angle_gamma 120.000000
_cell_volume 1420.000079
_symmetry_space_group_name_H-M "P 3 2 1"
_symmetry_group_IT_number 150
_symmetry_cell_setting 'hexagonal'
loop_
_space_group_symop_operation_xyz
x,y,z
-y,x-y,z
-x+y,-x,z
x-y,-y,-z
-x,-x+y,-z
y,x,-z
loop_
_atom_site_type_symbol
_atom_site_label
_atom_site_fract_x
_atom_site_fract_y
_atom_site_fract_z
Si Si1 0.497465 0.965458 0.746120
Si Si2 0.732482 0.994376 0.123776
Si Si3 0.000000 0.000000 0.876681
Si Si4 0.666667 0.333334 0.023190
Si Si5 0.596378 0.691756 0.085637
Si Si6 0.666667 0.333333 0.272560
Si Si7 0.587901 0.151729 0.555135
O O1 0.395303 0.822663 0.690931
O O2 0.604300 0.935247 0.807661
O O3 0.421229 0.000016 0.834183
O O4 0.568768 0.097156 0.672621
O O5 0.643199 0.832247 0.143427
O O6 0.887437 0.040508 0.153817
O O7 0.715584 0.000000 0.000000
O O8 0.000000 0.000000 0.000000
O O9 0.807365 0.351067 0.976012
O O10 0.666668 0.333334 0.146797
O O11 0.706196 0.706196 0.000000
O O12 0.750356 0.269183 0.538733
O O13 0.517301 0.000000 0.500000
#
# Coordination Sequence:
#
# PCOD9575472 Si02
#       7
#     6   6   2   2   6   2   6
#     4  12  25  40  64 100 136 177 232 283 352 410
#     4  11  22  39  57  87 132 185 237 287 336 406
#     4   9  21  36  57  81 127 191 241 282 348 396
#     4  12  21  36  51  94 137 190 237 273 336 373
#     4  12  22  35  59  84 134 180 230 283 328 394
#     4  12  27  36  63 103 146 193 231 282 330 409
#     4  10  26  51  82 112 138 179 229 290 372 446
#
# _framework density 21.126757000000001
#
# number of rings (size 3 to 8) (size 9 to 14) (size 15 to 20)
#    0.400    0.400    4.000    4.800    5.600    0.000 
#    0.000    0.000    0.000    0.400    0.000    0.000 
#    0.000    0.000    0.000    0.000    0.000    0.000 
#
# Total GULP energy -167474.900657 kJ/mol
# GULP energy per Si atom -5582.496689 kJ/mol
# Density = 2.107867 g / cm^3
# Si number density = 21.126757 Si / 1000 Ang^3
#
#
#
# Elastic Constant Matrix: (Units=GPa)
#
#
# Indices 1 2 3 4 5 6 
#
# 1 108.4118 42.7918 27.1304 -3.1463 0.0000 0.0000
# 2 42.7918 108.4119 27.1305 3.1459 0.0000 0.0000
# 3 27.1304 27.1305 56.3103 0.0000 0.0000 0.0000
# 4 -3.1463 3.1459 0.0000 30.7367 0.0000 0.0000
# 5 0.0000 0.0000 0.0000 0.0000 30.7368 -3.1461
# 6 0.0000 0.0000 0.0000 0.0000 -3.1461 32.8102
#
#
#
# Elastic Compliance Matrix: (Units=1/GPa)
#
#
# Indices 1 2 3 4 5 6 
#
# 1 0.011693 -0.003697 -0.003853 0.001575 0.000000 0.000000
# 2 -0.003697 0.011693 -0.003853 -0.001575 0.000000 0.000000
# 3 -0.003853 -0.003853 0.021471 0.000000 0.000000 0.000000
# 4 0.001575 -0.001575 0.000000 0.032857 0.000000 0.000000
# 5 0.000000 0.000000 0.000000 0.000000 0.032857 0.003151
# 6 0.000000 0.000000 0.000000 0.000000 0.003151 0.030780
#
#
# Mechanical properties :
#
#
# Convention : Reuss Voigt Hill
#
# Bulk Modulus (GPa) = 45.34508 51.91549 48.63029
# Shear Modulus (GPa) = 29.15333 30.59549 29.87441
#
# Velocity S-wave (km/s) = 3.71876 3.80963 3.76447
# Velocity P-wave (km/s) = 6.32051 6.63157 6.47791
#
# Compressibility (1/GPa) = 0.02205311
#
# Stress axis : x y z
#
# Youngs Moduli (GPa) = 85.51972 85.51972 46.57428
#
# Poissons Ratio (x) = 0.31617 0.17943
# Poissons Ratio (y) = 0.31617 0.17943
# Poissons Ratio (z) = 0.32947 0.32947
#
# Static dielectric constant tensor:
#      x y z
#    x 1.826690 0.000000 0.000000 
#    y 0.000000 1.826690 0.000000 
#    z 0.000000 0.000000 1.811330 
# 
# From -- ./inp_files/1011.got.cif
#   From: 2010.05.17/outbox.cif.g08.bks.cpg/sg150_cif.got.tgz:1011.got - 2010.05.20 13:53:18.
