data_PCOD9575547
_publ_section_title
;
Structure prediction by ZEFSAII (Michael W. Deem and Ramdas Pophale) SiO2 
 PCOD9575547
Probable space group: P 31 1 2
;
_chemical_formula_sum "Si O2"
_cell_formula_units_Z 30
_cell_length_a 7.686399
_cell_length_b 7.686399
_cell_length_c 26.370883
_cell_angle_alpha 90.000000
_cell_angle_beta 90.000000
_cell_angle_gamma 120.000000
_cell_volume 1349.277112
_symmetry_space_group_name_H-M "P 31 1 2"
_symmetry_group_IT_number 151
_symmetry_cell_setting 'hexagonal'
loop_
_space_group_symop_operation_xyz
x,y,z
-y,x-y,1/3+z
-x+y,-x,2/3+z
-y,-x,2/3-z
-x+y,y,1/3-z
x,x-y,-z
loop_
_atom_site_type_symbol
_atom_site_label
_atom_site_fract_x
_atom_site_fract_y
_atom_site_fract_z
Si Si1 0.653741 0.150758 0.785662
Si Si2 0.235922 0.054280 0.051783
Si Si3 0.110227 0.365620 0.484762
Si Si4 0.368917 0.133924 0.649751
Si Si5 0.860527 0.105880 0.579466
O O1 0.705403 0.294598 0.833334
O O2 0.800905 0.247492 0.737163
O O3 0.427091 0.071296 0.768924
O O4 0.671277 0.961829 0.803649
O O5 0.344300 0.026821 0.100511
O O6 0.073635 0.832179 0.030964
O O7 0.098194 0.137500 0.076101
O O8 0.345153 0.172577 0.000000
O O9 0.184732 0.592366 0.500000
O O10 0.000835 0.226718 0.532988
O O11 0.548021 0.096042 0.666667
O O12 0.907552 0.217682 0.634484
#
# Coordination Sequence:
#
# PCOD9575547 Si02
#       5
#     6   6   6   6   6
#     4  10  20  37  59  84 113 148 186 233 283 332
#     4   9  18  35  59  80 106 146 191 234 283 333
#     4  11  22  35  53  83 117 148 186 230 277 336
#     4   8  16  32  58  84 109 143 184 229 283 338
#     4  10  19  35  60  83 108 147 190 232 283 335
#
# _framework density 22.234128999999999
#
# number of rings (size 3 to 8) (size 9 to 14) (size 15 to 20)
#    0.000    2.400    0.000    3.600    0.000    1.600 
#    0.000    5.000    0.000   50.400    0.000    0.000 
#    0.000    0.000    0.000    0.000    0.000    0.000 
#
# Total GULP energy -167309.802513 kJ/mol
# GULP energy per Si atom -5576.993417 kJ/mol
# Density = 2.218352 g / cm^3
# Si number density = 22.234129 Si / 1000 Ang^3
#
#
#
# Elastic Constant Matrix: (Units=GPa)
#
#
# Indices 1 2 3 4 5 6 
#
# 1 33.7660 1.9096 36.3576 -0.0004 3.8679 0.0000
# 2 1.9096 33.7660 36.3576 0.0004 -3.8679 0.0000
# 3 36.3576 36.3576 184.8541 0.0000 0.0000 0.0000
# 4 -0.0004 0.0004 0.0000 27.3528 0.0000 -3.8679
# 5 3.8679 -3.8679 0.0000 0.0000 27.3528 -0.0004
# 6 0.0000 0.0000 0.0000 -3.8679 -0.0004 15.9282
#
#
#
# Elastic Compliance Matrix: (Units=1/GPa)
#
#
# Indices 1 2 3 4 5 6 
#
# 1 0.039647 0.007140 -0.009202 0.000000 -0.004597 0.000000
# 2 0.007140 0.039647 -0.009202 0.000000 0.004597 0.000000
# 3 -0.009202 -0.009202 0.009029 0.000000 0.000000 0.000000
# 4 0.000000 0.000000 0.000000 0.037859 0.000000 0.009193
# 5 -0.004597 0.004597 0.000000 0.000000 0.037859 0.000001
# 6 0.000000 0.000000 0.000000 0.009193 0.000001 0.065014
#
#
# Mechanical properties :
#
#
# Convention : Reuss Voigt Hill
#
# Bulk Modulus (GPa) = 15.19896 44.62617 29.91256
# Shear Modulus (GPa) = 18.28047 25.97752 22.12900
#
# Velocity S-wave (km/s) = 2.87048 3.42184 3.15821
# Velocity P-wave (km/s) = 4.22338 5.97717 5.17511
#
# Compressibility (1/GPa) = 0.06579399
#
# Stress axis : x y z
#
# Youngs Moduli (GPa) = 25.22275 25.22275 110.74869
#
# Poissons Ratio (x) = -0.18008 1.01912
# Poissons Ratio (y) = -0.18008 1.01912
# Poissons Ratio (z) = 0.23210 0.23210
#
# Static dielectric constant tensor:
#      x y z
#    x 1.809240 0.000000 0.000000 
#    y 0.000000 1.809240 0.000000 
#    z 0.000000 0.000000 1.938840 
# 
# From -- ./inp_files/4826.got.cif
#   From: 2010.05.17/outbox.cif.g08.bks.cpg/sg151_3_cif.got.tgz:4826.got - 2010.05.20 10:33:20.
