data_PCOD9575489
_publ_section_title
;
Structure prediction by ZEFSAII (Michael W. Deem and Ramdas Pophale) SiO2 
 PCOD9575489
Probable space group: P 3 2 1
;
_chemical_formula_sum "Si O2"
_cell_formula_units_Z 48
_cell_length_a 23.184879
_cell_length_b 23.184879
_cell_length_c 9.414837
_cell_angle_alpha 90.000000
_cell_angle_beta 90.000000
_cell_angle_gamma 120.000000
_cell_volume 4382.814649
_symmetry_space_group_name_H-M "P 3 2 1"
_symmetry_group_IT_number 150
_symmetry_cell_setting 'hexagonal'
loop_
_space_group_symop_operation_xyz
x,y,z
-y,x-y,z
-x+y,-x,z
x-y,-y,-z
-x,-x+y,-z
y,x,-z
loop_
_atom_site_type_symbol
_atom_site_label
_atom_site_fract_x
_atom_site_fract_y
_atom_site_fract_z
Si Si1 0.537629 0.934847 0.586361
Si Si2 0.802090 0.469206 0.918861
Si Si3 0.397218 0.934847 0.913639
Si Si4 0.667116 0.469206 0.581139
Si Si5 0.667116 0.469206 0.918861
Si Si6 0.065153 0.462371 0.586361
Si Si7 0.667116 0.197910 0.581139
Si Si8 0.537629 0.934847 0.913639
O O1 0.468079 0.936158 0.586080
O O2 0.519873 0.866672 0.507479
O O3 0.557178 0.936458 0.750000
O O4 0.589496 0.000000 0.500000
O O5 0.736270 0.472540 0.953485
O O6 0.789698 0.394849 0.945570
O O7 0.815421 0.481608 0.750000
O O8 0.866672 0.519873 0.007479
O O9 0.379280 0.936458 0.750000
O O10 0.468079 0.936158 0.913920
O O11 0.346799 0.866672 0.992521
O O12 0.410504 0.000000 0.000000
O O13 0.666186 0.481608 0.750000
O O14 0.653201 0.519873 0.492521
O O15 0.736270 0.472540 0.546515
O O16 0.605151 0.394849 0.554430
O O17 0.000000 0.410504 0.500000
O O18 0.589496 0.000000 0.000000
#
# Coordination Sequence:
#
# PCOD9575489 Si02
#       8
#     6   6   6   6   6   6   6   6
#     4   9  16  25  36  48  61  78 101 128 156 186
#     4   9  16  25  36  49  65  84 104 126 155 192
#     4   9  16  25  36  48  61  78 101 128 156 186
#     4   9  16  25  36  49  65  84 104 126 155 192
#     4   9  16  25  36  49  65  84 104 126 155 192
#     4   9  16  25  36  48  61  78 101 128 156 186
#     4   9  16  25  36  49  65  84 104 126 155 192
#     4   9  16  25  36  48  61  78 101 128 156 186
#
# _framework density 10.951866000000001
#
# number of rings (size 3 to 8) (size 9 to 14) (size 15 to 20)
#    0.000    3.000    0.000    2.000    0.000    9.000 
#    0.000    0.000    0.000    3.000    0.000    0.000 
#    0.000    0.000    0.000    0.000    0.000    0.000 
#
# Total GULP energy -267245.330954 kJ/mol
# GULP energy per Si atom -5567.611062 kJ/mol
# Density = 1.092694 g / cm^3
# Si number density = 10.951866 Si / 1000 Ang^3
#
#
#
# Elastic Constant Matrix: (Units=GPa)
#
#
# Indices 1 2 3 4 5 6 
#
# 1 63.7109 41.0072 53.0525 0.0000 0.0000 0.0000
# 2 41.0072 63.7109 53.0525 0.0000 0.0000 0.0000
# 3 53.0525 53.0525 80.9914 0.0000 0.0000 0.0000
# 4 0.0000 0.0000 0.0000 16.1549 0.0000 0.0000
# 5 0.0000 0.0000 0.0000 0.0000 16.1549 0.0000
# 6 0.0000 0.0000 0.0000 0.0000 0.0000 11.3518
#
#
#
# Elastic Compliance Matrix: (Units=1/GPa)
#
#
# Indices 1 2 3 4 5 6 
#
# 1 0.036221 -0.007824 -0.018601 0.000000 0.000000 0.000000
# 2 -0.007824 0.036221 -0.018601 0.000000 0.000000 0.000000
# 3 -0.018601 -0.018601 0.036716 0.000000 0.000000 0.000000
# 4 0.000000 0.000000 0.000000 0.061901 0.000000 0.000000
# 5 0.000000 0.000000 0.000000 0.000000 0.061901 0.000000
# 6 0.000000 0.000000 0.000000 0.000000 0.000000 0.088091
#
#
# Mechanical properties :
#
#
# Convention : Reuss Voigt Hill
#
# Bulk Modulus (GPa) = 52.34142 55.84865 54.09504
# Shear Modulus (GPa) = 11.97681 12.81903 12.39792
#
# Velocity S-wave (km/s) = 3.31053 3.42495 3.36823
# Velocity P-wave (km/s) = 7.90625 8.16981 8.03911
#
# Compressibility (1/GPa) = 0.01910533
#
# Stress axis : x y z
#
# Youngs Moduli (GPa) = 27.60805 27.60805 27.23614
#
# Poissons Ratio (x) = 0.21602 0.50662
# Poissons Ratio (y) = 0.21602 0.50662
# Poissons Ratio (z) = 0.51354 0.51354
#
# Static dielectric constant tensor:
#      x y z
#    x 1.331370 0.000000 0.000000 
#    y 0.000000 1.331370 0.000000 
#    z 0.000000 0.000000 1.368820 
# 
# From -- ./inp_files/789.got.cif
#   From: 2010.05.17/outbox.cif.g08.bks.cpg/sg150_cif.got.tgz:789.got - 2010.05.20 13:53:18.
