data_PCOD9575679
_publ_section_title
;
Structure prediction by ZEFSAII (Michael W. Deem and Ramdas Pophale) SiO2 
 PCOD9575679
Probable space group: P 31 1 2
;
_chemical_formula_sum "Si O2"
_cell_formula_units_Z 45
_cell_length_a 11.984108
_cell_length_b 11.984108
_cell_length_c 16.659407
_cell_angle_alpha 90.000000
_cell_angle_beta 90.000000
_cell_angle_gamma 120.000000
_cell_volume 2072.056524
_symmetry_space_group_name_H-M "P 31 1 2"
_symmetry_group_IT_number 151
_symmetry_cell_setting 'hexagonal'
loop_
_space_group_symop_operation_xyz
x,y,z
-y,x-y,1/3+z
-x+y,-x,2/3+z
-y,-x,2/3-z
-x+y,y,1/3-z
x,x-y,-z
loop_
_atom_site_type_symbol
_atom_site_label
_atom_site_fract_x
_atom_site_fract_y
_atom_site_fract_z
Si Si1 0.054020 0.209162 0.836301
Si Si2 0.675007 0.087409 0.991662
Si Si3 0.534789 0.416126 0.500070
Si Si4 0.308306 0.373880 0.182966
Si Si5 0.237777 0.123595 0.911224
Si Si6 0.948674 0.301800 0.976179
Si Si7 0.170570 0.341139 0.666667
Si Si8 0.526609 0.187108 0.097181
O O1 0.151677 0.161716 0.860536
O O2 0.103896 0.269872 0.749203
O O3 0.039811 0.289712 0.909563
O O4 0.913846 0.086154 0.833334
O O5 0.604904 0.165487 0.025674
O O6 0.678674 0.109208 0.895873
O O7 0.826763 0.170835 0.011880
O O8 0.610383 0.936078 0.015808
O O9 0.539357 0.549456 0.516881
O O10 0.487058 0.373209 0.409132
O O11 0.674762 0.438746 0.527448
O O12 0.213288 0.426575 0.166667
O O13 0.252501 0.238780 0.134772
O O14 0.331180 0.362623 0.277235
O O15 0.378458 0.249459 0.922758
O O16 0.178734 0.089367 0.000000
O O17 0.557110 0.114220 0.166667
#
# Coordination Sequence:
#
# PCOD9575679 Si02
#       8
#     6   6   6   6   6   6   3   6
#     4  12  24  40  65  91 136 174 226 276 342 420
#     4  12  23  41  67  98 141 181 237 292 375 437
#     4  11  23  41  68 101 138 180 235 303 363 433
#     4  11  24  43  68  99 143 186 235 296 367 447
#     4  11  24  40  63  98 130 178 226 291 356 425
#     4  12  23  42  66 105 133 181 234 299 364 440
#     4  12  24  42  64  94 132 186 228 282 348 432
#     4  11  22  39  65 100 138 177 226 299 369 432
#
# _framework density 21.717554
#
# number of rings (size 3 to 8) (size 9 to 14) (size 15 to 20)
#    0.000    0.533    2.667    8.000    0.933    1.067 
#    0.000    0.000    5.867    0.000    0.000    0.000 
#    0.000    0.000    0.000    0.000    0.000    0.000 
#
# Total GULP energy -250708.177260 kJ/mol
# GULP energy per Si atom -5571.292828 kJ/mol
# Density = 2.166812 g / cm^3
# Si number density = 21.717554 Si / 1000 Ang^3
#
#
#
# Elastic Constant Matrix: (Units=GPa)
#
#
# Indices 1 2 3 4 5 6 
#
# 1 83.6055 2.8934 -0.9427 -0.0003 -2.6327 0.0000
# 2 2.8934 83.6055 -0.9427 0.0003 2.6327 0.0000
# 3 -0.9427 -0.9427 106.4095 0.0000 0.0000 0.0000
# 4 -0.0003 0.0003 0.0000 35.6642 0.0000 2.6327
# 5 -2.6327 2.6327 0.0000 0.0000 35.6642 -0.0003
# 6 0.0000 0.0000 0.0000 2.6327 -0.0003 40.3560
#
#
#
# Elastic Compliance Matrix: (Units=1/GPa)
#
#
# Indices 1 2 3 4 5 6 
#
# 1 0.012006 -0.000443 0.000102 0.000000 0.000919 0.000000
# 2 -0.000443 0.012006 0.000102 0.000000 -0.000919 0.000000
# 3 0.000102 0.000102 0.009399 0.000000 0.000000 0.000000
# 4 0.000000 0.000000 0.000000 0.028175 0.000000 -0.001838
# 5 0.000919 -0.000919 0.000000 0.000000 0.028175 0.000000
# 6 0.000000 0.000000 0.000000 -0.001838 0.000000 0.024899
#
#
# Mechanical properties :
#
#
# Convention : Reuss Voigt Hill
#
# Bulk Modulus (GPa) = 30.36248 30.62627 30.49438
# Shear Modulus (GPa) = 39.64578 40.51107 40.07842
#
# Velocity S-wave (km/s) = 4.27724 4.32367 4.30052
# Velocity P-wave (km/s) = 6.19710 6.24965 6.22343
#
# Compressibility (1/GPa) = 0.03293539
#
# Stress axis : x y z
#
# Youngs Moduli (GPa) = 83.28906 83.28906 106.38898
#
# Poissons Ratio (x) = 0.03692 -0.01090
# Poissons Ratio (y) = 0.03692 -0.01090
# Poissons Ratio (z) = -0.00853 -0.00853
#
# Static dielectric constant tensor:
#      x y z
#    x 1.827110 0.000000 0.000000 
#    y 0.000000 1.827110 0.000000 
#    z 0.000000 0.000000 1.889770 
# 
# From -- ./inp_files/3578.got.cif
#   From: 2010.05.17/outbox.cif.g08.bks.cpg/sg151_2_cif.got.tgz:3578.got - 2010.05.20 10:33:20.
