data_PCOD9575797
_publ_section_title
;
Structure prediction by ZEFSAII (Michael W. Deem and Ramdas Pophale) SiO2 
 PCOD9575797
Probable space group: P 31 2 1
;
_chemical_formula_sum "Si O2"
_cell_formula_units_Z 36
_cell_length_a 11.968093
_cell_length_b 11.968093
_cell_length_c 13.200952
_cell_angle_alpha 90.000000
_cell_angle_beta 90.000000
_cell_angle_gamma 120.000000
_cell_volume 1637.516913
_symmetry_space_group_name_H-M "P 31 2 1"
_symmetry_group_IT_number 152
_symmetry_cell_setting 'hexagonal'
loop_
_space_group_symop_operation_xyz
x,y,z
-y,x-y,1/3+z
-x+y,-x,2/3+z
x-y,-y,2/3-z
-x,-x+y,1/3-z
y,x,-z
loop_
_atom_site_type_symbol
_atom_site_label
_atom_site_fract_x
_atom_site_fract_y
_atom_site_fract_z
Si Si1 0.327516 0.188879 0.828040
Si Si2 0.572433 0.496394 0.407931
Si Si3 0.584144 0.258710 0.438892
Si Si4 0.581915 0.154900 0.231912
Si Si5 0.664385 0.641519 0.210420
Si Si6 0.854089 0.868005 0.658017
O O1 0.419345 0.133272 0.791590
O O2 0.426148 0.335591 0.857179
O O3 0.239466 0.101923 0.920462
O O4 0.230432 0.149362 0.733721
O O5 0.478461 0.478461 0.500000
O O6 0.554289 0.359184 0.380693
O O7 0.575835 0.578910 0.311600
O O8 0.607533 0.180498 0.350959
O O9 0.710182 0.342307 0.506337
O O10 0.463705 0.165387 0.508137
O O11 0.431005 0.072062 0.207193
O O12 0.787924 0.775123 0.243609
O O13 0.000000 0.979956 0.666667
#
# Coordination Sequence:
#
# PCOD9575797 Si02
#       6
#     6   6   6   6   6   6
#     4   9  19  37  63  92 123 173 231 270 335 417
#     4  10  19  37  63  91 129 175 229 277 346 425
#     4  11  23  39  61  99 132 176 228 296 364 418
#     4  11  23  37  65  97 136 174 227 297 366 425
#     4  11  22  39  64  96 136 176 225 296 351 421
#     4  10  20  39  66  93 128 181 234 278 328 419
#
# _framework density 21.984506
#
# number of rings (size 3 to 8) (size 9 to 14) (size 15 to 20)
#    0.000    1.667    5.000    1.500    2.333    2.667 
#    0.000    0.000   11.000    0.000    0.000    0.000 
#    0.000    0.000    0.000    0.000    0.000    0.000 
#
# Total GULP energy -200927.149443 kJ/mol
# GULP energy per Si atom -5581.309707 kJ/mol
# Density = 2.193447 g / cm^3
# Si number density = 21.984506 Si / 1000 Ang^3
#
#
#
# Elastic Constant Matrix: (Units=GPa)
#
#
# Indices 1 2 3 4 5 6 
#
# 1 69.7170 26.8706 15.1502 0.8916 0.0000 0.0000
# 2 26.8706 69.7170 15.1502 -0.8916 0.0000 0.0000
# 3 15.1502 15.1502 70.4786 0.0000 0.0000 0.0000
# 4 0.8916 -0.8916 0.0000 19.5419 0.0000 0.0000
# 5 0.0000 0.0000 0.0000 0.0000 19.5419 0.8916
# 6 0.0000 0.0000 0.0000 0.0000 0.8916 21.4232
#
#
#
# Elastic Compliance Matrix: (Units=1/GPa)
#
#
# Indices 1 2 3 4 5 6 
#
# 1 0.017243 -0.006141 -0.002387 -0.001067 0.000000 0.000000
# 2 -0.006141 0.017243 -0.002387 0.001067 0.000000 0.000000
# 3 -0.002387 -0.002387 0.015215 0.000000 0.000000 0.000000
# 4 -0.001067 0.001067 0.000000 0.051269 0.000000 0.000000
# 5 0.000000 0.000000 0.000000 0.000000 0.051269 -0.002134
# 6 0.000000 0.000000 0.000000 0.000000 -0.002134 0.046767
#
#
# Mechanical properties :
#
#
# Convention : Reuss Voigt Hill
#
# Bulk Modulus (GPa) = 35.87747 36.02829 35.95288
# Shear Modulus (GPa) = 21.72737 22.28419 22.00578
#
# Velocity S-wave (km/s) = 3.14714 3.18721 3.16724
# Velocity P-wave (km/s) = 5.43699 5.47431 5.45568
#
# Compressibility (1/GPa) = 0.02787265
#
# Stress axis : x y z
#
# Youngs Moduli (GPa) = 57.99533 57.99533 65.72580
#
# Poissons Ratio (x) = 0.35614 0.15685
# Poissons Ratio (y) = 0.35614 0.15685
# Poissons Ratio (z) = 0.13841 0.13841
#
# Static dielectric constant tensor:
#      x y z
#    x 1.810870 0.000000 0.000000 
#    y 0.000000 1.810870 0.000000 
#    z 0.000000 0.000000 1.866000 
# 
# From -- ./inp_files/2034.got.cif
#   From: 2010.05.17/outbox.cif.g08.bks.cpg/sg152_2_cif.got.tgz:2034.got - 2010.05.20 10:36:06.
