data_PCOD9575698
_publ_section_title
;
Structure prediction by ZEFSAII (Michael W. Deem and Ramdas Pophale) SiO2 
 PCOD9575698
Probable space group: P 31 1 2
;
_chemical_formula_sum "Si O2"
_cell_formula_units_Z 12
_cell_length_a 7.708014
_cell_length_b 7.708014
_cell_length_c 7.953463
_cell_angle_alpha 90.000000
_cell_angle_beta 90.000000
_cell_angle_gamma 120.000000
_cell_volume 409.234167
_symmetry_space_group_name_H-M "P 31 1 2"
_symmetry_group_IT_number 151
_symmetry_cell_setting 'hexagonal'
loop_
_space_group_symop_operation_xyz
x,y,z
-y,x-y,1/3+z
-x+y,-x,2/3+z
-y,-x,2/3-z
-x+y,y,1/3-z
x,x-y,-z
loop_
_atom_site_type_symbol
_atom_site_label
_atom_site_fract_x
_atom_site_fract_y
_atom_site_fract_z
Si Si1 0.821415 0.410708 0.000000
Si Si2 0.243842 0.098889 0.189754
Si Si3 0.265405 0.530809 0.666667
O O1 0.691386 0.308615 0.833334
O O2 0.352884 0.051663 0.702086
O O3 0.006150 0.012300 0.166667
O O4 0.319633 0.959400 0.274238
O O5 0.315696 0.157848 0.000000
O O6 0.329913 0.670088 0.833334
#
# Coordination Sequence:
#
# PCOD9575698 Si02
#       3
#     3   6   3
#     4  12  28  54  92 130 180 246 310 370 466 564
#     4  12  29  56  91 131 185 244 301 381 467 550
#     4  12  32  62  92 142 188 246 320 394 466 566
#
# _framework density 29.323060000000002
#
# number of rings (size 3 to 8) (size 9 to 14) (size 15 to 20)
#    0.000    0.000    5.000    1.500    7.000    4.000 
#    0.000    0.000   11.000    0.000    0.000    0.000 
#    0.000    0.000    0.000    0.000    0.000    0.000 
#
# Total GULP energy -67062.464822 kJ/mol
# GULP energy per Si atom -5588.538735 kJ/mol
# Density = 2.925632 g / cm^3
# Si number density = 29.323060 Si / 1000 Ang^3
#
#
#
# Elastic Constant Matrix: (Units=GPa)
#
#
# Indices 1 2 3 4 5 6 
#
# 1 143.1955 82.3026 79.7158 0.0000 -25.1588 0.0000
# 2 82.3026 143.1955 79.7158 0.0000 25.1588 0.0000
# 3 79.7158 79.7158 263.4068 0.0000 0.0000 0.0000
# 4 0.0000 0.0000 0.0000 52.8766 0.0000 25.1588
# 5 -25.1588 25.1588 0.0000 0.0000 52.8766 0.0000
# 6 0.0000 0.0000 0.0000 25.1588 0.0000 30.4465
#
#
#
# Elastic Compliance Matrix: (Units=1/GPa)
#
#
# Indices 1 2 3 4 5 6 
#
# 1 0.016352 -0.010710 -0.001707 0.000000 0.012876 0.000000
# 2 -0.010710 0.016352 -0.001707 0.000000 -0.012876 0.000000
# 3 -0.001707 -0.001707 0.004830 0.000000 0.000000 0.000000
# 4 0.000000 0.000000 0.000000 0.031165 0.000000 -0.025753
# 5 0.012876 -0.012876 0.000000 0.000000 0.031165 0.000000
# 6 0.000000 0.000000 0.000000 -0.025753 0.000000 0.054125
#
#
# Mechanical properties :
#
#
# Convention : Reuss Voigt Hill
#
# Bulk Modulus (GPa) = 107.71412 114.80737 111.26074
# Shear Modulus (GPa) = 26.97838 47.77753 37.37795
#
# Velocity S-wave (km/s) = 3.03651 4.04090 3.57416
# Velocity P-wave (km/s) = 7.00765 7.81085 7.42013
#
# Compressibility (1/GPa) = 0.00928383
#
# Stress axis : x y z
#
# Youngs Moduli (GPa) = 61.15433 61.15433 207.04620
#
# Poissons Ratio (x) = 0.65498 0.35351
# Poissons Ratio (y) = 0.65498 0.35351
# Poissons Ratio (z) = 0.10441 0.10441
#
# Static dielectric constant tensor:
#      x y z
#    x 2.325460 0.000000 0.000000 
#    y 0.000000 2.325460 0.000000 
#    z 0.000000 0.000000 2.645680 
# 
# From -- ./inp_files/991.got.cif
#   From: 2010.05.17/outbox.cif.g08.bks.cpg/sg151_1_cif.got.tgz:991.got - 2010.05.20 10:33:20.
