data_PCOD9575062
_publ_section_title
;
Structure prediction by ZEFSAII (Michael W. Deem and Ramdas Pophale) SiO2 
 PCOD9575062
Probable space group: R -3
;
_chemical_formula_sum "Si O2"
_cell_formula_units_Z 54
_cell_length_a 9.311351
_cell_length_b 9.311351
_cell_length_c 26.583303
_cell_angle_alpha 90.000000
_cell_angle_beta 90.000000
_cell_angle_gamma 120.000000
_cell_volume 1996.020371
_symmetry_space_group_name_H-M "R -3"
_symmetry_group_IT_number 148
_symmetry_cell_setting 'hexagonal'
loop_
_space_group_symop_operation_xyz
x,y,z
-y,x-y,z
-x+y,-x,z
-x,-y,-z
y,-x+y,-z
x-y,x,-z
2/3+x,1/3+y,1/3+z
2/3-y,1/3+x-y,1/3+z
2/3-x+y,1/3-x,1/3+z
2/3-x,1/3-y,1/3-z
2/3+y,1/3-x+y,1/3-z
2/3+x-y,1/3+x,1/3-z
1/3+x,2/3+y,2/3+z
1/3-y,2/3+x-y,2/3+z
1/3-x+y,2/3-x,2/3+z
1/3-x,2/3-y,2/3-z
1/3+y,2/3-x+y,2/3-z
1/3+x-y,2/3+x,2/3-z
loop_
_atom_site_type_symbol
_atom_site_label
_atom_site_fract_x
_atom_site_fract_y
_atom_site_fract_z
Si Si1 0.089006 0.745233 0.252342
Si Si2 0.161762 0.952935 0.163850
Si Si3 0.496866 0.959901 0.338489
O O1 0.987531 0.587134 0.216623
O O2 0.152609 0.680365 0.298689
O O3 0.956724 0.782825 0.280631
O O4 0.205469 0.892051 0.215361
O O5 0.960521 0.831180 0.162532
O O6 0.422008 0.067267 0.313341
#
# Coordination Sequence:
#
# PCOD9575062 Si02
#       3
#    18  18  18
#     4  10  19  36  57  86 112 153 192 234 284 335
#     4  10  22  33  56  86 122 141 190 247 285 330
#     4   8  17  29  58  78 106 149 195 224 265 346
#
# _framework density 27.053834999999999
#
# number of rings (size 3 to 8) (size 9 to 14) (size 15 to 20)
#    2.667    0.000    0.000    3.333    0.000    0.000 
#    0.000    1.667    0.000    0.667    0.000    0.000 
#    0.000    0.000    0.000    0.000    0.000    0.000 
#
# Total GULP energy -100460.567460 kJ/mol
# GULP energy per Si atom -5581.142637 kJ/mol
# Density = 2.699226 g / cm^3
# Si number density = 27.053835 Si / 1000 Ang^3
#
#
#
# Elastic Constant Matrix: (Units=GPa)
#
#
# Indices 1 2 3 4 5 6 
#
# 1 107.2795 35.5497 67.5980 -0.3051 -8.5256 0.0000
# 2 35.5497 107.2795 67.5980 0.3051 8.5256 0.0000
# 3 67.5980 67.5980 206.0077 0.0000 0.0000 0.0000
# 4 -0.3051 0.3051 0.0000 67.0901 0.0000 8.5256
# 5 -8.5256 8.5256 0.0000 0.0000 67.0901 -0.3051
# 6 0.0000 0.0000 0.0000 8.5256 -0.3051 35.8649
#
#
#
# Elastic Compliance Matrix: (Units=1/GPa)
#
#
# Indices 1 2 3 4 5 6 
#
# 1 0.012266 -0.002110 -0.003332 0.000065 0.001827 0.000000
# 2 -0.002110 0.012266 -0.003332 -0.000065 -0.001827 0.000000
# 3 -0.003332 -0.003332 0.007041 0.000000 0.000000 0.000000
# 4 0.000065 -0.000065 0.000000 0.015370 0.000000 -0.003654
# 5 0.001827 -0.001827 0.000000 0.000000 0.015370 0.000131
# 6 0.000000 0.000000 0.000000 -0.003654 0.000131 0.028752
#
#
# Mechanical properties :
#
#
# Convention : Reuss Voigt Hill
#
# Bulk Modulus (GPa) = 71.31220 84.67312 77.99266
# Shear Modulus (GPa) = 44.13467 50.66377 47.39922
#
# Velocity S-wave (km/s) = 4.04340 4.33217 4.19027
# Velocity P-wave (km/s) = 6.94373 7.50930 7.23204
#
# Compressibility (1/GPa) = 0.01402285
#
# Stress axis : x y z
#
# Youngs Moduli (GPa) = 81.52712 81.52712 142.02243
#
# Poissons Ratio (x) = 0.17204 0.47328
# Poissons Ratio (y) = 0.17204 0.47328
# Poissons Ratio (z) = 0.27168 0.27168
#
# Static dielectric constant tensor:
#      x y z
#    x 2.147830 0.000000 0.000000 
#    y 0.000000 2.147830 0.000000 
#    z 0.000000 0.000000 2.059830 
# 
# From -- ./inp_files/3250.got.cif
#   From: 2010.05.17/outbox.cif.g08.bks.cpg/sg148_2_cif.got.tgz:3250.got - 2010.05.20 13:50:20.
