data_PCOD9575968
_publ_section_title
;
Structure prediction by ZEFSAII (Michael W. Deem and Ramdas Pophale) SiO2 
 PCOD9575968
Probable space group: P 31 2 1
;
_chemical_formula_sum "Si O2"
_cell_formula_units_Z 42
_cell_length_a 8.924726
_cell_length_b 8.924726
_cell_length_c 28.556510
_cell_angle_alpha 90.000000
_cell_angle_beta 90.000000
_cell_angle_gamma 120.000000
_cell_volume 1969.815473
_symmetry_space_group_name_H-M "P 31 2 1"
_symmetry_group_IT_number 152
_symmetry_cell_setting 'hexagonal'
loop_
_space_group_symop_operation_xyz
x,y,z
-y,x-y,1/3+z
-x+y,-x,2/3+z
x-y,-y,2/3-z
-x,-x+y,1/3-z
y,x,-z
loop_
_atom_site_type_symbol
_atom_site_label
_atom_site_fract_x
_atom_site_fract_y
_atom_site_fract_z
Si Si1 0.028084 0.504910 0.545227
Si Si2 0.306020 0.382051 0.396136
Si Si3 0.866891 0.713854 0.831047
Si Si4 0.760304 0.040465 0.042564
Si Si5 0.644646 0.366429 0.390943
Si Si6 0.726429 0.320195 0.616100
Si Si7 0.020278 0.030047 0.429127
O O1 0.057739 0.645450 0.506256
O O2 0.211361 0.580105 0.571961
O O3 0.954313 0.326199 0.517028
O O4 0.885810 0.464218 0.586084
O O5 0.228180 0.321901 0.344630
O O6 0.503536 0.429157 0.392049
O O7 0.288881 0.548403 0.407773
O O8 0.203301 0.206886 0.425870
O O9 0.968725 0.872579 0.865954
O O10 0.899324 0.796324 0.779313
O O11 0.597831 0.848654 0.050712
O O12 0.935989 0.038250 0.053187
O O13 0.714549 0.174715 0.067622
O O14 0.642734 0.292493 0.338340
#
# Coordination Sequence:
#
# PCOD9575968 Si02
#       7
#     6   6   6   6   6   6   6
#     4  12  25  45  64  91 129 176 225 273 328 392
#     4  10  21  40  69  99 128 168 210 269 335 402
#     4  11  28  42  64  90 125 178 224 266 320 388
#     4  10  21  40  68 100 132 164 211 269 340 397
#     4  10  22  41  69  98 129 168 213 276 340 397
#     4  10  22  41  68 100 129 166 215 276 341 397
#     4  11  23  45  62  91 130 173 217 267 317 399
#
# _framework density 21.321794000000001
#
# number of rings (size 3 to 8) (size 9 to 14) (size 15 to 20)
#    0.000    1.429    2.857    0.857    8.000    2.286 
#    0.000    1.429    0.000    0.000    0.000    0.000 
#    0.000    0.000    0.000    0.000    0.000    0.000 
#
# Total GULP energy -234208.691144 kJ/mol
# GULP energy per Si atom -5576.397408 kJ/mol
# Density = 2.127326 g / cm^3
# Si number density = 21.321794 Si / 1000 Ang^3
#
#
#
# Elastic Constant Matrix: (Units=GPa)
#
#
# Indices 1 2 3 4 5 6 
#
# 1 62.9611 12.4348 24.2889 6.9836 0.0000 0.0000
# 2 12.4348 62.9611 24.2889 -6.9836 0.0000 0.0000
# 3 24.2889 24.2889 39.7439 0.0000 0.0000 0.0000
# 4 6.9836 -6.9836 0.0000 36.5948 0.0000 0.0000
# 5 0.0000 0.0000 0.0000 0.0000 36.5948 6.9836
# 6 0.0000 0.0000 0.0000 0.0000 6.9836 25.2632
#
#
#
# Elastic Compliance Matrix: (Units=1/GPa)
#
#
# Indices 1 2 3 4 5 6 
#
# 1 0.021386 0.000492 -0.013370 -0.003987 0.000000 0.000000
# 2 0.000492 0.021386 -0.013370 0.003987 0.000000 0.000000
# 3 -0.013370 -0.013370 0.041503 0.000000 0.000000 0.000000
# 4 -0.003987 0.003987 0.000000 0.028848 0.000000 0.000000
# 5 0.000000 0.000000 0.000000 0.000000 0.028848 -0.007975
# 6 0.000000 0.000000 0.000000 0.000000 -0.007975 0.041788
#
#
# Mechanical properties :
#
#
# Convention : Reuss Voigt Hill
#
# Bulk Modulus (GPa) = 31.46864 31.96569 31.71716
# Shear Modulus (GPa) = 20.25532 26.66746 23.46139
#
# Velocity S-wave (km/s) = 3.08552 3.54038 3.32075
# Velocity P-wave (km/s) = 5.24260 5.63356 5.44159
#
# Compressibility (1/GPa) = 0.03177767
#
# Stress axis : x y z
#
# Youngs Moduli (GPa) = 46.75989 46.75989 24.09452
#
# Poissons Ratio (x) = -0.02300 0.32215
# Poissons Ratio (y) = -0.02300 0.32215
# Poissons Ratio (z) = 0.62519 0.62519
#
# Static dielectric constant tensor:
#      x y z
#    x 1.793030 0.000000 0.000000 
#    y 0.000000 1.793030 0.000000 
#    z 0.000000 0.000000 1.907820 
# 
# From -- ./inp_files/3732.got.cif
#   From: 2010.05.17/outbox.cif.g08.bks.cpg/sg152_2_cif.got.tgz:3732.got - 2010.05.20 10:36:06.
