data_PCOD9575572
_publ_section_title
;
Structure prediction by ZEFSAII (Michael W. Deem and Ramdas Pophale) SiO2 
 PCOD9575572
Probable space group: P 31 1 2
;
_chemical_formula_sum "Si O2"
_cell_formula_units_Z 30
_cell_length_a 7.621337
_cell_length_b 7.621337
_cell_length_c 22.429246
_cell_angle_alpha 90.000000
_cell_angle_beta 90.000000
_cell_angle_gamma 120.000000
_cell_volume 1128.255962
_symmetry_space_group_name_H-M "P 31 1 2"
_symmetry_group_IT_number 151
_symmetry_cell_setting 'hexagonal'
loop_
_space_group_symop_operation_xyz
x,y,z
-y,x-y,1/3+z
-x+y,-x,2/3+z
-y,-x,2/3-z
-x+y,y,1/3-z
x,x-y,-z
loop_
_atom_site_type_symbol
_atom_site_label
_atom_site_fract_x
_atom_site_fract_y
_atom_site_fract_z
Si Si1 0.028540 0.615389 0.257158
Si Si2 0.317300 0.023640 0.759668
Si Si3 0.664486 0.328971 0.166667
Si Si4 0.098087 0.098626 0.436288
Si Si5 0.352952 0.676476 0.500000
Si Si6 0.234724 0.329918 0.990539
O O1 0.842523 0.448099 0.216510
O O2 0.966504 0.779397 0.274698
O O3 0.229793 0.729762 0.215812
O O4 0.065967 0.503334 0.312298
O O5 0.468005 0.240955 0.789223
O O6 0.085350 0.957780 0.772627
O O7 0.368108 0.871657 0.793859
O O8 0.286841 0.949361 0.691199
O O9 0.188374 0.094187 0.500000
O O10 0.118582 0.306544 0.413441
O O11 0.231178 0.115589 0.000000
#
# Coordination Sequence:
#
# PCOD9575572 Si02
#       6
#     6   6   3   6   3   6
#     4  10  20  37  63  91 128 166 221 276 337 394
#     4   9  18  36  59  87 125 165 215 260 325 396
#     4  10  20  34  66 102 122 168 224 274 320 412
#     4  11  21  38  63  93 128 172 219 270 334 410
#     4   8  16  34  60  80 118 170 208 260 330 394
#     4   9  21  39  62  88 128 175 215 271 339 400
#
# _framework density 26.589708999999999
#
# number of rings (size 3 to 8) (size 9 to 14) (size 15 to 20)
#    0.000    2.400    2.000    0.000    2.800    2.400 
#    0.000    0.000    4.400    2.400    0.000    0.000 
#    0.000    0.000    0.000    0.000    0.000    0.000 
#
# Total GULP energy -167210.647128 kJ/mol
# GULP energy per Si atom -5573.688238 kJ/mol
# Density = 2.652919 g / cm^3
# Si number density = 26.589709 Si / 1000 Ang^3
#
#
#
# Elastic Constant Matrix: (Units=GPa)
#
#
# Indices 1 2 3 4 5 6 
#
# 1 82.3530 17.7639 25.2202 -0.0002 -18.3043 0.0000
# 2 17.7639 82.3530 25.2202 0.0002 18.3043 0.0000
# 3 25.2202 25.2202 96.6724 0.0000 0.0000 0.0000
# 4 -0.0002 0.0002 0.0000 22.8413 0.0000 18.3043
# 5 -18.3043 18.3043 0.0000 0.0000 22.8413 -0.0002
# 6 0.0000 0.0000 0.0000 18.3043 -0.0002 32.2946
#
#
#
# Elastic Compliance Matrix: (Units=1/GPa)
#
#
# Indices 1 2 3 4 5 6 
#
# 1 0.019933 -0.008434 -0.003000 0.000000 0.022732 0.000000
# 2 -0.008434 0.019933 -0.003000 0.000000 -0.022732 0.000000
# 3 -0.003000 -0.003000 0.011910 0.000000 0.000000 0.000000
# 4 0.000000 0.000000 0.000000 0.080215 0.000000 -0.045465
# 5 0.022732 -0.022732 0.000000 0.000000 0.080215 0.000000
# 6 0.000000 0.000000 0.000000 -0.045465 0.000000 0.056734
#
#
# Mechanical properties :
#
#
# Convention : Reuss Voigt Hill
#
# Bulk Modulus (GPa) = 43.65136 44.19853 43.92494
# Shear Modulus (GPa) = 16.36963 28.47370 22.42167
#
# Velocity S-wave (km/s) = 2.48390 3.27594 2.90702
# Velocity P-wave (km/s) = 4.96776 5.56485 5.27476
#
# Compressibility (1/GPa) = 0.02290879
#
# Stress axis : x y z
#
# Youngs Moduli (GPa) = 50.16692 50.16692 83.96608
#
# Poissons Ratio (x) = 0.42309 0.25191
# Poissons Ratio (y) = 0.42309 0.25191
# Poissons Ratio (z) = 0.15051 0.15051
#
# Static dielectric constant tensor:
#      x y z
#    x 2.146600 0.000000 0.000000 
#    y 0.000000 2.146600 0.000000 
#    z 0.000000 0.000000 2.300380 
# 
# From -- ./inp_files/4232.got.cif
#   From: 2010.05.17/outbox.cif.g08.bks.cpg/sg151_3_cif.got.tgz:4232.got - 2010.05.20 10:33:20.
