data_PCOD9575120
_publ_section_title
;
Structure prediction by ZEFSAII (Michael W. Deem and Ramdas Pophale) SiO2 
 PCOD9575120
Probable space group: R -3
;
_chemical_formula_sum "Si O2"
_cell_formula_units_Z 108
_cell_length_a 18.489307
_cell_length_b 18.489307
_cell_length_c 16.250928
_cell_angle_alpha 90.000000
_cell_angle_beta 90.000000
_cell_angle_gamma 120.000000
_cell_volume 4811.162936
_symmetry_space_group_name_H-M "R -3"
_symmetry_group_IT_number 148
_symmetry_cell_setting 'hexagonal'
loop_
_space_group_symop_operation_xyz
x,y,z
-y,x-y,z
-x+y,-x,z
-x,-y,-z
y,-x+y,-z
x-y,x,-z
2/3+x,1/3+y,1/3+z
2/3-y,1/3+x-y,1/3+z
2/3-x+y,1/3-x,1/3+z
2/3-x,1/3-y,1/3-z
2/3+y,1/3-x+y,1/3-z
2/3+x-y,1/3+x,1/3-z
1/3+x,2/3+y,2/3+z
1/3-y,2/3+x-y,2/3+z
1/3-x+y,2/3-x,2/3+z
1/3-x,2/3-y,2/3-z
1/3+y,2/3-x+y,2/3-z
1/3+x-y,2/3+x,2/3-z
loop_
_atom_site_type_symbol
_atom_site_label
_atom_site_fract_x
_atom_site_fract_y
_atom_site_fract_z
Si Si1 0.081208 0.391392 0.382802
Si Si2 0.534757 0.744808 0.084033
Si Si3 0.217820 0.474718 0.269129
Si Si4 0.844472 0.158242 0.270568
Si Si5 0.951154 0.134957 0.991446
Si Si6 0.960990 0.628869 0.445145
O O1 0.171674 0.417627 0.347749
O O2 0.080651 0.474991 0.413499
O O3 0.045055 0.336512 0.465198
O O4 0.025403 0.361864 0.299369
O O5 0.564249 0.757634 0.178216
O O6 0.481383 0.791789 0.069460
O O7 0.470730 0.649561 0.060513
O O8 0.615593 0.782498 0.027180
O O9 0.766838 0.173483 0.279382
O O10 0.915479 0.233597 0.219090
O O11 0.972356 0.200181 0.916809
O O12 0.038039 0.149104 0.027375
#
# Coordination Sequence:
#
# PCOD9575120 Si02
#       6
#    18  18  18  18  18  18
#     4  10  21  37  57  83 118 156 204 259 305 372
#     4   9  17  33  59  85 122 164 203 256 311 375
#     4   9  18  33  56  87 122 157 207 254 311 364
#     4   9  19  36  59  83 116 161 203 242 311 379
#     4   9  18  36  62  91 117 157 203 258 313 367
#     4  10  21  37  58  83 119 160 206 251 312 370
#
# _framework density 22.447793999999998
#
# number of rings (size 3 to 8) (size 9 to 14) (size 15 to 20)
#    0.000    2.667    0.000    1.000    2.333    1.333 
#    0.000   14.167    0.000    0.000    0.000    0.000 
#    0.000    0.000    0.000    0.000    0.000    0.000 
#
# Total GULP energy -200708.119731 kJ/mol
# GULP energy per Si atom -5575.225548 kJ/mol
# Density = 2.239670 g / cm^3
# Si number density = 22.447794 Si / 1000 Ang^3
#
#
#
# Elastic Constant Matrix: (Units=GPa)
#
#
# Indices 1 2 3 4 5 6 
#
# 1 82.6113 23.3659 29.5157 -1.8131 1.0195 0.0000
# 2 23.3659 82.6113 29.5157 1.8131 -1.0195 0.0000
# 3 29.5157 29.5157 138.0084 0.0000 0.0000 0.0000
# 4 -1.8131 1.8131 0.0000 17.8648 0.0000 -1.0195
# 5 1.0195 -1.0195 0.0000 0.0000 17.8648 -1.8131
# 6 0.0000 0.0000 0.0000 -1.0195 -1.8131 29.6227
#
#
#
# Elastic Compliance Matrix: (Units=1/GPa)
#
#
# Indices 1 2 3 4 5 6 
#
# 1 0.013865 -0.003153 -0.002291 0.001727 -0.000971 0.000000
# 2 -0.003153 0.013865 -0.002291 -0.001727 0.000971 0.000000
# 3 -0.002291 -0.002291 0.008226 0.000000 0.000000 0.000000
# 4 0.001727 -0.001727 0.000000 0.056437 0.000000 0.001942
# 5 -0.000971 0.000971 0.000000 0.000000 0.056437 0.003454
# 6 0.000000 0.000000 0.000000 0.001942 0.003454 0.034036
#
#
# Mechanical properties :
#
#
# Convention : Reuss Voigt Hill
#
# Bulk Modulus (GPa) = 48.81346 52.00285 50.40816
# Shear Modulus (GPa) = 24.37053 27.79271 26.08162
#
# Velocity S-wave (km/s) = 3.29850 3.52249 3.41233
# Velocity P-wave (km/s) = 6.02489 6.30558 6.16683
#
# Compressibility (1/GPa) = 0.02048615
#
# Stress axis : x y z
#
# Youngs Moduli (GPa) = 72.12355 72.12355 121.56756
#
# Poissons Ratio (x) = 0.22740 0.27851
# Poissons Ratio (y) = 0.22740 0.27851
# Poissons Ratio (z) = 0.16523 0.16523
#
# Static dielectric constant tensor:
#      x y z
#    x 1.864400 0.000000 0.000000 
#    y 0.000000 1.864400 0.000000 
#    z 0.000000 0.000000 1.915940 
# 
# From -- ./inp_files/2060.got.cif
#   From: 2010.05.17/outbox.cif.g08.bks.cpg/sg148_2_cif.got.tgz:2060.got - 2010.05.20 13:50:20.
