data_PCOD9575720
_publ_section_title
;
Structure prediction by ZEFSAII (Michael W. Deem and Ramdas Pophale) SiO2 
 PCOD9575720
Probable space group: P 31 2 1
;
_chemical_formula_sum "Si O2"
_cell_formula_units_Z 42
_cell_length_a 8.144986
_cell_length_b 8.144986
_cell_length_c 33.457686
_cell_angle_alpha 90.000000
_cell_angle_beta 90.000000
_cell_angle_gamma 120.000000
_cell_volume 1922.238259
_symmetry_space_group_name_H-M "P 31 2 1"
_symmetry_group_IT_number 152
_symmetry_cell_setting 'hexagonal'
loop_
_space_group_symop_operation_xyz
x,y,z
-y,x-y,1/3+z
-x+y,-x,2/3+z
x-y,-y,2/3-z
-x,-x+y,1/3-z
y,x,-z
loop_
_atom_site_type_symbol
_atom_site_label
_atom_site_fract_x
_atom_site_fract_y
_atom_site_fract_z
Si Si1 0.135846 0.825372 0.401161
Si Si2 0.042027 0.308409 0.461585
Si Si3 0.221067 0.618531 0.178687
Si Si4 0.892258 0.676574 0.332130
Si Si5 0.037340 0.780394 0.845492
Si Si6 0.026367 0.458718 0.952638
Si Si7 0.241545 0.354603 0.584346
O O1 0.017840 0.838677 0.363870
O O2 0.010364 0.763436 0.441023
O O3 0.156422 0.645977 0.388226
O O4 0.311076 0.028768 0.408659
O O5 0.942133 0.342440 0.423836
O O6 0.187715 0.496053 0.486527
O O7 0.182742 0.235934 0.442993
O O8 0.874005 0.156823 0.488914
O O9 0.302901 0.479510 0.169938
O O10 0.201224 0.655830 0.225294
O O11 0.000000 0.503172 0.166667
O O12 0.713486 0.681391 0.315561
O O13 0.834583 0.488534 0.358765
O O14 0.012348 0.677116 0.293495
O O15 0.158401 0.000000 0.833334
#
# Coordination Sequence:
#
# PCOD9575720 Si02
#       7
#     6   6   6   6   6   6   6
#     4  10  20  35  60  90 114 160 209 258 318 373
#     4  10  18  39  58  86 129 162 206 264 318 382
#     4   9  19  31  58  94 122 161 205 262 323 372
#     4   9  21  37  60  90 119 160 212 257 313 378
#     4  11  19  34  61  93 124 160 216 259 312 399
#     4   9  22  38  62  85 124 161 204 257 319 373
#     4  10  17  35  63  90 117 161 214 271 310 383
#
# _framework density 21.849527999999999
#
# number of rings (size 3 to 8) (size 9 to 14) (size 15 to 20)
#    0.857    1.429    2.857    0.857    2.000    0.000 
#    2.571    0.000    6.286    0.000    0.000    0.000 
#    0.000    0.000    0.000    0.000    0.000    0.000 
#
# Total GULP energy -234027.279767 kJ/mol
# GULP energy per Si atom -5572.078090 kJ/mol
# Density = 2.179980 g / cm^3
# Si number density = 21.849528 Si / 1000 Ang^3
#
#
#
# Elastic Constant Matrix: (Units=GPa)
#
#
# Indices 1 2 3 4 5 6 
#
# 1 75.2088 17.8132 32.2490 0.5572 -0.0001 0.0000
# 2 17.8132 75.2088 32.2490 -0.5572 0.0001 0.0000
# 3 32.2490 32.2490 137.8194 0.0000 0.0000 0.0000
# 4 0.5572 -0.5572 0.0000 21.5374 0.0000 0.0001
# 5 -0.0001 0.0001 0.0000 0.0000 21.5374 0.5572
# 6 0.0000 0.0000 0.0000 0.0001 0.5572 28.6978
#
#
#
# Elastic Compliance Matrix: (Units=1/GPa)
#
#
# Indices 1 2 3 4 5 6 
#
# 1 0.015132 -0.002300 -0.003003 -0.000451 0.000000 0.000000
# 2 -0.002300 0.015132 -0.003003 0.000451 0.000000 0.000000
# 3 -0.003003 -0.003003 0.008661 0.000000 0.000000 0.000000
# 4 -0.000451 0.000451 0.000000 0.046454 0.000000 0.000000
# 5 0.000000 0.000000 0.000000 0.000000 0.046454 -0.000902
# 6 0.000000 0.000000 0.000000 0.000000 -0.000902 0.034863
#
#
# Mechanical properties :
#
#
# Convention : Reuss Voigt Hill
#
# Bulk Modulus (GPa) = 44.81358 50.31769 47.56564
# Shear Modulus (GPa) = 26.21300 28.08289 27.14795
#
# Velocity S-wave (km/s) = 3.46743 3.58898 3.52873
# Velocity P-wave (km/s) = 6.04859 6.34457 6.19834
#
# Compressibility (1/GPa) = 0.02231466
#
# Stress axis : x y z
#
# Youngs Moduli (GPa) = 66.08560 66.08560 115.45914
#
# Poissons Ratio (x) = 0.15199 0.34668
# Poissons Ratio (y) = 0.15199 0.34668
# Poissons Ratio (z) = 0.19843 0.19843
#
# Static dielectric constant tensor:
#      x y z
#    x 1.827990 0.000000 0.000000 
#    y 0.000000 1.827990 0.000000 
#    z 0.000000 0.000000 1.809520 
# 
# From -- ./inp_files/3712.got.cif
#   From: 2010.05.17/outbox.cif.g08.bks.cpg/sg152_2_cif.got.tgz:3712.got - 2010.05.20 10:36:06.
