data_PCOD9575499
_publ_section_title
;
Structure prediction by ZEFSAII (Michael W. Deem and Ramdas Pophale) SiO2 
 PCOD9575499
Probable space group: P 31 1 2
;
_chemical_formula_sum "Si O2"
_cell_formula_units_Z 39
_cell_length_a 10.182652
_cell_length_b 10.182652
_cell_length_c 18.315281
_cell_angle_alpha 90.000000
_cell_angle_beta 90.000000
_cell_angle_gamma 120.000000
_cell_volume 1644.621719
_symmetry_space_group_name_H-M "P 31 1 2"
_symmetry_group_IT_number 151
_symmetry_cell_setting 'hexagonal'
loop_
_space_group_symop_operation_xyz
x,y,z
-y,x-y,1/3+z
-x+y,-x,2/3+z
-y,-x,2/3-z
-x+y,y,1/3-z
x,x-y,-z
loop_
_atom_site_type_symbol
_atom_site_label
_atom_site_fract_x
_atom_site_fract_y
_atom_site_fract_z
Si Si1 0.996738 0.993476 0.666667
Si Si2 0.577936 0.354331 0.565832
Si Si3 0.527893 0.832369 0.223597
Si Si4 0.693596 0.675758 0.504678
Si Si5 0.158852 0.359002 0.035768
Si Si6 0.172130 0.979673 0.203816
Si Si7 0.889204 0.383866 0.613828
O O1 0.040382 0.100792 0.738422
O O2 0.084764 0.898611 0.674861
O O3 0.486248 0.243124 0.500000
O O4 0.666090 0.517947 0.530250
O O5 0.717651 0.333449 0.592018
O O6 0.485828 0.365345 0.632809
O O7 0.386092 0.772183 0.166667
O O8 0.530426 0.754804 0.299924
O O9 0.674434 0.855289 0.179040
O O10 0.549590 0.995482 0.251148
O O11 0.643941 0.673177 0.420745
O O12 0.610749 0.720934 0.566322
O O13 0.872698 0.796745 0.508959
O O14 0.329040 0.047652 0.248913
#
# Coordination Sequence:
#
# PCOD9575499 Si02
#       7
#     3   6   6   6   6   6   6
#     4  10  22  32  52  74 122 160 192 256 306 388
#     4  11  18  30  53  80 111 156 187 245 302 372
#     4  10  18  31  54  84 113 150 201 245 297 375
#     4  10  18  31  50  78 119 151 195 237 314 369
#     4  10  20  31  50  82 118 158 192 248 304 380
#     4  10  19  34  48  78 111 160 193 243 309 373
#     4  10  19  29  54  79 111 146 196 247 293 374
#
# _framework density 23.713659
#
# number of rings (size 3 to 8) (size 9 to 14) (size 15 to 20)
#    0.000    1.846    4.615    1.385    0.000    1.846 
#    0.000    0.000   13.538    0.000    0.000   12.923 
#    0.000    0.000    1.231    0.000    0.000    0.000 
#
# Total GULP energy -217653.562473 kJ/mol
# GULP energy per Si atom -5580.860576 kJ/mol
# Density = 2.365969 g / cm^3
# Si number density = 23.713659 Si / 1000 Ang^3
#
#
#
# Elastic Constant Matrix: (Units=GPa)
#
#
# Indices 1 2 3 4 5 6 
#
# 1 34.9524 15.9313 37.3783 -0.0001 6.8879 0.0000
# 2 15.9313 34.9524 37.3783 0.0001 -6.8879 0.0000
# 3 37.3783 37.3783 185.4789 0.0000 0.0000 0.0000
# 4 -0.0001 0.0001 0.0000 28.0614 0.0000 -6.8879
# 5 6.8879 -6.8879 0.0000 0.0000 28.0614 -0.0001
# 6 0.0000 0.0000 0.0000 -6.8879 -0.0001 9.5106
#
#
#
# Elastic Compliance Matrix: (Units=1/GPa)
#
#
# Indices 1 2 3 4 5 6 
#
# 1 0.045929 -0.018011 -0.005626 0.000000 -0.015695 0.000000
# 2 -0.018011 0.045929 -0.005626 0.000000 0.015695 0.000000
# 3 -0.005626 -0.005626 0.007659 0.000000 0.000000 0.000000
# 4 0.000000 0.000000 0.000000 0.043341 0.000000 0.031389
# 5 -0.015695 0.015695 0.000000 0.000000 0.043341 0.000001
# 6 0.000000 0.000000 0.000000 0.031389 0.000001 0.127879
#
#
# Mechanical properties :
#
#
# Convention : Reuss Voigt Hill
#
# Bulk Modulus (GPa) = 24.39551 48.52885 36.46218
# Shear Modulus (GPa) = 12.94437 24.10639 18.52538
#
# Velocity S-wave (km/s) = 2.33890 3.19182 2.79805
# Velocity P-wave (km/s) = 4.19569 5.83888 5.08411
#
# Compressibility (1/GPa) = 0.04099115
#
# Stress axis : x y z
#
# Youngs Moduli (GPa) = 21.77269 21.77269 130.56409
#
# Poissons Ratio (x) = 0.39214 0.73458
# Poissons Ratio (y) = 0.39214 0.73458
# Poissons Ratio (z) = 0.12250 0.12250
#
# Static dielectric constant tensor:
#      x y z
#    x 1.926300 0.000000 0.000000 
#    y 0.000000 1.926300 0.000000 
#    z 0.000000 0.000000 1.954050 
# 
# From -- ./inp_files/3504.got.cif
#   From: 2010.05.17/outbox.cif.g08.bks.cpg/sg151_2_cif.got.tgz:3504.got - 2010.05.20 10:33:20.
