data_PCOD9575478
_publ_section_title
;
Structure prediction by ZEFSAII (Michael W. Deem and Ramdas Pophale) SiO2 
 PCOD9575478
Probable space group: P 3 2 1
;
_chemical_formula_sum "Si O2"
_cell_formula_units_Z 36
_cell_length_a 12.050626
_cell_length_b 12.050626
_cell_length_c 14.047238
_cell_angle_alpha 90.000000
_cell_angle_beta 90.000000
_cell_angle_gamma 120.000000
_cell_volume 1766.610423
_symmetry_space_group_name_H-M "P 3 2 1"
_symmetry_group_IT_number 150
_symmetry_cell_setting 'hexagonal'
loop_
_space_group_symop_operation_xyz
x,y,z
-y,x-y,z
-x+y,-x,z
x-y,-y,-z
-x,-x+y,-z
y,x,-z
loop_
_atom_site_type_symbol
_atom_site_label
_atom_site_fract_x
_atom_site_fract_y
_atom_site_fract_z
Si Si1 0.406214 0.079902 0.720574
Si Si2 0.000000 0.000000 0.616916
Si Si3 0.303604 0.378160 0.898574
Si Si4 0.070062 0.431330 0.900197
Si Si5 0.489450 0.426463 0.398073
Si Si6 0.221739 0.252385 0.295123
Si Si7 0.666668 0.333335 0.460801
Si Si8 0.333335 0.666668 0.309216
O O1 0.320340 0.137709 0.685259
O O2 0.550601 0.199424 0.725974
O O3 0.351204 0.019402 0.821721
O O4 0.418418 0.973766 0.659925
O O5 0.025100 0.889177 0.660666
O O6 0.000000 0.000000 0.500000
O O7 0.198906 0.423976 0.905814
O O8 0.434584 0.510759 0.873854
O O9 0.262018 0.270704 0.814857
O O10 0.327044 0.327044 0.000000
O O11 0.000000 0.391665 0.000000
O O12 0.473236 0.473236 0.500000
O O13 0.354086 0.341529 0.348894
O O14 0.545999 0.335126 0.418666
O O15 0.666668 0.333334 0.575373
#
# Coordination Sequence:
#
# PCOD9575478 Si02
#       8
#     6   2   6   6   6   6   2   2
#     4  12  23  43  70  98 140 182 238 301 366 436
#     4  12  30  48  73  98 148 201 249 309 370 467
#     4  11  24  45  71 107 147 187 247 303 368 445
#     4  11  24  42  69 103 138 188 232 300 363 430
#     4  12  26  43  69 101 139 183 239 304 360 440
#     4  12  26  47  69 103 141 193 245 300 375 445
#     4  12  27  42  69 103 140 190 240 303 372 427
#     4  12  21  45  66 103 137 181 240 300 372 430
#
# _framework density 20.378007
#
# number of rings (size 3 to 8) (size 9 to 14) (size 15 to 20)
#    0.000    0.333    5.000    2.833    4.667    2.000 
#    0.000    0.000    0.000    1.333    0.000    0.000 
#    0.000    0.000    0.000    0.000    0.000    0.000 
#
# Total GULP energy -201106.173330 kJ/mol
# GULP energy per Si atom -5586.282593 kJ/mol
# Density = 2.033163 g / cm^3
# Si number density = 20.378007 Si / 1000 Ang^3
#
#
#
# Elastic Constant Matrix: (Units=GPa)
#
#
# Indices 1 2 3 4 5 6 
#
# 1 -31.4770 124.5904 27.4058 137.2046 0.0000 0.0000
# 2 124.5904 -31.5135 27.3851 -137.2280 0.0000 0.0000
# 3 27.4058 27.3851 107.2084 -0.0124 0.0000 0.0000
# 4 137.2046 -137.2280 -0.0124 -121.4302 0.0000 0.0000
# 5 0.0000 0.0000 0.0000 0.0000 -122.1030 137.7437
# 6 0.0000 0.0000 0.0000 0.0000 137.7437 -78.4545
#
#
#
# Elastic Compliance Matrix: (Units=1/GPa)
#
#
# Indices 1 2 3 4 5 6 
#
# 1 0.009568 0.003075 -0.003231 0.007336 0.000000 0.000000
# 2 0.003075 0.009567 -0.003231 -0.007337 0.000000 0.000000
# 3 -0.003231 -0.003231 0.010979 0.000000 0.000000 0.000000
# 4 0.007336 -0.007337 0.000000 0.008345 0.000000 0.000000
# 5 0.000000 0.000000 0.000000 0.000000 0.008352 0.014663
# 6 0.000000 0.000000 0.000000 0.000000 0.014663 0.012998
#
#
# Mechanical properties :
#
#
# Convention : Reuss Voigt Hill
#
# Bulk Modulus (GPa) = 42.84118 44.77561 43.80840
# Shear Modulus (GPa) = 67.23780 -73.40842 -3.08531
#
# Velocity S-wave (km/s) = 5.75038 -6.00846 -1.23180
# Velocity P-wave (km/s) = 8.07206 5.11030 4.41831
#
# Compressibility (1/GPa) = 0.02334203
#
# Stress axis : x y z
#
# Youngs Moduli (GPa) = 104.51115 104.52259 91.08489
#
# Poissons Ratio (x) = -0.32144 0.29427
# Poissons Ratio (y) = -0.32140 0.29428
# Poissons Ratio (z) = 0.33764 0.33770
#
# Static dielectric constant tensor:
#      x y z
#    x 1.715670 0.000000 0.000000 
#    y 0.000000 1.715670 0.000000 
#    z 0.000000 0.000000 1.716360 
# 
# From -- ./inp_files/1044.got.cif
#   From: 2010.05.17/outbox.cif.g08.bks.cpg/sg150_cif.got.tgz:1044.got - 2010.05.20 13:53:18.
