data_PCOD9575032
_publ_section_title
;
Structure prediction by ZEFSAII (Michael W. Deem and Ramdas Pophale) SiO2 
 PCOD9575032
Probable space group: R -3
;
_chemical_formula_sum "Si O2"
_cell_formula_units_Z 126
_cell_length_a 22.388076
_cell_length_b 22.388076
_cell_length_c 18.541607
_cell_angle_alpha 90.000000
_cell_angle_beta 90.000000
_cell_angle_gamma 120.000000
_cell_volume 8048.436991
_symmetry_space_group_name_H-M "R -3"
_symmetry_group_IT_number 148
_symmetry_cell_setting 'hexagonal'
loop_
_space_group_symop_operation_xyz
x,y,z
-y,x-y,z
-x+y,-x,z
-x,-y,-z
y,-x+y,-z
x-y,x,-z
2/3+x,1/3+y,1/3+z
2/3-y,1/3+x-y,1/3+z
2/3-x+y,1/3-x,1/3+z
2/3-x,1/3-y,1/3-z
2/3+y,1/3-x+y,1/3-z
2/3+x-y,1/3+x,1/3-z
1/3+x,2/3+y,2/3+z
1/3-y,2/3+x-y,2/3+z
1/3-x+y,2/3-x,2/3+z
1/3-x,2/3-y,2/3-z
1/3+y,2/3-x+y,2/3-z
1/3+x-y,2/3+x,2/3-z
loop_
_atom_site_type_symbol
_atom_site_label
_atom_site_fract_x
_atom_site_fract_y
_atom_site_fract_z
Si Si1 0.859883 0.860529 0.783772
Si Si2 0.472804 0.806784 0.450439
Si Si3 0.563271 0.711595 0.738892
Si Si4 0.666667 0.691974 0.833333
Si Si5 0.956992 0.547557 0.072790
Si Si6 0.621738 0.103396 0.405558
Si Si7 0.257232 0.880891 0.406123
O O1 0.938383 0.876766 0.783817
O O2 0.827278 0.838223 0.864113
O O3 0.815785 0.792296 0.735017
O O4 0.854449 0.927225 0.762898
O O5 0.495110 0.839389 0.530780
O O6 0.541037 0.850882 0.401684
O O7 0.631645 0.715810 0.772412
O O8 0.539912 0.666667 0.666667
O O9 0.574111 0.787055 0.725031
O O10 0.606866 0.622914 0.868117
O O11 0.701689 0.750832 0.894255
O O12 0.726467 0.682715 0.798549
O O13 0.964307 0.482153 0.095013
O O14 0.000000 0.577742 0.000000
#
# Coordination Sequence:
#
# PCOD9575032 Si02
#       7
#    18  18  18  18  18  18  18
#     4   9  17  29  46  68  93 122 154 186 221 264
#     4   9  17  29  46  68  93 122 154 186 221 264
#     4  10  19  30  45  66  94 124 153 185 222 264
#     4  10  19  32  48  68  88 116 153 188 224 266
#     4   9  18  33  49  65  89 118 147 183 227 269
#     4  10  19  30  45  66  94 124 153 185 222 264
#     4   9  18  33  49  65  89 118 147 183 227 269
#
# _framework density 15.655214000000001
#
# number of rings (size 3 to 8) (size 9 to 14) (size 15 to 20)
#    0.000    2.571    0.000    2.429    0.000    2.286 
#    0.000    1.429    0.000    4.571    0.000    0.000 
#    0.000    0.000    0.000   21.000    0.000    0.000 
#
# Total GULP energy -233989.711517 kJ/mol
# GULP energy per Si atom -5571.183608 kJ/mol
# Density = 1.561958 g / cm^3
# Si number density = 15.655214 Si / 1000 Ang^3
#
#
#
# Elastic Constant Matrix: (Units=GPa)
#
#
# Indices 1 2 3 4 5 6 
#
# 1 98.0946 65.9247 57.4177 2.8532 0.0000 0.0000
# 2 65.9247 98.0946 57.4177 -2.8532 0.0000 0.0000
# 3 57.4177 57.4177 70.0611 0.0000 0.0000 0.0000
# 4 2.8532 -2.8532 0.0000 23.4336 0.0000 0.0000
# 5 0.0000 0.0000 0.0000 0.0000 23.4336 2.8532
# 6 0.0000 0.0000 0.0000 0.0000 2.8532 16.0850
#
#
#
# Elastic Compliance Matrix: (Units=1/GPa)
#
#
# Indices 1 2 3 4 5 6 
#
# 1 0.023038 -0.008733 -0.011723 -0.003868 0.000000 0.000000
# 2 -0.008733 0.023038 -0.011723 0.003868 0.000000 0.000000
# 3 -0.011723 -0.011723 0.033488 0.000000 0.000000 0.000000
# 4 -0.003868 0.003868 0.000000 0.043616 0.000000 0.000000
# 5 0.000000 0.000000 0.000000 0.000000 0.043616 -0.007737
# 6 0.000000 0.000000 0.000000 0.000000 -0.007737 0.063542
#
#
# Mechanical properties :
#
#
# Convention : Reuss Voigt Hill
#
# Bulk Modulus (GPa) = 65.76802 69.75228 67.76015
# Shear Modulus (GPa) = 16.67971 18.28980 17.48475
#
# Velocity S-wave (km/s) = 3.26765 3.42173 3.34558
# Velocity P-wave (km/s) = 7.50588 7.76293 7.63548
#
# Compressibility (1/GPa) = 0.01520496
#
# Stress axis : x y z
#
# Youngs Moduli (GPa) = 43.40675 43.40675 29.86105
#
# Poissons Ratio (x) = 0.37908 0.35007
# Poissons Ratio (y) = 0.37908 0.35007
# Poissons Ratio (z) = 0.50887 0.50887
#
# Static dielectric constant tensor:
#      x y z
#    x 1.527400 0.000000 0.000000 
#    y 0.000000 1.527400 0.000000 
#    z 0.000000 0.000000 1.498100 
# 
# From -- ./inp_files/2810.got.cif
#   From: 2010.05.17/outbox.cif.g08.bks.cpg/sg148_2_cif.got.tgz:2810.got - 2010.05.20 13:50:20.
