data_PCOD9575001
_publ_section_title
;
Structure prediction by ZEFSAII (Michael W. Deem and Ramdas Pophale) SiO2 
 PCOD9575001
Probable space group: R -3
;
_chemical_formula_sum "Si O2"
_cell_formula_units_Z 126
_cell_length_a 25.101782
_cell_length_b 25.101782
_cell_length_c 11.910352
_cell_angle_alpha 90.000000
_cell_angle_beta 90.000000
_cell_angle_gamma 120.000000
_cell_volume 6499.266354
_symmetry_space_group_name_H-M "R -3"
_symmetry_group_IT_number 148
_symmetry_cell_setting 'hexagonal'
loop_
_space_group_symop_operation_xyz
x,y,z
-y,x-y,z
-x+y,-x,z
-x,-y,-z
y,-x+y,-z
x-y,x,-z
2/3+x,1/3+y,1/3+z
2/3-y,1/3+x-y,1/3+z
2/3-x+y,1/3-x,1/3+z
2/3-x,1/3-y,1/3-z
2/3+y,1/3-x+y,1/3-z
2/3+x-y,1/3+x,1/3-z
1/3+x,2/3+y,2/3+z
1/3-y,2/3+x-y,2/3+z
1/3-x+y,2/3-x,2/3+z
1/3-x,2/3-y,2/3-z
1/3+y,2/3-x+y,2/3-z
1/3+x-y,2/3+x,2/3-z
loop_
_atom_site_type_symbol
_atom_site_label
_atom_site_fract_x
_atom_site_fract_y
_atom_site_fract_z
Si Si1 0.930433 0.317302 0.451789
Si Si2 0.089127 0.689458 0.158947
Si Si3 0.775388 0.081925 0.104742
Si Si4 0.399766 0.570331 0.293595
Si Si5 0.453450 0.959902 0.336635
Si Si6 0.699156 0.198180 0.713640
Si Si7 0.121803 0.505984 0.955247
O O1 0.917761 0.305625 0.319186
O O2 0.965716 0.385687 0.504653
O O3 0.865040 0.283045 0.514056
O O4 0.976161 0.291201 0.481882
O O5 0.117901 0.655651 0.086316
O O6 0.128526 0.710682 0.273079
O O7 0.106037 0.749784 0.085382
O O8 0.820802 0.144664 0.038950
O O9 0.810661 0.080356 0.215201
O O10 0.445465 0.542602 0.286961
O O11 0.441130 0.639858 0.335507
O O12 0.381668 0.569667 0.163786
O O13 0.341993 0.523423 0.366658
O O14 0.759788 0.225212 0.639324
#
# Coordination Sequence:
#
# PCOD9575001 Si02
#       7
#    18  18  18  18  18  18  18
#     4  12  22  39  58  87 123 158 210 248 313 365
#     4  10  21  36  58  84 122 160 196 257 310 369
#     4  11  23  38  60  85 116 166 208 254 302 371
#     4  10  17  35  57  83 121 158 194 255 311 362
#     4  10  20  39  57  80 119 161 203 247 312 361
#     4  10  18  33  58  87 119 158 198 241 321 367
#     4  11  21  36  59  87 125 157 199 260 306 373
#
# _framework density 19.386803
#
# number of rings (size 3 to 8) (size 9 to 14) (size 15 to 20)
#    0.000    1.429    7.143    1.714    0.000    0.571 
#    0.857    5.000    0.000    0.000    0.000    0.000 
#    0.000    1.143    0.000    0.000    0.000    0.000 
#
# Total GULP energy -234222.465106 kJ/mol
# GULP energy per Si atom -5576.725360 kJ/mol
# Density = 1.934268 g / cm^3
# Si number density = 19.386803 Si / 1000 Ang^3
#
#
#
# Elastic Constant Matrix: (Units=GPa)
#
#
# Indices 1 2 3 4 5 6 
#
# 1 55.6907 4.5348 21.8288 5.2530 -3.2271 0.0000
# 2 4.5348 55.6909 21.8294 -5.2530 3.2267 0.0000
# 3 21.8288 21.8294 76.2185 -0.0001 -0.0007 0.0000
# 4 5.2530 -5.2530 -0.0001 17.7643 0.0000 3.2268
# 5 -3.2271 3.2267 -0.0007 0.0000 17.7640 5.2530
# 6 0.0000 0.0000 0.0000 3.2268 5.2530 25.5780
#
#
#
# Elastic Compliance Matrix: (Units=1/GPa)
#
#
# Indices 1 2 3 4 5 6 
#
# 1 0.021144 -0.000189 -0.006001 -0.006308 0.003875 0.000000
# 2 -0.000189 0.021144 -0.006002 0.006308 -0.003875 0.000000
# 3 -0.006001 -0.006002 0.016558 0.000000 0.000001 0.000000
# 4 -0.006308 0.006308 0.000000 0.061431 0.000000 -0.007750
# 5 0.003875 -0.003875 0.000001 0.000000 0.061432 -0.012616
# 6 0.000000 0.000000 0.000000 -0.007750 -0.012616 0.042665
#
#
# Mechanical properties :
#
#
# Convention : Reuss Voigt Hill
#
# Bulk Modulus (GPa) = 29.01792 31.55401 30.28597
# Shear Modulus (GPa) = 19.21276 21.51509 20.36392
#
# Velocity S-wave (km/s) = 3.15147 3.33495 3.24451
# Velocity P-wave (km/s) = 5.31438 5.58037 5.44900
#
# Compressibility (1/GPa) = 0.03446146
#
# Stress axis : x y z
#
# Youngs Moduli (GPa) = 47.29573 47.29560 60.39441
#
# Poissons Ratio (x) = 0.00893 0.36245
# Poissons Ratio (y) = 0.00893 0.36246
# Poissons Ratio (z) = 0.28384 0.28385
#
# Static dielectric constant tensor:
#      x y z
#    x 1.715260 0.000000 0.000000 
#    y 0.000000 1.715260 0.000000 
#    z 0.000000 0.000000 1.680830 
# 
# From -- ./inp_files/1608.got.cif
#   From: 2010.05.17/outbox.cif.g08.bks.cpg/sg148_1_cif.got.tgz:1608.got - 2010.05.20 13:50:20.
