data_PCOD9575202
_publ_section_title
;
Structure prediction by ZEFSAII (Michael W. Deem and Ramdas Pophale) SiO2 
 PCOD9575202
Probable space group: R -3
;
_chemical_formula_sum "Si O2"
_cell_formula_units_Z 108
_cell_length_a 20.852249
_cell_length_b 20.852249
_cell_length_c 12.373958
_cell_angle_alpha 90.000000
_cell_angle_beta 90.000000
_cell_angle_gamma 120.000000
_cell_volume 4659.561775
_symmetry_space_group_name_H-M "R -3"
_symmetry_group_IT_number 148
_symmetry_cell_setting 'hexagonal'
loop_
_space_group_symop_operation_xyz
x,y,z
-y,x-y,z
-x+y,-x,z
-x,-y,-z
y,-x+y,-z
x-y,x,-z
2/3+x,1/3+y,1/3+z
2/3-y,1/3+x-y,1/3+z
2/3-x+y,1/3-x,1/3+z
2/3-x,1/3-y,1/3-z
2/3+y,1/3-x+y,1/3-z
2/3+x-y,1/3+x,1/3-z
1/3+x,2/3+y,2/3+z
1/3-y,2/3+x-y,2/3+z
1/3-x+y,2/3-x,2/3+z
1/3-x,2/3-y,2/3-z
1/3+y,2/3-x+y,2/3-z
1/3+x-y,2/3+x,2/3-z
loop_
_atom_site_type_symbol
_atom_site_label
_atom_site_fract_x
_atom_site_fract_y
_atom_site_fract_z
Si Si1 0.213711 0.225244 0.400086
Si Si2 0.942013 0.461240 0.242610
Si Si3 0.663181 0.122150 0.119170
Si Si4 0.478026 0.733177 0.713144
Si Si5 0.775382 0.907990 0.589760
Si Si6 0.705812 0.696215 0.821364
O O1 0.145935 0.224285 0.461666
O O2 0.186290 0.139476 0.379916
O O3 0.258676 0.273433 0.296384
O O4 0.277438 0.262625 0.492275
O O5 0.923026 0.497668 0.140707
O O6 0.890294 0.460588 0.336775
O O7 0.931665 0.379603 0.226810
O O8 0.023864 0.516034 0.280680
O O9 0.694808 0.196491 0.192325
O O10 0.696558 0.067566 0.152883
O O11 0.689596 0.154568 0.000459
O O12 0.438443 0.676126 0.612122
#
# Coordination Sequence:
#
# PCOD9575202 Si02
#       6
#    18  18  18  18  18  18
#     4  11  25  40  66  92 133 167 218 266 334 390
#     4  10  24  38  66  96 131 173 212 268 337 386
#     4  11  23  41  68  97 135 166 225 268 322 403
#     4  10  23  42  66  99 133 174 215 272 327 395
#     4  11  25  41  63  98 128 180 215 272 324 391
#     4  11  23  41  64  96 130 170 206 277 325 398
#
# _framework density 23.178145000000001
#
# number of rings (size 3 to 8) (size 9 to 14) (size 15 to 20)
#    0.000    1.333    1.667    3.167    9.333    2.667 
#    0.000    0.000    0.000    0.333    0.000    0.000 
#    0.000    0.000    0.000    0.000    0.000    0.000 
#
# Total GULP energy -200452.654812 kJ/mol
# GULP energy per Si atom -5568.129300 kJ/mol
# Density = 2.312539 g / cm^3
# Si number density = 23.178145 Si / 1000 Ang^3
#
#
#
# Elastic Constant Matrix: (Units=GPa)
#
#
# Indices 1 2 3 4 5 6 
#
# 1 72.1241 7.9897 1.8589 1.4167 -0.4303 0.0000
# 2 7.9897 72.1241 1.8589 -1.4167 0.4303 0.0000
# 3 1.8589 1.8589 41.0970 0.0000 0.0000 0.0000
# 4 1.4167 -1.4167 0.0000 24.3176 0.0000 0.4303
# 5 -0.4303 0.4303 0.0000 0.0000 24.3176 1.4167
# 6 0.0000 0.0000 0.0000 0.4303 1.4167 32.0672
#
#
#
# Elastic Compliance Matrix: (Units=1/GPa)
#
#
# Indices 1 2 3 4 5 6 
#
# 1 0.014072 -0.001564 -0.000566 -0.000911 0.000277 0.000000
# 2 -0.001564 0.014072 -0.000566 0.000911 -0.000277 0.000000
# 3 -0.000566 -0.000566 0.024384 0.000000 0.000000 0.000000
# 4 -0.000911 0.000911 0.000000 0.041238 0.000000 -0.000553
# 5 0.000277 -0.000277 0.000000 0.000000 0.041238 -0.001822
# 6 0.000000 0.000000 0.000000 -0.000553 -0.001822 0.031272
#
#
# Mechanical properties :
#
#
# Convention : Reuss Voigt Hill
#
# Bulk Modulus (GPa) = 21.21442 23.19556 22.20499
# Shear Modulus (GPa) = 26.68360 27.71637 27.19998
#
# Velocity S-wave (km/s) = 3.39667 3.46178 3.42938
# Velocity P-wave (km/s) = 4.95538 5.09979 5.02810
#
# Compressibility (1/GPa) = 0.04713775
#
# Stress axis : x y z
#
# Youngs Moduli (GPa) = 71.06135 71.06135 41.01077
#
# Poissons Ratio (x) = 0.11113 0.02320
# Poissons Ratio (y) = 0.11113 0.02320
# Poissons Ratio (z) = 0.04020 0.04020
#
# Static dielectric constant tensor:
#      x y z
#    x 1.936760 0.000000 0.000000 
#    y 0.000000 1.936760 0.000000 
#    z 0.000000 0.000000 1.946040 
# 
# From -- ./inp_files/2062.got.cif
#   From: 2010.05.17/outbox.cif.g08.bks.cpg/sg148_2_cif.got.tgz:2062.got - 2010.05.20 13:50:20.
