data_PCOD9575136
_publ_section_title
;
Structure prediction by ZEFSAII (Michael W. Deem and Ramdas Pophale) SiO2 
 PCOD9575136
Probable space group: R -3
;
_chemical_formula_sum "Si O2"
_cell_formula_units_Z 54
_cell_length_a 11.537770
_cell_length_b 11.537770
_cell_length_c 19.133490
_cell_angle_alpha 90.000000
_cell_angle_beta 90.000000
_cell_angle_gamma 120.000000
_cell_volume 2205.812431
_symmetry_space_group_name_H-M "R -3"
_symmetry_group_IT_number 148
_symmetry_cell_setting 'hexagonal'
loop_
_space_group_symop_operation_xyz
x,y,z
-y,x-y,z
-x+y,-x,z
-x,-y,-z
y,-x+y,-z
x-y,x,-z
2/3+x,1/3+y,1/3+z
2/3-y,1/3+x-y,1/3+z
2/3-x+y,1/3-x,1/3+z
2/3-x,1/3-y,1/3-z
2/3+y,1/3-x+y,1/3-z
2/3+x-y,1/3+x,1/3-z
1/3+x,2/3+y,2/3+z
1/3-y,2/3+x-y,2/3+z
1/3-x+y,2/3-x,2/3+z
1/3-x,2/3-y,2/3-z
1/3+y,2/3-x+y,2/3-z
1/3+x-y,2/3+x,2/3-z
loop_
_atom_site_type_symbol
_atom_site_label
_atom_site_fract_x
_atom_site_fract_y
_atom_site_fract_z
Si Si1 0.935718 0.749961 0.747917
Si Si2 0.280686 0.306667 0.892228
Si Si3 0.772690 0.597852 0.979988
O O1 0.026928 0.776856 0.816587
O O2 0.797987 0.741044 0.770706
O O3 0.902984 0.606527 0.715298
O O4 0.023983 0.859333 0.689444
O O5 0.188611 0.289664 0.959217
O O6 0.356065 0.226651 0.914534
#
# Coordination Sequence:
#
# PCOD9575136 Si02
#       3
#    18  18  18
#     4  11  22  42  64  90 123 165 206 256 308 362
#     4  11  22  42  64  90 123 165 206 256 308 362
#     4  10  21  38  63  88 123 157 201 255 310 356
#
# _framework density 24.480778000000001
#
# number of rings (size 3 to 8) (size 9 to 14) (size 15 to 20)
#    0.000    1.333    3.333    5.000    0.000    0.000 
#   16.000    1.667    0.000   42.667    0.000    0.000 
#    0.000    0.000    0.000    0.000    0.000    0.000 
#
# Total GULP energy -100459.665897 kJ/mol
# GULP energy per Si atom -5581.092550 kJ/mol
# Density = 2.442506 g / cm^3
# Si number density = 24.480778 Si / 1000 Ang^3
#
#
#
# Elastic Constant Matrix: (Units=GPa)
#
#
# Indices 1 2 3 4 5 6 
#
# 1 98.0821 34.6453 12.4493 8.9681 -0.2433 0.0000
# 2 34.6453 98.0821 12.4493 -8.9681 0.2433 0.0000
# 3 12.4493 12.4493 124.7173 0.0000 0.0000 0.0000
# 4 8.9681 -8.9681 0.0000 40.9687 0.0000 0.2433
# 5 -0.2433 0.2433 0.0000 0.0000 40.9687 8.9681
# 6 0.0000 0.0000 0.0000 0.2433 8.9681 31.7184
#
#
#
# Elastic Compliance Matrix: (Units=1/GPa)
#
#
# Indices 1 2 3 4 5 6 
#
# 1 0.012241 -0.004563 -0.000766 -0.003679 0.000100 0.000000
# 2 -0.004563 0.012241 -0.000766 0.003679 -0.000100 0.000000
# 3 -0.000766 -0.000766 0.008171 0.000000 0.000000 0.000000
# 4 -0.003679 0.003679 0.000000 0.026021 0.000000 -0.000200
# 5 0.000100 -0.000100 0.000000 0.000000 0.026021 -0.007357
# 6 0.000000 0.000000 0.000000 -0.000200 -0.007357 0.033609
#
#
# Mechanical properties :
#
#
# Convention : Reuss Voigt Hill
#
# Bulk Modulus (GPa) = 48.87229 48.88547 48.87888
# Shear Modulus (GPa) = 36.41225 40.15369 38.28297
#
# Velocity S-wave (km/s) = 3.86084 4.05435 3.95878
# Velocity P-wave (km/s) = 6.31519 6.47528 6.39574
#
# Compressibility (1/GPa) = 0.02046149
#
# Stress axis : x y z
#
# Youngs Moduli (GPa) = 81.69087 81.69087 122.38190
#
# Poissons Ratio (x) = 0.37278 0.09380
# Poissons Ratio (y) = 0.37278 0.09380
# Poissons Ratio (z) = 0.06261 0.06261
#
# Static dielectric constant tensor:
#      x y z
#    x 2.019760 0.000000 0.000000 
#    y 0.000000 2.019760 0.000000 
#    z 0.000000 0.000000 1.949870 
# 
# From -- ./inp_files/2928.got.cif
#   From: 2010.05.17/outbox.cif.g08.bks.cpg/sg148_2_cif.got.tgz:2928.got - 2010.05.20 13:50:20.
