data_PCOD9575955
_publ_section_title
;
Structure prediction by ZEFSAII (Michael W. Deem and Ramdas Pophale) SiO2 
 PCOD9575955
Probable space group: P 31 2 1
;
_chemical_formula_sum "Si O2"
_cell_formula_units_Z 48
_cell_length_a 12.225776
_cell_length_b 12.225776
_cell_length_c 19.379622
_cell_angle_alpha 90.000000
_cell_angle_beta 90.000000
_cell_angle_gamma 120.000000
_cell_volume 2508.584892
_symmetry_space_group_name_H-M "P 31 2 1"
_symmetry_group_IT_number 152
_symmetry_cell_setting 'hexagonal'
loop_
_space_group_symop_operation_xyz
x,y,z
-y,x-y,1/3+z
-x+y,-x,2/3+z
x-y,-y,2/3-z
-x,-x+y,1/3-z
y,x,-z
loop_
_atom_site_type_symbol
_atom_site_label
_atom_site_fract_x
_atom_site_fract_y
_atom_site_fract_z
Si Si1 0.709267 0.766359 0.146993
Si Si2 0.659923 0.579546 0.634853
Si Si3 0.032589 0.166650 0.963549
Si Si4 0.695809 0.419896 0.520378
Si Si5 0.697114 0.187070 0.593086
Si Si6 0.499243 0.877220 0.927084
Si Si7 0.949800 0.778234 0.090030
Si Si8 0.450336 0.925786 0.558195
O O1 0.777939 0.845624 0.217582
O O2 0.636915 0.819790 0.101279
O O3 0.807565 0.752348 0.097631
O O4 0.595673 0.633405 0.175654
O O5 0.757731 0.722293 0.656966
O O6 0.706605 0.520900 0.576282
O O7 0.525712 0.559953 0.610052
O O8 0.629976 0.499718 0.705385
O O9 0.123777 0.123777 0.000000
O O10 0.892551 0.043726 0.958938
O O11 0.688490 0.297425 0.554536
O O12 0.570993 0.373358 0.474410
O O13 0.821528 0.476625 0.474355
O O14 0.692056 0.210810 0.674172
O O15 0.576079 0.052714 0.577164
O O16 0.650654 0.954330 0.921507
O O17 0.000000 0.822356 0.166667
#
# Coordination Sequence:
#
# PCOD9575955 Si02
#       8
#     6   6   6   6   6   6   6   6
#     4   9  20  39  60  89 124 164 214 254 318 384
#     4  10  22  39  58  89 119 156 210 256 316 381
#     4  10  23  40  62  92 128 167 207 263 325 391
#     4  11  21  38  60  87 122 159 208 253 325 372
#     4  10  22  37  61  88 123 164 205 262 315 379
#     4  11  23  38  62  90 118 162 214 264 308 383
#     4  10  21  39  62  87 122 166 209 264 320 376
#     4   9  20  37  58  85 121 160 201 261 314 375
#
# _framework density 19.134293
#
# number of rings (size 3 to 8) (size 9 to 14) (size 15 to 20)
#    0.000    2.000    0.000    2.625    3.500    6.000 
#    0.000    1.250    0.000    0.000    0.000    0.000 
#    0.000    0.000    0.000    0.000    0.000    0.000 
#
# Total GULP energy -267735.702857 kJ/mol
# GULP energy per Si atom -5577.827143 kJ/mol
# Density = 1.909074 g / cm^3
# Si number density = 19.134293 Si / 1000 Ang^3
#
#
#
# Elastic Constant Matrix: (Units=GPa)
#
#
# Indices 1 2 3 4 5 6 
#
# 1 85.0759 50.3012 38.7556 -5.3336 0.0004 0.0000
# 2 50.3012 85.0759 38.7556 5.3336 -0.0004 0.0000
# 3 38.7556 38.7556 72.2671 0.0000 0.0000 0.0000
# 4 -5.3336 5.3336 0.0000 -1.9884 0.0000 -0.0004
# 5 0.0004 -0.0004 0.0000 0.0000 -1.9884 -5.3336
# 6 0.0000 0.0000 0.0000 -0.0004 -5.3336 17.3874
#
#
#
# Elastic Compliance Matrix: (Units=1/GPa)
#
#
# Indices 1 2 3 4 5 6 
#
# 1 0.013218 -0.002558 -0.005717 -0.042317 0.000003 0.000000
# 2 -0.002558 0.013218 -0.005717 0.042317 -0.000003 0.000000
# 3 -0.005717 -0.005717 0.019969 0.000000 0.000000 0.000000
# 4 -0.042317 0.042317 0.000000 -0.275905 0.000000 -0.000006
# 5 0.000003 -0.000003 0.000000 0.000000 -0.275905 -0.084634
# 6 0.000000 0.000000 0.000000 -0.000006 -0.084634 0.031551
#
#
# Mechanical properties :
#
#
# Convention : Reuss Voigt Hill
#
# Bulk Modulus (GPa) = 54.28280 55.33821 54.81051
# Shear Modulus (GPa) = -11.37060 10.32257 -0.52402
#
# Velocity S-wave (km/s) = -2.44037 2.32519 -0.52389
# Velocity P-wave (km/s) = 4.52663 6.01601 5.32367
#
# Compressibility (1/GPa) = 0.01842204
#
# Stress axis : x y z
#
# Youngs Moduli (GPa) = 75.65537 75.65537 50.07721
#
# Poissons Ratio (x) = 0.19352 0.28628
# Poissons Ratio (y) = 0.19352 0.28628
# Poissons Ratio (z) = 0.43250 0.43250
#
# Static dielectric constant tensor:
#      x y z
#    x 1.657100 0.000000 0.000000 
#    y 0.000000 1.657100 0.000000 
#    z 0.000000 0.000000 1.712250 
# 
# From -- ./inp_files/2844.got.cif
#   From: 2010.05.17/outbox.cif.g08.bks.cpg/sg152_2_cif.got.tgz:2844.got - 2010.05.20 10:36:06.
