data_PCOD9575212
_publ_section_title
;
Structure prediction by ZEFSAII (Michael W. Deem and Ramdas Pophale) SiO2 
 PCOD9575212
Probable space group: R -3
;
_chemical_formula_sum "Si O2"
_cell_formula_units_Z 60
_cell_length_a 9.405711
_cell_length_b 9.405711
_cell_length_c 29.129977
_cell_angle_alpha 90.000000
_cell_angle_beta 90.000000
_cell_angle_gamma 120.000000
_cell_volume 2231.793634
_symmetry_space_group_name_H-M "R -3"
_symmetry_group_IT_number 148
_symmetry_cell_setting 'hexagonal'
loop_
_space_group_symop_operation_xyz
x,y,z
-y,x-y,z
-x+y,-x,z
-x,-y,-z
y,-x+y,-z
x-y,x,-z
2/3+x,1/3+y,1/3+z
2/3-y,1/3+x-y,1/3+z
2/3-x+y,1/3-x,1/3+z
2/3-x,1/3-y,1/3-z
2/3+y,1/3-x+y,1/3-z
2/3+x-y,1/3+x,1/3-z
1/3+x,2/3+y,2/3+z
1/3-y,2/3+x-y,2/3+z
1/3-x+y,2/3-x,2/3+z
1/3-x,2/3-y,2/3-z
1/3+y,2/3-x+y,2/3-z
1/3+x-y,2/3+x,2/3-z
loop_
_atom_site_type_symbol
_atom_site_label
_atom_site_fract_x
_atom_site_fract_y
_atom_site_fract_z
Si Si1 0.627812 0.730294 0.047038
Si Si2 0.000000 0.000000 0.556180
Si Si3 0.764169 0.693202 0.281530
Si Si4 0.319934 0.351268 0.485997
O O1 0.493993 0.685524 0.085810
O O2 0.642977 0.060486 0.099297
O O3 0.671741 0.853245 0.159522
O O4 0.547620 0.672403 0.996554
O O5 0.000000 0.000000 0.500000
O O6 0.833334 0.666667 0.166667
O O7 0.594276 0.523578 0.290183
O O8 0.918285 0.669388 0.274460
#
# Coordination Sequence:
#
# PCOD9575212 Si02
#       4
#    18   6  18  18
#     4  10  24  48  80 109 150 204 257 329 403 487
#     4  12  30  51  75 117 159 198 255 336 426 496
#     4  10  23  46  76 111 150 202 267 321 397 491
#     4  12  28  50  80 122 172 222 276 346 424 503
#
# _framework density 26.884204
#
# number of rings (size 3 to 8) (size 9 to 14) (size 15 to 20)
#    0.000    1.200    0.000    3.300    0.000   19.200 
#    0.000    0.000    0.000    1.200    0.000    0.000 
#    0.000    0.000    0.000    0.000    0.000    0.000 
#
# Total GULP energy -111823.903262 kJ/mol
# GULP energy per Si atom -5591.195163 kJ/mol
# Density = 2.682301 g / cm^3
# Si number density = 26.884204 Si / 1000 Ang^3
#
#
#
# Elastic Constant Matrix: (Units=GPa)
#
#
# Indices 1 2 3 4 5 6 
#
# 1 214.9640 98.0344 81.1231 -2.5270 -14.2689 0.0000
# 2 98.0344 214.9640 81.1231 2.5270 14.2689 0.0000
# 3 81.1231 81.1231 305.3416 0.0000 0.0000 0.0000
# 4 -2.5270 2.5270 0.0000 35.7309 0.0000 14.2689
# 5 -14.2689 14.2689 0.0000 0.0000 35.7309 -2.5270
# 6 0.0000 0.0000 0.0000 14.2689 -2.5270 58.4648
#
#
#
# Elastic Compliance Matrix: (Units=1/GPa)
#
#
# Indices 1 2 3 4 5 6 
#
# 1 0.006607 -0.002901 -0.000984 0.000672 0.003797 0.000000
# 2 -0.002901 0.006607 -0.000984 -0.000672 -0.003797 0.000000
# 3 -0.000984 -0.000984 0.003798 0.000000 0.000000 0.000000
# 4 0.000672 -0.000672 0.000000 0.031115 0.000000 -0.007594
# 5 0.003797 -0.003797 0.000000 0.000000 0.031115 0.001345
# 6 0.000000 0.000000 0.000000 -0.007594 0.001345 0.019016
#
#
# Mechanical properties :
#
#
# Convention : Reuss Voigt Hill
#
# Bulk Modulus (GPa) = 137.53505 139.53676 138.53590
# Shear Modulus (GPa) = 45.28159 57.65125 51.46642
#
# Velocity S-wave (km/s) = 4.10850 4.63582 4.38010
# Velocity P-wave (km/s) = 8.58928 8.98165 8.78765
#
# Compressibility (1/GPa) = 0.00727087
#
# Stress axis : x y z
#
# Youngs Moduli (GPa) = 151.36532 151.36532 263.29053
#
# Poissons Ratio (x) = 0.43916 0.25918
# Poissons Ratio (y) = 0.43916 0.25918
# Poissons Ratio (z) = 0.14900 0.14900
#
# Static dielectric constant tensor:
#      x y z
#    x 2.133080 0.000000 0.000000 
#    y 0.000000 2.133080 0.000000 
#    z 0.000000 0.000000 2.190340 
# 
# From -- ./inp_files/2995.got.cif
#   From: 2010.05.17/outbox.cif.g08.bks.cpg/sg148_2_cif.got.tgz:2995.got - 2010.05.20 13:50:20.
