data_PCOD9575507
_publ_section_title
;
Structure prediction by ZEFSAII (Michael W. Deem and Ramdas Pophale) SiO2 
 PCOD9575507
Probable space group: P 31 1 2
;
_chemical_formula_sum "Si O2"
_cell_formula_units_Z 18
_cell_length_a 9.379405
_cell_length_b 9.379405
_cell_length_c 13.337874
_cell_angle_alpha 90.000000
_cell_angle_beta 90.000000
_cell_angle_gamma 120.000000
_cell_volume 1016.173395
_symmetry_space_group_name_H-M "P 31 1 2"
_symmetry_group_IT_number 151
_symmetry_cell_setting 'hexagonal'
loop_
_space_group_symop_operation_xyz
x,y,z
-y,x-y,1/3+z
-x+y,-x,2/3+z
-y,-x,2/3-z
-x+y,y,1/3-z
x,x-y,-z
loop_
_atom_site_type_symbol
_atom_site_label
_atom_site_fract_x
_atom_site_fract_y
_atom_site_fract_z
Si Si1 0.645406 0.322703 0.500000
Si Si2 0.995933 0.991866 0.166667
Si Si3 0.514111 0.428366 0.674342
Si Si4 0.866063 0.732125 0.666667
Si Si5 0.719162 0.859581 0.000000
O O1 0.537643 0.378957 0.562456
O O2 0.768584 0.453833 0.418687
O O3 0.950388 0.101083 0.238576
O O4 0.046032 0.887060 0.239993
O O5 0.389973 0.061841 0.021469
O O6 0.332790 0.394294 0.689477
#
# Coordination Sequence:
#
# PCOD9575507 Si02
#       5
#     3   3   6   3   3
#     4   8  17  32  53  74 102 140 174 202 257 330
#     4  10  21  36  53  76 108 144 176 210 265 326
#     4  10  18  33  55  79 103 135 176 220 259 306
#     4   9  20  38  56  75 104 142 178 213 260 322
#     4  11  20  32  54  81 108 138 176 223 266 306
#
# _framework density 17.713514
#
# number of rings (size 3 to 8) (size 9 to 14) (size 15 to 20)
#    0.000    2.667    0.000    5.000    0.000    0.000 
#    0.000    5.000    0.000   12.000    0.000    4.667 
#    0.000    0.000    0.000    0.000    0.000    0.000 
#
# Total GULP energy -100280.425586 kJ/mol
# GULP energy per Si atom -5571.134755 kJ/mol
# Density = 1.767320 g / cm^3
# Si number density = 17.713514 Si / 1000 Ang^3
#
#
#
# Elastic Constant Matrix: (Units=GPa)
#
#
# Indices 1 2 3 4 5 6 
#
# 1 100.3752 60.6976 27.6187 -0.0003 3.1363 0.0000
# 2 60.6976 100.3752 27.6187 0.0003 -3.1363 0.0000
# 3 27.6187 27.6187 95.7747 0.0000 0.0000 0.0000
# 4 -0.0003 0.0003 0.0000 19.0558 0.0000 -3.1363
# 5 3.1363 -3.1363 0.0000 0.0000 19.0558 -0.0003
# 6 0.0000 0.0000 0.0000 -3.1363 -0.0003 19.8388
#
#
#
# Elastic Compliance Matrix: (Units=1/GPa)
#
#
# Indices 1 2 3 4 5 6 
#
# 1 0.016383 -0.009493 -0.001987 0.000000 -0.004259 0.000000
# 2 -0.009493 0.016383 -0.001987 0.000000 0.004259 0.000000
# 3 -0.001987 -0.001987 0.011587 0.000000 0.000000 0.000000
# 4 0.000000 0.000000 0.000000 0.053879 0.000000 0.008518
# 5 -0.004259 0.004259 0.000000 0.000000 0.053879 0.000001
# 6 0.000000 0.000000 0.000000 0.008518 0.000001 0.051753
#
#
# Mechanical properties :
#
#
# Convention : Reuss Voigt Hill
#
# Bulk Modulus (GPa) = 57.40766 58.71058 58.05912
# Shear Modulus (GPa) = 21.13229 23.62943 22.38086
#
# Velocity S-wave (km/s) = 3.45774 3.65633 3.55842
# Velocity P-wave (km/s) = 6.95849 7.14433 7.05202
#
# Compressibility (1/GPa) = 0.01741928
#
# Stress axis : x y z
#
# Youngs Moduli (GPa) = 61.03861 61.03861 86.30335
#
# Poissons Ratio (x) = 0.57946 0.17147
# Poissons Ratio (y) = 0.57946 0.17147
# Poissons Ratio (z) = 0.12127 0.12127
#
# Static dielectric constant tensor:
#      x y z
#    x 1.587880 0.000000 0.000000 
#    y 0.000000 1.587880 0.000000 
#    z 0.000000 0.000000 1.648540 
# 
# From -- ./inp_files/2291.got.cif
#   From: 2010.05.17/outbox.cif.g08.bks.cpg/sg151_2_cif.got.tgz:2291.got - 2010.05.20 10:33:20.
