data_PCOD9575163
_publ_section_title
;
Structure prediction by ZEFSAII (Michael W. Deem and Ramdas Pophale) SiO2 
 PCOD9575163
Probable space group: R -3
;
_chemical_formula_sum "Si O2"
_cell_formula_units_Z 72
_cell_length_a 14.479495
_cell_length_b 14.479495
_cell_length_c 14.434778
_cell_angle_alpha 90.000000
_cell_angle_beta 90.000000
_cell_angle_gamma 120.000000
_cell_volume 2620.882622
_symmetry_space_group_name_H-M "R -3"
_symmetry_group_IT_number 148
_symmetry_cell_setting 'hexagonal'
loop_
_space_group_symop_operation_xyz
x,y,z
-y,x-y,z
-x+y,-x,z
-x,-y,-z
y,-x+y,-z
x-y,x,-z
2/3+x,1/3+y,1/3+z
2/3-y,1/3+x-y,1/3+z
2/3-x+y,1/3-x,1/3+z
2/3-x,1/3-y,1/3-z
2/3+y,1/3-x+y,1/3-z
2/3+x-y,1/3+x,1/3-z
1/3+x,2/3+y,2/3+z
1/3-y,2/3+x-y,2/3+z
1/3-x+y,2/3-x,2/3+z
1/3-x,2/3-y,2/3-z
1/3+y,2/3-x+y,2/3-z
1/3+x-y,2/3+x,2/3-z
loop_
_atom_site_type_symbol
_atom_site_label
_atom_site_fract_x
_atom_site_fract_y
_atom_site_fract_z
Si Si1 0.050248 0.270156 0.536719
Si Si2 0.893340 0.100151 0.651448
Si Si3 0.267781 0.056848 0.224623
Si Si4 0.803935 0.243308 0.361695
O O1 0.052362 0.202346 0.450393
O O2 0.155319 0.383995 0.558260
O O3 0.013192 0.194654 0.628538
O O4 0.964330 0.306558 0.513906
O O5 0.833334 0.166667 0.666667
O O6 0.853409 0.013703 0.734587
O O7 0.333334 0.166667 0.166667
O O8 0.338903 0.094994 0.317356
O O9 0.700083 0.194844 0.292735
#
# Coordination Sequence:
#
# PCOD9575163 Si02
#       4
#    18  18  18  18
#     4  10  22  40  67  99 141 190 245 305 388 452
#     4  10  22  39  66 103 139 191 247 313 376 465
#     4  10  23  37  65  99 138 183 245 305 383 459
#     4  10  22  40  68 104 144 191 252 318 391 464
#
# _framework density 27.471661000000001
#
# number of rings (size 3 to 8) (size 9 to 14) (size 15 to 20)
#    0.000    2.000    0.000    1.750   17.500    0.000 
#    0.000    0.000    0.000    9.000    6.500    0.000 
#    0.000    0.000    0.000    0.000    0.000    0.000 
#
# Total GULP energy -133709.088030 kJ/mol
# GULP energy per Si atom -5571.212001 kJ/mol
# Density = 2.740913 g / cm^3
# Si number density = 27.471661 Si / 1000 Ang^3
#
#
#
# Elastic Constant Matrix: (Units=GPa)
#
#
# Indices 1 2 3 4 5 6 
#
# 1 127.1132 40.4940 36.6064 -0.1349 -3.3986 0.0000
# 2 40.4940 127.1132 36.6064 0.1349 3.3986 0.0000
# 3 36.6064 36.6064 94.7425 0.0000 0.0000 0.0000
# 4 -0.1349 0.1349 0.0000 62.3846 0.0000 3.3986
# 5 -3.3986 3.3986 0.0000 0.0000 62.3846 -0.1349
# 6 0.0000 0.0000 0.0000 3.3986 -0.1349 43.3096
#
#
#
# Elastic Compliance Matrix: (Units=1/GPa)
#
#
# Indices 1 2 3 4 5 6 
#
# 1 0.009386 -0.002208 -0.002773 0.000025 0.000632 0.000000
# 2 -0.002208 0.009386 -0.002773 -0.000025 -0.000632 0.000000
# 3 -0.002773 -0.002773 0.012698 0.000000 0.000000 0.000000
# 4 0.000025 -0.000025 0.000000 0.016099 0.000000 -0.001263
# 5 0.000632 -0.000632 0.000000 0.000000 0.016099 0.000050
# 6 0.000000 0.000000 0.000000 -0.001263 0.000050 0.023189
#
#
# Mechanical properties :
#
#
# Convention : Reuss Voigt Hill
#
# Bulk Modulus (GPa) = 62.65573 64.04251 63.34912
# Shear Modulus (GPa) = 46.43123 49.29992 47.86557
#
# Velocity S-wave (km/s) = 4.11560 4.24084 4.17869
# Velocity P-wave (km/s) = 6.74101 6.88058 6.81115
#
# Compressibility (1/GPa) = 0.01596023
#
# Stress axis : x y z
#
# Youngs Moduli (GPa) = 106.54066 106.54066 78.75239
#
# Poissons Ratio (x) = 0.23528 0.21841
# Poissons Ratio (y) = 0.23528 0.21841
# Poissons Ratio (z) = 0.29547 0.29547
#
# Static dielectric constant tensor:
#      x y z
#    x 2.180420 0.000000 0.000000 
#    y 0.000000 2.180420 0.000000 
#    z 0.000000 0.000000 2.459970 
# 
# From -- ./inp_files/2545.got.cif
#   From: 2010.05.17/outbox.cif.g08.bks.cpg/sg148_2_cif.got.tgz:2545.got - 2010.05.20 13:50:20.
