data_PCOD9575558
_publ_section_title
;
Structure prediction by ZEFSAII (Michael W. Deem and Ramdas Pophale) SiO2 
 PCOD9575558
Probable space group: P 31 1 2
;
_chemical_formula_sum "Si O2"
_cell_formula_units_Z 42
_cell_length_a 8.700117
_cell_length_b 8.700117
_cell_length_c 29.858363
_cell_angle_alpha 90.000000
_cell_angle_beta 90.000000
_cell_angle_gamma 120.000000
_cell_volume 1957.252297
_symmetry_space_group_name_H-M "P 31 1 2"
_symmetry_group_IT_number 151
_symmetry_cell_setting 'hexagonal'
loop_
_space_group_symop_operation_xyz
x,y,z
-y,x-y,1/3+z
-x+y,-x,2/3+z
-y,-x,2/3-z
-x+y,y,1/3-z
x,x-y,-z
loop_
_atom_site_type_symbol
_atom_site_label
_atom_site_fract_x
_atom_site_fract_y
_atom_site_fract_z
Si Si1 0.877250 0.270226 0.377730
Si Si2 0.594011 0.733855 0.309259
Si Si3 0.172026 0.151475 0.808417
Si Si4 0.364728 0.480002 0.535033
Si Si5 0.168898 0.606363 0.896873
Si Si6 0.777734 0.293060 0.200417
Si Si7 0.809862 0.869611 0.391013
O O1 0.760875 0.239126 0.333334
O O2 0.819922 0.327372 0.422636
O O3 0.080207 0.398695 0.364319
O O4 0.860037 0.075731 0.388267
O O5 0.416168 0.583833 0.333334
O O6 0.570403 0.651154 0.260069
O O7 0.763007 0.786025 0.341055
O O8 0.129542 0.309810 0.809746
O O9 0.347626 0.189035 0.835974
O O10 0.162407 0.100888 0.755966
O O11 0.017522 0.982479 0.833334
O O12 0.325560 0.617505 0.561516
O O13 0.453041 0.563303 0.487128
O O14 0.529135 0.469404 0.555547
O O15 0.130018 0.754114 0.916394
O O16 0.677374 0.354747 0.166667
#
# Coordination Sequence:
#
# PCOD9575558 Si02
#       7
#     6   6   6   6   6   6   6
#     4  10  20  38  67  92 123 170 220 265 329 394
#     4   9  20  35  62  94 127 164 221 268 324 394
#     4  12  23  39  65  96 132 173 223 271 334 400
#     4  11  23  37  63  98 135 169 214 279 336 391
#     4  10  19  38  63  96 127 168 220 266 325 398
#     4  12  25  42  65  99 136 170 219 283 337 397
#     4  10  19  39  64  90 122 172 221 266 318 400
#
# _framework density 21.458652000000001
#
# number of rings (size 3 to 8) (size 9 to 14) (size 15 to 20)
#    0.000    1.429    4.286    1.286    4.000    0.000 
#    0.000    0.000    3.143    7.714    0.000    0.000 
#    0.000    0.000    0.000    0.000    0.000    0.000 
#
# Total GULP energy -234115.057700 kJ/mol
# GULP energy per Si atom -5574.168040 kJ/mol
# Density = 2.140981 g / cm^3
# Si number density = 21.458652 Si / 1000 Ang^3
#
#
#
# Elastic Constant Matrix: (Units=GPa)
#
#
# Indices 1 2 3 4 5 6 
#
# 1 35.1119 1.4781 -4.2731 0.0000 -3.8212 0.0000
# 2 1.4781 35.1119 -4.2731 0.0000 3.8212 0.0000
# 3 -4.2731 -4.2731 86.2878 0.0000 0.0000 0.0000
# 4 0.0000 0.0000 0.0000 22.5609 0.0000 3.8212
# 5 -3.8212 3.8212 0.0000 0.0000 22.5609 0.0000
# 6 0.0000 0.0000 0.0000 3.8212 0.0000 16.8169
#
#
#
# Elastic Compliance Matrix: (Units=1/GPa)
#
#
# Indices 1 2 3 4 5 6 
#
# 1 0.029286 -0.001636 0.001369 0.000000 0.005237 0.000000
# 2 -0.001636 0.029286 0.001369 0.000000 -0.005237 0.000000
# 3 0.001369 0.001369 0.011725 0.000000 0.000000 0.000000
# 4 0.000000 0.000000 0.000000 0.046099 0.000000 -0.010475
# 5 0.005237 -0.005237 0.000000 0.000000 0.046099 0.000000
# 6 0.000000 0.000000 0.000000 -0.010475 0.000000 0.061844
#
#
# Mechanical properties :
#
#
# Convention : Reuss Voigt Hill
#
# Bulk Modulus (GPa) = 13.79287 15.81947 14.80617
# Shear Modulus (GPa) = 20.30043 23.29306 21.79675
#
# Velocity S-wave (km/s) = 3.07909 3.29825 3.19055
# Velocity P-wave (km/s) = 4.36837 4.67896 4.52633
#
# Compressibility (1/GPa) = 0.07250125
#
# Stress axis : x y z
#
# Youngs Moduli (GPa) = 34.14615 34.14615 85.28977
#
# Poissons Ratio (x) = 0.05587 -0.11678
# Poissons Ratio (y) = 0.05587 -0.11678
# Poissons Ratio (z) = -0.04676 -0.04676
#
# Static dielectric constant tensor:
#      x y z
#    x 1.825760 0.000000 0.000000 
#    y 0.000000 1.825760 0.000000 
#    z 0.000000 0.000000 1.841410 
# 
# From -- ./inp_files/5015.got.cif
#   From: 2010.05.17/outbox.cif.g08.bks.cpg/sg151_3_cif.got.tgz:5015.got - 2010.05.20 10:33:20.
