data_PCOD9575786
_publ_section_title
;
Structure prediction by ZEFSAII (Michael W. Deem and Ramdas Pophale) SiO2 
 PCOD9575786
Probable space group: P 31 2 1
;
_chemical_formula_sum "Si O2"
_cell_formula_units_Z 30
_cell_length_a 14.491951
_cell_length_b 14.491951
_cell_length_c 7.562392
_cell_angle_alpha 90.000000
_cell_angle_beta 90.000000
_cell_angle_gamma 120.000000
_cell_volume 1375.445957
_symmetry_space_group_name_H-M "P 31 2 1"
_symmetry_group_IT_number 152
_symmetry_cell_setting 'hexagonal'
loop_
_space_group_symop_operation_xyz
x,y,z
-y,x-y,1/3+z
-x+y,-x,2/3+z
x-y,-y,2/3-z
-x,-x+y,1/3-z
y,x,-z
loop_
_atom_site_type_symbol
_atom_site_label
_atom_site_fract_x
_atom_site_fract_y
_atom_site_fract_z
Si Si1 0.638307 0.608099 0.791792
Si Si2 0.827786 0.662498 0.274737
Si Si3 0.393617 0.425746 0.293286
Si Si4 0.140722 0.792516 0.479026
Si Si5 0.115332 0.111770 0.246708
O O1 0.642653 0.709579 0.693158
O O2 0.538317 0.494343 0.748651
O O3 0.746565 0.604933 0.760867
O O4 0.630090 0.630090 0.000000
O O5 0.864884 0.590007 0.382251
O O6 0.921409 0.782960 0.313316
O O7 0.835841 0.647078 0.065069
O O8 0.403497 0.403497 0.500000
O O9 0.396892 0.333657 0.176461
O O10 0.074187 0.850741 0.527118
O O11 0.000000 0.072931 0.166667
O O12 0.092056 0.000000 0.333334
#
# Coordination Sequence:
#
# PCOD9575786 Si02
#       5
#     6   6   6   6   6
#     4  10  19  36  59  80 104 140 181 221 266 317
#     4   9  19  35  54  76 105 143 180 215 266 324
#     4   9  19  37  57  78 107 141 180 224 266 313
#     4   9  18  35  56  76 104 143 181 215 265 324
#     4  11  18  27  48  80 112 139 171 215 265 322
#
# _framework density 21.811105999999999
#
# number of rings (size 3 to 8) (size 9 to 14) (size 15 to 20)
#    0.000    2.400    0.000    6.000    0.000    0.800 
#    0.000   16.000    0.000    0.000    0.000    0.000 
#    0.000    0.000    0.000    0.000    0.000    0.000 
#
# Total GULP energy -167470.836272 kJ/mol
# GULP energy per Si atom -5582.361209 kJ/mol
# Density = 2.176146 g / cm^3
# Si number density = 21.811106 Si / 1000 Ang^3
#
#
#
# Elastic Constant Matrix: (Units=GPa)
#
#
# Indices 1 2 3 4 5 6 
#
# 1 186.8124 122.0423 27.4933 5.6086 -0.0001 0.0000
# 2 122.0423 186.8124 27.4933 -5.6086 0.0001 0.0000
# 3 27.4933 27.4933 24.5632 0.0000 0.0000 0.0000
# 4 5.6086 -5.6086 0.0000 29.6871 0.0000 0.0001
# 5 -0.0001 0.0001 0.0000 0.0000 29.6871 5.6086
# 6 0.0000 0.0000 0.0000 0.0001 5.6086 32.3851
#
#
#
# Elastic Compliance Matrix: (Units=1/GPa)
#
#
# Indices 1 2 3 4 5 6 
#
# 1 0.010002 -0.005959 -0.004526 -0.003016 0.000000 0.000000
# 2 -0.005959 0.010002 -0.004526 0.003016 0.000000 0.000000
# 3 -0.004526 -0.004526 0.050843 0.000000 0.000000 0.000000
# 4 -0.003016 0.003016 0.000000 0.034824 0.000000 0.000000
# 5 0.000000 0.000000 0.000000 0.000000 0.034824 -0.006031
# 6 0.000000 0.000000 0.000000 0.000000 -0.006031 0.031923
#
#
# Mechanical properties :
#
#
# Convention : Reuss Voigt Hill
#
# Bulk Modulus (GPa) = 24.49397 83.58287 54.03842
# Shear Modulus (GPa) = 23.14289 33.09579 28.11934
#
# Velocity S-wave (km/s) = 3.26093 3.89959 3.59447
# Velocity P-wave (km/s) = 5.04307 7.66029 6.48509
#
# Compressibility (1/GPa) = 0.04082638
#
# Stress axis : x y z
#
# Youngs Moduli (GPa) = 99.97509 99.97509 19.66847
#
# Poissons Ratio (x) = 0.59575 0.08902
# Poissons Ratio (y) = 0.59575 0.08902
# Poissons Ratio (z) = 0.45247 0.45247
#
# Static dielectric constant tensor:
#      x y z
#    x 1.763210 0.000000 0.000000 
#    y 0.000000 1.763210 0.000000 
#    z 0.000000 0.000000 2.067670 
# 
# From -- ./inp_files/1047.got.cif
#   From: 2010.05.17/outbox.cif.g08.bks.cpg/sg152_1_cif.got.tgz:1047.got - 2010.05.20 10:36:06.
