data_PCOD9575436
_publ_section_title
;
Structure prediction by ZEFSAII (Michael W. Deem and Ramdas Pophale) SiO2 
 PCOD9575436
Probable space group: P 3 2 1
;
_chemical_formula_sum "Si O2"
_cell_formula_units_Z 45
_cell_length_a 15.001817
_cell_length_b 15.001817
_cell_length_c 12.211042
_cell_angle_alpha 90.000000
_cell_angle_beta 90.000000
_cell_angle_gamma 120.000000
_cell_volume 2379.967812
_symmetry_space_group_name_H-M "P 3 2 1"
_symmetry_group_IT_number 150
_symmetry_cell_setting 'hexagonal'
loop_
_space_group_symop_operation_xyz
x,y,z
-y,x-y,z
-x+y,-x,z
x-y,-y,-z
-x,-x+y,-z
y,x,-z
loop_
_atom_site_type_symbol
_atom_site_label
_atom_site_fract_x
_atom_site_fract_y
_atom_site_fract_z
Si Si1 0.238133 0.260338 0.234895
Si Si2 0.077053 0.302349 0.151859
Si Si3 0.534985 0.654684 0.322073
Si Si4 0.174492 0.839123 0.908242
Si Si5 0.646512 0.862608 0.578871
Si Si6 0.529987 0.267398 0.243062
Si Si7 0.701407 0.701407 0.500000
Si Si8 0.862887 0.542146 0.640893
O O1 0.124111 0.244022 0.222896
O O2 0.275311 0.218520 0.134139
O O3 0.271020 0.221498 0.342080
O O4 0.301963 0.382059 0.257604
O O5 0.099263 0.409569 0.205145
O O6 0.954790 0.232001 0.141031
O O7 0.137978 0.327015 0.037119
O O8 0.623353 0.659484 0.399309
O O9 0.434447 0.548671 0.344179
O O10 0.508457 0.743273 0.352436
O O11 0.226327 0.774989 0.859555
O O12 0.386575 0.777396 0.755820
O O13 0.547802 0.785009 0.654057
O O14 0.599987 0.893202 0.476117
O O15 0.296610 0.101380 0.467914
#
# Coordination Sequence:
#
# PCOD9575436 Si02
#       8
#     6   6   6   6   6   6   3   6
#     4  10  21  39  61  90 121 157 205 263 317 371
#     4  10  22  41  64  89 117 163 207 261 323 374
#     4  10  21  37  57  85 123 157 204 241 304 367
#     4  10  21  42  65  87 124 157 210 273 316 380
#     4  10  21  36  60  89 128 162 207 252 303 376
#     4   9  21  37  61  91 125 165 213 257 313 371
#     4  10  22  34  58  88 120 168 196 240 310 366
#     4  10  22  35  56  91 123 164 198 249 301 373
#
# _framework density 18.907820000000001
#
# number of rings (size 3 to 8) (size 9 to 14) (size 15 to 20)
#    0.267    1.867    0.000    2.667    5.600    3.200 
#    5.600    0.000    0.000    0.000    0.000    0.000 
#    0.000    0.000    0.000    0.000    0.000    0.000 
#
# Total GULP energy -250628.497655 kJ/mol
# GULP energy per Si atom -5569.522170 kJ/mol
# Density = 1.886478 g / cm^3
# Si number density = 18.907820 Si / 1000 Ang^3
#
#
#
# Elastic Constant Matrix: (Units=GPa)
#
#
# Indices 1 2 3 4 5 6 
#
# 1 65.3777 75.2659 37.9508 1.9367 0.0000 0.0000
# 2 75.2659 65.3777 37.9508 -1.9367 0.0000 0.0000
# 3 37.9508 37.9508 78.9516 0.0000 0.0000 0.0000
# 4 1.9367 -1.9367 0.0000 18.8509 0.0000 0.0000
# 5 0.0000 0.0000 0.0000 0.0000 18.8509 1.9367
# 6 0.0000 0.0000 0.0000 0.0000 1.9367 -4.9441
#
#
#
# Elastic Compliance Matrix: (Units=1/GPa)
#
#
# Indices 1 2 3 4 5 6 
#
# 1 -0.043809 0.053410 -0.004615 0.009988 0.000000 0.000000
# 2 0.053410 -0.043809 -0.004615 -0.009988 0.000000 0.000000
# 3 -0.004615 -0.004615 0.017103 0.000000 0.000000 0.000000
# 4 0.009988 -0.009988 0.000000 0.050996 0.000000 0.000000
# 5 0.000000 0.000000 0.000000 0.000000 0.050996 0.019977
# 6 0.000000 0.000000 0.000000 0.000000 0.019977 -0.194437
#
#
# Mechanical properties :
#
#
# Convention : Reuss Voigt Hill
#
# Bulk Modulus (GPa) = 56.03999 56.89355 56.46677
# Shear Modulus (GPa) = -20.37719 10.45417 -4.96151
#
# Velocity S-wave (km/s) = -3.28641 2.35394 -1.62165
# Velocity P-wave (km/s) = 3.91180 6.12726 5.14031
#
# Compressibility (1/GPa) = 0.01784440
#
# Stress axis : x y z
#
# Youngs Moduli (GPa) = -22.82642 -22.82642 58.47050
#
# Poissons Ratio (x) = 1.21915 0.26984
# Poissons Ratio (y) = 1.21915 0.26984
# Poissons Ratio (z) = -0.10534 -0.10534
#
# Static dielectric constant tensor:
#      x y z
#    x 1.665050 0.000000 0.000000 
#    y 0.000000 1.665050 0.000000 
#    z 0.000000 0.000000 1.700910 
# 
# From -- ./inp_files/976.got.cif
#   From: 2010.05.17/outbox.cif.g08.bks.cpg/sg150_cif.got.tgz:976.got - 2010.05.20 13:53:18.
