data_PCOD9575715
_publ_section_title
;
Structure prediction by ZEFSAII (Michael W. Deem and Ramdas Pophale) SiO2 
 PCOD9575715
Probable space group: P 31 2 1
;
_chemical_formula_sum "Si O2"
_cell_formula_units_Z 24
_cell_length_a 7.646998
_cell_length_b 7.646998
_cell_length_c 20.826441
_cell_angle_alpha 90.000000
_cell_angle_beta 90.000000
_cell_angle_gamma 120.000000
_cell_volume 1054.696841
_symmetry_space_group_name_H-M "P 31 2 1"
_symmetry_group_IT_number 152
_symmetry_cell_setting 'hexagonal'
loop_
_space_group_symop_operation_xyz
x,y,z
-y,x-y,1/3+z
-x+y,-x,2/3+z
x-y,-y,2/3-z
-x,-x+y,1/3-z
y,x,-z
loop_
_atom_site_type_symbol
_atom_site_label
_atom_site_fract_x
_atom_site_fract_y
_atom_site_fract_z
Si Si1 0.425442 0.210918 0.089360
Si Si2 0.748771 0.299295 0.653951
Si Si3 0.347212 0.034015 0.962721
Si Si4 0.302076 0.291877 0.778930
O O1 0.325342 0.237533 0.151718
O O2 0.277626 0.074876 0.032065
O O3 0.562260 0.109452 0.106380
O O4 0.563590 0.422202 0.050333
O O5 0.702094 0.454370 0.613952
O O6 0.542221 0.126635 0.686235
O O7 0.801662 0.167905 0.607361
O O8 0.181767 0.929727 0.908554
#
# Coordination Sequence:
#
# PCOD9575715 Si02
#       4
#     6   6   6   6
#     4   8  18  30  55  98 118 159 225 250 317 410
#     4   8  15  29  52  90 124 163 207 274 312 395
#     4   8  15  29  55  89 133 153 215 271 313 395
#     4  10  16  34  59  91 129 169 211 273 329 386
#
# _framework density 22.755354000000001
#
# number of rings (size 3 to 8) (size 9 to 14) (size 15 to 20)
#    1.500    2.000    2.500    0.000    0.000    0.000 
#    0.000    6.250    0.000    0.000   39.000    0.000 
#    0.000    0.000    0.000    0.000    0.000    0.000 
#
# Total GULP energy -133646.001318 kJ/mol
# GULP energy per Si atom -5568.583388 kJ/mol
# Density = 2.270356 g / cm^3
# Si number density = 22.755354 Si / 1000 Ang^3
#
#
#
# Elastic Constant Matrix: (Units=GPa)
#
#
# Indices 1 2 3 4 5 6 
#
# 1 62.5916 26.0125 -1.2852 9.4847 0.0000 0.0000
# 2 26.0125 62.5916 -1.2852 -9.4847 0.0000 0.0000
# 3 -1.2852 -1.2852 81.0351 0.0000 0.0000 0.0000
# 4 9.4847 -9.4847 0.0000 39.8421 0.0000 0.0000
# 5 0.0000 0.0000 0.0000 0.0000 39.8421 9.4847
# 6 0.0000 0.0000 0.0000 0.0000 9.4847 18.2896
#
#
#
# Elastic Compliance Matrix: (Units=1/GPa)
#
#
# Indices 1 2 3 4 5 6 
#
# 1 0.021240 -0.009948 0.000179 -0.007425 0.000000 0.000000
# 2 -0.009948 0.021240 0.000179 0.007425 0.000000 0.000000
# 3 0.000179 0.000179 0.012346 0.000000 0.000000 0.000000
# 4 -0.007425 0.007425 0.000000 0.028634 0.000000 0.000000
# 5 0.000000 0.000000 0.000000 0.000000 0.028634 -0.014849
# 6 0.000000 0.000000 0.000000 0.000000 -0.014849 0.062377
#
#
# Mechanical properties :
#
#
# Convention : Reuss Voigt Hill
#
# Bulk Modulus (GPa) = 28.05440 28.12250 28.08845
# Shear Modulus (GPa) = 24.32703 31.77982 28.05342
#
# Velocity S-wave (km/s) = 3.27321 3.74115 3.51497
# Velocity P-wave (km/s) = 5.16146 5.57199 5.37065
#
# Compressibility (1/GPa) = 0.03564503
#
# Stress axis : x y z
#
# Youngs Moduli (GPa) = 47.08136 47.08136 80.99781
#
# Poissons Ratio (x) = 0.46839 -0.01450
# Poissons Ratio (y) = 0.46839 -0.01450
# Poissons Ratio (z) = -0.00843 -0.00843
#
# Static dielectric constant tensor:
#      x y z
#    x 1.958020 0.000000 0.000000 
#    y 0.000000 1.958020 0.000000 
#    z 0.000000 0.000000 1.828140 
# 
# From -- ./inp_files/2631.got.cif
#   From: 2010.05.17/outbox.cif.g08.bks.cpg/sg152_2_cif.got.tgz:2631.got - 2010.05.20 10:36:06.
