data_PCOD9575971
_publ_section_title
;
Structure prediction by ZEFSAII (Michael W. Deem and Ramdas Pophale) SiO2 
 PCOD9575971
Probable space group: P 31 2 1
;
_chemical_formula_sum "Si O2"
_cell_formula_units_Z 24
_cell_length_a 7.394837
_cell_length_b 7.394837
_cell_length_c 25.006324
_cell_angle_alpha 90.000000
_cell_angle_beta 90.000000
_cell_angle_gamma 120.000000
_cell_volume 1184.234466
_symmetry_space_group_name_H-M "P 31 2 1"
_symmetry_group_IT_number 152
_symmetry_cell_setting 'hexagonal'
loop_
_space_group_symop_operation_xyz
x,y,z
-y,x-y,1/3+z
-x+y,-x,2/3+z
x-y,-y,2/3-z
-x,-x+y,1/3-z
y,x,-z
loop_
_atom_site_type_symbol
_atom_site_label
_atom_site_fract_x
_atom_site_fract_y
_atom_site_fract_z
Si Si1 0.151653 0.144250 0.562770
Si Si2 0.788597 0.678803 0.446069
Si Si3 0.462916 0.798685 0.965832
Si Si4 0.441138 0.964748 0.599936
O O1 0.198182 0.198182 0.500000
O O2 0.179216 0.336055 0.598844
O O3 0.309065 0.071091 0.584339
O O4 0.917383 0.951858 0.566181
O O5 0.671795 0.671795 0.500000
O O6 0.629105 0.559586 0.398188
O O7 0.914438 0.551598 0.449123
O O8 0.264807 0.566910 0.960259
O O9 0.511022 0.889109 0.025092
#
# Coordination Sequence:
#
# PCOD9575971 Si02
#       4
#     6   6   6   6
#     4  11  22  41  63  91 124 165 208 256 315 378
#     4   9  22  42  59  90 130 154 206 266 306 369
#     4  10  21  41  63  88 127 163 208 263 304 365
#     4  10  22  40  63  91 124 163 214 257 308 370
#
# _framework density 20.266259000000002
#
# number of rings (size 3 to 8) (size 9 to 14) (size 15 to 20)
#    1.500    0.500    2.500    0.750    0.000    8.000 
#    4.500    2.500    0.000    0.000    0.000    0.000 
#    0.000    0.000    0.000    0.000    0.000    0.000 
#
# Total GULP energy -133728.136133 kJ/mol
# GULP energy per Si atom -5572.005672 kJ/mol
# Density = 2.022013 g / cm^3
# Si number density = 20.266259 Si / 1000 Ang^3
#
#
#
# Elastic Constant Matrix: (Units=GPa)
#
#
# Indices 1 2 3 4 5 6 
#
# 1 52.1423 -17.3948 12.5916 -15.0701 0.0000 0.0000
# 2 -17.3948 52.1423 12.5916 15.0701 0.0000 0.0000
# 3 12.5916 12.5916 34.4456 0.0000 0.0000 0.0000
# 4 -15.0701 15.0701 0.0000 39.1681 0.0000 0.0000
# 5 0.0000 0.0000 0.0000 0.0000 39.1681 -15.0701
# 6 0.0000 0.0000 0.0000 0.0000 -15.0701 34.7685
#
#
#
# Elastic Compliance Matrix: (Units=1/GPa)
#
#
# Indices 1 2 3 4 5 6 
#
# 1 0.028205 0.010946 -0.014312 0.006641 0.000000 0.000000
# 2 0.010946 0.028205 -0.014312 -0.006641 0.000000 0.000000
# 3 -0.014312 -0.014312 0.039495 0.000000 0.000000 0.000000
# 4 0.006641 -0.006641 0.000000 0.030641 0.000000 0.000000
# 5 0.000000 0.000000 0.000000 0.000000 0.030641 0.013281
# 6 0.000000 0.000000 0.000000 0.000000 0.013281 0.034518
#
#
# Mechanical properties :
#
#
# Convention : Reuss Voigt Hill
#
# Bulk Modulus (GPa) = 16.51518 17.14522 16.83020
# Shear Modulus (GPa) = 20.22294 31.35038 25.78666
#
# Velocity S-wave (km/s) = 3.16232 3.93736 3.57093
# Velocity P-wave (km/s) = 4.63686 5.39896 5.03236
#
# Compressibility (1/GPa) = 0.06055035
#
# Stress axis : x y z
#
# Youngs Moduli (GPa) = 35.45431 35.45431 25.31983
#
# Poissons Ratio (x) = -0.38809 0.36237
# Poissons Ratio (y) = -0.38809 0.36237
# Poissons Ratio (z) = 0.50742 0.50742
#
# Static dielectric constant tensor:
#      x y z
#    x 1.712330 0.000000 0.000000 
#    y 0.000000 1.712330 0.000000 
#    z 0.000000 0.000000 1.757250 
# 
# From -- ./inp_files/2920.got.cif
#   From: 2010.05.17/outbox.cif.g08.bks.cpg/sg152_2_cif.got.tgz:2920.got - 2010.05.20 10:36:06.
