data_PCOD9575443
_publ_section_title
;
Structure prediction by ZEFSAII (Michael W. Deem and Ramdas Pophale) SiO2 
 PCOD9575443
Probable space group: P 3 2 1
;
_chemical_formula_sum "Si O2"
_cell_formula_units_Z 24
_cell_length_a 14.157264
_cell_length_b 14.157264
_cell_length_c 6.880620
_cell_angle_alpha 90.000000
_cell_angle_beta 90.000000
_cell_angle_gamma 120.000000
_cell_volume 1194.309444
_symmetry_space_group_name_H-M "P 3 2 1"
_symmetry_group_IT_number 150
_symmetry_cell_setting 'hexagonal'
loop_
_space_group_symop_operation_xyz
x,y,z
-y,x-y,z
-x+y,-x,z
x-y,-y,-z
-x,-x+y,-z
y,x,-z
loop_
_atom_site_type_symbol
_atom_site_label
_atom_site_fract_x
_atom_site_fract_y
_atom_site_fract_z
Si Si1 0.218814 0.000000 0.000000
Si Si2 0.472145 0.000000 0.500000
Si Si3 0.868681 0.084221 0.643462
Si Si4 0.761841 0.614928 0.326988
Si Si5 0.381550 0.353135 0.222472
O O1 0.323189 0.083200 0.129205
O O2 0.127190 0.940012 0.164000
O O3 0.456991 0.097127 0.411117
O O4 0.560200 0.028528 0.669011
O O5 0.881474 0.180272 0.502483
O O6 0.743591 0.023009 0.713390
O O7 0.877315 0.000000 0.500000
O O8 0.843126 0.568052 0.277475
O O9 0.378402 0.378402 0.000000
#
# Coordination Sequence:
#
# PCOD9575443 Si02
#       5
#     3   3   6   6   6
#     4  12  20  38  72  96 136 184 228 290 338 442
#     4  12  24  40  70 104 142 184 236 296 348 412
#     4  10  21  40  67 100 134 186 229 284 360 419
#     4  11  23  40  65 105 131 183 239 282 352 423
#     4  11  23  44  69  94 142 188 227 288 359 420
#
# _framework density 20.095293999999999
#
# number of rings (size 3 to 8) (size 9 to 14) (size 15 to 20)
#    0.000    1.000    8.750    0.000    1.750    0.000 
#    1.500    0.000    0.000   71.000    0.000    0.000 
#    0.000    0.000    0.000    0.000    0.000    0.000 
#
# Total GULP energy -133832.341571 kJ/mol
# GULP energy per Si atom -5576.347565 kJ/mol
# Density = 2.004956 g / cm^3
# Si number density = 20.095294 Si / 1000 Ang^3
#
#
#
# Elastic Constant Matrix: (Units=GPa)
#
#
# Indices 1 2 3 4 5 6 
#
# 1 86.7211 34.8780 51.6448 -10.9236 0.0000 0.0000
# 2 34.8780 86.7211 51.6448 10.9236 0.0000 0.0000
# 3 51.6448 51.6448 197.6928 0.0000 0.0000 0.0000
# 4 -10.9236 10.9236 0.0000 39.4109 0.0000 0.0000
# 5 0.0000 0.0000 0.0000 0.0000 39.4109 -10.9236
# 6 0.0000 0.0000 0.0000 0.0000 -10.9236 25.9215
#
#
#
# Elastic Compliance Matrix: (Units=1/GPa)
#
#
# Indices 1 2 3 4 5 6 
#
# 1 0.016204 -0.005635 -0.002761 0.006053 0.000000 0.000000
# 2 -0.005635 0.016204 -0.002761 -0.006053 0.000000 0.000000
# 3 -0.002761 -0.002761 0.006501 0.000000 0.000000 0.000000
# 4 0.006053 -0.006053 0.000000 0.028729 0.000000 0.000000
# 5 0.000000 0.000000 0.000000 0.000000 0.028729 0.012107
# 6 0.000000 0.000000 0.000000 0.000000 0.012107 0.043680
#
#
# Mechanical properties :
#
#
# Convention : Reuss Voigt Hill
#
# Bulk Modulus (GPa) = 60.25954 71.94112 66.10033
# Shear Modulus (GPa) = 29.78049 36.47985 33.13017
#
# Velocity S-wave (km/s) = 3.85380 4.26531 4.06477
# Velocity P-wave (km/s) = 7.06076 7.75466 7.41584
#
# Compressibility (1/GPa) = 0.01659488
#
# Stress axis : x y z
#
# Youngs Moduli (GPa) = 61.71127 61.71127 153.82433
#
# Poissons Ratio (x) = 0.34777 0.42471
# Poissons Ratio (y) = 0.34777 0.42471
# Poissons Ratio (z) = 0.17039 0.17039
#
# Static dielectric constant tensor:
#      x y z
#    x 1.763550 0.000000 0.000000 
#    y 0.000000 1.763550 0.000000 
#    z 0.000000 0.000000 1.744660 
# 
# From -- ./inp_files/151.got.cif
#   From: 2010.05.17/outbox.cif.g08.bks.cpg/sg150_cif.got.tgz:151.got - 2010.05.20 13:53:18.
