data_PCOD9575141
_publ_section_title
;
Structure prediction by ZEFSAII (Michael W. Deem and Ramdas Pophale) SiO2 
 PCOD9575141
Probable space group: R -3
;
_chemical_formula_sum "Si O2"
_cell_formula_units_Z 54
_cell_length_a 17.507076
_cell_length_b 17.507076
_cell_length_c 10.280248
_cell_angle_alpha 90.000000
_cell_angle_beta 90.000000
_cell_angle_gamma 120.000000
_cell_volume 2728.735604
_symmetry_space_group_name_H-M "R -3"
_symmetry_group_IT_number 148
_symmetry_cell_setting 'hexagonal'
loop_
_space_group_symop_operation_xyz
x,y,z
-y,x-y,z
-x+y,-x,z
-x,-y,-z
y,-x+y,-z
x-y,x,-z
2/3+x,1/3+y,1/3+z
2/3-y,1/3+x-y,1/3+z
2/3-x+y,1/3-x,1/3+z
2/3-x,1/3-y,1/3-z
2/3+y,1/3-x+y,1/3-z
2/3+x-y,1/3+x,1/3-z
1/3+x,2/3+y,2/3+z
1/3-y,2/3+x-y,2/3+z
1/3-x+y,2/3-x,2/3+z
1/3-x,2/3-y,2/3-z
1/3+y,2/3-x+y,2/3-z
1/3+x-y,2/3+x,2/3-z
loop_
_atom_site_type_symbol
_atom_site_label
_atom_site_fract_x
_atom_site_fract_y
_atom_site_fract_z
Si Si1 0.493122 0.809902 0.598868
Si Si2 0.671263 0.768018 0.726105
Si Si3 0.057132 0.565667 0.887641
O O1 0.483805 0.744739 0.717516
O O2 0.569076 0.911627 0.603080
O O3 0.521176 0.772305 0.477602
O O4 0.666667 0.833334 0.833334
O O5 0.666438 0.797969 0.579554
O O6 0.751136 0.750348 0.748476
O O7 0.000000 0.500000 0.000000
#
# Coordination Sequence:
#
# PCOD9575141 Si02
#       3
#    18  18  18
#     4  10  21  39  64  91 121 166 218 259 306 383
#     4  11  23  42  63  90 126 170 213 259 318 392
#     4  11  23  39  63  95 128 164 211 268 324 379
#
# _framework density 19.789383999999998
#
# number of rings (size 3 to 8) (size 9 to 14) (size 15 to 20)
#    0.000    1.333    0.000   10.333    0.000    2.667 
#    0.000    0.000    0.000    0.000    0.000   18.667 
#    0.000    0.000    0.000    0.000    0.000    0.000 
#
# Total GULP energy -100244.454104 kJ/mol
# GULP energy per Si atom -5569.136339 kJ/mol
# Density = 1.974434 g / cm^3
# Si number density = 19.789384 Si / 1000 Ang^3
#
#
#
# Elastic Constant Matrix: (Units=GPa)
#
#
# Indices 1 2 3 4 5 6 
#
# 1 143.9528 60.6128 56.4175 14.8593 1.6003 0.0000
# 2 60.6128 143.9528 56.4175 -14.8593 -1.6003 0.0000
# 3 56.4175 56.4175 156.6355 0.0000 0.0000 0.0000
# 4 14.8593 -14.8593 0.0000 41.9825 0.0000 -1.6003
# 5 1.6003 -1.6003 0.0000 0.0000 41.9825 14.8593
# 6 0.0000 0.0000 0.0000 -1.6003 14.8593 41.6700
#
#
#
# Elastic Compliance Matrix: (Units=1/GPa)
#
#
# Indices 1 2 3 4 5 6 
#
# 1 0.009928 -0.003827 -0.002197 -0.004869 -0.000524 0.000000
# 2 -0.003827 0.009928 -0.002197 0.004869 0.000524 0.000000
# 3 -0.002197 -0.002197 0.007967 0.000000 0.000000 0.000000
# 4 -0.004869 0.004869 0.000000 0.027306 0.000000 0.001049
# 5 -0.000524 0.000524 0.000000 0.000000 0.027306 -0.009737
# 6 0.000000 0.000000 0.000000 0.001049 -0.009737 0.027511
#
#
# Mechanical properties :
#
#
# Convention : Reuss Voigt Hill
#
# Bulk Modulus (GPa) = 87.88265 87.93744 87.91005
# Shear Modulus (GPa) = 38.40785 43.19989 40.80387
#
# Velocity S-wave (km/s) = 4.41027 4.67731 4.54575
# Velocity P-wave (km/s) = 8.39281 8.58503 8.48947
#
# Compressibility (1/GPa) = 0.01137881
#
# Stress axis : x y z
#
# Youngs Moduli (GPa) = 100.72690 100.72690 125.51654
#
# Poissons Ratio (x) = 0.38553 0.27579
# Poissons Ratio (y) = 0.38553 0.27579
# Poissons Ratio (z) = 0.22132 0.22132
#
# Static dielectric constant tensor:
#      x y z
#    x 1.745770 0.000000 0.000000 
#    y 0.000000 1.745770 0.000000 
#    z 0.000000 0.000000 1.737330 
# 
# From -- ./inp_files/672.got.cif
#   From: 2010.05.17/outbox.cif.g08.bks.cpg/sg148_1_cif.got.tgz:672.got - 2010.05.20 13:50:20.
