data_PCOD9575093
_publ_section_title
;
Structure prediction by ZEFSAII (Michael W. Deem and Ramdas Pophale) SiO2 
 PCOD9575093
Probable space group: R -3
;
_chemical_formula_sum "Si O2"
_cell_formula_units_Z 90
_cell_length_a 17.210868
_cell_length_b 17.210868
_cell_length_c 17.547372
_cell_angle_alpha 90.000000
_cell_angle_beta 90.000000
_cell_angle_gamma 120.000000
_cell_volume 4501.406797
_symmetry_space_group_name_H-M "R -3"
_symmetry_group_IT_number 148
_symmetry_cell_setting 'hexagonal'
loop_
_space_group_symop_operation_xyz
x,y,z
-y,x-y,z
-x+y,-x,z
-x,-y,-z
y,-x+y,-z
x-y,x,-z
2/3+x,1/3+y,1/3+z
2/3-y,1/3+x-y,1/3+z
2/3-x+y,1/3-x,1/3+z
2/3-x,1/3-y,1/3-z
2/3+y,1/3-x+y,1/3-z
2/3+x-y,1/3+x,1/3-z
1/3+x,2/3+y,2/3+z
1/3-y,2/3+x-y,2/3+z
1/3-x+y,2/3-x,2/3+z
1/3-x,2/3-y,2/3-z
1/3+y,2/3-x+y,2/3-z
1/3+x-y,2/3+x,2/3-z
loop_
_atom_site_type_symbol
_atom_site_label
_atom_site_fract_x
_atom_site_fract_y
_atom_site_fract_z
Si Si1 0.038192 0.446641 0.941032
Si Si2 0.347116 0.158292 0.981831
Si Si3 0.878821 0.406875 0.828303
Si Si4 0.208132 0.235904 0.265677
Si Si5 0.368599 0.945769 0.569873
O O1 0.948060 0.427640 0.897041
O O2 0.068560 0.384857 0.898735
O O3 0.109021 0.551753 0.936643
O O4 0.000358 0.405264 0.024916
O O5 0.433076 0.160796 0.020943
O O6 0.284467 0.171457 0.042602
O O7 0.390806 0.229049 0.913236
O O8 0.289233 0.059522 0.946592
O O9 0.804013 0.302164 0.830507
O O10 0.237993 0.229029 0.180689
#
# Coordination Sequence:
#
# PCOD9575093 Si02
#       5
#    18  18  18  18  18
#     4  10  21  36  65  87 128 170 210 256 320 380
#     4  11  25  37  64  93 127 166 214 266 324 381
#     4  12  23  41  60  95 132 171 207 255 326 394
#     4  10  20  38  55  92 122 165 209 260 311 376
#     4  11  23  40  64  95 130 162 219 270 317 386
#
# _framework density 19.993749999999999
#
# number of rings (size 3 to 8) (size 9 to 14) (size 15 to 20)
#    0.000    1.200    6.000    0.800   14.000    0.000 
#    0.000    0.000    0.000    1.200    0.000    2.800 
#    0.000    0.000    0.000    0.000    0.000    0.000 
#
# Total GULP energy -167163.529495 kJ/mol
# GULP energy per Si atom -5572.117650 kJ/mol
# Density = 1.994824 g / cm^3
# Si number density = 19.993750 Si / 1000 Ang^3
#
#
#
# Elastic Constant Matrix: (Units=GPa)
#
#
# Indices 1 2 3 4 5 6 
#
# 1 58.2198 10.7686 33.2137 -0.6840 -4.9798 0.0000
# 2 10.7686 58.2198 33.2137 0.6840 4.9798 0.0000
# 3 33.2137 33.2137 123.7820 0.0000 0.0000 0.0000
# 4 -0.6840 0.6840 0.0000 13.8772 0.0000 4.9798
# 5 -4.9798 4.9798 0.0000 0.0000 13.8772 -0.6840
# 6 0.0000 0.0000 0.0000 4.9798 -0.6840 23.7256
#
#
#
# Elastic Compliance Matrix: (Units=1/GPa)
#
#
# Indices 1 2 3 4 5 6 
#
# 1 0.021185 -0.001641 -0.005244 0.001125 0.008191 0.000000
# 2 -0.001641 0.021185 -0.005244 -0.001125 -0.008191 0.000000
# 3 -0.005244 -0.005244 0.010893 0.000000 0.000000 0.000000
# 4 0.001125 -0.001125 0.000000 0.078050 0.000000 -0.016382
# 5 0.008191 -0.008191 0.000000 0.000000 0.078050 0.002250
# 6 0.000000 0.000000 0.000000 -0.016382 0.002250 0.045652
#
#
# Mechanical properties :
#
#
# Convention : Reuss Voigt Hill
#
# Bulk Modulus (GPa) = 34.47636 43.84593 39.16115
# Shear Modulus (GPa) = 17.30442 21.16436 19.23439
#
# Velocity S-wave (km/s) = 2.94512 3.25706 3.10501
# Velocity P-wave (km/s) = 5.37084 6.01016 5.69947
#
# Compressibility (1/GPa) = 0.02900538
#
# Stress axis : x y z
#
# Youngs Moduli (GPa) = 47.20229 47.20229 91.80133
#
# Poissons Ratio (x) = 0.07744 0.48144
# Poissons Ratio (y) = 0.07744 0.48144
# Poissons Ratio (z) = 0.24755 0.24755
#
# Static dielectric constant tensor:
#      x y z
#    x 1.739360 0.000000 0.000000 
#    y 0.000000 1.739360 0.000000 
#    z 0.000000 0.000000 1.788920 
# 
# From -- ./inp_files/2666.got.cif
#   From: 2010.05.17/outbox.cif.g08.bks.cpg/sg148_2_cif.got.tgz:2666.got - 2010.05.20 13:50:20.
