data_PCOD9575678
_publ_section_title
;
Structure prediction by ZEFSAII (Michael W. Deem and Ramdas Pophale) SiO2 
 PCOD9575678
Probable space group: P 31 1 2
;
_chemical_formula_sum "Si O2"
_cell_formula_units_Z 24
_cell_length_a 7.893784
_cell_length_b 7.893784
_cell_length_c 20.358201
_cell_angle_alpha 90.000000
_cell_angle_beta 90.000000
_cell_angle_gamma 120.000000
_cell_volume 1098.602307
_symmetry_space_group_name_H-M "P 31 1 2"
_symmetry_group_IT_number 151
_symmetry_cell_setting 'hexagonal'
loop_
_space_group_symop_operation_xyz
x,y,z
-y,x-y,1/3+z
-x+y,-x,2/3+z
-y,-x,2/3-z
-x+y,y,1/3-z
x,x-y,-z
loop_
_atom_site_type_symbol
_atom_site_label
_atom_site_fract_x
_atom_site_fract_y
_atom_site_fract_z
Si Si1 0.305258 0.407007 0.607274
Si Si2 0.115344 0.254918 0.477625
Si Si3 0.704882 0.024038 0.683381
Si Si4 0.704540 0.953995 0.433273
O O1 0.251656 0.503312 0.666667
O O2 0.164548 0.372512 0.545167
O O3 0.290274 0.208849 0.635388
O O4 0.523821 0.542786 0.583404
O O5 0.262569 0.360336 0.418119
O O6 0.135424 0.067712 0.500000
O O7 0.899738 0.158482 0.447683
O O8 0.539534 0.079067 0.666667
O O9 0.729782 0.898792 0.625476
O O10 0.663647 0.831824 0.500000
#
# Coordination Sequence:
#
# PCOD9575678 Si02
#       4
#     6   6   6   6
#     4  11  23  40  64  96 129 166 210 260 318 379
#     4   9  20  39  63  88 124 167 207 254 311 368
#     4  11  22  39  63  93 128 167 210 258 311 377
#     4  11  22  40  65  91 125 170 212 260 317 376
#
# _framework density 21.845939000000001
#
# number of rings (size 3 to 8) (size 9 to 14) (size 15 to 20)
#    0.000    1.500    0.000    7.500    0.000    2.000 
#    0.000    0.000    0.000   15.000    0.000    0.000 
#    0.000    0.000    0.000    0.000    0.000    0.000 
#
# Total GULP energy -134218.449888 kJ/mol
# GULP energy per Si atom -5592.435412 kJ/mol
# Density = 2.179622 g / cm^3
# Si number density = 21.845939 Si / 1000 Ang^3
#
#
#
# Elastic Constant Matrix: (Units=GPa)
#
#
# Indices 1 2 3 4 5 6 
#
# 1 67.3619 16.4792 36.3933 -0.0002 11.2228 0.0000
# 2 16.4792 67.3619 36.3933 0.0002 -11.2228 0.0000
# 3 36.3933 36.3933 149.5362 0.0000 0.0000 0.0000
# 4 -0.0002 0.0002 0.0000 27.0895 0.0000 -11.2228
# 5 11.2228 -11.2228 0.0000 0.0000 27.0895 -0.0002
# 6 0.0000 0.0000 0.0000 -11.2228 -0.0002 25.4414
#
#
#
# Elastic Compliance Matrix: (Units=1/GPa)
#
#
# Indices 1 2 3 4 5 6 
#
# 1 0.019585 -0.004463 -0.003680 0.000000 -0.009963 0.000000
# 2 -0.004463 0.019585 -0.003680 0.000000 0.009963 0.000000
# 3 -0.003680 -0.003680 0.008479 0.000000 0.000000 0.000000
# 4 0.000000 0.000000 0.000000 0.045170 0.000000 0.019925
# 5 -0.009963 0.009963 0.000000 0.000000 0.045170 0.000000
# 6 0.000000 0.000000 0.000000 0.019925 0.000000 0.048096
#
#
# Mechanical properties :
#
#
# Convention : Reuss Voigt Hill
#
# Bulk Modulus (GPa) = 41.66311 51.42129 46.54220
# Shear Modulus (GPa) = 22.96402 28.92367 25.94385
#
# Velocity S-wave (km/s) = 3.24571 3.64261 3.44987
# Velocity P-wave (km/s) = 5.75838 6.42500 6.10080
#
# Compressibility (1/GPa) = 0.02400205
#
# Stress axis : x y z
#
# Youngs Moduli (GPa) = 51.05901 51.05901 117.94136
#
# Poissons Ratio (x) = 0.22786 0.43407
# Poissons Ratio (y) = 0.22786 0.43407
# Poissons Ratio (z) = 0.18792 0.18792
#
# Static dielectric constant tensor:
#      x y z
#    x 1.784640 0.000000 0.000000 
#    y 0.000000 1.784640 0.000000 
#    z 0.000000 0.000000 1.800750 
# 
# From -- ./inp_files/3717.got.cif
#   From: 2010.05.17/outbox.cif.g08.bks.cpg/sg151_2_cif.got.tgz:3717.got - 2010.05.20 10:33:20.
