data_PCOD9575579
_publ_section_title
;
Structure prediction by ZEFSAII (Michael W. Deem and Ramdas Pophale) SiO2 
 PCOD9575579
Probable space group: P 31 1 2
;
_chemical_formula_sum "Si O2"
_cell_formula_units_Z 30
_cell_length_a 11.402471
_cell_length_b 11.402471
_cell_length_c 12.471446
_cell_angle_alpha 90.000000
_cell_angle_beta 90.000000
_cell_angle_gamma 120.000000
_cell_volume 1404.253112
_symmetry_space_group_name_H-M "P 31 1 2"
_symmetry_group_IT_number 151
_symmetry_cell_setting 'hexagonal'
loop_
_space_group_symop_operation_xyz
x,y,z
-y,x-y,1/3+z
-x+y,-x,2/3+z
-y,-x,2/3-z
-x+y,y,1/3-z
x,x-y,-z
loop_
_atom_site_type_symbol
_atom_site_label
_atom_site_fract_x
_atom_site_fract_y
_atom_site_fract_z
Si Si1 0.241575 0.011957 0.828092
Si Si2 0.134169 0.467505 0.333335
Si Si3 0.896276 0.574904 0.494759
Si Si4 0.605500 0.959870 0.711467
Si Si5 0.626542 0.687705 0.044797
O O1 0.333336 0.166664 0.865093
O O2 0.282368 0.009127 0.705695
O O3 0.077082 0.922919 0.833334
O O4 0.290354 0.927723 0.901443
O O5 0.271383 0.474875 0.369230
O O6 0.141538 0.604720 0.297445
O O7 0.029289 0.405605 0.431889
O O8 0.820822 0.410411 0.500000
O O9 0.939903 0.615702 0.372363
O O10 0.504930 0.009860 0.666667
O O11 0.655901 0.989234 0.833335
O O12 0.676535 0.838268 0.000000
#
# Coordination Sequence:
#
# PCOD9575579 Si02
#       5
#     6   6   6   6   6
#     4  10  22  40  62  89 123 170 216 264 321 396
#     4  10  20  36  62  88 120 160 200 264 318 394
#     4  10  22  40  62  89 123 170 216 264 321 396
#     4  11  21  36  61  92 124 151 198 265 332 388
#     4  11  21  36  61  92 124 151 198 265 332 388
#
# _framework density 21.363669999999999
#
# number of rings (size 3 to 8) (size 9 to 14) (size 15 to 20)
#    0.000    1.600    4.000    1.200    0.000    2.400 
#    0.000    8.000    0.000    0.000    0.000    0.000 
#    0.000    0.000    0.000    0.000    0.000    0.000 
#
# Total GULP energy -167336.596292 kJ/mol
# GULP energy per Si atom -5577.886543 kJ/mol
# Density = 2.131505 g / cm^3
# Si number density = 21.363670 Si / 1000 Ang^3
#
#
#
# Elastic Constant Matrix: (Units=GPa)
#
#
# Indices 1 2 3 4 5 6 
#
# 1 69.7001 26.2076 13.6276 0.0000 -0.0003 0.0000
# 2 26.2076 69.7001 13.6276 0.0000 0.0003 0.0000
# 3 13.6276 13.6276 180.8353 0.0000 0.0000 0.0000
# 4 0.0000 0.0000 0.0000 10.1095 0.0000 0.0003
# 5 -0.0003 0.0003 0.0000 0.0000 10.1095 0.0000
# 6 0.0000 0.0000 0.0000 0.0003 0.0000 21.7463
#
#
#
# Elastic Compliance Matrix: (Units=1/GPa)
#
#
# Indices 1 2 3 4 5 6 
#
# 1 0.016824 -0.006169 -0.000803 0.000000 0.000001 0.000000
# 2 -0.006169 0.016824 -0.000803 0.000000 -0.000001 0.000000
# 3 -0.000803 -0.000803 0.005651 0.000000 0.000000 0.000000
# 4 0.000000 0.000000 0.000000 0.098917 0.000000 -0.000001
# 5 0.000001 -0.000001 0.000000 0.000000 0.098917 0.000000
# 6 0.000000 0.000000 0.000000 -0.000001 0.000000 0.045985
#
#
# Mechanical properties :
#
#
# Convention : Reuss Voigt Hill
#
# Bulk Modulus (GPa) = 42.10722 47.46234 44.78478
# Shear Modulus (GPa) = 16.30877 26.17788 21.24332
#
# Velocity S-wave (km/s) = 2.76595 3.50429 3.15678
# Velocity P-wave (km/s) = 5.47294 6.21595 5.85624
#
# Compressibility (1/GPa) = 0.02374889
#
# Stress axis : x y z
#
# Youngs Moduli (GPa) = 59.44006 59.44006 176.96260
#
# Poissons Ratio (x) = 0.36667 0.14209
# Poissons Ratio (y) = 0.36667 0.14209
# Poissons Ratio (z) = 0.04773 0.04773
#
# Static dielectric constant tensor:
#      x y z
#    x 1.812600 0.000000 0.000000 
#    y 0.000000 1.812600 0.000000 
#    z 0.000000 0.000000 1.807430 
# 
# From -- ./inp_files/2814.got.cif
#   From: 2010.05.17/outbox.cif.g08.bks.cpg/sg151_2_cif.got.tgz:2814.got - 2010.05.20 10:33:20.
