data_PCOD9575233
_publ_section_title
;
Structure prediction by ZEFSAII (Michael W. Deem and Ramdas Pophale) SiO2 
 PCOD9575233
Probable space group: R -3
;
_chemical_formula_sum "Si O2"
_cell_formula_units_Z 54
_cell_length_a 11.045864
_cell_length_b 11.045864
_cell_length_c 21.294950
_cell_angle_alpha 90.000000
_cell_angle_beta 90.000000
_cell_angle_gamma 120.000000
_cell_volume 2250.124974
_symmetry_space_group_name_H-M "R -3"
_symmetry_group_IT_number 148
_symmetry_cell_setting 'hexagonal'
loop_
_space_group_symop_operation_xyz
x,y,z
-y,x-y,z
-x+y,-x,z
-x,-y,-z
y,-x+y,-z
x-y,x,-z
2/3+x,1/3+y,1/3+z
2/3-y,1/3+x-y,1/3+z
2/3-x+y,1/3-x,1/3+z
2/3-x,1/3-y,1/3-z
2/3+y,1/3-x+y,1/3-z
2/3+x-y,1/3+x,1/3-z
1/3+x,2/3+y,2/3+z
1/3-y,2/3+x-y,2/3+z
1/3-x+y,2/3-x,2/3+z
1/3-x,2/3-y,2/3-z
1/3+y,2/3-x+y,2/3-z
1/3+x-y,2/3+x,2/3-z
loop_
_atom_site_type_symbol
_atom_site_label
_atom_site_fract_x
_atom_site_fract_y
_atom_site_fract_z
Si Si1 0.592312 0.985825 0.584284
Si Si2 0.326033 0.820879 0.297621
Si Si3 0.897285 0.611990 0.452908
O O1 0.589737 0.840602 0.570544
O O2 0.429141 0.941124 0.582977
O O3 0.658802 0.077228 0.646274
O O4 0.671831 0.087112 0.525361
O O5 0.202330 0.662242 0.301076
O O6 0.328753 0.895090 0.232990
#
# Coordination Sequence:
#
# PCOD9575233 Si02
#       3
#    18  18  18
#     4  11  26  45  75 107 153 195 257 315 379 444
#     4  10  26  47  75 108 155 198 255 304 379 458
#     4  11  26  44  73 109 148 201 254 318 372 453
#
# _framework density 23.998666
#
# number of rings (size 3 to 8) (size 9 to 14) (size 15 to 20)
#    0.667    0.667    0.000    2.667   14.000    2.667 
#    0.000    5.000    0.000    0.000    0.000    0.000 
#    0.000    0.000    0.000    0.000    0.000    0.000 
#
# Total GULP energy -100693.118898 kJ/mol
# GULP energy per Si atom -5594.062161 kJ/mol
# Density = 2.394404 g / cm^3
# Si number density = 23.998666 Si / 1000 Ang^3
#
#
#
# Elastic Constant Matrix: (Units=GPa)
#
#
# Indices 1 2 3 4 5 6 
#
# 1 142.8162 39.5459 16.8241 7.4051 -2.9065 0.0000
# 2 39.5459 142.8162 16.8241 -7.4051 2.9065 0.0000
# 3 16.8241 16.8241 58.3704 0.0000 0.0000 0.0000
# 4 7.4051 -7.4051 0.0000 35.4679 0.0000 2.9065
# 5 -2.9065 2.9065 0.0000 0.0000 35.4679 7.4051
# 6 0.0000 0.0000 0.0000 2.9065 7.4051 51.6352
#
#
#
# Elastic Compliance Matrix: (Units=1/GPa)
#
#
# Indices 1 2 3 4 5 6 
#
# 1 0.007911 -0.002119 -0.001669 -0.002094 0.000822 0.000000
# 2 -0.002119 0.007911 -0.001669 0.002094 -0.000822 0.000000
# 3 -0.001669 -0.001669 0.018094 0.000000 0.000000 0.000000
# 4 -0.002094 0.002094 0.000000 0.029204 0.000000 -0.001644
# 5 0.000822 -0.000822 0.000000 0.000000 0.029204 -0.004188
# 6 0.000000 0.000000 0.000000 -0.001644 -0.004188 0.020060
#
#
# Mechanical properties :
#
#
# Convention : Reuss Voigt Hill
#
# Bulk Modulus (GPa) = 43.47785 54.48789 48.98287
# Shear Modulus (GPa) = 38.17811 42.56811 40.37311
#
# Velocity S-wave (km/s) = 3.99286 4.21618 4.10604
# Velocity P-wave (km/s) = 6.27801 6.81582 6.55244
#
# Compressibility (1/GPa) = 0.02300022
#
# Stress axis : x y z
#
# Youngs Moduli (GPa) = 126.41020 126.41020 55.26617
#
# Poissons Ratio (x) = 0.26788 0.09226
# Poissons Ratio (y) = 0.26788 0.09226
# Poissons Ratio (z) = 0.21102 0.21102
#
# Static dielectric constant tensor:
#      x y z
#    x 1.931960 0.000000 0.000000 
#    y 0.000000 1.931960 0.000000 
#    z 0.000000 0.000000 1.859040 
# 
# From -- ./inp_files/2935.got.cif
#   From: 2010.05.17/outbox.cif.g08.bks.cpg/sg148_2_cif.got.tgz:2935.got - 2010.05.20 13:50:20.
