data_PCOD9575895
_publ_section_title
;
Structure prediction by ZEFSAII (Michael W. Deem and Ramdas Pophale) SiO2 
 PCOD9575895
Probable space group: P 31 2 1
;
_chemical_formula_sum "Si O2"
_cell_formula_units_Z 33
_cell_length_a 11.403304
_cell_length_b 11.403304
_cell_length_c 13.809857
_cell_angle_alpha 90.000000
_cell_angle_beta 90.000000
_cell_angle_gamma 120.000000
_cell_volume 1555.181989
_symmetry_space_group_name_H-M "P 31 2 1"
_symmetry_group_IT_number 152
_symmetry_cell_setting 'hexagonal'
loop_
_space_group_symop_operation_xyz
x,y,z
-y,x-y,1/3+z
-x+y,-x,2/3+z
x-y,-y,2/3-z
-x,-x+y,1/3-z
y,x,-z
loop_
_atom_site_type_symbol
_atom_site_label
_atom_site_fract_x
_atom_site_fract_y
_atom_site_fract_z
Si Si1 0.643439 0.208560 0.697684
Si Si2 0.769713 0.015461 0.445792
Si Si3 0.254087 0.893243 0.904435
Si Si4 0.750423 0.719193 0.216406
Si Si5 0.326414 0.326414 0.500000
Si Si6 0.445198 0.880043 0.186822
O O1 0.512394 0.215824 0.733237
O O2 0.630764 0.191954 0.582506
O O3 0.774120 0.341768 0.735704
O O4 0.636934 0.075474 0.748250
O O5 0.650179 0.051557 0.446718
O O6 0.908689 0.140140 0.486227
O O7 0.796789 0.000000 0.333334
O O8 0.720639 0.885814 0.514142
O O9 0.366468 0.000000 0.833334
O O10 0.264236 0.973823 0.001422
O O11 0.617225 0.593501 0.170385
O O12 0.878097 0.697380 0.200216
#
# Coordination Sequence:
#
# PCOD9575895 Si02
#       6
#     6   6   6   6   3   6
#     4  10  22  42  69  94 128 174 227 271 329 406
#     4  12  26  40  66  99 136 171 219 280 331 389
#     4  11  22  41  64  93 128 172 218 266 325 391
#     4  10  24  43  64  92 133 170 222 263 329 397
#     4  10  20  42  66  92 124 180 220 264 324 404
#     4  10  25  42  66  98 132 175 219 278 338 387
#
# _framework density 21.219384000000002
#
# number of rings (size 3 to 8) (size 9 to 14) (size 15 to 20)
#    0.000    1.455    2.727    1.091    6.364    0.000 
#    0.000    6.364    0.000    0.000    0.000    0.000 
#    0.000    0.000    0.000    0.000    0.000    0.000 
#
# Total GULP energy -184291.706085 kJ/mol
# GULP energy per Si atom -5584.597154 kJ/mol
# Density = 2.117109 g / cm^3
# Si number density = 21.219384 Si / 1000 Ang^3
#
#
#
# Elastic Constant Matrix: (Units=GPa)
#
#
# Indices 1 2 3 4 5 6 
#
# 1 56.7688 18.7305 -13.2274 6.1713 -0.0002 0.0000
# 2 18.7305 56.7688 -13.2274 -6.1713 0.0002 0.0000
# 3 -13.2274 -13.2274 31.6868 0.0000 0.0000 0.0000
# 4 6.1713 -6.1713 0.0000 12.6860 0.0000 0.0002
# 5 -0.0002 0.0002 0.0000 0.0000 12.6860 6.1713
# 6 0.0000 0.0000 0.0000 0.0002 6.1713 19.0191
#
#
#
# Elastic Compliance Matrix: (Units=1/GPa)
#
#
# Indices 1 2 3 4 5 6 
#
# 1 0.023366 -0.007851 0.006476 -0.015186 0.000001 0.000000
# 2 -0.007851 0.023366 0.006476 0.015186 -0.000001 0.000000
# 3 0.006476 0.006476 0.036966 0.000000 0.000000 0.000000
# 4 -0.015186 0.015186 0.000000 0.093602 0.000000 -0.000001
# 5 0.000001 -0.000001 0.000000 0.000000 0.093602 -0.030372
# 6 0.000000 0.000000 0.000000 -0.000001 -0.030372 0.062434
#
#
# Mechanical properties :
#
#
# Convention : Reuss Voigt Hill
#
# Bulk Modulus (GPa) = 10.64958 14.41953 12.53456
# Shear Modulus (GPa) = 14.10707 19.07479 16.59093
#
# Velocity S-wave (km/s) = 2.58121 3.00147 2.79924
# Velocity P-wave (km/s) = 3.73004 4.33843 4.04569
#
# Compressibility (1/GPa) = 0.09390043
#
# Stress axis : x y z
#
# Youngs Moduli (GPa) = 42.79787 42.79787 27.05195
#
# Poissons Ratio (x) = 0.33601 -0.17520
# Poissons Ratio (y) = 0.33601 -0.17520
# Poissons Ratio (z) = -0.27718 -0.27718
#
# Static dielectric constant tensor:
#      x y z
#    x 1.762430 0.000000 0.000000 
#    y 0.000000 1.762430 0.000000 
#    z 0.000000 0.000000 1.746130 
# 
# From -- ./inp_files/2024.got.cif
#   From: 2010.05.17/outbox.cif.g08.bks.cpg/sg152_2_cif.got.tgz:2024.got - 2010.05.20 10:36:06.
