data_PCOD9575982
_publ_section_title
;
Structure prediction by ZEFSAII (Michael W. Deem and Ramdas Pophale) SiO2 
 PCOD9575982
Probable space group: P 31 2 1
;
_chemical_formula_sum "Si O2"
_cell_formula_units_Z 21
_cell_length_a 7.493004
_cell_length_b 7.493004
_cell_length_c 16.531698
_cell_angle_alpha 90.000000
_cell_angle_beta 90.000000
_cell_angle_gamma 120.000000
_cell_volume 803.822250
_symmetry_space_group_name_H-M "P 31 2 1"
_symmetry_group_IT_number 152
_symmetry_cell_setting 'hexagonal'
loop_
_space_group_symop_operation_xyz
x,y,z
-y,x-y,1/3+z
-x+y,-x,2/3+z
x-y,-y,2/3-z
-x,-x+y,1/3-z
y,x,-z
loop_
_atom_site_type_symbol
_atom_site_label
_atom_site_fract_x
_atom_site_fract_y
_atom_site_fract_z
Si Si1 0.806692 0.574521 0.952009
Si Si2 0.761262 0.654284 0.331941
Si Si3 0.000000 0.430392 0.166667
Si Si4 0.455859 0.095707 0.499884
O O1 0.628925 0.609715 0.917285
O O2 0.994822 0.753742 0.999645
O O3 0.921306 0.566545 0.868546
O O4 0.757911 0.356432 0.990731
O O5 0.676948 0.686152 0.416553
O O6 0.706509 0.702089 0.243234
O O7 0.805402 0.467669 0.162046
#
# Coordination Sequence:
#
# PCOD9575982 Si02
#       4
#     6   6   3   6
#     4  10  21  43  68  94 138 173 236 278 349 415
#     4  10  22  43  65 100 133 182 229 284 343 411
#     4  12  22  42  68  94 148 170 236 290 340 424
#     4  10  22  41  65  99 130 184 225 280 351 409
#
# _framework density 26.125181000000001
#
# number of rings (size 3 to 8) (size 9 to 14) (size 15 to 20)
#    1.714    0.000    2.857    1.714    0.000    2.286 
#    0.000    4.286    0.000    0.000    0.000    0.000 
#    0.000    0.000    0.000    0.000    0.000    0.000 
#
# Total GULP energy -117080.886239 kJ/mol
# GULP energy per Si atom -5575.280297 kJ/mol
# Density = 2.606572 g / cm^3
# Si number density = 26.125181 Si / 1000 Ang^3
#
#
#
# Elastic Constant Matrix: (Units=GPa)
#
#
# Indices 1 2 3 4 5 6 
#
# 1 31.6568 2.8553 -12.9017 -7.8950 -0.0002 0.0000
# 2 2.8553 31.6568 -12.9017 7.8950 0.0002 0.0000
# 3 -12.9017 -12.9017 156.9375 0.0000 0.0000 0.0000
# 4 -7.8950 7.8950 0.0000 40.8250 0.0000 0.0002
# 5 -0.0002 0.0002 0.0000 0.0000 40.8250 -7.8950
# 6 0.0000 0.0000 0.0000 0.0002 -7.8950 14.4008
#
#
#
# Elastic Compliance Matrix: (Units=1/GPa)
#
#
# Indices 1 2 3 4 5 6 
#
# 1 0.034855 -0.003982 0.002538 0.007511 0.000000 0.000000
# 2 -0.003982 0.034855 0.002538 -0.007511 0.000000 0.000000
# 3 0.002538 0.002538 0.006789 0.000000 0.000000 0.000000
# 4 0.007511 -0.007511 0.000000 0.027400 0.000000 0.000000
# 5 0.000000 0.000000 0.000000 0.000000 0.027400 0.015021
# 6 0.000000 0.000000 0.000000 0.000000 0.015021 0.077676
#
#
# Mechanical properties :
#
#
# Convention : Reuss Voigt Hill
#
# Bulk Modulus (GPa) = 12.70854 19.37277 16.04065
# Shear Modulus (GPa) = 21.45763 35.42345 28.44054
#
# Velocity S-wave (km/s) = 2.86901 3.68627 3.30301
# Velocity P-wave (km/s) = 3.98121 5.05466 4.54970
#
# Compressibility (1/GPa) = 0.07868728
#
# Stress axis : x y z
#
# Youngs Moduli (GPa) = 28.68993 28.68993 147.29138
#
# Poissons Ratio (x) = 0.11426 -0.37383
# Poissons Ratio (y) = 0.11426 -0.37383
# Poissons Ratio (z) = -0.07282 -0.07282
#
# Static dielectric constant tensor:
#      x y z
#    x 2.104930 0.000000 0.000000 
#    y 0.000000 2.104930 0.000000 
#    z 0.000000 0.000000 2.345180 
# 
# From -- ./inp_files/2297.got.cif
#   From: 2010.05.17/outbox.cif.g08.bks.cpg/sg152_2_cif.got.tgz:2297.got - 2010.05.20 10:36:06.
