data_PCOD9575188
_publ_section_title
;
Structure prediction by ZEFSAII (Michael W. Deem and Ramdas Pophale) SiO2 
 PCOD9575188
Probable space group: R -3
;
_chemical_formula_sum "Si O2"
_cell_formula_units_Z 60
_cell_length_a 18.468615
_cell_length_b 18.468615
_cell_length_c 8.374482
_cell_angle_alpha 90.000000
_cell_angle_beta 90.000000
_cell_angle_gamma 120.000000
_cell_volume 2473.758168
_symmetry_space_group_name_H-M "R -3"
_symmetry_group_IT_number 148
_symmetry_cell_setting 'hexagonal'
loop_
_space_group_symop_operation_xyz
x,y,z
-y,x-y,z
-x+y,-x,z
-x,-y,-z
y,-x+y,-z
x-y,x,-z
2/3+x,1/3+y,1/3+z
2/3-y,1/3+x-y,1/3+z
2/3-x+y,1/3-x,1/3+z
2/3-x,1/3-y,1/3-z
2/3+y,1/3-x+y,1/3-z
2/3+x-y,1/3+x,1/3-z
1/3+x,2/3+y,2/3+z
1/3-y,2/3+x-y,2/3+z
1/3-x+y,2/3-x,2/3+z
1/3-x,2/3-y,2/3-z
1/3+y,2/3-x+y,2/3-z
1/3+x-y,2/3+x,2/3-z
loop_
_atom_site_type_symbol
_atom_site_label
_atom_site_fract_x
_atom_site_fract_y
_atom_site_fract_z
Si Si1 0.764662 0.250854 0.590132
Si Si2 0.101531 0.428977 0.175139
Si Si3 0.315372 0.146313 0.981217
Si Si4 0.333334 0.666667 0.478550
O O1 0.695619 0.174442 0.695157
O O2 0.849938 0.289993 0.688663
O O3 0.770792 0.216095 0.418176
O O4 0.741895 0.322576 0.580794
O O5 0.124711 0.360934 0.110836
O O6 0.018400 0.418963 0.260259
O O7 0.333334 0.166667 0.166667
O O8 0.333335 0.666668 0.666667
#
# Coordination Sequence:
#
# PCOD9575188 Si02
#       4
#    18  18  18   6
#     4  11  25  47  72 107 142 186 240 290 368 421
#     4  10  22  47  76 105 140 186 234 296 364 439
#     4  11  26  47  72 107 147 188 242 300 365 433
#     4  12  27  40  71 103 138 184 239 295 342 430
#
# _framework density 24.254595999999999
#
# number of rings (size 3 to 8) (size 9 to 14) (size 15 to 20)
#    0.000    1.200    0.000    7.200    8.400    1.200 
#   21.600    0.000    0.000    0.000    0.000    0.000 
#    0.000    0.000    0.000    0.000    0.000    0.000 
#
# Total GULP energy -111814.205648 kJ/mol
# GULP energy per Si atom -5590.710282 kJ/mol
# Density = 2.419939 g / cm^3
# Si number density = 24.254596 Si / 1000 Ang^3
#
#
#
# Elastic Constant Matrix: (Units=GPa)
#
#
# Indices 1 2 3 4 5 6 
#
# 1 54.4307 16.3116 22.8396 0.8570 9.4006 -0.0003
# 2 16.3116 54.4334 22.8396 -0.8582 -9.4009 0.0002
# 3 22.8396 22.8396 143.7613 -0.0005 -0.0002 0.0002
# 4 0.8570 -0.8582 -0.0005 25.0636 0.0001 -9.4012
# 5 9.4006 -9.4009 -0.0002 0.0001 25.0634 0.8576
# 6 -0.0003 0.0002 0.0002 -9.4012 0.8576 19.0605
#
#
#
# Elastic Compliance Matrix: (Units=1/GPa)
#
#
# Indices 1 2 3 4 5 6 
#
# 1 0.024000 -0.008248 -0.002503 -0.001103 -0.012096 0.000001
# 2 -0.008248 0.023999 -0.002502 0.001104 0.012095 0.000000
# 3 -0.002503 -0.002502 0.007751 0.000000 0.000000 0.000000
# 4 -0.001103 0.001104 0.000000 0.049048 0.000000 0.024192
# 5 -0.012096 0.012095 0.000000 0.000000 0.049048 -0.002207
# 6 0.000001 0.000000 0.000000 0.024192 -0.002207 0.064496
#
#
# Mechanical properties :
#
#
# Convention : Reuss Voigt Hill
#
# Bulk Modulus (GPa) = 34.19500 41.84525 38.02012
# Shear Modulus (GPa) = 19.63887 26.54647 23.09267
#
# Velocity S-wave (km/s) = 2.84860 3.31190 3.08895
# Velocity P-wave (km/s) = 4.99483 5.64932 5.33213
#
# Compressibility (1/GPa) = 0.02924404
#
# Stress axis : x y z
#
# Youngs Moduli (GPa) = 41.66621 41.66837 129.01378
#
# Poissons Ratio (x) = 0.34369 0.32287
# Poissons Ratio (y) = 0.34367 0.32284
# Poissons Ratio (z) = 0.10427 0.10427
#
# Static dielectric constant tensor:
#      x y z
#    x 1.946640 0.000000 0.000000 
#    y 0.000000 1.946630 0.000000 
#    z 0.000000 0.000000 1.877420 
# 
# From -- ./inp_files/766.got.cif
#   From: 2010.05.17/outbox.cif.g08.bks.cpg/sg148_1_cif.got.tgz:766.got - 2010.05.20 13:50:20.
