data_PCOD9575552
_publ_section_title
;
Structure prediction by ZEFSAII (Michael W. Deem and Ramdas Pophale) SiO2 
 PCOD9575552
Probable space group: P 31 1 2
;
_chemical_formula_sum "Si O2"
_cell_formula_units_Z 36
_cell_length_a 9.186943
_cell_length_b 9.186943
_cell_length_c 24.378411
_cell_angle_alpha 90.000000
_cell_angle_beta 90.000000
_cell_angle_gamma 120.000000
_cell_volume 1781.878427
_symmetry_space_group_name_H-M "P 31 1 2"
_symmetry_group_IT_number 151
_symmetry_cell_setting 'hexagonal'
loop_
_space_group_symop_operation_xyz
x,y,z
-y,x-y,1/3+z
-x+y,-x,2/3+z
-y,-x,2/3-z
-x+y,y,1/3-z
x,x-y,-z
loop_
_atom_site_type_symbol
_atom_site_label
_atom_site_fract_x
_atom_site_fract_y
_atom_site_fract_z
Si Si1 0.376043 0.622272 0.942992
Si Si2 0.736159 0.341063 0.770055
Si Si3 0.074179 0.714663 0.209441
Si Si4 0.914345 0.255895 0.390779
Si Si5 0.392669 0.986176 0.585593
Si Si6 0.092320 0.062292 0.391518
O O1 0.496151 0.743363 0.895447
O O2 0.362759 0.440802 0.946083
O O3 0.182086 0.574474 0.934763
O O4 0.440829 0.720415 0.000000
O O5 0.700284 0.299717 0.833334
O O6 0.722815 0.501385 0.757325
O O7 0.926995 0.380476 0.761051
O O8 0.603635 0.164795 0.742103
O O9 0.044985 0.677236 0.144411
O O10 0.037667 0.858822 0.231747
O O11 0.824311 0.175690 0.333334
O O12 0.963394 0.120749 0.413264
O O13 0.257095 0.013112 0.618902
O O14 0.030732 0.969269 0.333334
#
# Coordination Sequence:
#
# PCOD9575552 Si02
#       6
#     6   6   6   6   6   6
#     4  11  22  36  58  85 113 151 197 244 294 353
#     4   9  19  37  59  82 112 148 186 233 293 351
#     4  10  19  37  61  84 111 150 197 242 291 353
#     4  10  21  36  54  80 115 150 187 237 291 347
#     4   9  20  37  58  83 116 153 190 239 297 353
#     4   9  18  33  55  82 113 148 187 233 285 339
#
# _framework density 20.203399000000001
#
# number of rings (size 3 to 8) (size 9 to 14) (size 15 to 20)
#    0.000    2.333    0.000    3.500    0.000    4.667 
#    0.000    6.667    0.000   16.000    0.000    0.000 
#    0.000    0.000    0.000    0.000    0.000    0.000 
#
# Total GULP energy -200651.924192 kJ/mol
# GULP energy per Si atom -5573.664561 kJ/mol
# Density = 2.015742 g / cm^3
# Si number density = 20.203399 Si / 1000 Ang^3
#
#
#
# Elastic Constant Matrix: (Units=GPa)
#
#
# Indices 1 2 3 4 5 6 
#
# 1 83.2392 16.2588 11.9569 -0.0007 -8.6087 0.0000
# 2 16.2588 83.2392 11.9569 0.0007 8.6087 0.0000
# 3 11.9569 11.9569 45.0645 0.0000 0.0000 0.0000
# 4 -0.0007 0.0007 0.0000 27.8336 0.0000 8.6087
# 5 -8.6087 8.6087 0.0000 0.0000 27.8336 -0.0007
# 6 0.0000 0.0000 0.0000 8.6087 -0.0007 33.4902
#
#
#
# Elastic Compliance Matrix: (Units=1/GPa)
#
#
# Indices 1 2 3 4 5 6 
#
# 1 0.013477 -0.002742 -0.002848 0.000000 0.005016 0.000000
# 2 -0.002742 0.013477 -0.002848 0.000000 -0.005016 0.000000
# 3 -0.002848 -0.002848 0.023702 0.000000 0.000000 0.000000
# 4 0.000000 0.000000 0.000000 0.039031 0.000000 -0.010033
# 5 0.005016 -0.005016 0.000000 0.000000 0.039031 0.000001
# 6 0.000000 0.000000 0.000000 -0.010033 0.000001 0.032438
#
#
# Mechanical properties :
#
#
# Convention : Reuss Voigt Hill
#
# Bulk Modulus (GPa) = 29.60444 32.43201 31.01823
# Shear Modulus (GPa) = 26.41400 29.25618 27.83509
#
# Velocity S-wave (km/s) = 3.61973 3.80950 3.71582
# Velocity P-wave (km/s) = 5.67053 5.95292 5.81344
#
# Compressibility (1/GPa) = 0.03377872
#
# Stress axis : x y z
#
# Youngs Moduli (GPa) = 74.19973 74.19973 42.19066
#
# Poissons Ratio (x) = 0.20346 0.12017
# Poissons Ratio (y) = 0.20346 0.12017
# Poissons Ratio (z) = 0.21134 0.21134
#
# Static dielectric constant tensor:
#      x y z
#    x 1.727050 0.000000 0.000000 
#    y 0.000000 1.727050 0.000000 
#    z 0.000000 0.000000 2.058500 
# 
# From -- ./inp_files/4670.got.cif
#   From: 2010.05.17/outbox.cif.g08.bks.cpg/sg151_3_cif.got.tgz:4670.got - 2010.05.20 10:33:20.
