data_PCOD9575836
_publ_section_title
;
Structure prediction by ZEFSAII (Michael W. Deem and Ramdas Pophale) SiO2 
 PCOD9575836
Probable space group: P 31 2 1
;
_chemical_formula_sum "Si O2"
_cell_formula_units_Z 15
_cell_length_a 11.216012
_cell_length_b 11.216012
_cell_length_c 5.422726
_cell_angle_alpha 90.000000
_cell_angle_beta 90.000000
_cell_angle_gamma 120.000000
_cell_volume 590.779236
_symmetry_space_group_name_H-M "P 31 2 1"
_symmetry_group_IT_number 152
_symmetry_cell_setting 'hexagonal'
loop_
_space_group_symop_operation_xyz
x,y,z
-y,x-y,1/3+z
-x+y,-x,2/3+z
x-y,-y,2/3-z
-x,-x+y,1/3-z
y,x,-z
loop_
_atom_site_type_symbol
_atom_site_label
_atom_site_fract_x
_atom_site_fract_y
_atom_site_fract_z
Si Si1 0.692431 0.219694 0.036987
Si Si2 0.000000 0.458210 0.666667
Si Si3 0.253977 0.056087 0.582696
O O1 0.774813 0.373631 0.150680
O O2 0.603726 0.128244 0.268015
O O3 0.784818 0.156159 0.938797
O O4 0.005188 0.362917 0.884890
O O5 0.164938 0.000000 0.333334
O O6 0.172191 0.000000 0.833334
#
# Coordination Sequence:
#
# PCOD9575836 Si02
#       3
#     6   3   6
#     4  12  20  34  56  81 122 166 200 250 303 346
#     4  10  22  32  54  86 110 160 214 232 282 390
#     4  10  20  36  50  76 114 156 201 233 290 356
#
# _framework density 25.390194000000001
#
# number of rings (size 3 to 8) (size 9 to 14) (size 15 to 20)
#    1.200    0.000    8.000    0.000    0.000    0.000 
#    0.000    0.000    0.000    0.000    0.000    0.000 
#    0.000    3.200    0.000    5.200    0.000    0.000 
#
# Total GULP energy -83569.283573 kJ/mol
# GULP energy per Si atom -5571.285572 kJ/mol
# Density = 2.533240 g / cm^3
# Si number density = 25.390194 Si / 1000 Ang^3
#
#
#
# Elastic Constant Matrix: (Units=GPa)
#
#
# Indices 1 2 3 4 5 6 
#
# 1 33.0636 36.6482 25.2722 -11.0479 0.0000 0.0000
# 2 36.6482 33.0636 25.2722 11.0479 0.0000 0.0000
# 3 25.2722 25.2722 194.5498 0.0000 0.0000 0.0000
# 4 -11.0479 11.0479 0.0000 21.5452 0.0000 0.0000
# 5 0.0000 0.0000 0.0000 0.0000 21.5452 -11.0479
# 6 0.0000 0.0000 0.0000 0.0000 -11.0479 -1.7923
#
#
#
# Elastic Compliance Matrix: (Units=1/GPa)
#
#
# Indices 1 2 3 4 5 6 
#
# 1 -0.025605 0.041442 -0.002057 -0.034380 0.000000 0.000000
# 2 0.041442 -0.025605 -0.002057 0.034380 0.000000 0.000000
# 3 -0.002057 -0.002057 0.005675 0.000000 0.000000 0.000000
# 4 -0.034380 0.034380 0.000000 0.011155 0.000000 0.000000
# 5 0.000000 0.000000 0.000000 0.000000 0.011155 -0.068760
# 6 0.000000 0.000000 0.000000 0.000000 -0.068760 -0.134094
#
#
# Mechanical properties :
#
#
# Convention : Reuss Voigt Hill
#
# Bulk Modulus (GPa) = 34.34240 48.34026 41.34133
# Shear Modulus (GPa) = -22.49534 19.82524 -1.33505
#
# Velocity S-wave (km/s) = -2.97978 2.79735 -0.72592
# Velocity P-wave (km/s) = 1.31013 5.43267 3.95160
#
# Compressibility (1/GPa) = 0.02911853
#
# Stress axis : x y z
#
# Youngs Moduli (GPa) = -39.05438 -39.05438 176.22621
#
# Poissons Ratio (x) = 1.61848 0.36252
# Poissons Ratio (y) = 1.61848 0.36252
# Poissons Ratio (z) = -0.08034 -0.08034
#
# Static dielectric constant tensor:
#      x y z
#    x 1.994310 0.000000 0.000000 
#    y 0.000000 1.994310 0.000000 
#    z 0.000000 0.000000 2.024480 
# 
# From -- ./inp_files/74.got.cif
#   From: 2010.05.17/outbox.cif.g08.bks.cpg/sg152_1_cif.got.tgz:74.got - 2010.05.20 10:36:06.
