data_PCOD9575962
_publ_section_title
;
Structure prediction by ZEFSAII (Michael W. Deem and Ramdas Pophale) SiO2 
 PCOD9575962
Probable space group: P 31 2 1
;
_chemical_formula_sum "Si O2"
_cell_formula_units_Z 24
_cell_length_a 16.021671
_cell_length_b 16.021671
_cell_length_c 5.102313
_cell_angle_alpha 90.000000
_cell_angle_beta 90.000000
_cell_angle_gamma 120.000000
_cell_volume 1134.261908
_symmetry_space_group_name_H-M "P 31 2 1"
_symmetry_group_IT_number 152
_symmetry_cell_setting 'hexagonal'
loop_
_space_group_symop_operation_xyz
x,y,z
-y,x-y,1/3+z
-x+y,-x,2/3+z
x-y,-y,2/3-z
-x,-x+y,1/3-z
y,x,-z
loop_
_atom_site_type_symbol
_atom_site_label
_atom_site_fract_x
_atom_site_fract_y
_atom_site_fract_z
Si Si1 0.339336 0.894487 0.275149
Si Si2 0.688636 0.066082 0.086028
Si Si3 0.669582 0.774872 0.444845
Si Si4 0.405740 0.769422 0.555376
O O1 0.259264 0.885140 0.487579
O O2 0.368598 0.815327 0.335019
O O3 0.428890 0.000000 0.333334
O O4 0.300400 0.893249 0.987504
O O5 0.801812 0.123629 0.159206
O O6 0.659959 0.148128 0.031397
O O7 0.632050 0.000000 0.333334
O O8 0.665540 0.000000 0.833334
O O9 0.761671 0.761671 0.500000
O O10 0.323248 0.729053 0.772771
#
# Coordination Sequence:
#
# PCOD9575962 Si02
#       4
#     6   6   6   6
#     4  10  21  39  64  93 127 171 228 278 330 399
#     4  12  27  45  67 100 141 178 228 290 352 400
#     4  10  21  43  69  93 125 172 224 279 341 409
#     4  12  26  41  65  94 142 187 237 275 332 410
#
# _framework density 21.159136
#
# number of rings (size 3 to 8) (size 9 to 14) (size 15 to 20)
#    0.000    1.000    2.500    3.750    3.500    3.000 
#    0.000    0.000    0.000    1.500    0.000    0.000 
#    0.000    0.000    0.000    0.000    0.000    0.000 
#
# Total GULP energy -134309.985923 kJ/mol
# GULP energy per Si atom -5596.249413 kJ/mol
# Density = 2.111098 g / cm^3
# Si number density = 21.159136 Si / 1000 Ang^3
#
#
#
# Elastic Constant Matrix: (Units=GPa)
#
#
# Indices 1 2 3 4 5 6 
#
# 1 99.8594 77.3898 24.7725 -15.5422 0.0000 0.0000
# 2 77.3898 99.8594 24.7725 15.5422 0.0000 0.0000
# 3 24.7725 24.7725 80.4081 0.0000 0.0000 0.0000
# 4 -15.5422 15.5422 0.0000 25.8650 0.0000 0.0000
# 5 0.0000 0.0000 0.0000 0.0000 25.8650 -15.5422
# 6 0.0000 0.0000 0.0000 0.0000 -15.5422 11.2348
#
#
#
# Elastic Compliance Matrix: (Units=1/GPa)
#
#
# Indices 1 2 3 4 5 6 
#
# 1 0.134972 -0.128798 -0.001902 0.158498 0.000000 0.000000
# 2 -0.128798 0.134972 -0.001902 -0.158498 0.000000 0.000000
# 3 -0.001902 -0.001902 0.013608 0.000000 0.000000 0.000000
# 4 0.158498 -0.158498 0.000000 0.229143 0.000000 0.000000
# 5 0.000000 0.000000 0.000000 0.000000 0.229143 0.316996
# 6 0.000000 0.000000 0.000000 0.000000 0.316996 0.527539
#
#
# Mechanical properties :
#
#
# Convention : Reuss Voigt Hill
#
# Bulk Modulus (GPa) = 54.50321 59.33298 56.91809
# Shear Modulus (GPa) = 3.24528 22.80577 13.02553
#
# Velocity S-wave (km/s) = 1.23979 3.28658 2.48382
# Velocity P-wave (km/s) = 5.27864 6.51953 5.93163
#
# Compressibility (1/GPa) = 0.01834754
#
# Stress axis : x y z
#
# Youngs Moduli (GPa) = 7.40897 7.40897 73.48365
#
# Poissons Ratio (x) = 0.95426 0.13976
# Poissons Ratio (y) = 0.95426 0.13976
# Poissons Ratio (z) = 0.01409 0.01409
#
# Static dielectric constant tensor:
#      x y z
#    x 1.791880 0.000000 0.000000 
#    y 0.000000 1.791880 0.000000 
#    z 0.000000 0.000000 1.771920 
# 
# From -- ./inp_files/139.got.cif
#   From: 2010.05.17/outbox.cif.g08.bks.cpg/sg152_1_cif.got.tgz:139.got - 2010.05.20 10:36:06.
