data_PCOD9575065
_publ_section_title
;
Structure prediction by ZEFSAII (Michael W. Deem and Ramdas Pophale) SiO2 
 PCOD9575065
Probable space group: R -3
;
_chemical_formula_sum "Si O2"
_cell_formula_units_Z 78
_cell_length_a 14.197766
_cell_length_b 14.197766
_cell_length_c 16.453960
_cell_angle_alpha 90.000000
_cell_angle_beta 90.000000
_cell_angle_gamma 120.000000
_cell_volume 2872.374728
_symmetry_space_group_name_H-M "R -3"
_symmetry_group_IT_number 148
_symmetry_cell_setting 'hexagonal'
loop_
_space_group_symop_operation_xyz
x,y,z
-y,x-y,z
-x+y,-x,z
-x,-y,-z
y,-x+y,-z
x-y,x,-z
2/3+x,1/3+y,1/3+z
2/3-y,1/3+x-y,1/3+z
2/3-x+y,1/3-x,1/3+z
2/3-x,1/3-y,1/3-z
2/3+y,1/3-x+y,1/3-z
2/3+x-y,1/3+x,1/3-z
1/3+x,2/3+y,2/3+z
1/3-y,2/3+x-y,2/3+z
1/3-x+y,2/3-x,2/3+z
1/3-x,2/3-y,2/3-z
1/3+y,2/3-x+y,2/3-z
1/3+x-y,2/3+x,2/3-z
loop_
_atom_site_type_symbol
_atom_site_label
_atom_site_fract_x
_atom_site_fract_y
_atom_site_fract_z
Si Si1 0.094239 0.476275 0.137063
Si Si2 0.333334 0.666667 0.263933
Si Si3 0.253560 0.798802 0.805582
Si Si4 0.581809 0.758183 0.588923
Si Si5 0.134526 0.211055 0.678277
O O1 0.034034 0.216100 0.098509
O O2 0.100679 0.453604 0.041473
O O3 0.981003 0.406737 0.182204
O O4 0.115773 0.597564 0.159375
O O5 0.333335 0.666668 0.166667
O O6 0.364625 0.782265 0.299742
O O7 0.166667 0.833334 0.833334
O O8 0.195693 0.691144 0.748859
O O9 0.286940 0.787749 0.897686
O O10 0.673605 0.813939 0.659847
#
# Coordination Sequence:
#
# PCOD9575065 Si02
#       5
#    18   6  18  18  18
#     4  10  19  36  66 104 137 163 201 265 349 418
#     4  12  21  39  75 117 141 154 197 277 375 441
#     4  12  27  46  68  97 134 181 236 274 317 394
#     4  11  25  45  67  97 135 177 227 278 327 390
#     4  11  23  42  71 102 137 173 211 278 349 396
#
# _framework density 27.15523
#
# number of rings (size 3 to 8) (size 9 to 14) (size 15 to 20)
#    0.000    0.923    0.000   10.385    0.000    4.615 
#    0.000    0.000    0.000    2.769    0.000    0.000 
#    0.000    0.000    0.000    0.000    0.000    0.000 
#
# Total GULP energy -145108.939088 kJ/mol
# GULP energy per Si atom -5581.113042 kJ/mol
# Density = 2.709342 g / cm^3
# Si number density = 27.155230 Si / 1000 Ang^3
#
#
#
# Elastic Constant Matrix: (Units=GPa)
#
#
# Indices 1 2 3 4 5 6 
#
# 1 141.5411 33.6707 13.7390 -6.4657 -5.9990 -0.0002
# 2 33.6707 141.5415 13.7389 6.4660 5.9992 0.0000
# 3 13.7390 13.7389 155.7728 0.0000 0.0000 -0.0001
# 4 -6.4657 6.4660 0.0000 34.4241 0.0000 5.9990
# 5 -5.9990 5.9992 0.0000 0.0000 34.4241 -6.4657
# 6 -0.0002 0.0000 -0.0001 5.9990 -6.4657 53.9351
#
#
#
# Elastic Compliance Matrix: (Units=1/GPa)
#
#
# Indices 1 2 3 4 5 6 
#
# 1 0.007732 -0.001944 -0.000510 0.001817 0.001686 0.000000
# 2 -0.001944 0.007732 -0.000510 -0.001817 -0.001686 0.000000
# 3 -0.000510 -0.000510 0.006510 0.000000 0.000000 0.000000
# 4 0.001817 -0.001817 0.000000 0.030320 0.000000 -0.003372
# 5 0.001686 -0.001686 0.000000 0.000000 0.030320 0.003635
# 6 0.000000 0.000000 0.000000 -0.003372 0.003635 0.019352
#
#
# Mechanical properties :
#
#
# Convention : Reuss Voigt Hill
#
# Bulk Modulus (GPa) = 62.33356 62.35028 62.34192
# Shear Modulus (GPa) = 44.15329 49.73711 46.94520
#
# Velocity S-wave (km/s) = 4.03669 4.28434 4.16236
# Velocity P-wave (km/s) = 6.68811 6.89091 6.79027
#
# Compressibility (1/GPa) = 0.01604272
#
# Stress axis : x y z
#
# Youngs Moduli (GPa) = 129.33907 129.33935 153.61818
#
# Poissons Ratio (x) = 0.25146 0.07841
# Poissons Ratio (y) = 0.25146 0.07841
# Poissons Ratio (z) = 0.06602 0.06602
#
# Static dielectric constant tensor:
#      x y z
#    x 2.185010 0.000000 0.000000 
#    y 0.000000 2.185010 0.000000 
#    z 0.000000 0.000000 2.405860 
# 
# From -- ./inp_files/2635.got.cif
#   From: 2010.05.17/outbox.cif.g08.bks.cpg/sg148_2_cif.got.tgz:2635.got - 2010.05.20 13:50:20.
