data_PCOD9575550
_publ_section_title
;
Structure prediction by ZEFSAII (Michael W. Deem and Ramdas Pophale) SiO2 
 PCOD9575550
Probable space group: P 31 1 2
;
_chemical_formula_sum "Si O2"
_cell_formula_units_Z 42
_cell_length_a 9.090627
_cell_length_b 9.090627
_cell_length_c 28.115252
_cell_angle_alpha 90.000000
_cell_angle_beta 90.000000
_cell_angle_gamma 120.000000
_cell_volume 2012.149704
_symmetry_space_group_name_H-M "P 31 1 2"
_symmetry_group_IT_number 151
_symmetry_cell_setting 'hexagonal'
loop_
_space_group_symop_operation_xyz
x,y,z
-y,x-y,1/3+z
-x+y,-x,2/3+z
-y,-x,2/3-z
-x+y,y,1/3-z
x,x-y,-z
loop_
_atom_site_type_symbol
_atom_site_label
_atom_site_fract_x
_atom_site_fract_y
_atom_site_fract_z
Si Si1 0.631873 0.263746 0.666667
Si Si2 0.350933 0.144426 0.840178
Si Si3 0.191918 0.383835 0.666667
Si Si4 0.183887 0.582929 0.411405
Si Si5 0.785422 0.125361 0.934892
Si Si6 0.444212 0.530075 0.540030
Si Si7 0.110378 0.828486 0.128732
Si Si8 0.628342 0.176159 0.097103
O O1 0.456168 0.172760 0.636383
O O2 0.595612 0.361912 0.709317
O O3 0.338293 0.970283 0.856170
O O4 0.192457 0.175119 0.848492
O O5 0.437709 0.188352 0.787920
O O6 0.500246 0.287702 0.873194
O O7 0.364161 0.515914 0.693363
O O8 0.219647 0.261513 0.631823
O O9 0.166423 0.402478 0.420268
O O10 0.024874 0.573435 0.439058
O O11 0.355600 0.736504 0.432099
O O12 0.607811 0.061248 0.907619
O O13 0.929152 0.168914 0.895864
O O14 0.311931 0.413659 0.498993
#
# Coordination Sequence:
#
# PCOD9575550 Si02
#       8
#     3   6   3   6   6   6   6   6
#     4  12  20  37  63  98 122 168 218 282 322 413
#     4  10  21  38  64  92 127 177 219 273 328 407
#     4  10  22  43  63  84 128 170 214 260 346 403
#     4  10  21  40  64  86 125 173 213 266 334 410
#     4  11  24  39  64  95 128 168 217 281 332 407
#     4  11  21  40  65  94 125 172 223 273 333 405
#     4  11  23  41  63  96 130 167 225 284 339 393
#     4  10  19  36  61  93 122 163 223 268 318 396
#
# _framework density 20.873199
#
# number of rings (size 3 to 8) (size 9 to 14) (size 15 to 20)
#    0.000    1.429    4.286    1.714    2.000    0.571 
#    0.000   10.000    0.000    0.000    0.000    0.000 
#    0.000    0.000    0.000    0.000    0.000    0.000 
#
# Total GULP energy -234040.863769 kJ/mol
# GULP energy per Si atom -5572.401518 kJ/mol
# Density = 2.082569 g / cm^3
# Si number density = 20.873199 Si / 1000 Ang^3
#
#
#
# Elastic Constant Matrix: (Units=GPa)
#
#
# Indices 1 2 3 4 5 6 
#
# 1 62.3310 22.7373 11.4638 0.0001 0.7615 0.0000
# 2 22.7373 62.3310 11.4638 -0.0001 -0.7615 0.0000
# 3 11.4638 11.4638 62.9987 0.0000 0.0000 0.0000
# 4 0.0001 -0.0001 0.0000 24.8906 0.0000 -0.7615
# 5 0.7615 -0.7615 0.0000 0.0000 24.8906 0.0001
# 6 0.0000 0.0000 0.0000 -0.7615 0.0001 19.7968
#
#
#
# Elastic Compliance Matrix: (Units=1/GPa)
#
#
# Indices 1 2 3 4 5 6 
#
# 1 0.018824 -0.006462 -0.002249 0.000000 -0.000774 0.000000
# 2 -0.006462 0.018824 -0.002249 0.000000 0.000774 0.000000
# 3 -0.002249 -0.002249 0.016692 0.000000 0.000000 0.000000
# 4 0.000000 0.000000 0.000000 0.040223 0.000000 0.001547
# 5 -0.000774 0.000774 0.000000 0.000000 0.040223 0.000000
# 6 0.000000 0.000000 0.000000 0.001547 0.000000 0.050573
#
#
# Mechanical properties :
#
#
# Convention : Reuss Voigt Hill
#
# Bulk Modulus (GPa) = 30.84766 30.99896 30.92331
# Shear Modulus (GPa) = 22.92664 23.38200 23.15432
#
# Velocity S-wave (km/s) = 3.31777 3.35056 3.33421
# Velocity P-wave (km/s) = 5.43024 5.46367 5.44698
#
# Compressibility (1/GPa) = 0.03241736
#
# Stress axis : x y z
#
# Youngs Moduli (GPa) = 53.12390 53.12390 59.90896
#
# Poissons Ratio (x) = 0.34331 0.13476
# Poissons Ratio (y) = 0.34331 0.13476
# Poissons Ratio (z) = 0.11950 0.11950
#
# Static dielectric constant tensor:
#      x y z
#    x 1.796390 0.000000 0.000000 
#    y 0.000000 1.796390 0.000000 
#    z 0.000000 0.000000 1.802740 
# 
# From -- ./inp_files/5092.got.cif
#   From: 2010.05.17/outbox.cif.g08.bks.cpg/sg151_3_cif.got.tgz:5092.got - 2010.05.20 10:33:20.
