data_PCOD9575545
_publ_section_title
;
Structure prediction by ZEFSAII (Michael W. Deem and Ramdas Pophale) SiO2 
 PCOD9575545
Probable space group: P 31 1 2
;
_chemical_formula_sum "Si O2"
_cell_formula_units_Z 24
_cell_length_a 12.349428
_cell_length_b 12.349428
_cell_length_c 8.746293
_cell_angle_alpha 90.000000
_cell_angle_beta 90.000000
_cell_angle_gamma 120.000000
_cell_volume 1155.176482
_symmetry_space_group_name_H-M "P 31 1 2"
_symmetry_group_IT_number 151
_symmetry_cell_setting 'hexagonal'
loop_
_space_group_symop_operation_xyz
x,y,z
-y,x-y,1/3+z
-x+y,-x,2/3+z
-y,-x,2/3-z
-x+y,y,1/3-z
x,x-y,-z
loop_
_atom_site_type_symbol
_atom_site_label
_atom_site_fract_x
_atom_site_fract_y
_atom_site_fract_z
Si Si1 0.154516 0.455021 0.517817
Si Si2 0.646216 0.098835 0.981756
Si Si3 0.069585 0.664458 0.019868
Si Si4 0.424247 0.140904 0.863915
O O1 0.219074 0.438148 0.666667
O O2 0.201119 0.600560 0.500000
O O3 0.210233 0.409117 0.384504
O O4 0.008178 0.392539 0.554690
O O5 0.543884 0.137121 0.932825
O O6 0.654371 0.026071 0.831348
O O7 0.761785 0.220042 0.056822
O O8 0.092989 0.546495 0.000000
O O9 0.994260 0.664859 0.872640
O O10 0.369425 0.184713 0.000000
#
# Coordination Sequence:
#
# PCOD9575545 Si02
#       4
#     6   6   6   6
#     4  10  19  35  56  83 116 156 208 266 326 383
#     4  10  22  36  55  84 120 159 202 252 311 379
#     4   9  20  36  56  84 118 161 207 257 319 379
#     4  11  21  35  54  85 121 158 199 247 308 379
#
# _framework density 20.776046999999998
#
# number of rings (size 3 to 8) (size 9 to 14) (size 15 to 20)
#    0.000    2.000    0.000    3.750    0.000    9.000 
#    0.000    8.750    0.000    0.000    0.000   43.750 
#    0.000    2.000    0.000    0.000    0.000    0.000 
#
# Total GULP energy -133895.497549 kJ/mol
# GULP energy per Si atom -5578.979065 kJ/mol
# Density = 2.072876 g / cm^3
# Si number density = 20.776047 Si / 1000 Ang^3
#
#
#
# Elastic Constant Matrix: (Units=GPa)
#
#
# Indices 1 2 3 4 5 6 
#
# 1 115.9660 66.6112 60.6800 0.0001 -7.7503 0.0000
# 2 66.6112 115.9660 60.6800 -0.0001 7.7503 0.0000
# 3 60.6800 60.6800 91.2029 0.0000 0.0000 0.0000
# 4 0.0001 -0.0001 0.0000 37.7041 0.0000 7.7503
# 5 -7.7503 7.7503 0.0000 0.0000 37.7041 0.0001
# 6 0.0000 0.0000 0.0000 7.7503 0.0001 24.6774
#
#
#
# Elastic Compliance Matrix: (Units=1/GPa)
#
#
# Indices 1 2 3 4 5 6 
#
# 1 0.015740 -0.005920 -0.006534 0.000000 0.004452 0.000000
# 2 -0.005920 0.015740 -0.006534 0.000000 -0.004452 0.000000
# 3 -0.006534 -0.006534 0.019658 0.000000 0.000000 0.000000
# 4 0.000000 0.000000 0.000000 0.028353 0.000000 -0.008905
# 5 0.004452 -0.004452 0.000000 0.000000 0.028353 0.000000
# 6 0.000000 0.000000 0.000000 -0.008905 0.000000 0.043320
#
#
# Mechanical properties :
#
#
# Convention : Reuss Voigt Hill
#
# Bulk Modulus (GPa) = 75.96284 77.67524 76.81904
# Shear Modulus (GPa) = 25.83641 29.02803 27.43222
#
# Velocity S-wave (km/s) = 3.53025 3.74195 3.63764
# Velocity P-wave (km/s) = 7.29787 7.49251 7.39583
#
# Compressibility (1/GPa) = 0.01316433
#
# Stress axis : x y z
#
# Youngs Moduli (GPa) = 63.53279 63.53279 50.86864
#
# Poissons Ratio (x) = 0.37611 0.33235
# Poissons Ratio (y) = 0.37611 0.33235
# Poissons Ratio (z) = 0.41509 0.41509
#
# Static dielectric constant tensor:
#      x y z
#    x 1.742540 0.000000 0.000000 
#    y 0.000000 1.742540 0.000000 
#    z 0.000000 0.000000 1.845760 
# 
# From -- ./inp_files/2320.got.cif
#   From: 2010.05.17/outbox.cif.g08.bks.cpg/sg151_2_cif.got.tgz:2320.got - 2010.05.20 10:33:20.
