data_PCOD9575685
_publ_section_title
;
Structure prediction by ZEFSAII (Michael W. Deem and Ramdas Pophale) SiO2 
 PCOD9575685
Probable space group: P 31 1 2
;
_chemical_formula_sum "Si O2"
_cell_formula_units_Z 24
_cell_length_a 14.303836
_cell_length_b 14.303836
_cell_length_c 6.598416
_cell_angle_alpha 90.000000
_cell_angle_beta 90.000000
_cell_angle_gamma 120.000000
_cell_volume 1169.163822
_symmetry_space_group_name_H-M "P 31 1 2"
_symmetry_group_IT_number 151
_symmetry_cell_setting 'hexagonal'
loop_
_space_group_symop_operation_xyz
x,y,z
-y,x-y,1/3+z
-x+y,-x,2/3+z
-y,-x,2/3-z
-x+y,y,1/3-z
x,x-y,-z
loop_
_atom_site_type_symbol
_atom_site_label
_atom_site_fract_x
_atom_site_fract_y
_atom_site_fract_z
Si Si1 0.218294 0.109147 0.000000
Si Si2 0.707654 0.415307 0.666667
Si Si3 0.739161 0.601709 0.968482
Si Si4 0.387327 0.774653 0.666667
Si Si5 0.279132 0.378944 0.519157
Si Si6 0.120751 0.241501 0.166667
O O1 0.296557 0.163336 0.810090
O O2 0.148605 0.982346 0.968758
O O3 0.677850 0.322151 0.833334
O O4 0.809830 0.502659 0.527733
O O5 0.789929 0.579857 0.166667
O O6 0.658653 0.643701 0.040550
O O7 0.401676 0.700838 0.500000
O O8 0.497687 0.846958 0.785233
O O9 0.183331 0.366662 0.666667
O O10 0.220709 0.312423 0.315540
#
# Coordination Sequence:
#
# PCOD9575685 Si02
#       6
#     3   3   6   3   6   3
#     4  11  24  40  68 105 149 188 246 291 364 438
#     4  11  26  50  75 102 142 183 240 311 368 444
#     4  11  24  44  72 105 142 189 241 298 365 442
#     4  12  26  46  73 107 145 185 238 302 360 434
#     4  12  25  44  71 101 148 188 238 296 364 432
#     4  12  24  42  70 104 144 198 234 304 358 436
#
# _framework density 20.52749
#
# number of rings (size 3 to 8) (size 9 to 14) (size 15 to 20)
#    0.000    0.500    7.500    0.750    0.000    4.000 
#    4.500    0.000    0.000    0.000    0.000    0.000 
#    0.000    0.000    0.000    0.000    0.000    0.000 
#
# Total GULP energy -133676.023659 kJ/mol
# GULP energy per Si atom -5569.834319 kJ/mol
# Density = 2.048077 g / cm^3
# Si number density = 20.527490 Si / 1000 Ang^3
#
#
#
# Elastic Constant Matrix: (Units=GPa)
#
#
# Indices 1 2 3 4 5 6 
#
# 1 114.2629 93.2643 51.1980 0.0005 11.3644 0.0000
# 2 93.2643 114.2629 51.1980 -0.0005 -11.3644 0.0000
# 3 51.1980 51.1980 127.4466 0.0000 0.0000 0.0000
# 4 0.0005 -0.0005 0.0000 39.7864 0.0000 -11.3644
# 5 11.3644 -11.3644 0.0000 0.0000 39.7864 0.0005
# 6 0.0000 0.0000 0.0000 -11.3644 0.0005 10.4993
#
#
#
# Elastic Compliance Matrix: (Units=1/GPa)
#
#
# Indices 1 2 3 4 5 6 
#
# 1 0.037472 -0.031462 -0.002414 -0.000001 -0.019690 0.000000
# 2 -0.031462 0.037472 -0.002414 0.000001 0.019690 0.000000
# 3 -0.002414 -0.002414 0.009786 0.000000 0.000000 0.000000
# 4 -0.000001 0.000001 0.000000 0.036383 0.000000 0.039380
# 5 -0.019690 0.019690 0.000000 0.000000 0.036383 -0.000002
# 6 0.000000 0.000000 0.000000 0.039380 -0.000002 0.137870
#
#
# Mechanical properties :
#
#
# Convention : Reuss Voigt Hill
#
# Bulk Modulus (GPa) = 82.31303 83.03259 82.67281
# Shear Modulus (GPa) = 13.44094 28.70190 21.07142
#
# Velocity S-wave (km/s) = 2.56164 3.74333 3.20738
# Velocity P-wave (km/s) = 6.99538 7.69550 7.35377
#
# Compressibility (1/GPa) = 0.01214875
#
# Stress axis : x y z
#
# Youngs Moduli (GPa) = 26.68632 26.68632 102.18500
#
# Poissons Ratio (x) = 0.83962 0.24671
# Poissons Ratio (y) = 0.83962 0.24671
# Poissons Ratio (z) = 0.06443 0.06443
#
# Static dielectric constant tensor:
#      x y z
#    x 1.734560 0.000000 0.000000 
#    y 0.000000 1.734560 0.000000 
#    z 0.000000 0.000000 1.751200 
# 
# From -- ./inp_files/308.got.cif
#   From: 2010.05.17/outbox.cif.g08.bks.cpg/sg151_1_cif.got.tgz:308.got - 2010.05.20 10:33:20.
