data_PCOD9575131
_publ_section_title
;
Structure prediction by ZEFSAII (Michael W. Deem and Ramdas Pophale) SiO2 
 PCOD9575131
Probable space group: R -3
;
_chemical_formula_sum "Si O2"
_cell_formula_units_Z 108
_cell_length_a 21.661793
_cell_length_b 21.661793
_cell_length_c 12.330433
_cell_angle_alpha 90.000000
_cell_angle_beta 90.000000
_cell_angle_gamma 120.000000
_cell_volume 5010.692624
_symmetry_space_group_name_H-M "R -3"
_symmetry_group_IT_number 148
_symmetry_cell_setting 'hexagonal'
loop_
_space_group_symop_operation_xyz
x,y,z
-y,x-y,z
-x+y,-x,z
-x,-y,-z
y,-x+y,-z
x-y,x,-z
2/3+x,1/3+y,1/3+z
2/3-y,1/3+x-y,1/3+z
2/3-x+y,1/3-x,1/3+z
2/3-x,1/3-y,1/3-z
2/3+y,1/3-x+y,1/3-z
2/3+x-y,1/3+x,1/3-z
1/3+x,2/3+y,2/3+z
1/3-y,2/3+x-y,2/3+z
1/3-x+y,2/3-x,2/3+z
1/3-x,2/3-y,2/3-z
1/3+y,2/3-x+y,2/3-z
1/3+x-y,2/3+x,2/3-z
loop_
_atom_site_type_symbol
_atom_site_label
_atom_site_fract_x
_atom_site_fract_y
_atom_site_fract_z
Si Si1 0.931294 0.405698 0.647441
Si Si2 0.600945 0.051227 0.710112
Si Si3 0.481712 0.670306 0.165882
Si Si4 0.849582 0.971300 0.121734
Si Si5 0.346352 0.950991 0.516386
Si Si6 0.785661 0.480793 0.194460
O O1 0.962328 0.483805 0.699670
O O2 0.869901 0.354486 0.732207
O O3 0.887325 0.398883 0.537825
O O4 0.996429 0.395907 0.608462
O O5 0.651693 0.135023 0.732689
O O6 0.617585 0.023928 0.599810
O O7 0.613439 0.009050 0.805221
O O8 0.405669 0.599162 0.148014
O O9 0.843273 0.898626 0.165242
O O10 0.792159 0.995034 0.145248
O O11 0.925972 0.034715 0.162489
O O12 0.845334 0.965107 0.990883
#
# Coordination Sequence:
#
# PCOD9575131 Si02
#       6
#    18  18  18  18  18  18
#     4  11  24  43  67  94 133 172 228 274 328 404
#     4  11  25  44  64  98 130 174 226 275 334 405
#     4  10  24  46  70 100 136 175 229 284 339 397
#     4  10  22  37  63  97 135 167 219 271 343 390
#     4  12  24  42  64  94 132 179 220 277 335 402
#     4  10  21  38  61  98 130 171 212 277 329 402
#
# _framework density 21.553906999999999
#
# number of rings (size 3 to 8) (size 9 to 14) (size 15 to 20)
#    0.000    1.333    1.667    3.000    7.000    1.333 
#    3.000    4.167    0.000    0.000    0.000    0.000 
#    0.000    0.000    0.000    0.000    0.000    0.000 
#
# Total GULP energy -200955.989832 kJ/mol
# GULP energy per Si atom -5582.110829 kJ/mol
# Density = 2.150485 g / cm^3
# Si number density = 21.553907 Si / 1000 Ang^3
#
#
#
# Elastic Constant Matrix: (Units=GPa)
#
#
# Indices 1 2 3 4 5 6 
#
# 1 90.6416 40.0268 20.1799 -3.2424 -3.8740 0.0000
# 2 40.0268 90.6416 20.1800 3.2424 3.8740 0.0000
# 3 20.1799 20.1800 37.0591 0.0000 0.0000 0.0000
# 4 -3.2424 3.2424 0.0000 22.9783 0.0000 3.8740
# 5 -3.8740 3.8740 0.0000 0.0000 22.9783 -3.2424
# 6 0.0000 0.0000 0.0000 3.8740 -3.2424 25.3074
#
#
#
# Elastic Compliance Matrix: (Units=1/GPa)
#
#
# Indices 1 2 3 4 5 6 
#
# 1 0.014932 -0.005732 -0.005010 0.002916 0.003484 0.000000
# 2 -0.005732 0.014932 -0.005010 -0.002916 -0.003484 0.000000
# 3 -0.005010 -0.005010 0.032440 0.000000 0.000000 0.000000
# 4 0.002916 -0.002916 0.000000 0.045517 0.000000 -0.006968
# 5 0.003484 -0.003484 0.000000 0.000000 0.045517 0.005832
# 6 0.000000 0.000000 0.000000 -0.006968 0.005832 0.041328
#
#
# Mechanical properties :
#
#
# Convention : Reuss Voigt Hill
#
# Bulk Modulus (GPa) = 32.46630 42.12396 37.29513
# Shear Modulus (GPa) = 21.14733 23.44985 22.29859
#
# Velocity S-wave (km/s) = 3.13571 3.30201 3.21993
# Velocity P-wave (km/s) = 5.31091 5.84154 5.58253
#
# Compressibility (1/GPa) = 0.03080117
#
# Stress axis : x y z
#
# Youngs Moduli (GPa) = 66.96957 66.96957 30.82603
#
# Poissons Ratio (x) = 0.38385 0.15444
# Poissons Ratio (y) = 0.38385 0.15444
# Poissons Ratio (z) = 0.33551 0.33551
#
# Static dielectric constant tensor:
#      x y z
#    x 1.797360 0.000000 0.000000 
#    y 0.000000 1.797360 0.000000 
#    z 0.000000 0.000000 1.808490 
# 
# From -- ./inp_files/2076.got.cif
#   From: 2010.05.17/outbox.cif.g08.bks.cpg/sg148_2_cif.got.tgz:2076.got - 2010.05.20 13:50:20.
