data_PCOD9575073
_publ_section_title
;
Structure prediction by ZEFSAII (Michael W. Deem and Ramdas Pophale) SiO2 
 PCOD9575073
Probable space group: R -3
;
_chemical_formula_sum "Si O2"
_cell_formula_units_Z 108
_cell_length_a 17.969815
_cell_length_b 17.969815
_cell_length_c 21.568241
_cell_angle_alpha 90.000000
_cell_angle_beta 90.000000
_cell_angle_gamma 120.000000
_cell_volume 6031.600540
_symmetry_space_group_name_H-M "R -3"
_symmetry_group_IT_number 148
_symmetry_cell_setting 'hexagonal'
loop_
_space_group_symop_operation_xyz
x,y,z
-y,x-y,z
-x+y,-x,z
-x,-y,-z
y,-x+y,-z
x-y,x,-z
2/3+x,1/3+y,1/3+z
2/3-y,1/3+x-y,1/3+z
2/3-x+y,1/3-x,1/3+z
2/3-x,1/3-y,1/3-z
2/3+y,1/3-x+y,1/3-z
2/3+x-y,1/3+x,1/3-z
1/3+x,2/3+y,2/3+z
1/3-y,2/3+x-y,2/3+z
1/3-x+y,2/3-x,2/3+z
1/3-x,2/3-y,2/3-z
1/3+y,2/3-x+y,2/3-z
1/3+x-y,2/3+x,2/3-z
loop_
_atom_site_type_symbol
_atom_site_label
_atom_site_fract_x
_atom_site_fract_y
_atom_site_fract_z
Si Si1 0.909721 0.251157 0.744573
Si Si2 0.997049 0.825253 0.812716
Si Si3 0.949311 0.386395 0.275143
Si Si4 0.745829 0.088526 0.735763
Si Si5 0.767303 0.059496 0.933638
Si Si6 0.837059 0.330749 0.156971
O O1 0.811594 0.182784 0.763113
O O2 0.916978 0.236328 0.671671
O O3 0.971541 0.225412 0.780841
O O4 0.949483 0.352586 0.751437
O O5 0.970152 0.756023 0.757764
O O6 0.983313 0.772019 0.875955
O O7 0.926562 0.855859 0.815354
O O8 0.092109 0.904676 0.808026
O O9 0.964167 0.481520 0.281410
O O10 0.925682 0.335479 0.339853
O O11 0.871622 0.336564 0.226678
O O12 0.034645 0.389088 0.248055
#
# Coordination Sequence:
#
# PCOD9575073 Si02
#       6
#    18  18  18  18  18  18
#     4   9  19  34  50  70  98 133 175 223 267 303
#     4  10  20  34  53  78 108 141 176 216 264 318
#     4  10  20  33  52  79 109 142 178 215 260 317
#     4   9  19  34  50  70  98 133 175 223 267 303
#     4  10  20  33  52  79 109 142 178 215 260 317
#     4  10  20  34  53  78 108 141 176 216 264 318
#
# _framework density 17.905694
#
# number of rings (size 3 to 8) (size 9 to 14) (size 15 to 20)
#    0.000    2.333    0.000    2.333    0.000    8.000 
#    0.000    0.000    0.000    6.000    0.000    0.000 
#    0.000    8.000    0.000    0.000    0.000    0.000 
#
# Total GULP energy -200708.656940 kJ/mol
# GULP energy per Si atom -5575.240471 kJ/mol
# Density = 1.786494 g / cm^3
# Si number density = 17.905694 Si / 1000 Ang^3
#
#
#
# Elastic Constant Matrix: (Units=GPa)
#
#
# Indices 1 2 3 4 5 6 
#
# 1 69.1124 46.0848 4.8540 3.4619 0.7911 0.0000
# 2 46.0848 69.1124 4.8540 -3.4619 -0.7911 0.0000
# 3 4.8540 4.8540 43.1705 0.0000 0.0000 0.0000
# 4 3.4619 -3.4619 0.0000 19.1132 0.0000 -0.7911
# 5 0.7911 -0.7911 0.0000 0.0000 19.1132 3.4619
# 6 0.0000 0.0000 0.0000 -0.7911 3.4619 11.5138
#
#
#
# Elastic Compliance Matrix: (Units=1/GPa)
#
#
# Indices 1 2 3 4 5 6 
#
# 1 0.027415 -0.018651 -0.000985 -0.008344 -0.001907 0.000000
# 2 -0.018651 0.027415 -0.000985 0.008344 0.001907 0.000000
# 3 -0.000985 -0.000985 0.023386 0.000000 0.000000 0.000000
# 4 -0.008344 0.008344 0.000000 0.055500 0.000000 0.003814
# 5 -0.001907 0.001907 0.000000 0.000000 0.055500 -0.016688
# 6 0.000000 0.000000 0.000000 0.003814 -0.016688 0.092132
#
#
# Mechanical properties :
#
#
# Convention : Reuss Voigt Hill
#
# Bulk Modulus (GPa) = 27.04778 32.55345 29.80061
# Shear Modulus (GPa) = 14.92915 18.32154 16.62534
#
# Velocity S-wave (km/s) = 2.89063 3.20226 3.05043
# Velocity P-wave (km/s) = 5.12635 5.64735 5.39315
#
# Compressibility (1/GPa) = 0.03697161
#
# Stress axis : x y z
#
# Youngs Moduli (GPa) = 36.47657 36.47657 42.76147
#
# Poissons Ratio (x) = 0.68033 0.04214
# Poissons Ratio (y) = 0.68033 0.04214
# Poissons Ratio (z) = 0.03594 0.03594
#
# Static dielectric constant tensor:
#      x y z
#    x 1.616100 0.000000 0.000000 
#    y 0.000000 1.616100 0.000000 
#    z 0.000000 0.000000 1.625940 
# 
# From -- ./inp_files/3103.got.cif
#   From: 2010.05.17/outbox.cif.g08.bks.cpg/sg148_2_cif.got.tgz:3103.got - 2010.05.20 13:50:20.
