data_PCOD9575553
_publ_section_title
;
Structure prediction by ZEFSAII (Michael W. Deem and Ramdas Pophale) SiO2 
 PCOD9575553
Probable space group: P 31 1 2
;
_chemical_formula_sum "Si O2"
_cell_formula_units_Z 36
_cell_length_a 12.710656
_cell_length_b 12.710656
_cell_length_c 12.395641
_cell_angle_alpha 90.000000
_cell_angle_beta 90.000000
_cell_angle_gamma 120.000000
_cell_volume 1734.345237
_symmetry_space_group_name_H-M "P 31 1 2"
_symmetry_group_IT_number 151
_symmetry_cell_setting 'hexagonal'
loop_
_space_group_symop_operation_xyz
x,y,z
-y,x-y,1/3+z
-x+y,-x,2/3+z
-y,-x,2/3-z
-x+y,y,1/3-z
x,x-y,-z
loop_
_atom_site_type_symbol
_atom_site_label
_atom_site_fract_x
_atom_site_fract_y
_atom_site_fract_z
Si Si1 0.849592 0.198941 0.586747
Si Si2 0.718578 0.970493 0.282842
Si Si3 0.275357 0.496319 0.826376
Si Si4 0.678935 0.539318 0.582038
Si Si5 0.969567 0.099130 0.953805
Si Si6 0.573503 0.967155 0.959621
O O1 0.725998 0.186301 0.538756
O O2 0.835061 0.074985 0.630212
O O3 0.939317 0.253143 0.484575
O O4 0.927142 0.290215 0.682198
O O5 0.584685 0.856159 0.261145
O O6 0.819381 0.932676 0.280953
O O7 0.727555 0.047331 0.387321
O O8 0.357912 0.642089 0.833334
O O9 0.349784 0.469115 0.733199
O O10 0.135744 0.448930 0.794533
O O11 0.747141 0.494281 0.666667
O O12 0.536288 0.486153 0.600761
O O13 0.917700 0.082301 0.833334
O O14 0.932615 0.966308 0.000000
#
# Coordination Sequence:
#
# PCOD9575553 Si02
#       6
#     6   6   6   6   6   6
#     4  10  22  38  61  91 123 170 218 270 327 394
#     4  10  20  35  58  91 128 165 214 267 325 395
#     4  10  19  37  63  93 129 173 219 272 336 413
#     4  10  21  38  64  93 123 166 220 283 327 392
#     4  12  22  35  58  89 129 171 208 261 323 389
#     4  10  21  38  64  93 127 171 226 273 330 401
#
# _framework density 20.757111999999999
#
# number of rings (size 3 to 8) (size 9 to 14) (size 15 to 20)
#    0.000    1.667    3.333    2.500    2.333    0.000 
#    3.000    0.000   11.000    0.000    0.000    0.000 
#    0.000    0.000    0.000    0.000    0.000    0.000 
#
# Total GULP energy -200493.393150 kJ/mol
# GULP energy per Si atom -5569.260921 kJ/mol
# Density = 2.070987 g / cm^3
# Si number density = 20.757112 Si / 1000 Ang^3
#
#
#
# Elastic Constant Matrix: (Units=GPa)
#
#
# Indices 1 2 3 4 5 6 
#
# 1 80.2489 34.0952 16.0193 0.0000 -2.8104 0.0000
# 2 34.0952 80.2489 16.0193 0.0000 2.8104 0.0000
# 3 16.0193 16.0193 41.6772 0.0000 0.0000 0.0000
# 4 0.0000 0.0000 0.0000 16.0459 0.0000 2.8104
# 5 -2.8104 2.8104 0.0000 0.0000 16.0459 0.0000
# 6 0.0000 0.0000 0.0000 2.8104 0.0000 23.0768
#
#
#
# Elastic Compliance Matrix: (Units=1/GPa)
#
#
# Indices 1 2 3 4 5 6 
#
# 1 0.015970 -0.006169 -0.003767 0.000000 0.003878 0.000000
# 2 -0.006169 0.015970 -0.003767 0.000000 -0.003878 0.000000
# 3 -0.003767 -0.003767 0.026890 0.000000 0.000000 0.000000
# 4 0.000000 0.000000 0.000000 0.063680 0.000000 -0.007755
# 5 0.003878 -0.003878 0.000000 0.000000 0.063680 0.000000
# 6 0.000000 0.000000 0.000000 -0.007755 0.000000 0.044278
#
#
# Mechanical properties :
#
#
# Convention : Reuss Voigt Hill
#
# Bulk Modulus (GPa) = 31.82359 37.16031 34.49195
# Shear Modulus (GPa) = 18.63249 20.10313 19.36781
#
# Velocity S-wave (km/s) = 2.99932 3.11544 3.05793
# Velocity P-wave (km/s) = 5.23061 5.55721 5.39638
#
# Compressibility (1/GPa) = 0.03142323
#
# Stress axis : x y z
#
# Youngs Moduli (GPa) = 62.61727 62.61727 37.18869
#
# Poissons Ratio (x) = 0.38628 0.14010
# Poissons Ratio (y) = 0.38628 0.14010
# Poissons Ratio (z) = 0.23589 0.23589
#
# Static dielectric constant tensor:
#      x y z
#    x 1.787250 0.000000 0.000000 
#    y 0.000000 1.787250 0.000000 
#    z 0.000000 0.000000 1.775550 
# 
# From -- ./inp_files/2893.got.cif
#   From: 2010.05.17/outbox.cif.g08.bks.cpg/sg151_2_cif.got.tgz:2893.got - 2010.05.20 10:33:20.
