data_PCOD9575865
_publ_section_title
;
Structure prediction by ZEFSAII (Michael W. Deem and Ramdas Pophale) SiO2 
 PCOD9575865
Probable space group: P 31 2 1
;
_chemical_formula_sum "Si O2"
_cell_formula_units_Z 24
_cell_length_a 16.102060
_cell_length_b 16.102060
_cell_length_c 5.006572
_cell_angle_alpha 90.000000
_cell_angle_beta 90.000000
_cell_angle_gamma 120.000000
_cell_volume 1124.175145
_symmetry_space_group_name_H-M "P 31 2 1"
_symmetry_group_IT_number 152
_symmetry_cell_setting 'hexagonal'
loop_
_space_group_symop_operation_xyz
x,y,z
-y,x-y,1/3+z
-x+y,-x,2/3+z
x-y,-y,2/3-z
-x,-x+y,1/3-z
y,x,-z
loop_
_atom_site_type_symbol
_atom_site_label
_atom_site_fract_x
_atom_site_fract_y
_atom_site_fract_z
Si Si1 0.890160 0.067079 0.596882
Si Si2 0.233806 0.580108 0.629739
Si Si3 0.450263 0.347246 0.855201
Si Si4 0.213703 0.391034 0.642780
O O1 0.870770 0.155048 0.629399
O O2 0.000000 0.103317 0.666667
O O3 0.854000 0.000000 0.333334
O O4 0.827132 0.000000 0.833334
O O5 0.337937 0.604853 0.741598
O O6 0.163566 0.597229 0.822779
O O7 0.184763 0.469232 0.550621
O O8 0.403705 0.294225 0.576064
O O9 0.412144 0.412144 0.000000
O O10 0.420397 0.262475 0.067586
#
# Coordination Sequence:
#
# PCOD9575865 Si02
#       4
#     6   6   6   6
#     4  12  25  44  68  95 128 168 216 270 335 399
#     4  10  20  38  61  89 129 173 218 254 324 379
#     4  11  22  37  61  91 126 169 214 265 317 380
#     4  11  23  39  64  90 129 164 216 264 321 382
#
# _framework density 21.348987000000001
#
# number of rings (size 3 to 8) (size 9 to 14) (size 15 to 20)
#    0.000    1.000    2.500    6.000    0.000    1.000 
#    0.000    0.000    0.000    6.000    0.000    0.000 
#    0.000    0.000    0.000    0.000    0.000    0.000 
#
# Total GULP energy -133660.848392 kJ/mol
# GULP energy per Si atom -5569.202016 kJ/mol
# Density = 2.130040 g / cm^3
# Si number density = 21.348987 Si / 1000 Ang^3
#
#
#
# Elastic Constant Matrix: (Units=GPa)
#
#
# Indices 1 2 3 4 5 6 
#
# 1 93.0172 27.1394 19.4410 6.1829 -0.0001 0.0000
# 2 27.1394 93.0172 19.4410 -6.1829 0.0001 0.0000
# 3 19.4410 19.4410 108.2967 0.0000 0.0000 0.0000
# 4 6.1829 -6.1829 0.0000 26.2073 0.0000 0.0001
# 5 -0.0001 0.0001 0.0000 0.0000 26.2073 6.1829
# 6 0.0000 0.0000 0.0000 0.0001 6.1829 32.9389
#
#
#
# Elastic Compliance Matrix: (Units=1/GPa)
#
#
# Indices 1 2 3 4 5 6 
#
# 1 0.012359 -0.003524 -0.001586 -0.003747 0.000000 0.000000
# 2 -0.003524 0.012359 -0.001586 0.003747 0.000000 0.000000
# 3 -0.001586 -0.001586 0.009803 0.000000 0.000000 0.000000
# 4 -0.003747 0.003747 0.000000 0.039925 0.000000 0.000000
# 5 0.000000 0.000000 0.000000 0.000000 0.039925 -0.007494
# 6 0.000000 0.000000 0.000000 0.000000 -0.007494 0.031766
#
#
# Mechanical properties :
#
#
# Convention : Reuss Voigt Hill
#
# Bulk Modulus (GPa) = 47.32556 47.37487 47.35022
# Shear Modulus (GPa) = 30.01664 32.29133 31.15399
#
# Velocity S-wave (km/s) = 3.75373 3.89337 3.82419
# Velocity P-wave (km/s) = 6.40336 6.51536 6.45960
#
# Compressibility (1/GPa) = 0.02113023
#
# Stress axis : x y z
#
# Youngs Moduli (GPa) = 80.91026 80.91026 102.00575
#
# Poissons Ratio (x) = 0.28510 0.16180
# Poissons Ratio (y) = 0.28510 0.16180
# Poissons Ratio (z) = 0.12834 0.12834
#
# Static dielectric constant tensor:
#      x y z
#    x 1.880450 0.000000 0.000000 
#    y 0.000000 1.880450 0.000000 
#    z 0.000000 0.000000 1.787290 
# 
# From -- ./inp_files/149.got.cif
#   From: 2010.05.17/outbox.cif.g08.bks.cpg/sg152_1_cif.got.tgz:149.got - 2010.05.20 10:36:06.
