data_PCOD9575198
_publ_section_title
;
Structure prediction by ZEFSAII (Michael W. Deem and Ramdas Pophale) SiO2 
 PCOD9575198
Probable space group: R -3
;
_chemical_formula_sum "Si O2"
_cell_formula_units_Z 72
_cell_length_a 16.981290
_cell_length_b 16.981290
_cell_length_c 14.545901
_cell_angle_alpha 90.000000
_cell_angle_beta 90.000000
_cell_angle_gamma 120.000000
_cell_volume 3632.558496
_symmetry_space_group_name_H-M "R -3"
_symmetry_group_IT_number 148
_symmetry_cell_setting 'hexagonal'
loop_
_space_group_symop_operation_xyz
x,y,z
-y,x-y,z
-x+y,-x,z
-x,-y,-z
y,-x+y,-z
x-y,x,-z
2/3+x,1/3+y,1/3+z
2/3-y,1/3+x-y,1/3+z
2/3-x+y,1/3-x,1/3+z
2/3-x,1/3-y,1/3-z
2/3+y,1/3-x+y,1/3-z
2/3+x-y,1/3+x,1/3-z
1/3+x,2/3+y,2/3+z
1/3-y,2/3+x-y,2/3+z
1/3-x+y,2/3-x,2/3+z
1/3-x,2/3-y,2/3-z
1/3+y,2/3-x+y,2/3-z
1/3+x-y,2/3+x,2/3-z
loop_
_atom_site_type_symbol
_atom_site_label
_atom_site_fract_x
_atom_site_fract_y
_atom_site_fract_z
Si Si1 0.572636 0.541266 0.416228
Si Si2 0.733932 0.138136 0.618129
Si Si3 0.810875 0.527308 0.803821
Si Si4 0.496731 0.438546 0.223549
O O1 0.500000 0.500000 0.500000
O O2 0.612797 0.649705 0.398013
O O3 0.527604 0.485984 0.322707
O O4 0.664683 0.540414 0.438677
O O5 0.833334 0.166667 0.666667
O O6 0.692103 0.171311 0.696920
O O7 0.757236 0.183614 0.518860
O O8 0.833983 0.459823 0.855437
O O9 0.871239 0.626954 0.847764
#
# Coordination Sequence:
#
# PCOD9575198 Si02
#       4
#    18  18  18  18
#     4  12  26  43  71 103 139 187 239 295 352 428
#     4  10  23  40  67  98 139 178 233 290 348 415
#     4  11  22  39  64  97 137 176 229 291 357 415
#     4  11  24  42  66  98 137 179 238 283 350 423
#
# _framework density 19.820741999999999
#
# number of rings (size 3 to 8) (size 9 to 14) (size 15 to 20)
#    0.000    1.000    2.500    4.750   14.000    0.000 
#    0.000    0.000    0.000    9.000    0.000    0.000 
#    0.000    0.000    0.000    0.000    0.000    0.000 
#
# Total GULP energy -133711.122526 kJ/mol
# GULP energy per Si atom -5571.296772 kJ/mol
# Density = 1.977563 g / cm^3
# Si number density = 19.820742 Si / 1000 Ang^3
#
#
#
# Elastic Constant Matrix: (Units=GPa)
#
#
# Indices 1 2 3 4 5 6 
#
# 1 -16.0507 63.3260 -6.6152 -26.0379 80.0735 0.0000
# 2 63.3260 -16.0507 -6.6152 26.0379 -80.0735 0.0000
# 3 -6.6152 -6.6152 83.4437 0.0000 0.0000 0.0000
# 4 -26.0379 26.0379 0.0000 -50.7261 0.0000 -80.0735
# 5 80.0735 -80.0735 0.0000 0.0000 -50.7261 -26.0379
# 6 0.0000 0.0000 0.0000 -80.0735 -26.0379 -39.6883
#
#
#
# Elastic Compliance Matrix: (Units=1/GPa)
#
#
# Indices 1 2 3 4 5 6 
#
# 1 0.013314 0.008318 0.001715 -0.002565 0.007887 0.000000
# 2 0.008318 0.013314 0.001715 0.002565 -0.007887 0.000000
# 3 0.001715 0.001715 0.012256 0.000000 0.000000 0.000000
# 4 -0.002565 0.002565 0.000000 0.007818 0.000000 -0.015773
# 5 0.007887 -0.007887 0.000000 0.000000 0.007818 -0.005129
# 6 0.000000 0.000000 0.000000 -0.015773 -0.005129 0.009992
#
#
# Mechanical properties :
#
#
# Convention : Reuss Voigt Hill
#
# Bulk Modulus (GPa) = 16.03045 16.83706 16.43376
# Shear Modulus (GPa) = 80.89224 -28.14499 26.37363
#
# Velocity S-wave (km/s) = 6.39535 -3.77235 3.65171
# Velocity P-wave (km/s) = 7.91450 3.23435 5.10775
#
# Compressibility (1/GPa) = 0.06238127
#
# Stress axis : x y z
#
# Youngs Moduli (GPa) = 75.10657 75.10657 81.59241
#
# Poissons Ratio (x) = -0.62476 -0.13993
# Poissons Ratio (y) = -0.62476 -0.13993
# Poissons Ratio (z) = -0.12881 -0.12881
#
# Static dielectric constant tensor:
#      x y z
#    x 1.864680 0.000000 0.000000 
#    y 0.000000 1.864680 0.000000 
#    z 0.000000 0.000000 1.480270 
# 
# From -- ./inp_files/1858.got.cif
#   From: 2010.05.17/outbox.cif.g08.bks.cpg/sg148_1_cif.got.tgz:1858.got - 2010.05.20 13:50:20.
