data_PCOD9575271
_publ_section_title
;
Structure prediction by ZEFSAII (Michael W. Deem and Ramdas Pophale) SiO2 
 PCOD9575271
Probable space group: R -3
;
_chemical_formula_sum "Si O2"
_cell_formula_units_Z 144
_cell_length_a 31.555549
_cell_length_b 31.555549
_cell_length_c 7.972861
_cell_angle_alpha 90.000000
_cell_angle_beta 90.000000
_cell_angle_gamma 120.000000
_cell_volume 6875.373645
_symmetry_space_group_name_H-M "R -3"
_symmetry_group_IT_number 148
_symmetry_cell_setting 'hexagonal'
loop_
_space_group_symop_operation_xyz
x,y,z
-y,x-y,z
-x+y,-x,z
-x,-y,-z
y,-x+y,-z
x-y,x,-z
2/3+x,1/3+y,1/3+z
2/3-y,1/3+x-y,1/3+z
2/3-x+y,1/3-x,1/3+z
2/3-x,1/3-y,1/3-z
2/3+y,1/3-x+y,1/3-z
2/3+x-y,1/3+x,1/3-z
1/3+x,2/3+y,2/3+z
1/3-y,2/3+x-y,2/3+z
1/3-x+y,2/3-x,2/3+z
1/3-x,2/3-y,2/3-z
1/3+y,2/3-x+y,2/3-z
1/3+x-y,2/3+x,2/3-z
loop_
_atom_site_type_symbol
_atom_site_label
_atom_site_fract_x
_atom_site_fract_y
_atom_site_fract_z
Si Si1 0.363115 0.366679 0.200982
Si Si2 0.555869 0.033380 0.199574
Si Si3 0.122430 0.273352 0.512604
Si Si4 0.841904 0.992399 0.187426
Si Si5 0.562241 0.429874 0.351942
Si Si6 0.243280 0.567750 0.165007
Si Si7 0.197136 0.052005 0.347789
Si Si8 0.434837 0.113366 0.910342
O O1 0.342959 0.355043 0.393229
O O2 0.421982 0.399577 0.208799
O O3 0.341789 0.398635 0.116925
O O4 0.564609 0.081353 0.294825
O O5 0.505185 0.985176 0.253680
O O6 0.549301 0.044509 0.007164
O O7 0.129623 0.226230 0.521214
O O8 0.070358 0.258263 0.594750
O O9 0.871798 0.039675 0.070577
O O10 0.793295 0.990763 0.260195
O O11 0.875412 0.003204 0.351167
O O12 0.827011 0.939886 0.111774
O O13 0.588730 0.468763 0.503227
O O14 0.245220 0.616339 0.107200
O O15 0.224811 0.527177 0.021973
O O16 0.205276 0.008270 0.410730
#
# Coordination Sequence:
#
# PCOD9575271 Si02
#       8
#    18  18  18  18  18  18  18  18
#     4  12  28  49  74 106 153 195 243 309 377 445
#     4  11  26  46  70 107 143 189 243 301 368 430
#     4  11  22  46  72  97 137 192 239 294 346 437
#     4  11  27  43  69 102 143 183 234 302 360 431
#     4  12  27  44  69 110 142 184 239 303 368 433
#     4  11  22  42  69  96 132 182 233 278 349 437
#     4  11  22  43  70 101 136 180 240 296 350 431
#     4  11  23  47  70  99 140 193 246 294 366 432
#
# _framework density 20.944317000000002
#
# number of rings (size 3 to 8) (size 9 to 14) (size 15 to 20)
#    0.000    0.750    5.000    2.375    7.000    0.500 
#    2.250    0.000    0.000    1.000    0.000    0.000 
#    0.000    0.000    0.000    0.000    0.000    0.000 
#
# Total GULP energy -268062.766633 kJ/mol
# GULP energy per Si atom -5584.640972 kJ/mol
# Density = 2.089665 g / cm^3
# Si number density = 20.944317 Si / 1000 Ang^3
#
#
#
# Elastic Constant Matrix: (Units=GPa)
#
#
# Indices 1 2 3 4 5 6 
#
# 1 45.1024 18.7671 10.3757 40.1503 20.4659 0.2088
# 2 18.7671 44.6431 10.2648 -40.5237 -21.1384 -0.0281
# 3 10.3757 10.2648 50.1580 -0.1748 -0.1389 0.0117
# 4 40.1503 -40.5237 -0.1748 -114.7359 2.5621 -22.1303
# 5 20.4659 -21.1384 -0.1389 2.5621 -118.0422 42.0314
# 6 0.2088 -0.0281 0.0117 -22.1303 42.0314 12.3343
#
#
#
# Elastic Compliance Matrix: (Units=1/GPa)
#
#
# Indices 1 2 3 4 5 6 
#
# 1 0.016428 0.000412 -0.003455 0.005672 0.002904 0.000007
# 2 0.000412 0.016421 -0.003474 -0.005714 -0.002994 -0.000015
# 3 -0.003455 -0.003474 0.021363 -0.000015 -0.000001 0.000005
# 4 0.005672 -0.005714 -0.000015 -0.003575 -0.000178 -0.005917
# 5 0.002904 -0.002994 -0.000001 -0.000178 -0.003420 0.011278
# 6 0.000007 -0.000015 0.000005 -0.005917 0.011278 0.032024
#
#
# Mechanical properties :
#
#
# Convention : Reuss Voigt Hill
#
# Bulk Modulus (GPa) = 24.28489 24.30209 24.29349
# Shear Modulus (GPa) = 47.16977 -37.38904 4.89036
#
# Velocity S-wave (km/s) = 4.75083 -4.22970 1.52971
# Velocity P-wave (km/s) = 6.45864 3.49650 3.83983
#
# Compressibility (1/GPa) = 0.04117787
#
# Stress axis : x y z
#
# Youngs Moduli (GPa) = 60.87164 60.89862 46.81091
#
# Poissons Ratio (x) = -0.02509 0.16172
# Poissons Ratio (y) = -0.02508 0.16262
# Poissons Ratio (z) = 0.21030 0.21156
#
# Static dielectric constant tensor:
#      x y z
#    x 1.759470 -0.000010 -0.000120 
#    y -0.000010 1.759560 0.000030 
#    z -0.000120 0.000030 1.827300 
# 
# From -- ./inp_files/1129.got.cif
#   From: 2010.05.17/outbox.cif.g08.bks.cpg/sg148_1_cif.got.tgz:1129.got - 2010.05.20 13:50:20.
