data_PCOD9575369
_publ_section_title
;
Structure prediction by ZEFSAII (Michael W. Deem and Ramdas Pophale) SiO2 
 PCOD9575369
Probable space group: P 3 1 2
;
_chemical_formula_sum "Si O2"
_cell_formula_units_Z 48
_cell_length_a 12.614160
_cell_length_b 12.614160
_cell_length_c 21.001530
_cell_angle_alpha 90.000000
_cell_angle_beta 90.000000
_cell_angle_gamma 120.000000
_cell_volume 2893.998072
_symmetry_space_group_name_H-M "P 3 1 2"
_symmetry_group_IT_number 149
_symmetry_cell_setting 'hexagonal'
loop_
_space_group_symop_operation_xyz
x,y,z
-y,x-y,z
-x+y,-x,z
-y,-x,-z
-x+y,y,-z
x,x-y,-z
loop_
_atom_site_type_symbol
_atom_site_label
_atom_site_fract_x
_atom_site_fract_y
_atom_site_fract_z
Si Si1 0.918728 0.333770 0.749572
Si Si2 0.918785 0.585018 0.500006
Si Si3 0.585282 0.918930 0.624996
Si Si4 0.748142 0.999508 0.000006
Si Si5 0.666227 0.081274 0.749585
Si Si6 0.081071 0.666354 0.375017
Si Si7 0.585682 0.666559 0.125062
Si Si8 0.585691 0.666579 0.874924
O O1 0.795808 0.204191 0.749020
O O2 0.888429 0.444213 0.747914
O O3 0.001581 0.352207 0.687865
O O4 0.997438 0.353007 0.813089
O O5 0.795642 0.591284 0.500000
O O6 0.888248 0.444124 0.500000
O O7 0.999520 0.646846 0.562632
O O8 0.999551 0.646863 0.437392
O O9 0.444672 0.889346 0.625326
O O10 0.590556 0.795279 0.624177
O O11 0.647775 0.998390 0.687888
O O12 0.667198 0.980346 0.937358
O O13 0.870402 0.129598 0.000000
O O14 0.778924 0.889462 0.000000
O O15 0.667229 0.980357 0.062665
O O16 0.647003 0.002596 0.813112
O O17 0.452386 0.547598 0.117248
O O18 0.574251 0.787117 0.133451
#
# Coordination Sequence:
#
# PCOD9575369 Si02
#       8
#     6   6   6   6   6   6   6   6
#     4  10  20  34  53  76 103 135 170 210 254 301
#     4  10  20  34  54  78 104 134 168 208 252 300
#     4  10  20  34  54  78 104 134 168 210 256 302
#     4  10  20  34  52  74 102 136 172 208 248 298
#     4  10  20  34  53  76 103 135 170 210 254 301
#     4  10  20  34  54  78 104 134 168 210 256 302
#     4  10  20  34  54  78 104 134 168 210 256 302
#     4  10  20  34  54  78 104 134 168 210 256 302
#
# _framework density 16.58605
#
# number of rings (size 3 to 8) (size 9 to 14) (size 15 to 20)
#    0.000    2.000    0.000    4.000    0.000    0.000 
#    0.000    7.500    0.000   17.000    0.000    0.000 
#    0.000    0.000    0.000    0.000    0.000    0.000 
#
# Total GULP energy -268036.157758 kJ/mol
# GULP energy per Si atom -5584.086620 kJ/mol
# Density = 1.654830 g / cm^3
# Si number density = 16.586050 Si / 1000 Ang^3
#
#
#
# Elastic Constant Matrix: (Units=GPa)
#
#
# Indices 1 2 3 4 5 6 
#
# 1 149.8035 112.2560 101.1406 0.0000 0.0071 0.0000
# 2 112.2560 149.8035 101.1406 0.0000 -0.0071 0.0000
# 3 101.1406 101.1406 182.0851 0.0000 0.0000 0.0000
# 4 0.0000 0.0000 0.0000 12.8053 0.0000 -0.0071
# 5 0.0071 -0.0071 0.0000 0.0000 12.8053 0.0000
# 6 0.0000 0.0000 0.0000 -0.0071 0.0000 18.7737
#
#
#
# Elastic Compliance Matrix: (Units=1/GPa)
#
#
# Indices 1 2 3 4 5 6 
#
# 1 0.016656 -0.009976 -0.003710 0.000000 -0.000015 0.000000
# 2 -0.009976 0.016656 -0.003710 0.000000 0.000015 0.000000
# 3 -0.003710 -0.003710 0.009614 0.000000 0.000000 0.000000
# 4 0.000000 0.000000 0.000000 0.078092 0.000000 0.000030
# 5 -0.000015 0.000015 0.000000 0.000000 0.078092 0.000000
# 6 0.000000 0.000000 0.000000 0.000030 0.000000 0.053266
#
#
# Mechanical properties :
#
#
# Convention : Reuss Voigt Hill
#
# Bulk Modulus (GPa) = 122.96936 123.41849 123.19392
# Shear Modulus (GPa) = 17.24832 20.02054 18.63443
#
# Velocity S-wave (km/s) = 3.22829 3.47806 3.35550
# Velocity P-wave (km/s) = 9.39133 9.52375 9.45777
#
# Compressibility (1/GPa) = 0.00813211
#
# Stress axis : x y z
#
# Youngs Moduli (GPa) = 60.03670 60.03670 104.01563
#
# Poissons Ratio (x) = 0.59896 0.38595
# Poissons Ratio (y) = 0.59896 0.38595
# Poissons Ratio (z) = 0.22276 0.22276
#
# Static dielectric constant tensor:
#      x y z
#    x 1.522480 0.000000 0.000000 
#    y 0.000000 1.522480 0.000000 
#    z 0.000000 0.000000 1.546600 
# 
# From -- ./inp_files/1143.got.cif
#   From: 2010.05.17/outbox.cif.g08.bks.cpg/sg149_cif.got.tgz:1143.got - 2010.05.20 13:52:34.
