data_PCOD9575059
_publ_section_title
;
Structure prediction by ZEFSAII (Michael W. Deem and Ramdas Pophale) SiO2 
 PCOD9575059
Probable space group: R -3
;
_chemical_formula_sum "Si O2"
_cell_formula_units_Z 108
_cell_length_a 16.461821
_cell_length_b 16.461821
_cell_length_c 19.244326
_cell_angle_alpha 90.000000
_cell_angle_beta 90.000000
_cell_angle_gamma 120.000000
_cell_volume 4516.365560
_symmetry_space_group_name_H-M "R -3"
_symmetry_group_IT_number 148
_symmetry_cell_setting 'hexagonal'
loop_
_space_group_symop_operation_xyz
x,y,z
-y,x-y,z
-x+y,-x,z
-x,-y,-z
y,-x+y,-z
x-y,x,-z
2/3+x,1/3+y,1/3+z
2/3-y,1/3+x-y,1/3+z
2/3-x+y,1/3-x,1/3+z
2/3-x,1/3-y,1/3-z
2/3+y,1/3-x+y,1/3-z
2/3+x-y,1/3+x,1/3-z
1/3+x,2/3+y,2/3+z
1/3-y,2/3+x-y,2/3+z
1/3-x+y,2/3-x,2/3+z
1/3-x,2/3-y,2/3-z
1/3+y,2/3-x+y,2/3-z
1/3+x-y,2/3+x,2/3-z
loop_
_atom_site_type_symbol
_atom_site_label
_atom_site_fract_x
_atom_site_fract_y
_atom_site_fract_z
Si Si1 0.514040 0.642952 0.850074
Si Si2 0.459140 0.161294 0.003595
Si Si3 0.643529 0.144504 0.502682
Si Si4 0.964703 0.794353 0.657174
Si Si5 0.878326 0.487785 0.350267
Si Si6 0.342660 0.352371 0.602934
O O1 0.419027 0.551458 0.825612
O O2 0.482477 0.722271 0.850252
O O3 0.530965 0.626438 0.929501
O O4 0.606066 0.678796 0.803113
O O5 0.431702 0.128178 0.088008
O O6 0.545695 0.148121 0.983837
O O7 0.488997 0.266858 0.987015
O O8 0.357077 0.074968 0.990321
O O9 0.604404 0.092613 0.430596
O O10 0.954045 0.715730 0.603315
O O11 0.839297 0.378242 0.338581
O O12 0.964056 0.556404 0.303266
#
# Coordination Sequence:
#
# PCOD9575059 Si02
#       6
#    18  18  18  18  18  18
#     4  10  21  36  60  88 122 165 197 236 286 359
#     4  10  23  40  64  80 112 156 204 250 285 356
#     4  10  19  36  54  82 121 158 198 222 281 355
#     4  10  23  42  63  85 116 157 207 245 298 355
#     4  12  21  32  50  83 125 162 186 225 286 360
#     4  12  23  35  55  89 121 147 192 250 305 343
#
# _framework density 23.913032999999999
#
# number of rings (size 3 to 8) (size 9 to 14) (size 15 to 20)
#    0.000    1.333    3.333    2.333    2.333    4.000 
#    0.000    0.000    0.000    0.000    0.000    0.000 
#    0.000    5.667    0.000    0.000    0.000    0.000 
#
# Total GULP energy -200493.954522 kJ/mol
# GULP energy per Si atom -5569.276514 kJ/mol
# Density = 2.385861 g / cm^3
# Si number density = 23.913033 Si / 1000 Ang^3
#
#
#
# Elastic Constant Matrix: (Units=GPa)
#
#
# Indices 1 2 3 4 5 6 
#
# 1 122.2376 48.5242 5.4696 -1.2566 1.3815 0.0000
# 2 48.5242 122.2376 5.4696 1.2566 -1.3815 0.0000
# 3 5.4696 5.4696 54.6875 0.0000 0.0000 0.0000
# 4 -1.2566 1.2566 0.0000 30.1740 0.0000 -1.3815
# 5 1.3815 -1.3815 0.0000 0.0000 30.1740 -1.2566
# 6 0.0000 0.0000 0.0000 -1.3815 -1.2566 36.8567
#
#
#
# Elastic Compliance Matrix: (Units=1/GPa)
#
#
# Indices 1 2 3 4 5 6 
#
# 1 0.009751 -0.003857 -0.000589 0.000567 -0.000623 0.000000
# 2 -0.003857 0.009751 -0.000589 -0.000567 0.000623 0.000000
# 3 -0.000589 -0.000589 0.018404 0.000000 0.000000 0.000000
# 4 0.000567 -0.000567 0.000000 0.033245 0.000000 0.001246
# 5 -0.000623 0.000623 0.000000 0.000000 0.033245 0.001133
# 6 0.000000 0.000000 0.000000 0.001246 0.001133 0.027217
#
#
# Mechanical properties :
#
#
# Convention : Reuss Voigt Hill
#
# Bulk Modulus (GPa) = 35.92800 46.45441 41.19121
# Shear Modulus (GPa) = 33.12025 35.42090 34.27058
#
# Velocity S-wave (km/s) = 3.72564 3.85286 3.78978
# Velocity P-wave (km/s) = 5.79346 6.26588 6.03430
#
# Compressibility (1/GPa) = 0.02783344
#
# Stress axis : x y z
#
# Youngs Moduli (GPa) = 102.55045 102.55045 54.33714
#
# Poissons Ratio (x) = 0.39558 0.03203
# Poissons Ratio (y) = 0.39558 0.03203
# Poissons Ratio (z) = 0.06045 0.06045
#
# Static dielectric constant tensor:
#      x y z
#    x 1.984350 0.000000 0.000000 
#    y 0.000000 1.984350 0.000000 
#    z 0.000000 0.000000 2.008330 
# 
# From -- ./inp_files/3424.got.cif
#   From: 2010.05.17/outbox.cif.g08.bks.cpg/sg148_2_cif.got.tgz:3424.got - 2010.05.20 13:50:20.
