data_PCOD9575707
_publ_section_title
;
Structure prediction by ZEFSAII (Michael W. Deem and Ramdas Pophale) SiO2 
 PCOD9575707
Probable space group: P 31 2 1
;
_chemical_formula_sum "Si O2"
_cell_formula_units_Z 27
_cell_length_a 9.674583
_cell_length_b 9.674583
_cell_length_c 13.948906
_cell_angle_alpha 90.000000
_cell_angle_beta 90.000000
_cell_angle_gamma 120.000000
_cell_volume 1130.668490
_symmetry_space_group_name_H-M "P 31 2 1"
_symmetry_group_IT_number 152
_symmetry_cell_setting 'hexagonal'
loop_
_space_group_symop_operation_xyz
x,y,z
-y,x-y,1/3+z
-x+y,-x,2/3+z
x-y,-y,2/3-z
-x,-x+y,1/3-z
y,x,-z
loop_
_atom_site_type_symbol
_atom_site_label
_atom_site_fract_x
_atom_site_fract_y
_atom_site_fract_z
Si Si1 0.985401 0.985401 0.500000
Si Si2 0.559348 0.827265 0.381445
Si Si3 0.411266 0.140371 0.268790
Si Si4 0.906970 0.666511 0.405843
Si Si5 0.689695 0.717182 0.744358
O O1 0.010308 0.144351 0.449901
O O2 0.842078 0.928431 0.575160
O O3 0.386998 0.801773 0.356065
O O4 0.607589 0.707781 0.335171
O O5 0.680450 0.000000 0.333334
O O6 0.575702 0.829867 0.495892
O O7 0.379267 0.287241 0.262927
O O8 0.276868 0.000000 0.333334
O O9 0.394119 0.041010 0.171563
O O10 0.802477 0.603931 0.309286
#
# Coordination Sequence:
#
# PCOD9575707 Si02
#       5
#     3   6   6   6   6
#     4  10  16  26  58  98 114 142 198 296 312 348
#     4  11  19  36  57  86 125 166 207 249 348 400
#     4  10  23  34  55  92 125 164 205 273 335 396
#     4  11  18  33  60  92 117 160 212 279 314 378
#     4  11  19  35  60  95 125 153 218 284 331 371
#
# _framework density 23.879678999999999
#
# number of rings (size 3 to 8) (size 9 to 14) (size 15 to 20)
#    0.000    1.333    6.667    3.333    0.000    0.000 
#    0.000    2.222    0.000    0.000    5.778    0.000 
#    0.000    0.000    0.000    0.000    0.000    0.000 
#
# Total GULP energy -150704.360792 kJ/mol
# GULP energy per Si atom -5581.642992 kJ/mol
# Density = 2.382533 g / cm^3
# Si number density = 23.879679 Si / 1000 Ang^3
#
#
#
# Elastic Constant Matrix: (Units=GPa)
#
#
# Indices 1 2 3 4 5 6 
#
# 1 52.2511 4.8175 10.6975 -0.7072 0.0001 0.0000
# 2 4.8175 52.2511 10.6975 0.7072 -0.0001 0.0000
# 3 10.6975 10.6975 94.8420 0.0000 0.0000 0.0000
# 4 -0.7072 0.7072 0.0000 4.4758 0.0000 -0.0001
# 5 0.0001 -0.0001 0.0000 0.0000 4.4758 -0.7072
# 6 0.0000 0.0000 0.0000 -0.0001 -0.7072 23.7168
#
#
#
# Elastic Compliance Matrix: (Units=1/GPa)
#
#
# Indices 1 2 3 4 5 6 
#
# 1 0.019739 -0.001443 -0.002064 0.003347 -0.000001 0.000000
# 2 -0.001443 0.019739 -0.002064 -0.003347 0.000001 0.000000
# 3 -0.002064 -0.002064 0.011009 0.000000 0.000000 0.000000
# 4 0.003347 -0.003347 0.000000 0.224481 0.000000 0.000001
# 5 -0.000001 0.000001 0.000000 0.000000 0.224481 0.006694
# 6 0.000000 0.000000 0.000000 0.000001 0.006694 0.042364
#
#
# Mechanical properties :
#
#
# Convention : Reuss Voigt Hill
#
# Bulk Modulus (GPa) = 25.41462 27.97437 26.69449
# Shear Modulus (GPa) = 8.83285 18.07579 13.45432
#
# Velocity S-wave (km/s) = 1.92534 2.75426 2.37622
# Velocity P-wave (km/s) = 3.95075 4.67491 4.32800
#
# Compressibility (1/GPa) = 0.03934744
#
# Stress axis : x y z
#
# Youngs Moduli (GPa) = 50.66067 50.66067 90.83150
#
# Poissons Ratio (x) = 0.07309 0.18745
# Poissons Ratio (y) = 0.07309 0.18745
# Poissons Ratio (z) = 0.10455 0.10455
#
# Static dielectric constant tensor:
#      x y z
#    x 1.938190 0.000000 0.000000 
#    y 0.000000 1.938190 0.000000 
#    z 0.000000 0.000000 2.023800 
# 
# From -- ./inp_files/1915.got.cif
#   From: 2010.05.17/outbox.cif.g08.bks.cpg/sg152_1_cif.got.tgz:1915.got - 2010.05.20 10:36:06.
