data_PCOD9575692
_publ_section_title
;
Structure prediction by ZEFSAII (Michael W. Deem and Ramdas Pophale) SiO2 
 PCOD9575692
Probable space group: P 31 1 2
;
_chemical_formula_sum "Si O2"
_cell_formula_units_Z 12
_cell_length_a 8.668373
_cell_length_b 8.668373
_cell_length_c 9.229249
_cell_angle_alpha 90.000000
_cell_angle_beta 90.000000
_cell_angle_gamma 120.000000
_cell_volume 600.581813
_symmetry_space_group_name_H-M "P 31 1 2"
_symmetry_group_IT_number 151
_symmetry_cell_setting 'hexagonal'
loop_
_space_group_symop_operation_xyz
x,y,z
-y,x-y,1/3+z
-x+y,-x,2/3+z
-y,-x,2/3-z
-x+y,y,1/3-z
x,x-y,-z
loop_
_atom_site_type_symbol
_atom_site_label
_atom_site_fract_x
_atom_site_fract_y
_atom_site_fract_z
Si Si1 0.770854 0.541734 0.916670
Si Si2 0.895805 0.791610 0.166667
Si Si3 0.895795 0.104206 0.333334
O O1 0.587855 0.412146 0.833334
O O2 0.902852 0.666658 0.791669
O O3 0.824230 0.412115 0.000000
O O4 0.763813 0.666677 0.041668
O O5 0.842406 0.921210 0.249999
#
# Coordination Sequence:
#
# PCOD9575692 Si02
#       3
#     6   3   3
#     4  12  22  40  66 102 128 168 218 268 316 388
#     4  12  22  40  66 102 128 168 218 268 316 388
#     4  12  22  40  66 102 128 168 218 268 316 388
#
# _framework density 19.980623999999999
#
# number of rings (size 3 to 8) (size 9 to 14) (size 15 to 20)
#    0.000    0.000   10.000    0.000    0.000    0.000 
#    0.000    0.000    0.000   12.000   26.000    0.000 
#    0.000    0.000    0.000    0.000    0.000    0.000 
#
# Total GULP energy -66914.672904 kJ/mol
# GULP energy per Si atom -5576.222742 kJ/mol
# Density = 1.993515 g / cm^3
# Si number density = 19.980624 Si / 1000 Ang^3
#
#
#
# Elastic Constant Matrix: (Units=GPa)
#
#
# Indices 1 2 3 4 5 6 
#
# 1 88.5445 58.6637 78.6990 -0.0001 0.0002 0.0000
# 2 58.6637 88.5445 78.6990 0.0001 -0.0002 0.0000
# 3 78.6990 78.6990 207.5883 0.0000 0.0000 0.0000
# 4 -0.0001 0.0001 0.0000 74.5446 0.0000 -0.0002
# 5 0.0002 -0.0002 0.0000 0.0000 74.5446 -0.0001
# 6 0.0000 0.0000 0.0000 -0.0002 -0.0001 14.9404
#
#
#
# Elastic Compliance Matrix: (Units=1/GPa)
#
#
# Indices 1 2 3 4 5 6 
#
# 1 0.022445 -0.011021 -0.004331 0.000000 0.000000 0.000000
# 2 -0.011021 0.022445 -0.004331 0.000000 0.000000 0.000000
# 3 -0.004331 -0.004331 0.008101 0.000000 0.000000 0.000000
# 4 0.000000 0.000000 0.000000 0.013415 0.000000 0.000000
# 5 0.000000 0.000000 0.000000 0.000000 0.013415 0.000000
# 6 0.000000 0.000000 0.000000 0.000000 0.000000 0.066933
#
#
# Mechanical properties :
#
#
# Convention : Reuss Voigt Hill
#
# Bulk Modulus (GPa) = 73.39441 90.75564 82.07503
# Shear Modulus (GPa) = 26.22456 44.04694 35.13575
#
# Velocity S-wave (km/s) = 3.62677 4.70029 4.19799
# Velocity P-wave (km/s) = 7.37228 8.65895 8.04139
#
# Compressibility (1/GPa) = 0.01362502
#
# Stress axis : x y z
#
# Youngs Moduli (GPa) = 44.55329 44.55329 123.44160
#
# Poissons Ratio (x) = 0.49103 0.53461
# Poissons Ratio (y) = 0.49103 0.53461
# Poissons Ratio (z) = 0.19295 0.19295
#
# Static dielectric constant tensor:
#      x y z
#    x 1.732830 0.000000 0.000000 
#    y 0.000000 1.732830 0.000000 
#    z 0.000000 0.000000 1.762420 
# 
# From -- ./inp_files/934.got.cif
#   From: 2010.05.17/outbox.cif.g08.bks.cpg/sg151_1_cif.got.tgz:934.got - 2010.05.20 10:33:20.
