data_PCOD9575596
_publ_section_title
;
Structure prediction by ZEFSAII (Michael W. Deem and Ramdas Pophale) SiO2 
 PCOD9575596
Probable space group: P 31 1 2
;
_chemical_formula_sum "Si O2"
_cell_formula_units_Z 42
_cell_length_a 8.965361
_cell_length_b 8.965361
_cell_length_c 28.207935
_cell_angle_alpha 90.000000
_cell_angle_beta 90.000000
_cell_angle_gamma 120.000000
_cell_volume 1963.529765
_symmetry_space_group_name_H-M "P 31 1 2"
_symmetry_group_IT_number 151
_symmetry_cell_setting 'hexagonal'
loop_
_space_group_symop_operation_xyz
x,y,z
-y,x-y,1/3+z
-x+y,-x,2/3+z
-y,-x,2/3-z
-x+y,y,1/3-z
x,x-y,-z
loop_
_atom_site_type_symbol
_atom_site_label
_atom_site_fract_x
_atom_site_fract_y
_atom_site_fract_z
Si Si1 0.490134 0.491811 0.168154
Si Si2 0.903411 0.301155 0.377153
Si Si3 0.717679 0.578071 0.816382
Si Si4 0.206407 0.518406 0.619776
Si Si5 0.011924 0.039598 0.280699
Si Si6 0.216417 0.438324 0.086880
Si Si7 0.141200 0.884236 0.463966
O O1 0.500381 0.320842 0.176091
O O2 0.356152 0.439332 0.123761
O O3 0.390694 0.499875 0.214293
O O4 0.659428 0.672218 0.155816
O O5 0.771138 0.228863 0.333334
O O6 0.818654 0.281691 0.428088
O O7 0.057905 0.493224 0.372823
O O8 0.980396 0.175153 0.382237
O O9 0.521941 0.478060 0.833334
O O10 0.785228 0.774066 0.831780
O O11 0.210609 0.421218 0.666667
O O12 0.402490 0.676317 0.615012
O O13 0.164141 0.406806 0.572351
O O14 0.024857 0.975143 0.333334
O O15 0.022090 0.926867 0.238002
O O16 0.142717 0.245766 0.268795
#
# Coordination Sequence:
#
# PCOD9575596 Si02
#       7
#     6   6   6   6   6   6   6
#     4  10  22  40  65  93 128 168 222 280 338 400
#     4  11  24  41  69  98 133 178 224 272 342 412
#     4  12  23  44  66  94 132 176 225 284 335 406
#     4  11  22  40  67  96 133 175 224 272 333 416
#     4  11  22  41  64  97 138 175 216 278 350 409
#     4  10  20  40  66  94 124 172 221 276 328 403
#     4  11  24  41  68 100 132 172 229 284 342 403
#
# _framework density 21.390049999999999
#
# number of rings (size 3 to 8) (size 9 to 14) (size 15 to 20)
#    0.000    1.143    4.286    3.000    4.000    0.571 
#    5.143    0.000    0.000    0.857    0.000    0.000 
#    0.000    0.000    0.000    0.000    0.000    0.000 
#
# Total GULP energy -234250.345840 kJ/mol
# GULP energy per Si atom -5577.389187 kJ/mol
# Density = 2.134137 g / cm^3
# Si number density = 21.390050 Si / 1000 Ang^3
#
#
#
# Elastic Constant Matrix: (Units=GPa)
#
#
# Indices 1 2 3 4 5 6 
#
# 1 86.9418 40.6264 21.7355 -0.0004 6.8775 0.0000
# 2 40.6264 86.9418 21.7355 0.0004 -6.8775 0.0000
# 3 21.7355 21.7355 103.6971 0.0000 0.0000 0.0000
# 4 -0.0004 0.0004 0.0000 36.3977 0.0000 -6.8775
# 5 6.8775 -6.8775 0.0000 0.0000 36.3977 -0.0004
# 6 0.0000 0.0000 0.0000 -6.8775 -0.0004 23.1577
#
#
#
# Elastic Compliance Matrix: (Units=1/GPa)
#
#
# Indices 1 2 3 4 5 6 
#
# 1 0.015658 -0.007216 -0.001769 0.000000 -0.004322 0.000000
# 2 -0.007216 0.015658 -0.001769 0.000000 0.004322 0.000000
# 3 -0.001769 -0.001769 0.010385 0.000000 0.000000 0.000000
# 4 0.000000 0.000000 0.000000 0.029108 0.000000 0.008645
# 5 -0.004322 0.004322 0.000000 0.000000 0.029108 0.000000
# 6 0.000000 0.000000 0.000000 0.008645 0.000000 0.045749
#
#
# Mechanical properties :
#
#
# Convention : Reuss Voigt Hill
#
# Bulk Modulus (GPa) = 49.52651 49.53059 49.52855
# Shear Modulus (GPa) = 28.75086 32.08951 30.42019
#
# Velocity S-wave (km/s) = 3.67021 3.87745 3.77525
# Velocity P-wave (km/s) = 6.41598 6.57665 6.49681
#
# Compressibility (1/GPa) = 0.02019121
#
# Stress axis : x y z
#
# Youngs Moduli (GPa) = 63.86383 63.86383 96.29035
#
# Poissons Ratio (x) = 0.46087 0.17038
# Poissons Ratio (y) = 0.46087 0.17038
# Poissons Ratio (z) = 0.11301 0.11301
#
# Static dielectric constant tensor:
#      x y z
#    x 1.815320 0.000000 0.000000 
#    y 0.000000 1.815320 0.000000 
#    z 0.000000 0.000000 1.913160 
# 
# From -- ./inp_files/5034.got.cif
#   From: 2010.05.17/outbox.cif.g08.bks.cpg/sg151_3_cif.got.tgz:5034.got - 2010.05.20 10:33:20.
