data_PCOD9575667
_publ_section_title
;
Structure prediction by ZEFSAII (Michael W. Deem and Ramdas Pophale) SiO2 
 PCOD9575667
Probable space group: P 31 1 2
;
_chemical_formula_sum "Si O2"
_cell_formula_units_Z 42
_cell_length_a 9.210961
_cell_length_b 9.210961
_cell_length_c 27.224977
_cell_angle_alpha 90.000000
_cell_angle_beta 90.000000
_cell_angle_gamma 120.000000
_cell_volume 2000.359440
_symmetry_space_group_name_H-M "P 31 1 2"
_symmetry_group_IT_number 151
_symmetry_cell_setting 'hexagonal'
loop_
_space_group_symop_operation_xyz
x,y,z
-y,x-y,1/3+z
-x+y,-x,2/3+z
-y,-x,2/3-z
-x+y,y,1/3-z
x,x-y,-z
loop_
_atom_site_type_symbol
_atom_site_label
_atom_site_fract_x
_atom_site_fract_y
_atom_site_fract_z
Si Si1 0.186063 0.074116 0.639012
Si Si2 0.910379 0.277582 0.069382
Si Si3 0.157126 0.175200 0.814869
Si Si4 0.903985 0.741296 0.584680
Si Si5 0.369121 0.378073 0.563132
Si Si6 0.183220 0.428771 0.225439
Si Si7 0.714062 0.318472 0.445089
O O1 0.058989 0.117977 0.666667
O O2 0.058051 0.891946 0.613886
O O3 0.307632 0.072225 0.680347
O O4 0.295603 0.227232 0.602534
O O5 0.769675 0.320556 0.083459
O O6 0.088639 0.431190 0.085001
O O7 0.863859 0.111328 0.103499
O O8 0.266864 0.226701 0.862980
O O9 0.101475 0.310399 0.804907
O O10 0.993945 0.006056 0.833334
O O11 0.746883 0.773220 0.578926
O O12 0.819514 0.543932 0.595027
O O13 0.427454 0.571268 0.575034
O O14 0.542339 0.397067 0.543560
O O15 0.211027 0.422054 0.166667
O O16 0.781416 0.390708 0.500000
#
# Coordination Sequence:
#
# PCOD9575667 Si02
#       7
#     6   6   6   6   6   6   6
#     4  12  23  42  69  96 130 182 227 278 334 418
#     4  12  22  41  70  92 136 175 229 277 340 405
#     4  12  18  39  68  97 123 174 231 282 324 399
#     4  11  21  41  72  96 125 178 240 271 329 414
#     4  11  25  38  66  99 134 172 222 277 348 401
#     4  11  20  41  67  97 126 174 224 280 333 402
#     4  11  24  42  68 104 134 172 225 295 346 404
#
# _framework density 20.996224999999999
#
# number of rings (size 3 to 8) (size 9 to 14) (size 15 to 20)
#    0.000    0.571    8.571    1.286    0.000    1.714 
#    2.571    0.000    3.143    0.000    0.000    0.000 
#    0.000    0.000    0.000    0.000    0.000    0.000 
#
# Total GULP energy -234000.728881 kJ/mol
# GULP energy per Si atom -5571.445926 kJ/mol
# Density = 2.094844 g / cm^3
# Si number density = 20.996225 Si / 1000 Ang^3
#
#
#
# Elastic Constant Matrix: (Units=GPa)
#
#
# Indices 1 2 3 4 5 6 
#
# 1 83.3056 30.6675 -0.2046 -0.0010 -2.4413 0.0000
# 2 30.6675 83.3056 -0.2046 0.0010 2.4413 0.0000
# 3 -0.2046 -0.2046 40.5477 0.0000 0.0000 0.0000
# 4 -0.0010 0.0010 0.0000 6.1529 0.0000 2.4413
# 5 -2.4413 2.4413 0.0000 0.0000 6.1529 -0.0010
# 6 0.0000 0.0000 0.0000 2.4413 -0.0010 26.3190
#
#
#
# Elastic Compliance Matrix: (Units=1/GPa)
#
#
# Indices 1 2 3 4 5 6 
#
# 1 0.014249 -0.005475 0.000044 0.000003 0.007826 0.000000
# 2 -0.005475 0.014249 0.000044 -0.000003 -0.007826 0.000000
# 3 0.000044 0.000044 0.024663 0.000000 0.000000 0.000000
# 4 0.000003 -0.000003 0.000000 0.168735 0.000000 -0.015652
# 5 0.007826 -0.007826 0.000000 0.000000 0.168735 0.000006
# 6 0.000000 0.000000 0.000000 -0.015652 0.000006 0.039447
#
#
# Mechanical properties :
#
#
# Convention : Reuss Voigt Hill
#
# Bulk Modulus (GPa) = 23.59147 29.74170 26.66658
# Shear Modulus (GPa) = 10.98951 19.51835 15.25393
#
# Velocity S-wave (km/s) = 2.29028 3.05226 2.69831
# Velocity P-wave (km/s) = 4.27251 5.15924 4.73667
#
# Compressibility (1/GPa) = 0.04238821
#
# Stress axis : x y z
#
# Youngs Moduli (GPa) = 70.18102 70.18102 40.54696
#
# Poissons Ratio (x) = 0.38422 -0.00180
# Poissons Ratio (y) = 0.38422 -0.00180
# Poissons Ratio (z) = -0.00311 -0.00311
#
# Static dielectric constant tensor:
#      x y z
#    x 1.857370 0.000000 0.000000 
#    y 0.000000 1.857370 0.000000 
#    z 0.000000 0.000000 2.070730 
# 
# From -- ./inp_files/5033.got.cif
#   From: 2010.05.17/outbox.cif.g08.bks.cpg/sg151_3_cif.got.tgz:5033.got - 2010.05.20 10:33:20.
