data_PCOD9575894
_publ_section_title
;
Structure prediction by ZEFSAII (Michael W. Deem and Ramdas Pophale) SiO2 
 PCOD9575894
Probable space group: P 31 2 1
;
_chemical_formula_sum "Si O2"
_cell_formula_units_Z 42
_cell_length_a 9.278696
_cell_length_b 9.278696
_cell_length_c 27.496556
_cell_angle_alpha 90.000000
_cell_angle_beta 90.000000
_cell_angle_gamma 120.000000
_cell_volume 2050.136722
_symmetry_space_group_name_H-M "P 31 2 1"
_symmetry_group_IT_number 152
_symmetry_cell_setting 'hexagonal'
loop_
_space_group_symop_operation_xyz
x,y,z
-y,x-y,1/3+z
-x+y,-x,2/3+z
x-y,-y,2/3-z
-x,-x+y,1/3-z
y,x,-z
loop_
_atom_site_type_symbol
_atom_site_label
_atom_site_fract_x
_atom_site_fract_y
_atom_site_fract_z
Si Si1 0.345556 0.553371 0.268105
Si Si2 0.743601 0.792844 0.874535
Si Si3 0.184402 0.273141 0.186644
Si Si4 0.601605 0.452348 0.307314
Si Si5 0.848285 0.735019 0.237820
Si Si6 0.263203 0.348403 0.910491
Si Si7 0.512543 0.594478 0.049480
O O1 0.256377 0.423246 0.224633
O O2 0.455373 0.494871 0.299509
O O3 0.210317 0.553691 0.304399
O O4 0.480859 0.736958 0.248571
O O5 0.692077 0.782226 0.818084
O O6 0.627838 0.630576 0.904691
O O7 0.931724 0.824147 0.875374
O O8 0.761081 0.956631 0.899645
O O9 0.310232 0.313169 0.141786
O O10 0.000000 0.218137 0.166667
O O11 0.755072 0.587673 0.275455
O O12 0.546679 0.273735 0.284730
O O13 0.798926 0.873822 0.252962
O O14 0.405403 0.364032 0.946422
O O15 0.609986 0.609986 0.000000
#
# Coordination Sequence:
#
# PCOD9575894 Si02
#       7
#     6   6   6   6   6   6   6
#     4  11  25  45  67  99 138 175 224 280 340 406
#     4  10  20  41  69  94 128 167 225 267 335 400
#     4  11  22  43  69  99 128 174 228 282 329 410
#     4  11  25  43  65  96 134 178 216 274 338 397
#     4   9  21  42  68  94 127 170 217 276 319 402
#     4  10  23  42  66  94 132 169 226 273 340 394
#     4  12  25  41  64  96 135 176 218 274 332 408
#
# _framework density 20.486438
#
# number of rings (size 3 to 8) (size 9 to 14) (size 15 to 20)
#    0.000    1.429    5.714    0.000    8.000    1.143 
#    0.000    0.714    0.000    0.000    0.000    0.000 
#    0.000    0.000    0.000    0.000    0.000    0.000 
#
# Total GULP energy -234575.523188 kJ/mol
# GULP energy per Si atom -5585.131504 kJ/mol
# Density = 2.043981 g / cm^3
# Si number density = 20.486438 Si / 1000 Ang^3
#
#
#
# Elastic Constant Matrix: (Units=GPa)
#
#
# Indices 1 2 3 4 5 6 
#
# 1 56.1706 30.4001 35.8504 2.5482 0.0000 0.0000
# 2 30.4001 56.1706 35.8504 -2.5482 0.0000 0.0000
# 3 35.8504 35.8504 64.0712 0.0000 0.0000 0.0000
# 4 2.5482 -2.5482 0.0000 35.3017 0.0000 0.0000
# 5 0.0000 0.0000 0.0000 0.0000 35.3017 2.5482
# 6 0.0000 0.0000 0.0000 0.0000 2.5482 12.8852
#
#
#
# Elastic Compliance Matrix: (Units=1/GPa)
#
#
# Indices 1 2 3 4 5 6 
#
# 1 0.030447 -0.008919 -0.012046 -0.002842 0.000000 0.000000
# 2 -0.008919 0.030447 -0.012046 0.002842 0.000000 0.000000
# 3 -0.012046 -0.012046 0.029088 0.000000 0.000000 0.000000
# 4 -0.002842 0.002842 0.000000 0.028737 0.000000 0.000000
# 5 0.000000 0.000000 0.000000 0.000000 0.028737 -0.005683
# 6 0.000000 0.000000 0.000000 0.000000 -0.005683 0.078732
#
#
# Mechanical properties :
#
#
# Convention : Reuss Voigt Hill
#
# Bulk Modulus (GPa) = 41.73499 42.29045 42.01272
# Shear Modulus (GPa) = 16.65574 21.65184 19.15379
#
# Velocity S-wave (km/s) = 2.85443 3.25451 3.06101
# Velocity P-wave (km/s) = 5.59285 5.90003 5.74849
#
# Compressibility (1/GPa) = 0.02396071
#
# Stress axis : x y z
#
# Youngs Moduli (GPa) = 32.84394 32.84394 34.37869
#
# Poissons Ratio (x) = 0.29294 0.41412
# Poissons Ratio (y) = 0.29294 0.41412
# Poissons Ratio (z) = 0.39563 0.39563
#
# Static dielectric constant tensor:
#      x y z
#    x 1.727970 0.000000 0.000000 
#    y 0.000000 1.727970 0.000000 
#    z 0.000000 0.000000 1.729440 
# 
# From -- ./inp_files/3720.got.cif
#   From: 2010.05.17/outbox.cif.g08.bks.cpg/sg152_2_cif.got.tgz:3720.got - 2010.05.20 10:36:06.
