data_PCOD9575867
_publ_section_title
;
Structure prediction by ZEFSAII (Michael W. Deem and Ramdas Pophale) SiO2 
 PCOD9575867
Probable space group: P 31 2 1
;
_chemical_formula_sum "Si O2"
_cell_formula_units_Z 30
_cell_length_a 7.348277
_cell_length_b 7.348277
_cell_length_c 25.000300
_cell_angle_alpha 90.000000
_cell_angle_beta 90.000000
_cell_angle_gamma 120.000000
_cell_volume 1169.087158
_symmetry_space_group_name_H-M "P 31 2 1"
_symmetry_group_IT_number 152
_symmetry_cell_setting 'hexagonal'
loop_
_space_group_symop_operation_xyz
x,y,z
-y,x-y,1/3+z
-x+y,-x,2/3+z
x-y,-y,2/3-z
-x,-x+y,1/3-z
y,x,-z
loop_
_atom_site_type_symbol
_atom_site_label
_atom_site_fract_x
_atom_site_fract_y
_atom_site_fract_z
Si Si1 0.179498 0.399374 0.125472
Si Si2 0.578390 0.435119 0.150348
Si Si3 0.774443 0.839764 0.940183
Si Si4 0.344639 0.531484 0.366655
Si Si5 0.387960 0.392078 0.259743
O O1 0.350989 0.324280 0.120365
O O2 0.285693 0.631804 0.154426
O O3 0.000000 0.258096 0.166667
O O4 0.892702 0.338283 0.264849
O O5 0.722356 0.609723 0.107515
O O6 0.493607 0.496203 0.203959
O O7 0.972365 0.813431 0.921753
O O8 0.770927 0.055975 0.949471
O O9 0.742693 0.742693 0.000000
O O10 0.363988 0.537448 0.302746
O O11 0.207357 0.636049 0.380564
#
# Coordination Sequence:
#
# PCOD9575867 Si02
#       5
#     6   6   6   6   6
#     4  11  23  40  66  93 126 174 218 269 339 392
#     4  11  21  40  63  96 125 169 223 267 334 407
#     4  10  20  38  63  94 131 174 216 274 341 403
#     4  10  21  39  65  90 128 177 215 274 343 400
#     4  10  23  39  66  95 131 172 226 274 342 407
#
# _framework density 25.661045000000001
#
# number of rings (size 3 to 8) (size 9 to 14) (size 15 to 20)
#    0.000    1.600    6.000    0.000    2.800    0.000 
#    0.000    5.000    8.800    0.000    0.000    0.000 
#    0.000    0.000    0.000    0.000    0.000    0.000 
#
# Total GULP energy -167132.743185 kJ/mol
# GULP energy per Si atom -5571.091439 kJ/mol
# Density = 2.560264 g / cm^3
# Si number density = 25.661045 Si / 1000 Ang^3
#
#
#
# Elastic Constant Matrix: (Units=GPa)
#
#
# Indices 1 2 3 4 5 6 
#
# 1 83.7762 25.9445 27.4486 -23.2201 -0.0003 0.0000
# 2 25.9445 83.7762 27.4486 23.2201 0.0003 0.0000
# 3 27.4486 27.4486 129.5222 0.0000 0.0000 0.0000
# 4 -23.2201 23.2201 0.0000 6.8379 0.0000 0.0003
# 5 -0.0003 0.0003 0.0000 0.0000 6.8379 -23.2201
# 6 0.0000 0.0000 0.0000 0.0003 -23.2201 28.9158
#
#
#
# Elastic Compliance Matrix: (Units=1/GPa)
#
#
# Indices 1 2 3 4 5 6 
#
# 1 0.000091 0.010104 -0.002161 -0.034002 0.000000 0.000000
# 2 0.010104 0.000091 -0.002161 0.034002 0.000000 0.000000
# 3 -0.002161 -0.002161 0.008636 0.000000 0.000000 0.000000
# 4 -0.034002 0.034002 0.000000 -0.084686 0.000000 0.000001
# 5 0.000000 0.000000 0.000000 0.000000 -0.084686 -0.068004
# 6 0.000000 0.000000 0.000000 0.000001 -0.068004 -0.020026
#
#
# Mechanical properties :
#
#
# Convention : Reuss Voigt Hill
#
# Bulk Modulus (GPa) = 49.05735 50.97312 50.01523
# Shear Modulus (GPa) = -26.97606 22.93382 -2.02112
#
# Velocity S-wave (km/s) = -3.24581 2.99276 -0.88844
# Velocity P-wave (km/s) = 2.26095 5.64352 4.29891
#
# Compressibility (1/GPa) = 0.02038430
#
# Stress axis : x y z
#
# Youngs Moduli (GPa) = 10984.72044 10984.71885 115.78861
#
# Poissons Ratio (x) = -110.98985 0.25017
# Poissons Ratio (y) = -110.98986 0.25017
# Poissons Ratio (z) = 23.73314 23.73314
#
# Static dielectric constant tensor:
#      x y z
#    x 2.186500 0.000000 0.000000 
#    y 0.000000 2.186500 0.000000 
#    z 0.000000 0.000000 1.708130 
# 
# From -- ./inp_files/2985.got.cif
#   From: 2010.05.17/outbox.cif.g08.bks.cpg/sg152_2_cif.got.tgz:2985.got - 2010.05.20 10:36:06.
