data_PCOD9575534
_publ_section_title
;
Structure prediction by ZEFSAII (Michael W. Deem and Ramdas Pophale) SiO2 
 PCOD9575534
Probable space group: P 31 1 2
;
_chemical_formula_sum "Si O2"
_cell_formula_units_Z 33
_cell_length_a 15.470353
_cell_length_b 15.470353
_cell_length_c 10.208480
_cell_angle_alpha 90.000000
_cell_angle_beta 90.000000
_cell_angle_gamma 120.000000
_cell_volume 2115.885493
_symmetry_space_group_name_H-M "P 31 1 2"
_symmetry_group_IT_number 151
_symmetry_cell_setting 'hexagonal'
loop_
_space_group_symop_operation_xyz
x,y,z
-y,x-y,1/3+z
-x+y,-x,2/3+z
-y,-x,2/3-z
-x+y,y,1/3-z
x,x-y,-z
loop_
_atom_site_type_symbol
_atom_site_label
_atom_site_fract_x
_atom_site_fract_y
_atom_site_fract_z
Si Si1 0.908800 0.636957 0.409065
Si Si2 0.859457 0.349675 0.830507
Si Si3 0.149184 0.040596 0.353707
Si Si4 0.683857 0.128867 0.546684
Si Si5 0.081052 0.162103 0.166667
Si Si6 0.967917 0.724729 0.678151
O O1 0.920814 0.572589 0.295389
O O2 0.919666 0.735332 0.339500
O O3 0.794190 0.568133 0.456309
O O4 0.976140 0.681183 0.538312
O O5 0.750233 0.249768 0.833334
O O6 0.849004 0.447457 0.832076
O O7 0.905401 0.342202 0.969151
O O8 0.136068 0.068034 0.500000
O O9 0.112517 0.094203 0.250405
O O10 0.077523 0.922478 0.333334
O O11 0.695256 0.051996 0.454990
O O12 0.054792 0.224275 0.270143
O O13 0.867506 0.735012 0.666667
#
# Coordination Sequence:
#
# PCOD9575534 Si02
#       6
#     6   6   6   6   3   6
#     4  10  20  34  45  71 104 127 177 227 254 304
#     4   9  18  33  50  72  95 133 175 214 261 319
#     4  12  21  30  49  71  96 139 180 212 257 308
#     4   9  17  33  49  65  96 131 167 214 266 301
#     4  12  20  34  48  68 104 140 176 216 252 320
#     4  10  19  33  46  67  97 133 169 215 258 297
#
# _framework density 15.596308000000001
#
# number of rings (size 3 to 8) (size 9 to 14) (size 15 to 20)
#    0.000    1.818    4.545    3.273    0.000    0.727 
#   19.636    0.000    0.000    0.000    0.000    0.000 
#    0.000    0.000    6.182    0.000    0.000    0.000 
#
# Total GULP energy -183862.828940 kJ/mol
# GULP energy per Si atom -5571.600877 kJ/mol
# Density = 1.556081 g / cm^3
# Si number density = 15.596308 Si / 1000 Ang^3
#
#
#
# Elastic Constant Matrix: (Units=GPa)
#
#
# Indices 1 2 3 4 5 6 
#
# 1 53.0137 25.6634 31.7853 0.0003 -1.2805 0.0000
# 2 25.6634 53.0137 31.7853 -0.0003 1.2805 0.0000
# 3 31.7853 31.7853 98.9940 0.0000 0.0000 0.0000
# 4 0.0003 -0.0003 0.0000 19.8054 0.0000 1.2805
# 5 -1.2805 1.2805 0.0000 0.0000 19.8054 0.0003
# 6 0.0000 0.0000 0.0000 1.2805 0.0003 13.6751
#
#
#
# Elastic Compliance Matrix: (Units=1/GPa)
#
#
# Indices 1 2 3 4 5 6 
#
# 1 0.026974 -0.009811 -0.005511 -0.000001 0.002378 0.000000
# 2 -0.009811 0.026974 -0.005511 0.000001 -0.002378 0.000000
# 3 -0.005511 -0.005511 0.013640 0.000000 0.000000 0.000000
# 4 -0.000001 0.000001 0.000000 0.050799 0.000000 -0.004757
# 5 0.002378 -0.002378 0.000000 0.000000 0.050799 -0.000001
# 6 0.000000 0.000000 0.000000 -0.004757 -0.000001 0.073571
#
#
# Mechanical properties :
#
#
# Convention : Reuss Voigt Hill
#
# Bulk Modulus (GPa) = 38.57546 42.60993 40.59269
# Shear Modulus (GPa) = 17.06115 18.37634 17.71875
#
# Velocity S-wave (km/s) = 3.31104 3.43629 3.37424
# Velocity P-wave (km/s) = 6.27732 6.56688 6.42373
#
# Compressibility (1/GPa) = 0.02592322
#
# Stress axis : x y z
#
# Youngs Moduli (GPa) = 37.07263 37.07263 73.31170
#
# Poissons Ratio (x) = 0.36373 0.40400
# Poissons Ratio (y) = 0.36373 0.40400
# Poissons Ratio (z) = 0.20429 0.20429
#
# Static dielectric constant tensor:
#      x y z
#    x 1.511300 0.000000 0.000000 
#    y 0.000000 1.511300 0.000000 
#    z 0.000000 0.000000 1.585790 
# 
# From -- ./inp_files/2457.got.cif
#   From: 2010.05.17/outbox.cif.g08.bks.cpg/sg151_2_cif.got.tgz:2457.got - 2010.05.20 10:33:20.
