data_PCOD9575110
_publ_section_title
;
Structure prediction by ZEFSAII (Michael W. Deem and Ramdas Pophale) SiO2 
 PCOD9575110
Probable space group: R -3
;
_chemical_formula_sum "Si O2"
_cell_formula_units_Z 90
_cell_length_a 18.498447
_cell_length_b 18.498447
_cell_length_c 14.745015
_cell_angle_alpha 90.000000
_cell_angle_beta 90.000000
_cell_angle_gamma 120.000000
_cell_volume 4369.647357
_symmetry_space_group_name_H-M "R -3"
_symmetry_group_IT_number 148
_symmetry_cell_setting 'hexagonal'
loop_
_space_group_symop_operation_xyz
x,y,z
-y,x-y,z
-x+y,-x,z
-x,-y,-z
y,-x+y,-z
x-y,x,-z
2/3+x,1/3+y,1/3+z
2/3-y,1/3+x-y,1/3+z
2/3-x+y,1/3-x,1/3+z
2/3-x,1/3-y,1/3-z
2/3+y,1/3-x+y,1/3-z
2/3+x-y,1/3+x,1/3-z
1/3+x,2/3+y,2/3+z
1/3-y,2/3+x-y,2/3+z
1/3-x+y,2/3-x,2/3+z
1/3-x,2/3-y,2/3-z
1/3+y,2/3-x+y,2/3-z
1/3+x-y,2/3+x,2/3-z
loop_
_atom_site_type_symbol
_atom_site_label
_atom_site_fract_x
_atom_site_fract_y
_atom_site_fract_z
Si Si1 0.312094 0.493771 0.374140
Si Si2 0.792507 0.780754 0.093742
Si Si3 0.312515 0.986199 0.331305
Si Si4 0.312954 0.488158 0.964071
Si Si5 0.759281 0.816822 0.905303
O O1 0.313277 0.482550 0.483485
O O2 0.285348 0.403663 0.332269
O O3 0.245515 0.521097 0.349408
O O4 0.406929 0.560789 0.346942
O O5 0.811853 0.829544 0.997643
O O6 0.845845 0.733624 0.093436
O O7 0.695243 0.713492 0.082112
O O8 0.339478 0.916562 0.324381
O O9 0.350441 0.056515 0.252441
O O10 0.311839 0.472273 0.855497
#
# Coordination Sequence:
#
# PCOD9575110 Si02
#       5
#    18  18  18  18  18
#     4  11  22  37  56  82 115 150 187 229 280 335
#     4   9  19  34  55  84 113 143 180 224 276 331
#     4  10  21  34  56  80 113 148 190 230 275 318
#     4  11  22  37  56  82 115 150 187 229 280 335
#     4   9  19  34  55  84 113 143 180 224 276 331
#
# _framework density 20.596627000000002
#
# number of rings (size 3 to 8) (size 9 to 14) (size 15 to 20)
#    1.200    0.800    0.000    4.600    0.000    3.200 
#    0.000    0.000    0.000    6.400    0.000    0.000 
#    0.000   16.000    0.000    0.000    0.000    0.000 
#
# Total GULP energy -167144.045347 kJ/mol
# GULP energy per Si atom -5571.468178 kJ/mol
# Density = 2.054975 g / cm^3
# Si number density = 20.596627 Si / 1000 Ang^3
#
#
#
# Elastic Constant Matrix: (Units=GPa)
#
#
# Indices 1 2 3 4 5 6 
#
# 1 85.4267 16.2172 7.8956 -0.3532 -0.1247 0.0000
# 2 16.2172 85.4267 7.8956 0.3532 0.1247 0.0000
# 3 7.8956 7.8956 33.3981 0.0000 0.0000 0.0000
# 4 -0.3532 0.3532 0.0000 22.6681 0.0000 0.1247
# 5 -0.1247 0.1247 0.0000 0.0000 22.6681 -0.3532
# 6 0.0000 0.0000 0.0000 0.1247 -0.3532 34.6048
#
#
#
# Elastic Compliance Matrix: (Units=1/GPa)
#
#
# Indices 1 2 3 4 5 6 
#
# 1 0.012332 -0.002119 -0.002415 0.000225 0.000079 0.000000
# 2 -0.002119 0.012332 -0.002415 -0.000225 -0.000079 0.000000
# 3 -0.002415 -0.002415 0.031083 0.000000 0.000000 0.000000
# 4 0.000225 -0.000225 0.000000 0.044123 0.000000 -0.000159
# 5 0.000079 -0.000079 0.000000 0.000000 0.044123 0.000450
# 6 0.000000 0.000000 0.000000 -0.000159 0.000450 0.028903
#
#
# Mechanical properties :
#
#
# Convention : Reuss Voigt Hill
#
# Bulk Modulus (GPa) = 23.89366 29.80759 26.85062
# Shear Modulus (GPa) = 24.90736 27.47104 26.18920
#
# Velocity S-wave (km/s) = 3.48126 3.65604 3.56972
# Velocity P-wave (km/s) = 5.27113 5.68556 5.48227
#
# Compressibility (1/GPa) = 0.04185211
#
# Stress axis : x y z
#
# Youngs Moduli (GPa) = 81.08704 81.08704 32.17141
#
# Poissons Ratio (x) = 0.17183 0.07768
# Poissons Ratio (y) = 0.17183 0.07768
# Poissons Ratio (z) = 0.19579 0.19579
#
# Static dielectric constant tensor:
#      x y z
#    x 1.758450 0.000000 0.000000 
#    y 0.000000 1.758450 0.000000 
#    z 0.000000 0.000000 1.768820 
# 
# From -- ./inp_files/2690.got.cif
#   From: 2010.05.17/outbox.cif.g08.bks.cpg/sg148_2_cif.got.tgz:2690.got - 2010.05.20 13:50:20.
