data_PCOD9575637
_publ_section_title
;
Structure prediction by ZEFSAII (Michael W. Deem and Ramdas Pophale) SiO2 
 PCOD9575637
Probable space group: P 31 1 2
;
_chemical_formula_sum "Si O2"
_cell_formula_units_Z 36
_cell_length_a 9.220546
_cell_length_b 9.220546
_cell_length_c 25.607146
_cell_angle_alpha 90.000000
_cell_angle_beta 90.000000
_cell_angle_gamma 120.000000
_cell_volume 1885.406878
_symmetry_space_group_name_H-M "P 31 1 2"
_symmetry_group_IT_number 151
_symmetry_cell_setting 'hexagonal'
loop_
_space_group_symop_operation_xyz
x,y,z
-y,x-y,1/3+z
-x+y,-x,2/3+z
-y,-x,2/3-z
-x+y,y,1/3-z
x,x-y,-z
loop_
_atom_site_type_symbol
_atom_site_label
_atom_site_fract_x
_atom_site_fract_y
_atom_site_fract_z
Si Si1 0.025544 0.247533 0.871839
Si Si2 0.357132 0.825516 0.782419
Si Si3 0.333559 0.344575 0.813285
Si Si4 0.287527 0.474287 0.607145
Si Si5 0.830152 0.541162 0.927406
Si Si6 0.406166 0.224359 0.621944
O O1 0.095483 0.447761 0.866989
O O2 0.191701 0.240493 0.856513
O O3 0.940487 0.193271 0.928632
O O4 0.873773 0.126228 0.833334
O O5 0.240584 0.759417 0.833334
O O6 0.292986 0.664293 0.745678
O O7 0.355156 0.972755 0.750525
O O8 0.473031 0.526970 0.833334
O O9 0.235875 0.369779 0.765259
O O10 0.429089 0.257243 0.788584
O O11 0.230833 0.461666 0.666667
O O12 0.402448 0.389042 0.604681
O O13 0.775975 0.347011 0.934817
O O14 0.788733 0.596532 0.982272
#
# Coordination Sequence:
#
# PCOD9575637 Si02
#       6
#     6   6   6   6   6   6
#     4  11  20  36  64  90 123 164 209 262 319 381
#     4  11  22  40  63  94 124 165 224 259 316 389
#     4  12  23  41  61  99 127 163 221 266 320 381
#     4  12  22  39  71  93 125 169 220 267 313 392
#     4  10  25  41  63  93 132 172 211 272 325 393
#     4  10  22  42  64  90 128 173 217 253 336 390
#
# _framework density 19.09402
#
# number of rings (size 3 to 8) (size 9 to 14) (size 15 to 20)
#    0.000    1.000    6.667    0.000    4.667    4.667 
#    0.000    0.000    0.000    0.000    0.000    0.000 
#    0.000    0.000    0.000    0.000    0.000    0.000 
#
# Total GULP energy -200852.368496 kJ/mol
# GULP energy per Si atom -5579.232458 kJ/mol
# Density = 1.905056 g / cm^3
# Si number density = 19.094020 Si / 1000 Ang^3
#
#
#
# Elastic Constant Matrix: (Units=GPa)
#
#
# Indices 1 2 3 4 5 6 
#
# 1 77.9781 41.2524 26.8866 -0.0008 -3.2636 0.0000
# 2 41.2524 77.9781 26.8866 0.0008 3.2636 0.0000
# 3 26.8866 26.8866 57.2510 0.0000 0.0000 0.0000
# 4 -0.0008 0.0008 0.0000 31.9793 0.0000 3.2636
# 5 -3.2636 3.2636 0.0000 0.0000 31.9793 -0.0008
# 6 0.0000 0.0000 0.0000 3.2636 -0.0008 18.3629
#
#
#
# Elastic Compliance Matrix: (Units=1/GPa)
#
#
# Indices 1 2 3 4 5 6 
#
# 1 0.019186 -0.008545 -0.004997 0.000001 0.002830 0.000000
# 2 -0.008545 0.019186 -0.004997 -0.000001 -0.002830 0.000000
# 3 -0.004997 -0.004997 0.022161 0.000000 0.000000 0.000000
# 4 0.000001 -0.000001 0.000000 0.031848 0.000000 -0.005660
# 5 0.002830 -0.002830 0.000000 0.000000 0.031848 0.000001
# 6 0.000000 0.000000 0.000000 -0.005660 0.000001 0.055464
#
#
# Mechanical properties :
#
#
# Convention : Reuss Voigt Hill
#
# Bulk Modulus (GPa) = 42.63772 44.80650 43.72211
# Shear Modulus (GPa) = 22.26273 24.34305 23.30289
#
# Velocity S-wave (km/s) = 3.41831 3.57445 3.49725
# Velocity P-wave (km/s) = 6.16106 6.36811 6.26544
#
# Compressibility (1/GPa) = 0.02345341
#
# Stress axis : x y z
#
# Youngs Moduli (GPa) = 52.12037 52.12037 45.12503
#
# Poissons Ratio (x) = 0.44539 0.22550
# Poissons Ratio (y) = 0.44539 0.22550
# Poissons Ratio (z) = 0.26046 0.26046
#
# Static dielectric constant tensor:
#      x y z
#    x 1.679010 0.000000 0.000000 
#    y 0.000000 1.679010 0.000000 
#    z 0.000000 0.000000 1.677490 
# 
# From -- ./inp_files/4683.got.cif
#   From: 2010.05.17/outbox.cif.g08.bks.cpg/sg151_3_cif.got.tgz:4683.got - 2010.05.20 10:33:20.
