data_PCOD9575342
_publ_section_title
;
Structure prediction by ZEFSAII (Michael W. Deem and Ramdas Pophale) SiO2 
 PCOD9575342
Probable space group: P 3 1 2
;
_chemical_formula_sum "Si O2"
_cell_formula_units_Z 32
_cell_length_a 17.178787
_cell_length_b 17.178787
_cell_length_c 7.305456
_cell_angle_alpha 90.000000
_cell_angle_beta 90.000000
_cell_angle_gamma 120.000000
_cell_volume 1867.080103
_symmetry_space_group_name_H-M "P 3 1 2"
_symmetry_group_IT_number 149
_symmetry_cell_setting 'hexagonal'
loop_
_space_group_symop_operation_xyz
x,y,z
-y,x-y,z
-x+y,-x,z
-y,-x,-z
-x+y,y,-z
x,x-y,-z
loop_
_atom_site_type_symbol
_atom_site_label
_atom_site_fract_x
_atom_site_fract_y
_atom_site_fract_z
Si Si1 0.099407 0.720249 0.776763
Si Si2 0.998705 0.821276 0.222800
Si Si3 0.439297 0.878593 0.787778
Si Si4 0.998705 0.177429 0.222799
Si Si5 0.099408 0.720249 0.223237
Si Si6 0.333334 0.666667 0.718249
O O1 0.089137 0.627065 0.710354
O O2 0.026399 0.748042 0.720663
O O3 0.094043 0.547022 0.000000
O O4 0.099643 0.718717 1.000000
O O5 0.026399 0.748042 0.279338
O O6 0.903533 0.807066 0.284682
O O7 0.081037 0.918963 0.276613
O O8 0.997732 0.820919 0.000000
O O9 0.372935 0.910862 0.710354
O O10 0.606178 0.803089 0.723249
O O11 0.384931 0.769861 0.781252
O O12 0.333334 0.666667 0.500000
#
# Coordination Sequence:
#
# PCOD9575342 Si02
#       6
#     6   6   6   6   6   2
#     4   8  13  19  30  47  62  86 124 149 165 201
#     4   8  12  17  25  41  67  94 114 138 176 215
#     4  10  16  26  40  50  68 100 128 150 174 205
#     4   8  12  17  25  41  67  94 114 138 176 215
#     4   8  13  19  30  47  62  86 124 149 165 201
#     4  12  22  26  34  54  76  98 124 150 184 221
#
# _framework density 17.139061000000002
#
# number of rings (size 3 to 8) (size 9 to 14) (size 15 to 20)
#    0.000    3.375    1.875    3.188    0.000    1.500 
#    0.000    0.000    0.000    0.000    0.000    0.000 
#    1.875    1.500    5.625    0.000    0.000    0.000 
#
# Total GULP energy -178374.395003 kJ/mol
# GULP energy per Si atom -5574.199844 kJ/mol
# Density = 1.710005 g / cm^3
# Si number density = 17.139061 Si / 1000 Ang^3
#
#
#
# Elastic Constant Matrix: (Units=GPa)
#
#
# Indices 1 2 3 4 5 6 
#
# 1 155.3710 91.8093 4.1031 0.0000 -0.0001 0.0001
# 2 91.8093 155.3710 4.1030 -0.0001 0.0001 -0.0002
# 3 4.1031 4.1030 71.9157 0.0001 0.0001 -0.0001
# 4 0.0000 -0.0001 0.0001 -23.4669 0.0002 0.0001
# 5 -0.0001 0.0001 0.0001 0.0002 -23.4669 0.0000
# 6 0.0001 -0.0002 -0.0001 0.0001 0.0000 31.7808
#
#
#
# Elastic Compliance Matrix: (Units=1/GPa)
#
#
# Indices 1 2 3 4 5 6 
#
# 1 0.009893 -0.005840 -0.000231 0.000000 0.000000 0.000000
# 2 -0.005840 0.009893 -0.000231 0.000000 0.000000 0.000000
# 3 -0.000231 -0.000231 0.013932 0.000000 0.000000 0.000000
# 4 0.000000 0.000000 0.000000 -0.042613 0.000000 0.000000
# 5 0.000000 0.000000 0.000000 0.000000 -0.042613 0.000000
# 6 0.000000 0.000000 0.000000 0.000000 0.000000 0.031465
#
#
# Mechanical properties :
#
#
# Convention : Reuss Voigt Hill
#
# Bulk Modulus (GPa) = 47.36388 64.74318 56.05353
# Shear Modulus (GPa) = -12460.93531 15.81224 -6222.56153
#
# Velocity S-wave (km/s) = -85.35966 3.04070 -60.32009
# Velocity P-wave (km/s) = 98.42426 7.08414 69.41596
#
# Compressibility (1/GPa) = 0.02111313
#
# Stress axis : x y z
#
# Youngs Moduli (GPa) = 101.08129 101.08128 71.77952
#
# Poissons Ratio (x) = 0.59029 0.01660
# Poissons Ratio (y) = 0.59029 0.01660
# Poissons Ratio (z) = 0.02338 0.02337
#
# Static dielectric constant tensor:
#      x y z
#    x 1.574140 0.000000 0.000000 
#    y 0.000000 1.574140 0.000000 
#    z 0.000000 0.000000 1.627240 
# 
# From -- ./inp_files/879.got.cif
#   From: 2010.05.17/outbox.cif.g08.bks.cpg/sg149_cif.got.tgz:879.got - 2010.05.20 13:52:34.
