data_PCOD9575406
_publ_section_title
;
Structure prediction by ZEFSAII (Michael W. Deem and Ramdas Pophale) SiO2 
 PCOD9575406
Probable space group: P 3 2 1
;
_chemical_formula_sum "Si O2"
_cell_formula_units_Z 45
_cell_length_a 14.507497
_cell_length_b 14.507497
_cell_length_c 11.001120
_cell_angle_alpha 90.000000
_cell_angle_beta 90.000000
_cell_angle_gamma 120.000000
_cell_volume 2005.176068
_symmetry_space_group_name_H-M "P 3 2 1"
_symmetry_group_IT_number 150
_symmetry_cell_setting 'hexagonal'
loop_
_space_group_symop_operation_xyz
x,y,z
-y,x-y,z
-x+y,-x,z
x-y,-y,-z
-x,-x+y,-z
y,x,-z
loop_
_atom_site_type_symbol
_atom_site_label
_atom_site_fract_x
_atom_site_fract_y
_atom_site_fract_z
Si Si1 0.191392 0.442951 0.347340
Si Si2 0.772986 0.607361 0.075390
Si Si3 0.677819 0.115981 0.855193
Si Si4 0.114762 0.514741 0.563044
Si Si5 0.537525 0.537525 0.000000
Si Si6 0.584263 0.893585 0.720894
Si Si7 0.253706 0.138789 0.468526
Si Si8 0.305066 0.031895 0.282894
O O1 0.286956 0.489168 0.252533
O O2 0.188495 0.520277 0.450378
O O3 0.178109 0.341353 0.423623
O O4 0.081457 0.380272 0.269975
O O5 0.808450 0.547100 0.170444
O O6 0.791198 0.708442 0.158895
O O7 0.837295 0.612190 0.953606
O O8 0.647478 0.558716 0.059442
O O9 0.566029 0.076543 0.920712
O O10 0.647580 0.006523 0.788594
O O11 0.132693 0.614724 0.640136
O O12 0.101669 0.421643 0.653872
O O13 0.000000 0.469057 0.500000
O O14 0.674229 0.900568 0.632628
O O15 0.156109 0.156109 0.500000
O O16 0.228627 0.033981 0.388718
#
# Coordination Sequence:
#
# PCOD9575406 Si02
#       8
#     6   6   6   6   3   6   6   6
#     4  10  21  40  66 105 132 189 244 298 372 459
#     4  11  24  44  68 100 133 194 257 302 383 453
#     4  12  24  43  73 102 143 193 259 311 385 460
#     4   9  19  37  69  98 142 190 240 305 383 448
#     4  12  26  48  72 104 144 200 250 332 390 452
#     4  11  21  39  69 102 135 187 245 308 368 465
#     4  10  18  33  61  98 131 168 225 288 365 433
#     4   9  20  38  66  96 132 181 238 289 362 453
#
# _framework density 22.441918999999999
#
# number of rings (size 3 to 8) (size 9 to 14) (size 15 to 20)
#    0.000    1.600    2.667    3.200    0.000    1.067 
#    0.800    0.000    0.000    5.867    0.000    0.000 
#    5.333    0.000    0.000    0.000    0.000    0.000 
#
# Total GULP energy -250610.125891 kJ/mol
# GULP energy per Si atom -5569.113909 kJ/mol
# Density = 2.239084 g / cm^3
# Si number density = 22.441919 Si / 1000 Ang^3
#
#
#
# Elastic Constant Matrix: (Units=GPa)
#
#
# Indices 1 2 3 4 5 6 
#
# 1 69.0812 23.8480 49.9973 1.1558 0.0000 0.0000
# 2 23.8480 69.0812 49.9973 -1.1558 0.0000 0.0000
# 3 49.9973 49.9973 135.9008 0.0000 0.0000 0.0000
# 4 1.1558 -1.1558 0.0000 37.3898 0.0000 0.0000
# 5 0.0000 0.0000 0.0000 0.0000 37.3898 1.1558
# 6 0.0000 0.0000 0.0000 0.0000 1.1558 22.6166
#
#
#
# Elastic Compliance Matrix: (Units=1/GPa)
#
#
# Indices 1 2 3 4 5 6 
#
# 1 0.019977 -0.002165 -0.006553 -0.000684 0.000000 0.000000
# 2 -0.002165 0.019977 -0.006553 0.000684 0.000000 0.000000
# 3 -0.006553 -0.006553 0.012180 0.000000 0.000000 0.000000
# 4 -0.000684 0.000684 0.000000 0.026788 0.000000 0.000000
# 5 0.000000 0.000000 0.000000 0.000000 0.026788 -0.001369
# 6 0.000000 0.000000 0.000000 0.000000 -0.001369 0.044285
#
#
# Mechanical properties :
#
#
# Convention : Reuss Voigt Hill
#
# Bulk Modulus (GPa) = 46.31309 57.97203 52.14256
# Shear Modulus (GPa) = 26.63327 29.49393 28.06360
#
# Velocity S-wave (km/s) = 3.44868 3.62917 3.54008
# Velocity P-wave (km/s) = 6.04479 6.59161 6.32411
#
# Compressibility (1/GPa) = 0.02159217
#
# Stress axis : x y z
#
# Youngs Moduli (GPa) = 50.05662 50.05662 82.10224
#
# Poissons Ratio (x) = 0.10839 0.53801
# Poissons Ratio (y) = 0.10839 0.53801
# Poissons Ratio (z) = 0.32802 0.32802
#
# Static dielectric constant tensor:
#      x y z
#    x 1.924380 0.000000 0.000000 
#    y 0.000000 1.924380 0.000000 
#    z 0.000000 0.000000 1.319960 
# 
# From -- ./inp_files/968.got.cif
#   From: 2010.05.17/outbox.cif.g08.bks.cpg/sg150_cif.got.tgz:968.got - 2010.05.20 13:53:18.
