data_PCOD9575252
_publ_section_title
;
Structure prediction by ZEFSAII (Michael W. Deem and Ramdas Pophale) SiO2 
 PCOD9575252
Probable space group: R -3
;
_chemical_formula_sum "Si O2"
_cell_formula_units_Z 144
_cell_length_a 30.535520
_cell_length_b 30.535520
_cell_length_c 7.958491
_cell_angle_alpha 90.000000
_cell_angle_beta 90.000000
_cell_angle_gamma 120.000000
_cell_volume 6426.462852
_symmetry_space_group_name_H-M "R -3"
_symmetry_group_IT_number 148
_symmetry_cell_setting 'hexagonal'
loop_
_space_group_symop_operation_xyz
x,y,z
-y,x-y,z
-x+y,-x,z
-x,-y,-z
y,-x+y,-z
x-y,x,-z
2/3+x,1/3+y,1/3+z
2/3-y,1/3+x-y,1/3+z
2/3-x+y,1/3-x,1/3+z
2/3-x,1/3-y,1/3-z
2/3+y,1/3-x+y,1/3-z
2/3+x-y,1/3+x,1/3-z
1/3+x,2/3+y,2/3+z
1/3-y,2/3+x-y,2/3+z
1/3-x+y,2/3-x,2/3+z
1/3-x,2/3-y,2/3-z
1/3+y,2/3-x+y,2/3-z
1/3+x-y,2/3+x,2/3-z
loop_
_atom_site_type_symbol
_atom_site_label
_atom_site_fract_x
_atom_site_fract_y
_atom_site_fract_z
Si Si1 0.740900 0.618855 0.783958
Si Si2 0.768506 0.631118 0.389074
Si Si3 0.000949 0.180813 0.525480
Si Si4 0.809427 0.723603 0.877421
Si Si5 0.639382 0.227038 0.276749
Si Si6 0.161729 0.261970 0.521722
Si Si7 0.651473 0.136989 0.415929
Si Si8 0.407051 0.633690 0.094085
O O1 0.749714 0.623029 0.583581
O O2 0.686569 0.572408 0.820466
O O3 0.756018 0.671697 0.871262
O O4 0.780438 0.603160 0.859558
O O5 0.814415 0.619399 0.379336
O O6 0.794708 0.691900 0.369909
O O7 0.724118 0.588374 0.277100
O O8 0.006346 0.178204 0.724543
O O9 0.035300 0.159878 0.451166
O O10 0.945433 0.151690 0.443350
O O11 0.822626 0.732270 0.676895
O O12 0.809377 0.770589 0.963184
O O13 0.604637 0.240158 0.392779
O O14 0.637504 0.174483 0.318038
O O15 0.616601 0.225792 0.094846
O O16 0.359018 0.600626 0.208804
#
# Coordination Sequence:
#
# PCOD9575252 Si02
#       8
#    18  18  18  18  18  18  18  18
#     4   9  17  35  58  77 102 147 194 234 281 341
#     4   9  17  35  58  78 103 146 193 234 283 342
#     4  11  21  35  56  87 119 151 191 241 293 352
#     4   8  17  34  56  77 106 145 187 232 284 339
#     4  12  25  42  62  88 121 159 199 246 295 344
#     4   8  17  34  56  77 104 144 191 234 281 341
#     4  11  21  35  56  88 120 150 189 241 294 349
#     4  12  25  42  62  88 121 160 200 242 291 352
#
# _framework density 22.407347999999999
#
# number of rings (size 3 to 8) (size 9 to 14) (size 15 to 20)
#    0.000    2.000    0.000    6.250    0.000    2.000 
#    0.000   10.000    0.000    0.000    0.000    0.000 
#    0.000    0.000    0.000    0.000    0.000    0.000 
#
# Total GULP energy -267927.548418 kJ/mol
# GULP energy per Si atom -5581.823925 kJ/mol
# Density = 2.235635 g / cm^3
# Si number density = 22.407348 Si / 1000 Ang^3
#
#
#
# Elastic Constant Matrix: (Units=GPa)
#
#
# Indices 1 2 3 4 5 6 
#
# 1 71.1671 5.8781 0.3338 0.4250 1.5021 0.0217
# 2 5.8781 71.0807 0.3579 -0.3933 -1.4750 0.0070
# 3 0.3338 0.3579 43.3884 0.1142 0.0258 0.0620
# 4 0.4250 -0.3933 0.1142 19.8816 0.0620 -1.5071
# 5 1.5021 -1.4750 0.0258 0.0620 19.9086 0.4308
# 6 0.0217 0.0070 0.0620 -1.5071 0.4308 32.6184
#
#
#
# Elastic Compliance Matrix: (Units=1/GPa)
#
#
# Indices 1 2 3 4 5 6 
#
# 1 0.014177 -0.001198 -0.000098 -0.000323 -0.001157 -0.000009
# 2 -0.001198 0.014193 -0.000109 0.000303 0.001141 -0.000003
# 3 -0.000098 -0.000109 0.023050 -0.000136 -0.000029 -0.000050
# 4 -0.000323 0.000303 -0.000136 0.050489 -0.000161 0.002335
# 5 -0.001157 0.001141 -0.000029 -0.000161 0.050417 -0.000673
# 6 -0.000009 -0.000003 -0.000050 0.002335 -0.000673 0.030774
#
#
# Mechanical properties :
#
#
# Convention : Reuss Voigt Hill
#
# Bulk Modulus (GPa) = 20.57149 22.08622 21.32886
# Shear Modulus (GPa) = 24.73858 26.41946 25.57902
#
# Velocity S-wave (km/s) = 3.32631 3.43746 3.38234
# Velocity P-wave (km/s) = 4.89419 5.06290 4.97926
#
# Compressibility (1/GPa) = 0.04861096
#
# Stress axis : x y z
#
# Youngs Moduli (GPa) = 70.53586 70.45490 43.38449
#
# Poissons Ratio (x) = 0.08438 0.00424
# Poissons Ratio (y) = 0.08448 0.00474
# Poissons Ratio (z) = 0.00689 0.00770
#
# Static dielectric constant tensor:
#      x y z
#    x 1.849130 0.000000 -0.000090 
#    y 0.000000 1.849180 -0.000010 
#    z -0.000090 -0.000010 1.833100 
# 
# From -- ./inp_files/1153.got.cif
#   From: 2010.05.17/outbox.cif.g08.bks.cpg/sg148_1_cif.got.tgz:1153.got - 2010.05.20 13:50:20.
