data_PCOD9575373
_publ_section_title
;
Structure prediction by ZEFSAII (Michael W. Deem and Ramdas Pophale) SiO2 
 PCOD9575373
Probable space group: P 3 1 2
;
_chemical_formula_sum "Si O2"
_cell_formula_units_Z 29
_cell_length_a 11.358472
_cell_length_b 11.358472
_cell_length_c 15.161557
_cell_angle_alpha 90.000000
_cell_angle_beta 90.000000
_cell_angle_gamma 120.000000
_cell_volume 1694.003324
_symmetry_space_group_name_H-M "P 3 1 2"
_symmetry_group_IT_number 149
_symmetry_cell_setting 'hexagonal'
loop_
_space_group_symop_operation_xyz
x,y,z
-y,x-y,z
-x+y,-x,z
-y,-x,-z
-x+y,y,-z
x,x-y,-z
loop_
_atom_site_type_symbol
_atom_site_label
_atom_site_fract_x
_atom_site_fract_y
_atom_site_fract_z
Si Si1 0.843723 0.421862 0.500000
Si Si2 0.716745 0.999395 0.194560
Si Si3 0.333334 0.666668 0.393755
Si Si4 0.720892 0.722032 1.000000
Si Si5 0.716748 0.717348 0.194559
Si Si6 0.487472 0.512525 0.674261
O O1 0.740338 0.480675 0.500000
O O2 0.932413 0.466206 0.587606
O O3 0.656086 0.989836 0.095516
O O4 0.730737 0.865367 0.206383
O O5 0.616168 0.002197 0.266684
O O6 0.864203 0.135794 0.198919
O O7 0.333334 0.666667 0.500000
O O8 0.409681 0.590334 0.357243
O O9 0.754911 0.877456 0.000000
O O10 0.656087 0.666249 0.095515
O O11 0.859006 0.718012 0.000000
O O12 0.616173 0.613967 0.266683
#
# Coordination Sequence:
#
# PCOD9575373 Si02
#       6
#     3   6   2   6   6   6
#     4  10  24  42  62  88 110 142 190 238 302 352
#     4  10  20  35  58  85 118 155 198 242 288 338
#     4  12  24  42  63  85 113 160 189 237 294 373
#     4   8  15  29  50  80 114 154 195 237 282 336
#     4  10  20  35  58  85 118 155 198 242 288 338
#     4  12  22  39  62  85 118 151 192 241 297 357
#
# _framework density 17.119212000000001
#
# number of rings (size 3 to 8) (size 9 to 14) (size 15 to 20)
#    0.207    1.655    3.103    1.862    0.000    4.138 
#    1.241    0.000    0.000    0.000    0.000    0.000 
#    0.000    0.000    0.000    0.000    0.000    0.000 
#
# Total GULP energy -161596.541709 kJ/mol
# GULP energy per Si atom -5572.294542 kJ/mol
# Density = 1.708025 g / cm^3
# Si number density = 17.119212 Si / 1000 Ang^3
#
#
#
# Elastic Constant Matrix: (Units=GPa)
#
#
# Indices 1 2 3 4 5 6 
#
# 1 92.7843 63.6030 79.6682 -0.0002 -0.0001 0.0000
# 2 63.6030 92.7843 79.6683 -0.0001 0.0000 0.0000
# 3 79.6682 79.6683 189.1114 0.0000 0.0000 0.0000
# 4 -0.0002 -0.0001 0.0000 26.3102 0.0000 0.0001
# 5 -0.0001 0.0000 0.0000 0.0000 26.3102 0.0001
# 6 0.0000 0.0000 0.0000 0.0001 0.0001 14.5906
#
#
#
# Elastic Compliance Matrix: (Units=1/GPa)
#
#
# Indices 1 2 3 4 5 6 
#
# 1 0.022736 -0.011533 -0.004720 0.000000 0.000000 0.000000
# 2 -0.011533 0.022736 -0.004720 0.000000 0.000000 0.000000
# 3 -0.004720 -0.004720 0.009264 0.000000 0.000000 0.000000
# 4 0.000000 0.000000 0.000000 0.038008 0.000000 0.000000
# 5 0.000000 0.000000 0.000000 0.000000 0.038008 0.000000
# 6 0.000000 0.000000 0.000000 0.000000 0.000000 0.068537
#
#
# Mechanical properties :
#
#
# Convention : Reuss Voigt Hill
#
# Bulk Modulus (GPa) = 78.17351 91.17322 84.67336
# Shear Modulus (GPa) = 20.36686 23.55823 21.96255
#
# Velocity S-wave (km/s) = 3.45296 3.71364 3.58567
# Velocity P-wave (km/s) = 7.85242 8.47123 8.16769
#
# Compressibility (1/GPa) = 0.01279206
#
# Stress axis : x y z
#
# Youngs Moduli (GPa) = 43.98367 43.98369 107.94076
#
# Poissons Ratio (x) = 0.50725 0.50943
# Poissons Ratio (y) = 0.50725 0.50943
# Poissons Ratio (z) = 0.20758 0.20758
#
# Static dielectric constant tensor:
#      x y z
#    x 1.550490 0.000000 0.000000 
#    y 0.000000 1.550490 0.000000 
#    z 0.000000 0.000000 1.598530 
# 
# From -- ./inp_files/995.got.cif
#   From: 2010.05.17/outbox.cif.g08.bks.cpg/sg149_cif.got.tgz:995.got - 2010.05.20 13:52:34.
