data_PCOD9575329
_publ_section_title
;
Structure prediction by ZEFSAII (Michael W. Deem and Ramdas Pophale) SiO2 
 PCOD9575329
Probable space group: R -3
;
_chemical_formula_sum "Si O2"
_cell_formula_units_Z 63
_cell_length_a 19.555289
_cell_length_b 19.555289
_cell_length_c 6.959883
_cell_angle_alpha 90.000000
_cell_angle_beta 90.000000
_cell_angle_gamma 120.000000
_cell_volume 2304.947553
_symmetry_space_group_name_H-M "R -3"
_symmetry_group_IT_number 148
_symmetry_cell_setting 'hexagonal'
loop_
_space_group_symop_operation_xyz
x,y,z
-y,x-y,z
-x+y,-x,z
-x,-y,-z
y,-x+y,-z
x-y,x,-z
2/3+x,1/3+y,1/3+z
2/3-y,1/3+x-y,1/3+z
2/3-x+y,1/3-x,1/3+z
2/3-x,1/3-y,1/3-z
2/3+y,1/3-x+y,1/3-z
2/3+x-y,1/3+x,1/3-z
1/3+x,2/3+y,2/3+z
1/3-y,2/3+x-y,2/3+z
1/3-x+y,2/3-x,2/3+z
1/3-x,2/3-y,2/3-z
1/3+y,2/3-x+y,2/3-z
1/3+x-y,2/3+x,2/3-z
loop_
_atom_site_type_symbol
_atom_site_label
_atom_site_fract_x
_atom_site_fract_y
_atom_site_fract_z
Si Si1 0.946239 0.824272 0.970862
Si Si2 0.572814 0.148277 0.870672
Si Si3 0.500000 0.500000 0.000000
Si Si4 0.385360 0.053196 0.202287
O O1 0.911831 0.787181 0.760996
O O2 0.894914 0.859762 0.056093
O O3 0.952288 0.766013 0.117131
O O4 0.532538 0.202534 0.863029
O O5 0.513883 0.060018 0.806637
O O6 0.586898 0.569980 0.083548
O O7 0.382976 0.027896 0.421057
#
# Coordination Sequence:
#
# PCOD9575329 Si02
#       4
#    18  18   9  18
#     4  12  27  51  78 120 159 211 278 345 416 496
#     4  12  27  50  83 119 165 218 274 347 425 500
#     4  12  26  50  80 120 162 212 274 334 414 494
#     4  12  29  54  82 122 168 224 279 340 419 499
#
# _framework density 27.332511
#
# number of rings (size 3 to 8) (size 9 to 14) (size 15 to 20)
#    0.000    0.000    2.857    5.714    4.000    3.429 
#    0.000    0.000    0.000    0.000    0.000    0.000 
#    0.000    0.000    0.000    0.000    0.000    0.000 
#
# Total GULP energy -117053.106426 kJ/mol
# GULP energy per Si atom -5573.957449 kJ/mol
# Density = 2.727030 g / cm^3
# Si number density = 27.332511 Si / 1000 Ang^3
#
#
#
# Elastic Constant Matrix: (Units=GPa)
#
#
# Indices 1 2 3 4 5 6 
#
# 1 86.6222 43.8018 15.8348 13.4122 -1.2099 -0.0070
# 2 43.8018 86.6116 15.8247 -13.4126 1.2188 0.0060
# 3 15.8348 15.8247 101.7156 0.0167 0.0473 -0.0002
# 4 13.4122 -13.4126 0.0167 35.5533 0.0053 1.2343
# 5 -1.2099 1.2188 0.0473 0.0053 35.5832 13.4170
# 6 -0.0070 0.0060 -0.0002 1.2343 13.4170 21.3997
#
#
#
# Elastic Compliance Matrix: (Units=1/GPa)
#
#
# Indices 1 2 3 4 5 6 
#
# 1 0.019315 -0.011347 -0.001240 -0.011568 0.001039 0.000025
# 2 -0.011347 0.019317 -0.001240 0.011570 -0.001038 -0.000026
# 3 -0.001240 -0.001240 0.010217 -0.000005 -0.000018 0.000011
# 4 -0.011568 0.011570 -0.000005 0.036930 0.000014 -0.002146
# 5 0.001039 -0.001038 -0.000018 0.000014 0.036897 -0.023133
# 6 0.000025 -0.000026 0.000011 -0.002146 -0.023133 0.061357
#
#
# Mechanical properties :
#
#
# Convention : Reuss Voigt Hill
#
# Bulk Modulus (GPa) = 47.18298 47.31912 47.25105
# Shear Modulus (GPa) = 22.85682 31.80644 27.33163
#
# Velocity S-wave (km/s) = 2.89494 3.41498 3.16566
# Velocity P-wave (km/s) = 5.33613 5.73581 5.53957
#
# Compressibility (1/GPa) = 0.02119409
#
# Stress axis : x y z
#
# Youngs Moduli (GPa) = 51.77443 51.76702 97.87280
#
# Poissons Ratio (x) = 0.58741 0.12137
# Poissons Ratio (y) = 0.58750 0.12139
# Poissons Ratio (z) = 0.06420 0.06420
#
# Static dielectric constant tensor:
#      x y z
#    x 1.293110 -0.000030 -0.000010 
#    y -0.000030 1.293190 -0.000020 
#    z -0.000010 -0.000020 2.053240 
# 
# From -- ./inp_files/770.got.cif
#   From: 2010.05.17/outbox.cif.g08.bks.cpg/sg148_1_cif.got.tgz:770.got - 2010.05.20 13:50:20.
