data_PCOD9575357
_publ_section_title
;
Structure prediction by ZEFSAII (Michael W. Deem and Ramdas Pophale) SiO2 
 PCOD9575357
Probable space group: P 3 1 2
;
_chemical_formula_sum "Si O2"
_cell_formula_units_Z 32
_cell_length_a 16.796248
_cell_length_b 16.796248
_cell_length_c 8.762092
_cell_angle_alpha 90.000000
_cell_angle_beta 90.000000
_cell_angle_gamma 120.000000
_cell_volume 2140.735433
_symmetry_space_group_name_H-M "P 3 1 2"
_symmetry_group_IT_number 149
_symmetry_cell_setting 'hexagonal'
loop_
_space_group_symop_operation_xyz
x,y,z
-y,x-y,z
-x+y,-x,z
-y,-x,-z
-x+y,y,-z
x,x-y,-z
loop_
_atom_site_type_symbol
_atom_site_label
_atom_site_fract_x
_atom_site_fract_y
_atom_site_fract_z
Si Si1 0.102267 0.204534 0.818333
Si Si2 0.951531 0.715900 0.317715
Si Si3 0.000000 0.000000 0.317371
Si Si4 0.665807 0.517393 0.816509
Si Si5 0.764369 0.715900 0.317715
Si Si6 0.665807 0.148414 0.816509
O O1 0.206684 0.250414 0.760852
O O2 0.043730 0.250414 0.760852
O O3 0.098659 0.197317 0.000000
O O4 0.051655 0.103310 0.743936
O O5 0.920353 0.613332 0.263043
O O6 0.865843 0.731685 0.275815
O O7 0.961269 0.723508 0.500000
O O8 0.000000 0.000000 0.500000
O O9 0.748468 0.496937 0.782017
O O10 0.568448 0.431552 0.770626
O O11 0.665359 0.528425 0.000000
O O12 0.692979 0.613332 0.263043
#
# Coordination Sequence:
#
# PCOD9575357 Si02
#       6
#     6   6   2   6   6   6
#     4  12  22  32  48  68  92 126 164 196 230 277
#     4  10  20  32  46  65  94 126 157 196 237 278
#     4  12  22  32  46  66  94 128 160 192 232 275
#     4   9  17  30  48  69  94 124 160 198 236 278
#     4  10  20  32  46  65  94 126 157 196 237 278
#     4   9  17  30  48  69  94 124 160 198 236 278
#
# _framework density 14.948134
#
# number of rings (size 3 to 8) (size 9 to 14) (size 15 to 20)
#    0.000    1.875    1.875    3.750    0.000    3.750 
#    0.000    0.000    0.000    2.250    0.000    0.000 
#    1.875    0.000    3.375    0.000    3.375    0.000 
#
# Total GULP energy -178613.432194 kJ/mol
# GULP energy per Si atom -5581.669756 kJ/mol
# Density = 1.491411 g / cm^3
# Si number density = 14.948134 Si / 1000 Ang^3
#
#
#
# Elastic Constant Matrix: (Units=GPa)
#
#
# Indices 1 2 3 4 5 6 
#
# 1 107.2953 55.3647 47.2604 0.0000 0.0000 0.0000
# 2 55.3647 107.2953 47.2604 0.0000 0.0000 0.0000
# 3 47.2604 47.2604 71.2004 0.0000 0.0000 0.0000
# 4 0.0000 0.0000 0.0000 18.3930 0.0000 0.0000
# 5 0.0000 0.0000 0.0000 0.0000 18.3930 0.0000
# 6 0.0000 0.0000 0.0000 0.0000 0.0000 25.9653
#
#
#
# Elastic Compliance Matrix: (Units=1/GPa)
#
#
# Indices 1 2 3 4 5 6 
#
# 1 0.014632 -0.004624 -0.006643 0.000000 0.000000 0.000000
# 2 -0.004624 0.014632 -0.006643 0.000000 0.000000 0.000000
# 3 -0.006643 -0.006643 0.022864 0.000000 0.000000 0.000000
# 4 0.000000 0.000000 0.000000 0.054369 0.000000 0.000000
# 5 0.000000 0.000000 0.000000 0.000000 0.054369 0.000000
# 6 0.000000 0.000000 0.000000 0.000000 0.000000 0.038513
#
#
# Mechanical properties :
#
#
# Convention : Reuss Voigt Hill
#
# Bulk Modulus (GPa) = 61.32060 65.06245 63.19152
# Shear Modulus (GPa) = 20.77840 21.61061 21.19451
#
# Velocity S-wave (km/s) = 3.73236 3.80637 3.76955
# Velocity P-wave (km/s) = 7.72563 7.93334 7.83017
#
# Compressibility (1/GPa) = 0.01630773
#
# Stress axis : x y z
#
# Youngs Moduli (GPa) = 68.34227 68.34227 43.73755
#
# Poissons Ratio (x) = 0.31603 0.29055
# Poissons Ratio (y) = 0.31603 0.29055
# Poissons Ratio (z) = 0.45400 0.45400
#
# Static dielectric constant tensor:
#      x y z
#    x 1.486230 0.000000 0.000000 
#    y 0.000000 1.486230 0.000000 
#    z 0.000000 0.000000 1.496250 
# 
# From -- ./inp_files/599.got.cif
#   From: 2010.05.17/outbox.cif.g08.bks.cpg/sg149_cif.got.tgz:599.got - 2010.05.20 13:52:34.
