data_PCOD9575570
_publ_section_title
;
Structure prediction by ZEFSAII (Michael W. Deem and Ramdas Pophale) SiO2 
 PCOD9575570
Probable space group: P 31 1 2
;
_chemical_formula_sum "Si O2"
_cell_formula_units_Z 30
_cell_length_a 13.956766
_cell_length_b 13.956766
_cell_length_c 8.936989
_cell_angle_alpha 90.000000
_cell_angle_beta 90.000000
_cell_angle_gamma 120.000000
_cell_volume 1507.618470
_symmetry_space_group_name_H-M "P 31 1 2"
_symmetry_group_IT_number 151
_symmetry_cell_setting 'hexagonal'
loop_
_space_group_symop_operation_xyz
x,y,z
-y,x-y,1/3+z
-x+y,-x,2/3+z
-y,-x,2/3-z
-x+y,y,1/3-z
x,x-y,-z
loop_
_atom_site_type_symbol
_atom_site_label
_atom_site_fract_x
_atom_site_fract_y
_atom_site_fract_z
Si Si1 0.069538 0.640395 0.920127
Si Si2 0.095186 0.369870 0.764790
Si Si3 0.381036 0.588457 0.005155
Si Si4 0.478818 0.111426 0.277260
Si Si5 0.658286 0.176369 0.525709
O O1 0.146903 0.668451 0.772169
O O2 0.944350 0.589920 0.865568
O O3 0.067203 0.533602 0.000000
O O4 0.089856 0.727617 0.053775
O O5 0.161883 0.323765 0.666667
O O6 0.168803 0.501734 0.747237
O O7 0.976737 0.341745 0.692259
O O8 0.412143 0.587858 0.833334
O O9 0.316013 0.658007 0.000000
O O10 0.527479 0.054957 0.166667
O O11 0.578486 0.171376 0.394662
O O12 0.477753 0.212478 0.193610
O O13 0.596394 0.192788 0.666667
#
# Coordination Sequence:
#
# PCOD9575570 Si02
#       5
#     6   6   6   6   6
#     4   9  18  36  53  74 113 154 200 251 296 374
#     4  10  21  37  53  72 115 165 207 250 299 361
#     4  10  20  34  52  75 103 151 201 252 305 359
#     4  12  22  35  55  90 124 161 206 254 310 388
#     4  11  20  34  57  85 125 162 198 246 315 376
#
# _framework density 19.898933
#
# number of rings (size 3 to 8) (size 9 to 14) (size 15 to 20)
#    0.000    1.600    6.000    3.000    0.000    4.000 
#    0.000    2.000    0.000    0.000    0.000    0.000 
#    0.000   12.800    0.000    0.000    0.000    1.000 
#
# Total GULP energy -167050.664912 kJ/mol
# GULP energy per Si atom -5568.355497 kJ/mol
# Density = 1.985364 g / cm^3
# Si number density = 19.898933 Si / 1000 Ang^3
#
#
#
# Elastic Constant Matrix: (Units=GPa)
#
#
# Indices 1 2 3 4 5 6 
#
# 1 90.4969 59.6478 42.4981 0.0002 -4.5815 0.0000
# 2 59.6478 90.4969 42.4981 -0.0002 4.5815 0.0000
# 3 42.4981 42.4981 126.1501 0.0000 0.0000 0.0000
# 4 0.0002 -0.0002 0.0000 21.7784 0.0000 4.5815
# 5 -4.5815 4.5815 0.0000 0.0000 21.7784 0.0002
# 6 0.0000 0.0000 0.0000 4.5815 0.0002 15.4246
#
#
#
# Elastic Compliance Matrix: (Units=1/GPa)
#
#
# Indices 1 2 3 4 5 6 
#
# 1 0.021403 -0.013173 -0.002772 0.000000 0.007274 0.000000
# 2 -0.013173 0.021403 -0.002772 0.000000 -0.007274 0.000000
# 3 -0.002772 -0.002772 0.009795 0.000000 0.000000 0.000000
# 4 0.000000 0.000000 0.000000 0.048977 0.000000 -0.014547
# 5 0.007274 -0.007274 0.000000 0.000000 0.048977 -0.000001
# 6 0.000000 0.000000 0.000000 -0.014547 -0.000001 0.069153
#
#
# Mechanical properties :
#
#
# Convention : Reuss Voigt Hill
#
# Bulk Modulus (GPa) = 65.94288 66.27018 66.10653
# Shear Modulus (GPa) = 19.06944 22.62962 20.84953
#
# Velocity S-wave (km/s) = 3.09902 3.37594 3.24044
# Velocity P-wave (km/s) = 6.78352 6.96934 6.87705
#
# Compressibility (1/GPa) = 0.01516464
#
# Stress axis : x y z
#
# Youngs Moduli (GPa) = 46.72239 46.72239 102.09214
#
# Poissons Ratio (x) = 0.61549 0.28305
# Poissons Ratio (y) = 0.61549 0.28305
# Poissons Ratio (z) = 0.12954 0.12954
#
# Static dielectric constant tensor:
#      x y z
#    x 1.788850 0.000000 0.000000 
#    y 0.000000 1.788850 0.000000 
#    z 0.000000 0.000000 1.632610 
# 
# From -- ./inp_files/1527.got.cif
#   From: 2010.05.17/outbox.cif.g08.bks.cpg/sg151_1_cif.got.tgz:1527.got - 2010.05.20 10:33:20.
