data_PCOD9575938
_publ_section_title
;
Structure prediction by ZEFSAII (Michael W. Deem and Ramdas Pophale) SiO2 
 PCOD9575938
Probable space group: P 31 2 1
;
_chemical_formula_sum "Si O2"
_cell_formula_units_Z 30
_cell_length_a 8.884523
_cell_length_b 8.884523
_cell_length_c 23.039724
_cell_angle_alpha 90.000000
_cell_angle_beta 90.000000
_cell_angle_gamma 120.000000
_cell_volume 1574.983963
_symmetry_space_group_name_H-M "P 31 2 1"
_symmetry_group_IT_number 152
_symmetry_cell_setting 'hexagonal'
loop_
_space_group_symop_operation_xyz
x,y,z
-y,x-y,1/3+z
-x+y,-x,2/3+z
x-y,-y,2/3-z
-x,-x+y,1/3-z
y,x,-z
loop_
_atom_site_type_symbol
_atom_site_label
_atom_site_fract_x
_atom_site_fract_y
_atom_site_fract_z
Si Si1 0.970645 0.739581 0.751445
Si Si2 0.934279 0.383760 0.600936
Si Si3 0.705738 0.454563 0.275861
Si Si4 0.295938 0.944727 0.688360
Si Si5 0.077296 0.280487 0.495884
O O1 0.829354 0.665724 0.699023
O O2 0.867221 0.760427 0.803786
O O3 0.033343 0.600352 0.757985
O O4 0.146862 0.917916 0.734390
O O5 0.727895 0.255312 0.603224
O O6 0.000000 0.411291 0.666667
O O7 0.040054 0.329269 0.558715
O O8 0.703331 0.570713 0.329497
O O9 0.852487 0.400971 0.288016
O O10 0.730106 0.563586 0.217427
O O11 0.202663 0.202663 0.500000
#
# Coordination Sequence:
#
# PCOD9575938 Si02
#       5
#     6   6   6   6   6
#     4   9  18  41  60  79 122 162 201 233 309 367
#     4  11  21  41  63  87 118 169 207 243 301 371
#     4  10  21  37  62  90 118 154 206 244 302 354
#     4   9  18  35  61  88 111 158 197 249 294 360
#     4  11  25  38  58  93 128 156 196 263 307 357
#
# _framework density 19.047810999999999
#
# number of rings (size 3 to 8) (size 9 to 14) (size 15 to 20)
#    0.000    2.000    4.000    1.200    2.800    1.600 
#    3.600    4.000    0.000    0.000    0.000    0.000 
#    0.000    0.000    0.000    0.000    0.000    0.000 
#
# Total GULP energy -167256.148988 kJ/mol
# GULP energy per Si atom -5575.204966 kJ/mol
# Density = 1.900446 g / cm^3
# Si number density = 19.047811 Si / 1000 Ang^3
#
#
#
# Elastic Constant Matrix: (Units=GPa)
#
#
# Indices 1 2 3 4 5 6 
#
# 1 86.6020 49.8450 39.4325 -7.7905 -0.0009 0.0000
# 2 49.8450 86.6020 39.4325 7.7905 0.0009 0.0000
# 3 39.4325 39.4325 69.4169 0.0000 0.0000 0.0000
# 4 -7.7905 7.7905 0.0000 0.8206 0.0000 0.0009
# 5 -0.0009 0.0009 0.0000 0.0000 0.8206 -7.7905
# 6 0.0000 0.0000 0.0000 0.0009 -7.7905 18.3785
#
#
#
# Elastic Compliance Matrix: (Units=1/GPa)
#
#
# Indices 1 2 3 4 5 6 
#
# 1 0.000958 0.009953 -0.006198 -0.085401 -0.000010 0.000000
# 2 0.009953 0.000958 -0.006198 0.085401 0.000010 0.000000
# 3 -0.006198 -0.006198 0.021448 0.000000 0.000000 0.000000
# 4 -0.085401 0.085401 0.000000 -0.402935 0.000000 0.000020
# 5 -0.000010 0.000010 0.000000 0.000000 -0.402935 -0.170802
# 6 0.000000 0.000000 0.000000 0.000020 -0.170802 -0.017990
#
#
# Mechanical properties :
#
#
# Convention : Reuss Voigt Hill
#
# Bulk Modulus (GPa) = 54.12030 55.56012 54.84021
# Shear Modulus (GPa) = -6.33352 11.59798 2.63223
#
# Velocity S-wave (km/s) = -1.82545 2.47024 1.17682
# Velocity P-wave (km/s) = 4.90219 6.11295 5.54075
#
# Compressibility (1/GPa) = 0.01847735
#
# Stress axis : x y z
#
# Youngs Moduli (GPa) = 1043.73594 1043.73592 46.62523
#
# Poissons Ratio (x) = -10.38860 0.28900
# Poissons Ratio (y) = -10.38860 0.28900
# Poissons Ratio (z) = 6.46934 6.46934
#
# Static dielectric constant tensor:
#      x y z
#    x 1.668100 0.000000 0.000000 
#    y 0.000000 1.668100 0.000000 
#    z 0.000000 0.000000 1.670350 
# 
# From -- ./inp_files/2977.got.cif
#   From: 2010.05.17/outbox.cif.g08.bks.cpg/sg152_2_cif.got.tgz:2977.got - 2010.05.20 10:36:06.
