data_PCOD9575045
_publ_section_title
;
Structure prediction by ZEFSAII (Michael W. Deem and Ramdas Pophale) SiO2 
 PCOD9575045
Probable space group: R -3
;
_chemical_formula_sum "Si O2"
_cell_formula_units_Z 108
_cell_length_a 20.349908
_cell_length_b 20.349908
_cell_length_c 16.430483
_cell_angle_alpha 90.000000
_cell_angle_beta 90.000000
_cell_angle_gamma 120.000000
_cell_volume 5892.585088
_symmetry_space_group_name_H-M "R -3"
_symmetry_group_IT_number 148
_symmetry_cell_setting 'hexagonal'
loop_
_space_group_symop_operation_xyz
x,y,z
-y,x-y,z
-x+y,-x,z
-x,-y,-z
y,-x+y,-z
x-y,x,-z
2/3+x,1/3+y,1/3+z
2/3-y,1/3+x-y,1/3+z
2/3-x+y,1/3-x,1/3+z
2/3-x,1/3-y,1/3-z
2/3+y,1/3-x+y,1/3-z
2/3+x-y,1/3+x,1/3-z
1/3+x,2/3+y,2/3+z
1/3-y,2/3+x-y,2/3+z
1/3-x+y,2/3-x,2/3+z
1/3-x,2/3-y,2/3-z
1/3+y,2/3-x+y,2/3-z
1/3+x-y,2/3+x,2/3-z
loop_
_atom_site_type_symbol
_atom_site_label
_atom_site_fract_x
_atom_site_fract_y
_atom_site_fract_z
Si Si1 0.176239 0.667327 0.343136
Si Si2 0.508911 0.332672 0.656863
Si Si3 0.623325 0.086508 0.496859
Si Si4 0.175641 0.508975 0.666667
Si Si5 0.796517 0.753175 0.163525
Si Si6 0.490691 0.666667 0.166667
O O1 0.259066 0.740934 0.347140
O O2 0.183215 0.591608 0.347008
O O3 0.128949 0.665711 0.421137
O O4 0.140901 0.666690 0.254396
O O5 0.463237 0.334288 0.578863
O O6 0.474211 0.333310 0.745603
O O7 0.664284 0.130269 0.414654
O O8 0.542890 0.085780 0.497018
O O9 0.602805 1.000000 0.500000
O O10 0.183311 0.591655 0.667589
O O11 0.132652 0.463603 0.747987
O O12 0.407756 0.592244 0.166576
#
# Coordination Sequence:
#
# PCOD9575045 Si02
#       6
#    18  18  18  18  18  18
#     4   9  15  24  41  68 101 133 164 203 253 310
#     4   9  15  24  41  68 101 133 164 203 253 310
#     4   9  18  31  47  68  97 136 174 205 249 315
#     4  10  19  32  54  84 111 134 166 222 284 328
#     4   9  18  31  47  68  97 136 174 205 249 315
#     4   8  13  20  34  60  94 130 161 194 244 306
#
# _framework density 18.328118
#
# number of rings (size 3 to 8) (size 9 to 14) (size 15 to 20)
#    0.000    3.000    0.000    1.667    0.000    2.667 
#    0.000    3.333    3.667    0.000    0.000    2.333 
#    0.000    0.000    0.000    0.000    0.000    0.000 
#
# Total GULP energy -200432.806274 kJ/mol
# GULP energy per Si atom -5567.577952 kJ/mol
# Density = 1.828640 g / cm^3
# Si number density = 18.328118 Si / 1000 Ang^3
#
#
#
# Elastic Constant Matrix: (Units=GPa)
#
#
# Indices 1 2 3 4 5 6 
#
# 1 39.6321 25.2551 57.5855 1.3716 0.0000 0.0000
# 2 25.2551 39.6321 57.5855 -1.3716 0.0000 0.0000
# 3 57.5855 57.5855 240.3773 0.0000 0.0000 0.0000
# 4 1.3716 -1.3716 0.0000 8.7465 0.0000 0.0000
# 5 0.0000 0.0000 0.0000 0.0000 8.7465 1.3716
# 6 0.0000 0.0000 0.0000 0.0000 1.3716 7.1885
#
#
#
# Elastic Compliance Matrix: (Units=1/GPa)
#
#
# Indices 1 2 3 4 5 6 
#
# 1 0.049257 -0.022445 -0.006423 -0.011244 0.000000 0.000000
# 2 -0.022445 0.049257 -0.006423 0.011244 0.000000 0.000000
# 3 -0.006423 -0.006423 0.007238 0.000000 0.000000 0.000000
# 4 -0.011244 0.011244 0.000000 0.117857 0.000000 0.000000
# 5 0.000000 0.000000 0.000000 0.000000 0.117857 -0.022487
# 6 0.000000 0.000000 0.000000 0.000000 -0.022487 0.143402
#
#
# Mechanical properties :
#
#
# Convention : Reuss Voigt Hill
#
# Bulk Modulus (GPa) = 28.43400 66.72153 47.57777
# Shear Modulus (GPa) = 8.81566 16.88400 12.84983
#
# Velocity S-wave (km/s) = 2.19553 3.03843 2.65070
# Velocity P-wave (km/s) = 4.68772 6.98515 5.94841
#
# Compressibility (1/GPa) = 0.03516916
#
# Stress axis : x y z
#
# Youngs Moduli (GPa) = 20.30182 20.30182 138.16640
#
# Poissons Ratio (x) = 0.45566 0.88747
# Poissons Ratio (y) = 0.45566 0.88747
# Poissons Ratio (z) = 0.13040 0.13040
#
# Static dielectric constant tensor:
#      x y z
#    x 1.596480 0.000000 0.000000 
#    y 0.000000 1.596480 0.000000 
#    z 0.000000 0.000000 1.679740 
# 
# From -- ./inp_files/2038.got.cif
#   From: 2010.05.17/outbox.cif.g08.bks.cpg/sg148_2_cif.got.tgz:2038.got - 2010.05.20 13:50:20.
