data_PCOD9575523
_publ_section_title
;
Structure prediction by ZEFSAII (Michael W. Deem and Ramdas Pophale) SiO2 
 PCOD9575523
Probable space group: P 31 1 2
;
_chemical_formula_sum "Si O2"
_cell_formula_units_Z 27
_cell_length_a 10.476294
_cell_length_b 10.476294
_cell_length_c 15.579136
_cell_angle_alpha 90.000000
_cell_angle_beta 90.000000
_cell_angle_gamma 120.000000
_cell_volume 1480.775962
_symmetry_space_group_name_H-M "P 31 1 2"
_symmetry_group_IT_number 151
_symmetry_cell_setting 'hexagonal'
loop_
_space_group_symop_operation_xyz
x,y,z
-y,x-y,1/3+z
-x+y,-x,2/3+z
-y,-x,2/3-z
-x+y,y,1/3-z
x,x-y,-z
loop_
_atom_site_type_symbol
_atom_site_label
_atom_site_fract_x
_atom_site_fract_y
_atom_site_fract_z
Si Si1 0.101464 0.898537 0.833334
Si Si2 0.622750 0.245499 0.166667
Si Si3 0.922807 0.845613 0.666667
Si Si4 0.450626 0.423028 0.157071
Si Si5 0.999692 0.598634 0.623901
Si Si6 0.232652 0.669019 0.095743
O O1 0.032002 0.925133 0.746673
O O2 0.030283 0.721891 0.846098
O O3 0.545819 0.344420 0.174749
O O4 0.592869 0.133768 0.245130
O O5 0.968485 0.733581 0.626113
O O6 0.513409 0.576509 0.208115
O O7 0.445660 0.450870 0.055401
O O8 0.155247 0.671266 0.575739
O O9 0.309685 0.619371 0.166667
O O10 0.239544 0.619772 0.000000
#
# Coordination Sequence:
#
# PCOD9575523 Si02
#       6
#     3   3   3   6   6   6
#     4  10  18  39  65  88 128 172 216 260 332 399
#     4  12  22  39  71  94 130 174 218 268 334 399
#     4  10  20  40  64  90 124 176 216 258 334 396
#     4  11  23  42  63  96 127 170 215 274 327 393
#     4  11  21  39  64  92 128 171 213 267 337 390
#     4  12  22  38  66  97 125 168 223 272 319 386
#
# _framework density 18.233682999999999
#
# number of rings (size 3 to 8) (size 9 to 14) (size 15 to 20)
#    0.000    0.889    8.889    1.333    0.000    1.778 
#    0.000    3.333    4.889    0.000    0.000    0.000 
#    0.000    0.000    0.000    0.000    0.000    0.000 
#
# Total GULP energy -150496.162722 kJ/mol
# GULP energy per Si atom -5573.931953 kJ/mol
# Density = 1.819218 g / cm^3
# Si number density = 18.233683 Si / 1000 Ang^3
#
#
#
# Elastic Constant Matrix: (Units=GPa)
#
#
# Indices 1 2 3 4 5 6 
#
# 1 109.2345 57.4922 49.6594 0.0001 1.0528 0.0000
# 2 57.4922 109.2345 49.6594 -0.0001 -1.0528 0.0000
# 3 49.6594 49.6594 122.3095 0.0000 0.0000 0.0000
# 4 0.0001 -0.0001 0.0000 26.0410 0.0000 -1.0528
# 5 1.0528 -1.0528 0.0000 0.0000 26.0410 0.0001
# 6 0.0000 0.0000 0.0000 -1.0528 0.0001 25.8712
#
#
#
# Elastic Compliance Matrix: (Units=1/GPa)
#
#
# Indices 1 2 3 4 5 6 
#
# 1 0.013635 -0.005724 -0.003212 0.000000 -0.000783 0.000000
# 2 -0.005724 0.013635 -0.003212 0.000000 0.000783 0.000000
# 3 -0.003212 -0.003212 0.010784 0.000000 0.000000 0.000000
# 4 0.000000 0.000000 0.000000 0.038464 0.000000 0.001565
# 5 -0.000783 0.000783 0.000000 0.000000 0.038464 0.000000
# 6 0.000000 0.000000 0.000000 0.001565 0.000000 0.038717
#
#
# Mechanical properties :
#
#
# Convention : Reuss Voigt Hill
#
# Bulk Modulus (GPa) = 72.68244 72.71115 72.69680
# Shear Modulus (GPa) = 27.38513 27.85515 27.62014
#
# Velocity S-wave (km/s) = 3.87964 3.91279 3.89625
# Velocity P-wave (km/s) = 7.74706 7.77028 7.75868
#
# Compressibility (1/GPa) = 0.01375848
#
# Stress axis : x y z
#
# Youngs Moduli (GPa) = 73.34160 73.34160 92.72753
#
# Poissons Ratio (x) = 0.41977 0.29785
# Poissons Ratio (y) = 0.41977 0.29785
# Poissons Ratio (z) = 0.23558 0.23558
#
# Static dielectric constant tensor:
#      x y z
#    x 1.758040 0.000000 0.000000 
#    y 0.000000 1.758040 0.000000 
#    z 0.000000 0.000000 1.642350 
# 
# From -- ./inp_files/2758.got.cif
#   From: 2010.05.17/outbox.cif.g08.bks.cpg/sg151_2_cif.got.tgz:2758.got - 2010.05.20 10:33:20.
