data_PCOD9575531
_publ_section_title
;
Structure prediction by ZEFSAII (Michael W. Deem and Ramdas Pophale) SiO2 
 PCOD9575531
Probable space group: P 31 1 2
;
_chemical_formula_sum "Si O2"
_cell_formula_units_Z 27
_cell_length_a 11.701400
_cell_length_b 11.701400
_cell_length_c 11.270579
_cell_angle_alpha 90.000000
_cell_angle_beta 90.000000
_cell_angle_gamma 120.000000
_cell_volume 1336.449369
_symmetry_space_group_name_H-M "P 31 1 2"
_symmetry_group_IT_number 151
_symmetry_cell_setting 'hexagonal'
loop_
_space_group_symop_operation_xyz
x,y,z
-y,x-y,1/3+z
-x+y,-x,2/3+z
-y,-x,2/3-z
-x+y,y,1/3-z
x,x-y,-z
loop_
_atom_site_type_symbol
_atom_site_label
_atom_site_fract_x
_atom_site_fract_y
_atom_site_fract_z
Si Si1 0.272107 0.997492 0.023076
Si Si2 0.539038 0.445589 0.067010
Si Si3 0.974305 0.119429 0.965636
Si Si4 0.721203 0.360602 0.500000
Si Si5 0.702180 0.984248 0.039349
O O1 0.382246 0.000744 0.937764
O O2 0.313081 0.979818 0.156346
O O3 0.277552 0.138776 0.000000
O O4 0.120125 0.881192 0.014564
O O5 0.585177 0.400777 0.947293
O O6 0.616526 0.602426 0.052704
O O7 0.579238 0.376333 0.168393
O O8 0.914821 0.085180 0.833334
O O9 0.989256 0.994628 0.000000
O O10 0.853293 0.105961 0.040388
O O11 0.702624 0.851312 0.000000
#
# Coordination Sequence:
#
# PCOD9575531 Si02
#       5
#     6   6   6   3   6
#     4  11  19  34  56  81 111 149 184 226 296 351
#     4  11  20  36  55  82 113 148 192 234 284 345
#     4  10  19  32  49  81 115 138 180 234 286 339
#     4  10  20  34  54  84 104 140 190 234 280 332
#     4  11  21  34  53  86 112 146 190 234 288 340
#
# _framework density 20.202786
#
# number of rings (size 3 to 8) (size 9 to 14) (size 15 to 20)
#    0.000    1.333    8.889    0.000    1.556    0.000 
#    0.000    0.000    0.000    0.000   28.889    0.000 
#    0.000    0.000    0.000    0.000    0.000    0.000 
#
# Total GULP energy -150406.294059 kJ/mol
# GULP energy per Si atom -5570.603484 kJ/mol
# Density = 2.015680 g / cm^3
# Si number density = 20.202786 Si / 1000 Ang^3
#
#
#
# Elastic Constant Matrix: (Units=GPa)
#
#
# Indices 1 2 3 4 5 6 
#
# 1 97.1243 46.5362 -6.7740 0.0002 0.9311 0.0000
# 2 46.5362 97.1243 -6.7740 -0.0002 -0.9311 0.0000
# 3 -6.7740 -6.7740 25.8950 0.0000 0.0000 0.0000
# 4 0.0002 -0.0002 0.0000 19.5176 0.0000 -0.9311
# 5 0.9311 -0.9311 0.0000 0.0000 19.5176 0.0002
# 6 0.0000 0.0000 0.0000 -0.9311 0.0002 25.2940
#
#
#
# Elastic Compliance Matrix: (Units=1/GPa)
#
#
# Indices 1 2 3 4 5 6 
#
# 1 0.013470 -0.006333 0.001867 0.000000 -0.000945 0.000000
# 2 -0.006333 0.013470 0.001867 0.000000 0.000945 0.000000
# 3 0.001867 0.001867 0.039594 0.000000 0.000000 0.000000
# 4 0.000000 0.000000 0.000000 0.051326 0.000000 0.001889
# 5 -0.000945 0.000945 0.000000 0.000000 0.051326 0.000000
# 6 0.000000 0.000000 0.000000 0.001889 0.000000 0.039605
#
#
# Mechanical properties :
#
#
# Convention : Reuss Voigt Hill
#
# Bulk Modulus (GPa) = 16.30363 31.79112 24.04737
# Shear Modulus (GPa) = 21.32807 25.34286 23.33546
#
# Velocity S-wave (km/s) = 3.25268 3.54563 3.40231
# Velocity P-wave (km/s) = 4.71106 5.70369 5.23097
#
# Compressibility (1/GPa) = 0.06133604
#
# Stress axis : x y z
#
# Youngs Moduli (GPa) = 74.24121 74.24121 25.25617
#
# Poissons Ratio (x) = 0.47015 -0.04715
# Poissons Ratio (y) = 0.47015 -0.04715
# Poissons Ratio (z) = -0.13861 -0.13861
#
# Static dielectric constant tensor:
#      x y z
#    x 1.743260 0.000000 0.000000 
#    y 0.000000 1.743260 0.000000 
#    z 0.000000 0.000000 1.824180 
# 
# From -- ./inp_files/2713.got.cif
#   From: 2010.05.17/outbox.cif.g08.bks.cpg/sg151_2_cif.got.tgz:2713.got - 2010.05.20 10:33:20.
