data_PCOD9575666
_publ_section_title
;
Structure prediction by ZEFSAII (Michael W. Deem and Ramdas Pophale) SiO2 
 PCOD9575666
Probable space group: P 31 1 2
;
_chemical_formula_sum "Si O2"
_cell_formula_units_Z 42
_cell_length_a 14.244166
_cell_length_b 14.244166
_cell_length_c 12.075475
_cell_angle_alpha 90.000000
_cell_angle_beta 90.000000
_cell_angle_gamma 120.000000
_cell_volume 2121.821801
_symmetry_space_group_name_H-M "P 31 1 2"
_symmetry_group_IT_number 151
_symmetry_cell_setting 'hexagonal'
loop_
_space_group_symop_operation_xyz
x,y,z
-y,x-y,1/3+z
-x+y,-x,2/3+z
-y,-x,2/3-z
-x+y,y,1/3-z
x,x-y,-z
loop_
_atom_site_type_symbol
_atom_site_label
_atom_site_fract_x
_atom_site_fract_y
_atom_site_fract_z
Si Si1 0.453239 0.739729 0.365875
Si Si2 0.376235 0.419070 0.370915
Si Si3 0.752614 0.307986 0.209932
Si Si4 0.010011 0.246593 0.149936
Si Si5 0.459405 0.381506 0.592338
Si Si6 0.348424 0.224738 0.787047
Si Si7 0.605487 0.985243 0.311847
O O1 0.327066 0.672935 0.333334
O O2 0.467587 0.733794 0.500000
O O3 0.506874 0.678418 0.304195
O O4 0.517404 0.858764 0.316000
O O5 0.501242 0.498759 0.333334
O O6 0.299846 0.319678 0.290739
O O7 0.388606 0.390082 0.494975
O O8 0.737370 0.262631 0.333334
O O9 0.633315 0.266629 0.166667
O O10 0.817001 0.437318 0.206501
O O11 0.800303 0.246578 0.141783
O O12 0.117463 0.234926 0.166667
O O13 0.003498 0.313590 0.255030
O O14 0.893379 0.136458 0.137213
O O15 0.379400 0.282205 0.668692
O O16 0.529619 0.492814 0.661764
O O17 0.358439 0.316250 0.873779
#
# Coordination Sequence:
#
# PCOD9575666 Si02
#       7
#     6   6   6   6   6   6   6
#     4  11  22  41  68 102 131 171 227 285 355 434
#     4  11  20  39  64  96 134 173 224 282 347 415
#     4  12  21  37  57  92 141 180 221 264 334 424
#     4  12  23  43  70  95 125 184 251 291 332 420
#     4  12  25  38  61  99 142 175 217 284 349 425
#     4  12  25  40  62  99 134 183 230 280 349 416
#     4  12  20  43  67  96 135 177 225 283 357 429
#
# _framework density 19.794311
#
# number of rings (size 3 to 8) (size 9 to 14) (size 15 to 20)
#    0.000    0.286    8.571    1.714    2.000    1.714 
#    0.000    0.714    0.000    3.429    3.714    0.000 
#    0.000    0.000    0.000    0.000    0.000    0.000 
#
# Total GULP energy -234242.398379 kJ/mol
# GULP energy per Si atom -5577.199961 kJ/mol
# Density = 1.974926 g / cm^3
# Si number density = 19.794311 Si / 1000 Ang^3
#
#
#
# Elastic Constant Matrix: (Units=GPa)
#
#
# Indices 1 2 3 4 5 6 
#
# 1 107.8784 50.0567 43.1017 -0.0002 0.4019 0.0000
# 2 50.0567 107.8784 43.1017 0.0002 -0.4019 0.0000
# 3 43.1017 43.1017 83.9856 0.0000 0.0000 0.0000
# 4 -0.0002 0.0002 0.0000 30.2344 0.0000 -0.4019
# 5 0.4019 -0.4019 0.0000 0.0000 30.2344 -0.0002
# 6 0.0000 0.0000 0.0000 -0.4019 -0.0002 28.9109
#
#
#
# Elastic Compliance Matrix: (Units=1/GPa)
#
#
# Indices 1 2 3 4 5 6 
#
# 1 0.013047 -0.004251 -0.004514 0.000000 -0.000230 0.000000
# 2 -0.004251 0.013047 -0.004514 0.000000 0.000230 0.000000
# 3 -0.004514 -0.004514 0.016540 0.000000 0.000000 0.000000
# 4 0.000000 0.000000 0.000000 0.033081 0.000000 0.000460
# 5 -0.000230 0.000230 0.000000 0.000000 0.033081 0.000000
# 6 0.000000 0.000000 0.000000 0.000460 0.000000 0.034595
#
#
# Mechanical properties :
#
#
# Convention : Reuss Voigt Hill
#
# Bulk Modulus (GPa) = 62.20710 63.58472 62.89591
# Shear Modulus (GPa) = 28.52145 28.77476 28.64811
#
# Velocity S-wave (km/s) = 3.80003 3.81686 3.80845
# Velocity P-wave (km/s) = 7.12380 7.18450 7.15422
#
# Compressibility (1/GPa) = 0.01607534
#
# Stress axis : x y z
#
# Youngs Moduli (GPa) = 76.64843 76.64843 60.46003
#
# Poissons Ratio (x) = 0.32584 0.27291
# Poissons Ratio (y) = 0.32584 0.27291
# Poissons Ratio (z) = 0.34598 0.34598
#
# Static dielectric constant tensor:
#      x y z
#    x 1.767420 0.000000 0.000000 
#    y 0.000000 1.767420 0.000000 
#    z 0.000000 0.000000 1.748350 
# 
# From -- ./inp_files/2578.got.cif
#   From: 2010.05.17/outbox.cif.g08.bks.cpg/sg151_2_cif.got.tgz:2578.got - 2010.05.20 10:33:20.
