data_PCOD9575789
_publ_section_title
;
Structure prediction by ZEFSAII (Michael W. Deem and Ramdas Pophale) SiO2 
 PCOD9575789
Probable space group: P 31 2 1
;
_chemical_formula_sum "Si O2"
_cell_formula_units_Z 36
_cell_length_a 12.082189
_cell_length_b 12.082189
_cell_length_c 15.824771
_cell_angle_alpha 90.000000
_cell_angle_beta 90.000000
_cell_angle_gamma 120.000000
_cell_volume 2000.595630
_symmetry_space_group_name_H-M "P 31 2 1"
_symmetry_group_IT_number 152
_symmetry_cell_setting 'hexagonal'
loop_
_space_group_symop_operation_xyz
x,y,z
-y,x-y,1/3+z
-x+y,-x,2/3+z
x-y,-y,2/3-z
-x,-x+y,1/3-z
y,x,-z
loop_
_atom_site_type_symbol
_atom_site_label
_atom_site_fract_x
_atom_site_fract_y
_atom_site_fract_z
Si Si1 0.803541 0.585237 0.789930
Si Si2 0.565200 0.931543 0.484796
Si Si3 0.554152 0.261130 0.463423
Si Si4 0.959692 0.386208 0.929714
Si Si5 0.544374 0.680707 0.040595
Si Si6 0.322483 0.869167 0.879043
O O1 0.748811 0.431949 0.788822
O O2 0.713396 0.624703 0.738727
O O3 0.782372 0.612079 0.886332
O O4 0.953474 0.644013 0.774538
O O5 0.446971 0.876767 0.418266
O O6 0.584687 0.821173 0.522898
O O7 0.520068 0.990496 0.560876
O O8 0.456432 0.150660 0.526568
O O9 0.502329 0.235512 0.368351
O O10 0.591856 0.402523 0.489724
O O11 0.897070 0.350787 0.021475
O O12 0.635367 0.635367 0.000000
O O13 0.361312 0.000000 0.833334
#
# Coordination Sequence:
#
# PCOD9575789 Si02
#       6
#     6   6   6   6   6   6
#     4  10  19  36  61  85 118 153 198 259 288 359
#     4  10  22  38  60  89 122 160 204 252 302 371
#     4  11  20  37  60  86 126 151 199 252 304 366
#     4  10  22  38  60  90 119 161 195 256 310 362
#     4  11  18  34  60  91 114 159 204 244 305 359
#     4  12  27  37  60  91 130 161 199 254 322 365
#
# _framework density 17.994641999999999
#
# number of rings (size 3 to 8) (size 9 to 14) (size 15 to 20)
#    0.000    1.333    8.333    2.000    4.667    0.000 
#    0.000    0.000    0.000    3.000    0.000    0.000 
#    0.000    0.000    0.000    0.000    0.000    0.000 
#
# Total GULP energy -200720.198401 kJ/mol
# GULP energy per Si atom -5575.561067 kJ/mol
# Density = 1.795369 g / cm^3
# Si number density = 17.994642 Si / 1000 Ang^3
#
#
#
# Elastic Constant Matrix: (Units=GPa)
#
#
# Indices 1 2 3 4 5 6 
#
# 1 78.9678 25.9783 7.2619 1.8422 -0.0001 0.0000
# 2 25.9783 78.9678 7.2619 -1.8422 0.0001 0.0000
# 3 7.2619 7.2619 49.8715 0.0000 0.0000 0.0000
# 4 1.8422 -1.8422 0.0000 21.4841 0.0000 0.0001
# 5 -0.0001 0.0001 0.0000 0.0000 21.4841 1.8422
# 6 0.0000 0.0000 0.0000 0.0001 1.8422 26.4947
#
#
#
# Elastic Compliance Matrix: (Units=1/GPa)
#
#
# Indices 1 2 3 4 5 6 
#
# 1 0.014355 -0.004630 -0.001416 -0.001628 0.000000 0.000000
# 2 -0.004630 0.014355 -0.001416 0.001628 0.000000 0.000000
# 3 -0.001416 -0.001416 0.020464 0.000000 0.000000 0.000000
# 4 -0.001628 0.001628 0.000000 0.046825 0.000000 0.000000
# 5 0.000000 0.000000 0.000000 0.000000 0.046825 -0.003256
# 6 0.000000 0.000000 0.000000 0.000000 -0.003256 0.037970
#
#
# Mechanical properties :
#
#
# Convention : Reuss Voigt Hill
#
# Bulk Modulus (GPa) = 29.19781 32.09013 30.64397
# Shear Modulus (GPa) = 24.13893 25.04627 24.59260
#
# Velocity S-wave (km/s) = 3.66656 3.73483 3.70085
# Velocity P-wave (km/s) = 5.84687 6.03908 5.94375
#
# Compressibility (1/GPa) = 0.03424915
#
# Stress axis : x y z
#
# Youngs Moduli (GPa) = 69.66330 69.66330 48.86653
#
# Poissons Ratio (x) = 0.32255 0.06920
# Poissons Ratio (y) = 0.32255 0.06920
# Poissons Ratio (z) = 0.09864 0.09864
#
# Static dielectric constant tensor:
#      x y z
#    x 1.633810 0.000000 0.000000 
#    y 0.000000 1.633810 0.000000 
#    z 0.000000 0.000000 1.649130 
# 
# From -- ./inp_files/2030.got.cif
#   From: 2010.05.17/outbox.cif.g08.bks.cpg/sg152_2_cif.got.tgz:2030.got - 2010.05.20 10:36:06.
