data_PCOD9575776
_publ_section_title
;
Structure prediction by ZEFSAII (Michael W. Deem and Ramdas Pophale) SiO2 
 PCOD9575776
Probable space group: P 31 2 1
;
_chemical_formula_sum "Si O2"
_cell_formula_units_Z 36
_cell_length_a 9.190358
_cell_length_b 9.190358
_cell_length_c 22.571190
_cell_angle_alpha 90.000000
_cell_angle_beta 90.000000
_cell_angle_gamma 120.000000
_cell_volume 1651.010923
_symmetry_space_group_name_H-M "P 31 2 1"
_symmetry_group_IT_number 152
_symmetry_cell_setting 'hexagonal'
loop_
_space_group_symop_operation_xyz
x,y,z
-y,x-y,1/3+z
-x+y,-x,2/3+z
x-y,-y,2/3-z
-x,-x+y,1/3-z
y,x,-z
loop_
_atom_site_type_symbol
_atom_site_label
_atom_site_fract_x
_atom_site_fract_y
_atom_site_fract_z
Si Si1 0.475074 0.744152 0.703458
Si Si2 0.016982 0.355692 0.581871
Si Si3 0.722944 0.165762 0.358658
Si Si4 0.634989 0.950121 0.040717
Si Si5 0.183060 0.687507 0.172641
Si Si6 0.135648 0.538565 0.871308
O O1 0.266806 0.846717 0.587265
O O2 0.411276 0.555166 0.681816
O O3 0.513626 0.757242 0.773035
O O4 0.629673 0.888158 0.666891
O O5 0.091260 0.531902 0.616623
O O6 0.177083 0.358829 0.551373
O O7 0.923114 0.376330 0.524985
O O8 0.878281 0.189956 0.615755
O O9 0.760356 0.309459 0.310060
O O10 0.717782 0.000000 0.333334
O O11 0.611699 0.021934 0.103217
O O12 0.690931 0.323241 0.135542
O O13 0.000000 0.532150 0.166667
#
# Coordination Sequence:
#
# PCOD9575776 Si02
#       6
#     6   6   6   6   6   6
#     4  11  23  38  61  98 128 160 211 270 313 381
#     4  11  20  40  65  90 122 171 214 255 311 390
#     4  10  19  33  62  92 118 160 214 257 311 369
#     4  11  22  38  65  96 128 164 215 264 320 376
#     4  11  24  40  65  92 129 167 213 263 322 372
#     4  10  20  38  64  92 122 167 218 262 305 386
#
# _framework density 21.804821
#
# number of rings (size 3 to 8) (size 9 to 14) (size 15 to 20)
#    0.000    1.333    5.000    1.000    7.000    0.000 
#    0.000    0.833    7.333    0.000    0.000    0.000 
#    0.000    0.000    0.000    0.000    0.000    0.000 
#
# Total GULP energy -201011.068039 kJ/mol
# GULP energy per Si atom -5583.640779 kJ/mol
# Density = 2.175519 g / cm^3
# Si number density = 21.804821 Si / 1000 Ang^3
#
#
#
# Elastic Constant Matrix: (Units=GPa)
#
#
# Indices 1 2 3 4 5 6 
#
# 1 72.2689 9.9360 27.0415 7.5946 -0.0001 0.0000
# 2 9.9360 72.2689 27.0415 -7.5946 0.0001 0.0000
# 3 27.0415 27.0415 71.4661 0.0000 0.0000 0.0000
# 4 7.5946 -7.5946 0.0000 26.7516 0.0000 0.0001
# 5 -0.0001 0.0001 0.0000 0.0000 26.7516 7.5946
# 6 0.0000 0.0000 0.0000 0.0001 7.5946 31.1664
#
#
#
# Elastic Compliance Matrix: (Units=1/GPa)
#
#
# Indices 1 2 3 4 5 6 
#
# 1 0.016716 -0.000519 -0.006129 -0.004893 0.000000 0.000000
# 2 -0.000519 0.016716 -0.006129 0.004893 0.000000 0.000000
# 3 -0.006129 -0.006129 0.018631 0.000000 0.000000 0.000000
# 4 -0.004893 0.004893 0.000000 0.040159 0.000000 0.000000
# 5 0.000000 0.000000 0.000000 0.000000 0.040159 -0.009786
# 6 0.000000 0.000000 0.000000 0.000000 -0.009786 0.034470
#
#
# Mechanical properties :
#
#
# Convention : Reuss Voigt Hill
#
# Bulk Modulus (GPa) = 37.72196 38.22688 37.97442
# Shear Modulus (GPa) = 24.84590 27.06623 25.95607
#
# Velocity S-wave (km/s) = 3.37926 3.52703 3.45393
# Velocity P-wave (km/s) = 5.70642 5.84431 5.77578
#
# Compressibility (1/GPa) = 0.02650976
#
# Stress axis : x y z
#
# Youngs Moduli (GPa) = 59.82302 59.82302 53.67540
#
# Poissons Ratio (x) = 0.03106 0.32895
# Poissons Ratio (y) = 0.03106 0.32895
# Poissons Ratio (z) = 0.36663 0.36663
#
# Static dielectric constant tensor:
#      x y z
#    x 1.817800 0.000000 0.000000 
#    y 0.000000 1.817800 0.000000 
#    z 0.000000 0.000000 1.862730 
# 
# From -- ./inp_files/2752.got.cif
#   From: 2010.05.17/outbox.cif.g08.bks.cpg/sg152_2_cif.got.tgz:2752.got - 2010.05.20 10:36:06.
