data_PCOD9575083
_publ_section_title
;
Structure prediction by ZEFSAII (Michael W. Deem and Ramdas Pophale) SiO2 
 PCOD9575083
Probable space group: R -3
;
_chemical_formula_sum "Si O2"
_cell_formula_units_Z 126
_cell_length_a 25.803329
_cell_length_b 25.803329
_cell_length_c 11.758711
_cell_angle_alpha 90.000000
_cell_angle_beta 90.000000
_cell_angle_gamma 120.000000
_cell_volume 6780.189434
_symmetry_space_group_name_H-M "R -3"
_symmetry_group_IT_number 148
_symmetry_cell_setting 'hexagonal'
loop_
_space_group_symop_operation_xyz
x,y,z
-y,x-y,z
-x+y,-x,z
-x,-y,-z
y,-x+y,-z
x-y,x,-z
2/3+x,1/3+y,1/3+z
2/3-y,1/3+x-y,1/3+z
2/3-x+y,1/3-x,1/3+z
2/3-x,1/3-y,1/3-z
2/3+y,1/3-x+y,1/3-z
2/3+x-y,1/3+x,1/3-z
1/3+x,2/3+y,2/3+z
1/3-y,2/3+x-y,2/3+z
1/3-x+y,2/3-x,2/3+z
1/3-x,2/3-y,2/3-z
1/3+y,2/3-x+y,2/3-z
1/3+x-y,2/3+x,2/3-z
loop_
_atom_site_type_symbol
_atom_site_label
_atom_site_fract_x
_atom_site_fract_y
_atom_site_fract_z
Si Si1 0.890922 0.730932 0.061440
Si Si2 0.067645 0.599663 0.452597
Si Si3 0.890174 0.743932 0.559405
Si Si4 0.801771 0.195329 0.514962
Si Si5 0.995094 0.685541 0.924565
Si Si6 0.424884 0.084698 0.176825
Si Si7 0.203093 0.229378 0.551889
O O1 0.867878 0.660144 0.075271
O O2 0.843099 0.748707 0.104477
O O3 0.947112 0.761629 0.144796
O O4 0.903893 0.744250 0.928391
O O5 0.052366 0.649770 0.493460
O O6 0.112750 0.624478 0.348161
O O7 0.853951 0.676968 0.508941
O O8 0.891947 0.738232 0.695922
O O9 0.847482 0.770619 0.527063
O O10 0.958687 0.777639 0.518965
O O11 0.730736 0.155262 0.504060
O O12 0.930419 0.628682 0.895547
O O13 0.043343 0.663013 0.922156
O O14 0.004469 0.722341 0.040677
#
# Coordination Sequence:
#
# PCOD9575083 Si02
#       7
#    18  18  18  18  18  18  18
#     4  10  20  36  52  81 116 154 201 233 285 349
#     4  10  21  33  54  77 112 157 194 238 280 341
#     4  11  27  38  59  80 121 153 198 257 292 360
#     4  11  22  37  53  89 114 155 201 240 289 351
#     4  11  20  33  52  81 111 161 193 236 284 344
#     4  11  22  32  57  77 119 160 200 238 286 352
#     4  12  24  41  58  84 116 157 203 245 303 351
#
# _framework density 18.583552999999998
#
# number of rings (size 3 to 8) (size 9 to 14) (size 15 to 20)
#    0.000    1.143    7.143    0.000    8.000    1.143 
#    0.000    0.000    0.000    0.286    0.000    0.000 
#    0.000    0.000    0.000    4.429    0.000    0.000 
#
# Total GULP energy -234404.686818 kJ/mol
# GULP energy per Si atom -5581.063972 kJ/mol
# Density = 1.854126 g / cm^3
# Si number density = 18.583553 Si / 1000 Ang^3
#
#
#
# Elastic Constant Matrix: (Units=GPa)
#
#
# Indices 1 2 3 4 5 6 
#
# 1 63.2781 32.8357 -1.0391 -2.3016 2.2903 0.0001
# 2 32.8357 63.2779 -1.0400 2.3020 -2.2900 0.0000
# 3 -1.0391 -1.0400 43.5778 0.0013 0.0015 0.0004
# 4 -2.3016 2.3020 0.0013 18.3749 0.0004 -2.2898
# 5 2.2903 -2.2900 0.0015 0.0004 18.3751 -2.3018
# 6 0.0001 0.0000 0.0004 -2.2898 -2.3018 15.2211
#
#
#
# Elastic Compliance Matrix: (Units=1/GPa)
#
#
# Indices 1 2 3 4 5 6 
#
# 1 0.022273 -0.011863 0.000248 0.004276 -0.004255 0.000000
# 2 -0.011863 0.022273 0.000249 -0.004276 0.004254 0.000000
# 3 0.000248 0.000249 0.022959 -0.000002 -0.000002 -0.000001
# 4 0.004276 -0.004276 -0.000002 0.056553 -0.000001 0.008507
# 5 -0.004255 0.004254 -0.000002 -0.000001 0.056553 0.008552
# 6 0.000000 0.000000 -0.000001 0.008507 0.008552 0.068271
#
#
# Mechanical properties :
#
#
# Convention : Reuss Voigt Hill
#
# Bulk Modulus (GPa) = 22.33536 25.73854 24.03695
# Shear Modulus (GPa) = 17.44958 19.68604 18.56781
#
# Velocity S-wave (km/s) = 3.06760 3.25826 3.16437
# Velocity P-wave (km/s) = 4.95902 5.29483 5.12968
#
# Compressibility (1/GPa) = 0.04477206
#
# Stress axis : x y z
#
# Youngs Moduli (GPa) = 44.89799 44.89780 43.55533
#
# Poissons Ratio (x) = 0.53262 -0.01080
# Poissons Ratio (y) = 0.53263 -0.01083
# Poissons Ratio (z) = -0.01113 -0.01117
#
# Static dielectric constant tensor:
#      x y z
#    x 1.662090 0.000000 0.000000 
#    y 0.000000 1.662090 0.000000 
#    z 0.000000 0.000000 1.722600 
# 
# From -- ./inp_files/1603.got.cif
#   From: 2010.05.17/outbox.cif.g08.bks.cpg/sg148_1_cif.got.tgz:1603.got - 2010.05.20 13:50:20.
