data_PCOD9575031
_publ_section_title
;
Structure prediction by ZEFSAII (Michael W. Deem and Ramdas Pophale) SiO2 
 PCOD9575031
Probable space group: R -3
;
_chemical_formula_sum "Si O2"
_cell_formula_units_Z 108
_cell_length_a 17.334881
_cell_length_b 17.334881
_cell_length_c 27.142190
_cell_angle_alpha 90.000000
_cell_angle_beta 90.000000
_cell_angle_gamma 120.000000
_cell_volume 7063.456051
_symmetry_space_group_name_H-M "R -3"
_symmetry_group_IT_number 148
_symmetry_cell_setting 'hexagonal'
loop_
_space_group_symop_operation_xyz
x,y,z
-y,x-y,z
-x+y,-x,z
-x,-y,-z
y,-x+y,-z
x-y,x,-z
2/3+x,1/3+y,1/3+z
2/3-y,1/3+x-y,1/3+z
2/3-x+y,1/3-x,1/3+z
2/3-x,1/3-y,1/3-z
2/3+y,1/3-x+y,1/3-z
2/3+x-y,1/3+x,1/3-z
1/3+x,2/3+y,2/3+z
1/3-y,2/3+x-y,2/3+z
1/3-x+y,2/3-x,2/3+z
1/3-x,2/3-y,2/3-z
1/3+y,2/3-x+y,2/3-z
1/3+x-y,2/3+x,2/3-z
loop_
_atom_site_type_symbol
_atom_site_label
_atom_site_fract_x
_atom_site_fract_y
_atom_site_fract_z
Si Si1 0.821325 0.820199 0.753499
Si Si2 0.903343 0.274840 0.482248
Si Si3 0.374489 0.278811 0.283316
Si Si4 0.179801 0.178675 0.753499
Si Si5 0.295170 0.058493 0.851086
Si Si6 0.762345 0.054522 0.050017
O O1 0.732386 0.763293 0.721446
O O2 0.905938 0.811876 0.737915
O O3 0.794894 0.780473 0.808822
O O4 0.843287 0.921644 0.752972
O O5 0.915935 0.324518 0.430585
O O6 0.871773 0.318912 0.524511
O O7 0.827845 0.172155 0.478720
O O8 0.000000 0.293760 0.500000
O O9 0.410759 0.333333 0.333333
O O10 0.391247 0.195624 0.281042
O O11 0.236707 0.267614 0.721446
O O12 0.258083 0.008815 0.902749
#
# Coordination Sequence:
#
# PCOD9575031 Si02
#       6
#    18  18  18  18  18  18
#     4   9  17  29  46  67  89 114 146 185 224 259
#     4   9  17  30  48  68  89 115 148 183 218 258
#     4  10  19  30  45  65  90 120 149 177 215 263
#     4   9  17  29  46  67  89 114 146 185 224 259
#     4   9  17  30  48  68  89 115 148 183 218 258
#     4  10  19  30  45  65  90 120 149 177 215 263
#
# _framework density 15.289965
#
# number of rings (size 3 to 8) (size 9 to 14) (size 15 to 20)
#    0.000    2.667    0.000    2.333    0.000    4.667 
#    0.000    0.000    0.000    8.333    0.000    0.000 
#    0.000    0.000    0.000    0.000    0.000    0.000 
#
# Total GULP energy -200600.178365 kJ/mol
# GULP energy per Si atom -5572.227177 kJ/mol
# Density = 1.525516 g / cm^3
# Si number density = 15.289965 Si / 1000 Ang^3
#
#
#
# Elastic Constant Matrix: (Units=GPa)
#
#
# Indices 1 2 3 4 5 6 
#
# 1 101.5448 61.4861 46.4807 -5.4809 0.0000 0.0000
# 2 61.4861 101.5448 46.4807 5.4809 0.0000 0.0000
# 3 46.4807 46.4807 86.7010 0.0000 0.0000 0.0000
# 4 -5.4809 5.4809 0.0000 15.2732 0.0000 0.0000
# 5 0.0000 0.0000 0.0000 0.0000 15.2732 -5.4809
# 6 0.0000 0.0000 0.0000 0.0000 -5.4809 20.0294
#
#
#
# Elastic Compliance Matrix: (Units=1/GPa)
#
#
# Indices 1 2 3 4 5 6 
#
# 1 0.018258 -0.009424 -0.004736 0.009934 0.000000 0.000000
# 2 -0.009424 0.018258 -0.004736 -0.009934 0.000000 0.000000
# 3 -0.004736 -0.004736 0.016612 0.000000 0.000000 0.000000
# 4 0.009934 -0.009934 0.000000 0.072604 0.000000 0.000000
# 5 0.000000 0.000000 0.000000 0.000000 0.072604 0.019867
# 6 0.000000 0.000000 0.000000 0.000000 0.019867 0.055363
#
#
# Mechanical properties :
#
#
# Convention : Reuss Voigt Hill
#
# Bulk Modulus (GPa) = 65.20515 66.52064 65.86289
# Shear Modulus (GPa) = 16.85757 19.13802 17.99780
#
# Velocity S-wave (km/s) = 3.32403 3.54174 3.43461
# Velocity P-wave (km/s) = 7.58093 7.76696 7.67451
#
# Compressibility (1/GPa) = 0.01533621
#
# Stress axis : x y z
#
# Youngs Moduli (GPa) = 54.77048 54.77048 60.19732
#
# Poissons Ratio (x) = 0.51614 0.28510
# Poissons Ratio (y) = 0.51614 0.28510
# Poissons Ratio (z) = 0.25940 0.25940
#
# Static dielectric constant tensor:
#      x y z
#    x 1.496930 0.000000 0.000000 
#    y 0.000000 1.496930 0.000000 
#    z 0.000000 0.000000 1.486660 
# 
# From -- ./inp_files/3387.got.cif
#   From: 2010.05.17/outbox.cif.g08.bks.cpg/sg148_2_cif.got.tgz:3387.got - 2010.05.20 13:50:20.
