data_PCOD9575440
_publ_section_title
;
Structure prediction by ZEFSAII (Michael W. Deem and Ramdas Pophale) SiO2 
 PCOD9575440
Probable space group: P 3 2 1
;
_chemical_formula_sum "Si O2"
_cell_formula_units_Z 30
_cell_length_a 8.628132
_cell_length_b 8.628132
_cell_length_c 24.516794
_cell_angle_alpha 90.000000
_cell_angle_beta 90.000000
_cell_angle_gamma 120.000000
_cell_volume 1580.621449
_symmetry_space_group_name_H-M "P 3 2 1"
_symmetry_group_IT_number 150
_symmetry_cell_setting 'hexagonal'
loop_
_space_group_symop_operation_xyz
x,y,z
-y,x-y,z
-x+y,-x,z
x-y,-y,-z
-x,-x+y,-z
y,x,-z
loop_
_atom_site_type_symbol
_atom_site_label
_atom_site_fract_x
_atom_site_fract_y
_atom_site_fract_z
Si Si1 0.340806 0.339912 0.564828
Si Si2 0.998659 0.327518 0.389604
Si Si3 0.203319 0.998708 0.730551
Si Si4 0.134154 0.457691 0.829559
Si Si5 0.133245 0.458829 0.953106
O O1 0.387414 0.192515 0.585842
O O2 0.359542 0.359542 0.500000
O O3 0.472388 0.526572 0.593683
O O4 0.998145 0.298627 0.325090
O O5 0.279973 0.140398 0.416959
O O6 0.167868 0.165860 0.730659
O O7 0.302781 0.982223 0.783181
O O8 0.342161 0.505019 0.824091
O O9 0.072624 0.394713 0.891350
O O10 0.338483 0.503316 0.958039
O O11 0.000000 0.339085 0.000000
#
# Coordination Sequence:
#
# PCOD9575440 Si02
#       5
#     6   6   6   6   6
#     4  12  24  42  64  90 122 156 203 252 310 373
#     4  12  25  43  64  93 121 162 201 254 310 371
#     4  10  21  40  58  89 119 152 197 251 300 351
#     4   8  18  35  60  82 113 160 202 235 295 360
#     4   8  16  34  54  83 116 156 194 243 291 350
#
# _framework density 18.979876999999998
#
# number of rings (size 3 to 8) (size 9 to 14) (size 15 to 20)
#    1.200    0.800    2.000    3.000    2.800    0.000 
#    7.200    0.000    0.000    1.200    0.000    0.000 
#    0.000    0.000    0.000    0.000    0.000    0.000 
#
# Total GULP energy -167137.178805 kJ/mol
# GULP energy per Si atom -5571.239294 kJ/mol
# Density = 1.893668 g / cm^3
# Si number density = 18.979877 Si / 1000 Ang^3
#
#
#
# Elastic Constant Matrix: (Units=GPa)
#
#
# Indices 1 2 3 4 5 6 
#
# 1 14.4359 29.6025 44.0942 28.4738 0.0000 0.0000
# 2 29.6025 14.4359 44.0942 -28.4738 0.0000 0.0000
# 3 44.0942 44.0942 202.0756 0.0000 0.0000 0.0000
# 4 28.4738 -28.4738 0.0000 -15.6958 0.0000 0.0000
# 5 0.0000 0.0000 0.0000 0.0000 -15.6958 28.4738
# 6 0.0000 0.0000 0.0000 0.0000 28.4738 -7.5833
#
#
#
# Elastic Compliance Matrix: (Units=1/GPa)
#
#
# Indices 1 2 3 4 5 6 
#
# 1 0.025838 0.014493 -0.008800 0.020582 0.000000 0.000000
# 2 0.014493 0.025838 -0.008800 -0.020582 0.000000 0.000000
# 3 -0.008800 -0.008800 0.008789 0.000000 0.000000 0.000000
# 4 0.020582 -0.020582 0.000000 0.010963 0.000000 0.000000
# 5 0.000000 0.000000 0.000000 0.000000 0.010963 0.041163
# 6 0.000000 0.000000 0.000000 0.000000 0.041163 0.022691
#
#
# Mechanical properties :
#
#
# Convention : Reuss Voigt Hill
#
# Bulk Modulus (GPa) = 18.43358 51.83659 35.13508
# Shear Modulus (GPa) = 38.64569 -0.25122 19.19723
#
# Velocity S-wave (km/s) = 4.51726 -0.36421 3.18378
# Velocity P-wave (km/s) = 6.07789 5.21476 5.66279
#
# Compressibility (1/GPa) = 0.05424883
#
# Stress axis : x y z
#
# Youngs Moduli (GPa) = 38.70278 38.70278 113.77524
#
# Poissons Ratio (x) = -0.56091 1.00127
# Poissons Ratio (y) = -0.56091 1.00127
# Poissons Ratio (z) = 0.34060 0.34060
#
# Static dielectric constant tensor:
#      x y z
#    x 1.658770 0.000000 0.000000 
#    y 0.000000 1.658770 0.000000 
#    z 0.000000 0.000000 1.626270 
# 
# From -- ./inp_files/1160.got.cif
#   From: 2010.05.17/outbox.cif.g08.bks.cpg/sg150_cif.got.tgz:1160.got - 2010.05.20 13:53:18.
