data_PCOD9575097
_publ_section_title
;
Structure prediction by ZEFSAII (Michael W. Deem and Ramdas Pophale) SiO2 
 PCOD9575097
Probable space group: R -3
;
_chemical_formula_sum "Si O2"
_cell_formula_units_Z 126
_cell_length_a 19.021112
_cell_length_b 19.021112
_cell_length_c 18.978000
_cell_angle_alpha 90.000000
_cell_angle_beta 90.000000
_cell_angle_gamma 120.000000
_cell_volume 5946.383019
_symmetry_space_group_name_H-M "R -3"
_symmetry_group_IT_number 148
_symmetry_cell_setting 'hexagonal'
loop_
_space_group_symop_operation_xyz
x,y,z
-y,x-y,z
-x+y,-x,z
-x,-y,-z
y,-x+y,-z
x-y,x,-z
2/3+x,1/3+y,1/3+z
2/3-y,1/3+x-y,1/3+z
2/3-x+y,1/3-x,1/3+z
2/3-x,1/3-y,1/3-z
2/3+y,1/3-x+y,1/3-z
2/3+x-y,1/3+x,1/3-z
1/3+x,2/3+y,2/3+z
1/3-y,2/3+x-y,2/3+z
1/3-x+y,2/3-x,2/3+z
1/3-x,2/3-y,2/3-z
1/3+y,2/3-x+y,2/3-z
1/3+x-y,2/3+x,2/3-z
loop_
_atom_site_type_symbol
_atom_site_label
_atom_site_fract_x
_atom_site_fract_y
_atom_site_fract_z
Si Si1 0.636185 0.896989 0.334858
Si Si2 0.212314 0.959830 0.180891
Si Si3 0.455708 0.401183 0.661777
Si Si4 0.658212 0.115158 0.351338
Si Si5 0.116435 0.736489 0.837616
Si Si6 0.416835 0.459626 0.260261
Si Si7 0.902079 0.912413 0.095587
O O1 0.666667 0.833334 0.333334
O O2 0.579594 0.874814 0.402699
O O3 0.586622 0.905555 0.269089
O O4 0.717113 0.981668 0.353128
O O5 0.208258 0.880421 0.145331
O O6 0.144825 0.979179 0.151260
O O7 0.304011 0.025694 0.159194
O O8 0.411396 0.455847 0.666123
O O9 0.471811 0.385218 0.581336
O O10 0.535406 0.449600 0.708909
O O11 0.653519 0.185873 0.308262
O O12 0.639207 0.099088 0.434732
O O13 0.594417 0.030928 0.314331
O O14 0.166667 0.833334 0.833334
O O15 0.922425 0.930670 0.898473
#
# Coordination Sequence:
#
# PCOD9575097 Si02
#       7
#    18  18  18  18  18  18  18
#     4  11  24  43  66  96 131 173 234 301 348 416
#     4  11  21  44  65  96 132 178 232 276 343 425
#     4  11  21  41  66  95 132 174 226 293 350 411
#     4  10  20  38  62  94 131 183 228 278 322 415
#     4  12  20  37  66  90 128 177 225 273 337 410
#     4  10  21  40  65  91 129 172 224 276 351 411
#     4   9  21  44  63  98 148 193 230 274 344 429
#
# _framework density 21.189350999999998
#
# number of rings (size 3 to 8) (size 9 to 14) (size 15 to 20)
#    0.286    1.143    8.571    0.000    0.000    2.286 
#   23.143    0.000    3.143    8.286    0.000    0.000 
#    0.000    2.286    0.000    0.000    0.000    0.000 
#
# Total GULP energy -234025.427276 kJ/mol
# GULP energy per Si atom -5572.033983 kJ/mol
# Density = 2.114112 g / cm^3
# Si number density = 21.189351 Si / 1000 Ang^3
#
#
#
# Elastic Constant Matrix: (Units=GPa)
#
#
# Indices 1 2 3 4 5 6 
#
# 1 83.9866 26.7375 12.8571 1.9311 -0.4970 0.0000
# 2 26.7375 83.9866 12.8571 -1.9311 0.4970 0.0000
# 3 12.8571 12.8571 84.5969 0.0000 0.0000 0.0000
# 4 1.9311 -1.9311 0.0000 25.1775 0.0000 0.4970
# 5 -0.4970 0.4970 0.0000 0.0000 25.1775 1.9311
# 6 0.0000 0.0000 0.0000 0.4970 1.9311 28.6245
#
#
#
# Elastic Compliance Matrix: (Units=1/GPa)
#
#
# Indices 1 2 3 4 5 6 
#
# 1 0.013463 -0.004101 -0.001423 -0.001347 0.000347 0.000000
# 2 -0.004101 0.013463 -0.001423 0.001347 -0.000347 0.000000
# 3 -0.001423 -0.001423 0.012253 0.000000 0.000000 0.000000
# 4 -0.001347 0.001347 0.000000 0.039938 0.000000 -0.000693
# 5 0.000347 -0.000347 0.000000 0.000000 0.039938 -0.002694
# 6 0.000000 0.000000 0.000000 -0.000693 -0.002694 0.035129
#
#
# Mechanical properties :
#
#
# Convention : Reuss Voigt Hill
#
# Bulk Modulus (GPa) = 39.54799 39.71926 39.63362
# Shear Modulus (GPa) = 28.32742 29.13715 28.73229
#
# Velocity S-wave (km/s) = 3.66029 3.71224 3.68635
# Velocity P-wave (km/s) = 6.04717 6.09589 6.07158
#
# Compressibility (1/GPa) = 0.02528574
#
# Stress axis : x y z
#
# Youngs Moduli (GPa) = 74.27677 74.27677 81.61099
#
# Poissons Ratio (x) = 0.30463 0.11612
# Poissons Ratio (y) = 0.30463 0.11612
# Poissons Ratio (z) = 0.10568 0.10568
#
# Static dielectric constant tensor:
#      x y z
#    x 1.857940 0.000000 0.000000 
#    y 0.000000 1.857940 0.000000 
#    z 0.000000 0.000000 1.831830 
# 
# From -- ./inp_files/2755.got.cif
#   From: 2010.05.17/outbox.cif.g08.bks.cpg/sg148_2_cif.got.tgz:2755.got - 2010.05.20 13:50:20.
