data_PCOD9575238
_publ_section_title
;
Structure prediction by ZEFSAII (Michael W. Deem and Ramdas Pophale) SiO2 
 PCOD9575238
Probable space group: R -3
;
_chemical_formula_sum "Si O2"
_cell_formula_units_Z 72
_cell_length_a 12.698571
_cell_length_b 12.698571
_cell_length_c 18.435436
_cell_angle_alpha 90.000000
_cell_angle_beta 90.000000
_cell_angle_gamma 120.000000
_cell_volume 2574.505049
_symmetry_space_group_name_H-M "R -3"
_symmetry_group_IT_number 148
_symmetry_cell_setting 'hexagonal'
loop_
_space_group_symop_operation_xyz
x,y,z
-y,x-y,z
-x+y,-x,z
-x,-y,-z
y,-x+y,-z
x-y,x,-z
2/3+x,1/3+y,1/3+z
2/3-y,1/3+x-y,1/3+z
2/3-x+y,1/3-x,1/3+z
2/3-x,1/3-y,1/3-z
2/3+y,1/3-x+y,1/3-z
2/3+x-y,1/3+x,1/3-z
1/3+x,2/3+y,2/3+z
1/3-y,2/3+x-y,2/3+z
1/3-x+y,2/3-x,2/3+z
1/3-x,2/3-y,2/3-z
1/3+y,2/3-x+y,2/3-z
1/3+x-y,2/3+x,2/3-z
loop_
_atom_site_type_symbol
_atom_site_label
_atom_site_fract_x
_atom_site_fract_y
_atom_site_fract_z
Si Si1 0.653195 0.097464 0.744433
Si Si2 0.539214 0.189989 0.123444
Si Si3 0.980883 0.744704 0.585607
Si Si4 0.972238 0.787541 0.043938
O O1 0.663411 0.097357 0.831137
O O2 0.517467 0.068134 0.724649
O O3 0.764766 0.225228 0.721587
O O4 0.664317 0.984134 0.714956
O O5 0.679883 0.227327 0.110092
O O6 0.512102 0.164610 0.209575
O O7 0.435693 0.071133 0.082641
O O8 0.856477 0.797823 0.024493
#
# Coordination Sequence:
#
# PCOD9575238 Si02
#       4
#    18  18  18  18
#     4   9  19  32  55  79 100 141 176 226 259 304
#     4   9  17  31  54  79 111 142 165 216 274 327
#     4   9  17  35  52  81 109 132 181 218 275 312
#     4  11  18  33  51  76 106 136 183 212 254 314
#
# _framework density 27.966539000000001
#
# number of rings (size 3 to 8) (size 9 to 14) (size 15 to 20)
#    0.500    2.000    2.500    0.750    0.000    2.000 
#    4.500    6.250    0.000    0.000    6.500    0.000 
#    0.000    0.000    0.000    0.000    0.000    0.000 
#
# Total GULP energy -133979.307256 kJ/mol
# GULP energy per Si atom -5582.471136 kJ/mol
# Density = 2.790289 g / cm^3
# Si number density = 27.966539 Si / 1000 Ang^3
#
#
#
# Elastic Constant Matrix: (Units=GPa)
#
#
# Indices 1 2 3 4 5 6 
#
# 1 96.9510 60.7882 13.1437 30.8600 26.5149 0.0000
# 2 60.7882 96.9510 13.1437 -30.8600 -26.5149 0.0000
# 3 13.1437 13.1437 81.2605 0.0000 0.0000 0.0000
# 4 30.8600 -30.8600 0.0000 20.1016 0.0000 -26.5149
# 5 26.5149 -26.5149 0.0000 0.0000 20.1016 30.8600
# 6 0.0000 0.0000 0.0000 -26.5149 30.8600 18.0814
#
#
#
# Elastic Compliance Matrix: (Units=1/GPa)
#
#
# Indices 1 2 3 4 5 6 
#
# 1 -0.000632 0.007147 -0.001054 0.011944 0.010262 0.000000
# 2 0.007147 -0.000632 -0.001054 -0.011944 -0.010262 0.000000
# 3 -0.001054 -0.001054 0.012647 0.000000 0.000000 0.000000
# 4 0.011944 -0.011944 0.000000 -0.013996 0.000000 -0.020524
# 5 0.010262 -0.010262 0.000000 0.000000 -0.013996 0.023887
# 6 0.000000 0.000000 0.000000 -0.020524 0.023887 -0.015560
#
#
# Mechanical properties :
#
#
# Convention : Reuss Voigt Hill
#
# Bulk Modulus (GPa) = 46.59373 49.92377 48.25875
# Shear Modulus (GPa) = -142.47277 24.19605 -59.13836
#
# Velocity S-wave (km/s) = -7.14525 2.94458 -4.60348
# Velocity P-wave (km/s) = 7.16771 5.42686 3.31099
#
# Compressibility (1/GPa) = 0.02146212
#
# Stress axis : x y z
#
# Youngs Moduli (GPa) = -1581.54364 -1581.54363 79.07012
#
# Poissons Ratio (x) = 11.30407 0.08333
# Poissons Ratio (y) = 11.30407 0.08333
# Poissons Ratio (z) = -1.66666 -1.66666
#
# Static dielectric constant tensor:
#      x y z
#    x 2.236490 0.000000 0.000000 
#    y 0.000000 2.236490 0.000000 
#    z 0.000000 0.000000 2.336250 
# 
# From -- ./inp_files/2537.got.cif
#   From: 2010.05.17/outbox.cif.g08.bks.cpg/sg148_2_cif.got.tgz:2537.got - 2010.05.20 13:50:20.
