data_PCOD9575039
_publ_section_title
;
Structure prediction by ZEFSAII (Michael W. Deem and Ramdas Pophale) SiO2 
 PCOD9575039
Probable space group: R -3
;
_chemical_formula_sum "Si O2"
_cell_formula_units_Z 108
_cell_length_a 22.263600
_cell_length_b 22.263600
_cell_length_c 13.956700
_cell_angle_alpha 90.000000
_cell_angle_beta 90.000000
_cell_angle_gamma 120.000000
_cell_volume 5991.066723
_symmetry_space_group_name_H-M "R -3"
_symmetry_group_IT_number 148
_symmetry_cell_setting 'hexagonal'
loop_
_space_group_symop_operation_xyz
x,y,z
-y,x-y,z
-x+y,-x,z
-x,-y,-z
y,-x+y,-z
x-y,x,-z
2/3+x,1/3+y,1/3+z
2/3-y,1/3+x-y,1/3+z
2/3-x+y,1/3-x,1/3+z
2/3-x,1/3-y,1/3-z
2/3+y,1/3-x+y,1/3-z
2/3+x-y,1/3+x,1/3-z
1/3+x,2/3+y,2/3+z
1/3-y,2/3+x-y,2/3+z
1/3-x+y,2/3-x,2/3+z
1/3-x,2/3-y,2/3-z
1/3+y,2/3-x+y,2/3-z
1/3+x-y,2/3+x,2/3-z
loop_
_atom_site_type_symbol
_atom_site_label
_atom_site_fract_x
_atom_site_fract_y
_atom_site_fract_z
Si Si1 0.905571 0.387743 0.268767
Si Si2 0.333844 0.008455 0.371294
Si Si3 0.136035 0.907897 0.893349
Si Si4 0.855761 0.614406 0.065437
Si Si5 0.268535 0.027670 0.552066
Si Si6 0.835941 0.122246 0.464437
O O1 0.840020 0.323690 0.219384
O O2 0.885000 0.432038 0.338165
O O3 0.940771 0.353642 0.336855
O O4 0.967121 0.440206 0.199050
O O5 0.314977 0.934571 0.327597
O O6 0.280627 0.027564 0.318762
O O7 0.323477 0.020056 0.481940
O O8 0.199022 0.890900 0.890226
O O9 0.084929 0.859116 0.810438
O O10 0.807627 0.611763 0.978110
O O11 0.272895 0.099980 0.530511
O O12 0.196929 0.959599 0.522627
#
# Coordination Sequence:
#
# PCOD9575039 Si02
#       6
#    18  18  18  18  18  18
#     4   9  17  27  44  69  93 122 158 191 233 286
#     4   9  17  29  47  69  96 124 154 194 237 282
#     4   9  15  26  43  63  90 120 156 193 226 271
#     4   8  15  27  43  63  89 124 155 184 225 278
#     4  10  19  32  48  70  98 124 156 197 240 283
#     4   9  19  31  45  67  94 124 159 193 235 286
#
# _framework density 18.02684
#
# number of rings (size 3 to 8) (size 9 to 14) (size 15 to 20)
#    0.000    3.000    0.000    2.000    0.000    8.667 
#    0.000    0.000    0.000    0.667    0.000    0.000 
#    0.000    0.000    0.000    0.000    0.000    0.000 
#
# Total GULP energy -200412.832612 kJ/mol
# GULP energy per Si atom -5567.023128 kJ/mol
# Density = 1.798581 g / cm^3
# Si number density = 18.026840 Si / 1000 Ang^3
#
#
#
# Elastic Constant Matrix: (Units=GPa)
#
#
# Indices 1 2 3 4 5 6 
#
# 1 72.4184 30.0176 6.8457 3.1873 -1.4045 0.0000
# 2 30.0176 72.4184 6.8457 -3.1873 1.4045 0.0000
# 3 6.8457 6.8457 31.1404 0.0000 0.0000 0.0000
# 4 3.1873 -3.1873 0.0000 19.6426 0.0000 1.4045
# 5 -1.4045 1.4045 0.0000 0.0000 19.6426 3.1873
# 6 0.0000 0.0000 0.0000 1.4045 3.1873 21.2004
#
#
#
# Elastic Compliance Matrix: (Units=1/GPa)
#
#
# Indices 1 2 3 4 5 6 
#
# 1 0.017175 -0.007117 -0.002211 -0.003942 0.001737 0.000000
# 2 -0.007117 0.017175 -0.002211 0.003942 -0.001737 0.000000
# 3 -0.002211 -0.002211 0.033085 0.000000 0.000000 0.000000
# 4 -0.003942 0.003942 0.000000 0.052437 0.000000 -0.003474
# 5 0.001737 -0.001737 0.000000 0.000000 0.052437 -0.007883
# 6 0.000000 0.000000 0.000000 -0.003474 -0.007883 0.048584
#
#
# Mechanical properties :
#
#
# Convention : Reuss Voigt Hill
#
# Bulk Modulus (GPa) = 22.54483 29.26612 25.90548
# Shear Modulus (GPa) = 19.32310 20.91499 20.11904
#
# Velocity S-wave (km/s) = 3.27755 3.40989 3.34437
# Velocity P-wave (km/s) = 5.18233 5.63676 5.41432
#
# Compressibility (1/GPa) = 0.04435606
#
# Stress axis : x y z
#
# Youngs Moduli (GPa) = 58.22436 58.22436 30.22546
#
# Poissons Ratio (x) = 0.41440 0.06683
# Poissons Ratio (y) = 0.41440 0.06683
# Poissons Ratio (z) = 0.12873 0.12873
#
# Static dielectric constant tensor:
#      x y z
#    x 1.637590 0.000000 0.000000 
#    y 0.000000 1.637590 0.000000 
#    z 0.000000 0.000000 1.690970 
# 
# From -- ./inp_files/2053.got.cif
#   From: 2010.05.17/outbox.cif.g08.bks.cpg/sg148_2_cif.got.tgz:2053.got - 2010.05.20 13:50:20.
