data_PCOD9575214
_publ_section_title
;
Structure prediction by ZEFSAII (Michael W. Deem and Ramdas Pophale) SiO2 
 PCOD9575214
Probable space group: R -3
;
_chemical_formula_sum "Si O2"
_cell_formula_units_Z 54
_cell_length_a 9.923679
_cell_length_b 9.923679
_cell_length_c 23.819399
_cell_angle_alpha 90.000000
_cell_angle_beta 90.000000
_cell_angle_gamma 120.000000
_cell_volume 2031.453317
_symmetry_space_group_name_H-M "R -3"
_symmetry_group_IT_number 148
_symmetry_cell_setting 'hexagonal'
loop_
_space_group_symop_operation_xyz
x,y,z
-y,x-y,z
-x+y,-x,z
-x,-y,-z
y,-x+y,-z
x-y,x,-z
2/3+x,1/3+y,1/3+z
2/3-y,1/3+x-y,1/3+z
2/3-x+y,1/3-x,1/3+z
2/3-x,1/3-y,1/3-z
2/3+y,1/3-x+y,1/3-z
2/3+x-y,1/3+x,1/3-z
1/3+x,2/3+y,2/3+z
1/3-y,2/3+x-y,2/3+z
1/3-x+y,2/3-x,2/3+z
1/3-x,2/3-y,2/3-z
1/3+y,2/3-x+y,2/3-z
1/3+x-y,2/3+x,2/3-z
loop_
_atom_site_type_symbol
_atom_site_label
_atom_site_fract_x
_atom_site_fract_y
_atom_site_fract_z
Si Si1 0.596940 0.666570 0.130932
Si Si2 0.530441 0.142356 0.672875
Si Si3 0.893838 0.791681 0.078648
O O1 0.461425 0.504850 0.155645
O O2 0.539734 0.702868 0.072404
O O3 0.756360 0.666556 0.117937
O O4 0.713859 0.217535 0.657635
O O5 0.443179 0.982422 0.639378
O O6 0.839473 0.923176 0.082474
#
# Coordination Sequence:
#
# PCOD9575214 Si02
#       3
#    18  18  18
#     4  12  24  47  79 115 161 208 266 338 404 469
#     4  10  23  47  82 117 152 206 278 328 389 482
#     4  10  28  50  76 114 165 211 258 326 410 479
#
# _framework density 26.581956999999999
#
# number of rings (size 3 to 8) (size 9 to 14) (size 15 to 20)
#    1.333    0.000    3.333    0.333    4.667    6.667 
#    0.000    0.000    0.000    1.333    0.000    0.000 
#    0.000    0.000    0.000    0.000    0.000    0.000 
#
# Total GULP energy -100237.969061 kJ/mol
# GULP energy per Si atom -5568.776059 kJ/mol
# Density = 2.652145 g / cm^3
# Si number density = 26.581957 Si / 1000 Ang^3
#
#
#
# Elastic Constant Matrix: (Units=GPa)
#
#
# Indices 1 2 3 4 5 6 
#
# 1 50.8718 6.6472 11.9593 -16.8414 3.2581 0.0000
# 2 6.6472 50.8718 11.9593 16.8414 -3.2581 0.0000
# 3 11.9593 11.9593 55.0271 0.0000 0.0000 0.0000
# 4 -16.8414 16.8414 0.0000 31.2545 0.0000 -3.2581
# 5 3.2581 -3.2581 0.0000 0.0000 31.2545 -16.8414
# 6 0.0000 0.0000 0.0000 -3.2581 -16.8414 22.1123
#
#
#
# Elastic Compliance Matrix: (Units=1/GPa)
#
#
# Indices 1 2 3 4 5 6 
#
# 1 0.029245 -0.010132 -0.004154 0.021218 -0.004105 0.000000
# 2 -0.010132 0.029245 -0.004154 -0.021218 0.004105 0.000000
# 3 -0.004154 -0.004154 0.019978 0.000000 0.000000 0.000000
# 4 0.021218 -0.021218 0.000000 0.055718 0.000000 0.008210
# 5 -0.004105 0.004105 0.000000 0.000000 0.055718 0.042436
# 6 0.000000 0.000000 0.000000 0.008210 0.042436 0.078754
#
#
# Mechanical properties :
#
#
# Convention : Reuss Voigt Hill
#
# Bulk Modulus (GPa) = 24.04500 24.21136 24.12818
# Shear Modulus (GPa) = 15.65430 25.33790 20.49610
#
# Velocity S-wave (km/s) = 2.42937 3.09074 2.77980
# Velocity P-wave (km/s) = 4.11514 4.67599 4.40450
#
# Compressibility (1/GPa) = 0.04158868
#
# Stress axis : x y z
#
# Youngs Moduli (GPa) = 34.19387 34.19387 50.05392
#
# Poissons Ratio (x) = 0.34645 0.20792
# Poissons Ratio (y) = 0.34645 0.20792
# Poissons Ratio (z) = 0.14204 0.14204
#
# Static dielectric constant tensor:
#      x y z
#    x 2.136560 0.000000 0.000000 
#    y 0.000000 2.136560 0.000000 
#    z 0.000000 0.000000 2.124210 
# 
# From -- ./inp_files/2934.got.cif
#   From: 2010.05.17/outbox.cif.g08.bks.cpg/sg148_2_cif.got.tgz:2934.got - 2010.05.20 13:50:20.
