data_PCOD9575208
_publ_section_title
;
Structure prediction by ZEFSAII (Michael W. Deem and Ramdas Pophale) SiO2 
 PCOD9575208
Probable space group: R -3
;
_chemical_formula_sum "Si O2"
_cell_formula_units_Z 126
_cell_length_a 21.885813
_cell_length_b 21.885813
_cell_length_c 16.079962
_cell_angle_alpha 90.000000
_cell_angle_beta 90.000000
_cell_angle_gamma 120.000000
_cell_volume 6670.233206
_symmetry_space_group_name_H-M "R -3"
_symmetry_group_IT_number 148
_symmetry_cell_setting 'hexagonal'
loop_
_space_group_symop_operation_xyz
x,y,z
-y,x-y,z
-x+y,-x,z
-x,-y,-z
y,-x+y,-z
x-y,x,-z
2/3+x,1/3+y,1/3+z
2/3-y,1/3+x-y,1/3+z
2/3-x+y,1/3-x,1/3+z
2/3-x,1/3-y,1/3-z
2/3+y,1/3-x+y,1/3-z
2/3+x-y,1/3+x,1/3-z
1/3+x,2/3+y,2/3+z
1/3-y,2/3+x-y,2/3+z
1/3-x+y,2/3-x,2/3+z
1/3-x,2/3-y,2/3-z
1/3+y,2/3-x+y,2/3-z
1/3+x-y,2/3+x,2/3-z
loop_
_atom_site_type_symbol
_atom_site_label
_atom_site_fract_x
_atom_site_fract_y
_atom_site_fract_z
Si Si1 0.153807 0.135342 0.999005
Si Si2 0.429761 0.116161 0.990874
Si Si3 0.032489 0.365822 0.916667
Si Si4 0.864658 0.846193 0.499005
Si Si5 0.399404 0.157185 0.472518
Si Si6 0.600596 0.757780 0.027482
Si Si7 0.217172 0.236906 0.157540
O O1 0.195809 0.182763 0.079477
O O2 0.082490 0.138438 0.989741
O O3 0.199508 0.162545 0.914496
O O4 0.483904 0.137525 0.912810
O O5 0.400207 0.170095 0.985102
O O6 0.371283 0.033794 0.979837
O O7 0.461399 0.128065 0.083333
O O8 0.050410 0.442675 0.885916
O O9 0.004156 0.299540 0.853496
O O10 0.109342 0.383744 0.947417
O O11 0.861562 0.917510 0.489741
O O12 0.837455 0.800492 0.414496
O O13 0.333333 0.108547 0.416666
O O14 0.400207 0.230113 0.485101
#
# Coordination Sequence:
#
# PCOD9575208 Si02
#       7
#    18  18  18  18  18  18  18
#     4  10  23  44  67  91 126 170 214 263 317 380
#     4  11  25  40  63  95 129 163 215 263 315 378
#     4  12  24  40  66  88 132 172 202 266 316 370
#     4  10  23  44  67  91 126 170 214 263 317 380
#     4  11  23  42  64  93 126 168 215 254 320 384
#     4  11  23  42  64  93 126 168 215 254 320 384
#     4  11  25  40  63  95 129 163 215 263 315 378
#
# _framework density 18.889896
#
# number of rings (size 3 to 8) (size 9 to 14) (size 15 to 20)
#    0.000    1.143    4.286    1.143    4.000    1.143 
#    0.000    0.000    0.000    0.000    0.000    0.000 
#    0.000    0.000    0.000    0.000    0.000    0.000 
#
# Total GULP energy -234152.250494 kJ/mol
# GULP energy per Si atom -5575.053583 kJ/mol
# Density = 1.884690 g / cm^3
# Si number density = 18.889896 Si / 1000 Ang^3
#
#
#
# Elastic Constant Matrix: (Units=GPa)
#
#
# Indices 1 2 3 4 5 6 
#
# 1 93.3261 35.0174 14.3685 -0.0152 0.0003 0.0000
# 2 35.0174 93.3261 14.3685 0.0152 -0.0003 0.0000
# 3 14.3685 14.3685 50.1695 0.0000 0.0000 0.0000
# 4 -0.0152 0.0152 0.0000 32.5541 0.0000 -0.0003
# 5 0.0003 -0.0003 0.0000 0.0000 32.5541 -0.0152
# 6 0.0000 0.0000 0.0000 -0.0003 -0.0152 29.1544
#
#
#
# Elastic Compliance Matrix: (Units=1/GPa)
#
#
# Indices 1 2 3 4 5 6 
#
# 1 0.012738 -0.004412 -0.002384 0.000008 0.000000 0.000000
# 2 -0.004412 0.012738 -0.002384 -0.000008 0.000000 0.000000
# 3 -0.002384 -0.002384 0.021298 0.000000 0.000000 0.000000
# 4 0.000008 -0.000008 0.000000 0.030718 0.000000 0.000000
# 5 0.000000 0.000000 0.000000 0.000000 0.030718 0.000016
# 6 0.000000 0.000000 0.000000 0.000000 0.000016 0.034300
#
#
# Mechanical properties :
#
#
# Convention : Reuss Voigt Hill
#
# Bulk Modulus (GPa) = 35.19697 40.48117 37.83907
# Shear Modulus (GPa) = 29.35253 30.39031 29.87142
#
# Velocity S-wave (km/s) = 3.94620 4.01535 3.98093
# Velocity P-wave (km/s) = 6.27984 6.55546 6.41913
#
# Compressibility (1/GPa) = 0.02841153
#
# Stress axis : x y z
#
# Youngs Moduli (GPa) = 78.50658 78.50658 46.95223
#
# Poissons Ratio (x) = 0.34639 0.11195
# Poissons Ratio (y) = 0.34639 0.11195
# Poissons Ratio (z) = 0.18719 0.18719
#
# Static dielectric constant tensor:
#      x y z
#    x 1.508010 0.000000 0.000000 
#    y 0.000000 1.508010 0.000000 
#    z 0.000000 0.000000 1.598630 
# 
# From -- ./inp_files/2752.got.cif
#   From: 2010.05.17/outbox.cif.g08.bks.cpg/sg148_2_cif.got.tgz:2752.got - 2010.05.20 13:50:20.
