data_PCOD9575482
_publ_section_title
;
Structure prediction by ZEFSAII (Michael W. Deem and Ramdas Pophale) SiO2 
 PCOD9575482
Probable space group: P 3 2 1
;
_chemical_formula_sum "Si O2"
_cell_formula_units_Z 20
_cell_length_a 7.843784
_cell_length_b 7.843784
_cell_length_c 16.064175
_cell_angle_alpha 90.000000
_cell_angle_beta 90.000000
_cell_angle_gamma 120.000000
_cell_volume 855.934062
_symmetry_space_group_name_H-M "P 3 2 1"
_symmetry_group_IT_number 150
_symmetry_cell_setting 'hexagonal'
loop_
_space_group_symop_operation_xyz
x,y,z
-y,x-y,z
-x+y,-x,z
x-y,-y,-z
-x,-x+y,-z
y,x,-z
loop_
_atom_site_type_symbol
_atom_site_label
_atom_site_fract_x
_atom_site_fract_y
_atom_site_fract_z
Si Si1 0.333334 0.666668 0.428312
Si Si2 0.960173 0.315703 0.809087
Si Si3 0.666668 0.333334 0.374113
Si Si4 0.666668 0.333335 0.928314
Si Si5 0.666668 0.333335 0.125889
Si Si6 0.355529 0.315703 0.690913
O O1 0.333334 0.666667 0.526944
O O2 0.175939 0.721075 0.390044
O O3 0.824064 0.278930 0.890045
O O4 0.874468 0.125531 0.750000
O O5 0.926936 0.463468 0.750000
O O6 0.184070 0.447528 0.840081
O O7 0.447530 0.263460 0.340083
O O8 0.666668 0.333334 0.026946
#
# Coordination Sequence:
#
# PCOD9575482 Si02
#       6
#     2   6   2   2   2   6
#     4   9  19  35  55  87 127 155 202 273 316 368
#     4   9  19  35  55  84 123 161 204 255 307 372
#     4  12  19  32  64  93 115 170 214 246 319 374
#     4   9  19  35  55  87 127 155 202 273 316 368
#     4  12  19  32  64  93 115 170 214 246 319 374
#     4   9  19  35  55  84 123 161 204 255 307 372
#
# _framework density 23.366285000000001
#
# number of rings (size 3 to 8) (size 9 to 14) (size 15 to 20)
#    0.000    2.400    0.000    6.000    0.000    0.000 
#    0.000    0.000    0.000  105.600    0.000   67.200 
#    0.000    0.000    0.000    1.800    0.000    0.000 
#
# Total GULP energy -111614.946166 kJ/mol
# GULP energy per Si atom -5580.747308 kJ/mol
# Density = 2.331310 g / cm^3
# Si number density = 23.366285 Si / 1000 Ang^3
#
#
#
# Elastic Constant Matrix: (Units=GPa)
#
#
# Indices 1 2 3 4 5 6 
#
# 1 113.9970 54.0949 56.1794 0.0004 0.0000 0.0000
# 2 54.0949 113.9976 56.1798 -0.0004 0.0000 0.0000
# 3 56.1794 56.1798 225.3443 -0.0007 0.0000 0.0000
# 4 0.0004 -0.0004 -0.0007 22.5332 0.0000 0.0000
# 5 0.0000 0.0000 0.0000 0.0000 22.5330 0.0002
# 6 0.0000 0.0000 0.0000 0.0000 0.0002 29.9513
#
#
#
# Elastic Compliance Matrix: (Units=1/GPa)
#
#
# Indices 1 2 3 4 5 6 
#
# 1 0.011916 -0.004778 -0.001780 0.000000 0.000000 0.000000
# 2 -0.004778 0.011916 -0.001780 0.000000 0.000000 0.000000
# 3 -0.001780 -0.001780 0.005325 0.000000 0.000000 0.000000
# 4 0.000000 0.000000 0.000000 0.044379 0.000000 0.000000
# 5 0.000000 0.000000 0.000000 0.000000 0.044379 0.000000
# 6 0.000000 0.000000 0.000000 0.000000 0.000000 0.033388
#
#
# Mechanical properties :
#
#
# Convention : Reuss Voigt Hill
#
# Bulk Modulus (GPa) = 80.10487 87.36077 83.73282
# Shear Modulus (GPa) = 29.04634 34.12915 31.58774
#
# Velocity S-wave (km/s) = 3.52957 3.82595 3.68074
# Velocity P-wave (km/s) = 7.13913 7.54890 7.34687
#
# Compressibility (1/GPa) = 0.01248363
#
# Stress axis : x y z
#
# Youngs Moduli (GPa) = 83.91853 83.91885 187.79175
#
# Poissons Ratio (x) = 0.40093 0.33422
# Poissons Ratio (y) = 0.40092 0.33422
# Poissons Ratio (z) = 0.14935 0.14935
#
# Static dielectric constant tensor:
#      x y z
#    x 1.978160 0.000000 0.000000 
#    y 0.000000 1.978160 0.000000 
#    z 0.000000 0.000000 1.816590 
# 
# From -- ./inp_files/1082.got.cif
#   From: 2010.05.17/outbox.cif.g08.bks.cpg/sg150_cif.got.tgz:1082.got - 2010.05.20 13:53:18.
