data_PCOD9575459
_publ_section_title
;
Structure prediction by ZEFSAII (Michael W. Deem and Ramdas Pophale) SiO2 
 PCOD9575459
Probable space group: P 3 2 1
;
_chemical_formula_sum "Si O2"
_cell_formula_units_Z 39
_cell_length_a 17.814198
_cell_length_b 17.814198
_cell_length_c 7.625616
_cell_angle_alpha 90.000000
_cell_angle_beta 90.000000
_cell_angle_gamma 120.000000
_cell_volume 2095.743432
_symmetry_space_group_name_H-M "P 3 2 1"
_symmetry_group_IT_number 150
_symmetry_cell_setting 'hexagonal'
loop_
_space_group_symop_operation_xyz
x,y,z
-y,x-y,z
-x+y,-x,z
x-y,-y,-z
-x,-x+y,-z
y,x,-z
loop_
_atom_site_type_symbol
_atom_site_label
_atom_site_fract_x
_atom_site_fract_y
_atom_site_fract_z
Si Si1 0.894500 0.835772 0.328579
Si Si2 0.489548 0.489548 0.000000
Si Si3 0.941091 0.832836 0.834407
Si Si4 0.368100 0.360989 0.291733
Si Si5 0.816769 0.639141 0.314744
Si Si6 0.101161 0.415812 0.989963
Si Si7 0.188837 0.359499 0.269231
O O1 0.863975 0.863975 0.500000
O O2 0.893372 0.899048 0.180774
O O3 0.834442 0.736143 0.288559
O O4 0.990449 0.851248 0.322995
O O5 0.442200 0.432325 0.169536
O O6 0.587173 0.505180 0.992612
O O7 0.862546 0.738527 0.793455
O O8 0.000000 0.842042 0.000000
O O9 0.380266 0.380266 0.500000
O O10 0.362625 0.267505 0.264885
O O11 0.281078 0.363922 0.242497
O O12 0.734965 0.584357 0.188126
O O13 0.805501 0.623959 0.524760
O O14 0.160806 0.413987 0.146377
O O15 0.000000 0.335015 0.000000
#
# Coordination Sequence:
#
# PCOD9575459 Si02
#       7
#     6   3   6   6   6   6   6
#     4  12  23  35  51  76 127 178 224 264 300 337
#     4  10  24  42  64  94 124 158 208 280 346 398
#     4  12  24  36  50  76 123 182 232 263 299 342
#     4  10  22  41  70  96 124 165 216 266 328 399
#     4  11  22  41  64  91 128 171 219 263 316 383
#     4  10  24  38  60  96 125 160 206 261 335 385
#     4  11  22  40  64  92 123 171 216 265 311 390
#
# _framework density 18.609148999999999
#
# number of rings (size 3 to 8) (size 9 to 14) (size 15 to 20)
#    0.462    0.615    3.077    4.000    1.077    1.231 
#    0.000    0.000    0.000    4.923    0.000    0.000 
#    0.000    0.000    0.000    0.000    0.000    0.000 
#
# Total GULP energy -217348.513492 kJ/mol
# GULP energy per Si atom -5573.038807 kJ/mol
# Density = 1.856679 g / cm^3
# Si number density = 18.609149 Si / 1000 Ang^3
#
#
#
# Elastic Constant Matrix: (Units=GPa)
#
#
# Indices 1 2 3 4 5 6 
#
# 1 101.9385 8.3882 49.9945 0.2266 0.0000 0.0000
# 2 8.3882 101.9385 49.9945 -0.2266 0.0000 0.0000
# 3 49.9945 49.9945 125.9214 0.0000 0.0000 0.0000
# 4 0.2266 -0.2266 0.0000 31.6194 0.0000 0.0000
# 5 0.0000 0.0000 0.0000 0.0000 31.6194 0.2266
# 6 0.0000 0.0000 0.0000 0.0000 0.2266 46.7751
#
#
#
# Elastic Compliance Matrix: (Units=1/GPa)
#
#
# Indices 1 2 3 4 5 6 
#
# 1 0.012424 0.001734 -0.005621 -0.000077 0.000000 0.000000
# 2 0.001734 0.012424 -0.005621 0.000077 0.000000 0.000000
# 3 -0.005621 -0.005621 0.012405 0.000000 0.000000 0.000000
# 4 -0.000077 0.000077 0.000000 0.031627 0.000000 0.000000
# 5 0.000000 0.000000 0.000000 0.000000 0.031627 -0.000153
# 6 0.000000 0.000000 0.000000 0.000000 -0.000153 0.021380
#
#
# Mechanical properties :
#
#
# Convention : Reuss Voigt Hill
#
# Bulk Modulus (GPa) = 54.83388 60.72809 57.78099
# Shear Modulus (GPa) = 34.01740 36.76419 35.39079
#
# Velocity S-wave (km/s) = 4.28014 4.44959 4.36569
# Velocity P-wave (km/s) = 7.34549 7.68783 7.51861
#
# Compressibility (1/GPa) = 0.01823690
#
# Stress axis : x y z
#
# Youngs Moduli (GPa) = 80.48776 80.48776 80.61132
#
# Poissons Ratio (x) = -0.13960 0.45315
# Poissons Ratio (y) = -0.13960 0.45315
# Poissons Ratio (z) = 0.45246 0.45246
#
# Static dielectric constant tensor:
#      x y z
#    x 1.638060 0.000000 0.000000 
#    y 0.000000 1.638060 0.000000 
#    z 0.000000 0.000000 1.603630 
# 
# From -- ./inp_files/733.got.cif
#   From: 2010.05.17/outbox.cif.g08.bks.cpg/sg150_cif.got.tgz:733.got - 2010.05.20 13:53:18.
