data_PCOD9575573
_publ_section_title
;
Structure prediction by ZEFSAII (Michael W. Deem and Ramdas Pophale) SiO2 
 PCOD9575573
Probable space group: P 31 1 2
;
_chemical_formula_sum "Si O2"
_cell_formula_units_Z 39
_cell_length_a 11.559531
_cell_length_b 11.559531
_cell_length_c 18.267957
_cell_angle_alpha 90.000000
_cell_angle_beta 90.000000
_cell_angle_gamma 120.000000
_cell_volume 2113.980809
_symmetry_space_group_name_H-M "P 31 1 2"
_symmetry_group_IT_number 151
_symmetry_cell_setting 'hexagonal'
loop_
_space_group_symop_operation_xyz
x,y,z
-y,x-y,1/3+z
-x+y,-x,2/3+z
-y,-x,2/3-z
-x+y,y,1/3-z
x,x-y,-z
loop_
_atom_site_type_symbol
_atom_site_label
_atom_site_fract_x
_atom_site_fract_y
_atom_site_fract_z
Si Si1 0.822449 0.920596 0.161582
Si Si2 0.491283 0.560345 0.634520
Si Si3 0.542488 0.639051 0.472145
Si Si4 0.728250 0.992419 0.965364
Si Si5 0.205859 0.967689 0.011760
Si Si6 0.248855 0.060316 0.733075
Si Si7 0.246524 0.623262 0.000000
O O1 0.735748 0.781229 0.118480
O O2 0.757371 0.920072 0.238611
O O3 0.965806 0.931611 0.166667
O O4 0.862445 0.059594 0.119238
O O5 0.490547 0.556357 0.546351
O O6 0.390818 0.409266 0.657443
O O7 0.643995 0.646203 0.659702
O O8 0.436591 0.655035 0.664936
O O9 0.570744 0.785372 0.500000
O O10 0.677179 0.647113 0.441540
O O11 0.436310 0.593301 0.405964
O O12 0.744327 0.872164 0.000000
O O13 0.849650 0.133311 0.993143
O O14 0.089705 0.860896 0.958682
O O15 0.199956 0.099978 0.000000
#
# Coordination Sequence:
#
# PCOD9575573 Si02
#       7
#     6   6   6   6   6   6   3
#     4  11  20  33  59  92 115 147 193 252 309 352
#     4  11  23  38  58  86 125 157 193 244 296 360
#     4  10  20  35  60  88 118 152 198 244 286 355
#     4  10  22  38  56  85 123 151 190 250 308 352
#     4  12  21  35  61  89 120 151 201 246 304 362
#     4  11  19  37  58  88 117 149 195 256 301 350
#     4  10  20  36  58  88 114 152 194 228 294 352
#
# _framework density 18.448606000000002
#
# number of rings (size 3 to 8) (size 9 to 14) (size 15 to 20)
#    0.000    1.231    6.923    1.846    2.154    0.000 
#    0.000    3.077    1.692    0.000    0.000    0.000 
#    0.000    0.000    0.000    0.000    0.000    0.000 
#
# Total GULP energy -217167.846471 kJ/mol
# GULP energy per Si atom -5568.406320 kJ/mol
# Density = 1.840662 g / cm^3
# Si number density = 18.448606 Si / 1000 Ang^3
#
#
#
# Elastic Constant Matrix: (Units=GPa)
#
#
# Indices 1 2 3 4 5 6 
#
# 1 56.1014 12.1627 21.0740 -0.0013 -5.4929 0.0000
# 2 12.1627 56.1014 21.0740 0.0013 5.4929 0.0000
# 3 21.0740 21.0740 92.5370 0.0000 0.0000 0.0000
# 4 -0.0013 0.0013 0.0000 13.8628 0.0000 5.4929
# 5 -5.4929 5.4929 0.0000 0.0000 13.8628 -0.0013
# 6 0.0000 0.0000 0.0000 5.4929 -0.0013 21.9693
#
#
#
# Elastic Compliance Matrix: (Units=1/GPa)
#
#
# Indices 1 2 3 4 5 6 
#
# 1 0.021154 -0.004108 -0.003882 0.000002 0.010009 0.000000
# 2 -0.004108 0.021154 -0.003882 -0.000002 -0.010009 0.000000
# 3 -0.003882 -0.003882 0.012575 0.000000 0.000000 0.000000
# 4 0.000002 -0.000002 0.000000 0.080068 0.000000 -0.020019
# 5 0.010009 -0.010009 0.000000 0.000000 0.080068 0.000005
# 6 0.000000 0.000000 0.000000 -0.020019 0.000005 0.050523
#
#
# Mechanical properties :
#
#
# Convention : Reuss Voigt Hill
#
# Bulk Modulus (GPa) = 32.11466 34.81793 33.46629
# Shear Modulus (GPa) = 16.68538 19.96758 18.32648
#
# Velocity S-wave (km/s) = 3.01063 3.29346 3.15521
# Velocity P-wave (km/s) = 5.43421 5.77723 5.60834
#
# Compressibility (1/GPa) = 0.03113843
#
# Stress axis : x y z
#
# Youngs Moduli (GPa) = 47.27304 47.27304 79.52531
#
# Poissons Ratio (x) = 0.19419 0.30871
# Poissons Ratio (y) = 0.19419 0.30871
# Poissons Ratio (z) = 0.18351 0.18351
#
# Static dielectric constant tensor:
#      x y z
#    x 1.390530 0.000000 0.000000 
#    y 0.000000 1.390530 0.000000 
#    z 0.000000 0.000000 1.655230 
# 
# From -- ./inp_files/3511.got.cif
#   From: 2010.05.17/outbox.cif.g08.bks.cpg/sg151_2_cif.got.tgz:3511.got - 2010.05.20 10:33:20.
