data_PCOD9575728
_publ_section_title
;
Structure prediction by ZEFSAII (Michael W. Deem and Ramdas Pophale) SiO2 
 PCOD9575728
Probable space group: P 31 2 1
;
_chemical_formula_sum "Si O2"
_cell_formula_units_Z 42
_cell_length_a 23.398162
_cell_length_b 23.398162
_cell_length_c 5.596720
_cell_angle_alpha 90.000000
_cell_angle_beta 90.000000
_cell_angle_gamma 120.000000
_cell_volume 2653.552587
_symmetry_space_group_name_H-M "P 31 2 1"
_symmetry_group_IT_number 152
_symmetry_cell_setting 'hexagonal'
loop_
_space_group_symop_operation_xyz
x,y,z
-y,x-y,1/3+z
-x+y,-x,2/3+z
x-y,-y,2/3-z
-x,-x+y,1/3-z
y,x,-z
loop_
_atom_site_type_symbol
_atom_site_label
_atom_site_fract_x
_atom_site_fract_y
_atom_site_fract_z
Si Si1 0.457342 0.457342 0.500000
Si Si2 0.576463 0.346957 0.985369
Si Si3 0.389637 0.389637 0.000000
Si Si4 0.491964 0.605223 0.479184
Si Si5 0.144449 0.727622 0.701365
Si Si6 0.581599 0.348796 0.484847
Si Si7 0.494082 0.145522 0.356840
Si Si8 0.242503 0.437645 0.537674
O O1 0.417624 0.429897 0.749609
O O2 0.466724 0.528747 0.445070
O O3 0.497173 0.313800 0.980083
O O4 0.594715 0.325979 0.232741
O O5 0.608278 0.425934 0.998918
O O6 0.593926 0.325566 0.737614
O O7 0.321641 0.388420 0.049912
O O8 0.427362 0.613489 0.502779
O O9 0.525184 0.625130 0.740597
O O10 0.529567 0.643661 0.239512
O O11 0.160493 0.763118 0.443591
O O12 0.171501 0.768634 0.947325
O O13 0.501523 0.316487 0.478535
O O14 0.469697 0.196640 0.418463
#
# Coordination Sequence:
#
# PCOD9575728 Si02
#       8
#     3   6   3   6   6   6   6   6
#     4  12  20  30  48  68  86 104 122 158 212 256
#     4   8  14  25  38  52  70  89 114 147 177 213
#     4  12  20  30  48  68  86 104 122 158 212 256
#     4  10  19  30  43  62  81  98 125 157 195 240
#     4  10  19  30  43  62  81  98 125 157 195 240
#     4   8  14  25  38  52  70  89 114 147 177 213
#     4  10  18  29  43  56  74 102 126 149 180 221
#     4  10  18  29  43  56  74 102 126 149 180 221
#
# _framework density 15.827839000000001
#
# number of rings (size 3 to 8) (size 9 to 14) (size 15 to 20)
#    0.000    2.286    0.000    7.714    0.000    0.000 
#    0.000    0.000    0.000   46.286    0.000    2.000 
#    0.000    0.000    0.000    0.000    0.000    0.000 
#
# Total GULP energy -233934.926861 kJ/mol
# GULP energy per Si atom -5569.879211 kJ/mol
# Density = 1.579181 g / cm^3
# Si number density = 15.827839 Si / 1000 Ang^3
#
#
#
# Elastic Constant Matrix: (Units=GPa)
#
#
# Indices 1 2 3 4 5 6 
#
# 1 11.2528 -4.6200 2.0291 2.0227 0.0000 0.0000
# 2 -4.6200 11.2528 2.0291 -2.0227 0.0000 0.0000
# 3 2.0291 2.0291 192.6862 0.0000 0.0000 0.0000
# 4 2.0227 -2.0227 0.0000 14.0564 0.0000 0.0000
# 5 0.0000 0.0000 0.0000 0.0000 14.0564 2.0227
# 6 0.0000 0.0000 0.0000 0.0000 2.0227 7.9364
#
#
#
# Elastic Compliance Matrix: (Units=1/GPa)
#
#
# Indices 1 2 3 4 5 6 
#
# 1 0.108571 0.043172 -0.001598 -0.009411 0.000000 0.000000
# 2 0.043172 0.108571 -0.001598 0.009411 0.000000 0.000000
# 3 -0.001598 -0.001598 0.005223 0.000000 0.000000 0.000000
# 4 -0.009411 0.009411 0.000000 0.073850 0.000000 0.000000
# 5 0.000000 0.000000 0.000000 0.000000 0.073850 -0.018822
# 6 0.000000 0.000000 0.000000 0.000000 -0.018822 0.130799
#
#
# Mechanical properties :
#
#
# Convention : Reuss Voigt Hill
#
# Bulk Modulus (GPa) = 3.30779 23.78539 13.54659
# Shear Modulus (GPa) = 9.58430 21.59342 15.58886
#
# Velocity S-wave (km/s) = 2.46343 3.69761 3.14172
# Velocity P-wave (km/s) = 3.19151 5.76974 4.66238
#
# Compressibility (1/GPa) = 0.30231700
#
# Stress axis : x y z
#
# Youngs Moduli (GPa) = 9.21055 9.21055 191.44471
#
# Poissons Ratio (x) = -0.39763 0.30592
# Poissons Ratio (y) = -0.39763 0.30592
# Poissons Ratio (z) = 0.01472 0.01472
#
# Static dielectric constant tensor:
#      x y z
#    x 1.529130 0.000000 0.000000 
#    y 0.000000 1.529130 0.000000 
#    z 0.000000 0.000000 1.693360 
# 
# From -- ./inp_files/592.got.cif
#   From: 2010.05.17/outbox.cif.g08.bks.cpg/sg152_1_cif.got.tgz:592.got - 2010.05.20 10:36:06.
