data_PCOD9575068
_publ_section_title
;
Structure prediction by ZEFSAII (Michael W. Deem and Ramdas Pophale) SiO2 
 PCOD9575068
Probable space group: R -3
;
_chemical_formula_sum "Si O2"
_cell_formula_units_Z 108
_cell_length_a 18.756553
_cell_length_b 18.756553
_cell_length_c 16.244816
_cell_angle_alpha 90.000000
_cell_angle_beta 90.000000
_cell_angle_gamma 120.000000
_cell_volume 4949.387822
_symmetry_space_group_name_H-M "R -3"
_symmetry_group_IT_number 148
_symmetry_cell_setting 'hexagonal'
loop_
_space_group_symop_operation_xyz
x,y,z
-y,x-y,z
-x+y,-x,z
-x,-y,-z
y,-x+y,-z
x-y,x,-z
2/3+x,1/3+y,1/3+z
2/3-y,1/3+x-y,1/3+z
2/3-x+y,1/3-x,1/3+z
2/3-x,1/3-y,1/3-z
2/3+y,1/3-x+y,1/3-z
2/3+x-y,1/3+x,1/3-z
1/3+x,2/3+y,2/3+z
1/3-y,2/3+x-y,2/3+z
1/3-x+y,2/3-x,2/3+z
1/3-x,2/3-y,2/3-z
1/3+y,2/3-x+y,2/3-z
1/3+x-y,2/3+x,2/3-z
loop_
_atom_site_type_symbol
_atom_site_label
_atom_site_fract_x
_atom_site_fract_y
_atom_site_fract_z
Si Si1 0.645424 0.848804 0.054807
Si Si2 0.246755 0.285467 0.317865
Si Si3 0.558761 0.185409 0.106569
Si Si4 0.763672 0.852774 0.430510
Si Si5 0.965488 0.120486 0.323686
Si Si6 0.748409 0.497932 0.380438
O O1 0.645372 0.929047 0.018584
O O2 0.599776 0.827735 0.143102
O O3 0.582499 0.772471 0.998171
O O4 0.737153 0.865276 0.058983
O O5 0.196943 0.226997 0.240890
O O6 0.175480 0.258080 0.387732
O O7 0.275023 0.375543 0.285677
O O8 0.576185 0.207658 0.200959
O O9 0.628412 0.165521 0.075632
O O10 0.558457 0.252818 0.045312
O O11 0.855972 0.872926 0.409327
O O12 0.794361 0.473126 0.312539
#
# Coordination Sequence:
#
# PCOD9575068 Si02
#       6
#    18  18  18  18  18  18
#     4  11  23  41  63 103 133 167 226 278 333 399
#     4   9  20  37  62  89 133 172 208 260 342 389
#     4  10  20  44  62  94 131 176 215 282 324 399
#     4  10  19  39  63  94 133 176 207 265 336 400
#     4  10  22  38  71  97 130 175 227 266 342 401
#     4  12  27  47  69  94 132 180 236 283 338 402
#
# _framework density 21.820881
#
# number of rings (size 3 to 8) (size 9 to 14) (size 15 to 20)
#    0.000    1.667    1.667    2.500    2.333    0.000 
#    0.000    8.333    0.000    0.000    0.000    0.000 
#    0.000    0.000    0.000    0.000    0.000    0.000 
#
# Total GULP energy -200874.213472 kJ/mol
# GULP energy per Si atom -5579.839263 kJ/mol
# Density = 2.177122 g / cm^3
# Si number density = 21.820881 Si / 1000 Ang^3
#
#
#
# Elastic Constant Matrix: (Units=GPa)
#
#
# Indices 1 2 3 4 5 6 
#
# 1 75.3143 16.7183 25.9494 -2.8180 -6.0732 0.0000
# 2 16.7183 75.3143 25.9494 2.8180 6.0732 0.0000
# 3 25.9494 25.9494 90.6839 0.0000 0.0000 0.0000
# 4 -2.8180 2.8180 0.0000 18.7700 0.0000 6.0732
# 5 -6.0732 6.0732 0.0000 0.0000 18.7700 -2.8180
# 6 0.0000 0.0000 0.0000 6.0732 -2.8180 29.2980
#
#
#
# Elastic Compliance Matrix: (Units=1/GPa)
#
#
# Indices 1 2 3 4 5 6 
#
# 1 0.015769 -0.002812 -0.003708 0.002790 0.006012 0.000000
# 2 -0.002812 0.015769 -0.003708 -0.002790 -0.006012 0.000000
# 3 -0.003708 -0.003708 0.013149 0.000000 0.000000 0.000000
# 4 0.002790 -0.002790 0.000000 0.058004 0.000000 -0.012024
# 5 0.006012 -0.006012 0.000000 0.000000 0.058004 0.005579
# 6 0.000000 0.000000 0.000000 -0.012024 0.005579 0.037161
#
#
# Mechanical properties :
#
#
# Convention : Reuss Voigt Hill
#
# Bulk Modulus (GPa) = 41.26779 42.06074 41.66426
# Shear Modulus (GPa) = 22.08601 24.88064 23.48332
#
# Velocity S-wave (km/s) = 3.18488 3.38038 3.28409
# Velocity P-wave (km/s) = 5.69893 5.87820 5.78926
#
# Compressibility (1/GPa) = 0.02423198
#
# Stress axis : x y z
#
# Youngs Moduli (GPa) = 63.41757 63.41757 76.05057
#
# Poissons Ratio (x) = 0.17833 0.28196
# Poissons Ratio (y) = 0.17833 0.28196
# Poissons Ratio (z) = 0.23512 0.23512
#
# Static dielectric constant tensor:
#      x y z
#    x 1.820970 0.000000 0.000000 
#    y 0.000000 1.820970 0.000000 
#    z 0.000000 0.000000 1.829260 
# 
# From -- ./inp_files/2047.got.cif
#   From: 2010.05.17/outbox.cif.g08.bks.cpg/sg148_2_cif.got.tgz:2047.got - 2010.05.20 13:50:20.
