data_PCOD9575485
_publ_section_title
;
Structure prediction by ZEFSAII (Michael W. Deem and Ramdas Pophale) SiO2 
 PCOD9575485
Probable space group: P 3 2 1
;
_chemical_formula_sum "Si O2"
_cell_formula_units_Z 24
_cell_length_a 8.773809
_cell_length_b 8.773809
_cell_length_c 19.365194
_cell_angle_alpha 90.000000
_cell_angle_beta 90.000000
_cell_angle_gamma 120.000000
_cell_volume 1291.007709
_symmetry_space_group_name_H-M "P 3 2 1"
_symmetry_group_IT_number 150
_symmetry_cell_setting 'hexagonal'
loop_
_space_group_symop_operation_xyz
x,y,z
-y,x-y,z
-x+y,-x,z
x-y,-y,-z
-x,-x+y,-z
y,x,-z
loop_
_atom_site_type_symbol
_atom_site_label
_atom_site_fract_x
_atom_site_fract_y
_atom_site_fract_z
Si Si1 0.333320 0.335322 0.860674
Si Si2 0.467475 0.336294 0.559768
Si Si3 0.998984 0.331249 0.917426
Si Si4 0.532561 0.869751 0.284368
O O1 0.476831 0.521897 0.891749
O O2 0.379435 0.191227 0.889221
O O3 0.352297 0.340040 0.777984
O O4 0.142607 0.288235 0.886617
O O5 0.501601 0.171737 0.553707
O O6 0.353296 0.353296 0.500000
O O7 0.405901 0.338370 0.637829
O O8 0.000000 0.325257 0.000000
O O9 0.330212 0.828826 0.277628
#
# Coordination Sequence:
#
# PCOD9575485 Si02
#       4
#     6   6   6   6
#     4  12  23  42  61  85 117 155 201 244 305 357
#     4   8  16  31  55  83 114 148 186 226 282 337
#     4  12  24  39  60  85 115 151 196 253 305 360
#     4   8  15  36  60  76 112 162 185 229 296 344
#
# _framework density 18.590129000000001
#
# number of rings (size 3 to 8) (size 9 to 14) (size 15 to 20)
#    1.000    1.000    2.500    3.750    0.000    0.000 
#    4.500    0.000    0.000    0.500    0.000    0.000 
#    0.000    0.000    0.000    0.000    0.000    0.000 
#
# Total GULP energy -133731.799813 kJ/mol
# GULP energy per Si atom -5572.158326 kJ/mol
# Density = 1.854782 g / cm^3
# Si number density = 18.590129 Si / 1000 Ang^3
#
#
#
# Elastic Constant Matrix: (Units=GPa)
#
#
# Indices 1 2 3 4 5 6 
#
# 1 36.1500 -12.9103 21.7486 -3.7228 0.0000 0.0000
# 2 -12.9103 36.1500 21.7486 3.7228 0.0000 0.0000
# 3 21.7486 21.7486 178.3764 0.0000 0.0000 0.0000
# 4 -3.7228 3.7228 0.0000 19.4484 0.0000 0.0000
# 5 0.0000 0.0000 0.0000 0.0000 19.4484 -3.7228
# 6 0.0000 0.0000 0.0000 0.0000 -3.7228 24.5302
#
#
#
# Elastic Compliance Matrix: (Units=1/GPa)
#
#
# Indices 1 2 3 4 5 6 
#
# 1 0.038373 0.017380 -0.006798 0.004018 0.000000 0.000000
# 2 0.017380 0.038373 -0.006798 -0.004018 0.000000 0.000000
# 3 -0.006798 -0.006798 0.007264 0.000000 0.000000 0.000000
# 4 0.004018 -0.004018 0.000000 0.052956 0.000000 0.000000
# 5 0.000000 0.000000 0.000000 0.000000 0.052956 0.008037
# 6 0.000000 0.000000 0.000000 0.000000 0.008037 0.041986
#
#
# Mechanical properties :
#
#
# Convention : Reuss Voigt Hill
#
# Bulk Modulus (GPa) = 10.91956 34.65000 22.78478
# Shear Modulus (GPa) = 19.61821 27.35805 23.48813
#
# Velocity S-wave (km/s) = 3.25207 3.84036 3.55839
# Velocity P-wave (km/s) = 4.47078 6.19225 5.40054
#
# Compressibility (1/GPa) = 0.09157877
#
# Stress axis : x y z
#
# Youngs Moduli (GPa) = 26.06007 26.06007 137.67022
#
# Poissons Ratio (x) = -0.45292 0.93584
# Poissons Ratio (y) = -0.45292 0.93584
# Poissons Ratio (z) = 0.17715 0.17715
#
# Static dielectric constant tensor:
#      x y z
#    x 1.625750 0.000000 0.000000 
#    y 0.000000 1.625750 0.000000 
#    z 0.000000 0.000000 1.632330 
# 
# From -- ./inp_files/1136.got.cif
#   From: 2010.05.17/outbox.cif.g08.bks.cpg/sg150_cif.got.tgz:1136.got - 2010.05.20 13:53:18.
