data_PCOD9575983
_publ_section_title
;
Structure prediction by ZEFSAII (Michael W. Deem and Ramdas Pophale) SiO2 
 PCOD9575983
Probable space group: P 31 2 1
;
_chemical_formula_sum "Si O2"
_cell_formula_units_Z 33
_cell_length_a 11.735510
_cell_length_b 11.735510
_cell_length_c 14.298979
_cell_angle_alpha 90.000000
_cell_angle_beta 90.000000
_cell_angle_gamma 120.000000
_cell_volume 1705.452373
_symmetry_space_group_name_H-M "P 31 2 1"
_symmetry_group_IT_number 152
_symmetry_cell_setting 'hexagonal'
loop_
_space_group_symop_operation_xyz
x,y,z
-y,x-y,1/3+z
-x+y,-x,2/3+z
x-y,-y,2/3-z
-x,-x+y,1/3-z
y,x,-z
loop_
_atom_site_type_symbol
_atom_site_label
_atom_site_fract_x
_atom_site_fract_y
_atom_site_fract_z
Si Si1 0.480073 0.202825 0.488662
Si Si2 0.158784 0.127379 0.890407
Si Si3 0.460125 0.460125 0.500000
Si Si4 0.718292 0.314638 0.617329
Si Si5 0.094830 0.347145 0.839180
Si Si6 0.136387 0.423050 0.055173
O O1 0.443173 0.316873 0.496534
O O2 0.572793 0.213570 0.576496
O O3 0.567086 0.247025 0.393533
O O4 0.350655 0.059351 0.483680
O O5 0.149232 0.245196 0.840907
O O6 0.298831 0.132122 0.893429
O O7 0.060299 0.000000 0.833334
O O8 0.122537 0.122537 0.000000
O O9 0.536566 0.565709 0.418072
O O10 0.820383 0.285818 0.563903
O O11 0.734034 0.454400 0.590560
O O12 0.119565 0.397508 0.945400
#
# Coordination Sequence:
#
# PCOD9575983 Si02
#       6
#     6   6   3   6   6   6
#     4  11  24  41  64  96 133 167 217 273 325 392
#     4  10  23  42  66  93 129 170 213 257 322 397
#     4  10  22  42  64  92 128 168 210 260 332 374
#     4  11  23  42  67  93 128 168 220 269 324 381
#     4  11  24  39  65  96 131 166 216 265 326 383
#     4  10  21  44  68  91 126 173 217 262 322 404
#
# _framework density 19.349705
#
# number of rings (size 3 to 8) (size 9 to 14) (size 15 to 20)
#    0.000    1.455    2.727    1.636    3.818    2.909 
#    3.273    0.000    0.000    0.000    0.000    0.000 
#    0.000    0.000    0.000    0.000    0.000    0.000 
#
# Total GULP energy -184015.540198 kJ/mol
# GULP energy per Si atom -5576.228491 kJ/mol
# Density = 1.930566 g / cm^3
# Si number density = 19.349705 Si / 1000 Ang^3
#
#
#
# Elastic Constant Matrix: (Units=GPa)
#
#
# Indices 1 2 3 4 5 6 
#
# 1 86.0449 57.7811 21.5309 -3.7878 0.0002 0.0000
# 2 57.7811 86.0449 21.5309 3.7878 -0.0002 0.0000
# 3 21.5309 21.5309 39.2893 0.0000 0.0000 0.0000
# 4 -3.7878 3.7878 0.0000 19.8315 0.0000 -0.0002
# 5 0.0002 -0.0002 0.0000 0.0000 19.8315 -3.7878
# 6 0.0000 0.0000 0.0000 -0.0002 -3.7878 14.1319
#
#
#
# Elastic Compliance Matrix: (Units=1/GPa)
#
#
# Indices 1 2 3 4 5 6 
#
# 1 0.022804 -0.014486 -0.004558 0.007122 0.000000 0.000000
# 2 -0.014486 0.022804 -0.004558 -0.007122 0.000000 0.000000
# 3 -0.004558 -0.004558 0.030448 0.000000 0.000000 0.000000
# 4 0.007122 -0.007122 0.000000 0.053145 0.000000 0.000001
# 5 0.000000 0.000000 0.000000 0.000000 0.053145 0.014245
# 6 0.000000 0.000000 0.000000 0.000001 0.014245 0.074580
#
#
# Mechanical properties :
#
#
# Convention : Reuss Voigt Hill
#
# Bulk Modulus (GPa) = 34.66121 45.89611 40.27866
# Shear Modulus (GPa) = 15.93633 18.12806 17.03219
#
# Velocity S-wave (km/s) = 2.87295 3.06415 2.97009
# Velocity P-wave (km/s) = 5.38117 6.02407 5.71168
#
# Compressibility (1/GPa) = 0.02885070
#
# Stress axis : x y z
#
# Youngs Moduli (GPa) = 43.85233 43.85233 32.84287
#
# Poissons Ratio (x) = 0.63526 0.14970
# Poissons Ratio (y) = 0.63526 0.14970
# Poissons Ratio (z) = 0.19988 0.19988
#
# Static dielectric constant tensor:
#      x y z
#    x 1.671700 0.000000 0.000000 
#    y 0.000000 1.671700 0.000000 
#    z 0.000000 0.000000 1.727820 
# 
# From -- ./inp_files/2039.got.cif
#   From: 2010.05.17/outbox.cif.g08.bks.cpg/sg152_2_cif.got.tgz:2039.got - 2010.05.20 10:36:06.
