data_PCOD9575521
_publ_section_title
;
Structure prediction by ZEFSAII (Michael W. Deem and Ramdas Pophale) SiO2 
 PCOD9575521
Probable space group: P 31 1 2
;
_chemical_formula_sum "Si O2"
_cell_formula_units_Z 24
_cell_length_a 9.101171
_cell_length_b 9.101171
_cell_length_c 18.321467
_cell_angle_alpha 90.000000
_cell_angle_beta 90.000000
_cell_angle_gamma 120.000000
_cell_volume 1314.272513
_symmetry_space_group_name_H-M "P 31 1 2"
_symmetry_group_IT_number 151
_symmetry_cell_setting 'hexagonal'
loop_
_space_group_symop_operation_xyz
x,y,z
-y,x-y,1/3+z
-x+y,-x,2/3+z
-y,-x,2/3-z
-x+y,y,1/3-z
x,x-y,-z
loop_
_atom_site_type_symbol
_atom_site_label
_atom_site_fract_x
_atom_site_fract_y
_atom_site_fract_z
Si Si1 0.748579 0.605018 0.331813
Si Si2 0.803721 0.077741 0.503043
Si Si3 0.596320 0.083989 0.372649
Si Si4 0.063161 0.237232 0.381059
O O1 0.564249 0.435752 0.333334
O O2 0.797459 0.667896 0.414914
O O3 0.887104 0.561131 0.300049
O O4 0.744934 0.754810 0.287869
O O5 0.655866 0.077240 0.454179
O O6 0.976564 0.203734 0.459985
O O7 0.784583 0.892292 0.500000
O O8 0.748327 0.251674 0.333334
O O9 0.605500 0.937802 0.326534
O O10 0.929779 0.070222 0.333334
#
# Coordination Sequence:
#
# PCOD9575521 Si02
#       4
#     6   6   6   6
#     4  11  21  36  62  93 123 157 210 263 312 379
#     4  10  18  38  65  77 123 173 199 255 316 363
#     4   8  18  33  57  88 115 154 208 245 300 373
#     4   9  18  37  60  86 116 161 208 248 308 373
#
# _framework density 18.261051999999999
#
# number of rings (size 3 to 8) (size 9 to 14) (size 15 to 20)
#    0.000    3.000    5.000    0.000    0.000    9.000 
#    4.500    1.250    5.500    0.000    0.000    0.000 
#    0.000    0.000    0.000    0.000    0.000    0.000 
#
# Total GULP energy -133687.623728 kJ/mol
# GULP energy per Si atom -5570.317655 kJ/mol
# Density = 1.821949 g / cm^3
# Si number density = 18.261052 Si / 1000 Ang^3
#
#
#
# Elastic Constant Matrix: (Units=GPa)
#
#
# Indices 1 2 3 4 5 6 
#
# 1 104.4939 39.1869 27.0894 -0.0001 -1.1621 0.0000
# 2 39.1869 104.4939 27.0894 0.0001 1.1621 0.0000
# 3 27.0894 27.0894 98.2913 0.0000 0.0000 0.0000
# 4 -0.0001 0.0001 0.0000 16.0403 0.0000 1.1621
# 5 -1.1621 1.1621 0.0000 0.0000 16.0403 -0.0001
# 6 0.0000 0.0000 0.0000 1.1621 -0.0001 32.6535
#
#
#
# Elastic Compliance Matrix: (Units=1/GPa)
#
#
# Indices 1 2 3 4 5 6 
#
# 1 0.011559 -0.003792 -0.002141 0.000000 0.001112 0.000000
# 2 -0.003792 0.011559 -0.002141 0.000000 -0.001112 0.000000
# 3 -0.002141 -0.002141 0.011354 0.000000 0.000000 0.000000
# 4 0.000000 0.000000 0.000000 0.062504 0.000000 -0.002224
# 5 0.001112 -0.001112 0.000000 0.000000 0.062504 0.000000
# 6 0.000000 0.000000 0.000000 -0.002224 0.000000 0.030704
#
#
# Mechanical properties :
#
#
# Convention : Reuss Voigt Hill
#
# Bulk Modulus (GPa) = 54.56914 54.89005 54.72960
# Shear Modulus (GPa) = 23.53596 27.20770 25.37183
#
# Velocity S-wave (km/s) = 3.59397 3.86415 3.73150
# Velocity P-wave (km/s) = 6.86803 7.07338 6.97146
#
# Compressibility (1/GPa) = 0.01832538
#
# Stress axis : x y z
#
# Youngs Moduli (GPa) = 86.50921 86.50921 88.07650
#
# Poissons Ratio (x) = 0.32808 0.18854
# Poissons Ratio (y) = 0.32808 0.18854
# Poissons Ratio (z) = 0.18518 0.18518
#
# Static dielectric constant tensor:
#      x y z
#    x 1.657290 0.000000 0.000000 
#    y 0.000000 1.657290 0.000000 
#    z 0.000000 0.000000 1.634710 
# 
# From -- ./inp_files/3725.got.cif
#   From: 2010.05.17/outbox.cif.g08.bks.cpg/sg151_2_cif.got.tgz:3725.got - 2010.05.20 10:33:20.
