data_PCOD9575551
_publ_section_title
;
Structure prediction by ZEFSAII (Michael W. Deem and Ramdas Pophale) SiO2 
 PCOD9575551
Probable space group: P 31 1 2
;
_chemical_formula_sum "Si O2"
_cell_formula_units_Z 45
_cell_length_a 15.540928
_cell_length_b 15.540928
_cell_length_c 11.716551
_cell_angle_alpha 90.000000
_cell_angle_beta 90.000000
_cell_angle_gamma 120.000000
_cell_volume 2450.667073
_symmetry_space_group_name_H-M "P 31 1 2"
_symmetry_group_IT_number 151
_symmetry_cell_setting 'hexagonal'
loop_
_space_group_symop_operation_xyz
x,y,z
-y,x-y,1/3+z
-x+y,-x,2/3+z
-y,-x,2/3-z
-x+y,y,1/3-z
x,x-y,-z
loop_
_atom_site_type_symbol
_atom_site_label
_atom_site_fract_x
_atom_site_fract_y
_atom_site_fract_z
Si Si1 0.251323 0.906655 0.506774
Si Si2 0.021517 0.796388 0.581203
Si Si3 0.795596 0.695105 0.279230
Si Si4 0.476794 0.707885 0.871276
Si Si5 0.848888 0.822863 0.510541
Si Si6 0.668841 0.331160 0.833334
Si Si7 0.349380 0.366033 0.737332
Si Si8 0.500312 0.196269 0.320056
O O1 0.137443 0.864829 0.547774
O O2 0.267441 0.812763 0.525225
O O3 0.276056 0.938995 0.373377
O O4 0.317661 0.008178 0.573919
O O5 0.982419 0.700647 0.500234
O O6 0.958769 0.848114 0.546112
O O7 0.994382 0.769505 0.714561
O O8 0.867827 0.735654 0.166667
O O9 0.826294 0.763772 0.391571
O O10 0.791448 0.592707 0.309942
O O11 0.366192 0.633809 0.833334
O O12 0.539327 0.650400 0.874984
O O13 0.471887 0.735944 0.000000
O O14 0.845178 0.922589 0.500000
O O15 0.752698 0.339747 0.746389
O O16 0.705390 0.441516 0.879297
O O17 0.452083 0.373599 0.700189
#
# Coordination Sequence:
#
# PCOD9575551 Si02
#       8
#     6   6   6   6   6   3   6   6
#     4  10  19  36  63  92 119 161 214 258 297 378
#     4  10  20  36  51  82 129 163 207 256 300 361
#     4  12  21  38  67  87 122 170 212 249 310 394
#     4   9  20  37  65  89 122 155 207 265 309 360
#     4  11  22  36  49  85 129 170 202 252 314 367
#     4  10  24  40  62  90 122 148 194 290 308 376
#     4  10  19  37  65  91 111 163 217 249 306 394
#     4  11  21  42  62  90 123 155 206 249 331 372
#
# _framework density 18.362348000000001
#
# number of rings (size 3 to 8) (size 9 to 14) (size 15 to 20)
#    0.000    1.600    4.667    1.200    0.933    0.533 
#    9.600    0.000   14.667    0.000    0.000    0.000 
#    0.000    0.000    0.000    0.000    0.000    0.000 
#
# Total GULP energy -250508.993507 kJ/mol
# GULP energy per Si atom -5566.866522 kJ/mol
# Density = 1.832055 g / cm^3
# Si number density = 18.362348 Si / 1000 Ang^3
#
#
#
# Elastic Constant Matrix: (Units=GPa)
#
#
# Indices 1 2 3 4 5 6 
#
# 1 66.0497 20.9866 29.0778 -0.0001 -0.3728 0.0000
# 2 20.9866 66.0497 29.0778 0.0001 0.3728 0.0000
# 3 29.0778 29.0778 93.3958 0.0000 0.0000 0.0000
# 4 -0.0001 0.0001 0.0000 21.8931 0.0000 0.3728
# 5 -0.3728 0.3728 0.0000 0.0000 21.8931 -0.0001
# 6 0.0000 0.0000 0.0000 0.3728 -0.0001 22.5315
#
#
#
# Elastic Compliance Matrix: (Units=1/GPa)
#
#
# Indices 1 2 3 4 5 6 
#
# 1 0.018352 -0.003845 -0.004517 0.000000 0.000378 0.000000
# 2 -0.003845 0.018352 -0.004517 0.000000 -0.000378 0.000000
# 3 -0.004517 -0.004517 0.013520 0.000000 0.000000 0.000000
# 4 0.000000 0.000000 0.000000 0.045689 0.000000 -0.000756
# 5 0.000378 -0.000378 0.000000 0.000000 0.045689 0.000000
# 6 0.000000 0.000000 0.000000 -0.000756 0.000000 0.044395
#
#
# Mechanical properties :
#
#
# Convention : Reuss Voigt Hill
#
# Bulk Modulus (GPa) = 40.87049 42.64217 41.75633
# Shear Modulus (GPa) = 22.73652 23.02042 22.87847
#
# Velocity S-wave (km/s) = 3.52264 3.54457 3.53362
# Velocity P-wave (km/s) = 6.23309 6.32653 6.27999
#
# Compressibility (1/GPa) = 0.02446753
#
# Stress axis : x y z
#
# Youngs Moduli (GPa) = 54.48876 54.48876 73.96671
#
# Poissons Ratio (x) = 0.20951 0.33409
# Poissons Ratio (y) = 0.20951 0.33409
# Poissons Ratio (z) = 0.24611 0.24611
#
# Static dielectric constant tensor:
#      x y z
#    x 1.646670 0.000000 0.000000 
#    y 0.000000 1.646670 0.000000 
#    z 0.000000 0.000000 1.696440 
# 
# From -- ./inp_files/2668.got.cif
#   From: 2010.05.17/outbox.cif.g08.bks.cpg/sg151_2_cif.got.tgz:2668.got - 2010.05.20 10:33:20.
