data_PCOD9575349
_publ_section_title
;
Structure prediction by ZEFSAII (Michael W. Deem and Ramdas Pophale) SiO2 
 PCOD9575349
Probable space group: P 3 1 2
;
_chemical_formula_sum "Si O2"
_cell_formula_units_Z 28
_cell_length_a 14.969253
_cell_length_b 14.969253
_cell_length_c 7.587722
_cell_angle_alpha 90.000000
_cell_angle_beta 90.000000
_cell_angle_gamma 120.000000
_cell_volume 1472.455911
_symmetry_space_group_name_H-M "P 3 1 2"
_symmetry_group_IT_number 149
_symmetry_cell_setting 'hexagonal'
loop_
_space_group_symop_operation_xyz
x,y,z
-y,x-y,z
-x+y,-x,z
-y,-x,-z
-x+y,y,-z
x,x-y,-z
loop_
_atom_site_type_symbol
_atom_site_label
_atom_site_fract_x
_atom_site_fract_y
_atom_site_fract_z
Si Si1 0.604108 0.994222 0.298500
Si Si2 0.563333 0.791823 0.791114
Si Si3 0.333334 0.666668 0.784283
Si Si4 0.666667 0.333333 0.712842
Si Si5 0.604095 0.010109 0.717645
Si Si6 0.791253 0.564809 0.285321
O O1 0.712380 0.089306 0.230652
O O2 0.600594 0.885853 0.277952
O O3 0.602237 0.015338 0.505799
O O4 0.501735 0.993771 0.222085
O O5 0.446991 0.747010 0.722295
O O6 0.618603 0.912786 0.756493
O O7 0.558182 0.779091 0.000000
O O8 0.333334 0.666667 0.000000
O O9 0.666668 0.333334 0.500000
O O10 0.553355 0.248473 0.765969
O O11 0.703560 0.115158 0.782755
O O12 0.785685 0.571369 0.500000
#
# Coordination Sequence:
#
# PCOD9575349 Si02
#       6
#     6   6   2   2   6   6
#     4  10  19  31  51  79 105 132 169 211 253 302
#     4  11  21  35  50  69 103 143 176 208 253 304
#     4   9  18  30  46  68  97 135 172 203 247 300
#     4   9  12  21  45  78 109 134 157 186 238 305
#     4  10  19  31  51  79 105 132 169 211 253 302
#     4   9  16  28  48  77 111 136 159 199 252 305
#
# _framework density 19.015851000000001
#
# number of rings (size 3 to 8) (size 9 to 14) (size 15 to 20)
#    0.000    2.143    4.286    0.643    0.000    0.000 
#    0.000    1.071    0.000    0.857    0.000    3.000 
#    0.000    0.000    0.000    0.000    0.000    0.000 
#
# Total GULP energy -156042.979495 kJ/mol
# GULP energy per Si atom -5572.963553 kJ/mol
# Density = 1.897257 g / cm^3
# Si number density = 19.015851 Si / 1000 Ang^3
#
#
#
# Elastic Constant Matrix: (Units=GPa)
#
#
# Indices 1 2 3 4 5 6 
#
# 1 99.1708 52.9806 -9.8528 -0.0001 1.5367 0.0007
# 2 52.9806 99.1720 -9.8527 0.0002 -1.5364 0.0008
# 3 -9.8528 -9.8527 32.6780 0.0000 0.0000 0.0003
# 4 -0.0001 0.0002 0.0000 -6.2353 0.0002 -1.5364
# 5 1.5367 -1.5364 0.0000 0.0002 -6.2354 0.0002
# 6 0.0007 0.0008 0.0003 -1.5364 0.0002 23.0955
#
#
#
# Elastic Compliance Matrix: (Units=1/GPa)
#
#
# Indices 1 2 3 4 5 6 
#
# 1 0.014070 -0.007230 0.002062 0.000000 0.005249 0.000000
# 2 -0.007230 0.014070 0.002062 0.000000 -0.005249 0.000000
# 3 0.002062 0.002062 0.031845 0.000000 0.000000 -0.000001
# 4 0.000000 0.000000 0.000000 -0.157791 -0.000006 -0.010497
# 5 0.005249 -0.005249 0.000000 -0.000006 -0.157788 0.000001
# 6 0.000000 0.000000 -0.000001 -0.010497 0.000001 0.042600
#
#
# Mechanical properties :
#
#
# Convention : Reuss Voigt Hill
#
# Bulk Modulus (GPa) = 18.59679 33.06344 25.83011
# Shear Modulus (GPa) = -26.47490 15.30801 -5.58345
#
# Velocity S-wave (km/s) = -3.73534 2.84035 -1.71540
# Velocity P-wave (km/s) = 2.96696 5.30866 3.11280
#
# Compressibility (1/GPa) = 0.05377272
#
# Stress axis : x y z
#
# Youngs Moduli (GPa) = 71.07395 71.07473 31.40195
#
# Poissons Ratio (x) = 0.51389 -0.06476
# Poissons Ratio (y) = 0.51389 -0.06475
# Poissons Ratio (z) = -0.14657 -0.14656
#
# Static dielectric constant tensor:
#      x y z
#    x 1.682610 0.000000 0.000000 
#    y 0.000000 1.682610 0.000000 
#    z 0.000000 0.000000 1.719560 
# 
# From -- ./inp_files/567.got.cif
#   From: 2010.05.17/outbox.cif.g08.bks.cpg/sg149_cif.got.tgz:567.got - 2010.05.20 13:52:34.
