data_PCOD9575151
_publ_section_title
;
Structure prediction by ZEFSAII (Michael W. Deem and Ramdas Pophale) SiO2 
 PCOD9575151
Probable space group: R -3
;
_chemical_formula_sum "Si O2"
_cell_formula_units_Z 114
_cell_length_a 20.305262
_cell_length_b 20.305262
_cell_length_c 13.803818
_cell_angle_alpha 90.000000
_cell_angle_beta 90.000000
_cell_angle_gamma 120.000000
_cell_volume 4928.866456
_symmetry_space_group_name_H-M "R -3"
_symmetry_group_IT_number 148
_symmetry_cell_setting 'hexagonal'
loop_
_space_group_symop_operation_xyz
x,y,z
-y,x-y,z
-x+y,-x,z
-x,-y,-z
y,-x+y,-z
x-y,x,-z
2/3+x,1/3+y,1/3+z
2/3-y,1/3+x-y,1/3+z
2/3-x+y,1/3-x,1/3+z
2/3-x,1/3-y,1/3-z
2/3+y,1/3-x+y,1/3-z
2/3+x-y,1/3+x,1/3-z
1/3+x,2/3+y,2/3+z
1/3-y,2/3+x-y,2/3+z
1/3-x+y,2/3-x,2/3+z
1/3-x,2/3-y,2/3-z
1/3+y,2/3-x+y,2/3-z
1/3+x-y,2/3+x,2/3-z
loop_
_atom_site_type_symbol
_atom_site_label
_atom_site_fract_x
_atom_site_fract_y
_atom_site_fract_z
Si Si1 0.278298 0.152082 0.075869
Si Si2 0.802267 0.795979 0.168639
Si Si3 0.291765 0.131772 0.862300
Si Si4 0.979227 0.841815 0.629354
Si Si5 0.666668 0.333334 0.949605
Si Si6 0.095554 0.615394 0.104315
Si Si7 0.641201 0.976494 0.787188
O O1 0.333334 0.166667 0.166667
O O2 0.278985 0.231152 0.061964
O O3 0.204117 0.074586 0.110661
O O4 0.306695 0.134752 0.976841
O O5 0.783837 0.862061 0.144107
O O6 0.812666 0.801728 0.284788
O O7 0.725905 0.714430 0.152674
O O8 0.358906 0.205150 0.812844
O O9 0.292023 0.059042 0.819779
O O10 0.887475 0.803992 0.630425
O O11 0.004981 0.825733 0.525432
O O12 0.012156 0.930963 0.645621
O O13 0.666668 0.333335 0.833334
O O14 0.055991 0.663688 0.071572
#
# Coordination Sequence:
#
# PCOD9575151 Si02
#       7
#    18  18  18  18   6  18  18
#     4  10  21  42  63  92 130 178 232 286 349 414
#     4  10  25  42  64  97 136 180 231 290 347 429
#     4  11  22  41  65  97 131 180 227 286 352 411
#     4  12  23  44  65 100 140 182 234 283 352 421
#     4  12  24  42  69  93 136 185 223 276 342 417
#     4  11  21  39  65  98 138 177 226 286 352 424
#     4  10  22  40  63  96 131 177 222 288 353 410
#
# _framework density 23.129049999999999
#
# number of rings (size 3 to 8) (size 9 to 14) (size 15 to 20)
#    0.000    1.263    3.158    2.842    0.000    6.316 
#   11.368    0.000    0.000    0.632    0.000    3.316 
#    0.000    0.000    0.000    0.000    0.000    0.000 
#
# Total GULP energy -212079.673768 kJ/mol
# GULP energy per Si atom -5581.044047 kJ/mol
# Density = 2.307641 g / cm^3
# Si number density = 23.129050 Si / 1000 Ang^3
#
#
#
# Elastic Constant Matrix: (Units=GPa)
#
#
# Indices 1 2 3 4 5 6 
#
# 1 128.0025 40.0200 18.0136 1.8154 4.9740 -0.0001
# 2 40.0200 128.0047 18.0140 -1.8151 -4.9739 -0.0001
# 3 18.0136 18.0140 62.6595 0.0000 0.0000 0.0000
# 4 1.8154 -1.8151 0.0000 10.8863 0.0000 -4.9737
# 5 4.9740 -4.9739 0.0000 0.0000 10.8864 1.8152
# 6 -0.0001 -0.0001 0.0000 -4.9737 1.8152 43.9920
#
#
#
# Elastic Compliance Matrix: (Units=1/GPa)
#
#
# Indices 1 2 3 4 5 6 
#
# 1 0.009208 -0.002865 -0.001823 -0.002013 -0.005516 0.000000
# 2 -0.002865 0.009207 -0.001823 0.002013 0.005516 0.000000
# 3 -0.001823 -0.001823 0.017008 0.000000 0.000000 0.000000
# 4 -0.002013 0.002013 0.000000 0.097570 0.000000 0.011031
# 5 -0.005516 0.005516 0.000000 0.000000 0.097569 -0.004026
# 6 0.000000 0.000000 0.000000 0.011031 -0.004026 0.024145
#
#
# Mechanical properties :
#
#
# Convention : Reuss Voigt Hill
#
# Bulk Modulus (GPa) = 44.64457 52.30687 48.47572
# Shear Modulus (GPa) = 18.16885 29.32755 23.74820
#
# Velocity S-wave (km/s) = 2.80579 3.56476 3.20780
# Velocity P-wave (km/s) = 5.46268 6.29346 5.89273
#
# Compressibility (1/GPa) = 0.02239914
#
# Stress axis : x y z
#
# Youngs Moduli (GPa) = 108.60627 108.60823 58.79703
#
# Poissons Ratio (x) = 0.31116 0.10721
# Poissons Ratio (y) = 0.31115 0.10721
# Poissons Ratio (z) = 0.19803 0.19804
#
# Static dielectric constant tensor:
#      x y z
#    x 1.950180 0.000000 0.000000 
#    y 0.000000 1.950190 0.000000 
#    z 0.000000 0.000000 1.903640 
# 
# From -- ./inp_files/2129.got.cif
#   From: 2010.05.17/outbox.cif.g08.bks.cpg/sg148_2_cif.got.tgz:2129.got - 2010.05.20 13:50:20.
