data_PCOD9575697
_publ_section_title
;
Structure prediction by ZEFSAII (Michael W. Deem and Ramdas Pophale) SiO2 
 PCOD9575697
Probable space group: P 31 1 2
;
_chemical_formula_sum "Si O2"
_cell_formula_units_Z 36
_cell_length_a 11.646697
_cell_length_b 11.646697
_cell_length_c 12.874621
_cell_angle_alpha 90.000000
_cell_angle_beta 90.000000
_cell_angle_gamma 120.000000
_cell_volume 1512.413826
_symmetry_space_group_name_H-M "P 31 1 2"
_symmetry_group_IT_number 151
_symmetry_cell_setting 'hexagonal'
loop_
_space_group_symop_operation_xyz
x,y,z
-y,x-y,1/3+z
-x+y,-x,2/3+z
-y,-x,2/3-z
-x+y,y,1/3-z
x,x-y,-z
loop_
_atom_site_type_symbol
_atom_site_label
_atom_site_fract_x
_atom_site_fract_y
_atom_site_fract_z
Si Si1 0.423272 0.848381 0.337963
Si Si2 0.485579 0.966004 0.791231
Si Si3 0.188580 0.355297 0.439494
Si Si4 0.761879 0.278886 0.210035
Si Si5 0.714910 0.680344 0.923184
Si Si6 0.118563 0.129290 0.282125
O O1 0.279316 0.720685 0.333334
O O2 0.475704 0.863453 0.455962
O O3 0.517649 0.824877 0.260255
O O4 0.404945 0.975309 0.311016
O O5 0.471758 0.943516 0.666667
O O6 0.611517 0.945556 0.806552
O O7 0.489333 0.098777 0.828857
O O8 0.144480 0.259621 0.342141
O O9 0.090925 0.289321 0.534882
O O10 0.743087 0.256913 0.333334
O O11 0.660414 0.320828 0.166667
O O12 0.721507 0.136984 0.162642
O O13 0.864608 0.752621 0.967687
O O14 0.068530 0.137059 0.166667
O O15 0.996647 0.003354 0.333334
#
# Coordination Sequence:
#
# PCOD9575697 Si02
#       6
#     6   6   6   6   6   6
#     4  12  27  50  79 113 160 214 271 334 417 481
#     4  12  28  47  74 120 160 209 269 339 404 482
#     4  12  27  46  79 112 156 208 269 340 401 486
#     4  12  27  51  80 114 158 213 266 332 410 489
#     4  12  26  50  78 116 157 209 271 329 405 490
#     4  12  28  49  75 113 156 209 266 326 405 488
#
# _framework density 23.803008999999999
#
# number of rings (size 3 to 8) (size 9 to 14) (size 15 to 20)
#    0.000    0.000    3.333    6.000    7.000    2.667 
#    0.000    0.000    0.000    0.000    0.000    0.000 
#    0.000    0.000    0.000    0.000    0.000    0.000 
#
# Total GULP energy -201224.532467 kJ/mol
# GULP energy per Si atom -5589.570346 kJ/mol
# Density = 2.374883 g / cm^3
# Si number density = 23.803009 Si / 1000 Ang^3
#
#
#
# Elastic Constant Matrix: (Units=GPa)
#
#
# Indices 1 2 3 4 5 6 
#
# 1 119.6798 11.0255 29.7273 -0.0030 16.7609 0.0000
# 2 11.0255 119.6798 29.7273 0.0030 -16.7609 0.0000
# 3 29.7273 29.7273 126.7264 0.0000 0.0000 0.0000
# 4 -0.0030 0.0030 0.0000 48.2468 0.0000 -16.7609
# 5 16.7609 -16.7609 0.0000 0.0000 48.2468 -0.0030
# 6 0.0000 0.0000 0.0000 -16.7609 -0.0030 54.3272
#
#
#
# Elastic Compliance Matrix: (Units=1/GPa)
#
#
# Indices 1 2 3 4 5 6 
#
# 1 0.009437 -0.000872 -0.002009 0.000001 -0.003581 0.000000
# 2 -0.000872 0.009437 -0.002009 -0.000001 0.003581 0.000000
# 3 -0.002009 -0.002009 0.008834 0.000000 0.000000 0.000000
# 4 0.000001 -0.000001 0.000000 0.023215 0.000000 0.007162
# 5 -0.003581 0.003581 0.000000 0.000000 0.023215 0.000001
# 6 0.000000 0.000000 0.000000 0.007162 0.000001 0.020617
#
#
# Mechanical properties :
#
#
# Convention : Reuss Voigt Hill
#
# Bulk Modulus (GPa) = 55.78301 56.33845 56.06073
# Shear Modulus (GPa) = 45.24536 49.87124 47.55830
#
# Velocity S-wave (km/s) = 4.36458 4.58226 4.47474
# Velocity P-wave (km/s) = 6.99182 7.19140 7.09231
#
# Compressibility (1/GPa) = 0.01792661
#
# Stress axis : x y z
#
# Youngs Moduli (GPa) = 105.97138 105.97138 113.20425
#
# Poissons Ratio (x) = 0.09239 0.22744
# Poissons Ratio (y) = 0.09239 0.22744
# Poissons Ratio (z) = 0.21291 0.21291
#
# Static dielectric constant tensor:
#      x y z
#    x 1.950060 0.000000 0.000000 
#    y 0.000000 1.950060 0.000000 
#    z 0.000000 0.000000 1.984540 
# 
# From -- ./inp_files/2951.got.cif
#   From: 2010.05.17/outbox.cif.g08.bks.cpg/sg151_2_cif.got.tgz:2951.got - 2010.05.20 10:33:20.
