data_PCOD9575984
_publ_section_title
;
Structure prediction by ZEFSAII (Michael W. Deem and Ramdas Pophale) SiO2 
 PCOD9575984
Probable space group: P 31 2 1
;
_chemical_formula_sum "Si O2"
_cell_formula_units_Z 18
_cell_length_a 9.332908
_cell_length_b 9.332908
_cell_length_c 7.989650
_cell_angle_alpha 90.000000
_cell_angle_beta 90.000000
_cell_angle_gamma 120.000000
_cell_volume 602.687738
_symmetry_space_group_name_H-M "P 31 2 1"
_symmetry_group_IT_number 152
_symmetry_cell_setting 'hexagonal'
loop_
_space_group_symop_operation_xyz
x,y,z
-y,x-y,1/3+z
-x+y,-x,2/3+z
x-y,-y,2/3-z
-x,-x+y,1/3-z
y,x,-z
loop_
_atom_site_type_symbol
_atom_site_label
_atom_site_fract_x
_atom_site_fract_y
_atom_site_fract_z
Si Si1 0.696586 0.262842 0.216403
Si Si2 0.941552 0.184633 0.400397
Si Si3 0.325960 0.325103 0.675232
O O1 0.648245 0.332189 0.379720
O O2 0.857552 0.260028 0.283601
O O3 0.604207 0.070873 0.151578
O O4 0.882897 0.000000 0.333334
O O5 0.839689 0.145316 0.574987
O O6 0.862462 0.142286 0.951445
O O7 0.407153 0.407153 0.500000
#
# Coordination Sequence:
#
# PCOD9575984 Si02
#       3
#     6   6   6
#     4  11  27  48  70 104 151 207 252 292 365 456
#     4  10  21  44  72 111 143 187 246 313 385 427
#     4  11  23  44  78 113 148 187 250 323 386 435
#
# _framework density 29.866209000000001
#
# number of rings (size 3 to 8) (size 9 to 14) (size 15 to 20)
#    0.000    1.333    0.000    7.000    4.667    2.667 
#   24.000    0.000    0.000    0.000    0.000    0.000 
#    0.000    0.000    0.000    0.000    0.000    0.000 
#
# Total GULP energy -100517.266888 kJ/mol
# GULP energy per Si atom -5584.292605 kJ/mol
# Density = 2.979823 g / cm^3
# Si number density = 29.866209 Si / 1000 Ang^3
#
#
#
# Elastic Constant Matrix: (Units=GPa)
#
#
# Indices 1 2 3 4 5 6 
#
# 1 107.7456 18.6202 59.4469 6.2991 0.0000 0.0000
# 2 18.6202 107.7456 59.4469 -6.2991 0.0000 0.0000
# 3 59.4469 59.4469 307.9552 0.0000 0.0000 0.0000
# 4 6.2991 -6.2991 0.0000 65.0267 0.0000 0.0000
# 5 0.0000 0.0000 0.0000 0.0000 65.0267 6.2991
# 6 0.0000 0.0000 0.0000 0.0000 6.2991 44.5627
#
#
#
# Elastic Compliance Matrix: (Units=1/GPa)
#
#
# Indices 1 2 3 4 5 6 
#
# 1 0.010523 -0.000853 -0.001867 -0.001102 0.000000 0.000000
# 2 -0.000853 0.010523 -0.001867 0.001102 0.000000 0.000000
# 3 -0.001867 -0.001867 0.003968 0.000000 0.000000 0.000000
# 4 -0.001102 0.001102 0.000000 0.015592 0.000000 0.000000
# 5 0.000000 0.000000 0.000000 0.000000 0.015592 -0.002204
# 6 0.000000 0.000000 0.000000 0.000000 -0.002204 0.022752
#
#
# Mechanical properties :
#
#
# Convention : Reuss Voigt Hill
#
# Bulk Modulus (GPa) = 63.12756 88.71937 75.92346
# Shear Modulus (GPa) = 53.53205 60.65204 57.09204
#
# Velocity S-wave (km/s) = 4.23826 4.51132 4.37692
# Velocity P-wave (km/s) = 6.71812 7.54361 7.14280
#
# Compressibility (1/GPa) = 0.01584094
#
# Stress axis : x y z
#
# Youngs Moduli (GPa) = 95.03126 95.03126 252.02337
#
# Poissons Ratio (x) = 0.08107 0.47044
# Poissons Ratio (y) = 0.08107 0.47044
# Poissons Ratio (z) = 0.17739 0.17739
#
# Static dielectric constant tensor:
#      x y z
#    x 2.461870 0.000000 0.000000 
#    y 0.000000 2.461870 0.000000 
#    z 0.000000 0.000000 2.735280 
# 
# From -- ./inp_files/830.got.cif
#   From: 2010.05.17/outbox.cif.g08.bks.cpg/sg152_1_cif.got.tgz:830.got - 2010.05.20 10:36:06.
