data_PCOD9575946
_publ_section_title
;
Structure prediction by ZEFSAII (Michael W. Deem and Ramdas Pophale) SiO2 
 PCOD9575946
Probable space group: P 31 2 1
;
_chemical_formula_sum "Si O2"
_cell_formula_units_Z 36
_cell_length_a 9.258264
_cell_length_b 9.258264
_cell_length_c 21.390270
_cell_angle_alpha 90.000000
_cell_angle_beta 90.000000
_cell_angle_gamma 120.000000
_cell_volume 1587.837372
_symmetry_space_group_name_H-M "P 31 2 1"
_symmetry_group_IT_number 152
_symmetry_cell_setting 'hexagonal'
loop_
_space_group_symop_operation_xyz
x,y,z
-y,x-y,1/3+z
-x+y,-x,2/3+z
x-y,-y,2/3-z
-x,-x+y,1/3-z
y,x,-z
loop_
_atom_site_type_symbol
_atom_site_label
_atom_site_fract_x
_atom_site_fract_y
_atom_site_fract_z
Si Si1 0.523310 0.451158 0.793492
Si Si2 0.781995 0.125093 0.242490
Si Si3 0.000000 0.495818 0.666667
Si Si4 0.863199 0.624768 0.339289
Si Si5 0.450764 0.656845 0.876832
Si Si6 0.052666 0.052666 0.000000
Si Si7 0.463317 0.971173 0.921934
O O1 0.403280 0.329081 0.848114
O O2 0.425655 0.366870 0.730516
O O3 0.534365 0.619825 0.817930
O O4 0.699517 0.453048 0.791296
O O5 0.665204 0.130858 0.297724
O O6 0.848719 0.009862 0.271960
O O7 0.933282 0.306417 0.230264
O O8 0.899201 0.374314 0.724705
O O9 0.667205 0.533274 0.355457
O O10 0.903419 0.547893 0.280374
O O11 0.942592 0.824120 0.333609
O O12 0.476248 0.839912 0.878205
#
# Coordination Sequence:
#
# PCOD9575946 Si02
#       7
#     6   6   3   6   6   3   6
#     4  10  22  39  61  93 126 161 202 258 312 365
#     4   9  18  37  60  83 124 164 199 241 307 371
#     4   9  18  37  58  84 120 168 202 240 304 378
#     4  10  22  39  61  86 119 158 207 249 298 361
#     4  10  22  37  60  89 121 159 205 252 311 364
#     4   9  20  35  60  90 116 162 206 242 294 366
#     4  10  21  38  61  89 120 163 205 250 305 374
#
# _framework density 22.672350000000002
#
# number of rings (size 3 to 8) (size 9 to 14) (size 15 to 20)
#    0.000    2.333    0.000    2.000    0.000   14.667 
#    0.000    0.000    0.000    8.000    0.000    0.000 
#    0.000    0.000    0.000    0.000    0.000    0.000 
#
# Total GULP energy -200904.828744 kJ/mol
# GULP energy per Si atom -5580.689687 kJ/mol
# Density = 2.262075 g / cm^3
# Si number density = 22.672350 Si / 1000 Ang^3
#
#
#
# Elastic Constant Matrix: (Units=GPa)
#
#
# Indices 1 2 3 4 5 6 
#
# 1 70.0280 22.1509 24.3376 18.5011 0.0001 0.0000
# 2 22.1509 70.0280 24.3376 -18.5011 -0.0001 0.0000
# 3 24.3376 24.3376 84.5836 0.0000 0.0000 0.0000
# 4 18.5011 -18.5011 0.0000 21.0835 0.0000 -0.0001
# 5 0.0001 -0.0001 0.0000 0.0000 21.0835 18.5011
# 6 0.0000 0.0000 0.0000 -0.0001 18.5011 23.9386
#
#
#
# Elastic Compliance Matrix: (Units=1/GPa)
#
#
# Indices 1 2 3 4 5 6 
#
# 1 0.038849 -0.026056 -0.003681 -0.056955 0.000000 0.000000
# 2 -0.026056 0.038849 -0.003681 0.056955 0.000000 0.000000
# 3 -0.003681 -0.003681 0.013941 0.000000 0.000000 0.000000
# 4 -0.056955 0.056955 0.000000 0.147389 0.000000 0.000001
# 5 0.000000 0.000000 0.000000 0.000000 0.147389 -0.113910
# 6 0.000000 0.000000 0.000000 0.000001 -0.113910 0.129810
#
#
# Mechanical properties :
#
#
# Convention : Reuss Voigt Hill
#
# Bulk Modulus (GPa) = 40.31926 40.69908 40.50917
# Shear Modulus (GPa) = 8.45553 23.47534 15.96544
#
# Velocity S-wave (km/s) = 1.93327 3.22128 2.65652
# Velocity P-wave (km/s) = 4.77551 5.64141 5.22642
#
# Compressibility (1/GPa) = 0.02480204
#
# Stress axis : x y z
#
# Youngs Moduli (GPa) = 25.74099 25.74099 71.73210
#
# Poissons Ratio (x) = 0.67072 0.26403
# Poissons Ratio (y) = 0.67072 0.26403
# Poissons Ratio (z) = 0.09475 0.09475
#
# Static dielectric constant tensor:
#      x y z
#    x 1.851870 0.000000 0.000000 
#    y 0.000000 1.851870 0.000000 
#    z 0.000000 0.000000 2.023720 
# 
# From -- ./inp_files/3450.got.cif
#   From: 2010.05.17/outbox.cif.g08.bks.cpg/sg152_2_cif.got.tgz:3450.got - 2010.05.20 10:36:06.
