data_PCOD9575183
_publ_section_title
;
Structure prediction by ZEFSAII (Michael W. Deem and Ramdas Pophale) SiO2 
 PCOD9575183
Probable space group: R -3
;
_chemical_formula_sum "Si O2"
_cell_formula_units_Z 78
_cell_length_a 23.347088
_cell_length_b 23.347088
_cell_length_c 7.923347
_cell_angle_alpha 90.000000
_cell_angle_beta 90.000000
_cell_angle_gamma 120.000000
_cell_volume 3740.285454
_symmetry_space_group_name_H-M "R -3"
_symmetry_group_IT_number 148
_symmetry_cell_setting 'hexagonal'
loop_
_space_group_symop_operation_xyz
x,y,z
-y,x-y,z
-x+y,-x,z
-x,-y,-z
y,-x+y,-z
x-y,x,-z
2/3+x,1/3+y,1/3+z
2/3-y,1/3+x-y,1/3+z
2/3-x+y,1/3-x,1/3+z
2/3-x,1/3-y,1/3-z
2/3+y,1/3-x+y,1/3-z
2/3+x-y,1/3+x,1/3-z
1/3+x,2/3+y,2/3+z
1/3-y,2/3+x-y,2/3+z
1/3-x+y,2/3-x,2/3+z
1/3-x,2/3-y,2/3-z
1/3+y,2/3-x+y,2/3-z
1/3+x-y,2/3+x,2/3-z
loop_
_atom_site_type_symbol
_atom_site_label
_atom_site_fract_x
_atom_site_fract_y
_atom_site_fract_z
Si Si1 0.230947 0.221199 0.593185
Si Si2 0.581286 0.945368 0.898781
Si Si3 0.453526 0.030535 0.459982
Si Si4 0.956999 0.872103 0.603340
Si Si5 0.666668 0.333334 0.526899
O O1 0.216671 0.236478 0.402231
O O2 0.310311 0.260154 0.610350
O O3 0.202148 0.249531 0.732108
O O4 0.201074 0.143810 0.631918
O O5 0.540217 0.939359 0.728823
O O6 0.638534 0.927960 0.855439
O O7 0.500000 0.000000 0.500000
O O8 0.908080 0.876557 0.470892
O O9 0.963578 0.924157 0.743971
O O10 0.666668 0.333335 0.333334
#
# Coordination Sequence:
#
# PCOD9575183 Si02
#       5
#    18  18  18  18   6
#     4  11  20  41  65  89 129 170 215 263 335 393
#     4  10  22  43  62  87 136 175 208 276 334 381
#     4  11  22  40  65  90 125 177 224 267 329 397
#     4   9  21  41  65  91 125 168 214 267 334 396
#     4   9  19  47  70  93 136 167 211 294 334 383
#
# _framework density 20.854022000000001
#
# number of rings (size 3 to 8) (size 9 to 14) (size 15 to 20)
#    0.000    1.846    4.615    0.923    6.462    0.923 
#   12.462    0.000    0.000    0.000    0.000    0.000 
#    0.000    0.000    0.000    0.000    0.000    0.000 
#
# Total GULP energy -145004.025591 kJ/mol
# GULP energy per Si atom -5577.077907 kJ/mol
# Density = 2.080656 g / cm^3
# Si number density = 20.854022 Si / 1000 Ang^3
#
#
#
# Elastic Constant Matrix: (Units=GPa)
#
#
# Indices 1 2 3 4 5 6 
#
# 1 59.7783 7.1562 -0.0371 -3.0285 0.2319 0.0144
# 2 7.1562 59.8513 0.0218 3.0029 -0.2631 0.0027
# 3 -0.0371 0.0218 130.8104 -0.0205 -0.0061 0.0068
# 4 -3.0285 3.0029 -0.0205 8.2021 -0.0132 -0.2855
# 5 0.2319 -0.2631 -0.0061 -0.0132 8.1330 -3.0022
# 6 0.0144 0.0027 0.0068 -0.2855 -3.0022 26.3499
#
#
#
# Elastic Compliance Matrix: (Units=1/GPa)
#
#
# Indices 1 2 3 4 5 6 
#
# 1 0.017395 -0.002450 0.000006 0.007319 -0.000561 0.000006
# 2 -0.002450 0.017368 -0.000005 -0.007262 0.000617 -0.000009
# 3 0.000006 -0.000005 0.007645 0.000023 0.000005 -0.000001
# 4 0.007319 -0.007262 0.000023 0.127331 0.000282 0.001409
# 5 -0.000561 0.000617 0.000005 0.000282 0.128394 0.014632
# 6 0.000006 -0.000009 -0.000001 0.001409 0.014632 0.039633
#
#
# Mechanical properties :
#
#
# Convention : Reuss Voigt Hill
#
# Bulk Modulus (GPa) = 26.65821 29.41356 28.03588
# Shear Modulus (GPa) = 14.07796 24.75693 19.41745
#
# Velocity S-wave (km/s) = 2.60103 3.44925 3.05472
# Velocity P-wave (km/s) = 4.67242 5.47706 5.09066
#
# Compressibility (1/GPa) = 0.03751189
#
# Stress axis : x y z
#
# Youngs Moduli (GPa) = 57.48879 57.57706 130.81032
#
# Poissons Ratio (x) = 0.14104 -0.00084
# Poissons Ratio (y) = 0.14082 0.00061
# Poissons Ratio (z) = -0.00037 0.00027
#
# Static dielectric constant tensor:
#      x y z
#    x 1.410170 0.001470 -0.000070 
#    y 0.001470 1.408230 0.000120 
#    z -0.000070 0.000120 1.757500 
# 
# From -- ./inp_files/960.got.cif
#   From: 2010.05.17/outbox.cif.g08.bks.cpg/sg148_1_cif.got.tgz:960.got - 2010.05.20 13:50:20.
