data_PCOD9575546
_publ_section_title
;
Structure prediction by ZEFSAII (Michael W. Deem and Ramdas Pophale) SiO2 
 PCOD9575546
Probable space group: P 31 1 2
;
_chemical_formula_sum "Si O2"
_cell_formula_units_Z 24
_cell_length_a 8.605884
_cell_length_b 8.605884
_cell_length_c 16.372458
_cell_angle_alpha 90.000000
_cell_angle_beta 90.000000
_cell_angle_gamma 120.000000
_cell_volume 1050.111688
_symmetry_space_group_name_H-M "P 31 1 2"
_symmetry_group_IT_number 151
_symmetry_cell_setting 'hexagonal'
loop_
_space_group_symop_operation_xyz
x,y,z
-y,x-y,1/3+z
-x+y,-x,2/3+z
-y,-x,2/3-z
-x+y,y,1/3-z
x,x-y,-z
loop_
_atom_site_type_symbol
_atom_site_label
_atom_site_fract_x
_atom_site_fract_y
_atom_site_fract_z
Si Si1 0.255565 0.942488 0.005213
Si Si2 0.397183 0.378535 0.255236
Si Si3 0.166011 0.457608 0.833134
Si Si4 0.979614 0.587592 0.414550
O O1 0.171272 0.827912 0.088822
O O2 0.462311 0.991610 0.012920
O O3 0.144633 0.805323 0.933291
O O4 0.245066 0.122533 0.000000
O O5 0.503018 0.496983 0.333334
O O6 0.504076 0.508464 0.179444
O O7 0.398516 0.195739 0.259512
O O8 0.342536 0.657465 0.833334
O O9 0.216027 0.371243 0.758606
O O10 0.957462 0.478731 0.500000
#
# Coordination Sequence:
#
# PCOD9575546 Si02
#       4
#     6   6   6   6
#     4   9  18  34  54  79 110 142 189 241 280 339
#     4  10  19  35  59  82 110 155 193 233 294 343
#     4   8  18  34  51  78 110 142 185 230 282 339
#     4   9  19  37  55  79 113 147 188 236 282 343
#
# _framework density 22.854709
#
# number of rings (size 3 to 8) (size 9 to 14) (size 15 to 20)
#    0.000    3.500    0.000    0.750    0.000    4.000 
#    0.000   13.750    0.000    3.000    0.000    0.000 
#    0.000    0.000    0.000    0.000    0.000    0.000 
#
# Total GULP energy -133780.899096 kJ/mol
# GULP energy per Si atom -5574.204129 kJ/mol
# Density = 2.280269 g / cm^3
# Si number density = 22.854709 Si / 1000 Ang^3
#
#
#
# Elastic Constant Matrix: (Units=GPa)
#
#
# Indices 1 2 3 4 5 6 
#
# 1 118.7205 112.3425 29.6145 -0.0028 5.3180 0.0000
# 2 112.3425 118.7205 29.6145 0.0028 -5.3180 0.0000
# 3 29.6145 29.6145 82.8432 0.0000 0.0000 0.0000
# 4 -0.0028 0.0028 0.0000 9.7029 0.0000 -5.3180
# 5 5.3180 -5.3180 0.0000 0.0000 9.7029 -0.0028
# 6 0.0000 0.0000 0.0000 -5.3180 -0.0028 3.1890
#
#
#
# Elastic Compliance Matrix: (Units=1/GPa)
#
#
# Indices 1 2 3 4 5 6 
#
# 1 0.913854 -0.909090 -0.001703 0.000532 -0.999123 0.000004
# 2 -0.909090 0.913854 -0.001703 -0.000532 0.999123 -0.000004
# 3 -0.001703 -0.001703 0.013289 0.000000 0.000000 0.000000
# 4 0.000532 -0.000532 0.000000 1.198261 -0.000003 1.998240
# 5 -0.999123 0.999123 0.000000 -0.000003 1.198265 0.001055
# 6 0.000004 -0.000004 0.000000 1.998240 0.001055 3.645879
#
#
# Mechanical properties :
#
#
# Convention : Reuss Voigt Hill
#
# Bulk Modulus (GPa) = 62.48116 73.71416 68.09766
# Shear Modulus (GPa) = 0.51474 14.43312 7.47393
#
# Velocity S-wave (km/s) = 0.47509 2.51572 1.81033
# Velocity P-wave (km/s) = 5.26296 6.38450 5.85067
#
# Compressibility (1/GPa) = 0.01600482
#
# Stress axis : x y z
#
# Youngs Moduli (GPa) = 1.09427 1.09427 75.25205
#
# Poissons Ratio (x) = 0.99479 0.12817
# Poissons Ratio (y) = 0.99479 0.12817
# Poissons Ratio (z) = 0.00186 0.00186
#
# Static dielectric constant tensor:
#      x y z
#    x 1.876950 0.000000 0.000000 
#    y 0.000000 1.876950 0.000000 
#    z 0.000000 0.000000 1.984990 
# 
# From -- ./inp_files/3740.got.cif
#   From: 2010.05.17/outbox.cif.g08.bks.cpg/sg151_2_cif.got.tgz:3740.got - 2010.05.20 10:33:20.
