data_PCOD9575996
_publ_section_title
;
Structure prediction by ZEFSAII (Michael W. Deem and Ramdas Pophale) SiO2 
 PCOD9575996
Probable space group: P 31 2 1
;
_chemical_formula_sum "Si O2"
_cell_formula_units_Z 30
_cell_length_a 7.083061
_cell_length_b 7.083061
_cell_length_c 27.591072
_cell_angle_alpha 90.000000
_cell_angle_beta 90.000000
_cell_angle_gamma 120.000000
_cell_volume 1198.784641
_symmetry_space_group_name_H-M "P 31 2 1"
_symmetry_group_IT_number 152
_symmetry_cell_setting 'hexagonal'
loop_
_space_group_symop_operation_xyz
x,y,z
-y,x-y,1/3+z
-x+y,-x,2/3+z
x-y,-y,2/3-z
-x,-x+y,1/3-z
y,x,-z
loop_
_atom_site_type_symbol
_atom_site_label
_atom_site_fract_x
_atom_site_fract_y
_atom_site_fract_z
Si Si1 0.096576 0.590491 0.770225
Si Si2 0.424599 0.393586 0.212077
Si Si3 0.385743 0.708664 0.290812
Si Si4 0.963887 0.955352 0.414196
Si Si5 0.304609 0.086179 0.654381
O O1 0.009476 0.523503 0.824924
O O2 0.926401 0.413180 0.732367
O O3 0.326035 0.597363 0.768710
O O4 0.092932 0.813673 0.760759
O O5 0.395483 0.563131 0.245945
O O6 0.196287 0.162172 0.212924
O O7 0.602678 0.769699 0.320116
O O8 0.197429 0.553237 0.327365
O O9 0.941493 0.819318 0.365312
O O10 0.111800 0.206021 0.396562
#
# Coordination Sequence:
#
# PCOD9575996 Si02
#       5
#     6   6   6   6   6
#     4  11  22  40  63  88 123 162 205 254 309 366
#     4  11  22  40  63  88 123 162 205 254 309 366
#     4  10  22  38  60  90 121 155 206 256 304 378
#     4   9  21  40  60  86 121 161 198 256 310 357
#     4   9  20  38  57  88 122 152 203 254 306 373
#
# _framework density 25.025344
#
# number of rings (size 3 to 8) (size 9 to 14) (size 15 to 20)
#    0.000    2.000    2.000    0.600    5.600    0.000 
#    0.000    0.000    0.000    0.000    0.000    0.000 
#    0.000    0.000    0.000    0.000    0.000    0.000 
#
# Total GULP energy -167460.736631 kJ/mol
# GULP energy per Si atom -5582.024554 kJ/mol
# Density = 2.496838 g / cm^3
# Si number density = 25.025344 Si / 1000 Ang^3
#
#
#
# Elastic Constant Matrix: (Units=GPa)
#
#
# Indices 1 2 3 4 5 6 
#
# 1 73.3552 9.9825 17.1524 -3.8001 0.0000 0.0000
# 2 9.9825 73.3552 17.1524 3.8001 0.0000 0.0000
# 3 17.1524 17.1524 89.7677 0.0000 0.0000 0.0000
# 4 -3.8001 3.8001 0.0000 38.4157 0.0000 0.0000
# 5 0.0000 0.0000 0.0000 0.0000 38.4157 -3.8001
# 6 0.0000 0.0000 0.0000 0.0000 -3.8001 31.6863
#
#
#
# Elastic Compliance Matrix: (Units=1/GPa)
#
#
# Indices 1 2 3 4 5 6 
#
# 1 0.014496 -0.001473 -0.002489 0.001580 0.000000 0.000000
# 2 -0.001473 0.014496 -0.002489 -0.001580 0.000000 0.000000
# 3 -0.002489 -0.002489 0.012091 0.000000 0.000000 0.000000
# 4 0.001580 -0.001580 0.000000 0.026344 0.000000 0.000000
# 5 0.000000 0.000000 0.000000 0.000000 0.026344 0.003159
# 6 0.000000 0.000000 0.000000 0.000000 0.003159 0.031938
#
#
# Mechanical properties :
#
#
# Convention : Reuss Voigt Hill
#
# Bulk Modulus (GPa) = 35.48080 36.11697 35.79889
# Shear Modulus (GPa) = 33.78305 34.51627 34.14966
#
# Velocity S-wave (km/s) = 3.67816 3.71786 3.69806
# Velocity P-wave (km/s) = 5.67866 5.73528 5.70704
#
# Compressibility (1/GPa) = 0.02818425
#
# Stress axis : x y z
#
# Youngs Moduli (GPa) = 68.98252 68.98252 82.70713
#
# Poissons Ratio (x) = 0.10159 0.20582
# Poissons Ratio (y) = 0.10159 0.20582
# Poissons Ratio (z) = 0.17166 0.17166
#
# Static dielectric constant tensor:
#      x y z
#    x 2.082870 0.000000 0.000000 
#    y 0.000000 2.082870 0.000000 
#    z 0.000000 0.000000 1.985820 
# 
# From -- ./inp_files/3005.got.cif
#   From: 2010.05.17/outbox.cif.g08.bks.cpg/sg152_2_cif.got.tgz:3005.got - 2010.05.20 10:36:06.
