data_PCOD9575319
_publ_section_title
;
Structure prediction by ZEFSAII (Michael W. Deem and Ramdas Pophale) SiO2 
 PCOD9575319
Probable space group: R -3
;
_chemical_formula_sum "Si O2"
_cell_formula_units_Z 60
_cell_length_a 19.907067
_cell_length_b 19.907067
_cell_length_c 6.840384
_cell_angle_alpha 90.000000
_cell_angle_beta 90.000000
_cell_angle_gamma 120.000000
_cell_volume 2347.608485
_symmetry_space_group_name_H-M "R -3"
_symmetry_group_IT_number 148
_symmetry_cell_setting 'hexagonal'
loop_
_space_group_symop_operation_xyz
x,y,z
-y,x-y,z
-x+y,-x,z
-x,-y,-z
y,-x+y,-z
x-y,x,-z
2/3+x,1/3+y,1/3+z
2/3-y,1/3+x-y,1/3+z
2/3-x+y,1/3-x,1/3+z
2/3-x,1/3-y,1/3-z
2/3+y,1/3-x+y,1/3-z
2/3+x-y,1/3+x,1/3-z
1/3+x,2/3+y,2/3+z
1/3-y,2/3+x-y,2/3+z
1/3-x+y,2/3-x,2/3+z
1/3-x,2/3-y,2/3-z
1/3+y,2/3-x+y,2/3-z
1/3+x-y,2/3+x,2/3-z
loop_
_atom_site_type_symbol
_atom_site_label
_atom_site_fract_x
_atom_site_fract_y
_atom_site_fract_z
Si Si1 0.666668 0.333334 0.072004
Si Si2 0.168249 0.033801 0.220672
Si Si3 0.022458 0.622043 0.619400
Si Si4 0.849053 0.104945 0.560513
O O1 0.666668 0.333335 0.833334
O O2 0.576952 0.296379 0.139549
O O3 0.237927 0.058620 0.066148
O O4 0.209180 0.078710 0.419513
O O5 0.143863 0.946325 0.271713
O O6 0.044843 0.700316 0.738721
O O7 0.953128 0.556301 0.744919
O O8 0.833334 0.166667 0.666667
#
# Coordination Sequence:
#
# PCOD9575319 Si02
#       4
#     6  18  18  18
#     4  12  24  48  81 105 163 220 260 307 385 500
#     4  12  24  46  75 115 154 213 261 318 394 473
#     4  12  25  48  79 119 155 197 262 336 406 465
#     4  12  24  45  78 114 156 201 258 329 400 473
#
# _framework density 25.557924
#
# number of rings (size 3 to 8) (size 9 to 14) (size 15 to 20)
#    0.000    0.000    6.000    4.500    0.000    0.000 
#    0.000    3.000    0.000   10.800    0.000    0.000 
#    0.000    0.000    0.000    0.000    0.000    0.000 
#
# Total GULP energy -112025.605200 kJ/mol
# GULP energy per Si atom -5601.280260 kJ/mol
# Density = 2.549975 g / cm^3
# Si number density = 25.557924 Si / 1000 Ang^3
#
#
#
# Elastic Constant Matrix: (Units=GPa)
#
#
# Indices 1 2 3 4 5 6 
#
# 1 91.0331 3.2646 3.5254 -5.1467 -6.9438 0.0146
# 2 3.2646 91.1450 3.5841 5.1621 6.9709 0.0157
# 3 3.5254 3.5841 76.1684 0.0530 0.0476 0.0341
# 4 -5.1467 5.1621 0.0530 39.2611 0.0506 6.9806
# 5 -6.9438 6.9709 0.0476 0.0506 39.2988 -5.1781
# 6 0.0146 0.0157 0.0341 6.9806 -5.1781 43.9055
#
#
#
# Elastic Compliance Matrix: (Units=1/GPa)
#
#
# Indices 1 2 3 4 5 6 
#
# 1 0.011275 -0.000634 -0.000494 0.001560 0.002103 -0.000003
# 2 -0.000634 0.011263 -0.000498 -0.001560 -0.002108 -0.000004
# 3 -0.000494 -0.000498 0.013175 -0.000015 -0.000016 -0.000009
# 4 0.001560 -0.001560 -0.000015 0.026634 -0.000041 -0.004239
# 5 0.002103 -0.002108 -0.000016 -0.000041 0.026606 0.003144
# 6 -0.000003 -0.000004 -0.000009 -0.004239 0.003144 0.023821
#
#
# Mechanical properties :
#
#
# Convention : Reuss Voigt Hill
#
# Bulk Modulus (GPa) = 30.80585 31.01051 30.90818
# Shear Modulus (GPa) = 39.41726 41.02457 40.22091
#
# Velocity S-wave (km/s) = 3.93144 4.01079 3.97131
# Velocity P-wave (km/s) = 5.71732 5.79727 5.75744
#
# Compressibility (1/GPa) = 0.03246137
#
# Stress axis : x y z
#
# Youngs Moduli (GPa) = 88.68797 88.78338 75.90040
#
# Poissons Ratio (x) = 0.05625 0.03753
# Poissons Ratio (y) = 0.05619 0.03782
# Poissons Ratio (z) = 0.04385 0.04424
#
# Static dielectric constant tensor:
#      x y z
#    x 2.076440 0.000010 0.005030 
#    y 0.000010 2.076440 0.004570 
#    z 0.005030 0.004570 -13.356590 
# 
# From -- ./inp_files/785.got.cif
#   From: 2010.05.17/outbox.cif.g08.bks.cpg/sg148_1_cif.got.tgz:785.got - 2010.05.20 13:50:20.
