data_PCOD9575750
_publ_section_title
;
Structure prediction by ZEFSAII (Michael W. Deem and Ramdas Pophale) SiO2 
 PCOD9575750
Probable space group: P 31 2 1
;
_chemical_formula_sum "Si O2"
_cell_formula_units_Z 33
_cell_length_a 9.417071
_cell_length_b 9.417071
_cell_length_c 24.618057
_cell_angle_alpha 90.000000
_cell_angle_beta 90.000000
_cell_angle_gamma 120.000000
_cell_volume 1890.671572
_symmetry_space_group_name_H-M "P 31 2 1"
_symmetry_group_IT_number 152
_symmetry_cell_setting 'hexagonal'
loop_
_space_group_symop_operation_xyz
x,y,z
-y,x-y,1/3+z
-x+y,-x,2/3+z
x-y,-y,2/3-z
-x,-x+y,1/3-z
y,x,-z
loop_
_atom_site_type_symbol
_atom_site_label
_atom_site_fract_x
_atom_site_fract_y
_atom_site_fract_z
Si Si1 0.848819 0.560268 0.703867
Si Si2 0.663694 0.603315 0.247813
Si Si3 0.030349 0.428300 0.544128
Si Si4 0.147718 0.172760 0.560565
Si Si5 0.249143 0.750757 0.371346
Si Si6 0.000000 0.139805 0.666667
O O1 0.733007 0.628929 0.721857
O O2 0.901271 0.501562 0.758393
O O3 0.772143 0.398217 0.666085
O O4 0.000000 0.687278 0.666667
O O5 0.588843 0.568214 0.187075
O O6 0.575303 0.436988 0.281282
O O7 0.860307 0.681910 0.240279
O O8 0.137613 0.339442 0.556927
O O9 0.855101 0.317652 0.573107
O O10 0.097372 0.097372 0.500000
O O11 0.029660 0.073490 0.610594
O O12 0.163542 0.842629 0.342342
#
# Coordination Sequence:
#
# PCOD9575750 Si02
#       6
#     6   6   6   6   6   3
#     4  10  20  36  52  76 113 139 172 227 274 316
#     4  11  22  30  58  87 102 132 191 231 261 324
#     4   9  18  40  56  73 107 148 174 217 278 336
#     4   9  19  34  55  80 106 141 183 222 271 331
#     4  10  19  35  57  74 108 146 179 212 275 334
#     4  10  18  38  56  72 112 156 174 216 280 348
#
# _framework density 17.454114000000001
#
# number of rings (size 3 to 8) (size 9 to 14) (size 15 to 20)
#    0.000    2.182    4.545    1.091    3.818    0.000 
#    0.000    0.000    0.000    0.000    0.000   15.273 
#    0.000    0.000    0.000    0.000    0.000    0.000 
#
# Total GULP energy -183721.591898 kJ/mol
# GULP energy per Si atom -5567.320967 kJ/mol
# Density = 1.741439 g / cm^3
# Si number density = 17.454114 Si / 1000 Ang^3
#
#
#
# Elastic Constant Matrix: (Units=GPa)
#
#
# Indices 1 2 3 4 5 6 
#
# 1 75.8594 53.5749 29.4506 9.4178 -0.0001 0.0000
# 2 53.5749 75.8594 29.4506 -9.4178 0.0001 0.0000
# 3 29.4506 29.4506 116.3886 0.0000 0.0000 0.0000
# 4 9.4178 -9.4178 0.0000 19.2330 0.0000 0.0001
# 5 -0.0001 0.0001 0.0000 0.0000 19.2330 9.4178
# 6 0.0000 0.0000 0.0000 0.0001 9.4178 11.1423
#
#
#
# Elastic Compliance Matrix: (Units=1/GPa)
#
#
# Indices 1 2 3 4 5 6 
#
# 1 0.042647 -0.033916 -0.002209 -0.037490 0.000001 0.000000
# 2 -0.033916 0.042647 -0.002209 0.037490 -0.000001 0.000000
# 3 -0.002209 -0.002209 0.009710 0.000000 0.000000 0.000000
# 4 -0.037490 0.037490 0.000000 0.088710 0.000000 -0.000001
# 5 0.000001 -0.000001 0.000000 0.000000 0.088710 -0.074981
# 6 0.000000 0.000000 0.000000 -0.000001 -0.074981 0.153125
#
#
# Mechanical properties :
#
#
# Convention : Reuss Voigt Hill
#
# Bulk Modulus (GPa) = 54.53971 54.78440 54.66206
# Shear Modulus (GPa) = 9.83615 20.29707 15.06661
#
# Velocity S-wave (km/s) = 2.37648 3.41381 2.94124
# Velocity P-wave (km/s) = 6.23262 6.85526 6.55134
#
# Compressibility (1/GPa) = 0.01833526
#
# Stress axis : x y z
#
# Youngs Moduli (GPa) = 23.44836 23.44836 102.98657
#
# Poissons Ratio (x) = 0.79526 0.22753
# Poissons Ratio (y) = 0.79526 0.22753
# Poissons Ratio (z) = 0.05181 0.05181
#
# Static dielectric constant tensor:
#      x y z
#    x 1.588130 0.000000 0.000000 
#    y 0.000000 1.588130 0.000000 
#    z 0.000000 0.000000 1.626170 
# 
# From -- ./inp_files/3393.got.cif
#   From: 2010.05.17/outbox.cif.g08.bks.cpg/sg152_2_cif.got.tgz:3393.got - 2010.05.20 10:36:06.
