data_PCOD9575161
_publ_section_title
;
Structure prediction by ZEFSAII (Michael W. Deem and Ramdas Pophale) SiO2 
 PCOD9575161
Probable space group: R -3
;
_chemical_formula_sum "Si O2"
_cell_formula_units_Z 126
_cell_length_a 19.338059
_cell_length_b 19.338059
_cell_length_c 19.215401
_cell_angle_alpha 90.000000
_cell_angle_beta 90.000000
_cell_angle_gamma 120.000000
_cell_volume 6223.086614
_symmetry_space_group_name_H-M "R -3"
_symmetry_group_IT_number 148
_symmetry_cell_setting 'hexagonal'
loop_
_space_group_symop_operation_xyz
x,y,z
-y,x-y,z
-x+y,-x,z
-x,-y,-z
y,-x+y,-z
x-y,x,-z
2/3+x,1/3+y,1/3+z
2/3-y,1/3+x-y,1/3+z
2/3-x+y,1/3-x,1/3+z
2/3-x,1/3-y,1/3-z
2/3+y,1/3-x+y,1/3-z
2/3+x-y,1/3+x,1/3-z
1/3+x,2/3+y,2/3+z
1/3-y,2/3+x-y,2/3+z
1/3-x+y,2/3-x,2/3+z
1/3-x,2/3-y,2/3-z
1/3+y,2/3-x+y,2/3-z
1/3+x-y,2/3+x,2/3-z
loop_
_atom_site_type_symbol
_atom_site_label
_atom_site_fract_x
_atom_site_fract_y
_atom_site_fract_z
Si Si1 0.193462 0.347731 0.550519
Si Si2 0.082593 0.189354 0.995672
Si Si3 0.612159 0.658878 0.884021
Si Si4 0.980306 0.225073 0.809715
Si Si5 0.365840 0.111449 0.698552
Si Si6 0.427617 0.223982 0.173259
Si Si7 0.732251 0.521111 0.827058
O O1 0.229222 0.401181 0.620134
O O2 0.252401 0.331488 0.502656
O O3 0.176039 0.405523 0.502844
O O4 0.111320 0.261487 0.549773
O O5 0.117440 0.220823 0.920176
O O6 0.129609 0.142042 0.015308
O O7 0.705327 0.718020 0.868316
O O8 0.592674 0.642344 0.964646
O O9 0.557470 0.694437 0.857889
O O10 0.962245 0.258276 0.740579
O O11 0.045508 0.198788 0.801461
O O12 0.333334 0.166667 0.666667
O O13 0.434607 0.164964 0.754893
O O14 0.333334 0.166667 0.166667
O O15 0.788380 0.480705 0.820810
#
# Coordination Sequence:
#
# PCOD9575161 Si02
#       7
#    18  18  18  18  18  18  18
#     4  11  21  39  68  97 128 173 224 267 332 397
#     4  12  24  42  68 100 140 189 230 273 342 407
#     4  11  22  42  62  97 132 165 222 275 330 399
#     4  10  22  39  63  92 130 167 213 276 331 393
#     4  11  23  41  67  93 127 174 219 277 339 393
#     4  10  23  40  59  96 132 168 216 280 328 395
#     4  11  25  48  70 100 133 176 224 284 345 415
#
# _framework density 20.247187
#
# number of rings (size 3 to 8) (size 9 to 14) (size 15 to 20)
#    0.000    1.143    5.714    2.000    0.000    6.857 
#    2.571    0.000    0.000    0.000    0.000    0.000 
#    0.000    0.000    0.000    0.000    0.000    0.000 
#
# Total GULP energy -234091.009062 kJ/mol
# GULP energy per Si atom -5573.595454 kJ/mol
# Density = 2.020110 g / cm^3
# Si number density = 20.247187 Si / 1000 Ang^3
#
#
#
# Elastic Constant Matrix: (Units=GPa)
#
#
# Indices 1 2 3 4 5 6 
#
# 1 66.0609 -5.3097 14.8189 -0.7739 0.3140 0.0000
# 2 -5.3097 66.0609 14.8189 0.7739 -0.3140 0.0000
# 3 14.8189 14.8189 117.8692 0.0000 0.0000 0.0000
# 4 -0.7739 0.7739 0.0000 27.2919 0.0000 -0.3140
# 5 0.3140 -0.3140 0.0000 0.0000 27.2919 -0.7739
# 6 0.0000 0.0000 0.0000 -0.3140 -0.7739 35.6853
#
#
#
# Elastic Compliance Matrix: (Units=1/GPa)
#
#
# Indices 1 2 3 4 5 6 
#
# 1 0.015779 0.001757 -0.002205 0.000398 -0.000161 0.000000
# 2 0.001757 0.015779 -0.002205 -0.000398 0.000161 0.000000
# 3 -0.002205 -0.002205 0.009038 0.000000 0.000000 0.000000
# 4 0.000398 -0.000398 0.000000 0.036667 0.000000 0.000323
# 5 -0.000161 0.000161 0.000000 0.000000 0.036667 0.000795
# 6 0.000000 0.000000 0.000000 0.000323 0.000795 0.028043
#
#
# Mechanical properties :
#
#
# Convention : Reuss Voigt Hill
#
# Bulk Modulus (GPa) = 28.33520 33.18306 30.75913
# Shear Modulus (GPa) = 31.43840 33.09800 32.26820
#
# Velocity S-wave (km/s) = 3.94474 4.04752 3.99646
# Velocity P-wave (km/s) = 5.89687 6.18610 6.04321
#
# Compressibility (1/GPa) = 0.03529180
#
# Stress axis : x y z
#
# Youngs Moduli (GPa) = 63.37627 63.37627 110.63968
#
# Poissons Ratio (x) = -0.11137 0.24393
# Poissons Ratio (y) = -0.11137 0.24393
# Poissons Ratio (z) = 0.13973 0.13973
#
# Static dielectric constant tensor:
#      x y z
#    x 1.694320 0.000000 0.000000 
#    y 0.000000 1.694320 0.000000 
#    z 0.000000 0.000000 1.710550 
# 
# From -- ./inp_files/2760.got.cif
#   From: 2010.05.17/outbox.cif.g08.bks.cpg/sg148_2_cif.got.tgz:2760.got - 2010.05.20 13:50:20.
