data_PCOD9575868
_publ_section_title
;
Structure prediction by ZEFSAII (Michael W. Deem and Ramdas Pophale) SiO2 
 PCOD9575868
Probable space group: P 31 2 1
;
_chemical_formula_sum "Si O2"
_cell_formula_units_Z 36
_cell_length_a 11.690088
_cell_length_b 11.690088
_cell_length_c 14.080409
_cell_angle_alpha 90.000000
_cell_angle_beta 90.000000
_cell_angle_gamma 120.000000
_cell_volume 1666.408464
_symmetry_space_group_name_H-M "P 31 2 1"
_symmetry_group_IT_number 152
_symmetry_cell_setting 'hexagonal'
loop_
_space_group_symop_operation_xyz
x,y,z
-y,x-y,1/3+z
-x+y,-x,2/3+z
x-y,-y,2/3-z
-x,-x+y,1/3-z
y,x,-z
loop_
_atom_site_type_symbol
_atom_site_label
_atom_site_fract_x
_atom_site_fract_y
_atom_site_fract_z
Si Si1 0.063622 0.319127 0.911375
Si Si2 0.000000 0.835497 0.666667
Si Si3 0.395531 0.790503 0.559123
Si Si4 0.300460 0.140670 0.302097
Si Si5 0.193495 0.334107 0.315560
Si Si6 0.000000 0.131565 0.166667
Si Si7 0.572081 0.154552 0.328237
O O1 0.081432 0.463614 0.916190
O O2 0.122485 0.311929 0.810238
O O3 0.154598 0.294984 0.987033
O O4 0.912115 0.213241 0.933885
O O5 0.983240 0.905073 0.574833
O O6 0.514237 0.797402 0.620116
O O7 0.417034 0.793457 0.445640
O O8 0.254672 0.671551 0.593905
O O9 0.277432 0.260217 0.328467
O O10 0.434728 0.154883 0.343341
O O11 0.179184 0.000000 0.333334
O O12 0.102701 0.259012 0.224396
O O13 0.530530 0.000000 0.333334
#
# Coordination Sequence:
#
# PCOD9575868 Si02
#       7
#     6   3   6   6   6   3   6
#     4  10  24  41  67  99 134 178 234 284 351 426
#     4  10  20  38  64  98 132 170 226 284 338 426
#     4  11  27  44  74 100 142 187 240 297 356 431
#     4  10  23  43  67  99 138 185 228 284 358 431
#     4  11  25  40  69 102 141 176 233 301 356 418
#     4  10  22  36  66  98 134 172 224 286 354 418
#     4  10  26  47  73 103 140 195 246 291 362 434
#
# _framework density 21.603345999999998
#
# number of rings (size 3 to 8) (size 9 to 14) (size 15 to 20)
#    0.000    1.667    1.667    0.000   17.500    3.333 
#    0.000    0.000    0.000    0.000    0.000    0.000 
#    0.000    0.000    0.000    0.000    0.000    0.000 
#
# Total GULP energy -200994.101954 kJ/mol
# GULP energy per Si atom -5583.169499 kJ/mol
# Density = 2.155418 g / cm^3
# Si number density = 21.603346 Si / 1000 Ang^3
#
#
#
# Elastic Constant Matrix: (Units=GPa)
#
#
# Indices 1 2 3 4 5 6 
#
# 1 92.0980 20.6059 16.6715 8.1285 -0.0001 0.0000
# 2 20.6059 92.0980 16.6715 -8.1285 0.0001 0.0000
# 3 16.6715 16.6715 64.9736 0.0000 0.0000 0.0000
# 4 8.1285 -8.1285 0.0000 26.4144 0.0000 0.0001
# 5 -0.0001 0.0001 0.0000 0.0000 26.4144 8.1285
# 6 0.0000 0.0000 0.0000 0.0001 8.1285 35.7461
#
#
#
# Elastic Compliance Matrix: (Units=1/GPa)
#
#
# Indices 1 2 3 4 5 6 
#
# 1 0.012321 -0.002719 -0.002464 -0.004628 0.000000 0.000000
# 2 -0.002719 0.012321 -0.002464 0.004628 0.000000 0.000000
# 3 -0.002464 -0.002464 0.016655 0.000000 0.000000 0.000000
# 4 -0.004628 0.004628 0.000000 0.040707 0.000000 0.000000
# 5 0.000000 0.000000 0.000000 0.000000 0.040707 -0.009257
# 6 0.000000 0.000000 0.000000 0.000000 -0.009257 0.030080
#
#
# Mechanical properties :
#
#
# Convention : Reuss Voigt Hill
#
# Bulk Modulus (GPa) = 38.45589 39.67412 39.06500
# Shear Modulus (GPa) = 28.28837 30.72970 29.50903
#
# Velocity S-wave (km/s) = 3.62255 3.77563 3.69988
# Velocity P-wave (km/s) = 5.94447 6.11652 6.03111
#
# Compressibility (1/GPa) = 0.02600382
#
# Stress axis : x y z
#
# Youngs Moduli (GPa) = 81.16329 81.16329 60.04143
#
# Poissons Ratio (x) = 0.22070 0.14792
# Poissons Ratio (y) = 0.22070 0.14792
# Poissons Ratio (z) = 0.19996 0.19996
#
# Static dielectric constant tensor:
#      x y z
#    x 1.828830 0.000000 0.000000 
#    y 0.000000 1.828830 0.000000 
#    z 0.000000 0.000000 1.814600 
# 
# From -- ./inp_files/2053.got.cif
#   From: 2010.05.17/outbox.cif.g08.bks.cpg/sg152_2_cif.got.tgz:2053.got - 2010.05.20 10:36:06.
