data_PCOD9575280
_publ_section_title
;
Structure prediction by ZEFSAII (Michael W. Deem and Ramdas Pophale) SiO2 
 PCOD9575280
Probable space group: R -3
;
_chemical_formula_sum "Si O2"
_cell_formula_units_Z 48
_cell_length_a 13.059232
_cell_length_b 13.059232
_cell_length_c 13.995890
_cell_angle_alpha 90.000000
_cell_angle_beta 90.000000
_cell_angle_gamma 120.000000
_cell_volume 2067.123512
_symmetry_space_group_name_H-M "R -3"
_symmetry_group_IT_number 148
_symmetry_cell_setting 'hexagonal'
loop_
_space_group_symop_operation_xyz
x,y,z
-y,x-y,z
-x+y,-x,z
-x,-y,-z
y,-x+y,-z
x-y,x,-z
2/3+x,1/3+y,1/3+z
2/3-y,1/3+x-y,1/3+z
2/3-x+y,1/3-x,1/3+z
2/3-x,1/3-y,1/3-z
2/3+y,1/3-x+y,1/3-z
2/3+x-y,1/3+x,1/3-z
1/3+x,2/3+y,2/3+z
1/3-y,2/3+x-y,2/3+z
1/3-x+y,2/3-x,2/3+z
1/3-x,2/3-y,2/3-z
1/3+y,2/3-x+y,2/3-z
1/3+x-y,2/3+x,2/3-z
loop_
_atom_site_type_symbol
_atom_site_label
_atom_site_fract_x
_atom_site_fract_y
_atom_site_fract_z
Si Si1 0.333333 0.666668 0.780124
Si Si2 0.933697 0.446631 0.656228
Si Si3 0.000000 0.000000 0.385628
Si Si4 0.908891 0.571941 0.191436
O O1 0.333335 0.666668 0.666667
O O2 0.217720 0.547352 0.809443
O O3 0.800095 0.407514 0.680805
O O4 0.942423 0.351174 0.585812
O O5 0.999930 0.455825 0.755149
O O6 0.999767 0.564046 0.591308
O O7 0.000000 0.000000 0.500000
#
# Coordination Sequence:
#
# PCOD9575280 Si02
#       4
#     6  18   6  18
#     4  12  19  44  73 111 136 173 233 296 367 411
#     4  11  25  45  69 106 138 188 235 293 352 418
#     4  12  31  50  64 100 158 202 226 284 355 427
#     4  11  23  42  78 106 136 178 240 300 350 419
#
# _framework density 23.220673999999999
#
# number of rings (size 3 to 8) (size 9 to 14) (size 15 to 20)
#    0.000    0.750    3.750    2.250    5.250    4.500 
#    0.000    0.000    0.000    0.000    0.000    0.000 
#    0.000    0.000    0.000    0.000    0.000    0.000 
#
# Total GULP energy -89564.306907 kJ/mol
# GULP energy per Si atom -5597.769182 kJ/mol
# Density = 2.316782 g / cm^3
# Si number density = 23.220674 Si / 1000 Ang^3
#
#
#
# Elastic Constant Matrix: (Units=GPa)
#
#
# Indices 1 2 3 4 5 6 
#
# 1 104.6963 75.0642 9.4981 0.8594 -8.4589 -0.0002
# 2 75.0642 104.6975 9.4993 -0.8587 8.4584 -0.0004
# 3 9.4981 9.4993 82.8870 0.0000 0.0002 0.0002
# 4 0.8594 -0.8587 0.0000 22.8451 0.0002 8.4586
# 5 -8.4589 8.4584 0.0002 0.0002 22.8452 0.8590
# 6 -0.0002 -0.0004 0.0002 8.4586 0.8590 14.8165
#
#
#
# Elastic Compliance Matrix: (Units=1/GPa)
#
#
# Indices 1 2 3 4 5 6 
#
# 1 0.024271 -0.018640 -0.000645 -0.001614 0.015888 0.000000
# 2 -0.018640 0.024271 -0.000646 0.001613 -0.015888 0.000000
# 3 -0.000645 -0.000646 0.012213 0.000000 0.000000 0.000000
# 4 -0.001614 0.001613 0.000000 0.055660 -0.000001 -0.031776
# 5 0.015888 -0.015888 0.000000 -0.000001 0.055660 -0.003227
# 6 0.000000 0.000000 0.000000 -0.031776 -0.003227 0.085820
#
#
# Mechanical properties :
#
#
# Convention : Reuss Voigt Hill
#
# Bulk Modulus (GPa) = 47.86173 53.37822 50.61997
# Shear Modulus (GPa) = 16.40856 25.31596 20.86226
#
# Velocity S-wave (km/s) = 2.66115 3.30545 3.00064
# Velocity P-wave (km/s) = 5.48623 6.13231 5.81825
#
# Compressibility (1/GPa) = 0.02089352
#
# Stress axis : x y z
#
# Youngs Moduli (GPa) = 41.20143 41.20197 81.88321
#
# Poissons Ratio (x) = 0.76799 0.05282
# Poissons Ratio (y) = 0.76798 0.05286
# Poissons Ratio (z) = 0.02658 0.02660
#
# Static dielectric constant tensor:
#      x y z
#    x 1.934180 0.000000 0.000000 
#    y 0.000000 1.934170 0.000000 
#    z 0.000000 0.000000 1.907160 
# 
# From -- ./inp_files/1767.got.cif
#   From: 2010.05.17/outbox.cif.g08.bks.cpg/sg148_1_cif.got.tgz:1767.got - 2010.05.20 13:50:20.
