data_PCOD9575201
_publ_section_title
;
Structure prediction by ZEFSAII (Michael W. Deem and Ramdas Pophale) SiO2 
 PCOD9575201
Probable space group: R -3
;
_chemical_formula_sum "Si O2"
_cell_formula_units_Z 144
_cell_length_a 28.628240
_cell_length_b 28.628240
_cell_length_c 8.751992
_cell_angle_alpha 90.000000
_cell_angle_beta 90.000000
_cell_angle_gamma 120.000000
_cell_volume 6211.934138
_symmetry_space_group_name_H-M "R -3"
_symmetry_group_IT_number 148
_symmetry_cell_setting 'hexagonal'
loop_
_space_group_symop_operation_xyz
x,y,z
-y,x-y,z
-x+y,-x,z
-x,-y,-z
y,-x+y,-z
x-y,x,-z
2/3+x,1/3+y,1/3+z
2/3-y,1/3+x-y,1/3+z
2/3-x+y,1/3-x,1/3+z
2/3-x,1/3-y,1/3-z
2/3+y,1/3-x+y,1/3-z
2/3+x-y,1/3+x,1/3-z
1/3+x,2/3+y,2/3+z
1/3-y,2/3+x-y,2/3+z
1/3-x+y,2/3-x,2/3+z
1/3-x,2/3-y,2/3-z
1/3+y,2/3-x+y,2/3-z
1/3+x-y,2/3+x,2/3-z
loop_
_atom_site_type_symbol
_atom_site_label
_atom_site_fract_x
_atom_site_fract_y
_atom_site_fract_z
Si Si1 0.916408 0.686692 0.692108
Si Si2 0.700961 0.246038 0.882130
Si Si3 0.026400 0.824934 0.330126
Si Si4 0.607108 0.654468 0.409401
Si Si5 0.567820 0.483193 0.293434
Si Si6 0.414160 0.330576 0.265039
Si Si7 0.916993 0.807532 0.212890
Si Si8 0.852793 0.149645 0.433523
O O1 0.944057 0.658576 0.599191
O O2 0.889205 0.708279 0.574187
O O3 0.871783 0.643748 0.812422
O O4 0.961277 0.732622 0.796346
O O5 0.639144 0.230832 0.853481
O O6 0.710795 0.201760 0.795072
O O7 0.719913 0.242388 0.053532
O O8 0.995479 0.761141 0.372855
O O9 0.074818 0.839190 0.210670
O O10 0.979453 0.829346 0.244828
O O11 0.575697 0.642041 0.569400
O O12 0.630431 0.614903 0.403246
O O13 0.618784 0.521723 0.398651
O O14 0.550974 0.426733 0.369058
O O15 0.522848 0.500833 0.305259
O O16 0.879866 0.752193 0.314002
#
# Coordination Sequence:
#
# PCOD9575201 Si02
#       8
#    18  18  18  18  18  18  18  18
#     4  11  24  39  62  89 125 179 229 277 340 393
#     4  10  23  46  73 105 129 170 220 280 345 416
#     4  10  23  42  66  91 136 169 213 272 335 397
#     4  11  21  40  56  92 128 169 226 272 316 391
#     4  11  25  42  60  96 136 177 222 278 340 392
#     4  11  23  36  60  88 125 175 224 274 331 384
#     4  11  25  40  68  98 129 175 219 279 337 406
#     4  11  24  43  63  91 136 179 233 278 343 401
#
# _framework density 23.181186
#
# number of rings (size 3 to 8) (size 9 to 14) (size 15 to 20)
#    0.000    1.250    3.750    2.000    7.000    3.000 
#    0.000    0.000    0.000    0.000    0.000    4.375 
#    0.000    0.000    0.000    0.000    0.000    0.000 
#
# Total GULP energy -268099.196257 kJ/mol
# GULP energy per Si atom -5585.399922 kJ/mol
# Density = 2.312842 g / cm^3
# Si number density = 23.181186 Si / 1000 Ang^3
#
#
#
# Elastic Constant Matrix: (Units=GPa)
#
#
# Indices 1 2 3 4 5 6 
#
# 1 56.8066 -1.3964 7.9187 11.9954 -0.1720 -0.0160
# 2 -1.3964 56.8571 7.9759 -11.9982 0.1542 0.0102
# 3 7.9187 7.9759 52.5234 0.0218 -0.0148 0.0099
# 4 11.9954 -11.9982 0.0218 35.0069 0.0186 0.1695
# 5 -0.1720 0.1542 -0.0148 0.0186 34.9856 12.0030
# 6 -0.0160 0.0102 0.0099 0.1695 12.0030 29.1369
#
#
#
# Elastic Compliance Matrix: (Units=1/GPa)
#
#
# Indices 1 2 3 4 5 6 
#
# 1 0.019433 -0.000571 -0.002840 -0.006853 0.000096 0.000012
# 2 -0.000571 0.019423 -0.002866 0.006854 -0.000090 -0.000009
# 3 -0.002840 -0.002866 0.019903 -0.000021 0.000011 -0.000012
# 4 -0.006853 0.006854 -0.000021 0.033264 -0.000015 -0.000193
# 5 0.000096 -0.000090 0.000011 -0.000015 0.033289 -0.013713
# 6 0.000012 -0.000009 -0.000012 -0.000193 -0.013713 0.039971
#
#
# Mechanical properties :
#
#
# Convention : Reuss Voigt Hill
#
# Bulk Modulus (GPa) = 21.64329 21.68709 21.66519
# Shear Modulus (GPa) = 25.87485 29.93848 27.90666
#
# Velocity S-wave (km/s) = 3.34458 3.59764 3.47342
# Velocity P-wave (km/s) = 4.92664 5.16073 5.04505
#
# Compressibility (1/GPa) = 0.04620370
#
# Stress axis : x y z
#
# Youngs Moduli (GPa) = 51.45927 51.48626 50.24466
#
# Poissons Ratio (x) = 0.02938 0.14271
# Poissons Ratio (y) = 0.02937 0.14401
# Poissons Ratio (z) = 0.14616 0.14757
#
# Static dielectric constant tensor:
#      x y z
#    x 1.914160 0.000020 -0.000020 
#    y 0.000020 1.914130 -0.000010 
#    z -0.000020 -0.000010 1.906400 
# 
# From -- ./inp_files/1117.got.cif
#   From: 2010.05.17/outbox.cif.g08.bks.cpg/sg148_1_cif.got.tgz:1117.got - 2010.05.20 13:50:20.
