data_PCOD9575149
_publ_section_title
;
Structure prediction by ZEFSAII (Michael W. Deem and Ramdas Pophale) SiO2 
 PCOD9575149
Probable space group: R -3
;
_chemical_formula_sum "Si O2"
_cell_formula_units_Z 132
_cell_length_a 17.691324
_cell_length_b 17.691324
_cell_length_c 22.589137
_cell_angle_alpha 90.000000
_cell_angle_beta 90.000000
_cell_angle_gamma 120.000000
_cell_volume 6122.812266
_symmetry_space_group_name_H-M "R -3"
_symmetry_group_IT_number 148
_symmetry_cell_setting 'hexagonal'
loop_
_space_group_symop_operation_xyz
x,y,z
-y,x-y,z
-x+y,-x,z
-x,-y,-z
y,-x+y,-z
x-y,x,-z
2/3+x,1/3+y,1/3+z
2/3-y,1/3+x-y,1/3+z
2/3-x+y,1/3-x,1/3+z
2/3-x,1/3-y,1/3-z
2/3+y,1/3-x+y,1/3-z
2/3+x-y,1/3+x,1/3-z
1/3+x,2/3+y,2/3+z
1/3-y,2/3+x-y,2/3+z
1/3-x+y,2/3-x,2/3+z
1/3-x,2/3-y,2/3-z
1/3+y,2/3-x+y,2/3-z
1/3+x-y,2/3+x,2/3-z
loop_
_atom_site_type_symbol
_atom_site_label
_atom_site_fract_x
_atom_site_fract_y
_atom_site_fract_z
Si Si1 0.139269 0.535633 0.104303
Si Si2 0.518784 0.921117 0.540760
Si Si3 0.666668 0.333334 0.403546
Si Si4 0.916631 0.108315 0.906047
Si Si5 0.743053 0.094717 0.634624
Si Si6 0.658601 0.770294 0.665187
Si Si7 0.549719 0.648586 0.475962
Si Si8 0.809006 0.872579 0.576105
O O1 0.066147 0.449464 0.073246
O O2 0.115569 0.525545 0.173683
O O3 0.150340 0.626296 0.080648
O O4 0.230730 0.540323 0.091137
O O5 0.528889 0.840940 0.561927
O O6 0.519198 0.973426 0.600698
O O7 0.436982 0.895004 0.497095
O O8 0.609510 0.995833 0.512963
O O9 0.666668 0.333335 0.333334
O O10 0.678635 0.254990 0.425376
O O11 0.922290 0.158452 0.965471
O O12 0.940959 0.175561 0.853250
O O13 0.833334 0.166667 0.666667
O O14 0.692026 0.127075 0.589490
O O15 0.658126 0.021166 0.669284
O O16 0.734249 0.845785 0.625090
#
# Coordination Sequence:
#
# PCOD9575149 Si02
#       8
#    18  18   6  18  18  18  18  18
#     4  10  21  40  67  99 135 177 231 295 352 431
#     4  10  24  45  67  97 140 178 232 295 351 437
#     4  12  24  42  69 102 141 174 234 303 340 422
#     4  12  24  43  72 100 134 185 234 291 362 428
#     4  11  23  45  68  98 144 184 236 302 361 440
#     4  11  25  40  67 101 140 181 234 290 364 430
#     4  10  24  44  68  96 137 180 230 288 365 427
#     4  10  21  40  68  99 134 181 232 288 364 425
#
# _framework density 21.558720999999998
#
# number of rings (size 3 to 8) (size 9 to 14) (size 15 to 20)
#    0.000    1.364    2.727    1.909    5.727    2.182 
#    0.000    2.727    0.000    0.000    0.000    0.000 
#    0.000    0.000    0.000    0.000    0.000    0.000 
#
# Total GULP energy -245136.843934 kJ/mol
# GULP energy per Si atom -5571.291908 kJ/mol
# Density = 2.150965 g / cm^3
# Si number density = 21.558721 Si / 1000 Ang^3
#
#
#
# Elastic Constant Matrix: (Units=GPa)
#
#
# Indices 1 2 3 4 5 6 
#
# 1 93.8561 43.1969 43.6646 -2.1198 2.8421 0.0002
# 2 43.1969 93.8565 43.6648 2.1197 -2.8418 0.0000
# 3 43.6646 43.6648 77.4120 0.0000 0.0000 0.0000
# 4 -2.1198 2.1197 0.0000 36.6073 0.0000 -2.8418
# 5 2.8421 -2.8418 0.0000 0.0000 36.6072 -2.1196
# 6 0.0002 0.0000 0.0000 -2.8418 -2.1196 25.3295
#
#
#
# Elastic Compliance Matrix: (Units=1/GPa)
#
#
# Indices 1 2 3 4 5 6 
#
# 1 0.015701 -0.004310 -0.006425 0.001159 -0.001554 0.000000
# 2 -0.004310 0.015701 -0.006425 -0.001159 0.001553 0.000000
# 3 -0.006425 -0.006425 0.020166 0.000000 0.000000 0.000000
# 4 0.001159 -0.001159 0.000000 0.027692 0.000000 0.003107
# 5 -0.001554 0.001553 0.000000 0.000000 0.027692 0.002317
# 6 0.000000 0.000000 0.000000 0.003107 0.002317 0.040022
#
#
# Mechanical properties :
#
#
# Convention : Reuss Voigt Hill
#
# Bulk Modulus (GPa) = 57.98022 58.46412 58.22217
# Shear Modulus (GPa) = 26.73189 28.68202 27.70696
#
# Velocity S-wave (km/s) = 3.52512 3.65144 3.58884
# Velocity P-wave (km/s) = 6.59705 6.70483 6.65116
#
# Compressibility (1/GPa) = 0.01724726
#
# Stress axis : x y z
#
# Youngs Moduli (GPa) = 63.69175 63.69201 49.58909
#
# Poissons Ratio (x) = 0.27453 0.31860
# Poissons Ratio (y) = 0.27453 0.31860
# Poissons Ratio (z) = 0.40920 0.40920
#
# Static dielectric constant tensor:
#      x y z
#    x 1.790760 -0.000020 0.000000 
#    y -0.000020 1.790770 0.000000 
#    z 0.000000 0.000000 1.850120 
# 
# From -- ./inp_files/3498.got.cif
#   From: 2010.05.17/outbox.cif.g08.bks.cpg/sg148_2_cif.got.tgz:3498.got - 2010.05.20 13:50:20.
