data_PCOD9575180
_publ_section_title
;
Structure prediction by ZEFSAII (Michael W. Deem and Ramdas Pophale) SiO2 
 PCOD9575180
Probable space group: R -3
;
_chemical_formula_sum "Si O2"
_cell_formula_units_Z 54
_cell_length_a 9.441729
_cell_length_b 9.441729
_cell_length_c 27.511734
_cell_angle_alpha 90.000000
_cell_angle_beta 90.000000
_cell_angle_gamma 120.000000
_cell_volume 2123.986038
_symmetry_space_group_name_H-M "R -3"
_symmetry_group_IT_number 148
_symmetry_cell_setting 'hexagonal'
loop_
_space_group_symop_operation_xyz
x,y,z
-y,x-y,z
-x+y,-x,z
-x,-y,-z
y,-x+y,-z
x-y,x,-z
2/3+x,1/3+y,1/3+z
2/3-y,1/3+x-y,1/3+z
2/3-x+y,1/3-x,1/3+z
2/3-x,1/3-y,1/3-z
2/3+y,1/3-x+y,1/3-z
2/3+x-y,1/3+x,1/3-z
1/3+x,2/3+y,2/3+z
1/3-y,2/3+x-y,2/3+z
1/3-x+y,2/3-x,2/3+z
1/3-x,2/3-y,2/3-z
1/3+y,2/3-x+y,2/3-z
1/3+x-y,2/3+x,2/3-z
loop_
_atom_site_type_symbol
_atom_site_label
_atom_site_fract_x
_atom_site_fract_y
_atom_site_fract_z
Si Si1 0.611409 0.732294 0.551614
Si Si2 0.923211 0.214741 0.776875
Si Si3 0.781880 0.148475 0.299525
O O1 0.758954 0.694152 0.559142
O O2 0.544802 0.687487 0.496601
O O3 0.477691 0.612451 0.590097
O O4 0.694997 0.927573 0.556329
O O5 0.019942 0.207138 0.729948
O O6 0.604921 0.043133 0.325169
#
# Coordination Sequence:
#
# PCOD9575180 Si02
#       3
#    18  18  18
#     4  10  22  42  66  92 123 163 208 254 307 369
#     4  10  22  42  66  92 123 163 208 254 307 369
#     4  12  24  42  62  92 129 163 205 254 316 360
#
# _framework density 25.423893
#
# number of rings (size 3 to 8) (size 9 to 14) (size 15 to 20)
#    0.000    1.333    3.333    2.000    0.000    4.000 
#    2.000    0.000    0.000    0.000    0.000    0.000 
#    0.000    0.000    0.000    0.000    0.000    0.000 
#
# Total GULP energy -100509.715650 kJ/mol
# GULP energy per Si atom -5583.873092 kJ/mol
# Density = 2.536603 g / cm^3
# Si number density = 25.423893 Si / 1000 Ang^3
#
#
#
# Elastic Constant Matrix: (Units=GPa)
#
#
# Indices 1 2 3 4 5 6 
#
# 1 128.5091 41.8358 43.5371 -8.1939 8.2161 0.0000
# 2 41.8358 128.5091 43.5371 8.1939 -8.2161 0.0000
# 3 43.5371 43.5371 202.7458 0.0000 0.0000 0.0000
# 4 -8.1939 8.1939 0.0000 27.6980 0.0000 -8.2161
# 5 8.2161 -8.2161 0.0000 0.0000 27.6980 -8.1939
# 6 0.0000 0.0000 0.0000 -8.2161 -8.1939 43.3366
#
#
#
# Elastic Compliance Matrix: (Units=1/GPa)
#
#
# Indices 1 2 3 4 5 6 
#
# 1 0.009795 -0.003201 -0.001416 0.003844 -0.003855 0.000000
# 2 -0.003201 0.009795 -0.001416 -0.003844 0.003855 0.000000
# 3 -0.001416 -0.001416 0.005540 0.000000 0.000000 0.000000
# 4 0.003844 -0.003844 0.000000 0.040665 0.000000 0.007710
# 5 -0.003855 0.003855 0.000000 0.000000 0.040665 0.007689
# 6 0.000000 0.000000 0.000000 0.007710 0.007689 0.025991
#
#
# Mechanical properties :
#
#
# Convention : Reuss Voigt Hill
#
# Bulk Modulus (GPa) = 76.54137 79.73156 78.13647
# Shear Modulus (GPa) = 33.58604 41.80343 37.69474
#
# Velocity S-wave (km/s) = 3.63856 4.05934 3.85470
# Velocity P-wave (km/s) = 6.91546 7.30753 7.11420
#
# Compressibility (1/GPa) = 0.01306483
#
# Stress axis : x y z
#
# Youngs Moduli (GPa) = 102.09509 102.09509 180.49118
#
# Poissons Ratio (x) = 0.32676 0.25558
# Poissons Ratio (y) = 0.32676 0.25558
# Poissons Ratio (z) = 0.14457 0.14457
#
# Static dielectric constant tensor:
#      x y z
#    x 2.040550 0.000000 0.000000 
#    y 0.000000 2.040550 0.000000 
#    z 0.000000 0.000000 2.109450 
# 
# From -- ./inp_files/3559.got.cif
#   From: 2010.05.17/outbox.cif.g08.bks.cpg/sg148_2_cif.got.tgz:3559.got - 2010.05.20 13:50:20.
