data_PCOD9575134
_publ_section_title
;
Structure prediction by ZEFSAII (Michael W. Deem and Ramdas Pophale) SiO2 
 PCOD9575134
Probable space group: R -3
;
_chemical_formula_sum "Si O2"
_cell_formula_units_Z 54
_cell_length_a 20.719301
_cell_length_b 20.719301
_cell_length_c 5.470492
_cell_angle_alpha 90.000000
_cell_angle_beta 90.000000
_cell_angle_gamma 120.000000
_cell_volume 2033.795201
_symmetry_space_group_name_H-M "R -3"
_symmetry_group_IT_number 148
_symmetry_cell_setting 'hexagonal'
loop_
_space_group_symop_operation_xyz
x,y,z
-y,x-y,z
-x+y,-x,z
-x,-y,-z
y,-x+y,-z
x-y,x,-z
2/3+x,1/3+y,1/3+z
2/3-y,1/3+x-y,1/3+z
2/3-x+y,1/3-x,1/3+z
2/3-x,1/3-y,1/3-z
2/3+y,1/3-x+y,1/3-z
2/3+x-y,1/3+x,1/3-z
1/3+x,2/3+y,2/3+z
1/3-y,2/3+x-y,2/3+z
1/3-x+y,2/3-x,2/3+z
1/3-x,2/3-y,2/3-z
1/3+y,2/3-x+y,2/3-z
1/3+x-y,2/3+x,2/3-z
loop_
_atom_site_type_symbol
_atom_site_label
_atom_site_fract_x
_atom_site_fract_y
_atom_site_fract_z
Si Si1 0.935476 0.215768 0.768765
Si Si2 0.600307 0.079827 0.239958
Si Si3 0.358420 0.544375 0.246299
O O1 0.876434 0.151641 0.951844
O O2 0.901216 0.262619 0.654196
O O3 0.938868 0.166594 0.545892
O O4 0.017198 0.261181 0.883224
O O5 0.646875 0.165269 0.149100
O O6 0.295823 0.540654 0.061333
#
# Coordination Sequence:
#
# PCOD9575134 Si02
#       3
#    18  18  18
#     4  10  22  40  63  92 126 165 210 259 312 373
#     4  10  22  40  63  92 126 165 210 259 312 373
#     4  10  21  38  62  92 125 162 206 258 316 376
#
# _framework density 26.551347
#
# number of rings (size 3 to 8) (size 9 to 14) (size 15 to 20)
#    0.000    2.000    0.000    2.333    0.000    5.333 
#    0.000   10.000    0.000   16.667    0.000    0.000 
#    0.000    0.000    0.000    0.000    0.000    1.333 
#
# Total GULP energy -100902.921886 kJ/mol
# GULP energy per Si atom -5605.717883 kJ/mol
# Density = 2.649091 g / cm^3
# Si number density = 26.551347 Si / 1000 Ang^3
#
#
#
# Elastic Constant Matrix: (Units=GPa)
#
#
# Indices 1 2 3 4 5 6 
#
# 1 108.8799 26.8502 22.1375 12.8787 4.1326 0.1662
# 2 26.8502 109.0373 22.3008 -12.7959 -4.1842 0.0493
# 3 22.1375 22.3008 65.1273 0.1462 0.1570 0.2334
# 4 12.8787 -12.7959 0.1462 31.5380 0.1331 -4.2046
# 5 4.1326 -4.1842 0.1570 0.1331 31.4935 12.9381
# 6 0.1662 0.0493 0.2334 -4.2046 12.9381 41.0282
#
#
#
# Elastic Compliance Matrix: (Units=1/GPa)
#
#
# Indices 1 2 3 4 5 6 
#
# 1 0.011227 -0.002939 -0.002792 -0.005763 -0.001806 -0.000047
# 2 -0.002939 0.011228 -0.002863 0.005764 0.001860 0.000019
# 3 -0.002792 -0.002863 0.017285 -0.000111 -0.000070 -0.000073
# 4 -0.005763 0.005764 -0.000111 0.036917 -0.000224 0.003871
# 5 -0.001806 0.001860 -0.000070 -0.000224 0.037044 -0.011699
# 6 -0.000047 0.000019 -0.000073 0.003871 -0.011699 0.028460
#
#
# Mechanical properties :
#
#
# Convention : Reuss Voigt Hill
#
# Bulk Modulus (GPa) = 44.34426 47.29127 45.81776
# Shear Modulus (GPa) = 29.96377 34.92902 32.44640
#
# Velocity S-wave (km/s) = 3.36299 3.63095 3.49954
# Velocity P-wave (km/s) = 5.64067 5.95217 5.79852
#
# Compressibility (1/GPa) = 0.02255083
#
# Stress axis : x y z
#
# Youngs Moduli (GPa) = 89.06890 89.06073 57.85434
#
# Poissons Ratio (x) = 0.26176 0.16155
# Poissons Ratio (y) = 0.26179 0.16565
# Poissons Ratio (z) = 0.24871 0.25500
#
# Static dielectric constant tensor:
#      x y z
#    x 2.056910 -0.000030 -0.000100 
#    y -0.000030 2.056950 -0.000030 
#    z -0.000100 -0.000030 2.135320 
# 
# From -- ./inp_files/256.got.cif
#   From: 2010.05.17/outbox.cif.g08.bks.cpg/sg148_1_cif.got.tgz:256.got - 2010.05.20 13:50:20.
