data_PCOD9575979
_publ_section_title
;
Structure prediction by ZEFSAII (Michael W. Deem and Ramdas Pophale) SiO2 
 PCOD9575979
Probable space group: P 31 2 1
;
_chemical_formula_sum "Si O2"
_cell_formula_units_Z 36
_cell_length_a 8.139433
_cell_length_b 8.139433
_cell_length_c 28.050494
_cell_angle_alpha 90.000000
_cell_angle_beta 90.000000
_cell_angle_gamma 120.000000
_cell_volume 1609.383154
_symmetry_space_group_name_H-M "P 31 2 1"
_symmetry_group_IT_number 152
_symmetry_cell_setting 'hexagonal'
loop_
_space_group_symop_operation_xyz
x,y,z
-y,x-y,1/3+z
-x+y,-x,2/3+z
x-y,-y,2/3-z
-x,-x+y,1/3-z
y,x,-z
loop_
_atom_site_type_symbol
_atom_site_label
_atom_site_fract_x
_atom_site_fract_y
_atom_site_fract_z
Si Si1 0.088521 0.283884 0.087257
Si Si2 0.475753 0.374130 0.046231
Si Si3 0.000367 0.431959 0.340171
Si Si4 0.000000 0.462756 0.166667
Si Si5 0.002498 0.793842 0.023519
Si Si6 0.773468 0.627817 0.118718
Si Si7 0.989919 0.000000 0.833334
O O1 0.255187 0.278128 0.059121
O O2 0.996337 0.352564 0.046748
O O3 0.131959 0.428864 0.130251
O O4 0.987190 0.095420 0.119387
O O5 0.576243 0.494082 0.093104
O O6 0.504378 0.504378 0.000000
O O7 0.520143 0.210842 0.029714
O O8 0.057081 0.652284 0.338162
O O9 0.123510 0.351337 0.365354
O O10 0.856135 0.499943 0.137328
O O11 0.903929 0.741924 0.074260
O O12 0.932634 0.932634 0.000000
O O13 0.815981 0.779929 0.160714
#
# Coordination Sequence:
#
# PCOD9575979 Si02
#       7
#     6   6   6   3   6   6   3
#     4  10  21  43  64  91 129 178 227 277 349 414
#     4  10  22  40  67  97 129 167 226 289 347 410
#     4  11  23  42  70 100 136 177 222 296 353 414
#     4  10  22  40  62  82 130 182 210 266 342 408
#     4  12  24  42  69 104 138 181 231 291 360 422
#     4  11  22  40  61  94 133 170 224 276 340 414
#     4  10  22  38  68  90 128 190 222 276 336 426
#
# _framework density 22.368821000000001
#
# number of rings (size 3 to 8) (size 9 to 14) (size 15 to 20)
#    0.000    1.333    1.667    5.000    0.000    2.667 
#    0.000    0.833    0.000    0.000    0.000    0.000 
#    0.000    0.000    0.000    0.000    0.000    0.000 
#
# Total GULP energy -200528.914453 kJ/mol
# GULP energy per Si atom -5570.247624 kJ/mol
# Density = 2.231791 g / cm^3
# Si number density = 22.368821 Si / 1000 Ang^3
#
#
#
# Elastic Constant Matrix: (Units=GPa)
#
#
# Indices 1 2 3 4 5 6 
#
# 1 80.8721 28.5004 4.7105 9.7610 0.0008 0.0000
# 2 28.5004 80.8721 4.7105 -9.7610 -0.0008 0.0000
# 3 4.7105 4.7105 57.1206 0.0000 0.0000 0.0000
# 4 9.7610 -9.7610 0.0000 -8.2066 0.0000 -0.0008
# 5 0.0008 -0.0008 0.0000 0.0000 -8.2066 9.7610
# 6 0.0000 0.0000 0.0000 -0.0008 9.7610 26.1858
#
#
#
# Elastic Compliance Matrix: (Units=1/GPa)
#
#
# Indices 1 2 3 4 5 6 
#
# 1 0.011219 -0.002010 -0.000759 0.015735 0.000001 0.000000
# 2 -0.002010 0.011219 -0.000759 -0.015735 -0.000001 0.000000
# 3 -0.000759 -0.000759 0.017632 0.000000 0.000000 0.000000
# 4 0.015735 -0.015735 0.000000 -0.084423 0.000000 -0.000003
# 5 0.000001 -0.000001 0.000000 0.000000 -0.084423 0.031470
# 6 0.000000 0.000000 0.000000 -0.000003 0.031470 0.026458
#
#
# Mechanical properties :
#
#
# Convention : Reuss Voigt Hill
#
# Bulk Modulus (GPa) = 30.29248 32.74528 31.51888
# Shear Modulus (GPa) = -59.34231 14.01742 -22.66244
#
# Velocity S-wave (km/s) = -5.15622 2.50601 -3.18642
# Velocity P-wave (km/s) = 4.67730 4.80042 0.76384
#
# Compressibility (1/GPa) = 0.03301150
#
# Stress axis : x y z
#
# Youngs Moduli (GPa) = 89.13660 89.13660 56.71482
#
# Poissons Ratio (x) = 0.17919 0.04307
# Poissons Ratio (y) = 0.17919 0.04307
# Poissons Ratio (z) = 0.06769 0.06769
#
# Static dielectric constant tensor:
#      x y z
#    x 1.981740 0.000000 0.000000 
#    y 0.000000 1.981740 0.000000 
#    z 0.000000 0.000000 1.846380 
# 
# From -- ./inp_files/3439.got.cif
#   From: 2010.05.17/outbox.cif.g08.bks.cpg/sg152_2_cif.got.tgz:3439.got - 2010.05.20 10:36:06.
