data_PCOD9575902
_publ_section_title
;
Structure prediction by ZEFSAII (Michael W. Deem and Ramdas Pophale) SiO2 
 PCOD9575902
Probable space group: P 31 2 1
;
_chemical_formula_sum "Si O2"
_cell_formula_units_Z 42
_cell_length_a 11.497378
_cell_length_b 11.497378
_cell_length_c 17.445009
_cell_angle_alpha 90.000000
_cell_angle_beta 90.000000
_cell_angle_gamma 120.000000
_cell_volume 1997.098334
_symmetry_space_group_name_H-M "P 31 2 1"
_symmetry_group_IT_number 152
_symmetry_cell_setting 'hexagonal'
loop_
_space_group_symop_operation_xyz
x,y,z
-y,x-y,1/3+z
-x+y,-x,2/3+z
x-y,-y,2/3-z
-x,-x+y,1/3-z
y,x,-z
loop_
_atom_site_type_symbol
_atom_site_label
_atom_site_fract_x
_atom_site_fract_y
_atom_site_fract_z
Si Si1 0.042990 0.655342 0.017662
Si Si2 0.198010 0.077818 0.555641
Si Si3 0.622171 0.611032 0.121858
Si Si4 0.729706 0.505965 0.994873
Si Si5 0.799751 0.110278 0.393720
Si Si6 0.477583 0.690076 0.384239
Si Si7 0.407781 0.326571 0.824556
O O1 0.101325 0.701831 0.931932
O O2 0.883934 0.559920 0.010077
O O3 0.070925 0.786043 0.064593
O O4 0.106805 0.573332 0.056745
O O5 0.100245 0.100245 0.500000
O O6 0.301619 0.050012 0.508109
O O7 0.121064 0.943935 0.605838
O O8 0.600171 0.708573 0.065070
O O9 0.481092 0.523124 0.163747
O O10 0.654064 0.513694 0.070803
O O11 0.653440 0.356976 0.962127
O O12 0.816606 0.247141 0.358760
O O13 0.699894 0.000000 0.333334
O O14 0.726237 0.047440 0.474106
O O15 0.555067 0.787660 0.456474
#
# Coordination Sequence:
#
# PCOD9575902 Si02
#       7
#     6   6   6   6   6   6   6
#     4  12  26  40  64 101 138 174 220 267 344 393
#     4  12  26  43  61  95 136 176 214 280 332 393
#     4  10  20  42  71  93 123 164 229 269 318 384
#     4  10  21  41  71  98 123 169 219 277 318 398
#     4  10  22  43  69  93 129 171 223 272 332 397
#     4  10  23  43  67 101 133 172 220 281 334 395
#     4  10  22  45  71  97 126 177 228 271 325 403
#
# _framework density 21.030512000000002
#
# number of rings (size 3 to 8) (size 9 to 14) (size 15 to 20)
#    0.000    1.429    2.857    1.714    4.000    4.571 
#    0.000    2.143    0.000    0.000    0.000    0.000 
#    0.000    0.000    0.000    0.000    0.000    0.000 
#
# Total GULP energy -234742.687057 kJ/mol
# GULP energy per Si atom -5589.111597 kJ/mol
# Density = 2.098265 g / cm^3
# Si number density = 21.030512 Si / 1000 Ang^3
#
#
#
# Elastic Constant Matrix: (Units=GPa)
#
#
# Indices 1 2 3 4 5 6 
#
# 1 45.2859 62.2646 4.5235 39.9625 0.0007 0.0000
# 2 62.2646 45.2859 4.5235 -39.9625 -0.0007 0.0000
# 3 4.5235 4.5235 44.0378 0.0000 0.0000 0.0000
# 4 39.9625 -39.9625 0.0000 -52.5384 0.0000 -0.0007
# 5 0.0007 -0.0007 0.0000 0.0000 -52.5384 39.9625
# 6 0.0000 0.0000 0.0000 -0.0007 39.9625 -8.4894
#
#
#
# Elastic Compliance Matrix: (Units=1/GPa)
#
#
# Indices 1 2 3 4 5 6 
#
# 1 0.016101 -0.006722 -0.000963 0.017360 0.000000 0.000000
# 2 -0.006722 0.016101 -0.000963 -0.017360 0.000000 0.000000
# 3 -0.000963 -0.000963 0.022906 0.000000 0.000000 0.000000
# 4 0.017360 -0.017360 0.000000 0.007376 0.000000 -0.000001
# 5 0.000000 0.000000 0.000000 0.000000 0.007376 0.034720
# 6 0.000000 0.000000 0.000000 -0.000001 0.034720 0.045647
#
#
# Mechanical properties :
#
#
# Convention : Reuss Voigt Hill
#
# Bulk Modulus (GPa) = 26.44797 30.80364 28.62581
# Shear Modulus (GPa) = 34.38621 -18.49339 7.94641
#
# Velocity S-wave (km/s) = 4.04798 -2.96862 1.94595
# Velocity P-wave (km/s) = 5.86954 1.71133 4.32320
#
# Compressibility (1/GPa) = 0.03781008
#
# Stress axis : x y z
#
# Youngs Moduli (GPa) = 62.10744 62.10744 43.65732
#
# Poissons Ratio (x) = 0.41749 0.04206
# Poissons Ratio (y) = 0.41749 0.04206
# Poissons Ratio (z) = 0.05983 0.05983
#
# Static dielectric constant tensor:
#      x y z
#    x 1.748760 0.000000 0.000000 
#    y 0.000000 1.748760 0.000000 
#    z 0.000000 0.000000 1.793240 
# 
# From -- ./inp_files/2469.got.cif
#   From: 2010.05.17/outbox.cif.g08.bks.cpg/sg152_2_cif.got.tgz:2469.got - 2010.05.20 10:36:06.
