data_PCOD9575736
_publ_section_title
;
Structure prediction by ZEFSAII (Michael W. Deem and Ramdas Pophale) SiO2 
 PCOD9575736
Probable space group: P 31 2 1
;
_chemical_formula_sum "Si O2"
_cell_formula_units_Z 48
_cell_length_a 16.619480
_cell_length_b 16.619480
_cell_length_c 11.469360
_cell_angle_alpha 90.000000
_cell_angle_beta 90.000000
_cell_angle_gamma 120.000000
_cell_volume 2743.498194
_symmetry_space_group_name_H-M "P 31 2 1"
_symmetry_group_IT_number 152
_symmetry_cell_setting 'hexagonal'
loop_
_space_group_symop_operation_xyz
x,y,z
-y,x-y,1/3+z
-x+y,-x,2/3+z
x-y,-y,2/3-z
-x,-x+y,1/3-z
y,x,-z
loop_
_atom_site_type_symbol
_atom_site_label
_atom_site_fract_x
_atom_site_fract_y
_atom_site_fract_z
Si Si1 0.588457 0.465592 0.544890
Si Si2 0.348949 0.890107 0.033457
Si Si3 0.185852 0.771448 0.413955
Si Si4 0.727068 0.266241 0.798969
Si Si5 0.677676 0.636549 0.870263
Si Si6 0.566788 0.084545 0.241030
Si Si7 0.444253 0.734661 0.292495
Si Si8 0.020994 0.579204 0.372838
O O1 0.644260 0.540047 0.441047
O O2 0.541648 0.369083 0.475947
O O3 0.658896 0.459395 0.637700
O O4 0.499863 0.461434 0.608986
O O5 0.285244 0.787173 0.084314
O O6 0.451036 0.913509 0.080639
O O7 0.327562 0.963715 0.100589
O O8 0.253434 0.783472 0.305718
O O9 0.216000 0.874687 0.459819
O O10 0.214165 0.731804 0.523715
O O11 0.084841 0.690819 0.368985
O O12 0.700269 0.344163 0.766734
O O13 0.609584 0.524832 0.862251
O O14 0.662227 0.662227 0.000000
O O15 0.640196 0.183771 0.288623
O O16 0.528980 0.000000 0.333334
O O17 0.611159 0.055602 0.137689
#
# Coordination Sequence:
#
# PCOD9575736 Si02
#       8
#     6   6   6   6   6   6   6   6
#     4  12  26  34  54  79 114 152 183 245 311 353
#     4  11  21  39  50  76 109 141 190 251 294 345
#     4  12  21  36  55  74  96 140 196 241 289 347
#     4  12  22  34  54  76 108 145 204 249 274 351
#     4  10  19  34  57  75  95 141 194 240 294 325
#     4  10  18  34  53  72 103 139 185 254 283 323
#     4  12  21  35  53  81 104 144 207 241 282 347
#     4  11  23  38  50  72 110 146 193 237 312 344
#
# _framework density 17.495911
#
# number of rings (size 3 to 8) (size 9 to 14) (size 15 to 20)
#    0.000    0.750    6.250    4.125    3.500    0.000 
#    0.000    0.000    0.000    0.000    0.000    0.000 
#    0.000    0.000    0.000    0.000   23.750    0.625 
#
# Total GULP energy -267217.742573 kJ/mol
# GULP energy per Si atom -5567.036304 kJ/mol
# Density = 1.745609 g / cm^3
# Si number density = 17.495911 Si / 1000 Ang^3
#
#
#
# Elastic Constant Matrix: (Units=GPa)
#
#
# Indices 1 2 3 4 5 6 
#
# 1 62.4899 12.9929 19.6081 2.0302 0.0000 0.0000
# 2 12.9929 62.4899 19.6081 -2.0302 0.0000 0.0000
# 3 19.6081 19.6081 87.1515 0.0000 0.0000 0.0000
# 4 2.0302 -2.0302 0.0000 25.0253 0.0000 0.0000
# 5 0.0000 0.0000 0.0000 0.0000 25.0253 2.0302
# 6 0.0000 0.0000 0.0000 0.0000 2.0302 24.7485
#
#
#
# Elastic Compliance Matrix: (Units=1/GPa)
#
#
# Indices 1 2 3 4 5 6 
#
# 1 0.017670 -0.002669 -0.003375 -0.001650 0.000000 0.000000
# 2 -0.002669 0.017670 -0.003375 0.001650 0.000000 0.000000
# 3 -0.003375 -0.003375 0.012993 0.000000 0.000000 0.000000
# 4 -0.001650 0.001650 0.000000 0.040227 0.000000 0.000000
# 5 0.000000 0.000000 0.000000 0.000000 0.040227 -0.003300
# 6 0.000000 0.000000 0.000000 0.000000 -0.003300 0.040677
#
#
# Mechanical properties :
#
#
# Convention : Reuss Voigt Hill
#
# Bulk Modulus (GPa) = 33.90354 35.17218 34.53786
# Shear Modulus (GPa) = 25.23536 25.62129 25.42833
#
# Velocity S-wave (km/s) = 3.80196 3.83092 3.81647
# Velocity P-wave (km/s) = 6.22039 6.30196 6.26131
#
# Compressibility (1/GPa) = 0.02949545
#
# Stress axis : x y z
#
# Youngs Moduli (GPa) = 56.59273 56.59273 76.96429
#
# Poissons Ratio (x) = 0.15102 0.25977
# Poissons Ratio (y) = 0.15102 0.25977
# Poissons Ratio (z) = 0.19101 0.19101
#
# Static dielectric constant tensor:
#      x y z
#    x 1.649210 0.000000 0.000000 
#    y 0.000000 1.649210 0.000000 
#    z 0.000000 0.000000 1.717370 
# 
# From -- ./inp_files/1901.got.cif
#   From: 2010.05.17/outbox.cif.g08.bks.cpg/sg152_1_cif.got.tgz:1901.got - 2010.05.20 10:36:06.
