data_PCOD9575405
_publ_section_title
;
Structure prediction by ZEFSAII (Michael W. Deem and Ramdas Pophale) SiO2 
 PCOD9575405
Probable space group: P 3 2 1
;
_chemical_formula_sum "Si O2"
_cell_formula_units_Z 42
_cell_length_a 20.677393
_cell_length_b 20.677393
_cell_length_c 6.167234
_cell_angle_alpha 90.000000
_cell_angle_beta 90.000000
_cell_angle_gamma 120.000000
_cell_volume 2283.561030
_symmetry_space_group_name_H-M "P 3 2 1"
_symmetry_group_IT_number 150
_symmetry_cell_setting 'hexagonal'
loop_
_space_group_symop_operation_xyz
x,y,z
-y,x-y,z
-x+y,-x,z
x-y,-y,-z
-x,-x+y,-z
y,x,-z
loop_
_atom_site_type_symbol
_atom_site_label
_atom_site_fract_x
_atom_site_fract_y
_atom_site_fract_z
Si Si1 0.319123 0.396151 0.375000
Si Si2 0.272844 0.192513 0.925240
Si Si3 0.254966 0.063981 0.633092
Si Si4 0.000000 0.310558 0.000000
Si Si5 0.558090 0.077872 0.878333
Si Si6 0.539552 0.658143 0.846996
Si Si7 0.558777 0.558777 0.500000
Si Si8 0.808727 0.184977 0.317170
O O1 0.376038 0.376038 0.500000
O O2 0.262883 0.326512 0.227157
O O3 0.359928 0.467469 0.216434
O O4 0.267924 0.404680 0.553852
O O5 0.240969 0.117587 0.786763
O O6 0.208805 0.208805 0.000000
O O7 0.323177 0.188355 0.119953
O O8 0.323806 0.122764 0.480469
O O9 0.186136 0.000000 0.500000
O O10 0.274244 0.013077 0.788800
O O11 0.927936 0.320094 0.990622
O O12 0.506560 0.051295 0.665800
O O13 0.533633 0.124869 0.036525
O O14 0.534261 0.000000 0.000000
O O15 0.564153 0.624083 0.649448
O O16 0.553513 0.737813 0.768463
#
# Coordination Sequence:
#
# PCOD9575405 Si02
#       8
#     6   6   6   3   6   6   3   6
#     4  11  22  36  57  82 122 164 202 246 301 373
#     4  11  22  37  56  82 126 157 203 247 305 374
#     4  11  21  33  56  83 123 158 196 244 317 371
#     4  12  18  32  54  84 124 150 182 242 310 382
#     4  10  21  32  54  83 117 156 194 244 298 357
#     4  11  20  32  52  86 122 152 189 239 311 367
#     4  10  18  32  56  80 122 148 182 238 296 362
#     4  11  23  35  56  85 127 162 190 246 309 366
#
# _framework density 18.392326000000001
#
# number of rings (size 3 to 8) (size 9 to 14) (size 15 to 20)
#    0.000    1.143    7.143    1.286    0.000    0.000 
#    0.000    0.000    0.000    0.000    0.000    0.000 
#   88.571    0.000    0.000    0.000    0.000    0.000 
#
# Total GULP energy -233987.608916 kJ/mol
# GULP energy per Si atom -5571.133546 kJ/mol
# Density = 1.835046 g / cm^3
# Si number density = 18.392326 Si / 1000 Ang^3
#
#
#
# Elastic Constant Matrix: (Units=GPa)
#
#
# Indices 1 2 3 4 5 6 
#
# 1 72.7381 55.9946 36.9557 3.1924 0.0000 0.0000
# 2 55.9946 72.7381 36.9557 -3.1924 0.0000 0.0000
# 3 36.9557 36.9557 86.3958 0.0000 0.0000 0.0000
# 4 3.1924 -3.1924 0.0000 20.7601 0.0000 0.0000
# 5 0.0000 0.0000 0.0000 0.0000 20.7601 3.1924
# 6 0.0000 0.0000 0.0000 0.0000 3.1924 8.3717
#
#
#
# Elastic Compliance Matrix: (Units=1/GPa)
#
#
# Indices 1 2 3 4 5 6 
#
# 1 0.036871 -0.026574 -0.004404 -0.009756 0.000000 0.000000
# 2 -0.026574 0.036871 -0.004404 0.009756 0.000000 0.000000
# 3 -0.004404 -0.004404 0.015343 0.000000 0.000000 0.000000
# 4 -0.009756 0.009756 0.000000 0.051170 0.000000 0.000000
# 5 0.000000 0.000000 0.000000 0.000000 0.051170 -0.019513
# 6 0.000000 0.000000 0.000000 0.000000 -0.019513 0.126890
#
#
# Mechanical properties :
#
#
# Convention : Reuss Voigt Hill
#
# Bulk Modulus (GPa) = 54.58970 54.63157 54.61064
# Shear Modulus (GPa) = 12.65223 16.77610 14.71416
#
# Velocity S-wave (km/s) = 2.62565 3.02342 2.83152
# Velocity P-wave (km/s) = 6.23996 6.47735 6.35976
#
# Compressibility (1/GPa) = 0.01831847
#
# Stress axis : x y z
#
# Youngs Moduli (GPa) = 27.12159 27.12159 65.17777
#
# Poissons Ratio (x) = 0.72073 0.28707
# Poissons Ratio (y) = 0.72073 0.28707
# Poissons Ratio (z) = 0.11946 0.11946
#
# Static dielectric constant tensor:
#      x y z
#    x 1.654870 0.000000 0.000000 
#    y 0.000000 1.654870 0.000000 
#    z 0.000000 0.000000 1.738660 
# 
# From -- ./inp_files/284.got.cif
#   From: 2010.05.17/outbox.cif.g08.bks.cpg/sg150_cif.got.tgz:284.got - 2010.05.20 13:53:18.
