data_PCOD9575490
_publ_section_title
;
Structure prediction by ZEFSAII (Michael W. Deem and Ramdas Pophale) SiO2 
 PCOD9575490
Probable space group: P 3 2 1
;
_chemical_formula_sum "Si O2"
_cell_formula_units_Z 48
_cell_length_a 13.968863
_cell_length_b 13.968863
_cell_length_c 19.197686
_cell_angle_alpha 90.000000
_cell_angle_beta 90.000000
_cell_angle_gamma 120.000000
_cell_volume 3244.155268
_symmetry_space_group_name_H-M "P 3 2 1"
_symmetry_group_IT_number 150
_symmetry_cell_setting 'hexagonal'
loop_
_space_group_symop_operation_xyz
x,y,z
-y,x-y,z
-x+y,-x,z
x-y,-y,-z
-x,-x+y,-z
y,x,-z
loop_
_atom_site_type_symbol
_atom_site_label
_atom_site_fract_x
_atom_site_fract_y
_atom_site_fract_z
Si Si1 0.334371 0.443343 0.832981
Si Si2 0.224072 0.000716 0.917003
Si Si3 0.000716 0.776644 0.082997
Si Si4 0.556657 0.891029 0.667020
Si Si5 0.224072 0.223356 0.582997
Si Si6 0.108971 0.443343 0.667020
Si Si7 0.891028 0.334371 0.167019
Si Si8 0.000716 0.224072 0.417003
O O1 0.305438 0.333166 0.874873
O O2 0.335550 0.425054 0.750000
O O3 0.450325 0.549675 0.852344
O O4 0.233254 0.466507 0.846098
O O5 0.234654 0.117327 0.898464
O O6 0.305438 0.972271 0.874873
O O7 0.099602 0.900398 0.903177
O O8 0.242573 0.000000 0.000000
O O9 0.000000 0.757428 0.000000
O O10 0.666834 0.972271 0.625128
O O11 0.533493 0.766746 0.653903
O O12 0.450325 0.900651 0.647657
O O13 0.242574 0.242574 0.500000
O O14 0.234653 0.117327 0.601536
O O15 0.099602 0.199203 0.596822
O O16 0.089505 0.425054 0.750000
O O17 0.027729 0.333166 0.625128
O O18 0.000000 0.242574 0.500000
#
# Coordination Sequence:
#
# PCOD9575490 Si02
#       8
#     6   6   6   6   6   6   6   6
#     4   9  17  29  45  64  85 110 141 178 218 256
#     4   9  17  29  45  65  89 116 144 175 213 256
#     4   9  17  29  45  65  89 116 144 175 213 256
#     4   9  17  29  45  64  85 110 141 178 218 256
#     4   9  17  29  45  65  89 116 144 175 213 256
#     4   9  17  29  45  64  85 110 141 178 218 256
#     4   9  17  29  45  64  85 110 141 178 218 256
#     4   9  17  29  45  65  89 116 144 175 213 256
#
# _framework density 14.79584
#
# number of rings (size 3 to 8) (size 9 to 14) (size 15 to 20)
#    0.000    3.000    0.000    1.000    0.000    6.000 
#    0.000    0.000    0.000    4.000    0.000    0.000 
#    0.000    0.000    0.000    0.000    0.000    0.000 
#
# Total GULP energy -267391.640897 kJ/mol
# GULP energy per Si atom -5570.659185 kJ/mol
# Density = 1.476216 g / cm^3
# Si number density = 14.795840 Si / 1000 Ang^3
#
#
#
# Elastic Constant Matrix: (Units=GPa)
#
#
# Indices 1 2 3 4 5 6 
#
# 1 134.7573 89.7001 59.2397 0.0000 0.0000 0.0000
# 2 89.7001 134.7573 59.2397 0.0000 0.0000 0.0000
# 3 59.2397 59.2397 36.3985 0.0000 0.0000 0.0000
# 4 0.0000 0.0000 0.0000 25.8277 0.0000 0.0000
# 5 0.0000 0.0000 0.0000 0.0000 25.8277 0.0000
# 6 0.0000 0.0000 0.0000 0.0000 0.0000 22.5286
#
#
#
# Elastic Compliance Matrix: (Units=1/GPa)
#
#
# Indices 1 2 3 4 5 6 
#
# 1 0.026906 0.004712 -0.051458 0.000000 0.000000 0.000000
# 2 0.004712 0.026906 -0.051458 0.000000 0.000000 0.000000
# 3 -0.051458 -0.051458 0.194974 0.000000 0.000000 0.000000
# 4 0.000000 0.000000 0.000000 0.038718 0.000000 0.000000
# 5 0.000000 0.000000 0.000000 0.000000 0.038718 0.000000
# 6 0.000000 0.000000 0.000000 0.000000 0.000000 0.044388
#
#
# Mechanical properties :
#
#
# Convention : Reuss Voigt Hill
#
# Bulk Modulus (GPa) = 19.09295 80.25244 49.67270
# Shear Modulus (GPa) = 8.55465 21.35238 14.95351
#
# Velocity S-wave (km/s) = 2.40714 3.80298 3.18253
# Velocity P-wave (km/s) = 4.54512 8.58144 6.86656
#
# Compressibility (1/GPa) = 0.05237535
#
# Stress axis : x y z
#
# Youngs Moduli (GPa) = 37.16685 37.16685 5.12889
#
# Poissons Ratio (x) = -0.17512 0.26392
# Poissons Ratio (y) = -0.17512 0.26392
# Poissons Ratio (z) = 1.91254 1.91254
#
# Static dielectric constant tensor:
#      x y z
#    x 1.471780 0.000000 0.000000 
#    y 0.000000 1.471780 0.000000 
#    z 0.000000 0.000000 1.482340 
# 
# From -- ./inp_files/1152.got.cif
#   From: 2010.05.17/outbox.cif.g08.bks.cpg/sg150_cif.got.tgz:1152.got - 2010.05.20 13:53:18.
