data_PCOD9575773
_publ_section_title
;
Structure prediction by ZEFSAII (Michael W. Deem and Ramdas Pophale) SiO2 
 PCOD9575773
Probable space group: P 31 2 1
;
_chemical_formula_sum "Si O2"
_cell_formula_units_Z 42
_cell_length_a 20.614118
_cell_length_b 20.614118
_cell_length_c 5.405319
_cell_angle_alpha 90.000000
_cell_angle_beta 90.000000
_cell_angle_gamma 120.000000
_cell_volume 1989.213860
_symmetry_space_group_name_H-M "P 31 2 1"
_symmetry_group_IT_number 152
_symmetry_cell_setting 'hexagonal'
loop_
_space_group_symop_operation_xyz
x,y,z
-y,x-y,1/3+z
-x+y,-x,2/3+z
x-y,-y,2/3-z
-x,-x+y,1/3-z
y,x,-z
loop_
_atom_site_type_symbol
_atom_site_label
_atom_site_fract_x
_atom_site_fract_y
_atom_site_fract_z
Si Si1 0.682550 0.459831 0.246348
Si Si2 0.458062 0.183218 0.082896
Si Si3 0.045488 0.290656 0.921830
Si Si4 0.848080 0.085585 0.335357
Si Si5 0.474862 0.833973 0.236245
Si Si6 0.340049 0.489537 0.407193
Si Si7 0.764726 0.084848 0.837871
O O1 0.677292 0.492926 0.512478
O O2 0.611063 0.384111 0.151391
O O3 0.759646 0.457627 0.260953
O O4 0.690134 0.514252 0.020382
O O5 0.371978 0.120375 0.066130
O O6 0.474408 0.268951 0.083278
O O7 0.000000 0.277054 0.666667
O O8 0.071299 0.228434 0.950403
O O9 0.000000 0.285454 0.166667
O O10 0.801410 0.092234 0.568766
O O11 0.831086 0.000000 0.333334
O O12 0.819492 0.094499 0.065123
O O13 0.491495 0.877402 0.490728
O O14 0.498052 0.883186 0.990773
O O15 0.269692 0.406343 0.428337
O O16 0.696795 0.000000 0.833334
#
# Coordination Sequence:
#
# PCOD9575773 Si02
#       7
#     6   6   6   6   6   6   6
#     4  10  19  35  55  81 115 154 197 252 327 374
#     4  10  21  38  57  84 123 155 200 270 316 376
#     4  12  24  40  66  97 127 173 227 264 313 386
#     4  10  20  36  60  94 129 156 199 261 312 361
#     4  10  20  34  54  82 113 153 193 250 325 372
#     4  10  19  33  51  79 119 148 188 248 300 376
#     4  10  19  34  61  91 120 159 193 239 317 381
#
# _framework density 21.113866999999999
#
# number of rings (size 3 to 8) (size 9 to 14) (size 15 to 20)
#    0.000    1.714    0.000    6.857    0.000    0.000 
#   20.571    0.000    0.000    9.429    0.000    0.000 
#    0.000    0.000    0.000    0.000    0.000    0.000 
#
# Total GULP energy -234008.742782 kJ/mol
# GULP energy per Si atom -5571.636733 kJ/mol
# Density = 2.106581 g / cm^3
# Si number density = 21.113867 Si / 1000 Ang^3
#
#
#
# Elastic Constant Matrix: (Units=GPa)
#
#
# Indices 1 2 3 4 5 6 
#
# 1 56.1885 13.9148 26.5910 1.7440 0.0000 0.0000
# 2 13.9148 56.1885 26.5910 -1.7440 0.0000 0.0000
# 3 26.5910 26.5910 201.3547 0.0000 0.0000 0.0000
# 4 1.7440 -1.7440 0.0000 24.9052 0.0000 0.0000
# 5 0.0000 0.0000 0.0000 0.0000 24.9052 1.7440
# 6 0.0000 0.0000 0.0000 0.0000 1.7440 21.1369
#
#
#
# Elastic Compliance Matrix: (Units=1/GPa)
#
#
# Indices 1 2 3 4 5 6 
#
# 1 0.019823 -0.003970 -0.002094 -0.001666 0.000000 0.000000
# 2 -0.003970 0.019823 -0.002094 0.001666 0.000000 0.000000
# 3 -0.002094 -0.002094 0.005519 0.000000 0.000000 0.000000
# 4 -0.001666 0.001666 0.000000 0.040386 0.000000 0.000000
# 5 0.000000 0.000000 0.000000 0.000000 0.040386 -0.003332
# 6 0.000000 0.000000 0.000000 0.000000 -0.003332 0.047586
#
#
# Mechanical properties :
#
#
# Convention : Reuss Voigt Hill
#
# Bulk Modulus (GPa) = 34.66097 49.76947 42.21522
# Shear Modulus (GPa) = 25.06858 30.63179 27.85018
#
# Velocity S-wave (km/s) = 3.44947 3.81306 3.63581
# Velocity P-wave (km/s) = 5.68480 6.55812 6.13701
#
# Compressibility (1/GPa) = 0.02885090
#
# Stress axis : x y z
#
# Youngs Moduli (GPa) = 50.44684 50.44684 181.18216
#
# Poissons Ratio (x) = 0.20027 0.37931
# Poissons Ratio (y) = 0.20027 0.37931
# Poissons Ratio (z) = 0.10561 0.10561
#
# Static dielectric constant tensor:
#      x y z
#    x 1.789990 0.000000 0.000000 
#    y 0.000000 1.789990 0.000000 
#    z 0.000000 0.000000 1.904630 
# 
# From -- ./inp_files/519.got.cif
#   From: 2010.05.17/outbox.cif.g08.bks.cpg/sg152_1_cif.got.tgz:519.got - 2010.05.20 10:36:06.
