data_PCOD9575784
_publ_section_title
;
Structure prediction by ZEFSAII (Michael W. Deem and Ramdas Pophale) SiO2 
 PCOD9575784
Probable space group: P 31 2 1
;
_chemical_formula_sum "Si O2"
_cell_formula_units_Z 24
_cell_length_a 15.966791
_cell_length_b 15.966791
_cell_length_c 5.410857
_cell_angle_alpha 90.000000
_cell_angle_beta 90.000000
_cell_angle_gamma 120.000000
_cell_volume 1194.626018
_symmetry_space_group_name_H-M "P 31 2 1"
_symmetry_group_IT_number 152
_symmetry_cell_setting 'hexagonal'
loop_
_space_group_symop_operation_xyz
x,y,z
-y,x-y,1/3+z
-x+y,-x,2/3+z
x-y,-y,2/3-z
-x,-x+y,1/3-z
y,x,-z
loop_
_atom_site_type_symbol
_atom_site_label
_atom_site_fract_x
_atom_site_fract_y
_atom_site_fract_z
Si Si1 0.234887 0.027994 0.081657
Si Si2 0.054062 0.601687 0.412311
Si Si3 0.562827 0.766324 0.236441
Si Si4 0.112446 0.442825 0.407276
O O1 0.320224 0.138241 0.087615
O O2 0.176873 0.000000 0.333334
O O3 0.287546 0.961148 0.074008
O O4 0.174470 0.000000 0.833334
O O5 0.159742 0.691143 0.468695
O O6 0.061024 0.505460 0.377665
O O7 0.000000 0.593836 0.666667
O O8 0.000000 0.608824 0.166667
O O9 0.533065 0.719698 0.510216
O O10 0.532101 0.689861 0.013939
#
# Coordination Sequence:
#
# PCOD9575784 Si02
#       4
#     6   6   6   6
#     4   8  14  27  49  68  88 124 169 219 260 304
#     4  12  23  37  56  78 111 152 185 227 309 362
#     4  10  20  34  52  76 100 133 187 235 268 325
#     4  10  19  36  55  72 101 143 189 230 279 336
#
# _framework density 20.089969
#
# number of rings (size 3 to 8) (size 9 to 14) (size 15 to 20)
#    0.000    2.000    0.000    7.500    0.000    0.000 
#    4.500    0.000    0.000    0.000    0.000    0.000 
#    0.000    0.000    0.000  303.750    0.000    7.750 
#
# Total GULP energy -133701.422373 kJ/mol
# GULP energy per Si atom -5570.892599 kJ/mol
# Density = 2.004424 g / cm^3
# Si number density = 20.089969 Si / 1000 Ang^3
#
#
#
# Elastic Constant Matrix: (Units=GPa)
#
#
# Indices 1 2 3 4 5 6 
#
# 1 42.2709 -22.4833 12.4331 -27.9170 0.0006 0.0000
# 2 -22.4833 42.2709 12.4331 27.9170 -0.0006 0.0000
# 3 12.4331 12.4331 193.7008 0.0000 0.0000 0.0000
# 4 -27.9170 27.9170 0.0000 24.6310 0.0000 -0.0006
# 5 0.0006 -0.0006 0.0000 0.0000 24.6310 -27.9170
# 6 0.0000 0.0000 0.0000 -0.0006 -27.9170 32.3771
#
#
#
# Elastic Compliance Matrix: (Units=1/GPa)
#
#
# Indices 1 2 3 4 5 6 
#
# 1 0.367288 -0.312318 -0.003528 0.770272 -0.000018 0.000000
# 2 -0.312318 0.367288 -0.003528 -0.770272 0.000018 0.000000
# 3 -0.003528 -0.003528 0.005616 0.000000 0.000000 0.000000
# 4 0.770272 -0.770272 0.000000 1.786667 0.000000 0.000035
# 5 -0.000018 0.000018 0.000000 0.000000 1.786667 1.540544
# 6 0.000000 0.000000 0.000000 0.000035 1.540544 1.359212
#
#
# Mechanical properties :
#
#
# Convention : Reuss Voigt Hill
#
# Bulk Modulus (GPa) = 9.85772 31.44538 20.65155
# Shear Modulus (GPa) = 0.78798 34.71844 17.75321
#
# Velocity S-wave (km/s) = 0.62696 4.16161 2.97591
# Velocity P-wave (km/s) = 2.33271 6.22722 4.70212
#
# Compressibility (1/GPa) = 0.10144329
#
# Stress axis : x y z
#
# Youngs Moduli (GPa) = 2.72266 2.72266 178.07662
#
# Poissons Ratio (x) = 0.85033 0.62833
# Poissons Ratio (y) = 0.85033 0.62833
# Poissons Ratio (z) = 0.00961 0.00961
#
# Static dielectric constant tensor:
#      x y z
#    x 1.585050 0.000000 0.000000 
#    y 0.000000 1.585050 0.000000 
#    z 0.000000 0.000000 1.860960 
# 
# From -- ./inp_files/131.got.cif
#   From: 2010.05.17/outbox.cif.g08.bks.cpg/sg152_1_cif.got.tgz:131.got - 2010.05.20 10:36:06.
