data_PCOD9575511
_publ_section_title
;
Structure prediction by ZEFSAII (Michael W. Deem and Ramdas Pophale) SiO2 
 PCOD9575511
Probable space group: P 31 1 2
;
_chemical_formula_sum "Si O2"
_cell_formula_units_Z 39
_cell_length_a 8.672025
_cell_length_b 8.672025
_cell_length_c 30.687692
_cell_angle_alpha 90.000000
_cell_angle_beta 90.000000
_cell_angle_gamma 120.000000
_cell_volume 1998.646101
_symmetry_space_group_name_H-M "P 31 1 2"
_symmetry_group_IT_number 151
_symmetry_cell_setting 'hexagonal'
loop_
_space_group_symop_operation_xyz
x,y,z
-y,x-y,1/3+z
-x+y,-x,2/3+z
-y,-x,2/3-z
-x+y,y,1/3-z
x,x-y,-z
loop_
_atom_site_type_symbol
_atom_site_label
_atom_site_fract_x
_atom_site_fract_y
_atom_site_fract_z
Si Si1 0.608943 0.891002 0.313125
Si Si2 0.849884 0.150117 0.833334
Si Si3 0.833053 0.116203 0.691560
Si Si4 0.531840 0.093651 0.571020
Si Si5 0.659467 0.873108 0.904953
Si Si6 0.883107 0.533380 0.392975
Si Si7 0.442966 0.721914 0.403466
O O1 0.785361 0.874946 0.307775
O O2 0.556537 0.847125 0.363611
O O3 0.445555 0.730133 0.286019
O O4 0.600897 0.062356 0.296262
O O5 0.897958 0.316342 0.864655
O O6 0.017730 0.214331 0.801560
O O7 0.667832 0.103446 0.718200
O O8 0.842109 0.203620 0.645027
O O9 0.009027 0.247734 0.718525
O O10 0.719473 0.270954 0.574392
O O11 0.538076 0.911048 0.572485
O O12 0.638063 0.683182 0.913092
O O13 0.456889 0.833555 0.901496
#
# Coordination Sequence:
#
# PCOD9575511 Si02
#       7
#     6   3   6   6   6   6   6
#     4   9  17  29  53  88 121 139 177 226 300 370
#     4  10  24  44  54  74 114 164 202 238 282 346
#     4  10  18  34  57  87 122 149 178 237 307 364
#     4  10  21  37  59  82 115 155 196 239 290 349
#     4  10  21  37  59  80 113 155 196 239 293 346
#     4  11  19  34  60  90 113 149 188 249 298 351
#     4   9  16  32  56  84 107 149 188 226 281 365
#
# _framework density 19.513210000000001
#
# number of rings (size 3 to 8) (size 9 to 14) (size 15 to 20)
#    0.000    2.154    3.077    0.923    0.000    0.615 
#    0.000   13.846    0.000    0.000    0.000    0.000 
#    0.000    0.000    0.000    0.000    0.000    0.000 
#
# Total GULP energy -217414.867524 kJ/mol
# GULP energy per Si atom -5574.740193 kJ/mol
# Density = 1.946880 g / cm^3
# Si number density = 19.513210 Si / 1000 Ang^3
#
#
#
# Elastic Constant Matrix: (Units=GPa)
#
#
# Indices 1 2 3 4 5 6 
#
# 1 71.2161 17.6284 0.6187 -0.0001 -5.5211 0.0000
# 2 17.6284 71.2161 0.6187 0.0001 5.5211 0.0000
# 3 0.6187 0.6187 44.4940 0.0000 0.0000 0.0000
# 4 -0.0001 0.0001 0.0000 5.5463 0.0000 5.5211
# 5 -5.5211 5.5211 0.0000 0.0000 5.5463 -0.0001
# 6 0.0000 0.0000 0.0000 5.5211 -0.0001 26.7938
#
#
#
# Elastic Compliance Matrix: (Units=1/GPa)
#
#
# Indices 1 2 3 4 5 6 
#
# 1 0.017367 -0.006109 -0.000157 0.000000 0.023370 0.000000
# 2 -0.006109 0.017367 -0.000157 0.000000 -0.023370 0.000000
# 3 -0.000157 -0.000157 0.022479 0.000000 0.000000 0.000000
# 4 0.000000 0.000000 0.000000 0.226825 0.000000 -0.046739
# 5 0.023370 -0.023370 0.000000 0.000000 0.226825 0.000001
# 6 0.000000 0.000000 0.000000 -0.046739 0.000001 0.046953
#
#
# Mechanical properties :
#
#
# Convention : Reuss Voigt Hill
#
# Bulk Modulus (GPa) = 22.53842 24.96199 23.75020
# Shear Modulus (GPa) = 8.54041 18.78132 13.66087
#
# Velocity S-wave (km/s) = 2.09433 3.10577 2.64878
# Velocity P-wave (km/s) = 4.17417 5.06766 4.64246
#
# Compressibility (1/GPa) = 0.04436868
#
# Stress axis : x y z
#
# Youngs Moduli (GPa) = 57.57993 57.57993 44.48541
#
# Poissons Ratio (x) = 0.35178 0.00696
# Poissons Ratio (y) = 0.35178 0.00696
# Poissons Ratio (z) = 0.00901 0.00901
#
# Static dielectric constant tensor:
#      x y z
#    x 1.731890 0.000000 0.000000 
#    y 0.000000 1.731890 0.000000 
#    z 0.000000 0.000000 1.662320 
# 
# From -- ./inp_files/4928.got.cif
#   From: 2010.05.17/outbox.cif.g08.bks.cpg/sg151_3_cif.got.tgz:4928.got - 2010.05.20 10:33:20.
