data_PCOD9575002
_publ_section_title
;
Structure prediction by ZEFSAII (Michael W. Deem and Ramdas Pophale) SiO2 
 PCOD9575002
Probable space group: R -3
;
_chemical_formula_sum "Si O2"
_cell_formula_units_Z 108
_cell_length_a 19.442247
_cell_length_b 19.442247
_cell_length_c 12.477028
_cell_angle_alpha 90.000000
_cell_angle_beta 90.000000
_cell_angle_gamma 120.000000
_cell_volume 4084.460438
_symmetry_space_group_name_H-M "R -3"
_symmetry_group_IT_number 148
_symmetry_cell_setting 'hexagonal'
loop_
_space_group_symop_operation_xyz
x,y,z
-y,x-y,z
-x+y,-x,z
-x,-y,-z
y,-x+y,-z
x-y,x,-z
2/3+x,1/3+y,1/3+z
2/3-y,1/3+x-y,1/3+z
2/3-x+y,1/3-x,1/3+z
2/3-x,1/3-y,1/3-z
2/3+y,1/3-x+y,1/3-z
2/3+x-y,1/3+x,1/3-z
1/3+x,2/3+y,2/3+z
1/3-y,2/3+x-y,2/3+z
1/3-x+y,2/3-x,2/3+z
1/3-x,2/3-y,2/3-z
1/3+y,2/3-x+y,2/3-z
1/3+x-y,2/3+x,2/3-z
loop_
_atom_site_type_symbol
_atom_site_label
_atom_site_fract_x
_atom_site_fract_y
_atom_site_fract_z
Si Si1 0.427673 0.595674 0.719764
Si Si2 0.037284 0.596811 0.072695
Si Si3 0.506691 0.659816 0.941121
Si Si4 0.764422 0.490990 0.846297
Si Si5 0.679776 0.036512 0.540222
Si Si6 0.223719 0.901531 0.972810
O O1 0.335412 0.540594 0.697405
O O2 0.451980 0.636586 0.837051
O O3 0.473935 0.547989 0.690281
O O4 0.084450 0.567993 0.145530
O O5 0.062358 0.683841 0.120406
O O6 0.057736 0.455192 0.929555
O O7 0.055782 0.609319 0.947237
O O8 0.585702 0.747362 0.950322
O O9 0.472329 0.656673 0.059213
O O10 0.785251 0.439145 0.765074
O O11 0.610158 0.037433 0.475773
O O12 0.653655 0.957304 0.614315
#
# Coordination Sequence:
#
# PCOD9575002 Si02
#       6
#    18  18  18  18  18  18
#     4  12  27  45  68  99 139 191 230 267 334 412
#     4  10  17  41  65 101 135 169 222 286 347 395
#     4  10  22  48  69 103 138 164 232 298 348 392
#     4  12  27  45  68  99 139 191 230 267 334 412
#     4   8  16  32  65  95 132 158 202 278 348 404
#     4  10  17  41  65 101 135 169 222 286 347 395
#
# _framework density 26.441680999999999
#
# number of rings (size 3 to 8) (size 9 to 14) (size 15 to 20)
#    0.000    2.000    6.667    0.333    0.000    5.333 
#   18.000    0.000    0.000    0.000    0.000    0.000 
#    0.000    0.000    0.000    0.000    0.000    0.000 
#
# Total GULP energy -200739.366574 kJ/mol
# GULP energy per Si atom -5576.093516 kJ/mol
# Density = 2.638150 g / cm^3
# Si number density = 26.441681 Si / 1000 Ang^3
#
#
#
# Elastic Constant Matrix: (Units=GPa)
#
#
# Indices 1 2 3 4 5 6 
#
# 1 141.9460 75.0936 99.1524 11.0485 2.2442 0.0000
# 2 75.0936 141.9460 99.1524 -11.0485 -2.2442 0.0000
# 3 99.1524 99.1524 279.6060 0.0000 0.0000 0.0000
# 4 11.0485 -11.0485 0.0000 6.0962 0.0000 -2.2442
# 5 2.2442 -2.2442 0.0000 0.0000 6.0962 11.0485
# 6 0.0000 0.0000 0.0000 -2.2442 11.0485 33.4262
#
#
#
# Elastic Compliance Matrix: (Units=1/GPa)
#
#
# Indices 1 2 3 4 5 6 
#
# 1 0.023286 -0.016471 -0.002417 -0.072054 -0.014636 0.000000
# 2 -0.016471 0.023286 -0.002417 0.072054 0.014636 0.000000
# 3 -0.002417 -0.002417 0.005291 0.000000 0.000000 0.000000
# 4 -0.072054 0.072054 0.000000 0.435986 0.000000 0.029272
# 5 -0.014636 0.014636 0.000000 0.000000 0.435986 -0.144108
# 6 0.000000 0.000000 0.000000 0.029272 -0.144108 0.079514
#
#
# Mechanical properties :
#
#
# Convention : Reuss Voigt Hill
#
# Bulk Modulus (GPa) = 108.05754 123.36609 115.71182
# Shear Modulus (GPa) = 4.76625 28.46371 16.61498
#
# Velocity S-wave (km/s) = 1.34405 3.28452 2.50944
# Velocity P-wave (km/s) = 6.58511 7.81929 7.22859
#
# Compressibility (1/GPa) = 0.00925433
#
# Stress axis : x y z
#
# Youngs Moduli (GPa) = 42.94336 42.94335 189.01243
#
# Poissons Ratio (x) = 0.70731 0.45684
# Poissons Ratio (y) = 0.70731 0.45684
# Poissons Ratio (z) = 0.10379 0.10379
#
# Static dielectric constant tensor:
#      x y z
#    x 6.010030 0.000000 0.000000 
#    y 0.000000 6.010030 0.000000 
#    z 0.000000 0.000000 2.470910 
# 
# From -- ./inp_files/2033.got.cif
#   From: 2010.05.17/outbox.cif.g08.bks.cpg/sg148_2_cif.got.tgz:2033.got - 2010.05.20 13:50:20.
