data_PCOD9575263
_publ_section_title
;
Structure prediction by ZEFSAII (Michael W. Deem and Ramdas Pophale) SiO2 
 PCOD9575263
Probable space group: R -3
;
_chemical_formula_sum "Si O2"
_cell_formula_units_Z 72
_cell_length_a 18.687894
_cell_length_b 18.687894
_cell_length_c 9.290960
_cell_angle_alpha 90.000000
_cell_angle_beta 90.000000
_cell_angle_gamma 120.000000
_cell_volume 2810.036404
_symmetry_space_group_name_H-M "R -3"
_symmetry_group_IT_number 148
_symmetry_cell_setting 'hexagonal'
loop_
_space_group_symop_operation_xyz
x,y,z
-y,x-y,z
-x+y,-x,z
-x,-y,-z
y,-x+y,-z
x-y,x,-z
2/3+x,1/3+y,1/3+z
2/3-y,1/3+x-y,1/3+z
2/3-x+y,1/3-x,1/3+z
2/3-x,1/3-y,1/3-z
2/3+y,1/3-x+y,1/3-z
2/3+x-y,1/3+x,1/3-z
1/3+x,2/3+y,2/3+z
1/3-y,2/3+x-y,2/3+z
1/3-x+y,2/3-x,2/3+z
1/3-x,2/3-y,2/3-z
1/3+y,2/3-x+y,2/3-z
1/3+x-y,2/3+x,2/3-z
loop_
_atom_site_type_symbol
_atom_site_label
_atom_site_fract_x
_atom_site_fract_y
_atom_site_fract_z
Si Si1 0.121874 0.429233 0.474122
Si Si2 0.560127 0.643358 0.006478
Si Si3 0.547754 0.284737 0.741488
Si Si4 0.959148 0.519368 0.298440
O O1 0.065957 0.347341 0.380090
O O2 0.198333 0.499534 0.386476
O O3 0.075750 0.470017 0.552012
O O4 0.154259 0.392409 0.599486
O O5 0.477936 0.610826 0.101875
O O6 0.614531 0.739808 0.034675
O O7 0.536787 0.620165 0.840151
O O8 0.631853 0.388454 0.739573
#
# Coordination Sequence:
#
# PCOD9575263 Si02
#       4
#    18  18  18  18
#     4  11  25  42  66 109 140 190 240 289 379 423
#     4  11  21  43  67 102 139 182 240 300 361 421
#     4  11  24  42  68  96 135 188 244 291 350 434
#     4  11  23  41  69 101 147 183 237 300 359 437
#
# _framework density 25.622443000000001
#
# number of rings (size 3 to 8) (size 9 to 14) (size 15 to 20)
#    0.000    1.000    2.500    6.250    0.000    5.000 
#    0.000    0.000    0.000    6.500    0.000    0.000 
#    0.000    0.000    0.000    0.000    0.000    0.000 
#
# Total GULP energy -133755.081531 kJ/mol
# GULP energy per Si atom -5573.128397 kJ/mol
# Density = 2.556412 g / cm^3
# Si number density = 25.622443 Si / 1000 Ang^3
#
#
#
# Elastic Constant Matrix: (Units=GPa)
#
#
# Indices 1 2 3 4 5 6 
#
# 1 112.0119 25.3069 40.9831 6.4147 1.2936 0.0000
# 2 25.3069 112.0119 40.9832 -6.4147 -1.2936 0.0000
# 3 40.9831 40.9832 92.4631 0.0000 -0.0002 0.0000
# 4 6.4147 -6.4147 0.0000 48.0373 0.0000 -1.2937
# 5 1.2936 -1.2936 -0.0002 0.0000 48.0372 6.4147
# 6 0.0000 0.0000 0.0000 -1.2937 6.4147 43.3525
#
#
#
# Elastic Compliance Matrix: (Units=1/GPa)
#
#
# Indices 1 2 3 4 5 6 
#
# 1 0.010839 -0.000937 -0.004389 -0.001572 -0.000317 0.000000
# 2 -0.000937 0.010839 -0.004389 0.001572 0.000317 0.000000
# 3 -0.004389 -0.004389 0.014706 0.000000 0.000000 0.000000
# 4 -0.001572 0.001572 0.000000 0.021254 0.000000 0.000634
# 5 -0.000317 0.000317 0.000000 0.000000 0.021254 -0.003145
# 6 0.000000 0.000000 0.000000 0.000634 -0.003145 0.023551
#
#
# Mechanical properties :
#
#
# Convention : Reuss Voigt Hill
#
# Bulk Modulus (GPa) = 58.98262 59.00368 58.99315
# Shear Modulus (GPa) = 39.20840 41.83297 40.52068
#
# Velocity S-wave (km/s) = 3.91607 4.04501 3.98106
# Velocity P-wave (km/s) = 6.59677 6.70032 6.64875
#
# Compressibility (1/GPa) = 0.01695415
#
# Stress axis : x y z
#
# Youngs Moduli (GPa) = 92.26100 92.26098 68.00009
#
# Poissons Ratio (x) = 0.08642 0.29845
# Poissons Ratio (y) = 0.08642 0.29845
# Poissons Ratio (z) = 0.40493 0.40493
#
# Static dielectric constant tensor:
#      x y z
#    x 2.100450 0.000000 0.000000 
#    y 0.000000 2.100450 0.000000 
#    z 0.000000 0.000000 2.033970 
# 
# From -- ./inp_files/804.got.cif
#   From: 2010.05.17/outbox.cif.g08.bks.cpg/sg148_1_cif.got.tgz:804.got - 2010.05.20 13:50:20.
