data_PCOD9575610
_publ_section_title
;
Structure prediction by ZEFSAII (Michael W. Deem and Ramdas Pophale) SiO2 
 PCOD9575610
Probable space group: P 31 1 2
;
_chemical_formula_sum "Si O2"
_cell_formula_units_Z 30
_cell_length_a 8.200300
_cell_length_b 8.200300
_cell_length_c 25.697318
_cell_angle_alpha 90.000000
_cell_angle_beta 90.000000
_cell_angle_gamma 120.000000
_cell_volume 1496.504105
_symmetry_space_group_name_H-M "P 31 1 2"
_symmetry_group_IT_number 151
_symmetry_cell_setting 'hexagonal'
loop_
_space_group_symop_operation_xyz
x,y,z
-y,x-y,1/3+z
-x+y,-x,2/3+z
-y,-x,2/3-z
-x+y,y,1/3-z
x,x-y,-z
loop_
_atom_site_type_symbol
_atom_site_label
_atom_site_fract_x
_atom_site_fract_y
_atom_site_fract_z
Si Si1 0.436701 0.176334 0.821689
Si Si2 0.647595 0.013768 0.015525
Si Si3 0.042967 0.469780 0.254191
Si Si4 0.013545 0.377099 0.046696
Si Si5 0.127615 0.435249 0.544555
O O1 0.632892 0.367109 0.833334
O O2 0.282250 0.238841 0.809264
O O3 0.387610 0.060008 0.874365
O O4 0.452492 0.069030 0.770683
O O5 0.861970 0.168401 0.026940
O O6 0.533653 0.964618 0.069823
O O7 0.636464 0.818232 0.000000
O O8 0.554675 0.073056 0.969851
O O9 0.201923 0.429133 0.276717
O O10 0.132502 0.676325 0.227858
O O11 0.015264 0.507632 0.000000
O O12 0.169711 0.584856 0.500000
#
# Coordination Sequence:
#
# PCOD9575610 Si02
#       5
#     6   6   6   6   6
#     4  10  21  37  57  85 118 152 196 249 301 356
#     4   9  20  38  56  83 119 153 194 247 295 352
#     4  11  21  38  61  84 116 155 199 246 298 362
#     4  11  21  36  60  85 115 156 199 241 300 363
#     4   9  18  35  58  81 111 148 191 239 290 347
#
# _framework density 20.046721999999999
#
# number of rings (size 3 to 8) (size 9 to 14) (size 15 to 20)
#    0.000    2.000    0.000    4.800    0.000    0.000 
#    0.000   19.000    0.000    0.000    0.000    0.000 
#    0.000    0.000    0.000    0.000    0.000    0.000 
#
# Total GULP energy -167173.681980 kJ/mol
# GULP energy per Si atom -5572.456066 kJ/mol
# Density = 2.000110 g / cm^3
# Si number density = 20.046722 Si / 1000 Ang^3
#
#
#
# Elastic Constant Matrix: (Units=GPa)
#
#
# Indices 1 2 3 4 5 6 
#
# 1 52.7058 17.4339 32.4103 0.0000 -6.8596 0.0000
# 2 17.4339 52.7058 32.4103 0.0000 6.8596 0.0000
# 3 32.4103 32.4103 130.3285 0.0000 0.0000 0.0000
# 4 0.0000 0.0000 0.0000 35.8487 0.0000 6.8596
# 5 -6.8596 6.8596 0.0000 0.0000 35.8487 0.0000
# 6 0.0000 0.0000 0.0000 6.8596 0.0000 17.6359
#
#
#
# Elastic Compliance Matrix: (Units=1/GPa)
#
#
# Indices 1 2 3 4 5 6 
#
# 1 0.024571 -0.006060 -0.004604 0.000000 0.005861 0.000000
# 2 -0.006060 0.024571 -0.004604 0.000000 -0.005861 0.000000
# 3 -0.004604 -0.004604 0.009963 0.000000 0.000000 0.000000
# 4 0.000000 0.000000 0.000000 0.030138 0.000000 -0.011722
# 5 0.005861 -0.005861 0.000000 0.000000 0.030138 0.000000
# 6 0.000000 0.000000 0.000000 -0.011722 0.000000 0.061262
#
#
# Mechanical properties :
#
#
# Convention : Reuss Voigt Hill
#
# Bulk Modulus (GPa) = 34.99952 44.47210 39.73581
# Shear Modulus (GPa) = 22.65516 28.09903 25.37709
#
# Velocity S-wave (km/s) = 3.36537 3.74796 3.56180
# Velocity P-wave (km/s) = 5.70945 6.40015 6.06464
#
# Compressibility (1/GPa) = 0.02857182
#
# Stress axis : x y z
#
# Youngs Moduli (GPa) = 40.69792 40.69792 100.37609
#
# Poissons Ratio (x) = 0.24661 0.46208
# Poissons Ratio (y) = 0.24661 0.46208
# Poissons Ratio (z) = 0.18735 0.18735
#
# Static dielectric constant tensor:
#      x y z
#    x 1.717520 0.000000 0.000000 
#    y 0.000000 1.717520 0.000000 
#    z 0.000000 0.000000 1.755920 
# 
# From -- ./inp_files/4165.got.cif
#   From: 2010.05.17/outbox.cif.g08.bks.cpg/sg151_3_cif.got.tgz:4165.got - 2010.05.20 10:33:20.
