data_PCOD9575525
_publ_section_title
;
Structure prediction by ZEFSAII (Michael W. Deem and Ramdas Pophale) SiO2 
 PCOD9575525
Probable space group: P 31 1 2
;
_chemical_formula_sum "Si O2"
_cell_formula_units_Z 42
_cell_length_a 8.341191
_cell_length_b 8.341191
_cell_length_c 29.017886
_cell_angle_alpha 90.000000
_cell_angle_beta 90.000000
_cell_angle_gamma 120.000000
_cell_volume 1748.447248
_symmetry_space_group_name_H-M "P 31 1 2"
_symmetry_group_IT_number 151
_symmetry_cell_setting 'hexagonal'
loop_
_space_group_symop_operation_xyz
x,y,z
-y,x-y,1/3+z
-x+y,-x,2/3+z
-y,-x,2/3-z
-x+y,y,1/3-z
x,x-y,-z
loop_
_atom_site_type_symbol
_atom_site_label
_atom_site_fract_x
_atom_site_fract_y
_atom_site_fract_z
Si Si1 0.657368 0.839819 0.769575
Si Si2 0.839819 0.182449 0.602908
Si Si3 0.999999 0.776356 0.250000
Si Si4 0.727155 0.885900 0.336630
Si Si5 0.885900 0.158745 0.169964
Si Si6 0.034195 0.459917 0.671968
Si Si7 0.574276 0.034195 0.838634
O O1 0.637843 0.804620 0.715038
O O2 0.715869 0.718356 0.801269
O O3 0.845953 0.035707 0.770703
O O4 0.522823 0.901036 0.793871
O O5 0.804619 0.166777 0.548371
O O6 0.035706 0.189749 0.604035
O O7 0.901037 0.378211 0.627204
O O8 0.718356 0.002487 0.634602
O O9 0.070859 0.702668 0.209090
O O10 0.929142 0.631809 0.290909
O O11 0.594024 0.950227 0.358793
O O12 0.935974 0.064027 0.333334
O O13 0.950227 0.356202 0.192127
O O14 0.064027 0.128053 0.166667
O O15 0.243598 0.487195 0.666667
O O16 0.756402 0.243599 0.833334
#
# Coordination Sequence:
#
# PCOD9575525 Si02
#       7
#     6   6   6   6   6   6   6
#     4  11  21  44  67  94 132 183 226 285 346 413
#     4  11  21  44  67  94 132 183 226 285 346 413
#     4  10  18  40  68  88 124 178 220 270 342 408
#     4  12  23  40  70 100 127 178 240 281 337 424
#     4  12  23  40  70 100 127 178 240 281 337 424
#     4  10  24  41  63  94 136 174 218 280 353 408
#     4  10  24  41  63  94 136 174 218 280 353 408
#
# _framework density 24.021315000000001
#
# number of rings (size 3 to 8) (size 9 to 14) (size 15 to 20)
#    0.000    1.143    5.714    0.857    4.000    2.286 
#    5.143    1.429    0.000    0.000    0.000    0.000 
#    0.000    0.000    0.000    0.000    0.000    0.000 
#
# Total GULP energy -234023.446377 kJ/mol
# GULP energy per Si atom -5571.986819 kJ/mol
# Density = 2.396664 g / cm^3
# Si number density = 24.021315 Si / 1000 Ang^3
#
#
#
# Elastic Constant Matrix: (Units=GPa)
#
#
# Indices 1 2 3 4 5 6 
#
# 1 46.2319 -1.1853 1.6770 0.0000 -0.0001 0.0000
# 2 -1.1853 46.2319 1.6770 0.0000 0.0001 0.0000
# 3 1.6770 1.6770 103.8207 0.0000 0.0000 0.0000
# 4 0.0000 0.0000 0.0000 12.9125 0.0000 0.0001
# 5 -0.0001 0.0001 0.0000 0.0000 12.9125 0.0000
# 6 0.0000 0.0000 0.0000 0.0001 0.0000 23.7086
#
#
#
# Elastic Compliance Matrix: (Units=1/GPa)
#
#
# Indices 1 2 3 4 5 6 
#
# 1 0.021658 0.000568 -0.000359 0.000000 0.000000 0.000000
# 2 0.000568 0.021658 -0.000359 0.000000 0.000000 0.000000
# 3 -0.000359 -0.000359 0.009644 0.000000 0.000000 0.000000
# 4 0.000000 0.000000 0.000000 0.077445 0.000000 0.000000
# 5 0.000000 0.000000 0.000000 0.000000 0.077445 0.000000
# 6 0.000000 0.000000 0.000000 0.000000 0.000000 0.042179
#
#
# Mechanical properties :
#
#
# Convention : Reuss Voigt Hill
#
# Bulk Modulus (GPa) = 18.98995 22.29132 20.64063
# Shear Modulus (GPa) = 18.66511 22.84775 20.75643
#
# Velocity S-wave (km/s) = 2.79054 3.08741 2.94272
# Velocity P-wave (km/s) = 4.27848 4.69142 4.48970
#
# Compressibility (1/GPa) = 0.05265945
#
# Stress axis : x y z
#
# Youngs Moduli (GPa) = 46.17299 46.17299 103.69580
#
# Poissons Ratio (x) = -0.02624 0.03723
# Poissons Ratio (y) = -0.02624 0.03723
# Poissons Ratio (z) = 0.01658 0.01658
#
# Static dielectric constant tensor:
#      x y z
#    x 1.976490 0.000000 0.000000 
#    y 0.000000 1.976490 0.000000 
#    z 0.000000 0.000000 2.342540 
# 
# From -- ./inp_files/5026.got.cif
#   From: 2010.05.17/outbox.cif.g08.bks.cpg/sg151_3_cif.got.tgz:5026.got - 2010.05.20 10:33:20.
