data_PCOD9575414
_publ_section_title
;
Structure prediction by ZEFSAII (Michael W. Deem and Ramdas Pophale) SiO2 
 PCOD9575414
Probable space group: P 3 2 1
;
_chemical_formula_sum "Si O2"
_cell_formula_units_Z 30
_cell_length_a 14.008642
_cell_length_b 14.008642
_cell_length_c 9.866211
_cell_angle_alpha 90.000000
_cell_angle_beta 90.000000
_cell_angle_gamma 120.000000
_cell_volume 1676.768491
_symmetry_space_group_name_H-M "P 3 2 1"
_symmetry_group_IT_number 150
_symmetry_cell_setting 'hexagonal'
loop_
_space_group_symop_operation_xyz
x,y,z
-y,x-y,z
-x+y,-x,z
x-y,-y,-z
-x,-x+y,-z
y,x,-z
loop_
_atom_site_type_symbol
_atom_site_label
_atom_site_fract_x
_atom_site_fract_y
_atom_site_fract_z
Si Si1 0.791701 0.127902 0.500000
Si Si2 0.476949 0.725932 1.000000
Si Si3 0.423075 0.128993 0.269740
Si Si4 0.576924 0.705918 0.269740
Si Si5 0.870836 0.434192 0.499999
O O1 0.856237 0.195443 0.367328
O O2 0.856235 0.195444 0.632672
O O3 0.679346 0.135215 0.499999
O O4 0.754782 0.000000 0.500000
O O5 0.403899 0.785440 0.999999
O O6 0.547034 0.747809 0.135112
O O7 0.547035 0.747809 0.864888
O O8 0.532790 0.170720 0.363718
O O9 0.371860 0.999999 0.235627
O O10 0.467209 0.637929 0.363719
O O11 0.000000 0.472130 0.500000
#
# Coordination Sequence:
#
# PCOD9575414 Si02
#       5
#     6   6   6   6   6
#     4  10  19  33  53  77 101 135 183 226 266 316
#     4  10  21  32  50  80 107 146 178 210 254 312
#     4  10  19  34  52  75 108 142 176 218 269 315
#     4  10  19  34  52  75 108 142 176 218 269 315
#     4   8  16  29  48  71  98 135 176 220 265 310
#
# _framework density 17.891556999999999
#
# number of rings (size 3 to 8) (size 9 to 14) (size 15 to 20)
#    0.400    2.000    0.000    4.800    0.000    0.000 
#    9.600    3.000    0.000    3.200    0.000    0.000 
#    0.000    0.000    0.000    0.000    0.000    0.000 
#
# Total GULP energy -167182.397772 kJ/mol
# GULP energy per Si atom -5572.746592 kJ/mol
# Density = 1.785083 g / cm^3
# Si number density = 17.891557 Si / 1000 Ang^3
#
#
#
# Elastic Constant Matrix: (Units=GPa)
#
#
# Indices 1 2 3 4 5 6 
#
# 1 41.4218 -5.2752 9.2977 0.0000 0.0000 0.0000
# 2 -5.2752 41.4218 9.2977 0.0000 0.0000 0.0000
# 3 9.2977 9.2977 118.5695 0.0000 0.0000 0.0000
# 4 0.0000 0.0000 0.0000 9.6145 0.0000 0.0000
# 5 0.0000 0.0000 0.0000 0.0000 9.6145 0.0000
# 6 0.0000 0.0000 0.0000 0.0000 0.0000 23.3485
#
#
#
# Elastic Compliance Matrix: (Units=1/GPa)
#
#
# Indices 1 2 3 4 5 6 
#
# 1 0.025121 0.003707 -0.002261 0.000000 0.000000 0.000000
# 2 0.003707 0.025121 -0.002261 0.000000 0.000000 0.000000
# 3 -0.002261 -0.002261 0.008788 0.000000 0.000000 0.000000
# 4 0.000000 0.000000 0.000000 0.104010 0.000000 0.000000
# 5 0.000000 0.000000 0.000000 0.000000 0.104010 0.000000
# 6 0.000000 0.000000 0.000000 0.000000 0.000000 0.042829
#
#
# Mechanical properties :
#
#
# Convention : Reuss Voigt Hill
#
# Bulk Modulus (GPa) = 17.42093 25.33930 21.38012
# Shear Modulus (GPa) = 15.12204 21.05501 18.08853
#
# Velocity S-wave (km/s) = 2.91040 3.43419 3.18309
# Velocity P-wave (km/s) = 4.58824 5.46977 5.04828
#
# Compressibility (1/GPa) = 0.05740220
#
# Stress axis : x y z
#
# Youngs Moduli (GPa) = 39.80678 39.80678 113.78627
#
# Poissons Ratio (x) = -0.14755 0.25722
# Poissons Ratio (y) = -0.14755 0.25722
# Poissons Ratio (z) = 0.08999 0.08999
#
# Static dielectric constant tensor:
#      x y z
#    x 1.608330 0.000000 0.000000 
#    y 0.000000 1.608330 0.000000 
#    z 0.000000 0.000000 1.615160 
# 
# From -- ./inp_files/583.got.cif
#   From: 2010.05.17/outbox.cif.g08.bks.cpg/sg150_cif.got.tgz:583.got - 2010.05.20 13:53:18.
