data_PCOD9575071
_publ_section_title
;
Structure prediction by ZEFSAII (Michael W. Deem and Ramdas Pophale) SiO2 
 PCOD9575071
Probable space group: R -3
;
_chemical_formula_sum "Si O2"
_cell_formula_units_Z 108
_cell_length_a 16.131074
_cell_length_b 16.131074
_cell_length_c 20.728566
_cell_angle_alpha 90.000000
_cell_angle_beta 90.000000
_cell_angle_gamma 120.000000
_cell_volume 4671.178436
_symmetry_space_group_name_H-M "R -3"
_symmetry_group_IT_number 148
_symmetry_cell_setting 'hexagonal'
loop_
_space_group_symop_operation_xyz
x,y,z
-y,x-y,z
-x+y,-x,z
-x,-y,-z
y,-x+y,-z
x-y,x,-z
2/3+x,1/3+y,1/3+z
2/3-y,1/3+x-y,1/3+z
2/3-x+y,1/3-x,1/3+z
2/3-x,1/3-y,1/3-z
2/3+y,1/3-x+y,1/3-z
2/3+x-y,1/3+x,1/3-z
1/3+x,2/3+y,2/3+z
1/3-y,2/3+x-y,2/3+z
1/3-x+y,2/3-x,2/3+z
1/3-x,2/3-y,2/3-z
1/3+y,2/3-x+y,2/3-z
1/3+x-y,2/3+x,2/3-z
loop_
_atom_site_type_symbol
_atom_site_label
_atom_site_fract_x
_atom_site_fract_y
_atom_site_fract_z
Si Si1 0.961481 0.805485 0.667288
Si Si2 0.247291 0.256362 0.322894
Si Si3 0.869719 0.452381 0.305833
Si Si4 0.029651 0.540688 0.403831
Si Si5 0.505251 0.361475 0.861499
Si Si6 0.044644 0.749526 0.118681
O O1 0.867148 0.812071 0.678082
O O2 0.928551 0.694856 0.652168
O O3 0.009985 0.850688 0.599483
O O4 0.034350 0.834911 0.726213
O O5 0.292359 0.218842 0.268749
O O6 0.299092 0.260139 0.390530
O O7 0.826900 0.361811 0.355135
O O8 0.968440 0.530515 0.338409
O O9 0.892901 0.419070 0.238179
O O10 0.970956 0.566369 0.454876
O O11 0.607787 0.454332 0.850779
O O12 0.429127 0.395832 0.844293
#
# Coordination Sequence:
#
# PCOD9575071 Si02
#       6
#    18  18  18  18  18  18
#     4  10  20  32  55  77 106 144 177 220 274 327
#     4   9  17  36  53  75 102 139 187 219 261 322
#     4   9  16  28  51  81 107 135 175 226 278 323
#     4   9  18  33  55  76 105 139 187 225 264 326
#     4  12  23  35  50  78 114 143 176 225 290 345
#     4   9  18  34  52  76 107 142 173 223 276 331
#
# _framework density 23.120502999999999
#
# number of rings (size 3 to 8) (size 9 to 14) (size 15 to 20)
#    0.000    2.333    1.667    3.333    0.000    0.000 
#    1.000    0.833    0.000    0.000    0.000    0.000 
#    0.000    0.000    0.000    0.000    0.000    0.000 
#
# Total GULP energy -200636.497146 kJ/mol
# GULP energy per Si atom -5573.236032 kJ/mol
# Density = 2.306788 g / cm^3
# Si number density = 23.120503 Si / 1000 Ang^3
#
#
#
# Elastic Constant Matrix: (Units=GPa)
#
#
# Indices 1 2 3 4 5 6 
#
# 1 97.7496 22.6608 -5.2527 -2.7742 -5.4900 0.0000
# 2 22.6608 97.7496 -5.2527 2.7742 5.4900 0.0000
# 3 -5.2527 -5.2527 30.1626 0.0000 0.0000 0.0000
# 4 -2.7742 2.7742 0.0000 0.0546 0.0000 5.4900
# 5 -5.4900 5.4900 0.0000 0.0000 0.0546 -2.7742
# 6 0.0000 0.0000 0.0000 5.4900 -2.7742 37.5444
#
#
#
# Elastic Compliance Matrix: (Units=1/GPa)
#
#
# Indices 1 2 3 4 5 6 
#
# 1 0.003835 0.004598 0.001469 -0.038759 -0.076702 0.000000
# 2 0.004598 0.003835 0.001469 0.038759 0.076702 0.000000
# 3 0.001469 0.001469 0.033665 0.000000 0.000000 0.000000
# 4 -0.038759 0.038759 0.000000 -1.049084 0.000000 0.153404
# 5 -0.076702 0.076702 0.000000 0.000000 -1.049084 -0.077518
# 6 0.000000 0.000000 0.000000 0.153404 -0.077518 -0.001524
#
#
# Mechanical properties :
#
#
# Convention : Reuss Voigt Hill
#
# Bulk Modulus (GPa) = 17.72872 27.77471 22.75172
# Shear Modulus (GPa) = -2.43353 21.76448 9.66547
#
# Velocity S-wave (km/s) = -1.02705 3.07147 2.04684
# Velocity P-wave (km/s) = 2.50563 4.96162 3.93039
#
# Compressibility (1/GPa) = 0.05640565
#
# Stress axis : x y z
#
# Youngs Moduli (GPa) = 260.72786 260.72786 29.70432
#
# Poissons Ratio (x) = -1.19873 -0.04362
# Poissons Ratio (y) = -1.19873 -0.04362
# Poissons Ratio (z) = -0.38290 -0.38290
#
# Static dielectric constant tensor:
#      x y z
#    x 1.888030 0.000000 0.000000 
#    y 0.000000 1.888030 0.000000 
#    z 0.000000 0.000000 1.887360 
# 
# From -- ./inp_files/3408.got.cif
#   From: 2010.05.17/outbox.cif.g08.bks.cpg/sg148_2_cif.got.tgz:3408.got - 2010.05.20 13:50:20.
