data_PCOD9575145
_publ_section_title
;
Structure prediction by ZEFSAII (Michael W. Deem and Ramdas Pophale) SiO2 
 PCOD9575145
Probable space group: R -3
;
_chemical_formula_sum "Si O2"
_cell_formula_units_Z 144
_cell_length_a 21.044170
_cell_length_b 21.044170
_cell_length_c 20.004177
_cell_angle_alpha 90.000000
_cell_angle_beta 90.000000
_cell_angle_gamma 120.000000
_cell_volume 7672.111807
_symmetry_space_group_name_H-M "R -3"
_symmetry_group_IT_number 148
_symmetry_cell_setting 'hexagonal'
loop_
_space_group_symop_operation_xyz
x,y,z
-y,x-y,z
-x+y,-x,z
-x,-y,-z
y,-x+y,-z
x-y,x,-z
2/3+x,1/3+y,1/3+z
2/3-y,1/3+x-y,1/3+z
2/3-x+y,1/3-x,1/3+z
2/3-x,1/3-y,1/3-z
2/3+y,1/3-x+y,1/3-z
2/3+x-y,1/3+x,1/3-z
1/3+x,2/3+y,2/3+z
1/3-y,2/3+x-y,2/3+z
1/3-x+y,2/3-x,2/3+z
1/3-x,2/3-y,2/3-z
1/3+y,2/3-x+y,2/3-z
1/3+x-y,2/3+x,2/3-z
loop_
_atom_site_type_symbol
_atom_site_label
_atom_site_fract_x
_atom_site_fract_y
_atom_site_fract_z
Si Si1 0.528551 0.725241 0.335293
Si Si2 0.621101 0.548541 0.752885
Si Si3 0.890286 0.764837 0.295682
Si Si4 0.455739 0.050467 0.336262
Si Si5 0.836615 0.262509 0.419201
Si Si6 0.287598 0.333987 0.356549
Si Si7 0.877130 0.853806 0.521883
Si Si8 0.023434 0.199546 0.228998
O O1 0.488440 0.642826 0.364056
O O2 0.610636 0.741096 0.322694
O O3 0.498802 0.724775 0.261498
O O4 0.520638 0.780706 0.383858
O O5 0.581735 0.483444 0.698112
O O6 0.559375 0.567905 0.772200
O O7 0.681940 0.616046 0.710033
O O8 0.649383 0.526627 0.818076
O O9 0.874033 0.681037 0.288420
O O10 0.855826 0.793144 0.240023
O O11 0.451296 0.114364 0.376646
O O12 0.527768 0.087276 0.289301
O O13 0.375409 0.002260 0.301024
O O14 0.813380 0.282962 0.488329
O O15 0.299386 0.388011 0.417298
O O16 0.869495 0.924729 0.524604
#
# Coordination Sequence:
#
# PCOD9575145 Si02
#       8
#    18  18  18  18  18  18  18  18
#     4  11  22  37  55  85 125 164 202 254 304 363
#     4   9  18  37  60  83 121 156 198 253 300 365
#     4   9  19  40  56  83 124 162 200 245 308 364
#     4   9  20  41  67  89 126 160 200 261 308 374
#     4  10  21  40  64  96 117 155 204 256 320 365
#     4   9  19  38  60  89 124 161 200 250 317 362
#     4  12  23  35  54  83 118 169 211 242 288 363
#     4  11  22  38  60  91 124 158 204 263 309 372
#
# _framework density 18.769278
#
# number of rings (size 3 to 8) (size 9 to 14) (size 15 to 20)
#    0.000    2.000    1.250    3.500    0.000    1.500 
#    9.750    0.000    0.000    0.250    0.000    0.000 
#    0.000    0.000    0.000    0.000    0.000    0.000 
#
# Total GULP energy -267717.249596 kJ/mol
# GULP energy per Si atom -5577.442700 kJ/mol
# Density = 1.872656 g / cm^3
# Si number density = 18.769278 Si / 1000 Ang^3
#
#
#
# Elastic Constant Matrix: (Units=GPa)
#
#
# Indices 1 2 3 4 5 6 
#
# 1 -536.6190 658.6387 30.2209 -85.1493 1276.7387 0.0002
# 2 658.6387 -536.6190 30.2209 85.1493-1276.7387 -0.0002
# 3 30.2209 30.2209 72.5959 0.0000 0.0000 0.0000
# 4 -85.1493 85.1493 0.0000-2597.9899 -0.0007-1276.7386
# 5 1276.7387-1276.7387 0.0000 -0.0007-2597.9902 -85.1500
# 6 0.0002 -0.0002 0.0000-1276.7386 -85.1500 -597.6289
#
#
#
# Elastic Compliance Matrix: (Units=1/GPa)
#
#
# Indices 1 2 3 4 5 6 
#
# 1 0.012832 -0.002508 -0.004298 -0.000503 0.007539 0.000000
# 2 -0.002508 0.012832 -0.004298 0.000503 -0.007539 0.000000
# 3 -0.004298 -0.004298 0.017353 0.000000 0.000000 0.000000
# 4 -0.000503 0.000503 0.000000 0.007058 0.000000 -0.015078
# 5 0.007539 -0.007539 0.000000 0.000000 0.007058 -0.001006
# 6 0.000000 0.000000 0.000000 -0.015078 -0.001006 0.030681
#
#
# Mechanical properties :
#
#
# Convention : Reuss Voigt Hill
#
# Bulk Modulus (GPa) = 48.05320 48.61321 48.33320
# Shear Modulus (GPa) = 42.75025 -1273.36997 -615.30986
#
# Velocity S-wave (km/s) = 4.77767 -26.07501 -18.12567
# Velocity P-wave (km/s) = 7.48949 29.67465 20.30384
#
# Compressibility (1/GPa) = 0.02081027
#
# Stress axis : x y z
#
# Youngs Moduli (GPa) = 77.92803 77.92803 57.62612
#
# Poissons Ratio (x) = 0.19544 0.24767
# Poissons Ratio (y) = 0.19544 0.24767
# Poissons Ratio (z) = 0.33493 0.33493
#
# Static dielectric constant tensor:
#      x y z
#    x 1.659050 0.000000 0.000000 
#    y 0.000000 1.659050 0.000000 
#    z 0.000000 0.000000 1.660280 
# 
# From -- ./inp_files/3152.got.cif
#   From: 2010.05.17/outbox.cif.g08.bks.cpg/sg148_2_cif.got.tgz:3152.got - 2010.05.20 13:50:20.
