data_PCOD9575394
_publ_section_title
;
Structure prediction by ZEFSAII (Michael W. Deem and Ramdas Pophale) SiO2 
 PCOD9575394
Probable space group: P 3 1 2
;
_chemical_formula_sum "Si O2"
_cell_formula_units_Z 32
_cell_length_a 17.157831
_cell_length_b 17.157831
_cell_length_c 7.575625
_cell_angle_alpha 90.000000
_cell_angle_beta 90.000000
_cell_angle_gamma 120.000000
_cell_volume 1931.407315
_symmetry_space_group_name_H-M "P 3 1 2"
_symmetry_group_IT_number 149
_symmetry_cell_setting 'hexagonal'
loop_
_space_group_symop_operation_xyz
x,y,z
-y,x-y,z
-x+y,-x,z
-y,-x,-z
-x+y,y,-z
x,x-y,-z
loop_
_atom_site_type_symbol
_atom_site_label
_atom_site_fract_x
_atom_site_fract_y
_atom_site_fract_z
Si Si1 0.000000 0.000000 0.214192
Si Si2 0.945678 0.712364 0.211517
Si Si3 0.945678 0.233314 0.211517
Si Si4 0.104298 0.208597 0.215647
Si Si5 0.665703 0.509584 0.711864
Si Si6 0.843880 0.509584 0.711864
O O1 0.051778 0.948222 0.267734
O O2 0.000000 0.000000 0.000000
O O3 0.861236 0.722472 0.278471
O O4 0.921266 0.610960 0.249384
O O5 0.041050 0.793131 0.275959
O O6 0.945612 0.721277 0.000000
O O7 0.921266 0.310306 0.249384
O O8 0.041050 0.247919 0.275958
O O9 0.106249 0.212497 0.000000
O O10 0.750055 0.500110 0.778623
O O11 0.571036 0.428964 0.778244
O O12 0.665269 0.501744 0.500000
#
# Coordination Sequence:
#
# PCOD9575394 Si02
#       6
#     2   6   6   6   6   6
#     4   9  12  18  36  57  79 113 145 159 175 218
#     4   9  16  25  39  60  83 106 134 166 195 226
#     4   9  16  25  39  60  83 106 134 166 195 226
#     4   9  14  22  37  59  85 111 137 161 187 224
#     4   9  17  29  43  57  76 105 138 168 199 237
#     4   9  17  29  43  57  76 105 138 168 199 237
#
# _framework density 16.56823
#
# number of rings (size 3 to 8) (size 9 to 14) (size 15 to 20)
#    0.000    3.000    1.875    0.375    0.000    2.250 
#    0.000    0.938    0.000    2.250    0.000    0.000 
#    1.875    0.000    1.125    0.000    1.500    0.000 
#
# Total GULP energy -178279.143490 kJ/mol
# GULP energy per Si atom -5571.223234 kJ/mol
# Density = 1.653052 g / cm^3
# Si number density = 16.568230 Si / 1000 Ang^3
#
#
#
# Elastic Constant Matrix: (Units=GPa)
#
#
# Indices 1 2 3 4 5 6 
#
# 1 139.2320 88.4987 3.3403 0.0000 0.0000 0.0000
# 2 88.4987 139.2320 3.3403 0.0000 0.0000 0.0000
# 3 3.3403 3.3403 35.1791 0.0000 0.0000 0.0000
# 4 0.0000 0.0000 0.0000 30.0522 0.0000 0.0000
# 5 0.0000 0.0000 0.0000 0.0000 30.0522 0.0000
# 6 0.0000 0.0000 0.0000 0.0000 0.0000 25.3666
#
#
#
# Elastic Compliance Matrix: (Units=1/GPa)
#
#
# Indices 1 2 3 4 5 6 
#
# 1 0.012057 -0.007654 -0.000418 0.000000 0.000000 0.000000
# 2 -0.007654 0.012057 -0.000418 0.000000 0.000000 0.000000
# 3 -0.000418 -0.000418 0.028505 0.000000 0.000000 0.000000
# 4 0.000000 0.000000 0.000000 0.033275 0.000000 0.000000
# 5 0.000000 0.000000 0.000000 0.000000 0.033275 0.000000
# 6 0.000000 0.000000 0.000000 0.000000 0.000000 0.039422
#
#
# Mechanical properties :
#
#
# Convention : Reuss Voigt Hill
#
# Bulk Modulus (GPa) = 28.05856 56.00020 42.02938
# Shear Modulus (GPa) = 26.67344 31.65845 29.16595
#
# Velocity S-wave (km/s) = 4.01673 4.37600 4.20021
# Velocity P-wave (km/s) = 6.20355 7.70751 6.99606
#
# Compressibility (1/GPa) = 0.03563975
#
# Stress axis : x y z
#
# Youngs Moduli (GPa) = 82.93812 82.93812 35.08111
#
# Poissons Ratio (x) = 0.63479 0.01467
# Poissons Ratio (y) = 0.63479 0.01467
# Poissons Ratio (z) = 0.03468 0.03468
#
# Static dielectric constant tensor:
#      x y z
#    x 1.561100 0.000000 0.000000 
#    y 0.000000 1.561100 0.000000 
#    z 0.000000 0.000000 1.634900 
# 
# From -- ./inp_files/864.got.cif
#   From: 2010.05.17/outbox.cif.g08.bks.cpg/sg149_cif.got.tgz:864.got - 2010.05.20 13:52:34.
