data_PCOD9575510
_publ_section_title
;
Structure prediction by ZEFSAII (Michael W. Deem and Ramdas Pophale) SiO2 
 PCOD9575510
Probable space group: P 31 1 2
;
_chemical_formula_sum "Si O2"
_cell_formula_units_Z 24
_cell_length_a 8.024118
_cell_length_b 8.024118
_cell_length_c 18.560098
_cell_angle_alpha 90.000000
_cell_angle_beta 90.000000
_cell_angle_gamma 120.000000
_cell_volume 1034.916974
_symmetry_space_group_name_H-M "P 31 1 2"
_symmetry_group_IT_number 151
_symmetry_cell_setting 'hexagonal'
loop_
_space_group_symop_operation_xyz
x,y,z
-y,x-y,1/3+z
-x+y,-x,2/3+z
-y,-x,2/3-z
-x+y,y,1/3-z
x,x-y,-z
loop_
_atom_site_type_symbol
_atom_site_label
_atom_site_fract_x
_atom_site_fract_y
_atom_site_fract_z
Si Si1 0.691227 0.098908 0.756833
Si Si2 0.972816 0.323849 0.174045
Si Si3 0.072950 0.395228 0.725773
Si Si4 0.649348 0.918629 0.185909
O O1 0.791128 0.208873 0.833334
O O2 0.854076 0.244423 0.702385
O O3 0.478733 0.067164 0.768176
O O4 0.665993 0.887040 0.756302
O O5 0.129593 0.259185 0.166667
O O6 0.061534 0.501302 0.229976
O O7 0.777729 0.142473 0.201595
O O8 0.237257 0.474514 0.666667
O O9 0.142380 0.282007 0.779485
O O10 0.434648 0.869296 0.166667
#
# Coordination Sequence:
#
# PCOD9575510 Si02
#       4
#     6   6   6   6
#     4   8  16  31  50  73 101 136 170 205 256 319
#     4  10  18  34  56  77 103 144 180 208 258 331
#     4  10  20  35  54  81 109 133 175 234 270 299
#     4  10  18  34  56  77 102 143 180 207 257 331
#
# _framework density 23.190263999999999
#
# number of rings (size 3 to 8) (size 9 to 14) (size 15 to 20)
#    0.000    3.000    0.000    7.500    0.000    0.000 
#    0.000   15.000    0.000    0.000    0.000    0.000 
#    0.000    0.000    0.000    0.000    0.000    0.000 
#
# Total GULP energy -133673.074765 kJ/mol
# GULP energy per Si atom -5569.711449 kJ/mol
# Density = 2.313748 g / cm^3
# Si number density = 23.190264 Si / 1000 Ang^3
#
#
#
# Elastic Constant Matrix: (Units=GPa)
#
#
# Indices 1 2 3 4 5 6 
#
# 1 95.7199 8.8780 -2.4062 0.0002 5.3451 0.0000
# 2 8.8780 95.7199 -2.4062 -0.0002 -5.3451 0.0000
# 3 -2.4062 -2.4062 24.1841 0.0000 0.0000 0.0000
# 4 0.0002 -0.0002 0.0000 16.5811 0.0000 -5.3451
# 5 5.3451 -5.3451 0.0000 0.0000 16.5811 0.0002
# 6 0.0000 0.0000 0.0000 -5.3451 0.0002 43.4210
#
#
#
# Elastic Compliance Matrix: (Units=1/GPa)
#
#
# Indices 1 2 3 4 5 6 
#
# 1 0.010798 -0.001193 0.000956 0.000000 -0.003865 0.000000
# 2 -0.001193 0.010798 0.000956 0.000000 0.003865 0.000000
# 3 0.000956 0.000956 0.041540 0.000000 0.000000 0.000000
# 4 0.000000 0.000000 0.000000 0.062802 0.000000 0.007731
# 5 -0.003865 0.003865 0.000000 0.000000 0.062802 0.000000
# 6 0.000000 0.000000 0.000000 0.007731 0.000000 0.023982
#
#
# Mechanical properties :
#
#
# Convention : Reuss Voigt Hill
#
# Bulk Modulus (GPa) = 15.48688 24.86167 20.17428
# Shear Modulus (GPa) = 21.47687 29.42051 25.44869
#
# Velocity S-wave (km/s) = 3.04652 3.56569 3.31628
# Velocity P-wave (km/s) = 4.36666 5.26272 4.83549
#
# Compressibility (1/GPa) = 0.06457078
#
# Stress axis : x y z
#
# Youngs Moduli (GPa) = 92.61234 92.61234 24.07338
#
# Poissons Ratio (x) = 0.11051 -0.02300
# Poissons Ratio (y) = 0.11051 -0.02300
# Poissons Ratio (z) = -0.08850 -0.08850
#
# Static dielectric constant tensor:
#      x y z
#    x 1.882880 0.000000 0.000000 
#    y 0.000000 1.882880 0.000000 
#    z 0.000000 0.000000 2.040650 
# 
# From -- ./inp_files/3761.got.cif
#   From: 2010.05.17/outbox.cif.g08.bks.cpg/sg151_2_cif.got.tgz:3761.got - 2010.05.20 10:33:20.
