data_PCOD9575181
_publ_section_title
;
Structure prediction by ZEFSAII (Michael W. Deem and Ramdas Pophale) SiO2 
 PCOD9575181
Probable space group: R -3
;
_chemical_formula_sum "Si O2"
_cell_formula_units_Z 54
_cell_length_a 18.637113
_cell_length_b 18.637113
_cell_length_c 7.294129
_cell_angle_alpha 90.000000
_cell_angle_beta 90.000000
_cell_angle_gamma 120.000000
_cell_volume 2194.124911
_symmetry_space_group_name_H-M "R -3"
_symmetry_group_IT_number 148
_symmetry_cell_setting 'hexagonal'
loop_
_space_group_symop_operation_xyz
x,y,z
-y,x-y,z
-x+y,-x,z
-x,-y,-z
y,-x+y,-z
x-y,x,-z
2/3+x,1/3+y,1/3+z
2/3-y,1/3+x-y,1/3+z
2/3-x+y,1/3-x,1/3+z
2/3-x,1/3-y,1/3-z
2/3+y,1/3-x+y,1/3-z
2/3+x-y,1/3+x,1/3-z
1/3+x,2/3+y,2/3+z
1/3-y,2/3+x-y,2/3+z
1/3-x+y,2/3-x,2/3+z
1/3-x,2/3-y,2/3-z
1/3+y,2/3-x+y,2/3-z
1/3+x-y,2/3+x,2/3-z
loop_
_atom_site_type_symbol
_atom_site_label
_atom_site_fract_x
_atom_site_fract_y
_atom_site_fract_z
Si Si1 0.357552 0.835150 0.887877
Si Si2 0.948279 0.278584 0.622182
Si Si3 0.022869 0.168677 0.778701
O O1 0.358140 0.842208 0.666592
O O2 0.408429 0.789318 0.933100
O O3 0.261688 0.779545 0.946995
O O4 0.407298 0.928134 0.968787
O O5 0.994112 0.360442 0.746066
O O6 0.987105 0.223944 0.693918
#
# Coordination Sequence:
#
# PCOD9575181 Si02
#       3
#    18  18  18
#     4  10  22  42  70 102 137 177 225 281 340 401
#     4  12  25  44  68 100 139 180 226 278 333 406
#     4  10  22  42  70 102 137 177 225 281 340 401
#
# _framework density 24.611179
#
# number of rings (size 3 to 8) (size 9 to 14) (size 15 to 20)
#    0.000    1.333    3.333    1.667    0.000    9.333 
#    0.000    0.000    0.000    4.000    0.000    0.000 
#    0.000    0.000    0.000    0.000    0.000    0.000 
#
# Total GULP energy -100463.312676 kJ/mol
# GULP energy per Si atom -5581.295149 kJ/mol
# Density = 2.455516 g / cm^3
# Si number density = 24.611179 Si / 1000 Ang^3
#
#
#
# Elastic Constant Matrix: (Units=GPa)
#
#
# Indices 1 2 3 4 5 6 
#
# 1 143.5446 65.2183 6.2547 -17.4513 0.4232 0.0008
# 2 65.2183 143.5436 6.2481 17.4524 -0.4166 0.0008
# 3 6.2547 6.2481 58.3538 0.0045 0.0203 0.0029
# 4 -17.4513 17.4524 0.0045 21.5792 0.0019 -0.4188
# 5 0.4232 -0.4166 0.0203 0.0019 21.5857 -17.4523
# 6 0.0008 0.0008 0.0029 -0.4188 -17.4523 39.1624
#
#
#
# Elastic Compliance Matrix: (Units=1/GPa)
#
#
# Indices 1 2 3 4 5 6 
#
# 1 0.012394 -0.007573 -0.000519 0.016148 -0.000392 -0.000002
# 2 -0.007573 0.012394 -0.000514 -0.016148 0.000391 0.000001
# 3 -0.000519 -0.000514 0.017248 -0.000007 -0.000027 -0.000013
# 4 0.016148 -0.016148 -0.000007 0.072475 -0.000012 0.000769
# 5 -0.000392 0.000391 -0.000027 -0.000012 0.072444 0.032284
# 6 -0.000002 0.000001 -0.000013 0.000769 0.032284 0.039930
#
#
# Mechanical properties :
#
#
# Convention : Reuss Voigt Hill
#
# Bulk Modulus (GPa) = 40.28400 55.65379 47.96890
# Shear Modulus (GPa) = 19.81202 34.31352 27.06277
#
# Velocity S-wave (km/s) = 2.84033 3.73798 3.31964
# Velocity P-wave (km/s) = 5.21156 6.42591 5.85033
#
# Compressibility (1/GPa) = 0.02482375
#
# Stress axis : x y z
#
# Youngs Moduli (GPa) = 80.68245 80.68270 57.97933
#
# Poissons Ratio (x) = 0.61102 0.03008
# Poissons Ratio (y) = 0.61102 0.02981
# Poissons Ratio (z) = 0.04185 0.04149
#
# Static dielectric constant tensor:
#      x y z
#    x 1.925440 0.000000 0.000000 
#    y 0.000000 1.925440 0.000000 
#    z 0.000000 0.000000 1.935140 
# 
# From -- ./inp_files/655.got.cif
#   From: 2010.05.17/outbox.cif.g08.bks.cpg/sg148_1_cif.got.tgz:655.got - 2010.05.20 13:50:20.
