data_PCOD9575886
_publ_section_title
;
Structure prediction by ZEFSAII (Michael W. Deem and Ramdas Pophale) SiO2 
 PCOD9575886
Probable space group: P 31 2 1
;
_chemical_formula_sum "Si O2"
_cell_formula_units_Z 33
_cell_length_a 7.805106
_cell_length_b 7.805106
_cell_length_c 23.831350
_cell_angle_alpha 90.000000
_cell_angle_beta 90.000000
_cell_angle_gamma 120.000000
_cell_volume 1257.294129
_symmetry_space_group_name_H-M "P 31 2 1"
_symmetry_group_IT_number 152
_symmetry_cell_setting 'hexagonal'
loop_
_space_group_symop_operation_xyz
x,y,z
-y,x-y,1/3+z
-x+y,-x,2/3+z
x-y,-y,2/3-z
-x,-x+y,1/3-z
y,x,-z
loop_
_atom_site_type_symbol
_atom_site_label
_atom_site_fract_x
_atom_site_fract_y
_atom_site_fract_z
Si Si1 0.721110 0.878746 0.143464
Si Si2 0.266785 0.651174 0.942555
Si Si3 0.376735 0.139235 0.613214
Si Si4 0.062291 0.944153 0.740713
Si Si5 0.614198 0.000000 0.333334
Si Si6 0.755464 0.274625 0.830831
O O1 0.833184 0.992988 0.199602
O O2 0.741347 0.683091 0.141378
O O3 0.497562 0.818254 0.152176
O O4 0.827589 0.019291 0.090329
O O5 0.409040 0.564208 0.962841
O O6 0.364485 0.766509 0.884904
O O7 0.056142 0.450548 0.933341
O O8 0.255373 0.766958 0.996221
O O9 0.142930 0.054654 0.618946
O O10 0.455719 0.282044 0.558826
O O11 0.124497 0.807876 0.706150
#
# Coordination Sequence:
#
# PCOD9575886 Si02
#       6
#     6   6   6   6   3   6
#     4  10  21  39  65  86 124 166 212 256 320 376
#     4  11  24  42  63  93 130 166 215 271 322 390
#     4  10  24  42  65  91 131 166 216 265 328 384
#     4   9  20  42  61  85 122 169 205 258 318 391
#     4  10  20  40  64  90 128 164 212 270 320 386
#     4  11  21  42  62  95 127 166 209 271 314 379
#
# _framework density 26.246843999999999
#
# number of rings (size 3 to 8) (size 9 to 14) (size 15 to 20)
#    0.000    1.818    5.455    0.000    5.091    2.909 
#    0.000    0.000    0.000    2.182    0.000    0.000 
#    0.000    0.000    0.000    0.000    0.000    0.000 
#
# Total GULP energy -184643.382818 kJ/mol
# GULP energy per Si atom -5595.254025 kJ/mol
# Density = 2.618711 g / cm^3
# Si number density = 26.246844 Si / 1000 Ang^3
#
#
#
# Elastic Constant Matrix: (Units=GPa)
#
#
# Indices 1 2 3 4 5 6 
#
# 1 66.2948 24.2534 36.9763 -10.2830 0.0001 0.0000
# 2 24.2534 66.2948 36.9763 10.2830 -0.0001 0.0000
# 3 36.9763 36.9763 170.3406 0.0000 0.0000 0.0000
# 4 -10.2830 10.2830 0.0000 50.5241 0.0000 -0.0001
# 5 0.0001 -0.0001 0.0000 0.0000 50.5241 -10.2830
# 6 0.0000 0.0000 0.0000 -0.0001 -10.2830 21.0207
#
#
#
# Elastic Compliance Matrix: (Units=1/GPa)
#
#
# Indices 1 2 3 4 5 6 
#
# 1 0.019920 -0.006496 -0.002914 0.005376 0.000000 0.000000
# 2 -0.006496 0.019920 -0.002914 -0.005376 0.000000 0.000000
# 3 -0.002914 -0.002914 0.007136 0.000000 0.000000 0.000000
# 4 0.005376 -0.005376 0.000000 0.021981 0.000000 0.000000
# 5 0.000000 0.000000 0.000000 0.000000 0.021981 0.010753
# 6 0.000000 0.000000 0.000000 0.000000 0.010753 0.052832
#
#
# Mechanical properties :
#
#
# Convention : Reuss Voigt Hill
#
# Bulk Modulus (GPa) = 44.78807 55.48246 50.13527
# Shear Modulus (GPa) = 28.43167 38.06208 33.24687
#
# Velocity S-wave (km/s) = 3.29483 3.81223 3.56293
# Velocity P-wave (km/s) = 5.61923 6.36883 6.00574
#
# Compressibility (1/GPa) = 0.02232737
#
# Stress axis : x y z
#
# Youngs Moduli (GPa) = 50.20105 50.20105 140.14135
#
# Poissons Ratio (x) = 0.32612 0.40836
# Poissons Ratio (y) = 0.32612 0.40836
# Poissons Ratio (z) = 0.14628 0.14628
#
# Static dielectric constant tensor:
#      x y z
#    x 2.136820 0.000000 0.000000 
#    y 0.000000 2.136820 0.000000 
#    z 0.000000 0.000000 2.114440 
# 
# From -- ./inp_files/3368.got.cif
#   From: 2010.05.17/outbox.cif.g08.bks.cpg/sg152_2_cif.got.tgz:3368.got - 2010.05.20 10:36:06.
