data_PCOD9575333
_publ_section_title
;
Structure prediction by ZEFSAII (Michael W. Deem and Ramdas Pophale) SiO2 
 PCOD9575333
Probable space group: R -3
;
_chemical_formula_sum "Si O2"
_cell_formula_units_Z 90
_cell_length_a 18.393041
_cell_length_b 18.393041
_cell_length_c 11.007286
_cell_angle_alpha 90.000000
_cell_angle_beta 90.000000
_cell_angle_gamma 120.000000
_cell_volume 3224.912684
_symmetry_space_group_name_H-M "R -3"
_symmetry_group_IT_number 148
_symmetry_cell_setting 'hexagonal'
loop_
_space_group_symop_operation_xyz
x,y,z
-y,x-y,z
-x+y,-x,z
-x,-y,-z
y,-x+y,-z
x-y,x,-z
2/3+x,1/3+y,1/3+z
2/3-y,1/3+x-y,1/3+z
2/3-x+y,1/3-x,1/3+z
2/3-x,1/3-y,1/3-z
2/3+y,1/3-x+y,1/3-z
2/3+x-y,1/3+x,1/3-z
1/3+x,2/3+y,2/3+z
1/3-y,2/3+x-y,2/3+z
1/3-x+y,2/3-x,2/3+z
1/3-x,2/3-y,2/3-z
1/3+y,2/3-x+y,2/3-z
1/3+x-y,2/3+x,2/3-z
loop_
_atom_site_type_symbol
_atom_site_label
_atom_site_fract_x
_atom_site_fract_y
_atom_site_fract_z
Si Si1 0.102529 0.446087 0.439523
Si Si2 0.234091 0.489744 0.731190
Si Si3 0.696938 0.980141 0.678660
Si Si4 0.957018 0.820216 0.537093
Si Si5 0.177829 0.357614 0.558802
O O1 0.146567 0.545663 0.470612
O O2 0.057001 0.376032 0.336946
O O3 0.175329 0.423507 0.469043
O O4 0.029542 0.407028 0.543898
O O5 0.192390 0.545027 0.695622
O O6 0.170197 0.395590 0.686526
O O7 0.795675 0.010038 0.650354
O O8 0.653625 0.911255 0.568907
O O9 0.890079 0.853727 0.541552
O O10 0.899425 0.733276 0.466289
#
# Coordination Sequence:
#
# PCOD9575333 Si02
#       5
#    18  18  18  18  18
#     4   9  17  31  49  71  98 127 161 199 239 283
#     4   9  16  28  47  70  97 127 160 199 241 286
#     4   9  17  31  49  71  98 127 161 199 239 283
#     4   9  16  28  47  70  97 127 160 199 241 286
#     4   8  16  30  44  66 100 124 156 202 230 280
#
# _framework density 27.907734000000001
#
# number of rings (size 3 to 8) (size 9 to 14) (size 15 to 20)
#    0.000    3.200    0.000    0.400    0.000    0.000 
#    0.000   32.000    0.000    0.000    0.000    0.000 
#    0.000  108.800    0.000    0.000    0.000    0.000 
#
# Total GULP energy -167014.084708 kJ/mol
# GULP energy per Si atom -5567.136157 kJ/mol
# Density = 2.784422 g / cm^3
# Si number density = 27.907734 Si / 1000 Ang^3
#
#
#
# Elastic Constant Matrix: (Units=GPa)
#
#
# Indices 1 2 3 4 5 6 
#
# 1 142.3567 41.4598 28.2828 -4.8478 -13.4366 0.0000
# 2 41.4598 142.3567 28.2828 4.8478 13.4366 0.0000
# 3 28.2828 28.2828 51.6445 0.0000 0.0000 0.0000
# 4 -4.8478 4.8478 0.0000 43.6095 0.0000 13.4366
# 5 -13.4366 13.4366 0.0000 0.0000 43.6095 -4.8478
# 6 0.0000 0.0000 0.0000 13.4366 -4.8478 50.4484
#
#
#
# Elastic Compliance Matrix: (Units=1/GPa)
#
#
# Indices 1 2 3 4 5 6 
#
# 1 0.008734 -0.002191 -0.003583 0.001214 0.003366 0.000000
# 2 -0.002191 0.008734 -0.003583 -0.001214 -0.003366 0.000000
# 3 -0.003583 -0.003583 0.023288 0.000000 0.000000 0.000000
# 4 0.001214 -0.001214 0.000000 0.025275 0.000000 -0.006732
# 5 0.003366 -0.003366 0.000000 0.000000 0.025275 0.002429
# 6 0.000000 0.000000 0.000000 -0.006732 0.002429 0.021849
#
#
# Mechanical properties :
#
#
# Convention : Reuss Voigt Hill
#
# Bulk Modulus (GPa) = 45.37037 59.15654 52.26345
# Shear Modulus (GPa) = 35.91585 43.42231 39.66908
#
# Velocity S-wave (km/s) = 3.59130 3.94880 3.77428
# Velocity P-wave (km/s) = 5.78698 6.48335 6.14504
#
# Compressibility (1/GPa) = 0.02204082
#
# Stress axis : x y z
#
# Youngs Moduli (GPa) = 114.50075 114.50076 42.94108
#
# Poissons Ratio (x) = 0.25084 0.15386
# Poissons Ratio (y) = 0.25084 0.15386
# Poissons Ratio (z) = 0.41027 0.41027
#
# Static dielectric constant tensor:
#      x y z
#    x 2.149610 0.000000 0.000000 
#    y 0.000000 2.149610 0.000000 
#    z 0.000000 0.000000 2.498810 
# 
# From -- ./inp_files/2677.got.cif
#   From: 2010.05.17/outbox.cif.g08.bks.cpg/sg148_2_cif.got.tgz:2677.got - 2010.05.20 13:50:20.
