data_PCOD9575749
_publ_section_title
;
Structure prediction by ZEFSAII (Michael W. Deem and Ramdas Pophale) SiO2 
 PCOD9575749
Probable space group: P 31 2 1
;
_chemical_formula_sum "Si O2"
_cell_formula_units_Z 42
_cell_length_a 9.387764
_cell_length_b 9.387764
_cell_length_c 27.912381
_cell_angle_alpha 90.000000
_cell_angle_beta 90.000000
_cell_angle_gamma 120.000000
_cell_volume 2130.354328
_symmetry_space_group_name_H-M "P 31 2 1"
_symmetry_group_IT_number 152
_symmetry_cell_setting 'hexagonal'
loop_
_space_group_symop_operation_xyz
x,y,z
-y,x-y,1/3+z
-x+y,-x,2/3+z
x-y,-y,2/3-z
-x,-x+y,1/3-z
y,x,-z
loop_
_atom_site_type_symbol
_atom_site_label
_atom_site_fract_x
_atom_site_fract_y
_atom_site_fract_z
Si Si1 0.677230 0.233785 0.471072
Si Si2 0.418096 0.142589 0.892875
Si Si3 0.088849 0.885192 0.944946
Si Si4 0.408893 0.260731 0.534702
Si Si5 0.135293 0.973728 0.054161
Si Si6 0.928834 0.608978 0.472187
Si Si7 0.601070 0.968183 0.280051
O O1 0.531844 0.231982 0.501465
O O2 0.702023 0.096546 0.497882
O O3 0.616253 0.164738 0.418022
O O4 0.840010 0.411107 0.469548
O O5 0.567473 0.106952 0.893273
O O6 0.375001 0.170706 0.838741
O O7 0.454270 0.312068 0.918841
O O8 0.266766 0.007145 0.922514
O O9 0.036512 0.723754 0.913771
O O10 0.109125 0.889091 0.002085
O O11 0.977070 0.968046 0.934176
O O12 0.291785 0.291785 0.500000
O O13 0.299873 0.121000 0.572834
O O14 0.271860 0.168382 0.050467
O O15 0.565381 0.000000 0.333334
#
# Coordination Sequence:
#
# PCOD9575749 Si02
#       7
#     6   6   6   6   6   6   6
#     4  10  22  37  59  92 118 161 203 250 311 364
#     4   9  18  35  59  85 115 155 200 241 294 356
#     4  10  19  38  60  88 115 159 206 248 304 365
#     4  11  23  39  57  85 123 155 202 253 306 366
#     4  10  21  37  61  89 119 155 207 255 300 362
#     4  10  20  35  60  87 123 155 203 248 300 372
#     4  10  18  37  64  86 119 157 203 250 293 366
#
# _framework density 19.715029000000001
#
# number of rings (size 3 to 8) (size 9 to 14) (size 15 to 20)
#    0.000    2.000    2.857    3.000    0.000    5.714 
#    2.571    0.000    9.429    0.000    0.000    0.000 
#    0.000    0.000    0.000    0.000    0.000    0.000 
#
# Total GULP energy -234167.653023 kJ/mol
# GULP energy per Si atom -5575.420310 kJ/mol
# Density = 1.967016 g / cm^3
# Si number density = 19.715029 Si / 1000 Ang^3
#
#
#
# Elastic Constant Matrix: (Units=GPa)
#
#
# Indices 1 2 3 4 5 6 
#
# 1 51.6263 31.4745 43.2668 -1.0498 -0.0002 0.0000
# 2 31.4745 51.6263 43.2668 1.0498 0.0002 0.0000
# 3 43.2668 43.2668 128.6322 0.0000 0.0000 0.0000
# 4 -1.0498 1.0498 0.0000 26.0909 0.0000 0.0002
# 5 -0.0002 0.0002 0.0000 0.0000 26.0909 -1.0498
# 6 0.0000 0.0000 0.0000 0.0002 -1.0498 10.0759
#
#
#
# Elastic Compliance Matrix: (Units=1/GPa)
#
#
# Indices 1 2 3 4 5 6 
#
# 1 0.034176 -0.015656 -0.006230 0.002005 0.000000 0.000000
# 2 -0.015656 0.034176 -0.006230 -0.002005 0.000000 0.000000
# 3 -0.006230 -0.006230 0.011965 0.000000 0.000000 0.000000
# 4 0.002005 -0.002005 0.000000 0.038489 0.000000 -0.000001
# 5 0.000000 0.000000 0.000000 0.000000 0.038489 0.004010
# 6 0.000000 0.000000 0.000000 -0.000001 0.004010 0.099665
#
#
# Mechanical properties :
#
#
# Convention : Reuss Voigt Hill
#
# Bulk Modulus (GPa) = 41.51518 51.98900 46.75209
# Shear Modulus (GPa) = 15.56569 20.04330 17.80450
#
# Velocity S-wave (km/s) = 2.81291 3.19196 3.00841
# Velocity P-wave (km/s) = 5.62613 6.32552 5.98605
#
# Compressibility (1/GPa) = 0.02408758
#
# Stress axis : x y z
#
# Youngs Moduli (GPa) = 29.25997 29.25997 83.57813
#
# Poissons Ratio (x) = 0.45809 0.52065
# Poissons Ratio (y) = 0.45809 0.52065
# Poissons Ratio (z) = 0.18228 0.18228
#
# Static dielectric constant tensor:
#      x y z
#    x 1.724900 0.000000 0.000000 
#    y 0.000000 1.724900 0.000000 
#    z 0.000000 0.000000 1.715690 
# 
# From -- ./inp_files/3689.got.cif
#   From: 2010.05.17/outbox.cif.g08.bks.cpg/sg152_2_cif.got.tgz:3689.got - 2010.05.20 10:36:06.
