data_PCOD9575318
_publ_section_title
;
Structure prediction by ZEFSAII (Michael W. Deem and Ramdas Pophale) SiO2 
 PCOD9575318
Probable space group: R -3
;
_chemical_formula_sum "Si O2"
_cell_formula_units_Z 54
_cell_length_a 21.330660
_cell_length_b 21.330660
_cell_length_c 5.297465
_cell_angle_alpha 90.000000
_cell_angle_beta 90.000000
_cell_angle_gamma 120.000000
_cell_volume 2087.407860
_symmetry_space_group_name_H-M "R -3"
_symmetry_group_IT_number 148
_symmetry_cell_setting 'hexagonal'
loop_
_space_group_symop_operation_xyz
x,y,z
-y,x-y,z
-x+y,-x,z
-x,-y,-z
y,-x+y,-z
x-y,x,-z
2/3+x,1/3+y,1/3+z
2/3-y,1/3+x-y,1/3+z
2/3-x+y,1/3-x,1/3+z
2/3-x,1/3-y,1/3-z
2/3+y,1/3-x+y,1/3-z
2/3+x-y,1/3+x,1/3-z
1/3+x,2/3+y,2/3+z
1/3-y,2/3+x-y,2/3+z
1/3-x+y,2/3-x,2/3+z
1/3-x,2/3-y,2/3-z
1/3+y,2/3-x+y,2/3-z
1/3+x-y,2/3+x,2/3-z
loop_
_atom_site_type_symbol
_atom_site_label
_atom_site_fract_x
_atom_site_fract_y
_atom_site_fract_z
Si Si1 0.032483 0.737423 0.063383
Si Si2 0.899911 0.753734 0.905375
Si Si3 0.169515 0.574701 0.249287
O O1 0.990963 0.709425 0.326357
O O2 0.964365 0.734730 0.912589
O O3 0.104147 0.814199 0.026091
O O4 0.927800 0.815746 0.125383
O O5 0.893479 0.770155 0.613430
O O6 0.210546 0.659335 0.198217
#
# Coordination Sequence:
#
# PCOD9575318 Si02
#       3
#    18  18  18
#     4  12  30  51  80 115 154 216 258 326 390 462
#     4  12  27  51  77 114 161 196 270 319 387 466
#     4  12  23  46  80 116 155 209 253 330 393 461
#
# _framework density 25.869402999999998
#
# number of rings (size 3 to 8) (size 9 to 14) (size 15 to 20)
#    0.000    0.000    6.667    1.333    9.333    1.333 
#    0.000    3.333    0.000    0.000    0.000    0.000 
#    0.000    0.000    0.000    0.000    0.000    0.000 
#
# Total GULP energy -100415.649012 kJ/mol
# GULP energy per Si atom -5578.647167 kJ/mol
# Density = 2.581052 g / cm^3
# Si number density = 25.869403 Si / 1000 Ang^3
#
#
#
# Elastic Constant Matrix: (Units=GPa)
#
#
# Indices 1 2 3 4 5 6 
#
# 1 -2749.4459 2923.3043 9.3849 20.3208 -370.4694 80.9610
# 2 2923.3043-2745.4383 31.0300 -19.7241 370.1413 -85.3685
# 3 9.3849 31.0300 68.1784 2.1132 -1.2450 -15.8913
# 4 20.3208 -19.7241 2.1132 8.1288 -0.0183 269.5987
# 5 -370.4694 370.1413 -1.2450 -0.0183 -5.2245 31.0495
# 6 80.9610 -85.3685 -15.8913 269.5987 31.0495-2077.4042
#
#
#
# Elastic Compliance Matrix: (Units=1/GPa)
#
#
# Indices 1 2 3 4 5 6 
#
# 1 0.003065 0.003040 -0.001836 0.000122 -0.001495 0.000002
# 2 0.003040 0.003057 -0.001776 -0.000128 0.001512 0.000012
# 3 -0.001836 -0.001776 0.015700 0.000027 -0.000008 -0.000115
# 4 0.000122 -0.000128 0.000027 0.023014 0.000002 0.002997
# 5 -0.001495 0.001512 -0.000008 0.000002 0.023076 0.000225
# 6 0.000002 0.000012 -0.000115 0.002997 0.000225 -0.000089
#
#
# Mechanical properties :
#
#
# Convention : Reuss Voigt Hill
#
# Bulk Modulus (GPa) = 48.35620 55.63696 51.99658
# Shear Modulus (GPa) = 65.91024 -974.26164 -454.17570
#
# Velocity S-wave (km/s) = 5.05306 -19.42744 -13.26446
# Velocity P-wave (km/s) = 7.26481 21.94721 14.64416
#
# Compressibility (1/GPa) = 0.02067987
#
# Stress axis : x y z
#
# Youngs Moduli (GPa) = 326.25782 327.08118 63.69264
#
# Poissons Ratio (x) = -0.99443 0.11696
# Poissons Ratio (y) = -0.99193 0.11309
# Poissons Ratio (z) = 0.59910 0.58074
#
# Static dielectric constant tensor:
#      x y z
#    x 2.105400 0.000050 0.000280 
#    y 0.000050 2.105640 0.000060 
#    z 0.000280 0.000060 3.613820 
# 
# From -- ./inp_files/235.got.cif
#   From: 2010.05.17/outbox.cif.g08.bks.cpg/sg148_1_cif.got.tgz:235.got - 2010.05.20 13:50:20.
