data_PCOD9575639
_publ_section_title
;
Structure prediction by ZEFSAII (Michael W. Deem and Ramdas Pophale) SiO2 
 PCOD9575639
Probable space group: P 31 1 2
;
_chemical_formula_sum "Si O2"
_cell_formula_units_Z 45
_cell_length_a 11.678406
_cell_length_b 11.678406
_cell_length_c 16.843019
_cell_angle_alpha 90.000000
_cell_angle_beta 90.000000
_cell_angle_gamma 120.000000
_cell_volume 1989.379824
_symmetry_space_group_name_H-M "P 31 1 2"
_symmetry_group_IT_number 151
_symmetry_cell_setting 'hexagonal'
loop_
_space_group_symop_operation_xyz
x,y,z
-y,x-y,1/3+z
-x+y,-x,2/3+z
-y,-x,2/3-z
-x+y,y,1/3-z
x,x-y,-z
loop_
_atom_site_type_symbol
_atom_site_label
_atom_site_fract_x
_atom_site_fract_y
_atom_site_fract_z
Si Si1 0.449430 0.735561 0.281576
Si Si2 0.747576 0.640239 0.089673
Si Si3 0.748445 0.338916 0.241236
Si Si4 0.984319 0.015682 0.333334
Si Si5 0.139174 0.837400 0.705996
Si Si6 0.948297 0.277888 0.156349
Si Si7 0.252304 0.444813 0.555077
Si Si8 0.975445 0.191542 0.592235
O O1 0.395451 0.604550 0.333334
O O2 0.565108 0.845235 0.334682
O O3 0.316950 0.739351 0.258106
O O4 0.522439 0.733049 0.203590
O O5 0.843525 0.687049 0.166667
O O6 0.707123 0.488573 0.077258
O O7 0.614444 0.651748 0.095787
O O8 0.811574 0.723386 0.010719
O O9 0.721049 0.278952 0.333334
O O10 0.641333 0.282665 0.166667
O O11 0.877559 0.349634 0.197672
O O12 0.060900 0.172385 0.349235
O O13 0.068990 0.002623 0.261640
O O14 0.041192 0.771955 0.778406
O O15 0.276823 0.957029 0.743755
O O16 0.829310 0.131624 0.138617
O O17 0.109922 0.325666 0.579709
#
# Coordination Sequence:
#
# PCOD9575639 Si02
#       8
#     6   6   6   3   6   6   6   6
#     4  11  27  46  71 104 150 193 254 308 372 465
#     4  11  25  43  75 104 144 196 248 313 384 448
#     4  11  26  49  72 108 152 199 256 312 380 471
#     4  10  22  42  68  98 150 180 242 318 374 460
#     4  10  25  45  68 109 141 197 241 307 384 442
#     4  10  25  43  72 102 147 193 241 309 369 461
#     4  11  26  45  71 111 141 199 248 313 381 449
#     4  11  22  45  69 108 144 184 250 315 377 459
#
# _framework density 22.620114999999998
#
# number of rings (size 3 to 8) (size 9 to 14) (size 15 to 20)
#    0.000    1.333    1.333    1.600   12.133    1.067 
#    4.800    0.000    0.000    0.000    0.000    0.000 
#    0.000    0.000    0.000    0.000    0.000    0.000 
#
# Total GULP energy -250580.150480 kJ/mol
# GULP energy per Si atom -5568.447788 kJ/mol
# Density = 2.256863 g / cm^3
# Si number density = 22.620115 Si / 1000 Ang^3
#
#
#
# Elastic Constant Matrix: (Units=GPa)
#
#
# Indices 1 2 3 4 5 6 
#
# 1 88.2951 12.6395 34.8583 -0.0008 -11.5245 0.0000
# 2 12.6395 88.2951 34.8583 0.0008 11.5245 0.0000
# 3 34.8583 34.8583 113.5507 0.0000 0.0000 0.0000
# 4 -0.0008 0.0008 0.0000 24.2996 0.0000 11.5245
# 5 -11.5245 11.5245 0.0000 0.0000 24.2996 -0.0008
# 6 0.0000 0.0000 0.0000 11.5245 -0.0008 37.8278
#
#
#
# Elastic Compliance Matrix: (Units=1/GPa)
#
#
# Indices 1 2 3 4 5 6 
#
# 1 0.014012 -0.001438 -0.003860 0.000000 0.007327 0.000000
# 2 -0.001438 0.014012 -0.003860 0.000000 -0.007327 0.000000
# 3 -0.003860 -0.003860 0.011176 0.000000 0.000000 0.000000
# 4 0.000000 0.000000 0.000000 0.048103 0.000000 -0.014655
# 5 0.007327 -0.007327 0.000000 0.000000 0.048103 0.000001
# 6 0.000000 0.000000 0.000000 -0.014655 0.000001 0.030900
#
#
# Mechanical properties :
#
#
# Convention : Reuss Voigt Hill
#
# Bulk Modulus (GPa) = 47.88367 50.53924 49.21146
# Shear Modulus (GPa) = 26.09819 31.13775 28.61797
#
# Velocity S-wave (km/s) = 3.40039 3.71422 3.56076
# Velocity P-wave (km/s) = 6.05239 6.38631 6.22159
#
# Compressibility (1/GPa) = 0.02088394
#
# Stress axis : x y z
#
# Youngs Moduli (GPa) = 71.36846 71.36846 89.47374
#
# Poissons Ratio (x) = 0.10265 0.34535
# Poissons Ratio (y) = 0.10265 0.34535
# Poissons Ratio (z) = 0.27547 0.27547
#
# Static dielectric constant tensor:
#      x y z
#    x 1.884710 0.000000 0.000000 
#    y 0.000000 1.884710 0.000000 
#    z 0.000000 0.000000 1.879530 
# 
# From -- ./inp_files/3594.got.cif
#   From: 2010.05.17/outbox.cif.g08.bks.cpg/sg151_2_cif.got.tgz:3594.got - 2010.05.20 10:33:20.
