data_PCOD9575802
_publ_section_title
;
Structure prediction by ZEFSAII (Michael W. Deem and Ramdas Pophale) SiO2 
 PCOD9575802
Probable space group: P 31 2 1
;
_chemical_formula_sum "Si O2"
_cell_formula_units_Z 42
_cell_length_a 14.493301
_cell_length_b 14.493301
_cell_length_c 10.325024
_cell_angle_alpha 90.000000
_cell_angle_beta 90.000000
_cell_angle_gamma 120.000000
_cell_volume 1878.262662
_symmetry_space_group_name_H-M "P 31 2 1"
_symmetry_group_IT_number 152
_symmetry_cell_setting 'hexagonal'
loop_
_space_group_symop_operation_xyz
x,y,z
-y,x-y,1/3+z
-x+y,-x,2/3+z
x-y,-y,2/3-z
-x,-x+y,1/3-z
y,x,-z
loop_
_atom_site_type_symbol
_atom_site_label
_atom_site_fract_x
_atom_site_fract_y
_atom_site_fract_z
Si Si1 0.493587 0.720898 0.399306
Si Si2 0.275523 0.626043 0.524158
Si Si3 0.121055 0.825192 0.631943
Si Si4 0.552009 0.863678 0.075779
Si Si5 0.162052 0.033393 0.486183
Si Si6 0.395422 0.219990 0.527583
Si Si7 0.509638 0.948519 0.689803
O O1 0.403867 0.675106 0.512474
O O2 0.438807 0.767260 0.303462
O O3 0.620036 0.801405 0.408177
O O4 0.480967 0.613975 0.333880
O O5 0.241619 0.678715 0.405316
O O6 0.211674 0.500640 0.495584
O O7 0.147421 0.776700 0.507120
O O8 0.000000 0.745826 0.666667
O O9 0.128500 0.933998 0.583039
O O10 0.609170 0.885507 0.937864
O O11 0.532309 0.963126 0.086051
O O12 0.089865 0.089865 0.500000
O O13 0.282348 0.115802 0.533209
O O14 0.156879 0.000000 0.333334
O O15 0.429637 0.310294 0.635888
O O16 0.515843 0.000000 0.833334
#
# Coordination Sequence:
#
# PCOD9575802 Si02
#       7
#     6   6   6   6   6   6   6
#     4  10  22  39  62  94 130 171 207 258 325 386
#     4  10  20  37  63  94 134 162 210 258 317 392
#     4  11  26  44  60  94 133 168 215 269 326 379
#     4  10  19  38  61  91 125 164 206 258 318 381
#     4  12  25  45  71  93 124 172 226 280 320 381
#     4  10  20  39  65  96 120 164 215 262 316 382
#     4   9  20  37  63  90 124 161 211 256 316 386
#
# _framework density 22.361090999999998
#
# number of rings (size 3 to 8) (size 9 to 14) (size 15 to 20)
#    0.000    1.714    2.857    1.714    4.000    0.000 
#    0.000    5.000    0.000    0.000    0.000    0.000 
#    0.000    0.000    0.000    0.000    0.000    0.000 
#
# Total GULP energy -233880.190452 kJ/mol
# GULP energy per Si atom -5568.575963 kJ/mol
# Density = 2.231020 g / cm^3
# Si number density = 22.361091 Si / 1000 Ang^3
#
#
#
# Elastic Constant Matrix: (Units=GPa)
#
#
# Indices 1 2 3 4 5 6 
#
# 1 107.9402 49.4178 -1.8746 4.8249 0.0000 0.0000
# 2 49.4178 107.9402 -1.8746 -4.8249 0.0000 0.0000
# 3 -1.8746 -1.8746 15.1255 0.0000 0.0000 0.0000
# 4 4.8249 -4.8249 0.0000 20.6155 0.0000 0.0000
# 5 0.0000 0.0000 0.0000 0.0000 20.6155 4.8249
# 6 0.0000 0.0000 0.0000 0.0000 4.8249 29.2612
#
#
#
# Elastic Compliance Matrix: (Units=1/GPa)
#
#
# Indices 1 2 3 4 5 6 
#
# 1 0.012074 -0.005700 0.000790 -0.004160 0.000000 0.000000
# 2 -0.005700 0.012074 0.000790 0.004160 0.000000 0.000000
# 3 0.000790 0.000790 0.066309 0.000000 0.000000 0.000000
# 4 -0.004160 0.004160 0.000000 0.050454 0.000000 0.000000
# 5 0.000000 0.000000 0.000000 0.000000 0.050454 -0.008319
# 6 0.000000 0.000000 0.000000 0.000000 -0.008319 0.035547
#
#
# Mechanical properties :
#
#
# Convention : Reuss Voigt Hill
#
# Bulk Modulus (GPa) = 12.16296 35.81587 23.98942
# Shear Modulus (GPa) = 19.04346 26.45427 22.74886
#
# Velocity S-wave (km/s) = 2.92144 3.44328 3.19304
# Velocity P-wave (km/s) = 4.10255 5.64447 4.93411
#
# Compressibility (1/GPa) = 0.08221680
#
# Stress axis : x y z
#
# Youngs Moduli (GPa) = 82.82553 82.82553 15.08080
#
# Poissons Ratio (x) = 0.47209 -0.01191
# Poissons Ratio (y) = 0.47209 -0.01191
# Poissons Ratio (z) = -0.06543 -0.06543
#
# Static dielectric constant tensor:
#      x y z
#    x 1.871710 0.000000 0.000000 
#    y 0.000000 1.871710 0.000000 
#    z 0.000000 0.000000 2.168570 
# 
# From -- ./inp_files/1793.got.cif
#   From: 2010.05.17/outbox.cif.g08.bks.cpg/sg152_1_cif.got.tgz:1793.got - 2010.05.20 10:36:06.
