data_PCOD9575279
_publ_section_title
;
Structure prediction by ZEFSAII (Michael W. Deem and Ramdas Pophale) SiO2 
 PCOD9575279
Probable space group: R -3
;
_chemical_formula_sum "Si O2"
_cell_formula_units_Z 60
_cell_length_a 11.324048
_cell_length_b 11.324048
_cell_length_c 27.491201
_cell_angle_alpha 90.000000
_cell_angle_beta 90.000000
_cell_angle_gamma 120.000000
_cell_volume 3053.006634
_symmetry_space_group_name_H-M "R -3"
_symmetry_group_IT_number 148
_symmetry_cell_setting 'hexagonal'
loop_
_space_group_symop_operation_xyz
x,y,z
-y,x-y,z
-x+y,-x,z
-x,-y,-z
y,-x+y,-z
x-y,x,-z
2/3+x,1/3+y,1/3+z
2/3-y,1/3+x-y,1/3+z
2/3-x+y,1/3-x,1/3+z
2/3-x,1/3-y,1/3-z
2/3+y,1/3-x+y,1/3-z
2/3+x-y,1/3+x,1/3-z
1/3+x,2/3+y,2/3+z
1/3-y,2/3+x-y,2/3+z
1/3-x+y,2/3-x,2/3+z
1/3-x,2/3-y,2/3-z
1/3+y,2/3-x+y,2/3-z
1/3+x-y,2/3+x,2/3-z
loop_
_atom_site_type_symbol
_atom_site_label
_atom_site_fract_x
_atom_site_fract_y
_atom_site_fract_z
Si Si1 0.486445 0.972890 0.057221
Si Si2 0.392240 0.333837 0.447018
Si Si3 0.333335 0.666668 0.228006
Si Si4 0.725574 0.725069 0.113685
O O1 0.638712 0.036703 0.077383
O O2 0.409794 0.819591 0.081727
O O3 0.397992 0.036704 0.077384
O O4 0.500000 0.000000 0.000000
O O5 0.378419 0.189209 0.435632
O O6 0.548857 0.451143 0.447442
O O7 0.331087 0.331087 0.500000
O O8 0.333335 0.666668 0.166667
#
# Coordination Sequence:
#
# PCOD9575279 Si02
#       4
#    18  18   6  18
#     4  12  26  42  68 102 137 171 231 295 348 398
#     4  11  23  42  67  97 133 178 230 280 340 421
#     4  12  24  48  84  96 129 198 255 279 340 449
#     4  11  23  42  67  97 133 178 230 280 340 421
#
# _framework density 19.652759
#
# number of rings (size 3 to 8) (size 9 to 14) (size 15 to 20)
#    0.000    0.600    6.000    2.400    4.200    0.000 
#    1.800    0.000    0.000    3.600    0.000    0.000 
#    0.000    0.000    0.000    0.000    0.000    0.000 
#
# Total GULP energy -111643.909730 kJ/mol
# GULP energy per Si atom -5582.195486 kJ/mol
# Density = 1.960803 g / cm^3
# Si number density = 19.652759 Si / 1000 Ang^3
#
#
#
# Elastic Constant Matrix: (Units=GPa)
#
#
# Indices 1 2 3 4 5 6 
#
# 1 58.6946 26.0968 21.5026 1.3494 0.0000 0.0002
# 2 26.0968 58.6943 21.5025 -1.3494 0.0001 0.0000
# 3 21.5026 21.5025 171.4976 -0.0001 -0.0001 0.0001
# 4 1.3494 -1.3494 -0.0001 19.8837 -0.0001 0.0002
# 5 0.0000 0.0001 -0.0001 -0.0001 19.8835 1.3496
# 6 0.0002 0.0000 0.0001 0.0002 1.3496 16.2991
#
#
#
# Elastic Compliance Matrix: (Units=1/GPa)
#
#
# Indices 1 2 3 4 5 6 
#
# 1 0.021722 -0.009128 -0.001579 -0.002094 0.000000 0.000000
# 2 -0.009128 0.021723 -0.001579 0.002094 0.000000 0.000000
# 3 -0.001579 -0.001579 0.006227 0.000000 0.000000 0.000000
# 4 -0.002094 0.002094 0.000000 0.050577 0.000000 -0.000001
# 5 0.000000 0.000000 0.000000 0.000000 0.050577 -0.004188
# 6 0.000000 0.000000 0.000000 -0.000001 -0.004188 0.061700
#
#
# Mechanical properties :
#
#
# Convention : Reuss Voigt Hill
#
# Bulk Modulus (GPa) = 39.84122 47.45449 43.64785
# Shear Modulus (GPa) = 20.36953 25.86556 23.11754
#
# Velocity S-wave (km/s) = 3.22292 3.63178 3.43344
# Velocity P-wave (km/s) = 5.84519 6.46416 6.16245
#
# Compressibility (1/GPa) = 0.02509964
#
# Stress axis : x y z
#
# Youngs Moduli (GPa) = 46.03534 46.03510 160.59180
#
# Poissons Ratio (x) = 0.42020 0.25360
# Poissons Ratio (y) = 0.42021 0.25359
# Poissons Ratio (z) = 0.07270 0.07269
#
# Static dielectric constant tensor:
#      x y z
#    x 1.687070 0.000000 0.000000 
#    y 0.000000 1.687070 0.000000 
#    z 0.000000 0.000000 1.722120 
# 
# From -- ./inp_files/3587.got.cif
#   From: 2010.05.17/outbox.cif.g08.bks.cpg/sg148_2_cif.got.tgz:3587.got - 2010.05.20 13:50:20.
