data_PCOD9575190
_publ_section_title
;
Structure prediction by ZEFSAII (Michael W. Deem and Ramdas Pophale) SiO2 
 PCOD9575190
Probable space group: R -3
;
_chemical_formula_sum "Si O2"
_cell_formula_units_Z 108
_cell_length_a 16.267831
_cell_length_b 16.267831
_cell_length_c 20.824037
_cell_angle_alpha 90.000000
_cell_angle_beta 90.000000
_cell_angle_gamma 120.000000
_cell_volume 4772.598084
_symmetry_space_group_name_H-M "R -3"
_symmetry_group_IT_number 148
_symmetry_cell_setting 'hexagonal'
loop_
_space_group_symop_operation_xyz
x,y,z
-y,x-y,z
-x+y,-x,z
-x,-y,-z
y,-x+y,-z
x-y,x,-z
2/3+x,1/3+y,1/3+z
2/3-y,1/3+x-y,1/3+z
2/3-x+y,1/3-x,1/3+z
2/3-x,1/3-y,1/3-z
2/3+y,1/3-x+y,1/3-z
2/3+x-y,1/3+x,1/3-z
1/3+x,2/3+y,2/3+z
1/3-y,2/3+x-y,2/3+z
1/3-x+y,2/3-x,2/3+z
1/3-x,2/3-y,2/3-z
1/3+y,2/3-x+y,2/3-z
1/3+x-y,2/3+x,2/3-z
loop_
_atom_site_type_symbol
_atom_site_label
_atom_site_fract_x
_atom_site_fract_y
_atom_site_fract_z
Si Si1 0.896299 0.082283 0.463549
Si Si2 0.052479 0.837493 0.362831
Si Si3 0.210615 0.908193 0.944134
Si Si4 0.678849 0.968618 0.938935
Si Si5 0.944890 0.400511 0.177529
Si Si6 0.515280 0.603740 0.918081
O O1 0.826418 0.124059 0.460800
O O2 0.004714 0.150780 0.479053
O O3 0.877632 0.021198 0.399734
O O4 0.130178 0.920644 0.319827
O O5 0.101967 0.795921 0.410571
O O6 0.996830 0.748901 0.315679
O O7 0.105965 0.821465 0.934493
O O8 0.287696 0.882985 0.913919
O O9 0.224817 0.997342 0.902473
O O10 0.247535 0.942776 0.017127
O O11 0.634418 0.979846 0.872065
O O12 0.885547 0.438576 0.137695
#
# Coordination Sequence:
#
# PCOD9575190 Si02
#       6
#    18  18  18  18  18  18
#     4  12  23  34  53  86 122 157 191 233 292 352
#     4   9  18  35  52  84 112 156 187 231 293 339
#     4  11  22  39  60  94 116 154 201 249 307 352
#     4  10  23  35  60  87 120 148 200 254 291 360
#     4  11  20  38  58  84 118 160 201 244 293 347
#     4   9  18  35  59  79 115 153 193 244 285 350
#
# _framework density 22.629183999999999
#
# number of rings (size 3 to 8) (size 9 to 14) (size 15 to 20)
#    0.000    1.667    5.000    1.667    2.333    1.333 
#    0.000    0.000    0.000    5.667    0.000    7.000 
#    0.000    0.000    0.000    0.000    0.000    0.000 
#
# Total GULP energy -201213.038301 kJ/mol
# GULP energy per Si atom -5589.251064 kJ/mol
# Density = 2.257768 g / cm^3
# Si number density = 22.629184 Si / 1000 Ang^3
#
#
#
# Elastic Constant Matrix: (Units=GPa)
#
#
# Indices 1 2 3 4 5 6 
#
# 1 54.6456 17.3440 15.7519 2.4515 -0.7008 0.0000
# 2 17.3440 54.6456 15.7519 -2.4515 0.7008 0.0000
# 3 15.7519 15.7519 72.2690 0.0000 0.0000 0.0000
# 4 2.4515 -2.4515 0.0000 31.7084 0.0000 0.7008
# 5 -0.7008 0.7008 0.0000 0.0000 31.7084 2.4515
# 6 0.0000 0.0000 0.0000 0.7008 2.4515 18.6508
#
#
#
# Elastic Compliance Matrix: (Units=1/GPa)
#
#
# Indices 1 2 3 4 5 6 
#
# 1 0.021231 -0.005875 -0.003347 -0.002096 0.000599 0.000000
# 2 -0.005875 0.021231 -0.003347 0.002096 -0.000599 0.000000
# 3 -0.003347 -0.003347 0.015296 0.000000 0.000000 0.000000
# 4 -0.002096 0.002096 0.000000 0.031888 0.000000 -0.001198
# 5 0.000599 -0.000599 0.000000 0.000000 0.031888 -0.004192
# 6 0.000000 0.000000 0.000000 -0.001198 -0.004192 0.054213
#
#
# Mechanical properties :
#
#
# Convention : Reuss Voigt Hill
#
# Bulk Modulus (GPa) = 30.65641 31.02843 30.84242
# Shear Modulus (GPa) = 23.61175 25.26101 24.43638
#
# Velocity S-wave (km/s) = 3.23371 3.34474 3.28969
# Velocity P-wave (km/s) = 5.24587 5.35330 5.29986
#
# Compressibility (1/GPa) = 0.03261961
#
# Stress axis : x y z
#
# Youngs Moduli (GPa) = 47.10086 47.10086 65.37567
#
# Poissons Ratio (x) = 0.27674 0.21881
# Poissons Ratio (y) = 0.27674 0.21881
# Poissons Ratio (z) = 0.15764 0.15764
#
# Static dielectric constant tensor:
#      x y z
#    x 1.875410 0.000000 0.000000 
#    y 0.000000 1.875410 0.000000 
#    z 0.000000 0.000000 1.943070 
# 
# From -- ./inp_files/3109.got.cif
#   From: 2010.05.17/outbox.cif.g08.bks.cpg/sg148_2_cif.got.tgz:3109.got - 2010.05.20 13:50:20.
