data_PCOD9575206
_publ_section_title
;
Structure prediction by ZEFSAII (Michael W. Deem and Ramdas Pophale) SiO2 
 PCOD9575206
Probable space group: R -3
;
_chemical_formula_sum "Si O2"
_cell_formula_units_Z 84
_cell_length_a 17.809991
_cell_length_b 17.809991
_cell_length_c 13.871786
_cell_angle_alpha 90.000000
_cell_angle_beta 90.000000
_cell_angle_gamma 120.000000
_cell_volume 3810.574106
_symmetry_space_group_name_H-M "R -3"
_symmetry_group_IT_number 148
_symmetry_cell_setting 'hexagonal'
loop_
_space_group_symop_operation_xyz
x,y,z
-y,x-y,z
-x+y,-x,z
-x,-y,-z
y,-x+y,-z
x-y,x,-z
2/3+x,1/3+y,1/3+z
2/3-y,1/3+x-y,1/3+z
2/3-x+y,1/3-x,1/3+z
2/3-x,1/3-y,1/3-z
2/3+y,1/3-x+y,1/3-z
2/3+x-y,1/3+x,1/3-z
1/3+x,2/3+y,2/3+z
1/3-y,2/3+x-y,2/3+z
1/3-x+y,2/3-x,2/3+z
1/3-x,2/3-y,2/3-z
1/3+y,2/3-x+y,2/3-z
1/3+x-y,2/3+x,2/3-z
loop_
_atom_site_type_symbol
_atom_site_label
_atom_site_fract_x
_atom_site_fract_y
_atom_site_fract_z
Si Si1 0.666668 0.333334 0.446736
Si Si2 0.712222 0.916643 0.267274
Si Si3 0.017466 0.143104 0.245175
Si Si4 0.666668 0.333335 0.947007
Si Si5 0.592353 0.001259 0.732440
Si Si6 0.673696 0.883429 0.734116
O O1 0.666668 0.333335 0.333334
O O2 0.647982 0.405957 0.492782
O O3 0.666667 0.833334 0.333334
O O4 0.793050 0.911499 0.223924
O O5 0.650601 0.912013 0.180273
O O6 0.742276 0.999666 0.334306
O O7 0.964634 0.192751 0.262440
O O8 0.009531 0.087486 0.340406
O O9 0.666668 0.333335 0.833334
O O10 0.505162 0.990387 0.686871
O O11 0.608120 0.919952 0.725952
O O12 0.666667 0.833334 0.833334
#
# Coordination Sequence:
#
# PCOD9575206 Si02
#       6
#     6  18  18   6  18  18
#     4  10  23  43  73 104 142 196 233 298 379 449
#     4  12  27  48  76 109 150 196 251 312 379 452
#     4  10  24  48  69 108 149 182 249 307 362 456
#     4  10  23  43  73 104 142 196 236 298 373 440
#     4  12  28  49  75 112 151 202 255 319 381 450
#     4  12  27  49  74 108 151 196 254 314 380 449
#
# _framework density 22.043922999999999
#
# number of rings (size 3 to 8) (size 9 to 14) (size 15 to 20)
#    0.000    0.857    4.286    2.571    6.000    5.143 
#    0.000    0.000    0.000    0.429    0.000    0.000 
#    0.000    0.000    0.000    0.000    0.000    0.000 
#
# Total GULP energy -156658.155324 kJ/mol
# GULP energy per Si atom -5594.934119 kJ/mol
# Density = 2.199375 g / cm^3
# Si number density = 22.043923 Si / 1000 Ang^3
#
#
#
# Elastic Constant Matrix: (Units=GPa)
#
#
# Indices 1 2 3 4 5 6 
#
# 1 90.6027 11.6987 26.4067 4.0432 8.4760 0.0001
# 2 11.6987 90.6011 26.4061 -4.0431 -8.4754 0.0001
# 3 26.4067 26.4061 157.5155 0.0011 0.0007 0.0002
# 4 4.0432 -4.0431 0.0011 21.7018 0.0002 -8.4758
# 5 8.4760 -8.4754 0.0007 0.0002 21.7019 4.0433
# 6 0.0001 0.0001 0.0002 -8.4758 4.0433 39.4516
#
#
#
# Elastic Compliance Matrix: (Units=1/GPa)
#
#
# Indices 1 2 3 4 5 6 
#
# 1 0.012415 -0.001714 -0.001794 -0.002632 -0.005518 0.000000
# 2 -0.001714 0.012415 -0.001794 0.002632 0.005518 0.000000
# 3 -0.001794 -0.001794 0.006950 0.000000 0.000000 0.000000
# 4 -0.002632 0.002632 0.000000 0.051370 -0.000001 0.011036
# 5 -0.005518 0.005518 0.000000 -0.000001 0.051370 -0.005265
# 6 0.000000 0.000000 0.000000 0.011036 -0.005265 0.028258
#
#
# Mechanical properties :
#
#
# Convention : Reuss Voigt Hill
#
# Bulk Modulus (GPa) = 47.22185 51.97136 49.59661
# Shear Modulus (GPa) = 27.70984 34.85158 31.28071
#
# Velocity S-wave (km/s) = 3.54931 3.98050 3.77107
# Velocity P-wave (km/s) = 6.18587 6.68979 6.44276
#
# Compressibility (1/GPa) = 0.02117664
#
# Stress axis : x y z
#
# Youngs Moduli (GPa) = 80.54739 80.54618 143.88316
#
# Poissons Ratio (x) = 0.13805 0.25812
# Poissons Ratio (y) = 0.13805 0.25813
# Poissons Ratio (z) = 0.14450 0.14450
#
# Static dielectric constant tensor:
#      x y z
#    x 1.849080 0.000000 0.000000 
#    y 0.000000 1.849080 0.000000 
#    z 0.000000 0.000000 1.790290 
# 
# From -- ./inp_files/1986.got.cif
#   From: 2010.05.17/outbox.cif.g08.bks.cpg/sg148_1_cif.got.tgz:1986.got - 2010.05.20 13:50:20.
