data_PCOD9575316
_publ_section_title
;
Structure prediction by ZEFSAII (Michael W. Deem and Ramdas Pophale) SiO2 
 PCOD9575316
Probable space group: R -3
;
_chemical_formula_sum "Si O2"
_cell_formula_units_Z 54
_cell_length_a 10.277323
_cell_length_b 10.277323
_cell_length_c 25.555140
_cell_angle_alpha 90.000000
_cell_angle_beta 90.000000
_cell_angle_gamma 120.000000
_cell_volume 2337.593054
_symmetry_space_group_name_H-M "R -3"
_symmetry_group_IT_number 148
_symmetry_cell_setting 'hexagonal'
loop_
_space_group_symop_operation_xyz
x,y,z
-y,x-y,z
-x+y,-x,z
-x,-y,-z
y,-x+y,-z
x-y,x,-z
2/3+x,1/3+y,1/3+z
2/3-y,1/3+x-y,1/3+z
2/3-x+y,1/3-x,1/3+z
2/3-x,1/3-y,1/3-z
2/3+y,1/3-x+y,1/3-z
2/3+x-y,1/3+x,1/3-z
1/3+x,2/3+y,2/3+z
1/3-y,2/3+x-y,2/3+z
1/3-x+y,2/3-x,2/3+z
1/3-x,2/3-y,2/3-z
1/3+y,2/3-x+y,2/3-z
1/3+x-y,2/3+x,2/3-z
loop_
_atom_site_type_symbol
_atom_site_label
_atom_site_fract_x
_atom_site_fract_y
_atom_site_fract_z
Si Si1 0.333334 0.666667 0.072569
Si Si2 0.658075 0.844725 0.435170
Si Si3 0.666667 0.333335 0.394658
Si Si4 0.000000 0.000000 0.719045
Si Si5 0.106911 0.412892 0.794599
O O1 0.362853 0.529032 0.090400
O O2 0.333334 0.666667 0.009880
O O3 0.498877 0.799879 0.406086
O O4 0.617832 0.843660 0.496654
O O5 0.666676 0.696273 0.425683
O O6 0.666668 0.333335 0.333334
O O7 0.572727 0.173804 0.421564
O O8 0.166667 0.333334 0.833334
#
# Coordination Sequence:
#
# PCOD9575316 Si02
#       5
#     6  18   6   6  18
#     4  12  30  44  71 123 151 185 262 333 376 446
#     4  12  25  47  78 105 144 208 255 310 385 469
#     4  12  28  47  76 120 154 191 256 330 388 449
#     4  12  25  49  73 103 160 206 244 312 403 461
#     4  12  23  46  76 104 143 198 256 301 376 473
#
# _framework density 23.100686
#
# number of rings (size 3 to 8) (size 9 to 14) (size 15 to 20)
#    0.000    0.000    6.667    3.000    0.000    4.000 
#    0.000    0.000    0.000    0.000    0.000    0.000 
#    0.000    0.000    0.000    0.000    0.000    0.000 
#
# Total GULP energy -100230.640735 kJ/mol
# GULP energy per Si atom -5568.368930 kJ/mol
# Density = 2.304811 g / cm^3
# Si number density = 23.100686 Si / 1000 Ang^3
#
#
#
# Elastic Constant Matrix: (Units=GPa)
#
#
# Indices 1 2 3 4 5 6 
#
# 1 94.9441 29.8166 37.3878 -0.7800 -4.6542 0.0004
# 2 29.8166 94.9428 37.3877 0.7804 4.6540 0.0005
# 3 37.3878 37.3877 161.7134 0.0005 -0.0002 -0.0003
# 4 -0.7800 0.7804 0.0005 25.1780 -0.0001 4.6542
# 5 -4.6542 4.6540 -0.0002 -0.0001 25.1781 -0.7801
# 6 0.0004 0.0005 -0.0003 4.6542 -0.7801 32.5637
#
#
#
# Elastic Compliance Matrix: (Units=1/GPa)
#
#
# Indices 1 2 3 4 5 6 
#
# 1 0.012544 -0.003239 -0.002151 0.000489 0.002918 0.000000
# 2 -0.003239 0.012544 -0.002151 -0.000489 -0.002918 0.000000
# 3 -0.002151 -0.002151 0.007178 0.000000 0.000000 0.000000
# 4 0.000489 -0.000489 0.000000 0.040826 0.000000 -0.005835
# 5 0.002918 -0.002918 0.000000 0.000000 0.040826 0.000978
# 6 0.000000 0.000000 0.000000 -0.005835 0.000978 0.031566
#
#
# Mechanical properties :
#
#
# Convention : Reuss Voigt Hill
#
# Bulk Modulus (GPa) = 58.19688 62.30936 60.25312
# Shear Modulus (GPa) = 30.06680 33.05117 31.55898
#
# Velocity S-wave (km/s) = 3.61162 3.78662 3.70016
# Velocity P-wave (km/s) = 6.52986 6.79334 6.66291
#
# Compressibility (1/GPa) = 0.01718305
#
# Stress axis : x y z
#
# Youngs Moduli (GPa) = 79.71965 79.71858 139.30489
#
# Poissons Ratio (x) = 0.25823 0.29968
# Poissons Ratio (y) = 0.25824 0.29968
# Poissons Ratio (z) = 0.17149 0.17149
#
# Static dielectric constant tensor:
#      x y z
#    x 1.228970 -0.000310 0.000130 
#    y -0.000310 1.227830 0.000060 
#    z 0.000130 0.000060 1.829080 
# 
# From -- ./inp_files/3268.got.cif
#   From: 2010.05.17/outbox.cif.g08.bks.cpg/sg148_2_cif.got.tgz:3268.got - 2010.05.20 13:50:20.
