data_PCOD9575437
_publ_section_title
;
Structure prediction by ZEFSAII (Michael W. Deem and Ramdas Pophale) SiO2 
 PCOD9575437
Probable space group: P 3 2 1
;
_chemical_formula_sum "Si O2"
_cell_formula_units_Z 20
_cell_length_a 8.589865
_cell_length_b 8.589865
_cell_length_c 17.241310
_cell_angle_alpha 90.000000
_cell_angle_beta 90.000000
_cell_angle_gamma 120.000000
_cell_volume 1101.725925
_symmetry_space_group_name_H-M "P 3 2 1"
_symmetry_group_IT_number 150
_symmetry_cell_setting 'hexagonal'
loop_
_space_group_symop_operation_xyz
x,y,z
-y,x-y,z
-x+y,-x,z
x-y,-y,-z
-x,-x+y,-z
y,x,-z
loop_
_atom_site_type_symbol
_atom_site_label
_atom_site_fract_x
_atom_site_fract_y
_atom_site_fract_z
Si Si1 0.585698 0.102609 0.419779
Si Si2 0.000000 0.000000 0.092011
Si Si3 0.302799 0.004701 0.197347
Si Si4 0.005895 0.628570 0.255056
O O1 0.791552 0.266363 0.418217
O O2 0.551628 0.991527 0.341351
O O3 0.549876 0.000000 0.500000
O O4 0.827401 0.818532 0.126064
O O5 0.000000 0.000000 0.000000
O O6 0.159784 0.833017 0.245639
O O7 0.375888 0.195132 0.239723
O O8 0.475155 0.977634 0.192096
#
# Coordination Sequence:
#
# PCOD9575437 Si02
#       4
#     6   2   6   6
#     4  10  22  35  52  80 118 158 205 257 310 347
#     4   9  21  42  63  96 124 149 196 252 306 372
#     4  10  21  36  66  86 122 161 201 246 305 360
#     4  11  20  39  56  91 118 164 208 252 295 373
#
# _framework density 18.153334999999998
#
# number of rings (size 3 to 8) (size 9 to 14) (size 15 to 20)
#    0.600    1.200    3.000    1.800    4.200    0.000 
#    0.000    6.000    0.000    0.600    0.000    0.000 
#    0.000    0.000    0.000    0.000    0.000    0.000 
#
# Total GULP energy -111344.381696 kJ/mol
# GULP energy per Si atom -5567.219085 kJ/mol
# Density = 1.811202 g / cm^3
# Si number density = 18.153335 Si / 1000 Ang^3
#
#
#
# Elastic Constant Matrix: (Units=GPa)
#
#
# Indices 1 2 3 4 5 6 
#
# 1 68.6948 -0.1169 32.8669 5.3167 0.0000 0.0000
# 2 -0.1169 68.6948 32.8669 -5.3167 0.0000 0.0000
# 3 32.8669 32.8669 135.5788 0.0000 0.0000 0.0000
# 4 5.3167 -5.3167 0.0000 17.7642 0.0000 0.0000
# 5 0.0000 0.0000 0.0000 0.0000 17.7642 5.3167
# 6 0.0000 0.0000 0.0000 0.0000 5.3167 34.4058
#
#
#
# Elastic Compliance Matrix: (Units=1/GPa)
#
#
# Indices 1 2 3 4 5 6 
#
# 1 0.017117 0.001879 -0.004605 -0.004560 0.000000 0.000000
# 2 0.001879 0.017117 -0.004605 0.004560 0.000000 0.000000
# 3 -0.004605 -0.004605 0.009608 0.000000 0.000000 0.000000
# 4 -0.004560 0.004560 0.000000 0.059023 0.000000 0.000000
# 5 0.000000 0.000000 0.000000 0.000000 0.059023 -0.009121
# 6 0.000000 0.000000 0.000000 0.000000 -0.009121 0.030474
#
#
# Mechanical properties :
#
#
# Convention : Reuss Voigt Hill
#
# Bulk Modulus (GPa) = 34.26955 44.91135 39.59045
# Shear Modulus (GPa) = 23.06812 27.81028 25.43920
#
# Velocity S-wave (km/s) = 3.56861 3.91828 3.74752
# Velocity P-wave (km/s) = 5.99156 6.72787 6.37036
#
# Compressibility (1/GPa) = 0.02918042
#
# Stress axis : x y z
#
# Youngs Moduli (GPa) = 58.42304 58.42304 104.07511
#
# Poissons Ratio (x) = -0.10980 0.47926
# Poissons Ratio (y) = -0.10980 0.47926
# Poissons Ratio (z) = 0.26904 0.26904
#
# Static dielectric constant tensor:
#      x y z
#    x 1.656950 0.000000 0.000000 
#    y 0.000000 1.656950 0.000000 
#    z 0.000000 0.000000 1.587720 
# 
# From -- ./inp_files/1084.got.cif
#   From: 2010.05.17/outbox.cif.g08.bks.cpg/sg150_cif.got.tgz:1084.got - 2010.05.20 13:53:18.
