data_PCOD9575421
_publ_section_title
;
Structure prediction by ZEFSAII (Michael W. Deem and Ramdas Pophale) SiO2 
 PCOD9575421
Probable space group: P 3 2 1
;
_chemical_formula_sum "Si O2"
_cell_formula_units_Z 34
_cell_length_a 11.153151
_cell_length_b 11.153151
_cell_length_c 15.005515
_cell_angle_alpha 90.000000
_cell_angle_beta 90.000000
_cell_angle_gamma 120.000000
_cell_volume 1616.503693
_symmetry_space_group_name_H-M "P 3 2 1"
_symmetry_group_IT_number 150
_symmetry_cell_setting 'hexagonal'
loop_
_space_group_symop_operation_xyz
x,y,z
-y,x-y,z
-x+y,-x,z
x-y,-y,-z
-x,-x+y,-z
y,x,-z
loop_
_atom_site_type_symbol
_atom_site_label
_atom_site_fract_x
_atom_site_fract_y
_atom_site_fract_z
Si Si1 0.666668 0.333334 0.198323
Si Si2 0.632209 0.580345 0.405992
Si Si3 0.097634 0.643979 0.136033
Si Si4 0.929128 0.306476 0.777734
Si Si5 0.864862 0.658230 0.212708
Si Si6 0.333335 0.666668 0.013066
Si Si7 0.290018 0.362579 0.593669
O O1 0.755079 0.493794 0.226635
O O2 0.666668 0.333334 0.091629
O O3 0.649042 0.649042 0.500000
O O4 0.641712 0.679101 0.326343
O O5 0.760688 0.554607 0.410815
O O6 0.480561 0.448778 0.397464
O O7 0.043320 0.496058 0.182867
O O8 0.205521 0.771260 0.197202
O O9 0.189204 0.648152 0.052081
O O10 0.967493 0.667472 0.134775
O O11 0.046024 0.273711 0.813546
O O12 0.945695 0.710457 0.308547
O O13 0.282730 0.282730 0.500000
#
# Coordination Sequence:
#
# PCOD9575421 Si02
#       7
#     2   6   6   6   6   2   6
#     4  12  21  39  72  94 125 163 216 273 318 390
#     4  10  20  31  51  80 111 154 212 255 317 370
#     4  10  20  41  60  86 131 157 211 270 318 398
#     4  10  21  36  59  87 119 170 207 267 328 379
#     4  11  20  38  63  89 122 171 212 258 328 390
#     4   9  24  39  63 103 122 160 207 267 342 375
#     4  10  20  34  52  82 117 156 205 262 296 374
#
# _framework density 21.033047
#
# number of rings (size 3 to 8) (size 9 to 14) (size 15 to 20)
#    0.000    1.765    3.529    1.765    2.471    0.706 
#    1.059    0.000    0.000    0.353    0.000    0.000 
#    0.000    0.000    0.000    0.000    0.000    0.000 
#
# Total GULP energy -189341.212694 kJ/mol
# GULP energy per Si atom -5568.859197 kJ/mol
# Density = 2.098517 g / cm^3
# Si number density = 21.033047 Si / 1000 Ang^3
#
#
#
# Elastic Constant Matrix: (Units=GPa)
#
#
# Indices 1 2 3 4 5 6 
#
# 1 55.2301 -0.1252 27.3282 1.2846 0.0000 0.0000
# 2 -0.1252 55.2313 27.3293 -1.2841 0.0000 0.0000
# 3 27.3282 27.3293 117.3630 0.0009 0.0000 0.0000
# 4 1.2846 -1.2841 0.0009 15.2441 0.0000 0.0000
# 5 0.0000 0.0000 0.0000 0.0000 15.2435 1.2842
# 6 0.0000 0.0000 0.0000 0.0000 1.2842 27.6788
#
#
#
# Elastic Compliance Matrix: (Units=1/GPa)
#
#
# Indices 1 2 3 4 5 6 
#
# 1 0.020867 0.002731 -0.005495 -0.001528 0.000000 0.000000
# 2 0.002731 0.020866 -0.005495 0.001528 0.000000 0.000000
# 3 -0.005495 -0.005495 0.011080 -0.000001 0.000000 0.000000
# 4 -0.001528 0.001528 -0.000001 0.065857 0.000000 0.000000
# 5 0.000000 0.000000 0.000000 0.000000 0.065859 -0.003056
# 6 0.000000 0.000000 0.000000 0.000000 -0.003056 0.036271
#
#
# Mechanical properties :
#
#
# Convention : Reuss Voigt Hill
#
# Bulk Modulus (GPa) = 27.55219 37.43212 32.49215
# Shear Modulus (GPa) = 20.04694 23.18609 21.61652
#
# Velocity S-wave (km/s) = 3.09061 3.32379 3.20932
# Velocity P-wave (km/s) = 5.08564 5.70662 5.40506
#
# Compressibility (1/GPa) = 0.03629476
#
# Stress axis : x y z
#
# Youngs Moduli (GPa) = 47.92349 47.92412 90.25635
#
# Poissons Ratio (x) = -0.13086 0.49593
# Poissons Ratio (y) = -0.13086 0.49594
# Poissons Ratio (z) = 0.26332 0.26333
#
# Static dielectric constant tensor:
#      x y z
#    x 1.877000 0.000000 0.000000 
#    y 0.000000 1.876990 0.000000 
#    z 0.000000 0.000000 1.785100 
# 
# From -- ./inp_files/1033.got.cif
#   From: 2010.05.17/outbox.cif.g08.bks.cpg/sg150_cif.got.tgz:1033.got - 2010.05.20 13:53:18.
