data_PCOD9575305
_publ_section_title
;
Structure prediction by ZEFSAII (Michael W. Deem and Ramdas Pophale) SiO2 
 PCOD9575305
Probable space group: R -3
;
_chemical_formula_sum "Si O2"
_cell_formula_units_Z 69
_cell_length_a 20.044515
_cell_length_b 20.044515
_cell_length_c 6.979239
_cell_angle_alpha 90.000000
_cell_angle_beta 90.000000
_cell_angle_gamma 120.000000
_cell_volume 2428.453586
_symmetry_space_group_name_H-M "R -3"
_symmetry_group_IT_number 148
_symmetry_cell_setting 'hexagonal'
loop_
_space_group_symop_operation_xyz
x,y,z
-y,x-y,z
-x+y,-x,z
-x,-y,-z
y,-x+y,-z
x-y,x,-z
2/3+x,1/3+y,1/3+z
2/3-y,1/3+x-y,1/3+z
2/3-x+y,1/3-x,1/3+z
2/3-x,1/3-y,1/3-z
2/3+y,1/3-x+y,1/3-z
2/3+x-y,1/3+x,1/3-z
1/3+x,2/3+y,2/3+z
1/3-y,2/3+x-y,2/3+z
1/3-x+y,2/3-x,2/3+z
1/3-x,2/3-y,2/3-z
1/3+y,2/3-x+y,2/3-z
1/3+x-y,2/3+x,2/3-z
loop_
_atom_site_type_symbol
_atom_site_label
_atom_site_fract_x
_atom_site_fract_y
_atom_site_fract_z
Si Si1 0.333334 0.666667 0.933309
Si Si2 0.944475 0.608362 0.564883
Si Si3 0.382145 0.541592 0.431405
Si Si4 0.500000 0.000000 0.500000
Si Si5 0.789598 0.573584 0.681668
O O1 0.294838 0.717547 0.872711
O O2 0.333335 0.666668 0.166667
O O3 0.971341 0.685217 0.443098
O O4 0.853989 0.556995 0.596544
O O5 0.979068 0.565220 0.446410
O O6 0.431909 0.520423 0.569686
O O7 0.295097 0.472393 0.403740
O O8 0.431365 0.550853 0.236625
O O9 0.833334 0.666667 0.666667
#
# Coordination Sequence:
#
# PCOD9575305 Si02
#       5
#     6  18  18   9  18
#     4  12  21  45  81 111 153 208 303 345 406 507
#     4  12  27  48  74 109 152 205 261 325 404 488
#     4  12  24  42  71 112 151 208 272 346 408 496
#     4  12  26  42  68 108 156 192 248 328 416 468
#     4  12  23  41  71 104 149 202 265 332 405 486
#
# _framework density 28.413143000000002
#
# number of rings (size 3 to 8) (size 9 to 14) (size 15 to 20)
#    0.000    0.000    2.609    9.391    0.000    2.087 
#    0.000    0.000    0.000    0.000    0.000   10.957 
#    0.000    0.000    0.000    0.000    0.000    0.000 
#
# Total GULP energy -128343.751168 kJ/mol
# GULP energy per Si atom -5580.163094 kJ/mol
# Density = 2.834847 g / cm^3
# Si number density = 28.413143 Si / 1000 Ang^3
#
#
#
# Elastic Constant Matrix: (Units=GPa)
#
#
# Indices 1 2 3 4 5 6 
#
# 1 213.2042 63.0316 -1.9297 -0.6856 -4.8891 -0.0056
# 2 63.0316 213.2588 -1.8344 0.6756 4.8392 0.0036
# 3 -1.9297 -1.8344 87.3083 -0.0490 -0.1122 -0.0163
# 4 -0.6856 0.6756 -0.0490 16.8848 -0.0444 4.8333
# 5 -4.8891 4.8392 -0.1122 -0.0444 16.8189 -0.6773
# 6 -0.0056 0.0036 -0.0163 4.8333 -0.6773 75.1127
#
#
#
# Elastic Compliance Matrix: (Units=1/GPa)
#
#
# Indices 1 2 3 4 5 6 
#
# 1 0.005205 -0.001583 0.000084 0.000280 0.001970 0.000000
# 2 -0.001583 0.005203 0.000072 -0.000277 -0.001958 0.000000
# 3 0.000084 0.000072 0.011457 0.000034 0.000081 0.000001
# 4 0.000280 -0.000277 0.000034 0.060359 0.000165 -0.003882
# 5 0.001970 -0.001958 0.000081 0.000165 0.060615 0.000536
# 6 0.000000 0.000000 0.000001 -0.003882 0.000536 0.013568
#
#
# Mechanical properties :
#
#
# Convention : Reuss Voigt Hill
#
# Bulk Modulus (GPa) = 52.60110 70.25625 61.42868
# Shear Modulus (GPa) = 30.19333 52.06353 41.12843
#
# Velocity S-wave (km/s) = 3.26337 4.28527 3.80875
# Velocity P-wave (km/s) = 5.72299 7.01891 6.40381
#
# Compressibility (1/GPa) = 0.01901101
#
# Stress axis : x y z
#
# Youngs Moduli (GPa) = 192.11254 192.19542 87.28162
#
# Poissons Ratio (x) = 0.30431 -0.00737
# Poissons Ratio (y) = 0.30418 -0.00625
# Poissons Ratio (z) = -0.01623 -0.01377
#
# Static dielectric constant tensor:
#      x y z
#    x 2.203690 0.000040 0.000440 
#    y 0.000040 2.203780 0.000680 
#    z 0.000440 0.000680 -5.635010 
# 
# From -- ./inp_files/828.got.cif
#   From: 2010.05.17/outbox.cif.g08.bks.cpg/sg148_1_cif.got.tgz:828.got - 2010.05.20 13:50:20.
