data_PCOD9575096
_publ_section_title
;
Structure prediction by ZEFSAII (Michael W. Deem and Ramdas Pophale) SiO2 
 PCOD9575096
Probable space group: R -3
;
_chemical_formula_sum "Si O2"
_cell_formula_units_Z 114
_cell_length_a 14.719929
_cell_length_b 14.719929
_cell_length_c 26.144759
_cell_angle_alpha 90.000000
_cell_angle_beta 90.000000
_cell_angle_gamma 120.000000
_cell_volume 4905.990524
_symmetry_space_group_name_H-M "R -3"
_symmetry_group_IT_number 148
_symmetry_cell_setting 'hexagonal'
loop_
_space_group_symop_operation_xyz
x,y,z
-y,x-y,z
-x+y,-x,z
-x,-y,-z
y,-x+y,-z
x-y,x,-z
2/3+x,1/3+y,1/3+z
2/3-y,1/3+x-y,1/3+z
2/3-x+y,1/3-x,1/3+z
2/3-x,1/3-y,1/3-z
2/3+y,1/3-x+y,1/3-z
2/3+x-y,1/3+x,1/3-z
1/3+x,2/3+y,2/3+z
1/3-y,2/3+x-y,2/3+z
1/3-x+y,2/3-x,2/3+z
1/3-x,2/3-y,2/3-z
1/3+y,2/3-x+y,2/3-z
1/3+x-y,2/3+x,2/3-z
loop_
_atom_site_type_symbol
_atom_site_label
_atom_site_fract_x
_atom_site_fract_y
_atom_site_fract_z
Si Si1 0.898723 0.519659 0.100350
Si Si2 0.274262 0.038456 0.702995
Si Si3 0.406935 0.513794 0.526599
Si Si4 0.867551 0.548207 0.746294
Si Si5 0.333334 0.666667 0.227238
Si Si6 0.366412 0.153728 0.288683
Si Si7 0.325041 0.224734 0.931896
O O1 0.887135 0.419735 0.071410
O O2 0.811200 0.492311 0.143546
O O3 0.899375 0.607260 0.063057
O O4 0.021776 0.584624 0.117815
O O5 0.258884 0.055737 0.644065
O O6 0.391600 0.072310 0.721840
O O7 0.217602 0.913285 0.709525
O O8 0.500000 0.500000 0.500000
O O9 0.466486 0.585174 0.576223
O O10 0.308286 0.416282 0.554558
O O11 0.757124 0.446200 0.754979
O O12 0.952396 0.508613 0.747819
O O13 0.333335 0.666668 0.166667
O O14 0.400621 0.151019 0.346422
#
# Coordination Sequence:
#
# PCOD9575096 Si02
#       7
#    18  18  18  18   6  18  18
#     4  11  21  38  63  93 129 174 231 287 344 414
#     4  10  21  37  63  90 130 170 229 277 342 418
#     4   9  21  39  63  91 129 164 225 289 340 399
#     4  11  24  38  62  91 132 184 217 273 351 429
#     4  12  30  42  51  90 144 162 219 270 331 434
#     4   9  20  38  58  93 126 169 221 283 331 418
#     4  10  20  38  62  93 129 170 222 269 343 418
#
# _framework density 23.236898
#
# number of rings (size 3 to 8) (size 9 to 14) (size 15 to 20)
#    0.000    1.895    1.579    1.421    6.632    2.526 
#    0.947    0.000    0.000    0.000    0.000    0.000 
#   42.632   73.895    0.000    0.000    0.000    0.000 
#
# Total GULP energy -211783.744776 kJ/mol
# GULP energy per Si atom -5573.256441 kJ/mol
# Density = 2.318401 g / cm^3
# Si number density = 23.236898 Si / 1000 Ang^3
#
#
#
# Elastic Constant Matrix: (Units=GPa)
#
#
# Indices 1 2 3 4 5 6 
#
# 1 77.7086 14.0813 20.6049 0.4042 11.7884 0.0000
# 2 14.0813 77.7082 20.6048 -0.4041 -11.7884 -0.0001
# 3 20.6049 20.6048 115.9754 0.0000 0.0000 0.0000
# 4 0.4042 -0.4041 0.0000 35.1685 0.0000 -11.7884
# 5 11.7884 -11.7884 0.0000 0.0000 35.1686 0.4042
# 6 0.0000 -0.0001 0.0000 -11.7884 0.4042 31.8135
#
#
#
# Elastic Compliance Matrix: (Units=1/GPa)
#
#
# Indices 1 2 3 4 5 6 
#
# 1 0.014894 -0.003055 -0.002103 -0.000206 -0.006016 0.000000
# 2 -0.003055 0.014894 -0.002103 0.000206 0.006016 0.000000
# 3 -0.002103 -0.002103 0.009370 0.000000 0.000000 0.000000
# 4 -0.000206 0.000206 0.000000 0.032473 0.000000 0.012033
# 5 -0.006016 0.006016 0.000000 0.000000 0.032472 -0.000413
# 6 0.000000 0.000000 0.000000 0.012033 -0.000413 0.035897
#
#
# Mechanical properties :
#
#
# Convention : Reuss Voigt Hill
#
# Bulk Modulus (GPa) = 40.59416 42.44157 41.51787
# Shear Modulus (GPa) = 30.72501 34.83685 32.78093
#
# Velocity S-wave (km/s) = 3.64022 3.87616 3.76004
# Velocity P-wave (km/s) = 5.93093 6.19170 6.06272
#
# Compressibility (1/GPa) = 0.02463409
#
# Stress axis : x y z
#
# Youngs Moduli (GPa) = 67.14286 67.14257 106.72471
#
# Poissons Ratio (x) = 0.20511 0.22448
# Poissons Ratio (y) = 0.20511 0.22448
# Poissons Ratio (z) = 0.14122 0.14122
#
# Static dielectric constant tensor:
#      x y z
#    x 1.941470 0.000000 0.000000 
#    y 0.000000 1.941480 0.000000 
#    z 0.000000 0.000000 1.958970 
# 
# From -- ./inp_files/4038.got.cif
#   From: 2010.05.17/outbox.cif.g08.bks.cpg/sg148_3_cif.got.tgz:4038.got - 2010.05.20 13:50:20.
