data_PCOD9575377
_publ_section_title
;
Structure prediction by ZEFSAII (Michael W. Deem and Ramdas Pophale) SiO2 
 PCOD9575377
Probable space group: P 3 1 2
;
_chemical_formula_sum "Si O2"
_cell_formula_units_Z 42
_cell_length_a 8.848988
_cell_length_b 8.848988
_cell_length_c 30.961556
_cell_angle_alpha 90.000000
_cell_angle_beta 90.000000
_cell_angle_gamma 120.000000
_cell_volume 2099.619620
_symmetry_space_group_name_H-M "P 3 1 2"
_symmetry_group_IT_number 149
_symmetry_cell_setting 'hexagonal'
loop_
_space_group_symop_operation_xyz
x,y,z
-y,x-y,z
-x+y,-x,z
-y,-x,-z
-x+y,y,-z
x,x-y,-z
loop_
_atom_site_type_symbol
_atom_site_label
_atom_site_fract_x
_atom_site_fract_y
_atom_site_fract_z
Si Si1 0.995609 0.328778 0.656315
Si Si2 0.333107 0.333781 0.517681
Si Si3 0.333327 0.993581 0.205457
Si Si4 0.333689 0.007322 0.759408
Si Si5 0.003358 0.336372 0.378963
Si Si6 0.000170 0.333163 0.017673
Si Si7 0.132407 0.466400 0.110117
O O1 0.980404 0.312497 0.707850
O O2 0.185399 0.371741 0.640325
O O3 0.962166 0.481134 0.639677
O O4 0.852677 0.146736 0.636020
O O5 0.480504 0.519496 0.500000
O O6 0.371858 0.185929 0.500000
O O7 0.333755 0.340517 0.569356
O O8 0.146576 0.293151 0.500000
O O9 0.184034 0.814711 0.226216
O O10 0.518611 0.038079 0.225055
O O11 0.334879 0.958441 0.154604
O O12 0.297194 0.147937 0.218035
O O13 0.023141 0.356539 0.069198
O O14 0.146435 0.292870 0.000000
O O15 0.040494 0.520247 0.000000
O O16 0.814131 0.185870 0.000000
O O17 0.332798 0.503777 0.108501
#
# Coordination Sequence:
#
# PCOD9575377 Si02
#       7
#     6   6   6   6   6   6   6
#     4  12  25  43  67  95 136 175 219 278 334 402
#     4  12  25  44  67  96 129 170 219 280 333 400
#     4  12  25  43  70 100 135 181 226 278 341 400
#     4  12  24  44  66 102 135 175 228 278 334 405
#     4  12  25  44  67  96 130 174 222 269 342 407
#     4  12  24  43  71 105 142 184 229 284 340 403
#     4  10  20  44  74  97 135 187 227 278 345 390
#
# _framework density 20.003623000000001
#
# number of rings (size 3 to 8) (size 9 to 14) (size 15 to 20)
#    0.286    0.000    2.857    7.714    0.000    2.286 
#    0.000    0.000    0.000    0.000    0.000    0.000 
#    0.000    0.000    0.000    0.000    0.000    0.000 
#
# Total GULP energy -235098.866723 kJ/mol
# GULP energy per Si atom -5597.592065 kJ/mol
# Density = 1.995809 g / cm^3
# Si number density = 20.003623 Si / 1000 Ang^3
#
#
#
# Elastic Constant Matrix: (Units=GPa)
#
#
# Indices 1 2 3 4 5 6 
#
# 1 67.1927 -20.8438 32.7498 -0.0001 40.6728 0.0000
# 2 -20.8438 67.1927 32.7498 0.0001 -40.6728 0.0000
# 3 32.7498 32.7498 230.3165 0.0000 0.0000 0.0000
# 4 -0.0001 0.0001 0.0000 252.8899 0.0000 -40.6728
# 5 40.6728 -40.6728 0.0000 0.0000 252.8899 -0.0001
# 6 0.0000 0.0000 0.0000 -40.6728 -0.0001 44.0183
#
#
#
# Elastic Compliance Matrix: (Units=1/GPa)
#
#
# Indices 1 2 3 4 5 6 
#
# 1 0.020171 0.006830 -0.003839 0.000000 -0.002146 0.000000
# 2 0.006830 0.020171 -0.003839 0.000000 0.002146 0.000000
# 3 -0.003839 -0.003839 0.005434 0.000000 0.000000 0.000000
# 4 0.000000 0.000000 0.000000 0.004645 0.000000 0.004292
# 5 -0.002146 0.002146 0.000000 0.000000 0.004645 0.000000
# 6 0.000000 0.000000 0.000000 0.004292 0.000000 0.026683
#
#
# Mechanical properties :
#
#
# Convention : Reuss Voigt Hill
#
# Bulk Modulus (GPa) = 22.68675 50.44596 36.56635
# Shear Modulus (GPa) = 50.94774 131.29604 91.12189
#
# Velocity S-wave (km/s) = 5.05218 8.11040 6.75660
# Velocity P-wave (km/s) = 6.73785 10.62911 8.89878
#
# Compressibility (1/GPa) = 0.04407860
#
# Stress axis : x y z
#
# Youngs Moduli (GPa) = 49.57500 49.57500 184.03497
#
# Poissons Ratio (x) = -0.33859 0.70659
# Poissons Ratio (y) = -0.33859 0.70659
# Poissons Ratio (z) = 0.19034 0.19034
#
# Static dielectric constant tensor:
#      x y z
#    x 1.638520 0.000000 0.000000 
#    y 0.000000 1.638520 0.000000 
#    z 0.000000 0.000000 1.676730 
# 
# From -- ./inp_files/1173.got.cif
#   From: 2010.05.17/outbox.cif.g08.bks.cpg/sg149_cif.got.tgz:1173.got - 2010.05.20 13:52:34.
