data_PCOD9575063
_publ_section_title
;
Structure prediction by ZEFSAII (Michael W. Deem and Ramdas Pophale) SiO2 
 PCOD9575063
Probable space group: R -3
;
_chemical_formula_sum "Si O2"
_cell_formula_units_Z 132
_cell_length_a 23.326983
_cell_length_b 23.326983
_cell_length_c 14.899849
_cell_angle_alpha 90.000000
_cell_angle_beta 90.000000
_cell_angle_gamma 120.000000
_cell_volume 7021.495867
_symmetry_space_group_name_H-M "R -3"
_symmetry_group_IT_number 148
_symmetry_cell_setting 'hexagonal'
loop_
_space_group_symop_operation_xyz
x,y,z
-y,x-y,z
-x+y,-x,z
-x,-y,-z
y,-x+y,-z
x-y,x,-z
2/3+x,1/3+y,1/3+z
2/3-y,1/3+x-y,1/3+z
2/3-x+y,1/3-x,1/3+z
2/3-x,1/3-y,1/3-z
2/3+y,1/3-x+y,1/3-z
2/3+x-y,1/3+x,1/3-z
1/3+x,2/3+y,2/3+z
1/3-y,2/3+x-y,2/3+z
1/3-x+y,2/3-x,2/3+z
1/3-x,2/3-y,2/3-z
1/3+y,2/3-x+y,2/3-z
1/3+x-y,2/3+x,2/3-z
loop_
_atom_site_type_symbol
_atom_site_label
_atom_site_fract_x
_atom_site_fract_y
_atom_site_fract_z
Si Si1 0.667600 0.764388 0.210421
Si Si2 0.903392 0.483295 0.842805
Si Si3 0.965849 0.452935 0.415568
Si Si4 0.352830 0.061400 0.951967
Si Si5 0.361939 0.548900 0.290842
Si Si6 0.315527 0.864496 0.885542
Si Si7 0.422952 0.406485 0.331936
Si Si8 0.000000 0.000000 0.394450
O O1 0.620694 0.795695 0.217467
O O2 0.639431 0.703763 0.280480
O O3 0.746829 0.806426 0.221793
O O4 0.665600 0.740215 0.106627
O O5 0.951285 0.553571 0.795984
O O6 0.859539 0.427940 0.767223
O O7 0.849779 0.485310 0.909069
O O8 0.904646 0.386110 0.455627
O O9 0.951743 0.498396 0.347587
O O10 0.000000 0.500000 0.500000
O O11 0.018322 0.436080 0.370376
O O12 0.277677 0.999527 0.956483
O O13 0.367173 0.533145 0.393733
O O14 0.346167 0.607638 0.295247
O O15 0.279115 0.893729 0.947208
O O16 0.000000 0.000000 0.500000
#
# Coordination Sequence:
#
# PCOD9575063 Si02
#       8
#    18  18  18  18  18  18  18   6
#     4  11  21  35  58  89 126 162 198 262 320 375
#     4  12  20  37  61  88 124 163 204 256 320 383
#     4  10  19  36  59  82 114 171 216 248 306 381
#     4  11  21  33  59  86 120 165 206 253 315 372
#     4  12  23  41  62  91 120 163 217 260 313 381
#     4  10  21  37  59  84 122 163 206 261 314 371
#     4  10  19  36  57  88 121 161 210 257 304 381
#     4  12  24  42  69  87 114 169 227 256 303 387
#
# _framework density 18.799412
#
# number of rings (size 3 to 8) (size 9 to 14) (size 15 to 20)
#    0.000    1.091    6.818    0.818    0.000    0.545 
#    0.000    1.364    0.000    0.000    0.000    0.000 
#    0.000    1.091    0.000    0.000    0.000    0.000 
#
# Total GULP energy -245024.153407 kJ/mol
# GULP energy per Si atom -5568.730759 kJ/mol
# Density = 1.875662 g / cm^3
# Si number density = 18.799412 Si / 1000 Ang^3
#
#
#
# Elastic Constant Matrix: (Units=GPa)
#
#
# Indices 1 2 3 4 5 6 
#
# 1 74.9190 21.3996 15.8135 9.3988 -2.7073 0.0000
# 2 21.3996 74.9190 15.8135 -9.3988 2.7073 0.0000
# 3 15.8135 15.8135 48.6752 0.0000 0.0000 0.0000
# 4 9.3988 -9.3988 0.0000 27.7542 0.0000 2.7073
# 5 -2.7073 2.7073 0.0000 0.0000 27.7542 9.3988
# 6 0.0000 0.0000 0.0000 2.7073 9.3988 26.7597
#
#
#
# Elastic Compliance Matrix: (Units=1/GPa)
#
#
# Indices 1 2 3 4 5 6 
#
# 1 0.016535 -0.004913 -0.003776 -0.007263 0.002092 0.000000
# 2 -0.004913 0.016535 -0.003776 0.007263 -0.002092 0.000000
# 3 -0.003776 -0.003776 0.022998 0.000000 0.000000 0.000000
# 4 -0.007263 0.007263 0.000000 0.041358 0.000000 -0.004184
# 5 0.002092 -0.002092 0.000000 0.000000 0.041358 -0.014526
# 6 0.000000 0.000000 0.000000 -0.004184 -0.014526 0.042895
#
#
# Mechanical properties :
#
#
# Convention : Reuss Voigt Hill
#
# Bulk Modulus (GPa) = 32.11435 33.84071 32.97753
# Shear Modulus (GPa) = 23.04298 26.15276 24.59787
#
# Velocity S-wave (km/s) = 3.50484 3.73386 3.62116
# Velocity P-wave (km/s) = 5.78777 6.05218 5.92145
#
# Compressibility (1/GPa) = 0.03113873
#
# Stress axis : x y z
#
# Youngs Moduli (GPa) = 60.47874 60.47874 43.48269
#
# Poissons Ratio (x) = 0.29712 0.16418
# Poissons Ratio (y) = 0.29712 0.16418
# Poissons Ratio (z) = 0.22835 0.22835
#
# Static dielectric constant tensor:
#      x y z
#    x 1.685580 0.000000 0.000000 
#    y 0.000000 1.685580 0.000000 
#    z 0.000000 0.000000 1.716440 
# 
# From -- ./inp_files/2245.got.cif
#   From: 2010.05.17/outbox.cif.g08.bks.cpg/sg148_2_cif.got.tgz:2245.got - 2010.05.20 13:50:20.
