data_PCOD9575330
_publ_section_title
;
Structure prediction by ZEFSAII (Michael W. Deem and Ramdas Pophale) SiO2 
 PCOD9575330
Probable space group: R -3
;
_chemical_formula_sum "Si O2"
_cell_formula_units_Z 36
_cell_length_a 14.600809
_cell_length_b 14.600809
_cell_length_c 7.457418
_cell_angle_alpha 90.000000
_cell_angle_beta 90.000000
_cell_angle_gamma 120.000000
_cell_volume 1376.806659
_symmetry_space_group_name_H-M "R -3"
_symmetry_group_IT_number 148
_symmetry_cell_setting 'hexagonal'
loop_
_space_group_symop_operation_xyz
x,y,z
-y,x-y,z
-x+y,-x,z
-x,-y,-z
y,-x+y,-z
x-y,x,-z
2/3+x,1/3+y,1/3+z
2/3-y,1/3+x-y,1/3+z
2/3-x+y,1/3-x,1/3+z
2/3-x,1/3-y,1/3-z
2/3+y,1/3-x+y,1/3-z
2/3+x-y,1/3+x,1/3-z
1/3+x,2/3+y,2/3+z
1/3-y,2/3+x-y,2/3+z
1/3-x+y,2/3-x,2/3+z
1/3-x,2/3-y,2/3-z
1/3+y,2/3-x+y,2/3-z
1/3+x-y,2/3+x,2/3-z
loop_
_atom_site_type_symbol
_atom_site_label
_atom_site_fract_x
_atom_site_fract_y
_atom_site_fract_z
Si Si1 0.957034 0.243276 0.665363
Si Si2 0.790887 0.884716 0.889088
O O1 0.967762 0.323773 0.823310
O O2 0.833334 0.166667 0.666667
O O3 0.016370 0.178172 0.717870
O O4 0.666667 0.833334 0.833334
O O5 0.832133 0.837790 0.050370
#
# Coordination Sequence:
#
# PCOD9575330 Si02
#       2
#    18  18
#     4  12  28  50  86 125 170 224 287 354 441 522
#     4  12  27  51  84 126 174 229 286 358 434 516
#
# _framework density 26.147459000000001
#
# number of rings (size 3 to 8) (size 9 to 14) (size 15 to 20)
#    0.000    0.000    5.000    3.500    0.000    0.000 
#    0.000    0.000    0.000    4.000    0.000    0.000 
#    0.000    0.000    0.000    0.000    0.000    0.000 
#
# Total GULP energy -66918.308693 kJ/mol
# GULP energy per Si atom -5576.525724 kJ/mol
# Density = 2.608795 g / cm^3
# Si number density = 26.147459 Si / 1000 Ang^3
#
#
#
# Elastic Constant Matrix: (Units=GPa)
#
#
# Indices 1 2 3 4 5 6 
#
# 1 179.0543 87.9212 77.5027 -11.8852 10.7078 0.0000
# 2 87.9212 179.0543 77.5027 11.8853 -10.7076 0.0000
# 3 77.5027 77.5027 148.9731 0.0002 0.0003 0.0001
# 4 -11.8852 11.8853 0.0002 65.6710 0.0001 -10.7077
# 5 10.7078 -10.7076 0.0003 0.0001 65.6711 -11.8852
# 6 0.0000 0.0000 0.0001 -10.7077 -11.8852 45.5666
#
#
#
# Elastic Compliance Matrix: (Units=1/GPa)
#
#
# Indices 1 2 3 4 5 6 
#
# 1 0.008683 -0.003316 -0.002792 0.002172 -0.001956 0.000000
# 2 -0.003316 0.008683 -0.002792 -0.002172 0.001956 0.000000
# 3 -0.002792 -0.002792 0.009618 0.000000 0.000000 0.000000
# 4 0.002172 -0.002172 0.000000 0.016651 0.000000 0.003913
# 5 -0.001956 0.001956 0.000000 0.000000 0.016651 0.004343
# 6 0.000000 0.000000 0.000000 0.003913 0.004343 0.023998
#
#
# Mechanical properties :
#
#
# Convention : Reuss Voigt Hill
#
# Bulk Modulus (GPa) = 108.89623 110.32612 109.61118
# Shear Modulus (GPa) = 47.55287 52.99210 50.27248
#
# Velocity S-wave (km/s) = 4.26918 4.50673 4.38956
# Velocity P-wave (km/s) = 8.12641 8.32864 8.22815
#
# Compressibility (1/GPa) = 0.00918305
#
# Stress axis : x y z
#
# Youngs Moduli (GPa) = 115.16868 115.16867 103.97526
#
# Poissons Ratio (x) = 0.38193 0.29030
# Poissons Ratio (y) = 0.38193 0.29030
# Poissons Ratio (z) = 0.32155 0.32155
#
# Static dielectric constant tensor:
#      x y z
#    x 2.184360 0.000000 0.000000 
#    y 0.000000 2.184360 0.000000 
#    z 0.000000 0.000000 2.192280 
# 
# From -- ./inp_files/525.got.cif
#   From: 2010.05.17/outbox.cif.g08.bks.cpg/sg148_1_cif.got.tgz:525.got - 2010.05.20 13:50:20.
