data_PCOD9575763
_publ_section_title
;
Structure prediction by ZEFSAII (Michael W. Deem and Ramdas Pophale) SiO2 
 PCOD9575763
Probable space group: P 31 2 1
;
_chemical_formula_sum "Si O2"
_cell_formula_units_Z 30
_cell_length_a 22.286933
_cell_length_b 22.286933
_cell_length_c 5.184132
_cell_angle_alpha 90.000000
_cell_angle_beta 90.000000
_cell_angle_gamma 120.000000
_cell_volume 2230.012502
_symmetry_space_group_name_H-M "P 31 2 1"
_symmetry_group_IT_number 152
_symmetry_cell_setting 'hexagonal'
loop_
_space_group_symop_operation_xyz
x,y,z
-y,x-y,1/3+z
-x+y,-x,2/3+z
x-y,-y,2/3-z
-x,-x+y,1/3-z
y,x,-z
loop_
_atom_site_type_symbol
_atom_site_label
_atom_site_fract_x
_atom_site_fract_y
_atom_site_fract_z
Si Si1 0.386482 0.466883 0.994959
Si Si2 0.652551 0.160990 0.831291
Si Si3 0.293402 0.706598 0.499999
Si Si4 0.466882 0.080400 0.328296
Si Si5 0.160990 0.508440 0.164621
O O1 0.348996 0.460554 0.727202
O O2 0.459339 0.540662 0.999998
O O3 0.409105 0.409105 0.000000
O O4 0.341553 0.472548 0.228370
O O5 0.698194 0.238013 0.715995
O O6 0.576698 0.153396 0.833335
O O7 0.274387 0.637193 0.666665
O O8 0.301806 0.761987 0.715993
O O9 0.472548 0.130995 0.561707
O O10 0.409105 0.000000 0.333334
O O11 0.460554 0.111558 0.060540
#
# Coordination Sequence:
#
# PCOD9575763 Si02
#       5
#     6   6   6   6   6
#     4   9  17  29  43  55  67  83 112 153 185 209
#     4  10  19  29  40  55  70  93 120 141 176 214
#     4  12  22  30  40  54  83 108 128 144 174 230
#     4   9  17  29  43  55  67  83 112 153 185 209
#     4  10  19  29  40  55  70  93 120 141 176 214
#
# _framework density 13.45284
#
# number of rings (size 3 to 8) (size 9 to 14) (size 15 to 20)
#    0.000    2.000    2.000    4.800    0.000    4.800 
#    0.000    0.000    0.000    0.000    0.000    0.000 
#    0.000    0.000    0.000    0.000    0.000    0.000 
#
# Total GULP energy -167031.529065 kJ/mol
# GULP energy per Si atom -5567.717636 kJ/mol
# Density = 1.342222 g / cm^3
# Si number density = 13.452840 Si / 1000 Ang^3
#
#
#
# Elastic Constant Matrix: (Units=GPa)
#
#
# Indices 1 2 3 4 5 6 
#
# 1 36.4813 31.0481 27.2110 0.0000 0.0000 0.0000
# 2 31.0481 36.4813 27.2110 0.0000 0.0000 0.0000
# 3 27.2110 27.2110 100.5861 0.0000 0.0000 0.0000
# 4 0.0000 0.0000 0.0000 14.0035 0.0000 0.0000
# 5 0.0000 0.0000 0.0000 0.0000 14.0035 0.0000
# 6 0.0000 0.0000 0.0000 0.0000 0.0000 2.7166
#
#
#
# Elastic Compliance Matrix: (Units=1/GPa)
#
#
# Indices 1 2 3 4 5 6 
#
# 1 0.101495 -0.082558 -0.005123 0.000000 0.000000 0.000000
# 2 -0.082558 0.101495 -0.005123 0.000000 0.000000 0.000000
# 3 -0.005123 -0.005123 0.012713 0.000000 0.000000 0.000000
# 4 0.000000 0.000000 0.000000 0.071411 0.000000 0.000000
# 5 0.000000 0.000000 0.000000 0.000000 0.071411 0.000000
# 6 0.000000 0.000000 0.000000 0.000000 0.000000 0.368106
#
#
# Mechanical properties :
#
#
# Convention : Reuss Voigt Hill
#
# Bulk Modulus (GPa) = 33.22732 38.27655 35.75194
# Shear Modulus (GPa) = 5.42140 12.01661 8.71901
#
# Velocity S-wave (km/s) = 2.00965 2.99195 2.54857
# Velocity P-wave (km/s) = 5.48978 6.36002 5.94086
#
# Compressibility (1/GPa) = 0.03009572
#
# Stress axis : x y z
#
# Youngs Moduli (GPa) = 9.85270 9.85270 78.65664
#
# Poissons Ratio (x) = 0.81342 0.40295
# Poissons Ratio (y) = 0.81342 0.40295
# Poissons Ratio (z) = 0.05047 0.05047
#
# Static dielectric constant tensor:
#      x y z
#    x 1.461270 0.000000 0.000000 
#    y 0.000000 1.461270 0.000000 
#    z 0.000000 0.000000 1.502080 
# 
# From -- ./inp_files/432.got.cif
#   From: 2010.05.17/outbox.cif.g08.bks.cpg/sg152_1_cif.got.tgz:432.got - 2010.05.20 10:36:06.
