data_PCOD9575264
_publ_section_title
;
Structure prediction by ZEFSAII (Michael W. Deem and Ramdas Pophale) SiO2 
 PCOD9575264
Probable space group: R -3
;
_chemical_formula_sum "Si O2"
_cell_formula_units_Z 108
_cell_length_a 23.088864
_cell_length_b 23.088864
_cell_length_c 9.669622
_cell_angle_alpha 90.000000
_cell_angle_beta 90.000000
_cell_angle_gamma 120.000000
_cell_volume 4464.216622
_symmetry_space_group_name_H-M "R -3"
_symmetry_group_IT_number 148
_symmetry_cell_setting 'hexagonal'
loop_
_space_group_symop_operation_xyz
x,y,z
-y,x-y,z
-x+y,-x,z
-x,-y,-z
y,-x+y,-z
x-y,x,-z
2/3+x,1/3+y,1/3+z
2/3-y,1/3+x-y,1/3+z
2/3-x+y,1/3-x,1/3+z
2/3-x,1/3-y,1/3-z
2/3+y,1/3-x+y,1/3-z
2/3+x-y,1/3+x,1/3-z
1/3+x,2/3+y,2/3+z
1/3-y,2/3+x-y,2/3+z
1/3-x+y,2/3-x,2/3+z
1/3-x,2/3-y,2/3-z
1/3+y,2/3-x+y,2/3-z
1/3+x-y,2/3+x,2/3-z
loop_
_atom_site_type_symbol
_atom_site_label
_atom_site_fract_x
_atom_site_fract_y
_atom_site_fract_z
Si Si1 0.852217 0.351983 0.004535
Si Si2 0.332858 0.084260 0.330781
Si Si3 0.600963 0.360807 0.923977
Si Si4 0.526039 0.732345 0.913220
Si Si5 0.977410 0.604758 0.642922
Si Si6 0.416861 0.233466 0.395367
O O1 0.825884 0.387872 0.898509
O O2 0.796091 0.276384 0.042144
O O3 0.914290 0.342947 0.962425
O O4 0.870364 0.394099 0.144124
O O5 0.258001 0.070346 0.317097
O O6 0.361224 0.094941 0.173607
O O7 0.382117 0.153525 0.406061
O O8 0.337813 0.021451 0.382873
O O9 0.597781 0.284353 0.925420
O O10 0.542218 0.334338 0.040354
O O11 0.542506 0.739252 0.748675
O O12 0.022918 0.583027 0.728388
#
# Coordination Sequence:
#
# PCOD9575264 Si02
#       6
#    18  18  18  18  18  18
#     4  12  25  43  76 106 142 189 244 304 361 429
#     4  11  23  42  71 103 152 186 233 295 371 430
#     4  12  28  50  71  94 144 201 247 285 353 434
#     4  11  24  45  73 101 144 195 232 302 363 428
#     4  11  21  43  68 105 146 183 229 296 363 434
#     4  11  22  44  73 114 143 182 238 309 366 431
#
# _framework density 24.192373
#
# number of rings (size 3 to 8) (size 9 to 14) (size 15 to 20)
#    0.000    0.667    6.667    1.167    7.000    1.333 
#    3.000    0.833    0.000    2.000    0.000    0.000 
#    0.000    0.000    0.000    0.000    0.000    0.000 
#
# Total GULP energy -200528.956048 kJ/mol
# GULP energy per Si atom -5570.248779 kJ/mol
# Density = 2.413731 g / cm^3
# Si number density = 24.192373 Si / 1000 Ang^3
#
#
#
# Elastic Constant Matrix: (Units=GPa)
#
#
# Indices 1 2 3 4 5 6 
#
# 1 176.9214 74.3517 45.3473 -16.2126 3.4831 -0.0003
# 2 74.3517 176.9221 45.3484 16.2123 -3.4837 0.0000
# 3 45.3473 45.3484 68.2276 0.0000 -0.0004 -0.0002
# 4 -16.2126 16.2123 0.0000 28.0517 -0.0001 -3.4835
# 5 3.4831 -3.4837 -0.0004 -0.0001 28.0516 -16.2125
# 6 -0.0003 0.0000 -0.0002 -3.4835 -16.2125 51.2851
#
#
#
# Elastic Compliance Matrix: (Units=1/GPa)
#
#
# Indices 1 2 3 4 5 6 
#
# 1 0.008645 -0.003409 -0.003480 0.006966 -0.001497 0.000000
# 2 -0.003409 0.008645 -0.003480 -0.006966 0.001497 0.000000
# 3 -0.003480 -0.003480 0.019283 0.000000 0.000000 0.000000
# 4 0.006966 -0.006966 0.000000 0.044072 0.000000 0.002994
# 5 -0.001497 0.001497 0.000000 0.000000 0.044073 0.013932
# 6 0.000000 0.000000 0.000000 0.002994 0.013932 0.024107
#
#
# Mechanical properties :
#
#
# Convention : Reuss Voigt Hill
#
# Bulk Modulus (GPa) = 63.15358 83.57400 73.36379
# Shear Modulus (GPa) = 28.59770 38.61260 33.60515
#
# Velocity S-wave (km/s) = 3.44189 3.99941 3.73108
# Velocity P-wave (km/s) = 6.47742 7.47982 6.99659
#
# Compressibility (1/GPa) = 0.01583442
#
# Stress axis : x y z
#
# Youngs Moduli (GPa) = 115.68009 115.67970 51.85960
#
# Poissons Ratio (x) = 0.39432 0.18047
# Poissons Ratio (y) = 0.39432 0.18048
# Poissons Ratio (z) = 0.40256 0.40258
#
# Static dielectric constant tensor:
#      x y z
#    x 1.976880 0.000000 0.000000 
#    y 0.000000 1.976880 0.000020 
#    z 0.000000 0.000020 0.724020 
# 
# From -- ./inp_files/2061.got.cif
#   From: 2010.05.17/outbox.cif.g08.bks.cpg/sg148_2_cif.got.tgz:2061.got - 2010.05.20 13:50:20.
