data_PCOD9575926
_publ_section_title
;
Structure prediction by ZEFSAII (Michael W. Deem and Ramdas Pophale) SiO2 
 PCOD9575926
Probable space group: P 31 2 1
;
_chemical_formula_sum "Si O2"
_cell_formula_units_Z 42
_cell_length_a 14.446133
_cell_length_b 14.446133
_cell_length_c 11.510798
_cell_angle_alpha 90.000000
_cell_angle_beta 90.000000
_cell_angle_gamma 120.000000
_cell_volume 2080.363772
_symmetry_space_group_name_H-M "P 31 2 1"
_symmetry_group_IT_number 152
_symmetry_cell_setting 'hexagonal'
loop_
_space_group_symop_operation_xyz
x,y,z
-y,x-y,1/3+z
-x+y,-x,2/3+z
x-y,-y,2/3-z
-x,-x+y,1/3-z
y,x,-z
loop_
_atom_site_type_symbol
_atom_site_label
_atom_site_fract_x
_atom_site_fract_y
_atom_site_fract_z
Si Si1 0.135856 0.740674 0.302543
Si Si2 0.104653 0.534409 0.402785
Si Si3 0.554890 0.408117 0.774209
Si Si4 0.879486 0.487273 0.695093
Si Si5 0.217251 0.826674 0.547286
Si Si6 0.244505 0.365151 0.369798
Si Si7 0.032564 0.306111 0.299768
O O1 0.154184 0.640280 0.324864
O O2 0.198061 0.822916 0.408149
O O3 0.158140 0.778429 0.170332
O O4 0.007327 0.690866 0.309350
O O5 0.159466 0.565964 0.529600
O O6 0.087669 0.429423 0.340771
O O7 0.981979 0.502829 0.429280
O O8 0.678554 0.494516 0.755227
O O9 0.482641 0.310494 0.689435
O O10 0.548146 0.368718 0.906027
O O11 0.878197 0.592642 0.739219
O O12 0.000000 0.517099 0.666667
O O13 0.237385 0.931894 0.615611
O O14 0.131354 0.286411 0.311226
O O15 0.000000 0.298159 0.166667
#
# Coordination Sequence:
#
# PCOD9575926 Si02
#       7
#     6   6   6   6   6   6   6
#     4   9  20  39  62  81 117 161 208 248 301 376
#     4   8  18  33  54  77 109 150 184 236 296 344
#     4   9  18  33  52  76 115 143 189 234 290 353
#     4   9  17  35  55  76 108 150 191 234 293 356
#     4  10  21  36  56  86 113 157 200 252 296 358
#     4  10  21  38  59  87 115 165 199 248 315 371
#     4  11  23  35  57  89 121 156 200 258 313 368
#
# _framework density 20.188775
#
# number of rings (size 3 to 8) (size 9 to 14) (size 15 to 20)
#    0.000    2.571    0.000    1.714    8.000    0.571 
#    5.143    0.000    0.000    0.000   18.571    0.000 
#    0.000    0.000    0.000    0.000    0.000    0.000 
#
# Total GULP energy -233893.391463 kJ/mol
# GULP energy per Si atom -5568.890273 kJ/mol
# Density = 2.014282 g / cm^3
# Si number density = 20.188775 Si / 1000 Ang^3
#
#
#
# Elastic Constant Matrix: (Units=GPa)
#
#
# Indices 1 2 3 4 5 6 
#
# 1 45.4875 4.4003 31.8004 -4.5749 0.0001 0.0000
# 2 4.4003 45.4875 31.8004 4.5749 -0.0001 0.0000
# 3 31.8004 31.8004 130.4584 0.0000 0.0000 0.0000
# 4 -4.5749 4.5749 0.0000 25.6724 0.0000 -0.0001
# 5 0.0001 -0.0001 0.0000 0.0000 25.6724 -4.5749
# 6 0.0000 0.0000 0.0000 -0.0001 -4.5749 20.5436
#
#
#
# Elastic Compliance Matrix: (Units=1/GPa)
#
#
# Indices 1 2 3 4 5 6 
#
# 1 0.027214 0.001869 -0.007089 0.004516 0.000000 0.000000
# 2 0.001869 0.027214 -0.007089 -0.004516 0.000000 0.000000
# 3 -0.007089 -0.007089 0.011121 0.000000 0.000000 0.000000
# 4 0.004516 -0.004516 0.000000 0.040562 0.000000 0.000000
# 5 0.000000 0.000000 0.000000 0.000000 0.040562 0.009033
# 6 0.000000 0.000000 0.000000 0.000000 0.009033 0.050689
#
#
# Mechanical properties :
#
#
# Convention : Reuss Voigt Hill
#
# Bulk Modulus (GPa) = 24.43179 39.71504 32.07342
# Shear Modulus (GPa) = 21.22035 24.60649 22.91342
#
# Velocity S-wave (km/s) = 3.24558 3.49495 3.37257
# Velocity P-wave (km/s) = 5.11595 6.00006 5.57556
#
# Compressibility (1/GPa) = 0.04093027
#
# Stress axis : x y z
#
# Youngs Moduli (GPa) = 36.74637 36.74637 89.91688
#
# Poissons Ratio (x) = -0.06869 0.63744
# Poissons Ratio (y) = -0.06869 0.63744
# Poissons Ratio (z) = 0.26050 0.26050
#
# Static dielectric constant tensor:
#      x y z
#    x 1.770480 0.000000 0.000000 
#    y 0.000000 1.770480 0.000000 
#    z 0.000000 0.000000 1.769260 
# 
# From -- ./inp_files/1828.got.cif
#   From: 2010.05.17/outbox.cif.g08.bks.cpg/sg152_1_cif.got.tgz:1828.got - 2010.05.20 10:36:06.
