data_PCOD9575273
_publ_section_title
;
Structure prediction by ZEFSAII (Michael W. Deem and Ramdas Pophale) SiO2 
 PCOD9575273
Probable space group: R -3
;
_chemical_formula_sum "Si O2"
_cell_formula_units_Z 72
_cell_length_a 14.113017
_cell_length_b 14.113017
_cell_length_c 17.263143
_cell_angle_alpha 90.000000
_cell_angle_beta 90.000000
_cell_angle_gamma 120.000000
_cell_volume 2977.763684
_symmetry_space_group_name_H-M "R -3"
_symmetry_group_IT_number 148
_symmetry_cell_setting 'hexagonal'
loop_
_space_group_symop_operation_xyz
x,y,z
-y,x-y,z
-x+y,-x,z
-x,-y,-z
y,-x+y,-z
x-y,x,-z
2/3+x,1/3+y,1/3+z
2/3-y,1/3+x-y,1/3+z
2/3-x+y,1/3-x,1/3+z
2/3-x,1/3-y,1/3-z
2/3+y,1/3-x+y,1/3-z
2/3+x-y,1/3+x,1/3-z
1/3+x,2/3+y,2/3+z
1/3-y,2/3+x-y,2/3+z
1/3-x+y,2/3-x,2/3+z
1/3-x,2/3-y,2/3-z
1/3+y,2/3-x+y,2/3-z
1/3+x-y,2/3+x,2/3-z
loop_
_atom_site_type_symbol
_atom_site_label
_atom_site_fract_x
_atom_site_fract_y
_atom_site_fract_z
Si Si1 0.781963 0.037500 0.895220
Si Si2 0.351928 0.091796 0.846670
Si Si3 0.473285 0.453438 0.394104
Si Si4 0.912962 0.055878 0.363632
O O1 0.861096 0.131355 0.836446
O O2 0.667605 0.039060 0.894334
O O3 0.752379 0.913878 0.886362
O O4 0.831526 0.081001 0.979342
O O5 0.456633 0.185580 0.891694
O O6 0.295142 0.985405 0.902616
O O7 0.456857 0.554740 0.369277
O O8 0.045470 0.115997 0.360268
#
# Coordination Sequence:
#
# PCOD9575273 Si02
#       4
#    18  18  18  18
#     4  11  24  44  72 103 143 188 238 293 355 428
#     4  11  25  42  72 103 141 186 242 294 352 426
#     4  11  22  47  69 101 145 188 238 294 364 420
#     4   9  22  41  66 100 137 179 238 288 352 420
#
# _framework density 24.179217000000001
#
# number of rings (size 3 to 8) (size 9 to 14) (size 15 to 20)
#    0.500    1.000    5.000    0.750    7.000    3.000 
#    1.500    6.250    0.000    0.000    0.000    0.000 
#    0.000    0.000    0.000    0.000    0.000    0.000 
#
# Total GULP energy -133890.952145 kJ/mol
# GULP energy per Si atom -5578.789673 kJ/mol
# Density = 2.412418 g / cm^3
# Si number density = 24.179217 Si / 1000 Ang^3
#
#
#
# Elastic Constant Matrix: (Units=GPa)
#
#
# Indices 1 2 3 4 5 6 
#
# 1 124.1617 41.4132 19.7814 12.9768 -9.8675 0.0000
# 2 41.4132 124.1617 19.7814 -12.9768 9.8675 0.0000
# 3 19.7814 19.7814 30.8620 0.0000 0.0000 0.0000
# 4 12.9768 -12.9768 0.0000 38.0254 0.0000 9.8675
# 5 -9.8675 9.8675 0.0000 0.0000 38.0254 12.9768
# 6 0.0000 0.0000 0.0000 9.8675 12.9768 41.3743
#
#
#
# Elastic Compliance Matrix: (Units=1/GPa)
#
#
# Indices 1 2 3 4 5 6 
#
# 1 0.010837 -0.003705 -0.004571 -0.004962 0.003773 0.000000
# 2 -0.003705 0.010837 -0.004571 0.004962 -0.003773 0.000000
# 3 -0.004571 -0.004571 0.038262 0.000000 0.000000 0.000000
# 4 -0.004962 0.004962 0.000000 0.031644 0.000000 -0.007547
# 5 0.003773 -0.003773 0.000000 0.000000 0.031644 -0.009925
# 6 0.000000 0.000000 0.000000 -0.007547 -0.009925 0.029082
#
#
# Mechanical properties :
#
#
# Convention : Reuss Voigt Hill
#
# Bulk Modulus (GPa) = 29.20474 49.01526 39.11000
# Shear Modulus (GPa) = 26.39733 36.69897 31.54815
#
# Velocity S-wave (km/s) = 3.30773 3.90011 3.61607
# Velocity P-wave (km/s) = 5.16650 6.37156 5.80041
#
# Compressibility (1/GPa) = 0.03424102
#
# Stress axis : x y z
#
# Youngs Moduli (GPa) = 92.28065 92.28065 26.13538
#
# Poissons Ratio (x) = 0.34187 0.11947
# Poissons Ratio (y) = 0.34187 0.11947
# Poissons Ratio (z) = 0.42184 0.42184
#
# Static dielectric constant tensor:
#      x y z
#    x 1.969940 0.000000 0.000000 
#    y 0.000000 1.969940 0.000000 
#    z 0.000000 0.000000 1.965180 
# 
# From -- ./inp_files/2552.got.cif
#   From: 2010.05.17/outbox.cif.g08.bks.cpg/sg148_2_cif.got.tgz:2552.got - 2010.05.20 13:50:20.
