data_PCOD9575390
_publ_section_title
;
Structure prediction by ZEFSAII (Michael W. Deem and Ramdas Pophale) SiO2 
 PCOD9575390
Probable space group: P 3 1 2
;
_chemical_formula_sum "Si O2"
_cell_formula_units_Z 42
_cell_length_a 13.933816
_cell_length_b 13.933816
_cell_length_c 13.079920
_cell_angle_alpha 90.000000
_cell_angle_beta 90.000000
_cell_angle_gamma 120.000000
_cell_volume 2199.256387
_symmetry_space_group_name_H-M "P 3 1 2"
_symmetry_group_IT_number 149
_symmetry_cell_setting 'hexagonal'
loop_
_space_group_symop_operation_xyz
x,y,z
-y,x-y,z
-x+y,-x,z
-y,-x,-z
-x+y,y,-z
x,x-y,-z
loop_
_atom_site_type_symbol
_atom_site_label
_atom_site_fract_x
_atom_site_fract_y
_atom_site_fract_z
Si Si1 0.207540 0.013223 0.709786
Si Si2 0.887693 0.554571 0.970824
Si Si3 0.398904 0.403619 0.536264
Si Si4 0.471927 0.359593 0.733738
Si Si5 0.687493 0.549477 0.657129
Si Si6 0.026267 0.832071 0.586746
Si Si7 0.000914 0.205342 0.948795
O O1 0.332917 0.041308 0.695840
O O2 0.196771 0.106921 0.641819
O O3 0.187453 0.012872 0.829595
O O4 0.119029 0.891699 0.672358
O O5 0.901434 0.570749 0.848185
O O6 0.763787 0.527574 0.000000
O O7 0.903799 0.451900 0.000000
O O8 0.969513 0.669182 0.027772
O O9 0.466435 0.533566 0.500000
O O10 0.420010 0.411204 0.657755
O O11 0.456643 0.354566 0.458683
O O12 0.271286 0.302334 0.535363
O O13 0.601154 0.449398 0.727477
O O14 0.449911 0.250784 0.672519
O O15 0.072796 0.927205 0.500000
O O16 0.904919 0.095082 0.000000
O O17 0.116535 0.233070 0.000000
#
# Coordination Sequence:
#
# PCOD9575390 Si02
#       7
#     6   6   6   6   6   6   6
#     4  12  24  39  63  89 127 168 210 258 311 369
#     4  11  23  39  61  91 124 162 209 258 309 373
#     4  10  23  39  60  86 122 159 201 252 306 380
#     4  11  21  35  61  82 125 161 191 243 308 359
#     4  11  21  38  57  94 123 158 200 242 306 387
#     4  12  24  40  62  91 127 166 208 256 315 377
#     4  11  24  41  61  89 128 169 219 262 310 365
#
# _framework density 19.097366000000001
#
# number of rings (size 3 to 8) (size 9 to 14) (size 15 to 20)
#    0.000    0.857    2.857    6.000    2.000    0.000 
#    0.000    1.429    0.000    0.571    0.000    0.000 
#    4.286    0.000    0.000    0.000    0.000    0.000 
#
# Total GULP energy -233937.607927 kJ/mol
# GULP energy per Si atom -5569.943046 kJ/mol
# Density = 1.905390 g / cm^3
# Si number density = 19.097366 Si / 1000 Ang^3
#
#
#
# Elastic Constant Matrix: (Units=GPa)
#
#
# Indices 1 2 3 4 5 6 
#
# 1 88.5541 45.8331 20.8215 -0.0002 -2.5662 0.0000
# 2 45.8331 88.5541 20.8215 0.0002 2.5662 0.0000
# 3 20.8215 20.8215 137.6479 0.0000 0.0000 0.0000
# 4 -0.0002 0.0002 0.0000 22.3600 0.0000 2.5662
# 5 -2.5662 2.5662 0.0000 0.0000 22.3600 -0.0002
# 6 0.0000 0.0000 0.0000 2.5662 -0.0002 21.3605
#
#
#
# Elastic Compliance Matrix: (Units=1/GPa)
#
#
# Indices 1 2 3 4 5 6 
#
# 1 0.015771 -0.007964 -0.001181 0.000000 0.002724 0.000000
# 2 -0.007964 0.015771 -0.001181 0.000000 -0.002724 0.000000
# 3 -0.001181 -0.001181 0.007622 0.000000 0.000000 0.000000
# 4 0.000000 0.000000 0.000000 0.045348 0.000000 -0.005448
# 5 0.002724 -0.002724 0.000000 0.000000 0.045348 0.000000
# 6 0.000000 0.000000 0.000000 -0.005448 0.000000 0.047470
#
#
# Mechanical properties :
#
#
# Convention : Reuss Voigt Hill
#
# Bulk Modulus (GPa) = 54.01717 54.41202 54.21459
# Shear Modulus (GPa) = 24.49145 28.36808 26.42977
#
# Velocity S-wave (km/s) = 3.58502 3.85833 3.72418
# Velocity P-wave (km/s) = 6.74411 6.95720 6.85149
#
# Compressibility (1/GPa) = 0.01851263
#
# Stress axis : x y z
#
# Youngs Moduli (GPa) = 63.40735 63.40735 131.19588
#
# Poissons Ratio (x) = 0.50497 0.15494
# Poissons Ratio (y) = 0.50497 0.15494
# Poissons Ratio (z) = 0.07488 0.07488
#
# Static dielectric constant tensor:
#      x y z
#    x 1.726070 0.000000 0.000000 
#    y 0.000000 1.726070 0.000000 
#    z 0.000000 0.000000 1.731000 
# 
# From -- ./inp_files/922.got.cif
#   From: 2010.05.17/outbox.cif.g08.bks.cpg/sg149_cif.got.tgz:922.got - 2010.05.20 13:52:34.
