data_PCOD9575046
_publ_section_title
;
Structure prediction by ZEFSAII (Michael W. Deem and Ramdas Pophale) SiO2 
 PCOD9575046
Probable space group: R -3
;
_chemical_formula_sum "Si O2"
_cell_formula_units_Z 54
_cell_length_a 12.968848
_cell_length_b 12.968848
_cell_length_c 16.541541
_cell_angle_alpha 90.000000
_cell_angle_beta 90.000000
_cell_angle_gamma 120.000000
_cell_volume 2409.402728
_symmetry_space_group_name_H-M "R -3"
_symmetry_group_IT_number 148
_symmetry_cell_setting 'hexagonal'
loop_
_space_group_symop_operation_xyz
x,y,z
-y,x-y,z
-x+y,-x,z
-x,-y,-z
y,-x+y,-z
x-y,x,-z
2/3+x,1/3+y,1/3+z
2/3-y,1/3+x-y,1/3+z
2/3-x+y,1/3-x,1/3+z
2/3-x,1/3-y,1/3-z
2/3+y,1/3-x+y,1/3-z
2/3+x-y,1/3+x,1/3-z
1/3+x,2/3+y,2/3+z
1/3-y,2/3+x-y,2/3+z
1/3-x+y,2/3-x,2/3+z
1/3-x,2/3-y,2/3-z
1/3+y,2/3-x+y,2/3-z
1/3+x-y,2/3+x,2/3-z
loop_
_atom_site_type_symbol
_atom_site_label
_atom_site_fract_x
_atom_site_fract_y
_atom_site_fract_z
Si Si1 0.223020 0.200956 0.309410
Si Si2 0.603374 0.505672 0.799642
Si Si3 0.658747 0.096276 0.081416
O O1 0.222228 0.125725 0.387710
O O2 0.309173 0.334575 0.343485
O O3 0.102832 0.195608 0.277588
O O4 0.252336 0.125153 0.245951
O O5 0.739415 0.540654 0.798365
O O6 0.590433 0.614179 0.834090
#
# Coordination Sequence:
#
# PCOD9575046 Si02
#       3
#    18  18  18
#     4  10  19  36  55  82 114 143 183 230 276 327
#     4  10  19  32  54  85 113 144 183 228 280 327
#     4  10  21  35  58  83 111 145 182 233 284 327
#
# _framework density 22.412192000000001
#
# number of rings (size 3 to 8) (size 9 to 14) (size 15 to 20)
#    0.000    2.000    0.000    7.000    0.000    2.667 
#    0.000   15.000    0.000    0.667    0.000    0.000 
#    0.000    0.000    0.000    0.000    0.000    0.000 
#
# Total GULP energy -100296.902480 kJ/mol
# GULP energy per Si atom -5572.050138 kJ/mol
# Density = 2.236118 g / cm^3
# Si number density = 22.412192 Si / 1000 Ang^3
#
#
#
# Elastic Constant Matrix: (Units=GPa)
#
#
# Indices 1 2 3 4 5 6 
#
# 1 140.3231 64.2294 19.1362 4.6734 -2.0943 0.0000
# 2 64.2294 140.3231 19.1362 -4.6734 2.0943 0.0000
# 3 19.1362 19.1362 72.5580 0.0000 0.0000 0.0000
# 4 4.6734 -4.6734 0.0000 14.7752 0.0000 2.0943
# 5 -2.0943 2.0943 0.0000 0.0000 14.7752 4.6734
# 6 0.0000 0.0000 0.0000 2.0943 4.6734 38.0469
#
#
#
# Elastic Compliance Matrix: (Units=1/GPa)
#
#
# Indices 1 2 3 4 5 6 
#
# 1 0.009464 -0.004321 -0.001356 -0.004360 0.001954 0.000000
# 2 -0.004321 0.009464 -0.001356 0.004360 -0.001954 0.000000
# 3 -0.001356 -0.001356 0.014497 0.000000 0.000000 0.000000
# 4 -0.004360 0.004360 0.000000 0.070993 0.000000 -0.003908
# 5 0.001954 -0.001954 0.000000 0.000000 0.070993 -0.008720
# 6 0.000000 0.000000 0.000000 -0.003908 -0.008720 0.027570
#
#
# Mechanical properties :
#
#
# Convention : Reuss Voigt Hill
#
# Bulk Modulus (GPa) = 51.65984 62.02306 56.84145
# Shear Modulus (GPa) = 22.37133 30.23297 26.30215
#
# Velocity S-wave (km/s) = 3.16282 3.67679 3.42945
# Velocity P-wave (km/s) = 6.03638 6.76454 6.41080
#
# Compressibility (1/GPa) = 0.01935739
#
# Stress axis : x y z
#
# Youngs Moduli (GPa) = 105.66752 105.66752 68.97760
#
# Poissons Ratio (x) = 0.45661 0.09355
# Poissons Ratio (y) = 0.45661 0.09355
# Poissons Ratio (z) = 0.14331 0.14331
#
# Static dielectric constant tensor:
#      x y z
#    x 1.862050 0.000000 0.000000 
#    y 0.000000 1.862050 0.000000 
#    z 0.000000 0.000000 1.998630 
# 
# From -- ./inp_files/2437.got.cif
#   From: 2010.05.17/outbox.cif.g08.bks.cpg/sg148_2_cif.got.tgz:2437.got - 2010.05.20 13:50:20.
