data_PCOD9575291
_publ_section_title
;
Structure prediction by ZEFSAII (Michael W. Deem and Ramdas Pophale) SiO2 
 PCOD9575291
Probable space group: R -3
;
_chemical_formula_sum "Si O2"
_cell_formula_units_Z 36
_cell_length_a 16.586969
_cell_length_b 16.586969
_cell_length_c 5.787689
_cell_angle_alpha 90.000000
_cell_angle_beta 90.000000
_cell_angle_gamma 120.000000
_cell_volume 1379.017838
_symmetry_space_group_name_H-M "R -3"
_symmetry_group_IT_number 148
_symmetry_cell_setting 'hexagonal'
loop_
_space_group_symop_operation_xyz
x,y,z
-y,x-y,z
-x+y,-x,z
-x,-y,-z
y,-x+y,-z
x-y,x,-z
2/3+x,1/3+y,1/3+z
2/3-y,1/3+x-y,1/3+z
2/3-x+y,1/3-x,1/3+z
2/3-x,1/3-y,1/3-z
2/3+y,1/3-x+y,1/3-z
2/3+x-y,1/3+x,1/3-z
1/3+x,2/3+y,2/3+z
1/3-y,2/3+x-y,2/3+z
1/3-x+y,2/3-x,2/3+z
1/3-x,2/3-y,2/3-z
1/3+y,2/3-x+y,2/3-z
1/3+x-y,2/3+x,2/3-z
loop_
_atom_site_type_symbol
_atom_site_label
_atom_site_fract_x
_atom_site_fract_y
_atom_site_fract_z
Si Si1 0.959598 0.390795 0.874563
Si Si2 0.802185 0.893388 0.093636
O O1 0.933008 0.296638 0.745953
O O2 0.030479 0.476648 0.714950
O O3 0.876898 0.397413 0.998590
O O4 0.865698 0.845449 0.083336
#
# Coordination Sequence:
#
# PCOD9575291 Si02
#       2
#    18  18
#     4  11  24  46  76 101 140 198 240 279 340 446
#     4  11  25  45  73 109 147 180 233 303 357 412
#
# _framework density 26.105537000000002
#
# number of rings (size 3 to 8) (size 9 to 14) (size 15 to 20)
#    0.000    1.000    5.000    0.500    0.000   12.000 
#    0.000    2.500    0.000    0.000    0.000    0.000 
#    0.000    0.000    0.000    0.000    0.000    0.000 
#
# Total GULP energy -67084.641716 kJ/mol
# GULP energy per Si atom -5590.386810 kJ/mol
# Density = 2.604612 g / cm^3
# Si number density = 26.105537 Si / 1000 Ang^3
#
#
#
# Elastic Constant Matrix: (Units=GPa)
#
#
# Indices 1 2 3 4 5 6 
#
# 1 146.3227 56.3202 50.5298 13.8658 1.6190 0.0006
# 2 56.3202 146.3194 50.5237 -13.8659 -1.6239 0.0002
# 3 50.5298 50.5237 57.2157 -0.0044 -0.0162 0.0003
# 4 13.8658 -13.8659 -0.0044 38.3734 -0.0064 -1.6179
# 5 1.6190 -1.6239 -0.0162 -0.0064 38.3604 13.8635
# 6 0.0006 0.0002 0.0003 -1.6179 13.8635 45.0005
#
#
#
# Elastic Compliance Matrix: (Units=1/GPa)
#
#
# Indices 1 2 3 4 5 6 
#
# 1 0.010672 -0.001853 -0.007789 -0.004527 -0.000533 0.000002
# 2 -0.001853 0.010671 -0.007785 0.004525 0.000527 0.000000
# 3 -0.007789 -0.007785 0.031231 0.000005 0.000014 -0.000004
# 4 -0.004527 0.004525 0.000005 0.029375 0.000007 0.001054
# 5 -0.000533 0.000527 0.000014 0.000007 0.029385 -0.009053
# 6 0.000002 0.000000 -0.000004 0.001054 -0.009053 0.025049
#
#
# Mechanical properties :
#
#
# Convention : Reuss Voigt Hill
#
# Bulk Modulus (GPa) = 56.43735 73.84502 65.14119
# Shear Modulus (GPa) = 28.22553 37.17913 32.70233
#
# Velocity S-wave (km/s) = 3.29174 3.77793 3.54319
# Velocity P-wave (km/s) = 6.00943 6.88323 6.46112
#
# Compressibility (1/GPa) = 0.01771876
#
# Stress axis : x y z
#
# Youngs Moduli (GPa) = 93.70107 93.71559 32.01899
#
# Poissons Ratio (x) = 0.17368 0.24940
# Poissons Ratio (y) = 0.17365 0.24928
# Poissons Ratio (z) = 0.72985 0.72961
#
# Static dielectric constant tensor:
#      x y z
#    x 2.053720 0.000000 0.000000 
#    y 0.000000 2.053720 0.000000 
#    z 0.000000 0.000000 2.169540 
# 
# From -- ./inp_files/138.got.cif
#   From: 2010.05.17/outbox.cif.g08.bks.cpg/sg148_1_cif.got.tgz:138.got - 2010.05.20 13:50:20.
