data_PCOD9575711
_publ_section_title
;
Structure prediction by ZEFSAII (Michael W. Deem and Ramdas Pophale) SiO2 
 PCOD9575711
Probable space group: P 31 2 1
;
_chemical_formula_sum "Si O2"
_cell_formula_units_Z 39
_cell_length_a 8.740954
_cell_length_b 8.740954
_cell_length_c 24.344633
_cell_angle_alpha 90.000000
_cell_angle_beta 90.000000
_cell_angle_gamma 120.000000
_cell_volume 1610.836764
_symmetry_space_group_name_H-M "P 31 2 1"
_symmetry_group_IT_number 152
_symmetry_cell_setting 'hexagonal'
loop_
_space_group_symop_operation_xyz
x,y,z
-y,x-y,1/3+z
-x+y,-x,2/3+z
x-y,-y,2/3-z
-x,-x+y,1/3-z
y,x,-z
loop_
_atom_site_type_symbol
_atom_site_label
_atom_site_fract_x
_atom_site_fract_y
_atom_site_fract_z
Si Si1 0.360072 0.000000 0.333334
Si Si2 0.867577 0.485184 0.293816
Si Si3 0.881824 0.851117 0.290083
Si Si4 0.487338 0.760556 0.904447
Si Si5 0.357597 0.875875 0.584162
Si Si6 0.163116 0.985526 0.199416
Si Si7 0.719205 0.220549 0.576724
O O1 0.477395 0.110842 0.386849
O O2 0.399824 0.178789 0.299897
O O3 0.842544 0.655188 0.307273
O O4 0.854629 0.387969 0.350744
O O5 0.706484 0.343898 0.255652
O O6 0.060318 0.573986 0.265611
O O7 0.717876 0.804055 0.250234
O O8 0.071211 0.937076 0.260130
O O9 0.908623 0.000000 0.333334
O O10 0.290325 0.633155 0.886347
O O11 0.630319 0.814854 0.856149
O O12 0.536535 0.045213 0.567027
O O13 0.000000 0.974682 0.166667
O O14 0.358327 0.148040 0.200000
#
# Coordination Sequence:
#
# PCOD9575711 Si02
#       7
#     3   6   6   6   6   6   6
#     4  10  16  30  50  84 112 154 178 220 272 344
#     4  10  18  33  53  86 118 151 184 230 299 349
#     4  10  22  34  59  87 118 148 196 243 292 355
#     4  10  20  32  58  81 120 148 191 233 295 352
#     4  11  19  33  54  94 122 144 185 248 302 346
#     4  10  23  42  58  77 111 160 204 242 297 356
#     4  10  20  33  57  80 115 156 191 232 290 349
#
# _framework density 24.211019
#
# number of rings (size 3 to 8) (size 9 to 14) (size 15 to 20)
#    0.000    1.846    3.077    1.846    8.615    0.000 
#    0.000    5.385    0.000    0.000    0.000    0.000 
#    0.000    0.000    0.000    0.000    0.000    0.000 
#
# Total GULP energy -217158.787890 kJ/mol
# GULP energy per Si atom -5568.174048 kJ/mol
# Density = 2.415591 g / cm^3
# Si number density = 24.211019 Si / 1000 Ang^3
#
#
#
# Elastic Constant Matrix: (Units=GPa)
#
#
# Indices 1 2 3 4 5 6 
#
# 1 124.1849 57.1604 19.5053 -9.4075 0.0000 0.0000
# 2 57.1604 124.1849 19.5053 9.4075 0.0000 0.0000
# 3 19.5053 19.5053 41.4799 0.0000 0.0000 0.0000
# 4 -9.4075 9.4075 0.0000 9.4098 0.0000 0.0000
# 5 0.0000 0.0000 0.0000 0.0000 9.4098 -9.4075
# 6 0.0000 0.0000 0.0000 0.0000 -9.4075 33.5123
#
#
#
# Elastic Compliance Matrix: (Units=1/GPa)
#
#
# Indices 1 2 3 4 5 6 
#
# 1 0.013438 -0.007303 -0.002885 0.020736 0.000000 0.000000
# 2 -0.007303 0.013438 -0.002885 -0.020736 0.000000 0.000000
# 3 -0.002885 -0.002885 0.026821 0.000000 0.000000 0.000000
# 4 0.020736 -0.020736 0.000000 0.147734 0.000000 0.000000
# 5 0.000000 0.000000 0.000000 0.000000 0.147734 0.041472
# 6 0.000000 0.000000 0.000000 0.000000 0.041472 0.041482
#
#
# Mechanical properties :
#
#
# Convention : Reuss Voigt Hill
#
# Bulk Modulus (GPa) = 36.29553 53.57686 44.93620
# Shear Modulus (GPa) = 11.73776 23.37828 17.55802
#
# Velocity S-wave (km/s) = 2.20423 3.11079 2.69589
# Velocity P-wave (km/s) = 4.63703 5.92282 5.31892
#
# Compressibility (1/GPa) = 0.02755160
#
# Stress axis : x y z
#
# Youngs Moduli (GPa) = 74.41651 74.41651 37.28394
#
# Poissons Ratio (x) = 0.54346 0.10756
# Poissons Ratio (y) = 0.54346 0.10756
# Poissons Ratio (z) = 0.21468 0.21468
#
# Static dielectric constant tensor:
#      x y z
#    x 1.972320 0.000000 0.000000 
#    y 0.000000 1.972320 0.000000 
#    z 0.000000 0.000000 2.095030 
# 
# From -- ./inp_files/3659.got.cif
#   From: 2010.05.17/outbox.cif.g08.bks.cpg/sg152_2_cif.got.tgz:3659.got - 2010.05.20 10:36:06.
