data_PCOD9575905
_publ_section_title
;
Structure prediction by ZEFSAII (Michael W. Deem and Ramdas Pophale) SiO2 
 PCOD9575905
Probable space group: P 31 2 1
;
_chemical_formula_sum "Si O2"
_cell_formula_units_Z 36
_cell_length_a 9.182981
_cell_length_b 9.182981
_cell_length_c 24.415476
_cell_angle_alpha 90.000000
_cell_angle_beta 90.000000
_cell_angle_gamma 120.000000
_cell_volume 1783.048674
_symmetry_space_group_name_H-M "P 31 2 1"
_symmetry_group_IT_number 152
_symmetry_cell_setting 'hexagonal'
loop_
_space_group_symop_operation_xyz
x,y,z
-y,x-y,1/3+z
-x+y,-x,2/3+z
x-y,-y,2/3-z
-x,-x+y,1/3-z
y,x,-z
loop_
_atom_site_type_symbol
_atom_site_label
_atom_site_fract_x
_atom_site_fract_y
_atom_site_fract_z
Si Si1 0.859644 0.311002 0.712301
Si Si2 0.243284 0.446570 0.505814
Si Si3 0.718325 0.568456 0.536599
Si Si4 0.701427 0.636345 0.270535
Si Si5 0.262670 0.315561 0.938696
Si Si6 0.962544 0.532563 0.308352
O O1 0.873270 0.260856 0.774364
O O2 0.859417 0.484350 0.719375
O O3 0.685127 0.152591 0.694511
O O4 0.000000 0.346172 0.666667
O O5 0.324613 0.324613 0.500000
O O6 0.406368 0.635080 0.503989
O O7 0.141034 0.448938 0.453577
O O8 0.708576 0.708576 0.500000
O O9 0.589640 0.508366 0.588797
O O10 0.898381 0.635771 0.564013
O O11 0.752857 0.825102 0.254776
O O12 0.530871 0.566304 0.304860
O O13 0.835571 0.606511 0.305124
O O14 0.246276 0.246276 0.000000
#
# Coordination Sequence:
#
# PCOD9575905 Si02
#       6
#     6   6   6   6   6   6
#     4  11  24  43  70 100 142 175 234 292 356 411
#     4  10  21  45  70  97 135 186 232 290 348 424
#     4  10  20  43  72  89 130 189 231 275 355 430
#     4  11  23  41  71  97 138 176 239 282 352 418
#     4  11  24  41  63 101 139 173 228 299 345 413
#     4  11  22  44  71  95 133 192 228 283 354 432
#
# _framework density 20.190138000000001
#
# number of rings (size 3 to 8) (size 9 to 14) (size 15 to 20)
#    0.000    1.333    6.667    1.000    7.000    2.667 
#    3.000    0.000    0.000    0.000    0.000    0.000 
#    0.000    0.000    0.000    0.000    0.000    0.000 
#
# Total GULP energy -200576.793517 kJ/mol
# GULP energy per Si atom -5571.577598 kJ/mol
# Density = 2.014418 g / cm^3
# Si number density = 20.190138 Si / 1000 Ang^3
#
#
#
# Elastic Constant Matrix: (Units=GPa)
#
#
# Indices 1 2 3 4 5 6 
#
# 1 82.6351 60.4451 25.4844 2.1686 0.0016 0.0000
# 2 60.4451 82.6351 25.4844 -2.1686 -0.0016 0.0000
# 3 25.4844 25.4844 99.9388 0.0000 0.0000 0.0000
# 4 2.1686 -2.1686 0.0000 19.4820 0.0000 -0.0016
# 5 0.0016 -0.0016 0.0000 0.0000 19.4820 2.1686
# 6 0.0000 0.0000 0.0000 -0.0016 2.1686 11.0950
#
#
#
# Elastic Compliance Matrix: (Units=1/GPa)
#
#
# Indices 1 2 3 4 5 6 
#
# 1 0.026878 -0.019190 -0.001960 -0.005128 -0.000004 0.000000
# 2 -0.019190 0.026878 -0.001960 0.005128 0.000004 0.000000
# 3 -0.001960 -0.001960 0.011006 0.000000 0.000000 0.000000
# 4 -0.005128 0.005128 0.000000 0.052471 0.000000 0.000007
# 5 -0.000004 0.000004 0.000000 0.000000 0.052471 -0.010256
# 6 0.000000 0.000000 0.000000 0.000007 -0.010256 0.092135
#
#
# Mechanical properties :
#
#
# Convention : Reuss Voigt Hill
#
# Bulk Modulus (GPa) = 53.93887 54.22633 54.08260
# Shear Modulus (GPa) = 15.91139 20.26477 18.08808
#
# Velocity S-wave (km/s) = 2.81032 3.17155 2.99638
# Velocity P-wave (km/s) = 6.10770 6.35042 6.23024
#
# Compressibility (1/GPa) = 0.01853950
#
# Stress axis : x y z
#
# Youngs Moduli (GPa) = 37.20574 37.20574 90.86052
#
# Poissons Ratio (x) = 0.71398 0.17811
# Poissons Ratio (y) = 0.71398 0.17811
# Poissons Ratio (z) = 0.07293 0.07293
#
# Static dielectric constant tensor:
#      x y z
#    x 1.778580 0.000000 0.000000 
#    y 0.000000 1.778580 0.000000 
#    z 0.000000 0.000000 1.826220 
# 
# From -- ./inp_files/3395.got.cif
#   From: 2010.05.17/outbox.cif.g08.bks.cpg/sg152_2_cif.got.tgz:3395.got - 2010.05.20 10:36:06.
