data_PCOD9575374
_publ_section_title
;
Structure prediction by ZEFSAII (Michael W. Deem and Ramdas Pophale) SiO2 
 PCOD9575374
Probable space group: P 3 1 2
;
_chemical_formula_sum "Si O2"
_cell_formula_units_Z 28
_cell_length_a 14.761636
_cell_length_b 14.761636
_cell_length_c 8.670646
_cell_angle_alpha 90.000000
_cell_angle_beta 90.000000
_cell_angle_gamma 120.000000
_cell_volume 1636.255319
_symmetry_space_group_name_H-M "P 3 1 2"
_symmetry_group_IT_number 149
_symmetry_cell_setting 'hexagonal'
loop_
_space_group_symop_operation_xyz
x,y,z
-y,x-y,z
-x+y,-x,z
-y,-x,-z
-x+y,y,-z
x,x-y,-z
loop_
_atom_site_type_symbol
_atom_site_label
_atom_site_fract_x
_atom_site_fract_y
_atom_site_fract_z
Si Si1 0.435609 0.893755 0.682787
Si Si2 0.285514 0.938631 0.177311
Si Si3 0.669450 0.732828 0.805111
Si Si4 0.000000 0.000000 0.682617
Si Si5 0.897617 0.776953 0.815119
Si Si6 0.333333 0.666667 0.816239
O O1 0.444467 0.888933 0.500000
O O2 0.548518 0.932826 0.759246
O O3 0.371794 0.951398 0.726410
O O4 0.362463 0.778728 0.752354
O O5 0.175518 0.837049 0.231570
O O6 0.290835 0.047454 0.222079
O O7 0.281793 0.934828 0.990493
O O8 0.782014 0.747197 0.761112
O O9 0.000000 0.000000 0.500000
O O10 0.977149 0.890104 0.748646
O O11 0.892241 0.784481 0.000000
O O12 0.333334 0.666667 0.000000
#
# Coordination Sequence:
#
# PCOD9575374 Si02
#       6
#     6   6   6   2   6   2
#     4  12  24  36  53  80 117 150 182 223 276 335
#     4  10  20  35  59  83 109 145 186 229 273 322
#     4  10  20  35  59  83 109 145 186 229 273 322
#     4  12  22  29  49  84 121 152 178 219 268 332
#     4  10  20  38  59  80 109 148 190 229 268 321
#     4  12  22  35  55  78 109 146 190 231 268 320
#
# _framework density 17.112244
#
# number of rings (size 3 to 8) (size 9 to 14) (size 15 to 20)
#    0.000    1.286    4.286    3.214    0.000    1.714 
#    0.000    0.000    0.000    0.857    0.000    3.000 
#    0.000    0.000    0.000    0.000    0.000    0.000 
#
# Total GULP energy -156241.664035 kJ/mol
# GULP energy per Si atom -5580.059430 kJ/mol
# Density = 1.707330 g / cm^3
# Si number density = 17.112244 Si / 1000 Ang^3
#
#
#
# Elastic Constant Matrix: (Units=GPa)
#
#
# Indices 1 2 3 4 5 6 
#
# 1 92.6467 25.2921 16.7230 -0.0003 -6.1648 -0.0001
# 2 25.2921 92.6472 16.7228 0.0006 6.1649 0.0003
# 3 16.7230 16.7228 12.0508 -0.0005 -0.0004 -0.0002
# 4 -0.0003 0.0006 -0.0005 1.6171 0.0011 6.1660
# 5 -6.1648 6.1649 -0.0004 0.0011 1.6141 0.0007
# 6 -0.0001 0.0003 -0.0002 6.1660 0.0007 33.6776
#
#
#
# Elastic Compliance Matrix: (Units=1/GPa)
#
#
# Indices 1 2 3 4 5 6 
#
# 1 0.031662 -0.017684 -0.019392 -0.000368 0.188458 0.000063
# 2 -0.017684 0.031667 -0.019411 0.000323 -0.188489 -0.000056
# 3 -0.019392 -0.019411 0.136829 0.000140 0.000108 -0.000025
# 4 -0.000368 0.000323 0.000140 2.048200 -0.003914 -0.375000
# 5 0.188458 -0.188489 0.000108 -0.003914 2.059192 0.000674
# 6 0.000063 -0.000056 -0.000025 -0.375000 0.000674 0.098351
#
#
# Mechanical properties :
#
#
# Convention : Reuss Voigt Hill
#
# Bulk Modulus (GPa) = 11.46983 34.98003 23.22493
# Shear Modulus (GPa) = 1.09940 16.62224 8.86082
#
# Velocity S-wave (km/s) = 0.80241 3.12005 2.27800
# Velocity P-wave (km/s) = 2.75240 5.78494 4.52997
#
# Compressibility (1/GPa) = 0.08718526
#
# Stress axis : x y z
#
# Youngs Moduli (GPa) = 31.58393 31.57850 7.30841
#
# Poissons Ratio (x) = 0.55842 0.14172
# Poissons Ratio (y) = 0.55851 0.14186
# Poissons Ratio (z) = 0.61247 0.61297
#
# Static dielectric constant tensor:
#      x y z
#    x 1.571060 0.000000 0.000000 
#    y 0.000000 1.571060 0.000000 
#    z 0.000000 0.000000 1.570470 
# 
# From -- ./inp_files/573.got.cif
#   From: 2010.05.17/outbox.cif.g08.bks.cpg/sg149_cif.got.tgz:573.got - 2010.05.20 13:52:34.
