data_PCOD9575388
_publ_section_title
;
Structure prediction by ZEFSAII (Michael W. Deem and Ramdas Pophale) SiO2 
 PCOD9575388
Probable space group: P 3 1 2
;
_chemical_formula_sum "Si O2"
_cell_formula_units_Z 34
_cell_length_a 8.247825
_cell_length_b 8.247825
_cell_length_c 28.495650
_cell_angle_alpha 90.000000
_cell_angle_beta 90.000000
_cell_angle_gamma 120.000000
_cell_volume 1678.757921
_symmetry_space_group_name_H-M "P 3 1 2"
_symmetry_group_IT_number 149
_symmetry_cell_setting 'hexagonal'
loop_
_space_group_symop_operation_xyz
x,y,z
-y,x-y,z
-x+y,-x,z
-y,-x,-z
-x+y,y,-z
x,x-y,-z
loop_
_atom_site_type_symbol
_atom_site_label
_atom_site_fract_x
_atom_site_fract_y
_atom_site_fract_z
Si Si1 0.705733 0.672328 0.235830
Si Si2 0.965572 0.678932 0.659008
Si Si3 0.427751 0.907086 0.905943
Si Si4 0.666668 0.333334 0.944065
Si Si5 0.350543 0.975679 0.621813
Si Si6 0.333335 0.666667 0.555573
Si Si7 0.351101 0.370420 0.199110
O O1 0.786363 0.705301 0.288128
O O2 0.536085 0.463902 0.230519
O O3 0.863547 0.710850 0.197609
O O4 0.618636 0.802919 0.224097
O O5 0.793085 0.605270 0.622933
O O6 0.139402 0.866218 0.640172
O O7 0.034385 0.527707 0.658325
O O8 0.211223 0.744869 0.917713
O O9 0.533361 0.116433 0.927013
O O10 0.410391 0.934919 0.850402
O O11 0.666668 0.333334 0.000000
O O12 0.358845 0.860930 0.577018
O O13 0.333334 0.666667 0.500000
#
# Coordination Sequence:
#
# PCOD9575388 Si02
#       7
#     6   6   6   2   6   2   6
#     4  12  22  34  57  84 129 167 228 264 296 391
#     4  11  20  36  53  87 120 171 207 257 317 369
#     4  10  23  49  72 101 149 190 229 302 370 434
#     4  12  27  48  81 111 135 183 246 306 387 462
#     4  10  22  37  60  82 125 162 205 259 331 394
#     4   9  21  45  69  93 111 150 207 276 342 420
#     4  12  23  39  57  92 125 180 222 269 325 383
#
# _framework density 20.253067000000001
#
# number of rings (size 3 to 8) (size 9 to 14) (size 15 to 20)
#    0.353    0.706    1.765    6.353    0.000    0.706 
#    1.059    3.529    0.000    0.000    0.000    0.000 
#    0.000    0.000    0.000    0.000    0.000    0.000 
#
# Total GULP energy -189490.716377 kJ/mol
# GULP energy per Si atom -5573.256364 kJ/mol
# Density = 2.020697 g / cm^3
# Si number density = 20.253067 Si / 1000 Ang^3
#
#
#
# Elastic Constant Matrix: (Units=GPa)
#
#
# Indices 1 2 3 4 5 6 
#
# 1 103.3030 35.5784 38.3424 0.0000 1.9088 -0.0001
# 2 35.5784 103.3025 38.3423 0.0000 -1.9088 -0.0002
# 3 38.3424 38.3423 99.8925 0.0000 0.0000 0.0000
# 4 0.0000 0.0000 0.0000 15.2406 0.0000 -1.9088
# 5 1.9088 -1.9088 0.0000 0.0000 15.2407 0.0000
# 6 -0.0001 -0.0002 0.0000 -1.9088 0.0000 33.8622
#
#
#
# Elastic Compliance Matrix: (Units=1/GPa)
#
#
# Indices 1 2 3 4 5 6 
#
# 1 0.012004 -0.002867 -0.003507 0.000000 -0.001862 0.000000
# 2 -0.002867 0.012004 -0.003507 0.000000 0.001862 0.000000
# 3 -0.003507 -0.003507 0.012703 0.000000 0.000000 0.000000
# 4 0.000000 0.000000 0.000000 0.066081 0.000000 0.003725
# 5 -0.001862 0.001862 0.000000 0.000000 0.066080 0.000000
# 6 0.000000 0.000000 0.000000 0.003725 0.000000 0.029741
#
#
# Mechanical properties :
#
#
# Convention : Reuss Voigt Hill
#
# Bulk Modulus (GPa) = 59.00216 59.00266 59.00241
# Shear Modulus (GPa) = 22.31897 25.81769 24.06833
#
# Velocity S-wave (km/s) = 3.32325 3.57424 3.45103
# Velocity P-wave (km/s) = 6.62729 6.79923 6.71381
#
# Compressibility (1/GPa) = 0.01694853
#
# Stress axis : x y z
#
# Youngs Moduli (GPa) = 83.30721 83.30684 78.72144
#
# Poissons Ratio (x) = 0.23883 0.27608
# Poissons Ratio (y) = 0.23884 0.27608
# Poissons Ratio (z) = 0.29216 0.29216
#
# Static dielectric constant tensor:
#      x y z
#    x 1.785190 0.000000 0.000000 
#    y 0.000000 1.785190 0.000000 
#    z 0.000000 0.000000 1.665030 
# 
# From -- ./inp_files/1170.got.cif
#   From: 2010.05.17/outbox.cif.g08.bks.cpg/sg149_cif.got.tgz:1170.got - 2010.05.20 13:52:34.
