data_PCOD9575906
_publ_section_title
;
Structure prediction by ZEFSAII (Michael W. Deem and Ramdas Pophale) SiO2 
 PCOD9575906
Probable space group: P 31 2 1
;
_chemical_formula_sum "Si O2"
_cell_formula_units_Z 30
_cell_length_a 9.349028
_cell_length_b 9.349028
_cell_length_c 18.316439
_cell_angle_alpha 90.000000
_cell_angle_beta 90.000000
_cell_angle_gamma 120.000000
_cell_volume 1386.451228
_symmetry_space_group_name_H-M "P 31 2 1"
_symmetry_group_IT_number 152
_symmetry_cell_setting 'hexagonal'
loop_
_space_group_symop_operation_xyz
x,y,z
-y,x-y,1/3+z
-x+y,-x,2/3+z
x-y,-y,2/3-z
-x,-x+y,1/3-z
y,x,-z
loop_
_atom_site_type_symbol
_atom_site_label
_atom_site_fract_x
_atom_site_fract_y
_atom_site_fract_z
Si Si1 0.258291 0.178098 0.806331
Si Si2 0.680005 0.050501 0.979892
Si Si3 0.171840 0.945255 0.250756
Si Si4 0.935927 0.435641 0.522816
Si Si5 0.196232 0.590572 0.406392
O O1 0.324570 0.217004 0.722760
O O2 0.392839 0.327007 0.855881
O O3 0.084531 0.176418 0.801807
O O4 0.218862 0.000000 0.833334
O O5 0.678429 0.208942 0.950002
O O6 0.754988 0.988235 0.916799
O O7 0.513675 0.885740 0.003978
O O8 0.165796 0.000000 0.333334
O O9 0.347431 0.953380 0.242912
O O10 0.749557 0.292298 0.541051
O O11 0.031356 0.450064 0.446991
#
# Coordination Sequence:
#
# PCOD9575906 Si02
#       5
#     6   6   6   6   6
#     4  10  23  42  65  98 134 169 233 272 333 405
#     4  10  24  43  68  97 140 173 226 272 343 403
#     4  10  20  44  64  92 132 180 212 276 332 396
#     4  11  22  45  64  96 136 171 226 277 334 403
#     4  11  25  44  67 100 134 176 223 280 338 403
#
# _framework density 21.637975000000001
#
# number of rings (size 3 to 8) (size 9 to 14) (size 15 to 20)
#    0.000    1.600    6.000    0.000    5.600    3.200 
#    0.000    3.000    0.000    0.000    0.000    0.000 
#    0.000    0.000    0.000    0.000    0.000    0.000 
#
# Total GULP energy -167030.174719 kJ/mol
# GULP energy per Si atom -5567.672491 kJ/mol
# Density = 2.158873 g / cm^3
# Si number density = 21.637975 Si / 1000 Ang^3
#
#
#
# Elastic Constant Matrix: (Units=GPa)
#
#
# Indices 1 2 3 4 5 6 
#
# 1 96.8913 41.3577 24.7474 4.8567 0.0003 0.0000
# 2 41.3577 96.8913 24.7474 -4.8567 -0.0003 0.0000
# 3 24.7474 24.7474 36.4293 0.0000 0.0000 0.0000
# 4 4.8567 -4.8567 0.0000 27.5210 0.0000 -0.0003
# 5 0.0003 -0.0003 0.0000 0.0000 27.5210 4.8567
# 6 0.0000 0.0000 0.0000 -0.0003 4.8567 27.7668
#
#
#
# Elastic Compliance Matrix: (Units=1/GPa)
#
#
# Indices 1 2 3 4 5 6 
#
# 1 0.014069 -0.004511 -0.006493 -0.003279 0.000000 0.000000
# 2 -0.004511 0.014069 -0.006493 0.003279 0.000000 0.000000
# 3 -0.006493 -0.006493 0.036272 0.000000 0.000000 0.000000
# 4 -0.003279 0.003279 0.000000 0.037493 0.000000 0.000000
# 5 0.000000 0.000000 0.000000 0.000000 0.037493 -0.006558
# 6 0.000000 0.000000 0.000000 0.000000 -0.006558 0.037161
#
#
# Mechanical properties :
#
#
# Convention : Reuss Voigt Hill
#
# Bulk Modulus (GPa) = 33.99499 45.76857 39.88178
# Shear Modulus (GPa) = 22.58787 25.85240 24.22014
#
# Velocity S-wave (km/s) = 3.23445 3.46029 3.34928
# Velocity P-wave (km/s) = 5.44920 6.09612 5.78172
#
# Compressibility (1/GPa) = 0.02941610
#
# Stress axis : x y z
#
# Youngs Moduli (GPa) = 71.07699 71.07699 27.56946
#
# Poissons Ratio (x) = 0.32066 0.17901
# Poissons Ratio (y) = 0.32066 0.17901
# Poissons Ratio (z) = 0.46150 0.46150
#
# Static dielectric constant tensor:
#      x y z
#    x 1.846490 0.000000 0.000000 
#    y 0.000000 1.846490 0.000000 
#    z 0.000000 0.000000 1.811980 
# 
# From -- ./inp_files/2980.got.cif
#   From: 2010.05.17/outbox.cif.g08.bks.cpg/sg152_2_cif.got.tgz:2980.got - 2010.05.20 10:36:06.
