data_PCOD9575994
_publ_section_title
;
Structure prediction by ZEFSAII (Michael W. Deem and Ramdas Pophale) SiO2 
 PCOD9575994
Probable space group: P 31 2 1
;
_chemical_formula_sum "Si O2"
_cell_formula_units_Z 33
_cell_length_a 14.731004
_cell_length_b 14.731004
_cell_length_c 8.110264
_cell_angle_alpha 90.000000
_cell_angle_beta 90.000000
_cell_angle_gamma 120.000000
_cell_volume 1524.159151
_symmetry_space_group_name_H-M "P 31 2 1"
_symmetry_group_IT_number 152
_symmetry_cell_setting 'hexagonal'
loop_
_space_group_symop_operation_xyz
x,y,z
-y,x-y,1/3+z
-x+y,-x,2/3+z
x-y,-y,2/3-z
-x,-x+y,1/3-z
y,x,-z
loop_
_atom_site_type_symbol
_atom_site_label
_atom_site_fract_x
_atom_site_fract_y
_atom_site_fract_z
Si Si1 0.120511 0.339516 0.610505
Si Si2 0.475725 0.275290 0.105869
Si Si3 0.256431 0.256431 0.500000
Si Si4 0.458510 0.668625 0.722739
Si Si5 0.101323 0.657537 0.902037
Si Si6 0.392048 0.907893 0.743368
O O1 0.217147 0.400932 0.740051
O O2 0.148633 0.253991 0.541030
O O3 0.139213 0.433505 0.487534
O O4 0.000000 0.283124 0.666667
O O5 0.594358 0.360132 0.161241
O O6 0.437646 0.323483 0.960248
O O7 0.468913 0.175247 0.018791
O O8 0.297382 0.339712 0.346383
O O9 0.483925 0.779159 0.639545
O O10 0.442947 0.595541 0.565858
O O11 0.047953 0.536493 0.952005
O O12 0.383587 0.000000 0.833334
#
# Coordination Sequence:
#
# PCOD9575994 Si02
#       6
#     6   6   3   6   6   6
#     4  11  24  45  70  97 135 181 229 292 346 414
#     4  11  24  38  65  98 137 178 229 275 341 419
#     4  10  22  46  66  92 130 178 228 292 352 398
#     4  10  22  38  60  93 133 172 218 266 341 405
#     4  10  22  37  60  90 132 177 218 283 326 401
#     4  11  22  37  58  89 136 184 223 267 328 403
#
# _framework density 21.651282999999999
#
# number of rings (size 3 to 8) (size 9 to 14) (size 15 to 20)
#    0.000    1.455    0.909    4.364    7.636    0.727 
#    0.000    0.000    4.000    0.000    0.000    0.000 
#    0.000    0.000    0.000    0.000    0.000    0.000 
#
# Total GULP energy -183945.407521 kJ/mol
# GULP energy per Si atom -5574.103258 kJ/mol
# Density = 2.160200 g / cm^3
# Si number density = 21.651283 Si / 1000 Ang^3
#
#
#
# Elastic Constant Matrix: (Units=GPa)
#
#
# Indices 1 2 3 4 5 6 
#
# 1 70.6273 35.5323 6.7087 -2.4982 -0.0001 0.0000
# 2 35.5323 70.6273 6.7087 2.4982 0.0001 0.0000
# 3 6.7087 6.7087 79.8718 0.0000 0.0000 0.0000
# 4 -2.4982 2.4982 0.0000 26.5983 0.0000 0.0001
# 5 -0.0001 0.0001 0.0000 0.0000 26.5983 -2.4982
# 6 0.0000 0.0000 0.0000 0.0001 -2.4982 17.5475
#
#
#
# Elastic Compliance Matrix: (Units=1/GPa)
#
#
# Indices 1 2 3 4 5 6 
#
# 1 0.019201 -0.009680 -0.000800 0.002712 0.000000 0.000000
# 2 -0.009680 0.019201 -0.000800 -0.002712 0.000000 0.000000
# 3 -0.000800 -0.000800 0.012654 0.000000 0.000000 0.000000
# 4 0.002712 -0.002712 0.000000 0.038106 0.000000 0.000000
# 5 0.000000 0.000000 0.000000 0.000000 0.038106 0.005425
# 6 0.000000 0.000000 0.000000 0.000000 0.005425 0.057760
#
#
# Mechanical properties :
#
#
# Convention : Reuss Voigt Hill
#
# Bulk Modulus (GPa) = 35.09099 35.44732 35.26915
# Shear Modulus (GPa) = 23.03244 25.62726 24.32985
#
# Velocity S-wave (km/s) = 3.26512 3.44413 3.35582
# Velocity P-wave (km/s) = 5.51880 5.67658 5.59825
#
# Compressibility (1/GPa) = 0.02849735
#
# Stress axis : x y z
#
# Youngs Moduli (GPa) = 52.08187 52.08187 79.02389
#
# Poissons Ratio (x) = 0.50414 0.06319
# Poissons Ratio (y) = 0.50414 0.06319
# Poissons Ratio (z) = 0.04165 0.04165
#
# Static dielectric constant tensor:
#      x y z
#    x 1.853070 0.000000 0.000000 
#    y 0.000000 1.853070 0.000000 
#    z 0.000000 0.000000 1.884490 
# 
# From -- ./inp_files/1126.got.cif
#   From: 2010.05.17/outbox.cif.g08.bks.cpg/sg152_1_cif.got.tgz:1126.got - 2010.05.20 10:36:06.
