data_PCOD9575594
_publ_section_title
;
Structure prediction by ZEFSAII (Michael W. Deem and Ramdas Pophale) SiO2 
 PCOD9575594
Probable space group: P 31 1 2
;
_chemical_formula_sum "Si O2"
_cell_formula_units_Z 21
_cell_length_a 15.089660
_cell_length_b 15.089660
_cell_length_c 5.138187
_cell_angle_alpha 90.000000
_cell_angle_beta 90.000000
_cell_angle_gamma 120.000000
_cell_volume 1013.209951
_symmetry_space_group_name_H-M "P 31 1 2"
_symmetry_group_IT_number 151
_symmetry_cell_setting 'hexagonal'
loop_
_space_group_symop_operation_xyz
x,y,z
-y,x-y,1/3+z
-x+y,-x,2/3+z
-y,-x,2/3-z
-x+y,y,1/3-z
x,x-y,-z
loop_
_atom_site_type_symbol
_atom_site_label
_atom_site_fract_x
_atom_site_fract_y
_atom_site_fract_z
Si Si1 0.635073 0.758829 0.258832
Si Si2 0.583511 0.045317 0.917553
Si Si3 0.970099 0.140255 0.095486
Si Si4 0.546194 0.273097 0.500000
O O1 0.587357 0.793679 0.500000
O O2 0.589307 0.645581 0.142273
O O3 0.739781 0.775791 0.385484
O O4 0.654934 0.827467 0.000000
O O5 0.527062 0.054124 0.666667
O O6 0.685860 0.158653 0.949770
O O7 0.514704 0.029407 0.166667
O O8 0.892447 0.107554 0.333334
O O9 0.054386 0.108771 0.166667
O O10 0.913438 0.086563 0.833334
O O11 0.629790 0.259580 0.666667
#
# Coordination Sequence:
#
# PCOD9575594 Si02
#       4
#     6   6   6   3
#     4  11  24  43  63  93 134 177 228 290 329 408
#     4  11  24  42  69 100 134 183 226 282 370 428
#     4  11  21  34  54  83 122 168 219 266 319 377
#     4  10  20  40  64 102 150 174 228 290 354 442
#
# _framework density 20.726205
#
# number of rings (size 3 to 8) (size 9 to 14) (size 15 to 20)
#    0.000    1.143    1.429    6.857    2.000    0.000 
#    0.000    0.000    0.000    8.571    0.000    0.000 
#    0.000    0.000    0.000    0.000    0.000    0.000 
#
# Total GULP energy -116980.102404 kJ/mol
# GULP energy per Si atom -5570.481067 kJ/mol
# Density = 2.067903 g / cm^3
# Si number density = 20.726205 Si / 1000 Ang^3
#
#
#
# Elastic Constant Matrix: (Units=GPa)
#
#
# Indices 1 2 3 4 5 6 
#
# 1 88.9520 56.1844 50.5930 0.0002 6.8791 0.0000
# 2 56.1844 88.9520 50.5930 -0.0002 -6.8791 0.0000
# 3 50.5930 50.5930 166.8986 0.0000 0.0000 0.0000
# 4 0.0002 -0.0002 0.0000 31.4017 0.0000 -6.8791
# 5 6.8791 -6.8791 0.0000 0.0000 31.4017 0.0002
# 6 0.0000 0.0000 0.0000 -6.8791 0.0002 16.3838
#
#
#
# Elastic Compliance Matrix: (Units=1/GPa)
#
#
# Indices 1 2 3 4 5 6 
#
# 1 0.021173 -0.012436 -0.002648 0.000000 -0.007363 0.000000
# 2 -0.012436 0.021173 -0.002648 0.000000 0.007363 0.000000
# 3 -0.002648 -0.002648 0.007597 0.000000 0.000000 0.000000
# 4 0.000000 0.000000 0.000000 0.035071 0.000000 0.014725
# 5 -0.007363 0.007363 0.000000 0.000000 0.035071 0.000000
# 6 0.000000 0.000000 0.000000 0.014725 0.000000 0.067219
#
#
# Mechanical properties :
#
#
# Convention : Reuss Voigt Hill
#
# Bulk Modulus (GPa) = 69.07598 73.28261 71.17929
# Shear Modulus (GPa) = 21.96875 28.33292 25.15084
#
# Velocity S-wave (km/s) = 3.25922 3.70132 3.48728
# Velocity P-wave (km/s) = 6.89663 7.32807 7.11562
#
# Compressibility (1/GPa) = 0.01447681
#
# Stress axis : x y z
#
# Youngs Moduli (GPa) = 47.23024 47.23024 131.62621
#
# Poissons Ratio (x) = 0.58738 0.34859
# Poissons Ratio (y) = 0.58738 0.34859
# Poissons Ratio (z) = 0.12508 0.12508
#
# Static dielectric constant tensor:
#      x y z
#    x 1.834360 0.000000 0.000000 
#    y 0.000000 1.834360 0.000000 
#    z 0.000000 0.000000 1.788630 
# 
# From -- ./inp_files/190.got.cif
#   From: 2010.05.17/outbox.cif.g08.bks.cpg/sg151_1_cif.got.tgz:190.got - 2010.05.20 10:33:20.
