data_PCOD9575248
_publ_section_title
;
Structure prediction by ZEFSAII (Michael W. Deem and Ramdas Pophale) SiO2 
 PCOD9575248
Probable space group: R -3
;
_chemical_formula_sum "Si O2"
_cell_formula_units_Z 120
_cell_length_a 20.456356
_cell_length_b 20.456356
_cell_length_c 15.190250
_cell_angle_alpha 90.000000
_cell_angle_beta 90.000000
_cell_angle_gamma 120.000000
_cell_volume 5504.933783
_symmetry_space_group_name_H-M "R -3"
_symmetry_group_IT_number 148
_symmetry_cell_setting 'hexagonal'
loop_
_space_group_symop_operation_xyz
x,y,z
-y,x-y,z
-x+y,-x,z
-x,-y,-z
y,-x+y,-z
x-y,x,-z
2/3+x,1/3+y,1/3+z
2/3-y,1/3+x-y,1/3+z
2/3-x+y,1/3-x,1/3+z
2/3-x,1/3-y,1/3-z
2/3+y,1/3-x+y,1/3-z
2/3+x-y,1/3+x,1/3-z
1/3+x,2/3+y,2/3+z
1/3-y,2/3+x-y,2/3+z
1/3-x+y,2/3-x,2/3+z
1/3-x,2/3-y,2/3-z
1/3+y,2/3-x+y,2/3-z
1/3+x-y,2/3+x,2/3-z
loop_
_atom_site_type_symbol
_atom_site_label
_atom_site_fract_x
_atom_site_fract_y
_atom_site_fract_z
Si Si1 0.666667 0.333334 0.177499
Si Si2 0.231863 0.794422 0.199328
Si Si3 0.161462 0.716416 0.455349
Si Si4 0.715427 0.704595 0.610929
Si Si5 0.863897 0.873309 0.050703
Si Si6 0.596075 0.558136 0.129815
Si Si7 0.666667 0.333333 0.972254
Si Si8 0.972762 0.123080 0.376523
O O1 0.744896 0.396834 0.215726
O O2 0.666668 0.333334 0.075878
O O3 0.300561 0.868060 0.242620
O O4 0.152495 0.786188 0.224928
O O5 0.246901 0.804556 0.094846
O O6 0.219802 0.716418 0.234544
O O7 0.085425 0.712522 0.419546
O O8 0.149067 0.686478 0.555448
O O9 0.236152 0.801636 0.459646
O O10 0.173313 0.662586 0.387485
O O11 0.651609 0.713357 0.556132
O O12 0.725279 0.710943 0.717319
O O13 0.916846 0.843035 0.009156
O O14 0.716718 0.296594 0.948319
#
# Coordination Sequence:
#
# PCOD9575248 Si02
#       8
#     6  18  18  18  18  18   6  18
#     4   9  16  34  55  79 112 152 187 235 307 373
#     4  11  20  38  57  85 123 160 189 247 307 375
#     4  11  21  38  63  88 119 164 205 254 317 365
#     4  11  21  40  62  86 118 164 214 253 306 374
#     4   9  19  36  58  83 115 153 202 255 303 366
#     4  11  23  39  63  87 121 165 212 257 308 368
#     4  12  24  29  56  96 124 152 193 234 332 386
#     4  12  22  36  57  91 128 158 192 244 314 389
#
# _framework density 21.798627
#
# number of rings (size 3 to 8) (size 9 to 14) (size 15 to 20)
#    0.000    1.200    6.000    2.400    0.000    1.800 
#    0.000    0.000    0.000    0.000    0.000   10.500 
#    0.000    0.000    0.000    0.000    0.000    0.000 
#
# Total GULP energy -222749.880968 kJ/mol
# GULP energy per Si atom -5568.747024 kJ/mol
# Density = 2.174901 g / cm^3
# Si number density = 21.798627 Si / 1000 Ang^3
#
#
#
# Elastic Constant Matrix: (Units=GPa)
#
#
# Indices 1 2 3 4 5 6 
#
# 1 -236.0348 261.5305 2.5513 -60.7948 -203.0149 0.0332
# 2 261.5305 -236.0710 2.5370 60.8137 203.0248 -0.0522
# 3 2.5513 2.5370 91.5489 -0.0079 0.0082 0.0125
# 4 -60.7948 60.8137 -0.0079 -135.3121 0.2199 204.2371
# 5 -203.0149 203.0248 0.0082 0.2199 -134.4489 -61.0622
# 6 0.0332 -0.0522 0.0125 204.2371 -61.0622 -250.3874
#
#
#
# Elastic Compliance Matrix: (Units=1/GPa)
#
#
# Indices 1 2 3 4 5 6 
#
# 1 0.022663 0.016807 -0.001097 -0.002647 -0.008845 -0.000002
# 2 0.016807 0.022661 -0.001097 0.002647 0.008845 0.000000
# 3 -0.001097 -0.001097 0.010984 0.000000 0.000000 0.000000
# 4 -0.002647 0.002647 0.000000 0.021681 -0.000002 0.017684
# 5 -0.008845 0.008845 0.000000 -0.000002 0.021679 -0.005291
# 6 -0.000002 0.000000 0.000000 0.017684 -0.005291 0.011721
#
#
# Mechanical properties :
#
#
# Convention : Reuss Voigt Hill
#
# Bulk Modulus (GPa) = 11.69111 16.96453 14.32782
# Shear Modulus (GPa) = 45.17769 -147.17474 -50.99852
#
# Velocity S-wave (km/s) = 4.55741 -8.22570 -4.84212
# Velocity P-wave (km/s) = 5.75050 9.07838 4.96733
#
# Compressibility (1/GPa) = 0.08553504
#
# Stress axis : x y z
#
# Youngs Moduli (GPa) = 44.12393 44.12867 91.04075
#
# Poissons Ratio (x) = -0.74167 0.09985
# Poissons Ratio (y) = -0.74159 0.09987
# Poissons Ratio (z) = 0.04839 0.04841
#
# Static dielectric constant tensor:
#      x y z
#    x 1.856150 0.000000 0.000000 
#    y 0.000000 1.856150 0.000000 
#    z 0.000000 0.000000 1.843440 
# 
# From -- ./inp_files/2232.got.cif
#   From: 2010.05.17/outbox.cif.g08.bks.cpg/sg148_2_cif.got.tgz:2232.got - 2010.05.20 13:50:20.
