data_PCOD9575175
_publ_section_title
;
Structure prediction by ZEFSAII (Michael W. Deem and Ramdas Pophale) SiO2 
 PCOD9575175
Probable space group: R -3
;
_chemical_formula_sum "Si O2"
_cell_formula_units_Z 102
_cell_length_a 20.176483
_cell_length_b 20.176483
_cell_length_c 13.640138
_cell_angle_alpha 90.000000
_cell_angle_beta 90.000000
_cell_angle_gamma 120.000000
_cell_volume 4808.840001
_symmetry_space_group_name_H-M "R -3"
_symmetry_group_IT_number 148
_symmetry_cell_setting 'hexagonal'
loop_
_space_group_symop_operation_xyz
x,y,z
-y,x-y,z
-x+y,-x,z
-x,-y,-z
y,-x+y,-z
x-y,x,-z
2/3+x,1/3+y,1/3+z
2/3-y,1/3+x-y,1/3+z
2/3-x+y,1/3-x,1/3+z
2/3-x,1/3-y,1/3-z
2/3+y,1/3-x+y,1/3-z
2/3+x-y,1/3+x,1/3-z
1/3+x,2/3+y,2/3+z
1/3-y,2/3+x-y,2/3+z
1/3-x+y,2/3-x,2/3+z
1/3-x,2/3-y,2/3-z
1/3+y,2/3-x+y,2/3-z
1/3+x-y,2/3+x,2/3-z
loop_
_atom_site_type_symbol
_atom_site_label
_atom_site_fract_x
_atom_site_fract_y
_atom_site_fract_z
Si Si1 0.033975 0.657829 0.324690
Si Si2 0.000000 0.000000 0.888982
Si Si3 0.624510 0.421109 0.104304
Si Si4 0.333334 0.666668 0.046848
Si Si5 0.872728 0.323755 0.970985
Si Si6 0.400945 0.181924 0.797186
Si Si7 0.926723 0.534379 0.169997
O O1 0.109818 0.710379 0.257383
O O2 0.071258 0.660005 0.430282
O O3 0.993900 0.707953 0.346883
O O4 0.972481 0.581430 0.267627
O O5 0.013106 0.077956 0.844802
O O6 0.000000 0.000000 0.000000
O O7 0.544102 0.391154 0.159181
O O8 0.622616 0.372890 0.006197
O O9 0.667173 0.508828 0.073641
O O10 0.333335 0.666668 0.166667
O O11 0.818571 0.251157 0.905004
O O12 0.886142 0.400948 0.916253
O O13 0.316867 0.171940 0.795339
#
# Coordination Sequence:
#
# PCOD9575175 Si02
#       7
#    18   6  18   6  18  18  18
#     4  11  20  38  60  93 134 165 210 256 317 400
#     4  10  26  52  61  77 115 178 227 259 316 380
#     4  10  22  41  68  90 130 167 210 273 324 388
#     4  10  26  40  67 107 133 163 212 274 340 401
#     4  11  22  35  64  97 131 158 216 264 338 389
#     4  11  20  36  61  95 132 172 195 261 330 401
#     4  11  22  39  65  94 131 172 211 266 334 381
#
# _framework density 21.210937000000001
#
# number of rings (size 3 to 8) (size 9 to 14) (size 15 to 20)
#    0.000    1.412    7.059    1.059    2.471    4.235 
#    6.353    0.000    0.000    5.294    0.000    0.000 
#    0.000    0.000    0.000    0.000    0.000    0.000 
#
# Total GULP energy -189295.311067 kJ/mol
# GULP energy per Si atom -5567.509149 kJ/mol
# Density = 2.116266 g / cm^3
# Si number density = 21.210937 Si / 1000 Ang^3
#
#
#
# Elastic Constant Matrix: (Units=GPa)
#
#
# Indices 1 2 3 4 5 6 
#
# 1 51.3936 21.7457 1.0766 -9.0308 -13.8726 0.0000
# 2 21.7457 51.3941 1.0771 9.0308 13.8727 0.0000
# 3 1.0766 1.0771 57.2272 0.0000 -0.0001 0.0002
# 4 -9.0308 9.0308 0.0000 27.0416 0.0000 13.8725
# 5 -13.8726 13.8727 -0.0001 0.0000 27.0415 -9.0309
# 6 0.0000 0.0000 0.0002 13.8725 -9.0309 14.8240
#
#
#
# Elastic Compliance Matrix: (Units=1/GPa)
#
#
# Indices 1 2 3 4 5 6 
#
# 1 0.060130 -0.046450 -0.000257 0.035593 0.054677 0.000000
# 2 -0.046450 0.060129 -0.000258 -0.035593 -0.054676 0.000000
# 3 -0.000257 -0.000258 0.017484 0.000001 0.000000 -0.000001
# 4 0.035593 -0.035593 0.000001 0.116852 0.000000 -0.109353
# 5 0.054677 -0.054676 0.000000 0.000000 0.116854 0.071188
# 6 0.000000 0.000000 -0.000001 -0.109353 0.071188 0.213161
#
#
# Mechanical properties :
#
#
# Convention : Reuss Voigt Hill
#
# Bulk Modulus (GPa) = 22.82355 23.09040 22.95698
# Shear Modulus (GPa) = 7.21351 22.85578 15.03465
#
# Velocity S-wave (km/s) = 1.84614 3.28616 2.66525
# Velocity P-wave (km/s) = 3.91509 5.03073 4.50756
#
# Compressibility (1/GPa) = 0.04381439
#
# Stress axis : x y z
#
# Youngs Moduli (GPa) = 16.63064 16.63081 57.19552
#
# Poissons Ratio (x) = 0.77249 0.01469
# Poissons Ratio (y) = 0.77249 0.01476
# Poissons Ratio (z) = 0.00427 0.00429
#
# Static dielectric constant tensor:
#      x y z
#    x 1.795610 0.000000 0.000000 
#    y 0.000000 1.795610 0.000000 
#    z 0.000000 0.000000 1.876280 
# 
# From -- ./inp_files/2086.got.cif
#   From: 2010.05.17/outbox.cif.g08.bks.cpg/sg148_2_cif.got.tgz:2086.got - 2010.05.20 13:50:20.
