data_PCOD9575077
_publ_section_title
;
Structure prediction by ZEFSAII (Michael W. Deem and Ramdas Pophale) SiO2 
 PCOD9575077
Probable space group: R -3
;
_chemical_formula_sum "Si O2"
_cell_formula_units_Z 126
_cell_length_a 30.608914
_cell_length_b 30.608914
_cell_length_c 8.661639
_cell_angle_alpha 90.000000
_cell_angle_beta 90.000000
_cell_angle_gamma 120.000000
_cell_volume 7027.915858
_symmetry_space_group_name_H-M "R -3"
_symmetry_group_IT_number 148
_symmetry_cell_setting 'hexagonal'
loop_
_space_group_symop_operation_xyz
x,y,z
-y,x-y,z
-x+y,-x,z
-x,-y,-z
y,-x+y,-z
x-y,x,-z
2/3+x,1/3+y,1/3+z
2/3-y,1/3+x-y,1/3+z
2/3-x+y,1/3-x,1/3+z
2/3-x,1/3-y,1/3-z
2/3+y,1/3-x+y,1/3-z
2/3+x-y,1/3+x,1/3-z
1/3+x,2/3+y,2/3+z
1/3-y,2/3+x-y,2/3+z
1/3-x+y,2/3-x,2/3+z
1/3-x,2/3-y,2/3-z
1/3+y,2/3-x+y,2/3-z
1/3+x-y,2/3+x,2/3-z
loop_
_atom_site_type_symbol
_atom_site_label
_atom_site_fract_x
_atom_site_fract_y
_atom_site_fract_z
Si Si1 0.690184 0.614344 0.269598
Si Si2 0.164190 0.456392 0.120090
Si Si3 0.866068 0.672635 0.395689
Si Si4 0.945273 0.243852 0.680791
Si Si5 0.476678 0.589807 0.129019
Si Si6 0.617706 0.862969 0.500631
Si Si7 0.619411 0.727957 0.854644
O O1 0.665484 0.608944 0.101376
O O2 0.726020 0.593751 0.338681
O O3 0.728395 0.673654 0.289461
O O4 0.644218 0.584722 0.383705
O O5 0.127406 0.412572 0.237557
O O6 0.150505 0.500672 0.134392
O O7 0.220603 0.469317 0.163196
O O8 0.146864 0.428828 0.952906
O O9 0.880727 0.643191 0.520599
O O10 0.904634 0.731880 0.420847
O O11 0.810905 0.659608 0.450737
O O12 0.867883 0.649880 0.230680
O O13 0.916698 0.268998 0.591406
O O14 0.490833 0.578367 0.957766
#
# Coordination Sequence:
#
# PCOD9575077 Si02
#       7
#    18  18  18  18  18  18  18
#     4  11  23  33  51  80 115 158 194 242 273 332
#     4  12  22  39  59  84 112 151 197 248 297 360
#     4  10  20  38  59  82 113 158 195 234 286 352
#     4  10  20  35  54  80 112 155 199 228 292 336
#     4  11  22  37  61  83 114 151 195 246 300 351
#     4  11  19  39  59  79 119 156 193 243 289 340
#     4  11  24  34  53  84 119 154 203 236 284 336
#
# _framework density 17.928502000000002
#
# number of rings (size 3 to 8) (size 9 to 14) (size 15 to 20)
#    0.000    1.143    5.714    1.714    2.000    4.571 
#    0.000    0.000    0.000    0.286    0.000    0.000 
#    0.000    0.000    0.000    2.571    0.000    0.000 
#
# Total GULP energy -233954.485942 kJ/mol
# GULP energy per Si atom -5570.344903 kJ/mol
# Density = 1.788770 g / cm^3
# Si number density = 17.928502 Si / 1000 Ang^3
#
#
#
# Elastic Constant Matrix: (Units=GPa)
#
#
# Indices 1 2 3 4 5 6 
#
# 1 100.5241 47.5574 29.8981 0.3058 2.4284 0.0119
# 2 47.5574 100.5324 29.8953 -0.2592 -2.4608 0.0018
# 3 29.8981 29.8953 64.6445 0.0582 -0.0462 0.0327
# 4 0.3058 -0.2592 0.0582 19.6070 0.0319 -2.4528
# 5 2.4284 -2.4608 -0.0462 0.0319 19.5946 0.2860
# 6 0.0119 0.0018 0.0327 -2.4528 0.2860 26.4744
#
#
#
# Elastic Compliance Matrix: (Units=1/GPa)
#
#
# Indices 1 2 3 4 5 6 
#
# 1 0.013703 -0.005399 -0.003843 -0.000270 -0.002385 0.000000
# 2 -0.005399 0.013701 -0.003838 0.000274 0.002380 0.000006
# 3 -0.003843 -0.003838 0.019021 -0.000051 0.000040 -0.000027
# 4 -0.000270 0.000274 -0.000051 0.051609 -0.000086 0.004783
# 5 -0.002385 0.002380 0.000040 -0.000086 0.051637 -0.000565
# 6 0.000000 0.000006 -0.000027 0.004783 -0.000565 0.038222
#
#
# Mechanical properties :
#
#
# Convention : Reuss Voigt Hill
#
# Bulk Modulus (GPa) = 49.34009 53.37805 51.35907
# Shear Modulus (GPa) = 22.64415 23.69188 23.16802
#
# Velocity S-wave (km/s) = 3.55776 3.63914 3.59868
# Velocity P-wave (km/s) = 6.66762 6.89167 6.78057
#
# Compressibility (1/GPa) = 0.02026750
#
# Stress axis : x y z
#
# Youngs Moduli (GPa) = 72.97513 72.98634 52.57269
#
# Poissons Ratio (x) = 0.39404 0.20201
# Poissons Ratio (y) = 0.39398 0.20176
# Poissons Ratio (z) = 0.28041 0.28011
#
# Static dielectric constant tensor:
#      x y z
#    x 1.662060 -0.000010 -0.000030 
#    y -0.000010 1.662050 -0.000020 
#    z -0.000030 -0.000020 1.723640 
# 
# From -- ./inp_files/1079.got.cif
#   From: 2010.05.17/outbox.cif.g08.bks.cpg/sg148_1_cif.got.tgz:1079.got - 2010.05.20 13:50:20.
