data_PCOD9575670
_publ_section_title
;
Structure prediction by ZEFSAII (Michael W. Deem and Ramdas Pophale) SiO2 
 PCOD9575670
Probable space group: P 31 1 2
;
_chemical_formula_sum "Si O2"
_cell_formula_units_Z 30
_cell_length_a 13.028218
_cell_length_b 13.028218
_cell_length_c 9.654238
_cell_angle_alpha 90.000000
_cell_angle_beta 90.000000
_cell_angle_gamma 120.000000
_cell_volume 1419.118516
_symmetry_space_group_name_H-M "P 31 1 2"
_symmetry_group_IT_number 151
_symmetry_cell_setting 'hexagonal'
loop_
_space_group_symop_operation_xyz
x,y,z
-y,x-y,1/3+z
-x+y,-x,2/3+z
-y,-x,2/3-z
-x+y,y,1/3-z
x,x-y,-z
loop_
_atom_site_type_symbol
_atom_site_label
_atom_site_fract_x
_atom_site_fract_y
_atom_site_fract_z
Si Si1 0.198149 0.152790 0.654448
Si Si2 0.384833 0.521025 0.983330
Si Si3 0.756018 0.911366 0.642305
Si Si4 0.314447 0.258612 0.915956
Si Si5 0.344403 0.473961 0.419528
O O1 0.210550 0.105275 0.500000
O O2 0.310751 0.248299 0.746853
O O3 0.089981 0.179961 0.666667
O O4 0.161768 0.031296 0.735558
O O5 0.430711 0.569290 0.833334
O O6 0.374201 0.391414 0.979325
O O7 0.256183 0.510957 0.984149
O O8 0.471891 0.613041 0.096254
O O9 0.693009 0.846504 0.500000
O O10 0.788232 0.823562 0.718591
O O11 0.666781 0.933271 0.736983
O O12 0.352853 0.176427 0.000000
O O13 0.465289 0.534712 0.333334
#
# Coordination Sequence:
#
# PCOD9575670 Si02
#       5
#     6   6   6   6   6
#     4  12  23  35  59  90 129 170 210 264 317 391
#     4  11  24  39  62  90 124 166 213 273 325 388
#     4  11  21  36  61  93 129 172 213 261 328 396
#     4  11  23  39  60  88 125 167 213 260 327 394
#     4  11  22  38  61  89 129 168 212 257 324 392
#
# _framework density 21.139882
#
# number of rings (size 3 to 8) (size 9 to 14) (size 15 to 20)
#    0.000    0.800    4.000    6.000    2.800    0.000 
#    0.000    0.000    0.000    0.000    5.200    0.000 
#    0.000    0.000    0.000    0.000    0.000    0.000 
#
# Total GULP energy -167155.866264 kJ/mol
# GULP energy per Si atom -5571.862209 kJ/mol
# Density = 2.109177 g / cm^3
# Si number density = 21.139882 Si / 1000 Ang^3
#
#
#
# Elastic Constant Matrix: (Units=GPa)
#
#
# Indices 1 2 3 4 5 6 
#
# 1 61.3980 8.1407 12.0959 0.0001 -4.8395 0.0000
# 2 8.1407 61.3980 12.0959 -0.0001 4.8395 0.0000
# 3 12.0959 12.0959 152.3487 0.0000 0.0000 0.0000
# 4 0.0001 -0.0001 0.0000 37.2835 0.0000 4.8395
# 5 -4.8395 4.8395 0.0000 0.0000 37.2835 0.0001
# 6 0.0000 0.0000 0.0000 4.8395 0.0001 26.6287
#
#
#
# Elastic Compliance Matrix: (Units=1/GPa)
#
#
# Indices 1 2 3 4 5 6 
#
# 1 0.017010 -0.002221 -0.001174 0.000000 0.002496 0.000000
# 2 -0.002221 0.017010 -0.001174 0.000000 -0.002496 0.000000
# 3 -0.001174 -0.001174 0.006750 0.000000 0.000000 0.000000
# 4 0.000000 0.000000 0.000000 0.027470 0.000000 -0.004992
# 5 0.002496 -0.002496 0.000000 0.000000 0.027470 0.000000
# 6 0.000000 0.000000 0.000000 -0.004992 0.000000 0.038461
#
#
# Mechanical properties :
#
#
# Convention : Reuss Voigt Hill
#
# Bulk Modulus (GPa) = 31.61403 37.75663 34.68533
# Shear Modulus (GPa) = 32.49886 36.42662 34.46274
#
# Velocity S-wave (km/s) = 3.92513 4.15556 4.04198
# Velocity P-wave (km/s) = 5.96065 6.39719 6.18277
#
# Compressibility (1/GPa) = 0.03163153
#
# Stress axis : x y z
#
# Youngs Moduli (GPa) = 58.79007 58.79007 148.14068
#
# Poissons Ratio (x) = 0.13056 0.17394
# Poissons Ratio (y) = 0.13056 0.17394
# Poissons Ratio (z) = 0.06903 0.06903
#
# Static dielectric constant tensor:
#      x y z
#    x 1.788960 0.000000 0.000000 
#    y 0.000000 1.788960 0.000000 
#    z 0.000000 0.000000 1.944890 
# 
# From -- ./inp_files/1555.got.cif
#   From: 2010.05.17/outbox.cif.g08.bks.cpg/sg151_1_cif.got.tgz:1555.got - 2010.05.20 10:33:20.
