data_PCOD9575593
_publ_section_title
;
Structure prediction by ZEFSAII (Michael W. Deem and Ramdas Pophale) SiO2 
 PCOD9575593
Probable space group: P 31 1 2
;
_chemical_formula_sum "Si O2"
_cell_formula_units_Z 36
_cell_length_a 11.062056
_cell_length_b 11.062056
_cell_length_c 15.745886
_cell_angle_alpha 90.000000
_cell_angle_beta 90.000000
_cell_angle_gamma 120.000000
_cell_volume 1668.666088
_symmetry_space_group_name_H-M "P 31 1 2"
_symmetry_group_IT_number 151
_symmetry_cell_setting 'hexagonal'
loop_
_space_group_symop_operation_xyz
x,y,z
-y,x-y,1/3+z
-x+y,-x,2/3+z
-y,-x,2/3-z
-x+y,y,1/3-z
x,x-y,-z
loop_
_atom_site_type_symbol
_atom_site_label
_atom_site_fract_x
_atom_site_fract_y
_atom_site_fract_z
Si Si1 0.000418 0.857615 0.244489
Si Si2 0.340045 0.896529 0.103541
Si Si3 0.944259 0.438372 0.267464
Si Si4 0.350567 0.414385 0.469460
Si Si5 0.444230 0.183062 0.168055
Si Si6 0.759435 0.178002 0.692826
O O1 0.073402 0.926598 0.333334
O O2 0.055327 0.761651 0.200386
O O3 0.967134 0.934268 0.166667
O O4 0.850368 0.741086 0.278594
O O5 0.428803 0.857605 0.166667
O O6 0.199246 0.754472 0.083054
O O7 0.330269 0.020814 0.152960
O O8 0.430456 0.978852 0.021960
O O9 0.847521 0.281476 0.235552
O O10 0.835279 0.496893 0.275299
O O11 0.062098 0.535877 0.200043
O O12 0.447956 0.376270 0.411538
O O13 0.596108 0.192216 0.166667
O O14 0.428326 0.236358 0.259257
#
# Coordination Sequence:
#
# PCOD9575593 Si02
#       6
#     6   6   6   6   6   6
#     4   9  18  34  59  86 121 168 223 270 326 399
#     4  11  23  41  63  99 132 177 232 288 356 413
#     4  11  22  40  66  97 129 180 228 288 348 422
#     4  10  23  39  63  91 131 178 225 275 340 427
#     4  11  21  37  68 101 137 173 226 301 361 407
#     4  10  20  40  60  95 130 169 225 280 341 413
#
# _framework density 21.574119
#
# number of rings (size 3 to 8) (size 9 to 14) (size 15 to 20)
#    0.000    1.667    3.333    4.000    2.333    2.000 
#    0.000   14.167    0.000    0.000    0.000    0.000 
#    0.000    0.000    0.000    0.000    0.000    0.000 
#
# Total GULP energy -200581.512335 kJ/mol
# GULP energy per Si atom -5571.708676 kJ/mol
# Density = 2.152502 g / cm^3
# Si number density = 21.574119 Si / 1000 Ang^3
#
#
#
# Elastic Constant Matrix: (Units=GPa)
#
#
# Indices 1 2 3 4 5 6 
#
# 1 62.4546 16.1761 22.9350 0.0002 -2.9801 0.0000
# 2 16.1761 62.4546 22.9350 -0.0002 2.9801 0.0000
# 3 22.9350 22.9350 121.2951 0.0000 0.0000 0.0000
# 4 0.0002 -0.0002 0.0000 22.1226 0.0000 2.9801
# 5 -2.9801 2.9801 0.0000 0.0000 22.1226 0.0002
# 6 0.0000 0.0000 0.0000 2.9801 0.0002 23.1392
#
#
#
# Elastic Compliance Matrix: (Units=1/GPa)
#
#
# Indices 1 2 3 4 5 6 
#
# 1 0.018142 -0.003848 -0.002703 0.000000 0.002962 0.000000
# 2 -0.003848 0.018142 -0.002703 0.000000 -0.002962 0.000000
# 3 -0.002703 -0.002703 0.009266 0.000000 0.000000 0.000000
# 4 0.000000 0.000000 0.000000 0.046001 0.000000 -0.005924
# 5 0.002962 -0.002962 0.000000 0.000000 0.046001 0.000000
# 6 0.000000 0.000000 0.000000 -0.005924 0.000000 0.043980
#
#
# Mechanical properties :
#
#
# Convention : Reuss Voigt Hill
#
# Bulk Modulus (GPa) = 36.97688 41.14406 39.06047
# Shear Modulus (GPa) = 23.91736 25.75410 24.83573
#
# Velocity S-wave (km/s) = 3.33320 3.45882 3.39659
# Velocity P-wave (km/s) = 5.65599 5.92146 5.79025
#
# Compressibility (1/GPa) = 0.02704393
#
# Stress axis : x y z
#
# Youngs Moduli (GPa) = 55.12034 55.12034 107.91567
#
# Poissons Ratio (x) = 0.21209 0.29168
# Poissons Ratio (y) = 0.21209 0.29168
# Poissons Ratio (z) = 0.14898 0.14898
#
# Static dielectric constant tensor:
#      x y z
#    x 1.864130 0.000000 0.000000 
#    y 0.000000 1.864130 0.000000 
#    z 0.000000 0.000000 1.836500 
# 
# From -- ./inp_files/2923.got.cif
#   From: 2010.05.17/outbox.cif.g08.bks.cpg/sg151_2_cif.got.tgz:2923.got - 2010.05.20 10:33:20.
