data_PCOD9575493
_publ_section_title
;
Structure prediction by ZEFSAII (Michael W. Deem and Ramdas Pophale) SiO2 
 PCOD9575493
Probable space group: P 31 1 2
;
_chemical_formula_sum "Si O2"
_cell_formula_units_Z 42
_cell_length_a 21.581180
_cell_length_b 21.581180
_cell_length_c 5.667585
_cell_angle_alpha 90.000000
_cell_angle_beta 90.000000
_cell_angle_gamma 120.000000
_cell_volume 2286.014854
_symmetry_space_group_name_H-M "P 31 1 2"
_symmetry_group_IT_number 151
_symmetry_cell_setting 'hexagonal'
loop_
_space_group_symop_operation_xyz
x,y,z
-y,x-y,1/3+z
-x+y,-x,2/3+z
-y,-x,2/3-z
-x+y,y,1/3-z
x,x-y,-z
loop_
_atom_site_type_symbol
_atom_site_label
_atom_site_fract_x
_atom_site_fract_y
_atom_site_fract_z
Si Si1 0.246838 0.197588 0.507643
Si Si2 0.998631 0.753440 0.668579
Si Si3 0.672400 0.083914 0.865793
Si Si4 0.538769 0.941437 0.759265
Si Si5 0.720473 0.588863 0.644070
Si Si6 0.194845 0.664355 0.409089
Si Si7 0.269486 0.396071 0.084159
O O1 0.246567 0.123284 0.500000
O O2 0.213939 0.201560 0.760057
O O3 0.329356 0.262141 0.522227
O O4 0.216589 0.210465 0.260742
O O5 0.072124 0.752398 0.640749
O O6 0.933229 0.671327 0.681445
O O7 0.679821 0.120474 0.607584
O O8 0.598237 0.010120 0.896230
O O9 0.681040 0.126129 0.108335
O O10 0.481180 0.962360 0.666667
O O11 0.588422 0.921510 0.599202
O O12 0.488888 0.866176 0.884562
O O13 0.794732 0.589464 0.666667
O O14 0.265185 0.734816 0.333334
O O15 0.216062 0.608031 0.500000
O O16 0.156336 0.690949 0.588829
O O17 0.196875 0.393749 0.166667
#
# Coordination Sequence:
#
# PCOD9575493 Si02
#       7
#     6   6   6   6   6   6   6
#     4  10  17  30  53  79 113 145 174 206 259 336
#     4  10  19  31  50  78 111 139 186 214 269 339
#     4  10  19  31  50  78 111 139 186 214 269 339
#     4  12  24  40  57  76 105 150 200 257 320 393
#     4  10  17  30  53  79 113 145 174 206 259 336
#     4  12  26  40  60  76  96 130 198 282 350 410
#     4  12  24  40  57  76 105 150 200 257 320 393
#
# _framework density 18.372585000000001
#
# number of rings (size 3 to 8) (size 9 to 14) (size 15 to 20)
#    0.000    1.143    5.714    6.000    0.000    1.143 
#    0.000    0.000    0.000    0.000    0.000    0.000 
#    0.000    0.000    0.000   25.714    0.571    0.857 
#
# Total GULP energy -233809.557961 kJ/mol
# GULP energy per Si atom -5566.894237 kJ/mol
# Density = 1.833077 g / cm^3
# Si number density = 18.372585 Si / 1000 Ang^3
#
#
#
# Elastic Constant Matrix: (Units=GPa)
#
#
# Indices 1 2 3 4 5 6 
#
# 1 101.3046 -45.1618 9.2261 0.0037 3.6702 0.0000
# 2 -45.1618 101.3046 9.2261 -0.0037 -3.6702 0.0000
# 3 9.2261 9.2261 124.7414 0.0000 0.0000 0.0000
# 4 0.0037 -0.0037 0.0000 26.0571 0.0000 -3.6702
# 5 3.6702 -3.6702 0.0000 0.0000 26.0571 0.0037
# 6 0.0000 0.0000 0.0000 -3.6702 0.0037 73.2332
#
#
#
# Elastic Compliance Matrix: (Units=1/GPa)
#
#
# Indices 1 2 3 4 5 6 
#
# 1 0.012566 0.005690 -0.001350 -0.000001 -0.000969 0.000000
# 2 0.005690 0.012566 -0.001350 0.000001 0.000969 0.000000
# 3 -0.001350 -0.001350 0.008216 0.000000 0.000000 0.000000
# 4 -0.000001 0.000001 0.000000 0.038650 0.000000 0.001937
# 5 -0.000969 0.000969 0.000000 0.000000 0.038650 -0.000002
# 6 0.000000 0.000000 0.000000 0.001937 -0.000002 0.013752
#
#
# Mechanical properties :
#
#
# Convention : Reuss Voigt Hill
#
# Bulk Modulus (GPa) = 25.42816 30.43682 27.93249
# Shear Modulus (GPa) = 38.01400 48.67347 43.34373
#
# Velocity S-wave (km/s) = 4.55363 5.15266 4.86238
# Velocity P-wave (km/s) = 6.44342 7.21126 6.83813
#
# Compressibility (1/GPa) = 0.03932648
#
# Stress axis : x y z
#
# Youngs Moduli (GPa) = 79.58122 79.58122 121.70910
#
# Poissons Ratio (x) = -0.45280 0.16433
# Poissons Ratio (y) = -0.45280 0.16433
# Poissons Ratio (z) = 0.10745 0.10745
#
# Static dielectric constant tensor:
#      x y z
#    x 1.604390 0.000000 0.000000 
#    y 0.000000 1.604390 0.000000 
#    z 0.000000 0.000000 1.762500 
# 
# From -- ./inp_files/795.got.cif
#   From: 2010.05.17/outbox.cif.g08.bks.cpg/sg151_1_cif.got.tgz:795.got - 2010.05.20 10:33:20.
