data_PCOD9575047
_publ_section_title
;
Structure prediction by ZEFSAII (Michael W. Deem and Ramdas Pophale) SiO2 
 PCOD9575047
Probable space group: R -3
;
_chemical_formula_sum "Si O2"
_cell_formula_units_Z 108
_cell_length_a 17.676769
_cell_length_b 17.676769
_cell_length_c 21.302978
_cell_angle_alpha 90.000000
_cell_angle_beta 90.000000
_cell_angle_gamma 120.000000
_cell_volume 5764.700167
_symmetry_space_group_name_H-M "R -3"
_symmetry_group_IT_number 148
_symmetry_cell_setting 'hexagonal'
loop_
_space_group_symop_operation_xyz
x,y,z
-y,x-y,z
-x+y,-x,z
-x,-y,-z
y,-x+y,-z
x-y,x,-z
2/3+x,1/3+y,1/3+z
2/3-y,1/3+x-y,1/3+z
2/3-x+y,1/3-x,1/3+z
2/3-x,1/3-y,1/3-z
2/3+y,1/3-x+y,1/3-z
2/3+x-y,1/3+x,1/3-z
1/3+x,2/3+y,2/3+z
1/3-y,2/3+x-y,2/3+z
1/3-x+y,2/3-x,2/3+z
1/3-x,2/3-y,2/3-z
1/3+y,2/3-x+y,2/3-z
1/3+x-y,2/3+x,2/3-z
loop_
_atom_site_type_symbol
_atom_site_label
_atom_site_fract_x
_atom_site_fract_y
_atom_site_fract_z
Si Si1 0.941733 0.825570 0.535749
Si Si2 0.254849 0.344357 0.623019
Si Si3 0.042205 0.716326 0.187889
Si Si4 0.074730 0.340601 0.621967
Si Si5 0.661730 0.511618 0.047961
Si Si6 0.846901 0.998929 0.673425
O O1 0.868678 0.846955 0.513401
O O2 0.910837 0.723158 0.536204
O O3 0.981469 0.868266 0.602900
O O4 0.293314 0.336108 0.557068
O O5 0.169868 0.351641 0.614530
O O6 0.331453 0.414016 0.666214
O O7 0.223066 0.253515 0.660737
O O8 0.030627 0.708266 0.113686
O O9 0.006085 0.773137 0.221949
O O10 0.015284 0.248623 0.658540
O O11 0.569564 0.423729 0.041163
O O12 0.736734 0.485514 0.040050
#
# Coordination Sequence:
#
# PCOD9575047 Si02
#       6
#    18  18  18  18  18  18
#     4  11  20  30  50  80 109 142 177 212 265 321
#     4   9  21  35  55  80 107 143 178 218 270 310
#     4  10  20  34  54  78 105 140 178 220 262 313
#     4  10  20  39  56  79 110 139 181 222 261 319
#     4  10  21  35  53  78 110 143 179 214 266 321
#     4  10  19  33  50  75 111 144 170 218 265 314
#
# _framework density 18.734711999999998
#
# number of rings (size 3 to 8) (size 9 to 14) (size 15 to 20)
#    0.000    2.000    0.000    5.500    0.000   10.000 
#    0.000    9.167    0.000    0.333    0.000    0.000 
#    0.000    0.000    0.000    0.000    0.000    0.000 
#
# Total GULP energy -200944.836009 kJ/mol
# GULP energy per Si atom -5581.801000 kJ/mol
# Density = 1.869207 g / cm^3
# Si number density = 18.734712 Si / 1000 Ang^3
#
#
#
# Elastic Constant Matrix: (Units=GPa)
#
#
# Indices 1 2 3 4 5 6 
#
# 1 38.6348 30.2483 32.0355 0.8611 0.0058 0.0000
# 2 30.2483 38.6348 32.0355 -0.8611 -0.0058 0.0000
# 3 32.0355 32.0355 106.1670 0.0000 0.0000 0.0000
# 4 0.8611 -0.8611 0.0000 15.5315 0.0000 -0.0058
# 5 0.0058 -0.0058 0.0000 0.0000 15.5315 0.8611
# 6 0.0000 0.0000 0.0000 -0.0058 0.8611 4.1933
#
#
#
# Elastic Compliance Matrix: (Units=1/GPa)
#
#
# Indices 1 2 3 4 5 6 
#
# 1 0.070397 -0.050215 -0.006090 -0.006687 -0.000045 0.000000
# 2 -0.050215 0.070397 -0.006090 0.006687 0.000045 0.000000
# 3 -0.006090 -0.006090 0.013094 0.000000 0.000000 0.000000
# 4 -0.006687 0.006687 0.000000 0.065127 0.000000 0.000090
# 5 -0.000045 0.000045 0.000000 0.000000 0.065127 -0.013375
# 6 0.000000 0.000000 0.000000 0.000090 -0.013375 0.241225
#
#
# Mechanical properties :
#
#
# Convention : Reuss Voigt Hill
#
# Bulk Modulus (GPa) = 34.36594 41.34169 37.85381
# Shear Modulus (GPa) = 7.57740 12.99240 10.28490
#
# Velocity S-wave (km/s) = 2.01330 2.63628 2.34556
# Velocity P-wave (km/s) = 4.87727 5.60191 5.25210
#
# Compressibility (1/GPa) = 0.02909858
#
# Stress axis : x y z
#
# Youngs Moduli (GPa) = 14.20513 14.20513 76.36955
#
# Poissons Ratio (x) = 0.71332 0.46507
# Poissons Ratio (y) = 0.71332 0.46507
# Poissons Ratio (z) = 0.08651 0.08651
#
# Static dielectric constant tensor:
#      x y z
#    x 1.660910 0.000000 0.000000 
#    y 0.000000 1.660910 0.000000 
#    z 0.000000 0.000000 1.658590 
# 
# From -- ./inp_files/3100.got.cif
#   From: 2010.05.17/outbox.cif.g08.bks.cpg/sg148_2_cif.got.tgz:3100.got - 2010.05.20 13:50:20.
