data_PCOD9575814
_publ_section_title
;
Structure prediction by ZEFSAII (Michael W. Deem and Ramdas Pophale) SiO2 
 PCOD9575814
Probable space group: P 31 2 1
;
_chemical_formula_sum "Si O2"
_cell_formula_units_Z 30
_cell_length_a 13.723847
_cell_length_b 13.723847
_cell_length_c 8.005203
_cell_angle_alpha 90.000000
_cell_angle_beta 90.000000
_cell_angle_gamma 120.000000
_cell_volume 1305.734011
_symmetry_space_group_name_H-M "P 31 2 1"
_symmetry_group_IT_number 152
_symmetry_cell_setting 'hexagonal'
loop_
_space_group_symop_operation_xyz
x,y,z
-y,x-y,1/3+z
-x+y,-x,2/3+z
x-y,-y,2/3-z
-x,-x+y,1/3-z
y,x,-z
loop_
_atom_site_type_symbol
_atom_site_label
_atom_site_fract_x
_atom_site_fract_y
_atom_site_fract_z
Si Si1 0.261611 0.374623 0.351204
Si Si2 0.459733 0.385019 0.171853
Si Si3 0.831035 0.225205 0.305885
Si Si4 0.058197 0.376304 0.487389
Si Si5 0.356512 0.627857 0.453367
O O1 0.370595 0.360219 0.321591
O O2 0.154920 0.342138 0.472193
O O3 0.322230 0.507185 0.383954
O O4 0.199703 0.332236 0.170416
O O5 0.435335 0.261451 0.119920
O O6 0.585430 0.490763 0.210906
O O7 0.427032 0.427032 0.000000
O O8 0.799906 0.309860 0.215866
O O9 0.957896 0.295622 0.363800
O O10 0.000000 0.347090 0.666667
O O11 0.317109 0.635203 0.639418
#
# Coordination Sequence:
#
# PCOD9575814 Si02
#       5
#     6   6   6   6   6
#     4  10  20  36  56  84 117 163 213 257 311 394
#     4   9  19  37  58  82 120 166 209 257 322 390
#     4  10  20  36  57  83 117 164 207 261 313 382
#     4  11  22  37  57  86 126 166 206 265 329 391
#     4  10  20  32  55  82 118 160 210 252 309 377
#
# _framework density 22.975584000000001
#
# number of rings (size 3 to 8) (size 9 to 14) (size 15 to 20)
#    0.000    2.000    2.000    1.800    5.600    0.000 
#    0.000    1.000    0.000    0.000    0.000   12.600 
#    0.000    0.000    0.000    0.000    0.000    0.000 
#
# Total GULP energy -167087.118725 kJ/mol
# GULP energy per Si atom -5569.570624 kJ/mol
# Density = 2.292329 g / cm^3
# Si number density = 22.975584 Si / 1000 Ang^3
#
#
#
# Elastic Constant Matrix: (Units=GPa)
#
#
# Indices 1 2 3 4 5 6 
#
# 1 59.7646 19.7615 37.7733 -1.3615 0.0000 0.0000
# 2 19.7615 59.7646 37.7733 1.3615 0.0000 0.0000
# 3 37.7733 37.7733 101.9272 0.0000 0.0000 0.0000
# 4 -1.3615 1.3615 0.0000 35.4741 0.0000 0.0000
# 5 0.0000 0.0000 0.0000 0.0000 35.4741 -1.3615
# 6 0.0000 0.0000 0.0000 0.0000 -1.3615 20.0016
#
#
#
# Elastic Compliance Matrix: (Units=1/GPa)
#
#
# Indices 1 2 3 4 5 6 
#
# 1 0.022235 -0.002829 -0.007192 0.000962 0.000000 0.000000
# 2 -0.002829 0.022235 -0.007192 -0.000962 0.000000 0.000000
# 3 -0.007192 -0.007192 0.015141 0.000000 0.000000 0.000000
# 4 0.000962 -0.000962 0.000000 0.028263 0.000000 0.000000
# 5 0.000000 0.000000 0.000000 0.000000 0.028263 0.001924
# 6 0.000000 0.000000 0.000000 0.000000 0.001924 0.050127
#
#
# Mechanical properties :
#
#
# Convention : Reuss Voigt Hill
#
# Bulk Modulus (GPa) = 39.70320 45.78585 42.74453
# Shear Modulus (GPa) = 23.91369 26.59986 25.25677
#
# Velocity S-wave (km/s) = 3.22969 3.40626 3.31915
# Velocity P-wave (km/s) = 5.58802 5.95327 5.77353
#
# Compressibility (1/GPa) = 0.02518689
#
# Stress axis : x y z
#
# Youngs Moduli (GPa) = 44.97417 44.97417 66.04412
#
# Poissons Ratio (x) = 0.12721 0.47498
# Poissons Ratio (y) = 0.12721 0.47498
# Poissons Ratio (z) = 0.32345 0.32345
#
# Static dielectric constant tensor:
#      x y z
#    x 1.942190 0.000000 0.000000 
#    y 0.000000 1.942190 0.000000 
#    z 0.000000 0.000000 2.071390 
# 
# From -- ./inp_files/1044.got.cif
#   From: 2010.05.17/outbox.cif.g08.bks.cpg/sg152_1_cif.got.tgz:1044.got - 2010.05.20 10:36:06.
