data_PCOD9575276
_publ_section_title
;
Structure prediction by ZEFSAII (Michael W. Deem and Ramdas Pophale) SiO2 
 PCOD9575276
Probable space group: R -3
;
_chemical_formula_sum "Si O2"
_cell_formula_units_Z 54
_cell_length_a 18.918321
_cell_length_b 18.918321
_cell_length_c 7.568889
_cell_angle_alpha 90.000000
_cell_angle_beta 90.000000
_cell_angle_gamma 120.000000
_cell_volume 2345.999678
_symmetry_space_group_name_H-M "R -3"
_symmetry_group_IT_number 148
_symmetry_cell_setting 'hexagonal'
loop_
_space_group_symop_operation_xyz
x,y,z
-y,x-y,z
-x+y,-x,z
-x,-y,-z
y,-x+y,-z
x-y,x,-z
2/3+x,1/3+y,1/3+z
2/3-y,1/3+x-y,1/3+z
2/3-x+y,1/3-x,1/3+z
2/3-x,1/3-y,1/3-z
2/3+y,1/3-x+y,1/3-z
2/3+x-y,1/3+x,1/3-z
1/3+x,2/3+y,2/3+z
1/3-y,2/3+x-y,2/3+z
1/3-x+y,2/3-x,2/3+z
1/3-x,2/3-y,2/3-z
1/3+y,2/3-x+y,2/3-z
1/3+x-y,2/3+x,2/3-z
loop_
_atom_site_type_symbol
_atom_site_label
_atom_site_fract_x
_atom_site_fract_y
_atom_site_fract_z
Si Si1 0.798157 0.176032 0.427755
Si Si2 0.378529 0.046038 0.449983
Si Si3 0.229814 0.475854 0.223887
O O1 0.865586 0.266957 0.388319
O O2 0.748203 0.125080 0.261609
O O3 0.745024 0.191158 0.578017
O O4 0.852266 0.134458 0.482758
O O5 0.346665 0.025635 0.647697
O O6 0.191915 0.528868 0.134922
#
# Coordination Sequence:
#
# PCOD9575276 Si02
#       3
#    18  18  18
#     4  11  23  40  65  96 131 169 215 270 321 380
#     4  12  24  41  66  97 132 170 216 268 322 381
#     4  11  23  42  67  96 130 172 218 264 323 387
#
# _framework density 23.017907000000001
#
# number of rings (size 3 to 8) (size 9 to 14) (size 15 to 20)
#    0.000    0.667    0.000   11.333    0.000    2.667 
#    0.000    0.000    0.000    2.667    0.000    0.000 
#    0.000    0.000    0.000    0.000    0.000    0.000 
#
# Total GULP energy -100338.419877 kJ/mol
# GULP energy per Si atom -5574.356660 kJ/mol
# Density = 2.296552 g / cm^3
# Si number density = 23.017907 Si / 1000 Ang^3
#
#
#
# Elastic Constant Matrix: (Units=GPa)
#
#
# Indices 1 2 3 4 5 6 
#
# 1 108.8108 30.4789 1.9610 0.2080 0.4651 0.0028
# 2 30.4789 108.8141 1.9595 -0.2015 -0.4421 0.0020
# 3 1.9610 1.9595 52.4437 0.0068 0.0248 0.0045
# 4 0.2080 -0.2015 0.0068 28.9869 0.0040 -0.4522
# 5 0.4651 -0.4421 0.0248 0.0040 28.9986 0.2063
# 6 0.0028 0.0020 0.0045 -0.4522 0.2063 39.1664
#
#
#
# Elastic Compliance Matrix: (Units=1/GPa)
#
#
# Indices 1 2 3 4 5 6 
#
# 1 0.009978 -0.002791 -0.000269 -0.000091 -0.000202 -0.000001
# 2 -0.002791 0.009978 -0.000269 0.000089 0.000197 0.000000
# 3 -0.000269 -0.000269 0.019088 -0.000004 -0.000016 -0.000002
# 4 -0.000091 0.000089 -0.000004 0.034506 -0.000005 0.000398
# 5 -0.000202 0.000197 -0.000016 -0.000005 0.034492 -0.000182
# 6 -0.000001 0.000000 -0.000002 0.000398 -0.000182 0.025538
#
#
# Mechanical properties :
#
#
# Convention : Reuss Voigt Hill
#
# Bulk Modulus (GPa) = 30.87644 37.65195 34.26419
# Shear Modulus (GPa) = 33.10573 35.14166 34.12370
#
# Velocity S-wave (km/s) = 3.79655 3.91155 3.85448
# Velocity P-wave (km/s) = 5.71504 6.06577 5.89301
#
# Compressibility (1/GPa) = 0.03238716
#
# Stress axis : x y z
#
# Youngs Moduli (GPa) = 100.22124 100.22511 52.38853
#
# Poissons Ratio (x) = 0.27973 0.01408
# Poissons Ratio (y) = 0.27972 0.01407
# Poissons Ratio (z) = 0.02693 0.02691
#
# Static dielectric constant tensor:
#      x y z
#    x 1.940350 0.000000 -0.000010 
#    y 0.000000 1.940360 0.000000 
#    z -0.000010 0.000000 1.960740 
# 
# From -- ./inp_files/658.got.cif
#   From: 2010.05.17/outbox.cif.g08.bks.cpg/sg148_1_cif.got.tgz:658.got - 2010.05.20 13:50:20.
