data_PCOD9575087
_publ_section_title
;
Structure prediction by ZEFSAII (Michael W. Deem and Ramdas Pophale) SiO2 
 PCOD9575087
Probable space group: R -3
;
_chemical_formula_sum "Si O2"
_cell_formula_units_Z 72
_cell_length_a 18.655947
_cell_length_b 18.655947
_cell_length_c 8.642165
_cell_angle_alpha 90.000000
_cell_angle_beta 90.000000
_cell_angle_gamma 120.000000
_cell_volume 2604.880377
_symmetry_space_group_name_H-M "R -3"
_symmetry_group_IT_number 148
_symmetry_cell_setting 'hexagonal'
loop_
_space_group_symop_operation_xyz
x,y,z
-y,x-y,z
-x+y,-x,z
-x,-y,-z
y,-x+y,-z
x-y,x,-z
2/3+x,1/3+y,1/3+z
2/3-y,1/3+x-y,1/3+z
2/3-x+y,1/3-x,1/3+z
2/3-x,1/3-y,1/3-z
2/3+y,1/3-x+y,1/3-z
2/3+x-y,1/3+x,1/3-z
1/3+x,2/3+y,2/3+z
1/3-y,2/3+x-y,2/3+z
1/3-x+y,2/3-x,2/3+z
1/3-x,2/3-y,2/3-z
1/3+y,2/3-x+y,2/3-z
1/3+x-y,2/3+x,2/3-z
loop_
_atom_site_type_symbol
_atom_site_label
_atom_site_fract_x
_atom_site_fract_y
_atom_site_fract_z
Si Si1 0.770186 0.078721 0.827796
Si Si2 0.426718 0.271828 0.328032
Si Si3 0.097572 0.894844 0.418193
Si Si4 0.775247 0.293919 0.091169
O O1 0.819100 0.074505 0.677864
O O2 0.727137 0.129062 0.771976
O O3 0.722969 0.988064 0.904081
O O4 0.844054 0.138918 0.949125
O O5 0.500032 0.276835 0.217033
O O6 0.472391 0.324360 0.478760
O O7 0.105762 0.919375 0.595601
O O8 0.044695 0.927452 0.319718
#
# Coordination Sequence:
#
# PCOD9575087 Si02
#       4
#    18  18  18  18
#     4   9  19  37  59  90 124 160 202 251 306 369
#     4   9  19  35  59  86 125 162 197 248 308 366
#     4  10  20  36  61  88 121 161 208 256 306 364
#     4  10  20  37  61  88 122 162 203 252 308 363
#
# _framework density 27.640426999999999
#
# number of rings (size 3 to 8) (size 9 to 14) (size 15 to 20)
#    0.000    2.500    0.000    1.500    0.000    4.000 
#    0.000   10.000    0.000  177.500    0.000    0.000 
#    0.000    0.000    0.000    0.000    0.000    0.000 
#
# Total GULP energy -133660.458492 kJ/mol
# GULP energy per Si atom -5569.185770 kJ/mol
# Density = 2.757752 g / cm^3
# Si number density = 27.640427 Si / 1000 Ang^3
#
#
#
# Elastic Constant Matrix: (Units=GPa)
#
#
# Indices 1 2 3 4 5 6 
#
# 1 65.9982 21.9310 33.8923 -7.8689 -1.0112 0.0001
# 2 21.9310 65.9982 33.8924 7.8689 1.0109 0.0000
# 3 33.8923 33.8924 184.3457 0.0000 -0.0006 -0.0001
# 4 -7.8689 7.8689 0.0000 41.6246 0.0000 1.0110
# 5 -1.0112 1.0109 -0.0006 0.0000 41.6241 -7.8689
# 6 0.0001 0.0000 -0.0001 1.0110 -7.8689 22.0337
#
#
#
# Elastic Compliance Matrix: (Units=1/GPa)
#
#
# Indices 1 2 3 4 5 6 
#
# 1 0.018808 -0.005557 -0.002436 0.004606 0.000592 0.000000
# 2 -0.005557 0.018808 -0.002436 -0.004606 -0.000592 0.000000
# 3 -0.002436 -0.002436 0.006320 0.000000 0.000000 0.000000
# 4 0.004606 -0.004606 0.000000 0.025794 0.000000 -0.001184
# 5 0.000592 -0.000592 0.000000 0.000000 0.025795 0.009212
# 6 0.000000 0.000000 0.000000 -0.001184 0.009212 0.048729
#
#
# Mechanical properties :
#
#
# Convention : Reuss Voigt Hill
#
# Bulk Modulus (GPa) = 43.33263 55.08595 49.20929
# Shear Modulus (GPa) = 28.93422 36.16491 32.54957
#
# Velocity S-wave (km/s) = 3.23895 3.62111 3.43535
# Velocity P-wave (km/s) = 5.44968 6.12013 5.79461
#
# Compressibility (1/GPa) = 0.02307730
#
# Stress axis : x y z
#
# Youngs Moduli (GPa) = 53.16947 53.16941 158.21814
#
# Poissons Ratio (x) = 0.29546 0.38545
# Poissons Ratio (y) = 0.29546 0.38545
# Poissons Ratio (z) = 0.12953 0.12953
#
# Static dielectric constant tensor:
#      x y z
#    x 2.373370 0.000000 0.000000 
#    y 0.000000 2.373370 0.000000 
#    z 0.000000 0.000000 2.130780 
# 
# From -- ./inp_files/825.got.cif
#   From: 2010.05.17/outbox.cif.g08.bks.cpg/sg148_1_cif.got.tgz:825.got - 2010.05.20 13:50:20.
