data_PCOD9575669
_publ_section_title
;
Structure prediction by ZEFSAII (Michael W. Deem and Ramdas Pophale) SiO2 
 PCOD9575669
Probable space group: P 31 1 2
;
_chemical_formula_sum "Si O2"
_cell_formula_units_Z 30
_cell_length_a 13.651773
_cell_length_b 13.651773
_cell_length_c 9.169821
_cell_angle_alpha 90.000000
_cell_angle_beta 90.000000
_cell_angle_gamma 120.000000
_cell_volume 1480.026891
_symmetry_space_group_name_H-M "P 31 1 2"
_symmetry_group_IT_number 151
_symmetry_cell_setting 'hexagonal'
loop_
_space_group_symop_operation_xyz
x,y,z
-y,x-y,1/3+z
-x+y,-x,2/3+z
-y,-x,2/3-z
-x+y,y,1/3-z
x,x-y,-z
loop_
_atom_site_type_symbol
_atom_site_label
_atom_site_fract_x
_atom_site_fract_y
_atom_site_fract_z
Si Si1 0.185983 0.135184 0.662329
Si Si2 0.389848 0.500253 0.980874
Si Si3 0.744082 0.909850 0.644269
Si Si4 0.294865 0.246788 0.923120
Si Si5 0.285005 0.457497 0.511883
O O1 0.205017 0.102509 0.500000
O O2 0.289758 0.239831 0.746250
O O3 0.069150 0.138299 0.666667
O O4 0.178661 0.026488 0.743193
O O5 0.462340 0.537661 0.833334
O O6 0.356979 0.370494 0.993460
O O7 0.279753 0.508098 0.930992
O O8 0.457760 0.586050 0.110706
O O9 0.679849 0.839925 0.500000
O O10 0.794130 0.837167 0.716413
O O11 0.658510 0.913246 0.762059
O O12 0.331081 0.165540 0.000000
O O13 0.217094 0.434188 0.666667
#
# Coordination Sequence:
#
# PCOD9575669 Si02
#       5
#     6   6   6   6   6
#     4  12  23  32  56  87 127 171 203 246 304 390
#     4   9  20  38  64  87 119 165 213 269 324 390
#     4  11  21  35  56  89 130 166 203 262 321 397
#     4  11  22  38  57  87 127 162 209 257 323 387
#     4   9  20  39  61  85 122 160 216 262 329 389
#
# _framework density 20.269904
#
# number of rings (size 3 to 8) (size 9 to 14) (size 15 to 20)
#    0.000    1.600    4.000    1.200    8.400    0.000 
#    0.000   28.000    0.000    0.000    5.200    0.000 
#    0.000    0.000    0.000    0.000    0.000    0.000 
#
# Total GULP energy -167119.922669 kJ/mol
# GULP energy per Si atom -5570.664089 kJ/mol
# Density = 2.022377 g / cm^3
# Si number density = 20.269904 Si / 1000 Ang^3
#
#
#
# Elastic Constant Matrix: (Units=GPa)
#
#
# Indices 1 2 3 4 5 6 
#
# 1 107.6276 55.2743 30.8805 0.0000 -10.4504 0.0000
# 2 55.2743 107.6276 30.8805 0.0000 10.4504 0.0000
# 3 30.8805 30.8805 113.0533 0.0000 0.0000 0.0000
# 4 0.0000 0.0000 0.0000 35.7872 0.0000 10.4504
# 5 -10.4504 10.4504 0.0000 0.0000 35.7872 0.0000
# 6 0.0000 0.0000 0.0000 10.4504 0.0000 26.1766
#
#
#
# Elastic Compliance Matrix: (Units=1/GPa)
#
#
# Indices 1 2 3 4 5 6 
#
# 1 0.014235 -0.007387 -0.001870 0.000000 0.006314 0.000000
# 2 -0.007387 0.014235 -0.001870 0.000000 -0.006314 0.000000
# 3 -0.001870 -0.001870 0.009867 0.000000 0.000000 0.000000
# 4 0.000000 0.000000 0.000000 0.031630 0.000000 -0.012628
# 5 0.006314 -0.006314 0.000000 0.000000 0.031630 0.000000
# 6 0.000000 0.000000 0.000000 -0.012628 0.000000 0.043243
#
#
# Mechanical properties :
#
#
# Convention : Reuss Voigt Hill
#
# Bulk Modulus (GPa) = 62.18540 62.48656 62.33598
# Shear Modulus (GPa) = 28.99276 33.63507 31.31392
#
# Velocity S-wave (km/s) = 3.78608 4.07794 3.93472
# Velocity P-wave (km/s) = 7.06101 7.28471 7.17373
#
# Compressibility (1/GPa) = 0.01608094
#
# Stress axis : x y z
#
# Youngs Moduli (GPa) = 70.25073 70.25073 101.34560
#
# Poissons Ratio (x) = 0.51894 0.18956
# Poissons Ratio (y) = 0.51894 0.18956
# Poissons Ratio (z) = 0.13140 0.13140
#
# Static dielectric constant tensor:
#      x y z
#    x 1.798060 0.000000 0.000000 
#    y 0.000000 1.798060 0.000000 
#    z 0.000000 0.000000 1.927260 
# 
# From -- ./inp_files/1554.got.cif
#   From: 2010.05.17/outbox.cif.g08.bks.cpg/sg151_1_cif.got.tgz:1554.got - 2010.05.20 10:33:20.
