data_PCOD9575890
_publ_section_title
;
Structure prediction by ZEFSAII (Michael W. Deem and Ramdas Pophale) SiO2 
 PCOD9575890
Probable space group: P 31 2 1
;
_chemical_formula_sum "Si O2"
_cell_formula_units_Z 30
_cell_length_a 18.192118
_cell_length_b 18.192118
_cell_length_c 5.487542
_cell_angle_alpha 90.000000
_cell_angle_beta 90.000000
_cell_angle_gamma 120.000000
_cell_volume 1572.805494
_symmetry_space_group_name_H-M "P 31 2 1"
_symmetry_group_IT_number 152
_symmetry_cell_setting 'hexagonal'
loop_
_space_group_symop_operation_xyz
x,y,z
-y,x-y,1/3+z
-x+y,-x,2/3+z
x-y,-y,2/3-z
-x,-x+y,1/3-z
y,x,-z
loop_
_atom_site_type_symbol
_atom_site_label
_atom_site_fract_x
_atom_site_fract_y
_atom_site_fract_z
Si Si1 0.744522 0.903374 0.228332
Si Si2 0.591623 0.252848 0.860108
Si Si3 0.162852 0.715462 0.639418
Si Si4 0.609246 0.098788 0.854529
Si Si5 0.873695 0.873695 0.500000
Si Si6 0.000000 0.857442 0.166667
O O1 0.647037 0.851294 0.301299
O O2 0.796580 0.859211 0.325933
O O3 0.784207 0.000000 0.333334
O O4 0.770057 0.925619 0.945546
O O5 0.606485 0.312743 0.631191
O O6 0.522782 0.261986 0.020125
O O7 0.564382 0.155662 0.829798
O O8 0.123372 0.668572 0.384610
O O9 0.120054 0.659385 0.885071
O O10 0.544457 0.000000 0.833334
O O11 0.888930 0.956720 0.640594
#
# Coordination Sequence:
#
# PCOD9575890 Si02
#       6
#     6   6   6   6   3   3
#     4  10  22  37  56  86 121 166 208 260 316 371
#     4  10  20  41  65  94 126 165 209 256 312 375
#     4  11  24  39  67  92 130 166 208 258 321 379
#     4  11  23  39  65  96 128 162 213 264 313 378
#     4  10  22  37  56  86 119 166 212 268 309 378
#     4  10  22  37  60  80 123 156 226 258 319 368
#
# _framework density 19.074193999999999
#
# number of rings (size 3 to 8) (size 9 to 14) (size 15 to 20)
#    0.000    1.600    2.000    2.400    7.000    8.000 
#    1.800    0.000    0.000    4.800    0.000    0.000 
#    0.000    0.000    0.000    0.000    0.000    0.000 
#
# Total GULP energy -167185.471682 kJ/mol
# GULP energy per Si atom -5572.849056 kJ/mol
# Density = 1.903078 g / cm^3
# Si number density = 19.074194 Si / 1000 Ang^3
#
#
#
# Elastic Constant Matrix: (Units=GPa)
#
#
# Indices 1 2 3 4 5 6 
#
# 1 92.5952 55.6411 23.4471 2.6563 0.0000 0.0000
# 2 55.6411 92.5952 23.4471 -2.6563 0.0000 0.0000
# 3 23.4471 23.4471 83.8994 0.0000 0.0000 0.0000
# 4 2.6563 -2.6563 0.0000 15.7930 0.0000 0.0000
# 5 0.0000 0.0000 0.0000 0.0000 15.7930 2.6563
# 6 0.0000 0.0000 0.0000 0.0000 2.6563 18.4771
#
#
#
# Elastic Compliance Matrix: (Units=1/GPa)
#
#
# Indices 1 2 3 4 5 6 
#
# 1 0.017566 -0.010165 -0.002068 -0.004664 0.000000 0.000000
# 2 -0.010165 0.017566 -0.002068 0.004664 0.000000 0.000000
# 3 -0.002068 -0.002068 0.013075 0.000000 0.000000 0.000000
# 4 -0.004664 0.004664 0.000000 0.064888 0.000000 0.000000
# 5 0.000000 0.000000 0.000000 0.000000 0.064888 -0.009329
# 6 0.000000 0.000000 0.000000 0.000000 -0.009329 0.055462
#
#
# Mechanical properties :
#
#
# Convention : Reuss Voigt Hill
#
# Bulk Modulus (GPa) = 51.01269 52.68449 51.84859
# Shear Modulus (GPa) = 18.61624 21.11625 19.86625
#
# Velocity S-wave (km/s) = 3.12747 3.33086 3.23077
# Velocity P-wave (km/s) = 6.31220 6.51718 6.41551
#
# Compressibility (1/GPa) = 0.01960296
#
# Stress axis : x y z
#
# Youngs Moduli (GPa) = 56.92917 56.92917 76.48196
#
# Poissons Ratio (x) = 0.57871 0.15817
# Poissons Ratio (y) = 0.57871 0.15817
# Poissons Ratio (z) = 0.11774 0.11774
#
# Static dielectric constant tensor:
#      x y z
#    x 1.673330 0.000000 0.000000 
#    y 0.000000 1.673330 0.000000 
#    z 0.000000 0.000000 1.791000 
# 
# From -- ./inp_files/356.got.cif
#   From: 2010.05.17/outbox.cif.g08.bks.cpg/sg152_1_cif.got.tgz:356.got - 2010.05.20 10:36:06.
