data_PCOD9575516
_publ_section_title
;
Structure prediction by ZEFSAII (Michael W. Deem and Ramdas Pophale) SiO2 
 PCOD9575516
Probable space group: P 31 1 2
;
_chemical_formula_sum "Si O2"
_cell_formula_units_Z 39
_cell_length_a 9.403853
_cell_length_b 9.403853
_cell_length_c 28.110563
_cell_angle_alpha 90.000000
_cell_angle_beta 90.000000
_cell_angle_gamma 120.000000
_cell_volume 2152.840420
_symmetry_space_group_name_H-M "P 31 1 2"
_symmetry_group_IT_number 151
_symmetry_cell_setting 'hexagonal'
loop_
_space_group_symop_operation_xyz
x,y,z
-y,x-y,1/3+z
-x+y,-x,2/3+z
-y,-x,2/3-z
-x+y,y,1/3-z
x,x-y,-z
loop_
_atom_site_type_symbol
_atom_site_label
_atom_site_fract_x
_atom_site_fract_y
_atom_site_fract_z
Si Si1 0.256010 0.721242 0.889949
Si Si2 0.221390 0.927217 0.163412
Si Si3 0.631645 0.213780 0.283464
Si Si4 0.357725 0.269383 0.123998
Si Si5 0.429677 0.546710 0.756855
Si Si6 0.842694 0.685387 0.166667
Si Si7 0.566703 0.114044 0.553476
O O1 0.290441 0.709560 0.833334
O O2 0.387392 0.695267 0.919344
O O3 0.072935 0.577770 0.901827
O O4 0.279384 0.901941 0.893232
O O5 0.302555 0.879647 0.119740
O O6 0.340171 0.947681 0.207166
O O7 0.036343 0.794989 0.176395
O O8 0.230198 0.094556 0.146756
O O9 0.701027 0.298974 0.333334
O O10 0.783846 0.240844 0.250603
O O11 0.546524 0.301825 0.255902
O O12 0.508853 0.017520 0.284238
O O13 0.482734 0.360814 0.167452
O O14 0.734732 0.574523 0.210872
#
# Coordination Sequence:
#
# PCOD9575516 Si02
#       7
#     6   6   6   6   6   3   6
#     4  10  19  33  59  91 113 138 183 235 285 337
#     4  10  19  30  53  87 112 143 170 232 277 332
#     4  11  23  38  57  78 111 154 194 230 279 336
#     4  10  20  36  59  84 113 143 185 232 282 335
#     4  10  18  36  52  78 115 143 184 219 282 325
#     4  12  20  30  56  94 114 136 186 230 288 328
#     4  11  20  36  56  86 113 144 182 235 282 334
#
# _framework density 18.115603
#
# number of rings (size 3 to 8) (size 9 to 14) (size 15 to 20)
#    0.000    1.538    6.154    0.923    3.231    0.000 
#    0.000    2.308    0.000    0.000    0.000    0.000 
#    0.000    0.000    0.000    0.000    0.000    0.000 
#
# Total GULP energy -217431.193988 kJ/mol
# GULP energy per Si atom -5575.158820 kJ/mol
# Density = 1.807437 g / cm^3
# Si number density = 18.115603 Si / 1000 Ang^3
#
#
#
# Elastic Constant Matrix: (Units=GPa)
#
#
# Indices 1 2 3 4 5 6 
#
# 1 89.4941 32.1435 5.4600 0.0003 1.3647 0.0000
# 2 32.1435 89.4941 5.4600 -0.0003 -1.3647 0.0000
# 3 5.4600 5.4600 22.9296 0.0000 0.0000 0.0000
# 4 0.0003 -0.0003 0.0000 5.4979 0.0000 -1.3647
# 5 1.3647 -1.3647 0.0000 0.0000 5.4979 0.0003
# 6 0.0000 0.0000 0.0000 -1.3647 0.0003 28.6753
#
#
#
# Elastic Compliance Matrix: (Units=1/GPa)
#
#
# Indices 1 2 3 4 5 6 
#
# 1 0.013023 -0.004622 -0.002000 -0.000001 -0.004380 0.000000
# 2 -0.004622 0.013023 -0.002000 0.000001 0.004380 0.000000
# 3 -0.002000 -0.002000 0.044564 0.000000 0.000000 0.000000
# 4 -0.000001 0.000001 0.000000 0.184061 0.000000 0.008759
# 5 -0.004380 0.004380 0.000000 0.000000 0.184061 -0.000002
# 6 0.000000 0.000000 0.000000 0.008759 -0.000002 0.035290
#
#
# Mechanical properties :
#
#
# Convention : Reuss Voigt Hill
#
# Bulk Modulus (GPa) = 18.73909 32.00495 25.37202
# Shear Modulus (GPa) = 9.82209 18.52451 14.17330
#
# Velocity S-wave (km/s) = 2.33102 3.20124 2.80014
# Velocity P-wave (km/s) = 4.19661 5.60083 4.94878
#
# Compressibility (1/GPa) = 0.05336437
#
# Stress axis : x y z
#
# Youngs Moduli (GPa) = 76.78789 76.78789 22.43942
#
# Poissons Ratio (x) = 0.35493 0.04489
# Poissons Ratio (y) = 0.35493 0.04489
# Poissons Ratio (z) = 0.15360 0.15360
#
# Static dielectric constant tensor:
#      x y z
#    x 1.671300 0.000000 0.000000 
#    y 0.000000 1.671300 0.000000 
#    z 0.000000 0.000000 1.578680 
# 
# From -- ./inp_files/4954.got.cif
#   From: 2010.05.17/outbox.cif.g08.bks.cpg/sg151_3_cif.got.tgz:4954.got - 2010.05.20 10:33:20.
