data_PCOD9575386
_publ_section_title
;
Structure prediction by ZEFSAII (Michael W. Deem and Ramdas Pophale) SiO2 
 PCOD9575386
Probable space group: P 3 1 2
;
_chemical_formula_sum "Si O2"
_cell_formula_units_Z 42
_cell_length_a 8.613744
_cell_length_b 8.613744
_cell_length_c 31.191126
_cell_angle_alpha 90.000000
_cell_angle_beta 90.000000
_cell_angle_gamma 120.000000
_cell_volume 2004.220987
_symmetry_space_group_name_H-M "P 3 1 2"
_symmetry_group_IT_number 149
_symmetry_cell_setting 'hexagonal'
loop_
_space_group_symop_operation_xyz
x,y,z
-y,x-y,z
-x+y,-x,z
-y,-x,-z
-x+y,y,-z
x,x-y,-z
loop_
_atom_site_type_symbol
_atom_site_label
_atom_site_fract_x
_atom_site_fract_y
_atom_site_fract_z
Si Si1 0.326695 0.992345 0.343500
Si Si2 0.666303 0.988024 0.758241
Si Si3 0.680593 0.546533 0.891124
Si Si4 0.995081 0.333374 0.620468
Si Si5 0.258210 0.430974 0.046102
Si Si6 0.668514 0.011738 0.206094
Si Si7 0.334500 0.000854 0.518131
O O1 0.194592 0.805018 0.365612
O O2 0.305492 0.965893 0.292658
O O3 0.526511 0.054508 0.359091
O O4 0.279049 0.139789 0.359843
O O5 0.861806 0.139488 0.772809
O O6 0.526945 0.050537 0.771895
O O7 0.615379 0.806136 0.783364
O O8 0.506015 0.343315 0.895285
O O9 0.694041 0.701351 0.923064
O O10 0.676936 0.616762 0.843695
O O11 0.988106 0.331224 0.569295
O O12 0.458911 0.609509 0.050549
O O13 0.172932 0.345864 0.000000
O O14 0.471356 0.942712 0.500000
O O15 0.389666 0.194833 0.500000
O O16 0.139306 0.860695 0.500000
#
# Coordination Sequence:
#
# PCOD9575386 Si02
#       7
#     6   6   6   6   6   6   6
#     4  12  25  43  66  94 128 178 220 280 332 405
#     4  12  24  43  65  94 138 176 232 278 343 398
#     4  10  21  40  64 104 135 178 225 283 334 392
#     4  12  25  44  67  95 129 168 224 268 342 410
#     4   8  18  37  66  94 128 175 227 269 329 402
#     4  12  25  43  64 101 135 184 228 287 337 412
#     4  12  25  44  67  96 128 167 211 276 340 409
#
# _framework density 20.955770999999999
#
# number of rings (size 3 to 8) (size 9 to 14) (size 15 to 20)
#    0.571    0.286    1.429    7.286    2.000    0.000 
#    0.000    2.857    0.000    0.571    0.000    0.000 
#    0.000    0.000    0.000    0.000    0.000    0.000 
#
# Total GULP energy -234229.428247 kJ/mol
# GULP energy per Si atom -5576.891149 kJ/mol
# Density = 2.090807 g / cm^3
# Si number density = 20.955771 Si / 1000 Ang^3
#
#
#
# Elastic Constant Matrix: (Units=GPa)
#
#
# Indices 1 2 3 4 5 6 
#
# 1 62.7567 5.0627 43.0841 0.0040 14.3060 0.0000
# 2 5.0627 62.7567 43.0841 -0.0040 -14.3060 0.0000
# 3 43.0841 43.0841 184.1989 0.0000 0.0000 0.0000
# 4 0.0040 -0.0040 0.0000 596.7744 0.0000 -14.3060
# 5 14.3060 -14.3060 0.0000 0.0000 596.7744 0.0040
# 6 0.0000 0.0000 0.0000 -14.3060 0.0040 28.8470
#
#
#
# Elastic Compliance Matrix: (Units=1/GPa)
#
#
# Indices 1 2 3 4 5 6 
#
# 1 0.019261 0.001719 -0.004907 0.000000 -0.000421 0.000000
# 2 0.001719 0.019261 -0.004907 0.000000 0.000421 0.000000
# 3 -0.004907 -0.004907 0.007724 0.000000 0.000000 0.000000
# 4 0.000000 0.000000 0.000000 0.001696 0.000000 0.000841
# 5 -0.000421 0.000421 0.000000 0.000000 0.001696 0.000000
# 6 0.000000 0.000000 0.000000 0.000841 0.000000 0.035083
#
#
# Mechanical properties :
#
#
# Convention : Reuss Voigt Hill
#
# Bulk Modulus (GPa) = 33.27179 54.68604 43.97892
# Shear Modulus (GPa) = 45.07393 259.04460 152.05927
#
# Velocity S-wave (km/s) = 4.64282 11.13029 8.52757
# Velocity P-wave (km/s) = 6.68226 13.83222 10.86239
#
# Compressibility (1/GPa) = 0.03005549
#
# Stress axis : x y z
#
# Youngs Moduli (GPa) = 51.91941 51.91941 129.45826
#
# Poissons Ratio (x) = -0.08926 0.63528
# Poissons Ratio (y) = -0.08926 0.63528
# Poissons Ratio (z) = 0.25478 0.25478
#
# Static dielectric constant tensor:
#      x y z
#    x 1.361670 0.000000 0.000000 
#    y 0.000000 1.361670 0.000000 
#    z 0.000000 0.000000 1.750530 
# 
# From -- ./inp_files/1172.got.cif
#   From: 2010.05.17/outbox.cif.g08.bks.cpg/sg149_cif.got.tgz:1172.got - 2010.05.20 13:52:34.
