data_PCOD9575435
_publ_section_title
;
Structure prediction by ZEFSAII (Michael W. Deem and Ramdas Pophale) SiO2 
 PCOD9575435
Probable space group: P 3 2 1
;
_chemical_formula_sum "Si O2"
_cell_formula_units_Z 34
_cell_length_a 15.873692
_cell_length_b 15.873692
_cell_length_c 8.964957
_cell_angle_alpha 90.000000
_cell_angle_beta 90.000000
_cell_angle_gamma 120.000000
_cell_volume 1956.296785
_symmetry_space_group_name_H-M "P 3 2 1"
_symmetry_group_IT_number 150
_symmetry_cell_setting 'hexagonal'
loop_
_space_group_symop_operation_xyz
x,y,z
-y,x-y,z
-x+y,-x,z
x-y,-y,-z
-x,-x+y,-z
y,x,-z
loop_
_atom_site_type_symbol
_atom_site_label
_atom_site_fract_x
_atom_site_fract_y
_atom_site_fract_z
Si Si1 0.607878 0.040935 0.837017
Si Si2 0.966115 0.372786 0.830719
Si Si3 0.666666 0.333334 0.075365
Si Si4 0.654659 0.482376 0.282003
Si Si5 0.666668 0.333335 0.719834
Si Si6 0.212984 0.772017 0.308072
Si Si7 0.537359 0.862818 0.607128
O O1 0.521414 0.066862 0.829022
O O2 0.709776 0.138042 0.820279
O O3 0.587279 0.958635 0.711370
O O4 0.602178 0.000000 0.000000
O O5 0.882938 0.277560 0.747148
O O6 0.067374 0.427021 0.744363
O O7 0.000000 0.366779 0.000000
O O8 0.635484 0.409185 0.142431
O O9 0.666668 0.333334 0.899577
O O10 0.574137 0.415707 0.405217
O O11 0.766130 0.522611 0.314941
O O12 0.555713 0.269889 0.669033
O O13 0.143024 0.730437 0.454193
#
# Coordination Sequence:
#
# PCOD9575435 Si02
#       7
#     6   6   2   6   2   6   6
#     4  10  23  38  55  77 107 153 192 237 282 341
#     4  10  21  34  53  81 110 143 195 242 282 326
#     4   9  18  31  53  76 105 154 191 235 270 346
#     4   9  19  34  54  76 112 148 188 232 282 334
#     4  12  21  28  53  76 108 145 200 226 279 328
#     4  12  22  35  53  79 112 148 191 238 282 342
#     4  10  21  36  54  78 112 150 189 226 290 338
#
# _framework density 17.379774999999999
#
# number of rings (size 3 to 8) (size 9 to 14) (size 15 to 20)
#    0.000    1.765    1.765    3.000    9.882    0.706 
#    0.000    0.000    0.000    0.000    0.000    0.000 
#    1.765    1.412    1.059    0.000    0.000    0.000 
#
# Total GULP energy -189385.904397 kJ/mol
# GULP energy per Si atom -5570.173659 kJ/mol
# Density = 1.734022 g / cm^3
# Si number density = 17.379775 Si / 1000 Ang^3
#
#
#
# Elastic Constant Matrix: (Units=GPa)
#
#
# Indices 1 2 3 4 5 6 
#
# 1 78.8040 35.8526 23.9047 1.3327 0.0000 0.0000
# 2 35.8526 78.8046 23.9048 -1.3328 0.0000 0.0000
# 3 23.9047 23.9048 78.7119 0.0002 0.0000 0.0000
# 4 1.3327 -1.3328 0.0002 20.0464 0.0000 0.0000
# 5 0.0000 0.0000 0.0000 0.0000 20.0464 1.3326
# 6 0.0000 0.0000 0.0000 0.0000 1.3326 21.4756
#
#
#
# Elastic Compliance Matrix: (Units=1/GPa)
#
#
# Indices 1 2 3 4 5 6 
#
# 1 0.016682 -0.006696 -0.003033 -0.001554 0.000000 0.000000
# 2 -0.006696 0.016682 -0.003033 0.001554 0.000000 0.000000
# 3 -0.003033 -0.003033 0.014547 0.000000 0.000000 0.000000
# 4 -0.001554 0.001554 0.000000 0.050091 0.000000 0.000000
# 5 0.000000 0.000000 0.000000 0.000000 0.050091 -0.003108
# 6 0.000000 0.000000 0.000000 0.000000 -0.003108 0.046757
#
#
# Mechanical properties :
#
#
# Convention : Reuss Voigt Hill
#
# Bulk Modulus (GPa) = 44.66685 44.84941 44.75813
# Shear Modulus (GPa) = 21.94555 22.49091 22.21823
#
# Velocity S-wave (km/s) = 3.55731 3.60124 3.57934
# Velocity P-wave (km/s) = 6.52908 6.56913 6.54914
#
# Compressibility (1/GPa) = 0.02238797
#
# Stress axis : x y z
#
# Youngs Moduli (GPa) = 59.94333 59.94380 68.74415
#
# Poissons Ratio (x) = 0.40139 0.20849
# Poissons Ratio (y) = 0.40138 0.20849
# Poissons Ratio (z) = 0.18180 0.18180
#
# Static dielectric constant tensor:
#      x y z
#    x 1.598720 0.000000 0.000000 
#    y 0.000000 1.598720 0.000000 
#    z 0.000000 0.000000 1.721850 
# 
# From -- ./inp_files/666.got.cif
#   From: 2010.05.17/outbox.cif.g08.bks.cpg/sg150_cif.got.tgz:666.got - 2010.05.20 13:53:18.
