data_PCOD9575130
_publ_section_title
;
Structure prediction by ZEFSAII (Michael W. Deem and Ramdas Pophale) SiO2 
 PCOD9575130
Probable space group: R -3
;
_chemical_formula_sum "Si O2"
_cell_formula_units_Z 108
_cell_length_a 20.553742
_cell_length_b 20.553742
_cell_length_c 12.650552
_cell_angle_alpha 90.000000
_cell_angle_beta 90.000000
_cell_angle_gamma 120.000000
_cell_volume 4628.304346
_symmetry_space_group_name_H-M "R -3"
_symmetry_group_IT_number 148
_symmetry_cell_setting 'hexagonal'
loop_
_space_group_symop_operation_xyz
x,y,z
-y,x-y,z
-x+y,-x,z
-x,-y,-z
y,-x+y,-z
x-y,x,-z
2/3+x,1/3+y,1/3+z
2/3-y,1/3+x-y,1/3+z
2/3-x+y,1/3-x,1/3+z
2/3-x,1/3-y,1/3-z
2/3+y,1/3-x+y,1/3-z
2/3+x-y,1/3+x,1/3-z
1/3+x,2/3+y,2/3+z
1/3-y,2/3+x-y,2/3+z
1/3-x+y,2/3-x,2/3+z
1/3-x,2/3-y,2/3-z
1/3+y,2/3-x+y,2/3-z
1/3+x-y,2/3+x,2/3-z
loop_
_atom_site_type_symbol
_atom_site_label
_atom_site_fract_x
_atom_site_fract_y
_atom_site_fract_z
Si Si1 0.545989 0.746593 0.915217
Si Si2 0.634676 0.123628 0.413178
Si Si3 0.100473 0.780536 0.443706
Si Si4 0.022242 0.702632 0.661069
Si Si5 0.221889 0.740381 0.511704
Si Si6 0.248838 0.491735 0.144305
O O1 0.577310 0.806080 0.820948
O O2 0.602671 0.716592 0.942780
O O3 0.469784 0.671393 0.879391
O O4 0.533001 0.779237 0.023064
O O5 0.692537 0.196434 0.478415
O O6 0.613853 0.142945 0.299937
O O7 0.665432 0.068043 0.380918
O O8 0.048756 0.730415 0.542532
O O9 0.053601 0.733161 0.342909
O O10 0.175714 0.776549 0.459300
O O11 0.113187 0.863279 0.455400
O O12 0.206042 0.539386 0.149234
#
# Coordination Sequence:
#
# PCOD9575130 Si02
#       6
#    18  18  18  18  18  18
#     4  10  22  42  58  91 123 157 202 250 293 353
#     4  11  20  36  65  92 123 161 191 237 316 369
#     4   9  21  41  62  92 124 149 200 257 298 355
#     4   9  20  38  63  91 124 155 195 249 305 359
#     4  10  21  38  61  96 128 151 193 249 304 367
#     4  11  26  45  63  82 119 165 211 249 290 350
#
# _framework density 23.334679999999999
#
# number of rings (size 3 to 8) (size 9 to 14) (size 15 to 20)
#    0.000    2.000    1.667    0.667    4.667    1.333 
#    1.000    3.333    0.000    0.000    0.000    0.000 
#    0.000    0.000    0.000    0.000    0.000    0.000 
#
# Total GULP energy -201388.434107 kJ/mol
# GULP energy per Si atom -5594.123170 kJ/mol
# Density = 2.328157 g / cm^3
# Si number density = 23.334680 Si / 1000 Ang^3
#
#
#
# Elastic Constant Matrix: (Units=GPa)
#
#
# Indices 1 2 3 4 5 6 
#
# 1 64.9470 6.8708 9.9962 0.1513 1.1287 0.0000
# 2 6.8708 64.9470 9.9962 -0.1513 -1.1287 0.0000
# 3 9.9962 9.9962 73.1247 0.0000 0.0000 0.0000
# 4 0.1513 -0.1513 0.0000 23.0653 0.0000 -1.1287
# 5 1.1287 -1.1287 0.0000 0.0000 23.0653 0.1513
# 6 0.0000 0.0000 0.0000 -1.1287 0.1513 29.0381
#
#
#
# Elastic Compliance Matrix: (Units=1/GPa)
#
#
# Indices 1 2 3 4 5 6 
#
# 1 0.015864 -0.001389 -0.001979 -0.000113 -0.000844 0.000000
# 2 -0.001389 0.015864 -0.001979 0.000113 0.000844 0.000000
# 3 -0.001979 -0.001979 0.014216 0.000000 0.000000 0.000000
# 4 -0.000113 0.000113 0.000000 0.043439 0.000000 0.001688
# 5 -0.000844 0.000844 0.000000 0.000000 0.043439 -0.000226
# 6 0.000000 0.000000 0.000000 0.001688 -0.000226 0.034504
#
#
# Mechanical properties :
#
#
# Convention : Reuss Voigt Hill
#
# Bulk Modulus (GPa) = 28.36781 28.52724 28.44753
# Shear Modulus (GPa) = 26.34782 26.77741 26.56262
#
# Velocity S-wave (km/s) = 3.36389 3.39121 3.37758
# Velocity P-wave (km/s) = 5.22217 5.25219 5.23720
#
# Compressibility (1/GPa) = 0.03525122
#
# Stress axis : x y z
#
# Youngs Moduli (GPa) = 63.03750 63.03750 70.34200
#
# Poissons Ratio (x) = 0.08753 0.13919
# Poissons Ratio (y) = 0.08753 0.13919
# Poissons Ratio (z) = 0.12474 0.12474
#
# Static dielectric constant tensor:
#      x y z
#    x 1.867550 0.000000 0.000000 
#    y 0.000000 1.867550 0.000000 
#    z 0.000000 0.000000 1.890560 
# 
# From -- ./inp_files/2042.got.cif
#   From: 2010.05.17/outbox.cif.g08.bks.cpg/sg148_2_cif.got.tgz:2042.got - 2010.05.20 13:50:20.
