data_PCOD9575563
_publ_section_title
;
Structure prediction by ZEFSAII (Michael W. Deem and Ramdas Pophale) SiO2 
 PCOD9575563
Probable space group: P 31 1 2
;
_chemical_formula_sum "Si O2"
_cell_formula_units_Z 36
_cell_length_a 8.456222
_cell_length_b 8.456222
_cell_length_c 27.041910
_cell_angle_alpha 90.000000
_cell_angle_beta 90.000000
_cell_angle_gamma 120.000000
_cell_volume 1674.637247
_symmetry_space_group_name_H-M "P 31 1 2"
_symmetry_group_IT_number 151
_symmetry_cell_setting 'hexagonal'
loop_
_space_group_symop_operation_xyz
x,y,z
-y,x-y,1/3+z
-x+y,-x,2/3+z
-y,-x,2/3-z
-x+y,y,1/3-z
x,x-y,-z
loop_
_atom_site_type_symbol
_atom_site_label
_atom_site_fract_x
_atom_site_fract_y
_atom_site_fract_z
Si Si1 0.326791 0.292909 0.324776
Si Si2 0.897909 0.442770 0.642579
Si Si3 0.332473 0.517685 0.057804
Si Si4 0.015079 0.407046 0.174450
Si Si5 0.097379 0.691249 0.093247
Si Si6 0.377100 0.337850 0.868460
O O1 0.515114 0.484887 0.333334
O O2 0.386639 0.154782 0.304428
O O3 0.199921 0.336555 0.289656
O O4 0.265193 0.265630 0.381742
O O5 0.723332 0.446663 0.666667
O O6 0.925338 0.538254 0.589962
O O7 0.074635 0.544066 0.677945
O O8 0.438822 0.505721 0.105542
O O9 0.260952 0.659529 0.070738
O O10 0.193220 0.386439 0.166667
O O11 0.991988 0.516191 0.128769
O O12 0.834808 0.216529 0.181060
O O13 0.179361 0.865245 0.127950
O O14 0.493584 0.506417 0.833334
#
# Coordination Sequence:
#
# PCOD9575563 Si02
#       6
#     6   6   6   6   6   6
#     4   9  20  36  66  91 124 167 216 267 324 396
#     4  11  22  38  64 103 126 166 226 273 337 402
#     4  10  19  40  68  88 124 171 214 269 335 395
#     4  10  23  40  65  89 129 175 213 270 342 389
#     4  10  22  44  65  91 133 176 218 267 340 397
#     4  12  25  39  64  96 132 171 227 274 325 411
#
# _framework density 21.497195000000001
#
# number of rings (size 3 to 8) (size 9 to 14) (size 15 to 20)
#    0.000    1.667    3.333    1.500    9.333    0.000 
#    0.000    4.167    7.333    0.000    0.000    0.000 
#    0.000    0.000    0.000    0.000    0.000    0.000 
#
# Total GULP energy -200762.402947 kJ/mol
# GULP energy per Si atom -5576.733415 kJ/mol
# Density = 2.144827 g / cm^3
# Si number density = 21.497195 Si / 1000 Ang^3
#
#
#
# Elastic Constant Matrix: (Units=GPa)
#
#
# Indices 1 2 3 4 5 6 
#
# 1 28.2513 6.1019 -1.6258 0.0000 13.6506 0.0000
# 2 6.1019 28.2513 -1.6258 0.0000 -13.6506 0.0000
# 3 -1.6258 -1.6258 80.1782 0.0000 0.0000 0.0000
# 4 0.0000 0.0000 0.0000 22.9001 0.0000 -13.6506
# 5 13.6506 -13.6506 0.0000 0.0000 22.9001 0.0000
# 6 0.0000 0.0000 0.0000 -13.6506 0.0000 11.0747
#
#
#
# Elastic Compliance Matrix: (Units=1/GPa)
#
#
# Indices 1 2 3 4 5 6 
#
# 1 0.099686 -0.070521 0.000591 0.000000 -0.101460 0.000000
# 2 -0.070521 0.099686 0.000591 0.000000 0.101460 0.000000
# 3 0.000591 0.000591 0.012496 0.000000 0.000000 0.000000
# 4 0.000000 0.000000 0.000000 0.164627 0.000000 0.202919
# 5 -0.101460 0.101460 0.000000 0.000000 0.164627 0.000000
# 6 0.000000 0.000000 0.000000 0.202919 0.000000 0.340413
#
#
# Mechanical properties :
#
#
# Convention : Reuss Voigt Hill
#
# Bulk Modulus (GPa) = 13.66259 15.82013 14.74136
# Shear Modulus (GPa) = 4.78648 20.29701 12.54174
#
# Velocity S-wave (km/s) = 1.49378 3.07607 2.41801
# Velocity P-wave (km/s) = 3.05688 4.47117 3.82988
#
# Compressibility (1/GPa) = 0.07319259
#
# Stress axis : x y z
#
# Youngs Moduli (GPa) = 10.03150 10.03150 80.02430
#
# Poissons Ratio (x) = 0.70743 -0.04733
# Poissons Ratio (y) = 0.70743 -0.04733
# Poissons Ratio (z) = -0.00593 -0.00593
#
# Static dielectric constant tensor:
#      x y z
#    x 1.779530 0.000000 0.000000 
#    y 0.000000 1.779530 0.000000 
#    z 0.000000 0.000000 1.941600 
# 
# From -- ./inp_files/4608.got.cif
#   From: 2010.05.17/outbox.cif.g08.bks.cpg/sg151_3_cif.got.tgz:4608.got - 2010.05.20 10:33:20.
