data_PCOD9575870
_publ_section_title
;
Structure prediction by ZEFSAII (Michael W. Deem and Ramdas Pophale) SiO2 
 PCOD9575870
Probable space group: P 31 2 1
;
_chemical_formula_sum "Si O2"
_cell_formula_units_Z 45
_cell_length_a 11.665164
_cell_length_b 11.665164
_cell_length_c 19.407988
_cell_angle_alpha 90.000000
_cell_angle_beta 90.000000
_cell_angle_gamma 120.000000
_cell_volume 2287.140501
_symmetry_space_group_name_H-M "P 31 2 1"
_symmetry_group_IT_number 152
_symmetry_cell_setting 'hexagonal'
loop_
_space_group_symop_operation_xyz
x,y,z
-y,x-y,1/3+z
-x+y,-x,2/3+z
x-y,-y,2/3-z
-x,-x+y,1/3-z
y,x,-z
loop_
_atom_site_type_symbol
_atom_site_label
_atom_site_fract_x
_atom_site_fract_y
_atom_site_fract_z
Si Si1 0.618666 0.145544 0.194954
Si Si2 0.090762 0.464679 0.598246
Si Si3 0.402906 0.778963 0.755622
Si Si4 0.266599 0.122299 0.920486
Si Si5 0.666436 0.844986 0.821278
Si Si6 0.680346 0.448674 0.730266
Si Si7 0.244851 0.096413 0.084310
Si Si8 0.000000 0.378019 0.166667
O O1 0.633738 0.278917 0.229343
O O2 0.741882 0.141459 0.230780
O O3 0.625131 0.180866 0.114809
O O4 0.488372 0.011041 0.213238
O O5 0.141897 0.377010 0.559940
O O6 0.218362 0.610547 0.608795
O O7 0.000000 0.403081 0.666667
O O8 0.540252 0.787568 0.770513
O O9 0.378520 0.817359 0.679584
O O10 0.398166 0.878248 0.813211
O O11 0.158494 0.155613 0.890710
O O12 0.285363 0.001575 0.894764
O O13 0.244293 0.102945 0.001461
O O14 0.771208 0.816662 0.784246
O O15 0.725638 0.000000 0.833334
O O16 0.771058 0.596037 0.762177
#
# Coordination Sequence:
#
# PCOD9575870 Si02
#       8
#     6   6   6   6   6   6   6   3
#     4  11  21  38  70 105 130 167 223 294 343 381
#     4  12  23  43  70  97 138 174 232 285 341 399
#     4  11  23  43  68  97 137 177 224 281 343 397
#     4  10  22  40  68 101 124 177 230 287 324 395
#     4  12  28  47  62  95 148 188 213 279 353 420
#     4  12  22  40  71 108 130 171 231 288 344 401
#     4  11  22  42  69  95 135 173 228 276 336 405
#     4  10  20  38  68  92 130 172 226 272 338 392
#
# _framework density 19.675222000000002
#
# number of rings (size 3 to 8) (size 9 to 14) (size 15 to 20)
#    0.000    0.800    8.667    0.000    0.933    2.133 
#    4.800    2.667    0.000    0.000    0.000    0.000 
#    0.000    0.000    0.000    0.000    0.000    0.000 
#
# Total GULP energy -250516.837012 kJ/mol
# GULP energy per Si atom -5567.040822 kJ/mol
# Density = 1.963044 g / cm^3
# Si number density = 19.675222 Si / 1000 Ang^3
#
#
#
# Elastic Constant Matrix: (Units=GPa)
#
#
# Indices 1 2 3 4 5 6 
#
# 1 89.8428 24.6138 26.9501 7.6532 0.0001 0.0000
# 2 24.6138 89.8428 26.9501 -7.6532 -0.0001 0.0000
# 3 26.9501 26.9501 87.7206 0.0000 0.0000 0.0000
# 4 7.6532 -7.6532 0.0000 24.4792 0.0000 -0.0001
# 5 0.0001 -0.0001 0.0000 0.0000 24.4792 7.6532
# 6 0.0000 0.0000 0.0000 -0.0001 7.6532 32.6145
#
#
#
# Elastic Compliance Matrix: (Units=1/GPa)
#
#
# Indices 1 2 3 4 5 6 
#
# 1 0.013380 -0.003165 -0.003138 -0.005172 0.000000 0.000000
# 2 -0.003165 0.013380 -0.003138 0.005172 0.000000 0.000000
# 3 -0.003138 -0.003138 0.013328 0.000000 0.000000 0.000000
# 4 -0.005172 0.005172 0.000000 0.044085 0.000000 0.000000
# 5 0.000000 0.000000 0.000000 0.000000 0.044085 -0.010345
# 6 0.000000 0.000000 0.000000 0.000000 -0.010345 0.033089
#
#
# Mechanical properties :
#
#
# Convention : Reuss Voigt Hill
#
# Bulk Modulus (GPa) = 47.15930 47.15935 47.15933
# Shear Modulus (GPa) = 26.69552 28.90740 27.80146
#
# Velocity S-wave (km/s) = 3.68749 3.83721 3.76309
# Velocity P-wave (km/s) = 6.49238 6.60706 6.54997
#
# Compressibility (1/GPa) = 0.02120473
#
# Stress axis : x y z
#
# Youngs Moduli (GPa) = 74.74077 74.74077 75.02922
#
# Poissons Ratio (x) = 0.23654 0.23546
# Poissons Ratio (y) = 0.23654 0.23546
# Poissons Ratio (z) = 0.23456 0.23456
#
# Static dielectric constant tensor:
#      x y z
#    x 1.736160 0.000000 0.000000 
#    y 0.000000 1.736160 0.000000 
#    z 0.000000 0.000000 1.726420 
# 
# From -- ./inp_files/2516.got.cif
#   From: 2010.05.17/outbox.cif.g08.bks.cpg/sg152_2_cif.got.tgz:2516.got - 2010.05.20 10:36:06.
