data_PCOD9575010
_publ_section_title
;
Structure prediction by ZEFSAII (Michael W. Deem and Ramdas Pophale) SiO2 
 PCOD9575010
Probable space group: R -3
;
_chemical_formula_sum "Si O2"
_cell_formula_units_Z 126
_cell_length_a 16.808961
_cell_length_b 16.808961
_cell_length_c 25.311599
_cell_angle_alpha 90.000000
_cell_angle_beta 90.000000
_cell_angle_gamma 120.000000
_cell_volume 6193.440252
_symmetry_space_group_name_H-M "R -3"
_symmetry_group_IT_number 148
_symmetry_cell_setting 'hexagonal'
loop_
_space_group_symop_operation_xyz
x,y,z
-y,x-y,z
-x+y,-x,z
-x,-y,-z
y,-x+y,-z
x-y,x,-z
2/3+x,1/3+y,1/3+z
2/3-y,1/3+x-y,1/3+z
2/3-x+y,1/3-x,1/3+z
2/3-x,1/3-y,1/3-z
2/3+y,1/3-x+y,1/3-z
2/3+x-y,1/3+x,1/3-z
1/3+x,2/3+y,2/3+z
1/3-y,2/3+x-y,2/3+z
1/3-x+y,2/3-x,2/3+z
1/3-x,2/3-y,2/3-z
1/3+y,2/3-x+y,2/3-z
1/3+x-y,2/3+x,2/3-z
loop_
_atom_site_type_symbol
_atom_site_label
_atom_site_fract_x
_atom_site_fract_y
_atom_site_fract_z
Si Si1 0.793762 0.820836 0.313673
Si Si2 0.802755 0.929998 0.992632
Si Si3 0.425724 0.966171 0.270278
Si Si4 0.738686 0.114445 0.225675
Si Si5 0.654341 0.720223 0.885753
Si Si6 0.040960 0.767963 0.296962
Si Si7 0.952097 0.069647 0.401047
O O1 0.773646 0.747277 0.268499
O O2 0.773127 0.896878 0.289870
O O3 0.716075 0.770908 0.359566
O O4 0.893341 0.861638 0.340327
O O5 0.779197 0.968474 0.940441
O O6 0.850156 0.871955 0.976770
O O7 0.710293 0.871521 0.026567
O O8 0.345012 0.914354 0.313871
O O9 0.441233 0.887253 0.244725
O O10 0.389699 0.015420 0.230606
O O11 0.686352 0.081842 0.170554
O O12 0.836519 0.206109 0.216379
O O13 0.748994 0.031463 0.250441
O O14 0.057765 0.097503 0.414070
#
# Coordination Sequence:
#
# PCOD9575010 Si02
#       7
#    18  18  18  18  18  18  18
#     4  10  18  33  55  89 112 160 197 257 302 363
#     4  11  22  39  64  90 120 157 212 258 303 363
#     4  10  19  36  58  91 115 162 200 251 310 368
#     4  10  21  39  56  89 117 165 197 256 307 363
#     4  10  21  37  59  81 129 159 200 250 311 375
#     4   9  18  32  57  81 118 143 210 253 297 358
#     4  10  20  32  55  90 122 152 200 265 308 353
#
# _framework density 20.344104000000002
#
# number of rings (size 3 to 8) (size 9 to 14) (size 15 to 20)
#    0.286    1.714    2.857    1.857    4.000    0.000 
#    2.571    0.000    0.000    0.000    0.000    1.000 
#    0.000    0.000    0.000    0.000    0.000    0.000 
#
# Total GULP energy -233816.344000 kJ/mol
# GULP energy per Si atom -5567.055810 kJ/mol
# Density = 2.029780 g / cm^3
# Si number density = 20.344104 Si / 1000 Ang^3
#
#
#
# Elastic Constant Matrix: (Units=GPa)
#
#
# Indices 1 2 3 4 5 6 
#
# 1 64.4908 25.2821 7.0453 0.5895 0.3681 0.0000
# 2 25.2821 64.4908 7.0453 -0.5895 -0.3681 0.0000
# 3 7.0453 7.0453 41.5884 0.0000 0.0000 0.0000
# 4 0.5895 -0.5895 0.0000 13.3492 0.0000 -0.3681
# 5 0.3681 -0.3681 0.0000 0.0000 13.3492 0.5895
# 6 0.0000 0.0000 0.0000 -0.3681 0.5895 19.6044
#
#
#
# Elastic Compliance Matrix: (Units=1/GPa)
#
#
# Indices 1 2 3 4 5 6 
#
# 1 0.018498 -0.007054 -0.001939 -0.001128 -0.000705 0.000000
# 2 -0.007054 0.018498 -0.001939 0.001128 0.000705 0.000000
# 3 -0.001939 -0.001939 0.024702 0.000000 0.000000 0.000000
# 4 -0.001128 0.001128 0.000000 0.075050 0.000000 0.001409
# 5 -0.000705 0.000705 0.000000 0.000000 0.075050 -0.002257
# 6 0.000000 0.000000 0.000000 0.001409 -0.002257 0.051103
#
#
# Mechanical properties :
#
#
# Convention : Reuss Voigt Hill
#
# Bulk Modulus (GPa) = 25.10378 27.70170 26.40274
# Shear Modulus (GPa) = 16.77625 18.00703 17.39164
#
# Velocity S-wave (km/s) = 2.87474 2.97833 2.92699
# Velocity P-wave (km/s) = 4.83583 5.04712 4.94260
#
# Compressibility (1/GPa) = 0.03983463
#
# Stress axis : x y z
#
# Youngs Moduli (GPa) = 54.06107 54.06107 40.48255
#
# Poissons Ratio (x) = 0.38135 0.07848
# Poissons Ratio (y) = 0.38135 0.07848
# Poissons Ratio (z) = 0.10480 0.10480
#
# Static dielectric constant tensor:
#      x y z
#    x 1.773010 0.000000 0.000000 
#    y 0.000000 1.773010 0.000000 
#    z 0.000000 0.000000 1.730730 
# 
# From -- ./inp_files/3718.got.cif
#   From: 2010.05.17/outbox.cif.g08.bks.cpg/sg148_2_cif.got.tgz:3718.got - 2010.05.20 13:50:20.
