data_PCOD9575781
_publ_section_title
;
Structure prediction by ZEFSAII (Michael W. Deem and Ramdas Pophale) SiO2 
 PCOD9575781
Probable space group: P 31 2 1
;
_chemical_formula_sum "Si O2"
_cell_formula_units_Z 36
_cell_length_a 9.181769
_cell_length_b 9.181769
_cell_length_c 21.991925
_cell_angle_alpha 90.000000
_cell_angle_beta 90.000000
_cell_angle_gamma 120.000000
_cell_volume 1605.634171
_symmetry_space_group_name_H-M "P 31 2 1"
_symmetry_group_IT_number 152
_symmetry_cell_setting 'hexagonal'
loop_
_space_group_symop_operation_xyz
x,y,z
-y,x-y,1/3+z
-x+y,-x,2/3+z
x-y,-y,2/3-z
-x,-x+y,1/3-z
y,x,-z
loop_
_atom_site_type_symbol
_atom_site_label
_atom_site_fract_x
_atom_site_fract_y
_atom_site_fract_z
Si Si1 0.354300 0.309291 0.932742
Si Si2 0.610915 0.306964 0.591121
Si Si3 0.509907 0.458250 0.427756
Si Si4 0.203194 0.865320 0.387802
Si Si5 0.794621 0.843461 0.571270
Si Si6 0.499272 0.629381 0.868994
O O1 0.507919 0.282285 0.910878
O O2 0.351585 0.445846 0.889013
O O3 0.194512 0.126004 0.934770
O O4 0.387304 0.387304 0.000000
O O5 0.478532 0.367747 0.609087
O O6 0.527215 0.184816 0.533936
O O7 0.702647 0.222646 0.627121
O O8 0.481518 0.481518 0.500000
O O9 0.694278 0.608817 0.411369
O O10 0.503429 0.282240 0.427812
O O11 0.330448 0.964766 0.443829
O O12 0.264121 0.000000 0.333334
O O13 0.018968 0.815591 0.409626
O O14 0.824930 0.824930 0.500000
#
# Coordination Sequence:
#
# PCOD9575781 Si02
#       6
#     6   6   6   6   6   6
#     4  10  20  37  61  86 117 158 196 241 304 358
#     4   9  18  34  57  81 112 155 191 230 292 355
#     4   8  17  34  56  81 111 146 191 240 286 341
#     4  11  23  39  58  88 124 153 192 251 301 346
#     4  10  20  37  60  87 118 158 199 239 291 361
#     4  10  19  35  59  85 112 150 198 243 288 353
#
# _framework density 22.421049
#
# number of rings (size 3 to 8) (size 9 to 14) (size 15 to 20)
#    0.000    2.333    0.000    4.500    0.000    4.667 
#    0.000    6.667    0.000   16.000    0.000    0.000 
#    0.000    0.000    0.000    0.000    0.000    0.000 
#
# Total GULP energy -200749.219335 kJ/mol
# GULP energy per Si atom -5576.367204 kJ/mol
# Density = 2.237002 g / cm^3
# Si number density = 22.421049 Si / 1000 Ang^3
#
#
#
# Elastic Constant Matrix: (Units=GPa)
#
#
# Indices 1 2 3 4 5 6 
#
# 1 84.0499 16.6309 -21.6554 -6.3322 0.0000 0.0000
# 2 16.6309 84.0499 -21.6554 6.3322 0.0000 0.0000
# 3 -21.6554 -21.6554 26.4738 0.0000 0.0000 0.0000
# 4 -6.3322 6.3322 0.0000 20.0808 0.0000 0.0000
# 5 0.0000 0.0000 0.0000 0.0000 20.0808 -6.3322
# 6 0.0000 0.0000 0.0000 0.0000 -6.3322 33.7095
#
#
#
# Elastic Compliance Matrix: (Units=1/GPa)
#
#
# Indices 1 2 3 4 5 6 
#
# 1 0.015546 -0.000221 0.012536 0.004972 0.000000 0.000000
# 2 -0.000221 0.015546 0.012536 -0.004972 0.000000 0.000000
# 3 0.012536 0.012536 0.058282 0.000000 0.000000 0.000000
# 4 0.004972 -0.004972 0.000000 0.052934 0.000000 0.000000
# 5 0.000000 0.000000 0.000000 0.000000 0.052934 0.009944
# 6 0.000000 0.000000 0.000000 0.000000 0.009944 0.031533
#
#
# Mechanical properties :
#
#
# Convention : Reuss Voigt Hill
#
# Bulk Modulus (GPa) = 7.19038 15.69042 11.44040
# Shear Modulus (GPa) = 22.37820 29.52446 25.95133
#
# Velocity S-wave (km/s) = 3.16268 3.63274 3.40583
# Velocity P-wave (km/s) = 4.06825 4.96074 4.53650
#
# Compressibility (1/GPa) = 0.13907480
#
# Stress axis : x y z
#
# Youngs Moduli (GPa) = 64.32614 64.32614 17.15806
#
# Poissons Ratio (x) = 0.01420 -0.21509
# Poissons Ratio (y) = 0.01420 -0.21509
# Poissons Ratio (z) = -0.80638 -0.80638
#
# Static dielectric constant tensor:
#      x y z
#    x 1.845500 0.000000 0.000000 
#    y 0.000000 1.845500 0.000000 
#    z 0.000000 0.000000 1.896400 
# 
# From -- ./inp_files/3361.got.cif
#   From: 2010.05.17/outbox.cif.g08.bks.cpg/sg152_2_cif.got.tgz:3361.got - 2010.05.20 10:36:06.
