data_PCOD9575751
_publ_section_title
;
Structure prediction by ZEFSAII (Michael W. Deem and Ramdas Pophale) SiO2 
 PCOD9575751
Probable space group: P 31 2 1
;
_chemical_formula_sum "Si O2"
_cell_formula_units_Z 30
_cell_length_a 7.140836
_cell_length_b 7.140836
_cell_length_c 30.522249
_cell_angle_alpha 90.000000
_cell_angle_beta 90.000000
_cell_angle_gamma 120.000000
_cell_volume 1347.861538
_symmetry_space_group_name_H-M "P 31 2 1"
_symmetry_group_IT_number 152
_symmetry_cell_setting 'hexagonal'
loop_
_space_group_symop_operation_xyz
x,y,z
-y,x-y,1/3+z
-x+y,-x,2/3+z
x-y,-y,2/3-z
-x,-x+y,1/3-z
y,x,-z
loop_
_atom_site_type_symbol
_atom_site_label
_atom_site_fract_x
_atom_site_fract_y
_atom_site_fract_z
Si Si1 0.339973 0.916859 0.916506
Si Si2 0.204431 0.115309 0.288087
Si Si3 0.942167 0.002157 0.455611
Si Si4 0.515370 0.217728 0.128670
Si Si5 0.649854 0.269529 0.562071
O O1 0.649436 0.283164 0.764503
O O2 0.555136 0.146497 0.914242
O O3 0.180108 0.920912 0.878559
O O4 0.167607 0.859111 0.956441
O O5 0.432403 0.207214 0.263580
O O6 0.023010 0.944026 0.254893
O O7 0.184819 0.000000 0.333334
O O8 0.077656 0.077656 0.500000
O O9 0.759311 0.066190 0.454083
O O10 0.575698 0.249721 0.179706
O O11 0.414727 0.968969 0.113504
#
# Coordination Sequence:
#
# PCOD9575751 Si02
#       5
#     6   6   6   6   6
#     4   9  21  36  58  86 120 158 202 259 314 379
#     4   9  21  39  62  81 121 167 208 254 319 397
#     4  10  18  38  60  84 120 155 201 259 313 371
#     4  11  20  35  56  92 120 152 197 269 315 372
#     4  11  20  35  62  85 124 154 200 259 321 379
#
# _framework density 22.257480000000001
#
# number of rings (size 3 to 8) (size 9 to 14) (size 15 to 20)
#    1.200    0.800    2.000    3.000    0.000    2.400 
#    3.600    0.000    8.800    0.000    0.000    0.000 
#    0.000    0.000    0.000    0.000    0.000    0.000 
#
# Total GULP energy -167077.325855 kJ/mol
# GULP energy per Si atom -5569.244195 kJ/mol
# Density = 2.220682 g / cm^3
# Si number density = 22.257480 Si / 1000 Ang^3
#
#
#
# Elastic Constant Matrix: (Units=GPa)
#
#
# Indices 1 2 3 4 5 6 
#
# 1 92.6059 17.3468 -4.2042 2.0063 -0.0004 0.0000
# 2 17.3468 92.6059 -4.2042 -2.0063 0.0004 0.0000
# 3 -4.2042 -4.2042 32.6150 0.0000 0.0000 0.0000
# 4 2.0063 -2.0063 0.0000 9.6211 0.0000 0.0004
# 5 -0.0004 0.0004 0.0000 0.0000 9.6211 2.0063
# 6 0.0000 0.0000 0.0000 0.0004 2.0063 37.6296
#
#
#
# Elastic Compliance Matrix: (Units=1/GPa)
#
#
# Indices 1 2 3 4 5 6 
#
# 1 0.011311 -0.002126 0.001184 -0.002802 0.000001 0.000000
# 2 -0.002126 0.011311 0.001184 0.002802 -0.000001 0.000000
# 3 0.001184 0.001184 0.030966 0.000000 0.000000 0.000000
# 4 -0.002802 0.002802 0.000000 0.105107 0.000000 -0.000001
# 5 0.000001 -0.000001 0.000000 0.000000 0.105107 -0.005604
# 6 0.000000 0.000000 0.000000 -0.000001 -0.005604 0.026874
#
#
# Mechanical properties :
#
#
# Convention : Reuss Voigt Hill
#
# Bulk Modulus (GPa) = 18.49356 26.18929 22.34143
# Shear Modulus (GPa) = 16.22239 25.30024 20.76132
#
# Velocity S-wave (km/s) = 2.70265 3.37517 3.05746
# Velocity P-wave (km/s) = 4.25042 5.19433 4.74590
#
# Compressibility (1/GPa) = 0.05407288
#
# Stress axis : x y z
#
# Youngs Moduli (GPa) = 88.40876 88.40876 32.29347
#
# Poissons Ratio (x) = 0.18793 -0.03824
# Poissons Ratio (y) = 0.18793 -0.03824
# Poissons Ratio (z) = -0.10468 -0.10468
#
# Static dielectric constant tensor:
#      x y z
#    x 1.900060 0.000000 0.000000 
#    y 0.000000 1.900060 0.000000 
#    z 0.000000 0.000000 1.801560 
# 
# From -- ./inp_files/3510.got.cif
#   From: 2010.05.17/outbox.cif.g08.bks.cpg/sg152_2_cif.got.tgz:3510.got - 2010.05.20 10:36:06.
