data_PCOD9575590
_publ_section_title
;
Structure prediction by ZEFSAII (Michael W. Deem and Ramdas Pophale) SiO2 
 PCOD9575590
Probable space group: P 31 1 2
;
_chemical_formula_sum "Si O2"
_cell_formula_units_Z 45
_cell_length_a 14.030659
_cell_length_b 14.030659
_cell_length_c 12.767748
_cell_angle_alpha 90.000000
_cell_angle_beta 90.000000
_cell_angle_gamma 120.000000
_cell_volume 2176.712511
_symmetry_space_group_name_H-M "P 31 1 2"
_symmetry_group_IT_number 151
_symmetry_cell_setting 'hexagonal'
loop_
_space_group_symop_operation_xyz
x,y,z
-y,x-y,1/3+z
-x+y,-x,2/3+z
-y,-x,2/3-z
-x+y,y,1/3-z
x,x-y,-z
loop_
_atom_site_type_symbol
_atom_site_label
_atom_site_fract_x
_atom_site_fract_y
_atom_site_fract_z
Si Si1 0.915364 0.856202 0.541996
Si Si2 0.702176 0.013391 0.173328
Si Si3 0.670064 0.195502 0.069711
Si Si4 0.571283 0.142565 0.666667
Si Si5 0.514888 0.861737 0.027727
Si Si6 0.462184 0.732371 0.622065
Si Si7 0.954549 0.490510 0.213659
Si Si8 0.287530 0.333428 0.076813
O O1 0.931366 0.862731 0.666667
O O2 0.981938 0.800637 0.492570
O O3 0.781955 0.781631 0.530306
O O4 0.952251 0.976126 0.500000
O O5 0.712990 0.116549 0.111529
O O6 0.582888 0.919532 0.131688
O O7 0.691741 0.014947 0.297896
O O8 0.601438 0.202875 0.166667
O O9 0.775636 0.310576 0.047632
O O10 0.594709 0.145610 0.964952
O O11 0.582028 0.076974 0.764116
O O12 0.552086 0.776043 0.000000
O O13 0.382005 0.794838 0.021415
O O14 0.550534 0.952152 0.937318
O O15 0.395624 0.791248 0.666667
O O16 0.428247 0.714124 0.500000
O O17 0.593129 0.771216 0.615392
O O18 0.007034 0.411385 0.202161
#
# Coordination Sequence:
#
# PCOD9575590 Si02
#       8
#     6   6   6   3   6   6   6   6
#     4  10  22  40  63  91 120 158 215 275 325 372
#     4  10  21  38  67  89 114 162 214 268 308 365
#     4  11  20  36  61  91 122 161 217 256 296 373
#     4  12  24  34  52  88 134 170 190 250 326 382
#     4   9  21  39  60  88 119 156 207 259 305 376
#     4  10  22  36  59  93 130 162 199 247 311 395
#     4  10  21  38  57  86 126 164 206 250 308 383
#     4  10  20  39  64  87 120 160 212 263 319 372
#
# _framework density 20.673378
#
# number of rings (size 3 to 8) (size 9 to 14) (size 15 to 20)
#    0.000    1.867    1.333    2.400    3.733    0.533 
#    4.800    5.333    0.000    0.000    0.000    0.000 
#    0.000    0.000    0.000    0.000    0.000    0.000 
#
# Total GULP energy -250760.171128 kJ/mol
# GULP energy per Si atom -5572.448247 kJ/mol
# Density = 2.062632 g / cm^3
# Si number density = 20.673378 Si / 1000 Ang^3
#
#
#
# Elastic Constant Matrix: (Units=GPa)
#
#
# Indices 1 2 3 4 5 6 
#
# 1 53.9369 9.3326 7.5129 -0.0003 -1.4497 0.0000
# 2 9.3326 53.9369 7.5129 0.0003 1.4497 0.0000
# 3 7.5129 7.5129 78.1392 0.0000 0.0000 0.0000
# 4 -0.0003 0.0003 0.0000 13.6396 0.0000 1.4497
# 5 -1.4497 1.4497 0.0000 0.0000 13.6396 -0.0003
# 6 0.0000 0.0000 0.0000 1.4497 -0.0003 22.3022
#
#
#
# Elastic Compliance Matrix: (Units=1/GPa)
#
#
# Indices 1 2 3 4 5 6 
#
# 1 0.019375 -0.003200 -0.001555 0.000000 0.002399 0.000000
# 2 -0.003200 0.019375 -0.001555 0.000000 -0.002399 0.000000
# 3 -0.001555 -0.001555 0.013097 0.000000 0.000000 0.000000
# 4 0.000000 0.000000 0.000000 0.073826 0.000000 -0.004799
# 5 0.002399 -0.002399 0.000000 0.000000 0.073826 0.000001
# 6 0.000000 0.000000 0.000000 -0.004799 0.000001 0.045151
#
#
# Mechanical properties :
#
#
# Convention : Reuss Voigt Hill
#
# Bulk Modulus (GPa) = 25.49359 26.08110 25.78734
# Shear Modulus (GPa) = 18.49483 20.69325 19.59404
#
# Velocity S-wave (km/s) = 2.99427 3.16723 3.08196
# Velocity P-wave (km/s) = 4.93078 5.10081 5.01651
#
# Compressibility (1/GPa) = 0.03922554
#
# Stress axis : x y z
#
# Youngs Moduli (GPa) = 51.61282 51.61282 76.35498
#
# Poissons Ratio (x) = 0.16518 0.11874
# Poissons Ratio (y) = 0.16518 0.11874
# Poissons Ratio (z) = 0.08027 0.08027
#
# Static dielectric constant tensor:
#      x y z
#    x 1.788450 0.000000 0.000000 
#    y 0.000000 1.788450 0.000000 
#    z 0.000000 0.000000 1.792930 
# 
# From -- ./inp_files/2669.got.cif
#   From: 2010.05.17/outbox.cif.g08.bks.cpg/sg151_2_cif.got.tgz:2669.got - 2010.05.20 10:33:20.
