data_PCOD9575313
_publ_section_title
;
Structure prediction by ZEFSAII (Michael W. Deem and Ramdas Pophale) SiO2 
 PCOD9575313
Probable space group: R -3
;
_chemical_formula_sum "Si O2"
_cell_formula_units_Z 96
_cell_length_a 22.875840
_cell_length_b 22.875840
_cell_length_c 10.072009
_cell_angle_alpha 90.000000
_cell_angle_beta 90.000000
_cell_angle_gamma 120.000000
_cell_volume 4564.580152
_symmetry_space_group_name_H-M "R -3"
_symmetry_group_IT_number 148
_symmetry_cell_setting 'hexagonal'
loop_
_space_group_symop_operation_xyz
x,y,z
-y,x-y,z
-x+y,-x,z
-x,-y,-z
y,-x+y,-z
x-y,x,-z
2/3+x,1/3+y,1/3+z
2/3-y,1/3+x-y,1/3+z
2/3-x+y,1/3-x,1/3+z
2/3-x,1/3-y,1/3-z
2/3+y,1/3-x+y,1/3-z
2/3+x-y,1/3+x,1/3-z
1/3+x,2/3+y,2/3+z
1/3-y,2/3+x-y,2/3+z
1/3-x+y,2/3-x,2/3+z
1/3-x,2/3-y,2/3-z
1/3+y,2/3-x+y,2/3-z
1/3+x-y,2/3+x,2/3-z
loop_
_atom_site_type_symbol
_atom_site_label
_atom_site_fract_x
_atom_site_fract_y
_atom_site_fract_z
Si Si1 0.000000 0.000000 0.342395
Si Si2 0.754406 0.551893 0.412138
Si Si3 0.469861 0.131585 0.870058
Si Si4 0.163518 0.148638 0.171110
Si Si5 0.150411 0.307197 0.483390
Si Si6 0.789536 0.460267 0.046306
O O1 0.924456 0.953862 0.289960
O O2 0.000000 0.000000 0.500000
O O3 0.777490 0.495342 0.420039
O O4 0.719304 0.552331 0.276060
O O5 0.817933 0.624955 0.431926
O O6 0.702740 0.524968 0.537175
O O7 0.406882 0.143782 0.843557
O O8 0.474744 0.065952 0.827949
O O9 0.527364 0.186536 0.773700
O O10 0.485389 0.141664 0.027038
O O11 0.150686 0.076284 0.222184
O O12 0.166667 0.333334 0.333334
#
# Coordination Sequence:
#
# PCOD9575313 Si02
#       6
#     6  18  18  18  18  18
#     4  12  24  30  64 110 136 171 229 275 355 414
#     4  12  26  46  69 106 156 186 231 303 370 432
#     4  12  25  47  74 100 138 189 252 294 354 436
#     4  12  24  43  70 103 143 189 230 295 363 424
#     4  12  26  48  75 106 144 191 242 308 363 429
#     4  12  23  40  68 105 141 184 233 292 353 428
#
# _framework density 21.031507000000001
#
# number of rings (size 3 to 8) (size 9 to 14) (size 15 to 20)
#    0.000    0.000    9.375    1.125    0.000    0.750 
#    3.375    1.875    0.000    0.000    0.000    0.000 
#    0.000    0.000    0.000    0.000    0.000    0.000 
#
# Total GULP energy -178363.933697 kJ/mol
# GULP energy per Si atom -5573.872928 kJ/mol
# Density = 2.098364 g / cm^3
# Si number density = 21.031507 Si / 1000 Ang^3
#
#
#
# Elastic Constant Matrix: (Units=GPa)
#
#
# Indices 1 2 3 4 5 6 
#
# 1 86.7041 25.1429 12.5893 -2.5012 -1.4029 -0.0001
# 2 25.1429 86.7048 12.5909 2.5012 1.4012 0.0001
# 3 12.5893 12.5909 100.3272 -0.0004 -0.0037 -0.0005
# 4 -2.5012 2.5012 -0.0004 23.1681 -0.0005 1.4015
# 5 -1.4029 1.4012 -0.0037 -0.0005 23.1667 -2.5014
# 6 -0.0001 0.0001 -0.0005 1.4015 -2.5014 30.7808
#
#
#
# Elastic Compliance Matrix: (Units=1/GPa)
#
#
# Indices 1 2 3 4 5 6 
#
# 1 0.012817 -0.003616 -0.001154 0.001774 0.000995 0.000000
# 2 -0.003616 0.012817 -0.001155 -0.001774 -0.000994 0.000000
# 3 -0.001154 -0.001155 0.010257 0.000000 0.000002 0.000000
# 4 0.001774 -0.001774 0.000000 0.043666 0.000001 -0.001988
# 5 0.000995 -0.000994 0.000002 0.000001 0.043669 0.003549
# 6 0.000000 0.000000 0.000000 -0.001988 0.003549 0.032867
#
#
# Mechanical properties :
#
#
# Convention : Reuss Voigt Hill
#
# Bulk Modulus (GPa) = 41.59705 41.59803 41.59754
# Shear Modulus (GPa) = 28.41595 30.31732 29.36664
#
# Velocity S-wave (km/s) = 3.67974 3.80085 3.74079
# Velocity P-wave (km/s) = 6.15429 6.25171 6.20319
#
# Compressibility (1/GPa) = 0.02404016
#
# Stress axis : x y z
#
# Youngs Moduli (GPa) = 78.02105 78.02135 97.49279
#
# Poissons Ratio (x) = 0.28215 0.11255
# Poissons Ratio (y) = 0.28215 0.11258
# Poissons Ratio (z) = 0.09007 0.09010
#
# Static dielectric constant tensor:
#      x y z
#    x 1.805180 0.000000 0.000000 
#    y 0.000000 1.805180 0.000000 
#    z 0.000000 0.000000 1.766240 
# 
# From -- ./inp_files/1488.got.cif
#   From: 2010.05.17/outbox.cif.g08.bks.cpg/sg148_1_cif.got.tgz:1488.got - 2010.05.20 13:50:20.
