data_PCOD9575739
_publ_section_title
;
Structure prediction by ZEFSAII (Michael W. Deem and Ramdas Pophale) SiO2 
 PCOD9575739
Probable space group: P 31 2 1
;
_chemical_formula_sum "Si O2"
_cell_formula_units_Z 42
_cell_length_a 10.908233
_cell_length_b 10.908233
_cell_length_c 20.240335
_cell_angle_alpha 90.000000
_cell_angle_beta 90.000000
_cell_angle_gamma 120.000000
_cell_volume 2085.725447
_symmetry_space_group_name_H-M "P 31 2 1"
_symmetry_group_IT_number 152
_symmetry_cell_setting 'hexagonal'
loop_
_space_group_symop_operation_xyz
x,y,z
-y,x-y,1/3+z
-x+y,-x,2/3+z
x-y,-y,2/3-z
-x,-x+y,1/3-z
y,x,-z
loop_
_atom_site_type_symbol
_atom_site_label
_atom_site_fract_x
_atom_site_fract_y
_atom_site_fract_z
Si Si1 0.458336 0.030878 0.218875
Si Si2 0.923412 0.388869 0.319726
Si Si3 0.243233 0.000000 0.333334
Si Si4 0.706645 0.096539 0.698425
Si Si5 0.604008 0.270521 0.875431
Si Si6 0.252810 0.252810 0.500000
Si Si7 0.731455 0.374959 0.736099
Si Si8 0.621057 0.721669 0.760938
O O1 0.466889 0.890729 0.235772
O O2 0.399255 0.007374 0.144416
O O3 0.335782 0.016553 0.268295
O O4 0.599158 0.179552 0.228333
O O5 0.872014 0.353640 0.243629
O O6 0.780356 0.308658 0.361112
O O7 0.985792 0.556844 0.330099
O O8 0.037538 0.356497 0.354067
O O9 0.253139 0.151063 0.339950
O O10 0.726742 0.251627 0.690639
O O11 0.704517 0.073390 0.776824
O O12 0.625181 0.293215 0.796608
O O13 0.750529 0.278626 0.900400
O O14 0.128218 0.258048 0.459227
#
# Coordination Sequence:
#
# PCOD9575739 Si02
#       8
#     6   6   3   6   6   3   6   6
#     4  10  19  36  58  87 121 154 201 259 320 360
#     4  12  22  35  60  97 124 159 213 265 321 379
#     4  10  18  34  56  86 110 152 204 246 304 368
#     4  11  21  36  61  91 122 159 205 267 316 378
#     4  11  20  37  61  90 127 160 207 271 317 369
#     4  12  20  42  60  90 124 166 204 258 312 372
#     4  10  21  37  58  95 123 159 208 261 323 373
#     4  11  22  37  60  94 122 163 210 261 317 384
#
# _framework density 20.136876999999998
#
# number of rings (size 3 to 8) (size 9 to 14) (size 15 to 20)
#    0.000    1.143    7.143    3.429    0.000    0.000 
#    0.000    0.000    0.000    1.714    0.000    1.000 
#    0.000    0.000    0.000    0.000    0.000    0.000 
#
# Total GULP energy -233994.259310 kJ/mol
# GULP energy per Si atom -5571.291888 kJ/mol
# Density = 2.009104 g / cm^3
# Si number density = 20.136877 Si / 1000 Ang^3
#
#
#
# Elastic Constant Matrix: (Units=GPa)
#
#
# Indices 1 2 3 4 5 6 
#
# 1 71.5820 21.5427 10.8204 3.2744 0.0000 0.0000
# 2 21.5427 71.5820 10.8204 -3.2744 0.0000 0.0000
# 3 10.8204 10.8204 65.3638 0.0000 0.0000 0.0000
# 4 3.2744 -3.2744 0.0000 30.7536 0.0000 0.0000
# 5 0.0000 0.0000 0.0000 0.0000 30.7536 3.2744
# 6 0.0000 0.0000 0.0000 0.0000 3.2744 25.0196
#
#
#
# Elastic Compliance Matrix: (Units=1/GPa)
#
#
# Indices 1 2 3 4 5 6 
#
# 1 0.015717 -0.004549 -0.001849 -0.002158 0.000000 0.000000
# 2 -0.004549 0.015717 -0.001849 0.002158 0.000000 0.000000
# 3 -0.001849 -0.001849 0.015911 0.000000 0.000000 0.000000
# 4 -0.002158 0.002158 0.000000 0.032976 0.000000 0.000000
# 5 0.000000 0.000000 0.000000 0.000000 0.032976 -0.004316
# 6 0.000000 0.000000 0.000000 0.000000 -0.004316 0.040533
#
#
# Mechanical properties :
#
#
# Convention : Reuss Voigt Hill
#
# Bulk Modulus (GPa) = 32.41289 32.76607 32.58948
# Shear Modulus (GPa) = 27.68412 28.32831 28.00622
#
# Velocity S-wave (km/s) = 3.71185 3.75479 3.73338
# Velocity P-wave (km/s) = 5.87381 5.92494 5.89943
#
# Compressibility (1/GPa) = 0.03085192
#
# Stress axis : x y z
#
# Youngs Moduli (GPa) = 63.62410 63.62410 62.84926
#
# Poissons Ratio (x) = 0.28945 0.11619
# Poissons Ratio (y) = 0.28945 0.11619
# Poissons Ratio (z) = 0.11762 0.11762
#
# Static dielectric constant tensor:
#      x y z
#    x 1.750080 0.000000 0.000000 
#    y 0.000000 1.750080 0.000000 
#    z 0.000000 0.000000 1.786120 
# 
# From -- ./inp_files/2826.got.cif
#   From: 2010.05.17/outbox.cif.g08.bks.cpg/sg152_2_cif.got.tgz:2826.got - 2010.05.20 10:36:06.
