data_PCOD9575126
_publ_section_title
;
Structure prediction by ZEFSAII (Michael W. Deem and Ramdas Pophale) SiO2 
 PCOD9575126
Probable space group: R -3
;
_chemical_formula_sum "Si O2"
_cell_formula_units_Z 84
_cell_length_a 14.440925
_cell_length_b 14.440925
_cell_length_c 18.162626
_cell_angle_alpha 90.000000
_cell_angle_beta 90.000000
_cell_angle_gamma 120.000000
_cell_volume 3280.192239
_symmetry_space_group_name_H-M "R -3"
_symmetry_group_IT_number 148
_symmetry_cell_setting 'hexagonal'
loop_
_space_group_symop_operation_xyz
x,y,z
-y,x-y,z
-x+y,-x,z
-x,-y,-z
y,-x+y,-z
x-y,x,-z
2/3+x,1/3+y,1/3+z
2/3-y,1/3+x-y,1/3+z
2/3-x+y,1/3-x,1/3+z
2/3-x,1/3-y,1/3-z
2/3+y,1/3-x+y,1/3-z
2/3+x-y,1/3+x,1/3-z
1/3+x,2/3+y,2/3+z
1/3-y,2/3+x-y,2/3+z
1/3-x+y,2/3-x,2/3+z
1/3-x,2/3-y,2/3-z
1/3+y,2/3-x+y,2/3-z
1/3+x-y,2/3+x,2/3-z
loop_
_atom_site_type_symbol
_atom_site_label
_atom_site_fract_x
_atom_site_fract_y
_atom_site_fract_z
Si Si1 0.333334 0.666668 0.575521
Si Si2 0.774316 0.862140 0.898141
Si Si3 0.917657 0.446206 0.818552
Si Si4 0.666667 0.333334 0.064802
Si Si5 0.966646 0.689003 0.971224
Si Si6 0.616914 0.505233 0.088233
O O1 0.225454 0.563188 0.595548
O O2 0.333334 0.666667 0.487272
O O3 0.758972 0.960557 0.923687
O O4 0.779959 0.832382 0.813170
O O5 0.699872 0.759928 0.945583
O O6 0.844408 0.323956 0.845938
O O7 0.955886 0.433882 0.737956
O O8 0.028497 0.515361 0.863901
O O9 0.614538 0.405786 0.047585
O O10 0.037051 0.632964 0.967809
#
# Coordination Sequence:
#
# PCOD9575126 Si02
#       6
#     6  18  18   6  18  18
#     4   9  18  31  55  90 120 159 201 257 312 352
#     4  11  20  35  58  90 128 157 204 258 306 362
#     4  10  21  38  61  91 122 159 207 252 301 360
#     4   9  18  39  64  91 132 162 196 254 305 364
#     4  11  22  35  61  94 120 160 205 254 309 359
#     4  10  21  37  62  93 125 164 202 245 310 369
#
# _framework density 25.608255
#
# number of rings (size 3 to 8) (size 9 to 14) (size 15 to 20)
#    0.000    1.714    0.000    7.286    0.000    2.571 
#    0.000    0.000    0.000   70.714    0.000    0.000 
#    0.000    0.000    0.000    0.000    0.000    0.000 
#
# Total GULP energy -156638.254641 kJ/mol
# GULP energy per Si atom -5594.223380 kJ/mol
# Density = 2.554997 g / cm^3
# Si number density = 25.608255 Si / 1000 Ang^3
#
#
#
# Elastic Constant Matrix: (Units=GPa)
#
#
# Indices 1 2 3 4 5 6 
#
# 1 104.5003 35.8770 6.6692 8.6072 0.3922 0.0001
# 2 35.8770 104.5002 6.6693 -8.6072 -0.3921 -0.0009
# 3 6.6692 6.6693 43.0378 -0.0001 0.0001 0.0001
# 4 8.6072 -8.6072 -0.0001 24.0771 0.0002 -0.3919
# 5 0.3922 -0.3921 0.0001 0.0002 24.0772 8.6069
# 6 0.0001 -0.0009 0.0001 -0.3919 8.6069 34.3111
#
#
#
# Elastic Compliance Matrix: (Units=1/GPa)
#
#
# Indices 1 2 3 4 5 6 
#
# 1 0.011621 -0.004391 -0.001120 -0.005724 -0.000261 0.000000
# 2 -0.004391 0.011621 -0.001120 0.005724 0.000261 0.000000
# 3 -0.001120 -0.001120 0.023583 0.000000 0.000000 0.000000
# 4 -0.005724 0.005724 0.000000 0.045634 0.000000 0.000521
# 5 -0.000261 0.000261 0.000000 0.000000 0.045634 -0.011447
# 6 0.000000 0.000000 0.000000 0.000521 -0.011447 0.032023
#
#
# Mechanical properties :
#
#
# Convention : Reuss Voigt Hill
#
# Bulk Modulus (GPa) = 29.79626 38.94106 34.36866
# Shear Modulus (GPa) = 25.69851 30.01460 27.85656
#
# Velocity S-wave (km/s) = 3.17128 3.42726 3.30175
# Velocity P-wave (km/s) = 5.00700 5.55886 5.29013
#
# Compressibility (1/GPa) = 0.03356126
#
# Stress axis : x y z
#
# Youngs Moduli (GPa) = 86.05396 86.05384 42.40410
#
# Poissons Ratio (x) = 0.37782 0.04751
# Poissons Ratio (y) = 0.37782 0.04751
# Poissons Ratio (z) = 0.09641 0.09642
#
# Static dielectric constant tensor:
#      x y z
#    x 2.048730 0.000000 0.000000 
#    y 0.000000 2.048730 0.000000 
#    z 0.000000 0.000000 1.991510 
# 
# From -- ./inp_files/3348.got.cif
#   From: 2010.05.17/outbox.cif.g08.bks.cpg/sg148_2_cif.got.tgz:3348.got - 2010.05.20 13:50:20.
