data_PCOD9575795
_publ_section_title
;
Structure prediction by ZEFSAII (Michael W. Deem and Ramdas Pophale) SiO2 
 PCOD9575795
Probable space group: P 31 2 1
;
_chemical_formula_sum "Si O2"
_cell_formula_units_Z 36
_cell_length_a 8.983610
_cell_length_b 8.983610
_cell_length_c 26.628110
_cell_angle_alpha 90.000000
_cell_angle_beta 90.000000
_cell_angle_gamma 120.000000
_cell_volume 1861.113048
_symmetry_space_group_name_H-M "P 31 2 1"
_symmetry_group_IT_number 152
_symmetry_cell_setting 'hexagonal'
loop_
_space_group_symop_operation_xyz
x,y,z
-y,x-y,1/3+z
-x+y,-x,2/3+z
x-y,-y,2/3-z
-x,-x+y,1/3-z
y,x,-z
loop_
_atom_site_type_symbol
_atom_site_label
_atom_site_fract_x
_atom_site_fract_y
_atom_site_fract_z
Si Si1 0.403317 0.967548 0.560931
Si Si2 0.075835 0.859593 0.060074
Si Si3 0.004687 0.311217 0.606693
Si Si4 0.258889 0.316832 0.279367
Si Si5 0.618065 0.048877 0.460553
Si Si6 0.051730 0.159237 0.111515
O O1 0.499744 0.926738 0.605366
O O2 0.229703 0.794070 0.545660
O O3 0.353605 0.109947 0.577092
O O4 0.532762 0.030284 0.514424
O O5 0.881550 0.720412 0.075526
O O6 0.075242 0.037534 0.071091
O O7 0.088180 0.815215 0.002305
O O8 0.000000 0.326236 0.666667
O O9 0.025273 0.476441 0.579607
O O10 0.827477 0.135078 0.595560
O O11 0.103125 0.284324 0.242679
O O12 0.671746 0.904848 0.452038
O O13 0.000000 0.071339 0.166667
#
# Coordination Sequence:
#
# PCOD9575795 Si02
#       6
#     6   6   6   6   6   6
#     4  11  23  39  59  88 123 159 202 253 305 365
#     4   9  22  37  63  87 119 164 200 242 309 374
#     4   9  20  39  62  88 117 157 201 247 302 369
#     4  10  20  41  62  87 122 154 202 252 303 367
#     4  11  23  37  60  90 120 157 201 253 304 364
#     4  10  19  37  63  89 116 159 206 248 297 370
#
# _framework density 19.343264000000001
#
# number of rings (size 3 to 8) (size 9 to 14) (size 15 to 20)
#    0.000    2.000    1.667    2.500    7.000    5.333 
#    0.000    6.667    0.000    0.000    0.000    0.000 
#    0.000    0.000    0.000    0.000    0.000    0.000 
#
# Total GULP energy -200732.205127 kJ/mol
# GULP energy per Si atom -5575.894587 kJ/mol
# Density = 1.929924 g / cm^3
# Si number density = 19.343264 Si / 1000 Ang^3
#
#
#
# Elastic Constant Matrix: (Units=GPa)
#
#
# Indices 1 2 3 4 5 6 
#
# 1 92.4956 37.1531 38.1182 4.0181 -0.0003 0.0000
# 2 37.1531 92.4956 38.1182 -4.0181 0.0003 0.0000
# 3 38.1182 38.1182 44.3826 0.0000 0.0000 0.0000
# 4 4.0181 -4.0181 0.0000 27.8878 0.0000 0.0003
# 5 -0.0003 0.0003 0.0000 0.0000 27.8878 4.0181
# 6 0.0000 0.0000 0.0000 0.0003 4.0181 27.6712
#
#
#
# Elastic Compliance Matrix: (Units=1/GPa)
#
#
# Indices 1 2 3 4 5 6 
#
# 1 0.017019 -0.001436 -0.013383 -0.002659 0.000000 0.000000
# 2 -0.001436 0.017019 -0.013383 0.002659 0.000000 0.000000
# 3 -0.013383 -0.013383 0.045520 0.000000 0.000000 0.000000
# 4 -0.002659 0.002659 0.000000 0.036624 0.000000 0.000000
# 5 0.000000 0.000000 0.000000 0.000000 0.036624 -0.005318
# 6 0.000000 0.000000 0.000000 0.000000 -0.005318 0.036911
#
#
# Mechanical properties :
#
#
# Convention : Reuss Voigt Hill
#
# Bulk Modulus (GPa) = 43.19240 50.68367 46.93804
# Shear Modulus (GPa) = 19.69732 24.42166 22.05949
#
# Velocity S-wave (km/s) = 3.19455 3.55708 3.38068
# Velocity P-wave (km/s) = 5.99873 6.56731 6.28945
#
# Compressibility (1/GPa) = 0.02315222
#
# Stress axis : x y z
#
# Youngs Moduli (GPa) = 58.75720 58.75720 21.96823
#
# Poissons Ratio (x) = 0.08439 0.29401
# Poissons Ratio (y) = 0.08439 0.29401
# Poissons Ratio (z) = 0.78638 0.78638
#
# Static dielectric constant tensor:
#      x y z
#    x 1.686300 0.000000 0.000000 
#    y 0.000000 1.686300 0.000000 
#    z 0.000000 0.000000 1.699080 
# 
# From -- ./inp_files/3569.got.cif
#   From: 2010.05.17/outbox.cif.g08.bks.cpg/sg152_2_cif.got.tgz:3569.got - 2010.05.20 10:36:06.
