data_PCOD9575416
_publ_section_title
;
Structure prediction by ZEFSAII (Michael W. Deem and Ramdas Pophale) SiO2 
 PCOD9575416
Probable space group: P 3 2 1
;
_chemical_formula_sum "Si O2"
_cell_formula_units_Z 39
_cell_length_a 15.313759
_cell_length_b 15.313759
_cell_length_c 10.702245
_cell_angle_alpha 90.000000
_cell_angle_beta 90.000000
_cell_angle_gamma 120.000000
_cell_volume 2173.547506
_symmetry_space_group_name_H-M "P 3 2 1"
_symmetry_group_IT_number 150
_symmetry_cell_setting 'hexagonal'
loop_
_space_group_symop_operation_xyz
x,y,z
-y,x-y,z
-x+y,-x,z
x-y,-y,-z
-x,-x+y,-z
y,x,-z
loop_
_atom_site_type_symbol
_atom_site_label
_atom_site_fract_x
_atom_site_fract_y
_atom_site_fract_z
Si Si1 0.617348 0.113388 0.943027
Si Si2 0.138313 0.656224 0.351573
Si Si3 0.718203 0.000000 0.500000
Si Si4 0.998106 0.319901 0.800930
Si Si5 0.556383 0.716971 0.996097
Si Si6 0.275831 0.088591 0.410400
Si Si7 0.535671 0.672842 0.417119
O O1 0.627859 0.112807 0.793169
O O2 0.727791 0.187256 0.001619
O O3 0.545006 0.160351 0.965851
O O4 0.563395 0.000000 0.000000
O O5 0.063170 0.689663 0.407093
O O6 0.249677 0.752766 0.362854
O O7 0.131537 0.564924 0.434353
O O8 0.735960 0.920871 0.576437
O O9 0.042645 0.260029 0.727085
O O10 0.910322 0.267536 0.903667
O O11 0.944832 0.346956 0.689867
O O12 0.095388 0.408782 0.868982
O O13 0.387367 0.118609 0.468527
O O14 0.199210 0.000000 0.500000
#
# Coordination Sequence:
#
# PCOD9575416 Si02
#       7
#     6   6   3   6   6   6   6
#     4  12  22  36  57  85 118 154 197 240 285 346
#     4  11  20  34  55  83 115 139 189 231 276 337
#     4  10  24  36  56  92 106 140 192 244 288 344
#     4  10  19  38  56  76 111 156 185 230 286 349
#     4  11  22  37  56  84 116 158 198 229 291 343
#     4   9  21  39  60  78 112 146 189 230 297 346
#     4  10  19  35  56  82 109 151 179 226 284 346
#
# _framework density 17.943017999999999
#
# number of rings (size 3 to 8) (size 9 to 14) (size 15 to 20)
#    0.000    1.538    4.615    0.615    5.385    0.000 
#    0.462    0.000    0.000    0.000    0.000    0.000 
#    6.154    0.000    0.000    0.000    0.000    0.000 
#
# Total GULP energy -217377.679303 kJ/mol
# GULP energy per Si atom -5573.786649 kJ/mol
# Density = 1.790218 g / cm^3
# Si number density = 17.943018 Si / 1000 Ang^3
#
#
#
# Elastic Constant Matrix: (Units=GPa)
#
#
# Indices 1 2 3 4 5 6 
#
# 1 85.6538 67.4323 9.2934 -1.1241 0.0000 0.0000
# 2 67.4323 85.6538 9.2934 1.1241 0.0000 0.0000
# 3 9.2934 9.2934 30.9461 0.0000 0.0000 0.0000
# 4 -1.1241 1.1241 0.0000 9.1155 0.0000 0.0000
# 5 0.0000 0.0000 0.0000 0.0000 9.1155 -1.1241
# 6 0.0000 0.0000 0.0000 0.0000 -1.1241 9.1107
#
#
#
# Elastic Compliance Matrix: (Units=1/GPa)
#
#
# Indices 1 2 3 4 5 6 
#
# 1 0.031254 -0.024474 -0.002036 0.006872 0.000000 0.000000
# 2 -0.024474 0.031254 -0.002036 -0.006872 0.000000 0.000000
# 3 -0.002036 -0.002036 0.033537 0.000000 0.000000 0.000000
# 4 0.006872 -0.006872 0.000000 0.111398 0.000000 0.000000
# 5 0.000000 0.000000 0.000000 0.000000 0.111398 0.013744
# 6 0.000000 0.000000 0.000000 0.000000 0.013744 0.111456
#
#
# Mechanical properties :
#
#
# Convention : Reuss Voigt Hill
#
# Bulk Modulus (GPa) = 25.67247 41.58801 33.63024
# Shear Modulus (GPa) = 9.99254 13.21732 11.60493
#
# Velocity S-wave (km/s) = 2.36244 2.71703 2.54592
# Velocity P-wave (km/s) = 4.66694 5.75075 5.23696
#
# Compressibility (1/GPa) = 0.03895224
#
# Stress axis : x y z
#
# Youngs Moduli (GPa) = 31.99613 31.99613 29.81774
#
# Poissons Ratio (x) = 0.78308 0.06071
# Poissons Ratio (y) = 0.78308 0.06071
# Poissons Ratio (z) = 0.06514 0.06514
#
# Static dielectric constant tensor:
#      x y z
#    x 1.622710 0.000000 0.000000 
#    y 0.000000 1.622710 0.000000 
#    z 0.000000 0.000000 1.641450 
# 
# From -- ./inp_files/930.got.cif
#   From: 2010.05.17/outbox.cif.g08.bks.cpg/sg150_cif.got.tgz:930.got - 2010.05.20 13:53:18.
