data_PCOD9575486
_publ_section_title
;
Structure prediction by ZEFSAII (Michael W. Deem and Ramdas Pophale) SiO2 
 PCOD9575486
Probable space group: P 3 2 1
;
_chemical_formula_sum "Si O2"
_cell_formula_units_Z 18
_cell_length_a 8.887875
_cell_length_b 8.887875
_cell_length_c 13.996908
_cell_angle_alpha 90.000000
_cell_angle_beta 90.000000
_cell_angle_gamma 120.000000
_cell_volume 957.543728
_symmetry_space_group_name_H-M "P 3 2 1"
_symmetry_group_IT_number 150
_symmetry_cell_setting 'hexagonal'
loop_
_space_group_symop_operation_xyz
x,y,z
-y,x-y,z
-x+y,-x,z
x-y,-y,-z
-x,-x+y,-z
y,x,-z
loop_
_atom_site_type_symbol
_atom_site_label
_atom_site_fract_x
_atom_site_fract_y
_atom_site_fract_z
Si Si1 0.999859 0.665036 0.114326
Si Si2 0.198794 0.000322 0.607845
Si Si3 0.667023 0.666712 0.808339
O O1 0.035559 0.519101 0.157736
O O2 0.814814 0.631582 0.150988
O O3 0.149633 0.852255 0.149677
O O4 0.000000 0.657114 0.000000
O O5 0.161461 0.161713 0.617247
O O6 0.259293 0.000000 0.500000
O O7 0.313898 0.000232 0.693968
#
# Coordination Sequence:
#
# PCOD9575486 Si02
#       3
#     6   6   6
#     4  12  24  39  61  87 126 166 213 257 305 367
#     4   8  15  35  66  94 120 157 199 250 312 370
#     4  12  23  42  61  93 122 167 208 255 315 361
#
# _framework density 18.798096000000001
#
# number of rings (size 3 to 8) (size 9 to 14) (size 15 to 20)
#    0.667    0.667    3.333    5.000    0.000    0.000 
#    0.000    3.333    0.000    0.000    0.000    0.000 
#    0.000    0.000    0.000    0.000    0.000    0.000 
#
# Total GULP energy -100482.556860 kJ/mol
# GULP energy per Si atom -5582.364270 kJ/mol
# Density = 1.875531 g / cm^3
# Si number density = 18.798096 Si / 1000 Ang^3
#
#
#
# Elastic Constant Matrix: (Units=GPa)
#
#
# Indices 1 2 3 4 5 6 
#
# 1 44.3603 -20.9101 22.7288 7.5689 0.0000 0.0000
# 2 -20.9101 44.3603 22.7288 -7.5689 0.0000 0.0000
# 3 22.7288 22.7288 207.3040 0.0000 0.0000 0.0000
# 4 7.5689 -7.5689 0.0000 43.8555 0.0000 0.0000
# 5 0.0000 0.0000 0.0000 0.0000 43.8555 7.5689
# 6 0.0000 0.0000 0.0000 0.0000 7.5689 32.6352
#
#
#
# Elastic Compliance Matrix: (Units=1/GPa)
#
#
# Indices 1 2 3 4 5 6 
#
# 1 0.035056 0.019097 -0.005937 -0.002754 0.000000 0.000000
# 2 0.019097 0.035056 -0.005937 0.002754 0.000000 0.000000
# 3 -0.005937 -0.005937 0.006126 0.000000 0.000000 0.000000
# 4 -0.002754 0.002754 0.000000 0.023753 0.000000 0.000000
# 5 0.000000 0.000000 0.000000 0.000000 0.023753 -0.005509
# 6 0.000000 0.000000 0.000000 0.000000 -0.005509 0.031919
#
#
# Mechanical properties :
#
#
# Convention : Reuss Voigt Hill
#
# Bulk Modulus (GPa) = 11.02750 38.34662 24.68706
# Shear Modulus (GPa) = 29.16348 42.16770 35.66559
#
# Velocity S-wave (km/s) = 3.94306 4.74137 4.36052
# Velocity P-wave (km/s) = 5.15842 7.10054 6.20592
#
# Compressibility (1/GPa) = 0.09068240
#
# Stress axis : x y z
#
# Youngs Moduli (GPa) = 28.52551 28.52551 163.24477
#
# Poissons Ratio (x) = -0.54474 0.96924
# Poissons Ratio (y) = -0.54474 0.96924
# Poissons Ratio (z) = 0.16937 0.16937
#
# Static dielectric constant tensor:
#      x y z
#    x 1.618780 0.000000 0.000000 
#    y 0.000000 1.618780 0.000000 
#    z 0.000000 0.000000 1.641710 
# 
# From -- ./inp_files/847.got.cif
#   From: 2010.05.17/outbox.cif.g08.bks.cpg/sg150_cif.got.tgz:847.got - 2010.05.20 13:53:18.
