data_PCOD9575439
_publ_section_title
;
Structure prediction by ZEFSAII (Michael W. Deem and Ramdas Pophale) SiO2 
 PCOD9575439
Probable space group: P 3 2 1
;
_chemical_formula_sum "Si O2"
_cell_formula_units_Z 45
_cell_length_a 14.577364
_cell_length_b 14.577364
_cell_length_c 12.088455
_cell_angle_alpha 90.000000
_cell_angle_beta 90.000000
_cell_angle_gamma 120.000000
_cell_volume 2224.638385
_symmetry_space_group_name_H-M "P 3 2 1"
_symmetry_group_IT_number 150
_symmetry_cell_setting 'hexagonal'
loop_
_space_group_symop_operation_xyz
x,y,z
-y,x-y,z
-x+y,-x,z
x-y,-y,-z
-x,-x+y,-z
y,x,-z
loop_
_atom_site_type_symbol
_atom_site_label
_atom_site_fract_x
_atom_site_fract_y
_atom_site_fract_z
Si Si1 0.675213 0.889600 0.972172
Si Si2 0.122002 0.626556 0.533655
Si Si3 0.328425 0.000000 0.000000
Si Si4 0.843355 0.289194 0.542986
Si Si5 0.888803 0.112105 0.452646
Si Si6 0.441007 0.306137 0.811534
Si Si7 0.463956 0.102270 0.783500
Si Si8 0.072800 0.738707 0.724431
O O1 0.684265 0.786548 0.988693
O O2 0.638257 0.887092 0.848277
O O3 0.594672 0.891385 0.061196
O O4 0.781966 0.000000 0.000000
O O5 0.143719 0.528994 0.533689
O O6 0.208264 0.715547 0.450482
O O7 0.125185 0.687113 0.646823
O O8 0.000000 0.577443 0.500000
O O9 0.394844 0.023699 0.883956
O O10 0.880816 0.211287 0.496008
O O11 0.911669 0.341671 0.654274
O O12 0.853022 0.100978 0.325032
O O13 0.000000 0.131915 0.500000
O O14 0.798462 0.000000 0.500000
O O15 0.470862 0.215037 0.802520
O O16 0.535606 0.421474 0.786256
O O17 0.340644 0.286747 0.736634
#
# Coordination Sequence:
#
# PCOD9575439 Si02
#       8
#     6   6   3   6   6   6   6   6
#     4   9  21  43  65  89 128 168 217 270 330 388
#     4  11  22  40  60  94 126 172 213 257 321 391
#     4  10  24  38  62  98 122 160 222 272 322 392
#     4  11  22  37  63  92 128 165 214 261 315 391
#     4  11  24  41  62  91 128 174 224 269 322 396
#     4  10  21  39  63  95 124 175 211 269 327 391
#     4  11  21  36  63  94 129 158 217 265 317 387
#     4  10  21  41  65  85 131 171 210 269 335 383
#
# _framework density 20.228007000000002
#
# number of rings (size 3 to 8) (size 9 to 14) (size 15 to 20)
#    0.000    1.600    0.000    5.867    4.667    0.000 
#    2.800    0.000    0.000    0.000    0.000    0.000 
#    0.000    0.000    0.000    0.000    0.000    0.000 
#
# Total GULP energy -250769.204492 kJ/mol
# GULP energy per Si atom -5572.648989 kJ/mol
# Density = 2.018197 g / cm^3
# Si number density = 20.228007 Si / 1000 Ang^3
#
#
#
# Elastic Constant Matrix: (Units=GPa)
#
#
# Indices 1 2 3 4 5 6 
#
# 1 87.2911 44.6729 30.5704 7.2997 0.0000 0.0000
# 2 44.6729 87.2911 30.5704 -7.2997 0.0000 0.0000
# 3 30.5704 30.5704 123.1955 0.0000 0.0000 0.0000
# 4 7.2997 -7.2997 0.0000 23.2217 0.0000 0.0000
# 5 0.0000 0.0000 0.0000 0.0000 23.2217 7.2997
# 6 0.0000 0.0000 0.0000 0.0000 7.2997 21.3091
#
#
#
# Elastic Compliance Matrix: (Units=1/GPa)
#
#
# Indices 1 2 3 4 5 6 
#
# 1 0.017429 -0.008867 -0.002125 -0.008266 0.000000 0.000000
# 2 -0.008867 0.017429 -0.002125 0.008266 0.000000 0.000000
# 3 -0.002125 -0.002125 0.009172 0.000000 0.000000 0.000000
# 4 -0.008266 0.008266 0.000000 0.048260 0.000000 0.000000
# 5 0.000000 0.000000 0.000000 0.000000 0.048260 -0.016532
# 6 0.000000 0.000000 0.000000 0.000000 -0.016532 0.052592
#
#
# Mechanical properties :
#
#
# Convention : Reuss Voigt Hill
#
# Bulk Modulus (GPa) = 56.18807 56.60055 56.39431
# Shear Modulus (GPa) = 22.19203 26.34810 24.27007
#
# Velocity S-wave (km/s) = 3.31583 3.61301 3.46761
# Velocity P-wave (km/s) = 6.51900 6.74145 6.63116
#
# Compressibility (1/GPa) = 0.01779737
#
# Stress axis : x y z
#
# Youngs Moduli (GPa) = 57.37558 57.37558 109.03188
#
# Poissons Ratio (x) = 0.50874 0.23166
# Poissons Ratio (y) = 0.50874 0.23166
# Poissons Ratio (z) = 0.12190 0.12190
#
# Static dielectric constant tensor:
#      x y z
#    x 1.745110 0.000000 0.000000 
#    y 0.000000 1.745110 0.000000 
#    z 0.000000 0.000000 1.777900 
# 
# From -- ./inp_files/965.got.cif
#   From: 2010.05.17/outbox.cif.g08.bks.cpg/sg150_cif.got.tgz:965.got - 2010.05.20 13:53:18.
