data_PCOD9575990
_publ_section_title
;
Structure prediction by ZEFSAII (Michael W. Deem and Ramdas Pophale) SiO2 
 PCOD9575990
Probable space group: P 31 2 1
;
_chemical_formula_sum "Si O2"
_cell_formula_units_Z 45
_cell_length_a 16.966473
_cell_length_b 16.966473
_cell_length_c 10.439132
_cell_angle_alpha 90.000000
_cell_angle_beta 90.000000
_cell_angle_gamma 120.000000
_cell_volume 2602.424636
_symmetry_space_group_name_H-M "P 31 2 1"
_symmetry_group_IT_number 152
_symmetry_cell_setting 'hexagonal'
loop_
_space_group_symop_operation_xyz
x,y,z
-y,x-y,1/3+z
-x+y,-x,2/3+z
x-y,-y,2/3-z
-x,-x+y,1/3-z
y,x,-z
loop_
_atom_site_type_symbol
_atom_site_label
_atom_site_fract_x
_atom_site_fract_y
_atom_site_fract_z
Si Si1 0.385257 0.600855 0.327025
Si Si2 0.603359 0.603359 0.000000
Si Si3 0.353846 0.895588 0.863386
Si Si4 0.548042 0.081788 0.548753
Si Si5 0.175308 0.777204 0.985778
Si Si6 0.815065 0.219128 0.719661
Si Si7 0.694810 0.274973 0.565867
Si Si8 0.325093 0.344565 0.651014
O O1 0.464780 0.618431 0.423737
O O2 0.316143 0.494684 0.310287
O O3 0.426763 0.654938 0.196049
O O4 0.325035 0.642767 0.382026
O O5 0.556212 0.533810 0.118909
O O6 0.703874 0.614348 0.995180
O O7 0.393828 0.000000 0.833334
O O8 0.400528 0.891669 0.995380
O O9 0.246087 0.843893 0.882962
O O10 0.624569 0.180470 0.494912
O O11 0.600955 0.032281 0.602443
O O12 0.212005 0.818410 0.126959
O O13 0.070052 0.746499 0.971652
O O14 0.740383 0.247436 0.679392
O O15 0.769173 0.114612 0.672867
O O16 0.354350 0.354350 0.500000
#
# Coordination Sequence:
#
# PCOD9575990 Si02
#       8
#     6   3   6   6   6   6   6   6
#     4  12  20  33  53  77 110 149 188 223 269 324
#     4  12  22  32  58  78 112 146 176 234 288 324
#     4  12  24  35  51  80 111 143 193 236 270 321
#     4  11  21  37  51  78 116 143 187 223 271 326
#     4  11  20  37  55  75 106 144 191 227 273 327
#     4  10  22  37  54  80 109 140 182 233 282 326
#     4  11  21  34  51  79 111 148 182 224 267 328
#     4   9  20  37  59  76 104 148 184 229 273 328
#
# _framework density 17.291568000000002
#
# number of rings (size 3 to 8) (size 9 to 14) (size 15 to 20)
#    0.000    1.067    4.000    5.200    3.733    1.067 
#    0.000    0.000    0.000    0.000    0.000    2.800 
#    0.000    0.000    0.000    0.000    0.000    0.000 
#
# Total GULP energy -251346.850750 kJ/mol
# GULP energy per Si atom -5585.485572 kJ/mol
# Density = 1.725221 g / cm^3
# Si number density = 17.291568 Si / 1000 Ang^3
#
#
#
# Elastic Constant Matrix: (Units=GPa)
#
#
# Indices 1 2 3 4 5 6 
#
# 1 89.1792 46.0673 4.5194 0.1378 0.0001 0.0000
# 2 46.0673 89.1792 4.5194 -0.1378 -0.0001 0.0000
# 3 4.5194 4.5194 17.3524 0.0000 0.0000 0.0000
# 4 0.1378 -0.1378 0.0000 16.4120 0.0000 -0.0001
# 5 0.0001 -0.0001 0.0000 0.0000 16.4120 0.1378
# 6 0.0000 0.0000 0.0000 -0.0001 0.1378 21.5560
#
#
#
# Elastic Compliance Matrix: (Units=1/GPa)
#
#
# Indices 1 2 3 4 5 6 
#
# 1 0.015361 -0.007836 -0.001960 -0.000195 0.000000 0.000000
# 2 -0.007836 0.015361 -0.001960 0.000195 0.000000 0.000000
# 3 -0.001960 -0.001960 0.058650 0.000000 0.000000 0.000000
# 4 -0.000195 0.000195 0.000000 0.060934 0.000000 0.000000
# 5 0.000000 0.000000 0.000000 0.000000 0.060934 -0.000389
# 6 0.000000 0.000000 0.000000 0.000000 -0.000389 0.046393
#
#
# Mechanical properties :
#
#
# Convention : Reuss Voigt Hill
#
# Bulk Modulus (GPa) = 15.18365 33.99144 24.58755
# Shear Modulus (GPa) = 16.49629 20.24961 18.37295
#
# Velocity S-wave (km/s) = 3.09205 3.42580 3.26320
# Velocity P-wave (km/s) = 4.64195 5.94547 5.33368
#
# Compressibility (1/GPa) = 0.06586030
#
# Stress axis : x y z
#
# Youngs Moduli (GPa) = 65.10081 65.10081 17.05032
#
# Poissons Ratio (x) = 0.51012 0.03342
# Poissons Ratio (y) = 0.51012 0.03342
# Poissons Ratio (z) = 0.12759 0.12759
#
# Static dielectric constant tensor:
#      x y z
#    x 1.632490 0.000000 0.000000 
#    y 0.000000 1.632490 0.000000 
#    z 0.000000 0.000000 1.622830 
# 
# From -- ./inp_files/1875.got.cif
#   From: 2010.05.17/outbox.cif.g08.bks.cpg/sg152_1_cif.got.tgz:1875.got - 2010.05.20 10:36:06.
