data_PCOD9575060
_publ_section_title
;
Structure prediction by ZEFSAII (Michael W. Deem and Ramdas Pophale) SiO2 
 PCOD9575060
Probable space group: R -3
;
_chemical_formula_sum "Si O2"
_cell_formula_units_Z 108
_cell_length_a 23.249836
_cell_length_b 23.249836
_cell_length_c 12.596521
_cell_angle_alpha 90.000000
_cell_angle_beta 90.000000
_cell_angle_gamma 120.000000
_cell_volume 5896.862949
_symmetry_space_group_name_H-M "R -3"
_symmetry_group_IT_number 148
_symmetry_cell_setting 'hexagonal'
loop_
_space_group_symop_operation_xyz
x,y,z
-y,x-y,z
-x+y,-x,z
-x,-y,-z
y,-x+y,-z
x-y,x,-z
2/3+x,1/3+y,1/3+z
2/3-y,1/3+x-y,1/3+z
2/3-x+y,1/3-x,1/3+z
2/3-x,1/3-y,1/3-z
2/3+y,1/3-x+y,1/3-z
2/3+x-y,1/3+x,1/3-z
1/3+x,2/3+y,2/3+z
1/3-y,2/3+x-y,2/3+z
1/3-x+y,2/3-x,2/3+z
1/3-x,2/3-y,2/3-z
1/3+y,2/3-x+y,2/3-z
1/3+x-y,2/3+x,2/3-z
loop_
_atom_site_type_symbol
_atom_site_label
_atom_site_fract_x
_atom_site_fract_y
_atom_site_fract_z
Si Si1 0.171161 0.409960 0.225536
Si Si2 0.269512 0.409435 0.856414
Si Si3 0.523410 0.920858 0.746356
Si Si4 0.864165 0.593195 0.158668
Si Si5 0.421710 0.919969 0.900354
Si Si6 0.281442 0.402888 0.099657
O O1 0.118949 0.332330 0.246268
O O2 0.215412 0.435144 0.333709
O O3 0.223131 0.416531 0.135784
O O4 0.125947 0.440774 0.189950
O O5 0.328460 0.465178 0.789505
O O6 0.208693 0.422107 0.872019
O O7 0.244470 0.338169 0.800100
O O8 0.293630 0.407050 0.974110
O O9 0.528911 0.923558 0.620311
O O10 0.455375 0.912174 0.793168
O O11 0.582805 0.991333 0.793419
O O12 0.886337 0.543705 0.110317
#
# Coordination Sequence:
#
# PCOD9575060 Si02
#       6
#    18  18  18  18  18  18
#     4  10  21  36  55  82 112 147 189 224 279 332
#     4  10  20  36  52  82 114 141 185 228 280 332
#     4  10  19  36  56  79 114 144 180 231 282 335
#     4  10  21  33  55  83 109 148 181 224 281 337
#     4  10  20  36  55  82 112 147 184 225 275 340
#     4  10  21  35  56  80 111 148 184 234 278 332
#
# _framework density 18.314821999999999
#
# number of rings (size 3 to 8) (size 9 to 14) (size 15 to 20)
#    0.000    2.000    1.667    2.000    2.333    1.333 
#    0.000    0.000    0.000    1.000    4.333    2.333 
#    0.000    0.000    0.000    0.000    0.000    0.000 
#
# Total GULP energy -200702.292114 kJ/mol
# GULP energy per Si atom -5575.063670 kJ/mol
# Density = 1.827314 g / cm^3
# Si number density = 18.314822 Si / 1000 Ang^3
#
#
#
# Elastic Constant Matrix: (Units=GPa)
#
#
# Indices 1 2 3 4 5 6 
#
# 1 72.6391 31.4763 -5.5506 1.1802 3.2129 0.0000
# 2 31.4763 72.6391 -5.5506 -1.1802 -3.2130 0.0000
# 3 -5.5506 -5.5506 30.5003 0.0000 -0.0001 0.0000
# 4 1.1802 -1.1802 0.0000 23.1789 0.0000 -3.2130
# 5 3.2129 -3.2130 -0.0001 0.0000 23.1789 1.1802
# 6 0.0000 0.0000 0.0000 -3.2130 1.1802 20.5814
#
#
#
# Elastic Compliance Matrix: (Units=1/GPa)
#
#
# Indices 1 2 3 4 5 6 
#
# 1 0.017350 -0.007555 0.001782 -0.001268 -0.003452 0.000000
# 2 -0.007555 0.017350 0.001783 0.001268 0.003452 0.000000
# 3 0.001782 0.001783 0.033435 0.000000 0.000000 0.000000
# 4 -0.001268 0.001268 0.000000 0.044229 0.000000 0.006905
# 5 -0.003452 0.003452 0.000000 0.000000 0.044229 -0.002536
# 6 0.000000 0.000000 0.000000 0.006905 -0.002536 0.049811
#
#
# Mechanical properties :
#
#
# Convention : Reuss Voigt Hill
#
# Bulk Modulus (GPa) = 16.62374 24.05873 20.34124
# Shear Modulus (GPa) = 21.32773 23.74806 22.53789
#
# Velocity S-wave (km/s) = 3.41619 3.60482 3.51177
# Velocity P-wave (km/s) = 4.96556 5.52187 5.25109
#
# Compressibility (1/GPa) = 0.06015494
#
# Stress axis : x y z
#
# Youngs Moduli (GPa) = 57.63651 57.63651 29.90846
#
# Poissons Ratio (x) = 0.43546 -0.05331
# Poissons Ratio (y) = 0.43546 -0.05331
# Poissons Ratio (z) = -0.10274 -0.10274
#
# Static dielectric constant tensor:
#      x y z
#    x 1.631610 0.000000 0.000000 
#    y 0.000000 1.631610 0.000000 
#    z 0.000000 0.000000 1.668470 
# 
# From -- ./inp_files/1531.got.cif
#   From: 2010.05.17/outbox.cif.g08.bks.cpg/sg148_1_cif.got.tgz:1531.got - 2010.05.20 13:50:20.
