data_PCOD9575227
_publ_section_title
;
Structure prediction by ZEFSAII (Michael W. Deem and Ramdas Pophale) SiO2 
 PCOD9575227
Probable space group: R -3
;
_chemical_formula_sum "Si O2"
_cell_formula_units_Z 72
_cell_length_a 11.166413
_cell_length_b 11.166413
_cell_length_c 29.821597
_cell_angle_alpha 90.000000
_cell_angle_beta 90.000000
_cell_angle_gamma 120.000000
_cell_volume 3220.244906
_symmetry_space_group_name_H-M "R -3"
_symmetry_group_IT_number 148
_symmetry_cell_setting 'hexagonal'
loop_
_space_group_symop_operation_xyz
x,y,z
-y,x-y,z
-x+y,-x,z
-x,-y,-z
y,-x+y,-z
x-y,x,-z
2/3+x,1/3+y,1/3+z
2/3-y,1/3+x-y,1/3+z
2/3-x+y,1/3-x,1/3+z
2/3-x,1/3-y,1/3-z
2/3+y,1/3-x+y,1/3-z
2/3+x-y,1/3+x,1/3-z
1/3+x,2/3+y,2/3+z
1/3-y,2/3+x-y,2/3+z
1/3-x+y,2/3-x,2/3+z
1/3-x,2/3-y,2/3-z
1/3+y,2/3-x+y,2/3-z
1/3+x-y,2/3+x,2/3-z
loop_
_atom_site_type_symbol
_atom_site_label
_atom_site_fract_x
_atom_site_fract_y
_atom_site_fract_z
Si Si1 0.718268 0.102828 0.470171
Si Si2 0.642465 0.722709 0.672520
Si Si3 0.321235 0.816824 0.259853
Si Si4 0.608162 0.585918 0.440604
O O1 0.770047 0.000076 0.452481
O O2 0.570644 0.055341 0.447656
O O3 0.833884 0.252539 0.452685
O O4 0.685508 0.087540 0.522713
O O5 0.507858 0.573237 0.666645
O O6 0.757440 0.752290 0.635071
O O7 0.693161 0.733170 0.723314
O O8 0.201410 0.658624 0.261643
#
# Coordination Sequence:
#
# PCOD9575227 Si02
#       4
#    18  18  18  18
#     4  11  24  45  69 100 143 183 245 290 349 416
#     4  12  22  43  74 106 140 184 235 293 353 419
#     4  10  25  45  67 106 139 190 235 284 349 432
#     4  11  24  43  70 106 136 191 232 299 350 416
#
# _framework density 22.358549
#
# number of rings (size 3 to 8) (size 9 to 14) (size 15 to 20)
#    0.500    0.500    5.000    0.750    3.500    1.000 
#    9.000    1.250    0.000    0.000    0.000    0.000 
#    0.000    0.000    0.000    0.000    0.000    0.000 
#
# Total GULP energy -134261.879854 kJ/mol
# GULP energy per Si atom -5594.244994 kJ/mol
# Density = 2.230766 g / cm^3
# Si number density = 22.358549 Si / 1000 Ang^3
#
#
#
# Elastic Constant Matrix: (Units=GPa)
#
#
# Indices 1 2 3 4 5 6 
#
# 1 73.3263 14.4168 1.7816 6.9645 -3.7537 0.0000
# 2 14.4168 73.3263 1.7816 -6.9645 3.7537 0.0000
# 3 1.7816 1.7816 127.1011 0.0000 0.0000 0.0000
# 4 6.9645 -6.9645 0.0000 32.4347 0.0000 3.7537
# 5 -3.7537 3.7537 0.0000 0.0000 32.4347 6.9645
# 6 0.0000 0.0000 0.0000 3.7537 6.9645 29.4548
#
#
#
# Elastic Compliance Matrix: (Units=1/GPa)
#
#
# Indices 1 2 3 4 5 6 
#
# 1 0.014784 -0.003381 -0.000160 -0.003901 0.002102 0.000000
# 2 -0.003381 0.014784 -0.000160 0.003901 -0.002102 0.000000
# 3 -0.000160 -0.000160 0.007872 0.000000 0.000000 0.000000
# 4 -0.003901 0.003901 0.000000 0.032993 0.000000 -0.004205
# 5 0.002102 -0.002102 0.000000 0.000000 0.032993 -0.007801
# 6 0.000000 0.000000 0.000000 -0.004205 -0.007801 0.036331
#
#
# Mechanical properties :
#
#
# Convention : Reuss Voigt Hill
#
# Bulk Modulus (GPa) = 33.28933 34.41264 33.85098
# Shear Modulus (GPa) = 31.81229 35.91640 33.86434
#
# Velocity S-wave (km/s) = 3.77613 4.01232 3.89601
# Velocity P-wave (km/s) = 5.82523 6.07368 5.95076
#
# Compressibility (1/GPa) = 0.03003966
#
# Stress axis : x y z
#
# Youngs Moduli (GPa) = 67.63895 67.63895 127.02871
#
# Poissons Ratio (x) = 0.22869 0.02031
# Poissons Ratio (y) = 0.22869 0.02031
# Poissons Ratio (z) = 0.01081 0.01081
#
# Static dielectric constant tensor:
#      x y z
#    x 1.824580 0.000000 0.000000 
#    y 0.000000 1.824580 0.000000 
#    z 0.000000 0.000000 1.812440 
# 
# From -- ./inp_files/3898.got.cif
#   From: 2010.05.17/outbox.cif.g08.bks.cpg/sg148_2_cif.got.tgz:3898.got - 2010.05.20 13:50:20.
