data_PCOD9575972
_publ_section_title
;
Structure prediction by ZEFSAII (Michael W. Deem and Ramdas Pophale) SiO2 
 PCOD9575972
Probable space group: P 31 2 1
;
_chemical_formula_sum "Si O2"
_cell_formula_units_Z 24
_cell_length_a 14.120511
_cell_length_b 14.120511
_cell_length_c 5.778311
_cell_angle_alpha 90.000000
_cell_angle_beta 90.000000
_cell_angle_gamma 120.000000
_cell_volume 997.774433
_symmetry_space_group_name_H-M "P 31 2 1"
_symmetry_group_IT_number 152
_symmetry_cell_setting 'hexagonal'
loop_
_space_group_symop_operation_xyz
x,y,z
-y,x-y,1/3+z
-x+y,-x,2/3+z
x-y,-y,2/3-z
-x,-x+y,1/3-z
y,x,-z
loop_
_atom_site_type_symbol
_atom_site_label
_atom_site_fract_x
_atom_site_fract_y
_atom_site_fract_z
Si Si1 0.472666 0.359311 0.368126
Si Si2 0.764487 0.764487 0.000000
Si Si3 0.000000 0.891428 0.666667
Si Si4 0.288141 0.842342 0.035289
Si Si5 0.316294 0.180707 0.012178
O O1 0.407830 0.407830 0.500000
O O2 0.490503 0.280969 0.544325
O O3 0.587970 0.459337 0.289317
O O4 0.401049 0.284408 0.155598
O O5 0.738338 0.654687 0.130119
O O6 0.784169 0.859230 0.179837
O O7 0.050159 0.817701 0.834379
O O8 0.941752 0.941752 0.500000
O O9 0.250416 0.858257 0.782144
#
# Coordination Sequence:
#
# PCOD9575972 Si02
#       5
#     6   3   3   6   6
#     4  11  26  44  69 105 143 192 253 314 391 470
#     4  10  21  41  64  94 128 176 228 287 361 448
#     4  12  25  41  68 102 142 190 246 301 373 454
#     4  11  25  43  71 101 142 189 249 308 391 459
#     4  11  24  42  67  97 140 187 241 311 377 454
#
# _framework density 24.053531
#
# number of rings (size 3 to 8) (size 9 to 14) (size 15 to 20)
#    0.000    1.000    0.000    6.000    3.500   10.000 
#    0.000    0.000    0.000    0.000    0.000    0.000 
#    0.000    0.000    0.000    0.000    0.000    0.000 
#
# Total GULP energy -133706.718517 kJ/mol
# GULP energy per Si atom -5571.113272 kJ/mol
# Density = 2.399878 g / cm^3
# Si number density = 24.053531 Si / 1000 Ang^3
#
#
#
# Elastic Constant Matrix: (Units=GPa)
#
#
# Indices 1 2 3 4 5 6 
#
# 1 151.8661 74.7613 56.8961 -2.5706 0.0000 0.0000
# 2 74.7613 151.8661 56.8961 2.5706 0.0000 0.0000
# 3 56.8961 56.8961 78.7284 0.0000 0.0000 0.0000
# 4 -2.5706 2.5706 0.0000 41.8286 0.0000 0.0000
# 5 0.0000 0.0000 0.0000 0.0000 41.8286 -2.5706
# 6 0.0000 0.0000 0.0000 0.0000 -2.5706 38.5524
#
#
#
# Elastic Compliance Matrix: (Units=1/GPa)
#
#
# Indices 1 2 3 4 5 6 
#
# 1 0.009974 -0.003049 -0.005005 0.000800 0.000000 0.000000
# 2 -0.003049 0.009974 -0.005005 -0.000800 0.000000 0.000000
# 3 -0.005005 -0.005005 0.019936 0.000000 0.000000 0.000000
# 4 0.000800 -0.000800 0.000000 0.024005 0.000000 0.000000
# 5 0.000000 0.000000 0.000000 0.000000 0.024005 0.001601
# 6 0.000000 0.000000 0.000000 0.000000 0.001601 0.026045
#
#
# Mechanical properties :
#
#
# Convention : Reuss Voigt Hill
#
# Bulk Modulus (GPa) = 72.63703 84.39637 78.51670
# Shear Modulus (GPa) = 34.56685 37.36905 35.96795
#
# Velocity S-wave (km/s) = 3.79500 3.94582 3.87114
# Velocity P-wave (km/s) = 7.03323 7.47813 7.25909
#
# Compressibility (1/GPa) = 0.01376708
#
# Stress axis : x y z
#
# Youngs Moduli (GPa) = 100.25889 100.25889 50.16031
#
# Poissons Ratio (x) = 0.30564 0.25106
# Poissons Ratio (y) = 0.30564 0.25106
# Poissons Ratio (z) = 0.50180 0.50180
#
# Static dielectric constant tensor:
#      x y z
#    x 2.440000 0.000000 0.000000 
#    y 0.000000 2.440000 0.000000 
#    z 0.000000 0.000000 2.962330 
# 
# From -- ./inp_files/211.got.cif
#   From: 2010.05.17/outbox.cif.g08.bks.cpg/sg152_1_cif.got.tgz:211.got - 2010.05.20 10:36:06.
