data_PCOD9575714
_publ_section_title
;
Structure prediction by ZEFSAII (Michael W. Deem and Ramdas Pophale) SiO2 
 PCOD9575714
Probable space group: P 31 2 1
;
_chemical_formula_sum "Si O2"
_cell_formula_units_Z 24
_cell_length_a 13.315701
_cell_length_b 13.315701
_cell_length_c 5.758924
_cell_angle_alpha 90.000000
_cell_angle_beta 90.000000
_cell_angle_gamma 120.000000
_cell_volume 884.300862
_symmetry_space_group_name_H-M "P 31 2 1"
_symmetry_group_IT_number 152
_symmetry_cell_setting 'hexagonal'
loop_
_space_group_symop_operation_xyz
x,y,z
-y,x-y,1/3+z
-x+y,-x,2/3+z
x-y,-y,2/3-z
-x,-x+y,1/3-z
y,x,-z
loop_
_atom_site_type_symbol
_atom_site_label
_atom_site_fract_x
_atom_site_fract_y
_atom_site_fract_z
Si Si1 0.841716 0.140089 0.074318
Si Si2 0.722035 0.275851 0.088905
Si Si3 0.129913 0.829509 0.428714
Si Si4 0.496712 0.936060 0.085522
O O1 0.732034 0.161799 0.088075
O O2 0.892543 0.186811 0.329241
O O3 0.802010 0.004851 0.088334
O O4 0.887754 0.180810 0.816674
O O5 0.746549 0.346886 0.325584
O O6 0.825539 0.367379 0.925331
O O7 0.112374 0.699570 0.421322
O O8 0.510225 0.000000 0.333334
O O9 0.512486 0.000000 0.833334
#
# Coordination Sequence:
#
# PCOD9575714 Si02
#       4
#     6   6   6   6
#     4  10  19  31  48  67  88 117 150 198 245 287
#     4  12  25  33  50  77  97 118 169 233 252 264
#     4  10  16  33  49  60  88 124 147 178 259 299
#     4  12  22  37  50  62  93 133 157 192 253 316
#
# _framework density 27.140084999999999
#
# number of rings (size 3 to 8) (size 9 to 14) (size 15 to 20)
#    0.000    1.000    7.500    1.500    3.500    0.000 
#    0.000    0.000    0.000    0.000    0.000    0.000 
#    0.000    0.000    0.000    0.000    0.000    0.000 
#
# Total GULP energy -133997.098909 kJ/mol
# GULP energy per Si atom -5583.212455 kJ/mol
# Density = 2.707831 g / cm^3
# Si number density = 27.140085 Si / 1000 Ang^3
#
#
#
# Elastic Constant Matrix: (Units=GPa)
#
#
# Indices 1 2 3 4 5 6 
#
# 1 -637.0876 708.1435 47.2985 36.2402 -0.0013 0.0000
# 2 708.1435 -637.0876 47.2985 -36.2402 0.0013 0.0000
# 3 47.2985 47.2985 321.0332 0.0000 0.0000 0.0000
# 4 36.2402 -36.2402 0.0000 45.2023 0.0000 0.0013
# 5 -0.0013 0.0013 0.0000 0.0000 45.2023 36.2402
# 6 0.0000 0.0000 0.0000 0.0013 36.2402 -672.6155
#
#
#
# Elastic Compliance Matrix: (Units=1/GPa)
#
#
# Indices 1 2 3 4 5 6 
#
# 1 0.008397 0.009110 -0.002579 0.000571 0.000000 0.000000
# 2 0.009110 0.008397 -0.002579 -0.000571 0.000000 0.000000
# 3 -0.002579 -0.002579 0.003875 0.000000 0.000000 0.000000
# 4 0.000571 -0.000571 0.000000 0.021207 0.000000 0.000000
# 5 0.000000 0.000000 0.000000 0.000000 0.021207 0.001143
# 6 0.000000 0.000000 0.000000 0.000000 0.001143 -0.001425
#
#
# Mechanical properties :
#
#
# Convention : Reuss Voigt Hill
#
# Bulk Modulus (GPa) = 34.99909 72.48211 53.74060
# Shear Modulus (GPa) = 79.01421 -233.50102 -77.24341
#
# Velocity S-wave (km/s) = 5.40154 -9.28559 -5.34067
# Velocity P-wave (km/s) = 7.19902 9.39140 4.26453
#
# Compressibility (1/GPa) = 0.02857217
#
# Stress axis : x y z
#
# Youngs Moduli (GPa) = 119.08449 119.08449 258.06463
#
# Poissons Ratio (x) = -1.08486 0.66565
# Poissons Ratio (y) = -1.08486 0.66565
# Poissons Ratio (z) = 0.30717 0.30717
#
# Static dielectric constant tensor:
#      x y z
#    x 3.188340 0.000000 0.000000 
#    y 0.000000 3.188340 0.000000 
#    z 0.000000 0.000000 2.199560 
# 
# From -- ./inp_files/140.got.cif
#   From: 2010.05.17/outbox.cif.g08.bks.cpg/sg152_1_cif.got.tgz:140.got - 2010.05.20 10:36:06.
