data_PCOD9575492
_publ_section_title
;
Structure prediction by ZEFSAII (Michael W. Deem and Ramdas Pophale) SiO2 
 PCOD9575492
Probable space group: P 31 1 2
;
_chemical_formula_sum "Si O2"
_cell_formula_units_Z 24
_cell_length_a 9.106079
_cell_length_b 9.106079
_cell_length_c 18.269311
_cell_angle_alpha 90.000000
_cell_angle_beta 90.000000
_cell_angle_gamma 120.000000
_cell_volume 1311.944998
_symmetry_space_group_name_H-M "P 31 1 2"
_symmetry_group_IT_number 151
_symmetry_cell_setting 'hexagonal'
loop_
_space_group_symop_operation_xyz
x,y,z
-y,x-y,1/3+z
-x+y,-x,2/3+z
-y,-x,2/3-z
-x+y,y,1/3-z
x,x-y,-z
loop_
_atom_site_type_symbol
_atom_site_label
_atom_site_fract_x
_atom_site_fract_y
_atom_site_fract_z
Si Si1 0.848399 0.580660 0.458570
Si Si2 0.064427 0.580550 0.328882
Si Si3 0.419181 0.484049 0.169175
Si Si4 0.574001 0.731867 0.786114
O O1 0.817747 0.408874 0.500000
O O2 0.681103 0.591714 0.463278
O O3 0.917877 0.582539 0.377332
O O4 0.004198 0.731679 0.504564
O O5 0.234181 0.765820 0.333334
O O6 0.024059 0.518996 0.246251
O O7 0.106274 0.451773 0.372681
O O8 0.232926 0.465851 0.166667
O O9 0.546540 0.656177 0.212142
O O10 0.412441 0.587560 0.833334
#
# Coordination Sequence:
#
# PCOD9575492 Si02
#       4
#     6   6   6   6
#     4   9  20  35  55  86 119 152 197 247 296 352
#     4  10  16  35  62  79 114 162 193 239 295 355
#     4  11  19  34  62  88 111 153 206 244 291 365
#     4   8  16  31  54  82 105 151 199 229 284 355
#
# _framework density 18.293451000000001
#
# number of rings (size 3 to 8) (size 9 to 14) (size 15 to 20)
#    0.000    3.000    7.500    0.000    0.000    4.000 
#    0.000    6.250   11.000    0.000    0.000    0.000 
#    0.000    0.000    0.000    0.000    0.000    0.000 
#
# Total GULP energy -133615.769147 kJ/mol
# GULP energy per Si atom -5567.323714 kJ/mol
# Density = 1.825181 g / cm^3
# Si number density = 18.293451 Si / 1000 Ang^3
#
#
#
# Elastic Constant Matrix: (Units=GPa)
#
#
# Indices 1 2 3 4 5 6 
#
# 1 92.6015 29.5869 21.0988 0.0000 -5.8879 0.0000
# 2 29.5869 92.6015 21.0988 0.0000 5.8879 0.0000
# 3 21.0988 21.0988 73.7005 0.0000 0.0000 0.0000
# 4 0.0000 0.0000 0.0000 12.1621 0.0000 5.8879
# 5 -5.8879 5.8879 0.0000 0.0000 12.1621 0.0000
# 6 0.0000 0.0000 0.0000 5.8879 0.0000 31.5073
#
#
#
# Elastic Compliance Matrix: (Units=1/GPa)
#
#
# Indices 1 2 3 4 5 6 
#
# 1 0.013265 -0.004183 -0.002600 0.000000 0.008447 0.000000
# 2 -0.004183 0.013265 -0.002600 0.000000 -0.008447 0.000000
# 3 -0.002600 -0.002600 0.015057 0.000000 0.000000 0.000000
# 4 0.000000 0.000000 0.000000 0.090401 0.000000 -0.016894
# 5 0.008447 -0.008447 0.000000 0.000000 0.090401 0.000000
# 6 0.000000 0.000000 0.000000 -0.016894 0.000000 0.034896
#
#
# Mechanical properties :
#
#
# Convention : Reuss Voigt Hill
#
# Bulk Modulus (GPa) = 43.81899 44.71914 44.26906
# Shear Modulus (GPa) = 17.62689 23.64091 20.63390
#
# Velocity S-wave (km/s) = 3.10750 3.59878 3.36212
# Velocity P-wave (km/s) = 6.07295 6.46272 6.27087
#
# Compressibility (1/GPa) = 0.02282116
#
# Stress axis : x y z
#
# Youngs Moduli (GPa) = 75.38688 75.38688 66.41403
#
# Poissons Ratio (x) = 0.31534 0.17267
# Poissons Ratio (y) = 0.31534 0.17267
# Poissons Ratio (z) = 0.19600 0.19600
#
# Static dielectric constant tensor:
#      x y z
#    x 1.663920 0.000000 0.000000 
#    y 0.000000 1.663920 0.000000 
#    z 0.000000 0.000000 1.652410 
# 
# From -- ./inp_files/3749.got.cif
#   From: 2010.05.17/outbox.cif.g08.bks.cpg/sg151_2_cif.got.tgz:3749.got - 2010.05.20 10:33:20.
