data_PCOD9575433
_publ_section_title
;
Structure prediction by ZEFSAII (Michael W. Deem and Ramdas Pophale) SiO2 
 PCOD9575433
Probable space group: P 3 2 1
;
_chemical_formula_sum "Si O2"
_cell_formula_units_Z 42
_cell_length_a 8.911441
_cell_length_b 8.911441
_cell_length_c 30.703283
_cell_angle_alpha 90.000000
_cell_angle_beta 90.000000
_cell_angle_gamma 120.000000
_cell_volume 2111.598377
_symmetry_space_group_name_H-M "P 3 2 1"
_symmetry_group_IT_number 150
_symmetry_cell_setting 'hexagonal'
loop_
_space_group_symop_operation_xyz
x,y,z
-y,x-y,z
-x+y,-x,z
x-y,-y,-z
-x,-x+y,-z
y,x,-z
loop_
_atom_site_type_symbol
_atom_site_label
_atom_site_fract_x
_atom_site_fract_y
_atom_site_fract_z
Si Si1 0.000427 0.344470 0.086377
Si Si2 0.676901 0.000906 0.586352
Si Si3 0.344890 0.001009 0.275627
Si Si4 0.876710 0.358307 0.180721
Si Si5 0.655392 0.655256 0.448347
Si Si6 0.324704 0.322315 0.689611
Si Si7 0.323428 0.323701 0.051638
O O1 0.980247 0.368505 0.137548
O O2 0.181490 0.362530 0.072604
O O3 0.973189 0.487792 0.061560
O O4 0.847683 0.155896 0.072579
O O5 0.692426 0.844721 0.565311
O O6 0.818701 0.181823 0.565726
O O7 0.487910 0.972150 0.575966
O O8 0.706512 0.008165 0.637983
O O9 0.390957 0.024139 0.224567
O O10 0.309023 0.152906 0.290274
O O11 0.180872 0.819153 0.288394
O O12 0.513755 0.024984 0.300627
O O13 0.817337 0.503910 0.180394
O O14 0.629742 0.629742 0.500000
O O15 0.297230 0.297230 0.000000
#
# Coordination Sequence:
#
# PCOD9575433 Si02
#       7
#     6   6   6   6   6   6   6
#     4  12  25  43  72  98 140 180 230 282 335 404
#     4  12  25  43  67  95 136 172 221 279 328 398
#     4  12  25  43  72  98 137 174 219 275 333 408
#     4  10  20  46  72  97 132 177 221 275 343 392
#     4  12  25  44  67  96 130 178 225 274 333 393
#     4  12  24  44  66 103 132 176 219 270 340 399
#     4  12  24  43  66 102 139 184 228 281 339 398
#
# _framework density 19.890143999999999
#
# number of rings (size 3 to 8) (size 9 to 14) (size 15 to 20)
#    0.286    0.000    2.857    7.714    0.000    2.286 
#    0.000    0.000    0.000    0.000    0.000    0.000 
#    0.000    0.000    0.000    0.000    0.000    0.000 
#
# Total GULP energy -235131.344261 kJ/mol
# GULP energy per Si atom -5598.365340 kJ/mol
# Density = 1.984487 g / cm^3
# Si number density = 19.890144 Si / 1000 Ang^3
#
#
#
# Elastic Constant Matrix: (Units=GPa)
#
#
# Indices 1 2 3 4 5 6 
#
# 1 53.4658 -24.0475 15.5823 -4.7133 0.0000 0.0000
# 2 -24.0475 53.4658 15.5823 4.7133 0.0000 0.0000
# 3 15.5823 15.5823 110.7033 0.0000 0.0000 0.0000
# 4 -4.7133 4.7133 0.0000 23.9918 0.0000 0.0000
# 5 0.0000 0.0000 0.0000 0.0000 23.9918 -4.7133
# 6 0.0000 0.0000 0.0000 0.0000 -4.7133 38.7566
#
#
#
# Elastic Compliance Matrix: (Units=1/GPa)
#
#
# Indices 1 2 3 4 5 6 
#
# 1 0.026583 0.013366 -0.005623 0.002597 0.000000 0.000000
# 2 0.013366 0.026583 -0.005623 -0.002597 0.000000 0.000000
# 3 -0.005623 -0.005623 0.010616 0.000000 0.000000 0.000000
# 4 0.002597 -0.002597 0.000000 0.042701 0.000000 0.000000
# 5 0.000000 0.000000 0.000000 0.000000 0.042701 0.005193
# 6 0.000000 0.000000 0.000000 0.000000 0.005193 0.026434
#
#
# Mechanical properties :
#
#
# Convention : Reuss Voigt Hill
#
# Bulk Modulus (GPa) = 14.70105 25.76325 20.23215
# Shear Modulus (GPa) = 25.76622 31.38255 28.57438
#
# Velocity S-wave (km/s) = 3.60311 3.97645 3.79438
# Velocity P-wave (km/s) = 4.97162 5.83642 5.42129
#
# Compressibility (1/GPa) = 0.06802233
#
# Stress axis : x y z
#
# Youngs Moduli (GPa) = 37.61784 37.61784 94.19594
#
# Poissons Ratio (x) = -0.50281 0.52968
# Poissons Ratio (y) = -0.50281 0.52968
# Poissons Ratio (z) = 0.21153 0.21153
#
# Static dielectric constant tensor:
#      x y z
#    x 1.662120 0.000000 0.000000 
#    y 0.000000 1.662120 0.000000 
#    z 0.000000 0.000000 1.668400 
# 
# From -- ./inp_files/1173.got.cif
#   From: 2010.05.17/outbox.cif.g08.bks.cpg/sg150_cif.got.tgz:1173.got - 2010.05.20 13:53:18.
