data_PCOD9575915
_publ_section_title
;
Structure prediction by ZEFSAII (Michael W. Deem and Ramdas Pophale) SiO2 
 PCOD9575915
Probable space group: P 31 2 1
;
_chemical_formula_sum "Si O2"
_cell_formula_units_Z 45
_cell_length_a 11.498523
_cell_length_b 11.498523
_cell_length_c 17.977551
_cell_angle_alpha 90.000000
_cell_angle_beta 90.000000
_cell_angle_gamma 120.000000
_cell_volume 2058.473487
_symmetry_space_group_name_H-M "P 31 2 1"
_symmetry_group_IT_number 152
_symmetry_cell_setting 'hexagonal'
loop_
_space_group_symop_operation_xyz
x,y,z
-y,x-y,1/3+z
-x+y,-x,2/3+z
x-y,-y,2/3-z
-x,-x+y,1/3-z
y,x,-z
loop_
_atom_site_type_symbol
_atom_site_label
_atom_site_fract_x
_atom_site_fract_y
_atom_site_fract_z
Si Si1 0.821075 0.767940 0.417142
Si Si2 0.487634 0.162616 0.494235
Si Si3 0.656440 0.902750 0.951449
Si Si4 0.533173 0.876932 0.289371
Si Si5 0.943966 0.326866 0.388483
Si Si6 0.855895 0.544772 0.357839
Si Si7 0.068141 0.000000 0.333334
Si Si8 0.320638 0.596663 0.710012
O O1 0.778146 0.778146 0.500000
O O2 0.703583 0.717625 0.354326
O O3 0.868798 0.656924 0.415099
O O4 0.944208 0.909008 0.387951
O O5 0.429311 0.242416 0.450267
O O6 0.536273 0.090746 0.434372
O O7 0.621448 0.257060 0.541074
O O8 0.375579 0.057019 0.549194
O O9 0.795510 0.903125 0.958550
O O10 0.556714 0.825752 0.021341
O O11 0.687655 0.054928 0.954730
O O12 0.595053 0.794075 0.252717
O O13 0.424890 0.787496 0.352601
O O14 0.646314 0.000000 0.333334
O O15 0.916980 0.450974 0.378222
O O16 0.699288 0.448971 0.339931
#
# Coordination Sequence:
#
# PCOD9575915 Si02
#       8
#     6   6   6   6   6   6   3   6
#     4  11  25  48  73 107 152 199 254 322 381 454
#     4  11  23  41  73  99 139 190 237 308 366 438
#     4  10  22  41  70  97 138 191 235 300 371 439
#     4  10  26  43  67 102 139 187 238 299 371 443
#     4  11  24  47  68 106 149 185 252 306 371 461
#     4  10  20  46  68 100 144 188 244 305 369 451
#     4  10  26  46  70 100 150 194 260 300 370 482
#     4  10  21  43  66  99 138 173 250 298 358 451
#
# _framework density 21.860861
#
# number of rings (size 3 to 8) (size 9 to 14) (size 15 to 20)
#    0.000    1.600    2.667    0.000    6.533    2.667 
#   16.800    0.000    0.000    0.000    0.000    0.000 
#    0.000    0.000    0.000    0.000    0.000    0.000 
#
# Total GULP energy -251345.658393 kJ/mol
# GULP energy per Si atom -5585.459075 kJ/mol
# Density = 2.181110 g / cm^3
# Si number density = 21.860861 Si / 1000 Ang^3
#
#
#
# Elastic Constant Matrix: (Units=GPa)
#
#
# Indices 1 2 3 4 5 6 
#
# 1 101.7974 35.6525 37.5583 -4.2377 0.0002 0.0000
# 2 35.6525 101.7974 37.5583 4.2377 -0.0002 0.0000
# 3 37.5583 37.5583 114.7593 0.0000 0.0000 0.0000
# 4 -4.2377 4.2377 0.0000 24.6517 0.0000 -0.0002
# 5 0.0002 -0.0002 0.0000 0.0000 24.6517 -4.2377
# 6 0.0000 0.0000 0.0000 -0.0002 -4.2377 33.0724
#
#
#
# Elastic Compliance Matrix: (Units=1/GPa)
#
#
# Indices 1 2 3 4 5 6 
#
# 1 0.012159 -0.003299 -0.002900 0.002657 0.000000 0.000000
# 2 -0.003299 0.012159 -0.002900 -0.002657 0.000000 0.000000
# 3 -0.002900 -0.002900 0.010612 0.000000 0.000000 0.000000
# 4 0.002657 -0.002657 0.000000 0.041479 0.000000 0.000000
# 5 0.000000 0.000000 0.000000 0.000000 0.041479 0.005315
# 6 0.000000 0.000000 0.000000 0.000000 0.005315 0.030918
#
#
# Mechanical properties :
#
#
# Convention : Reuss Voigt Hill
#
# Bulk Modulus (GPa) = 59.76138 59.98803 59.87470
# Shear Modulus (GPa) = 28.97183 30.31416 29.64299
#
# Velocity S-wave (km/s) = 3.64439 3.72786 3.68636
# Velocity P-wave (km/s) = 6.71605 6.78452 6.75037
#
# Compressibility (1/GPa) = 0.01673321
#
# Stress axis : x y z
#
# Youngs Moduli (GPa) = 82.24048 82.24048 94.23364
#
# Poissons Ratio (x) = 0.27134 0.27325
# Poissons Ratio (y) = 0.27134 0.27325
# Poissons Ratio (z) = 0.23847 0.23847
#
# Static dielectric constant tensor:
#      x y z
#    x 1.831310 0.000000 0.000000 
#    y 0.000000 1.831310 0.000000 
#    z 0.000000 0.000000 1.808360 
# 
# From -- ./inp_files/2513.got.cif
#   From: 2010.05.17/outbox.cif.g08.bks.cpg/sg152_2_cif.got.tgz:2513.got - 2010.05.20 10:36:06.
