data_PCOD9575850
_publ_section_title
;
Structure prediction by ZEFSAII (Michael W. Deem and Ramdas Pophale) SiO2 
 PCOD9575850
Probable space group: P 31 2 1
;
_chemical_formula_sum "Si O2"
_cell_formula_units_Z 30
_cell_length_a 8.600466
_cell_length_b 8.600466
_cell_length_c 23.803543
_cell_angle_alpha 90.000000
_cell_angle_beta 90.000000
_cell_angle_gamma 120.000000
_cell_volume 1524.811652
_symmetry_space_group_name_H-M "P 31 2 1"
_symmetry_group_IT_number 152
_symmetry_cell_setting 'hexagonal'
loop_
_space_group_symop_operation_xyz
x,y,z
-y,x-y,1/3+z
-x+y,-x,2/3+z
x-y,-y,2/3-z
-x,-x+y,1/3-z
y,x,-z
loop_
_atom_site_type_symbol
_atom_site_label
_atom_site_fract_x
_atom_site_fract_y
_atom_site_fract_z
Si Si1 0.766725 0.766725 0.000000
Si Si2 0.912256 0.409511 0.573624
Si Si3 0.000000 0.252697 0.166667
Si Si4 0.635246 0.012512 0.538042
Si Si5 0.768336 0.136103 0.014340
Si Si6 0.665928 0.539245 0.613357
O O1 0.640547 0.672759 0.946022
O O2 0.957944 0.783131 0.990239
O O3 0.989723 0.511067 0.515072
O O4 0.839896 0.515633 0.611717
O O5 0.742598 0.217357 0.556944
O O6 0.828394 0.064379 0.149573
O O7 0.941817 0.334594 0.217294
O O8 0.548762 0.889291 0.593553
O O9 0.967479 0.306220 0.016525
O O10 0.648276 0.146864 0.965256
#
# Coordination Sequence:
#
# PCOD9575850 Si02
#       6
#     3   6   3   6   6   6
#     4  10  22  36  54  84 114 142 188 238 280 334
#     4  10  21  37  57  82 111 146 185 231 283 338
#     4   8  18  36  58  82 112 148 190 234 280 330
#     4   9  19  36  56  80 111 146 187 230 279 335
#     4  10  20  37  57  82 114 149 189 232 277 336
#     4  10  20  37  60  82 113 153 188 228 281 336
#
# _framework density 19.67456
#
# number of rings (size 3 to 8) (size 9 to 14) (size 15 to 20)
#    0.000    2.400    0.000    2.400    0.000    7.200 
#    0.000   14.000    0.000    1.200    0.000    0.000 
#    0.000    0.000    0.000    0.000    0.000    0.000 
#
# Total GULP energy -167180.126026 kJ/mol
# GULP energy per Si atom -5572.670868 kJ/mol
# Density = 1.962978 g / cm^3
# Si number density = 19.674560 Si / 1000 Ang^3
#
#
#
# Elastic Constant Matrix: (Units=GPa)
#
#
# Indices 1 2 3 4 5 6 
#
# 1 63.6143 34.5108 38.1818 -2.8501 0.0000 0.0000
# 2 34.5108 63.6143 38.1818 2.8501 0.0000 0.0000
# 3 38.1818 38.1818 41.8450 0.0000 0.0000 0.0000
# 4 -2.8501 2.8501 0.0000 26.5207 0.0000 0.0000
# 5 0.0000 0.0000 0.0000 0.0000 26.5207 -2.8501
# 6 0.0000 0.0000 0.0000 0.0000 -2.8501 14.5517
#
#
#
# Elastic Compliance Matrix: (Units=1/GPa)
#
#
# Indices 1 2 3 4 5 6 
#
# 1 0.035126 0.000027 -0.032076 0.003772 0.000000 0.000000
# 2 0.000027 0.035126 -0.032076 -0.003772 0.000000 0.000000
# 3 -0.032076 -0.032076 0.082434 0.000000 0.000000 0.000000
# 4 0.003772 -0.003772 0.000000 0.038517 0.000000 0.000000
# 5 0.000000 0.000000 0.000000 0.000000 0.038517 0.007544
# 6 0.000000 0.000000 0.000000 0.000000 0.007544 0.070198
#
#
# Mechanical properties :
#
#
# Convention : Reuss Voigt Hill
#
# Bulk Modulus (GPa) = 40.92236 43.42473 42.17354
# Shear Modulus (GPa) = 11.45965 17.39858 14.42911
#
# Velocity S-wave (km/s) = 2.41604 2.97698 2.71105
# Velocity P-wave (km/s) = 5.35049 5.82546 5.59302
#
# Compressibility (1/GPa) = 0.02443652
#
# Stress axis : x y z
#
# Youngs Moduli (GPa) = 28.46878 28.46878 12.13095
#
# Poissons Ratio (x) = -0.00078 0.38911
# Poissons Ratio (y) = -0.00078 0.38911
# Poissons Ratio (z) = 0.91317 0.91317
#
# Static dielectric constant tensor:
#      x y z
#    x 1.683580 0.000000 0.000000 
#    y 0.000000 1.683580 0.000000 
#    z 0.000000 0.000000 1.723280 
# 
# From -- ./inp_files/3016.got.cif
#   From: 2010.05.17/outbox.cif.g08.bks.cpg/sg152_2_cif.got.tgz:3016.got - 2010.05.20 10:36:06.
