data_PCOD9575429
_publ_section_title
;
Structure prediction by ZEFSAII (Michael W. Deem and Ramdas Pophale) SiO2 
 PCOD9575429
Probable space group: P 3 2 1
;
_chemical_formula_sum "Si O2"
_cell_formula_units_Z 45
_cell_length_a 11.910102
_cell_length_b 11.910102
_cell_length_c 18.915715
_cell_angle_alpha 90.000000
_cell_angle_beta 90.000000
_cell_angle_gamma 120.000000
_cell_volume 2323.722993
_symmetry_space_group_name_H-M "P 3 2 1"
_symmetry_group_IT_number 150
_symmetry_cell_setting 'hexagonal'
loop_
_space_group_symop_operation_xyz
x,y,z
-y,x-y,z
-x+y,-x,z
x-y,-y,-z
-x,-x+y,-z
y,x,-z
loop_
_atom_site_type_symbol
_atom_site_label
_atom_site_fract_x
_atom_site_fract_y
_atom_site_fract_z
Si Si1 0.824115 0.458494 0.905589
Si Si2 0.070023 0.415364 0.724019
Si Si3 0.666008 0.599026 0.574949
Si Si4 0.330434 0.397488 0.427361
Si Si5 0.984292 0.736206 0.851989
Si Si6 0.556828 0.556828 0.000000
Si Si7 0.316780 0.395784 0.715099
Si Si8 0.724502 0.741155 0.872326
O O1 0.693459 0.462747 0.887282
O O2 0.940883 0.588766 0.874586
O O3 0.874981 0.458865 0.984681
O O4 0.218973 0.450683 0.721879
O O5 0.052193 0.539619 0.731805
O O6 0.013092 0.327476 0.793685
O O7 0.011149 0.351524 0.647788
O O8 0.664026 0.664026 0.500000
O O9 0.796778 0.594659 0.580990
O O10 0.541812 0.454654 0.571736
O O11 0.330268 0.330268 0.500000
O O12 0.349970 0.322029 0.363203
O O13 0.868314 0.759852 0.876008
O O14 0.006155 0.731410 0.768171
O O15 0.120763 0.850951 0.880046
O O16 0.627258 0.646443 0.932372
#
# Coordination Sequence:
#
# PCOD9575429 Si02
#       8
#     6   6   6   6   6   3   6   6
#     4  10  23  42  64  90 124 159 206 265 318 368
#     4  10  21  39  58  88 122 155 207 250 310 360
#     4  10  20  35  59  85 119 157 196 255 305 377
#     4  10  20  35  55  86 119 154 202 247 310 371
#     4  11  23  42  65  91 127 164 210 252 325 368
#     4  12  24  42  64  90 122 162 214 256 324 362
#     4  10  21  36  63  87 121 165 202 260 308 383
#     4  11  24  41  62  91 125 166 206 261 301 395
#
# _framework density 19.365475
#
# number of rings (size 3 to 8) (size 9 to 14) (size 15 to 20)
#    0.267    1.333    1.333    3.200    1.867    0.533 
#    0.000    2.667    0.000    6.400    0.000    0.000 
#    0.000    0.000    0.000    0.000    0.000    0.000 
#
# Total GULP energy -250625.092567 kJ/mol
# GULP energy per Si atom -5569.446501 kJ/mol
# Density = 1.932140 g / cm^3
# Si number density = 19.365475 Si / 1000 Ang^3
#
#
#
# Elastic Constant Matrix: (Units=GPa)
#
#
# Indices 1 2 3 4 5 6 
#
# 1 63.2903 25.9161 33.6784 0.7596 0.0000 0.0000
# 2 25.9161 63.2903 33.6784 -0.7596 0.0000 0.0000
# 3 33.6784 33.6784 100.1120 0.0000 0.0000 0.0000
# 4 0.7596 -0.7596 0.0000 24.0219 0.0000 0.0000
# 5 0.0000 0.0000 0.0000 0.0000 24.0219 0.7596
# 6 0.0000 0.0000 0.0000 0.0000 0.7596 18.6871
#
#
#
# Elastic Compliance Matrix: (Units=1/GPa)
#
#
# Indices 1 2 3 4 5 6 
#
# 1 0.020909 -0.005882 -0.005055 -0.000847 0.000000 0.000000
# 2 -0.005882 0.020909 -0.005055 0.000847 0.000000 0.000000
# 3 -0.005055 -0.005055 0.013390 0.000000 0.000000 0.000000
# 4 -0.000847 0.000847 0.000000 0.041682 0.000000 0.000000
# 5 0.000000 0.000000 0.000000 0.000000 0.041682 -0.001694
# 6 0.000000 0.000000 0.000000 0.000000 -0.001694 0.053582
#
#
# Mechanical properties :
#
#
# Convention : Reuss Voigt Hill
#
# Bulk Modulus (GPa) = 43.06034 45.91537 44.48786
# Shear Modulus (GPa) = 21.56291 22.24084 21.90187
#
# Velocity S-wave (km/s) = 3.34049 3.39260 3.36665
# Velocity P-wave (km/s) = 6.09610 6.25361 6.17536
#
# Compressibility (1/GPa) = 0.02322322
#
# Stress axis : x y z
#
# Youngs Moduli (GPa) = 47.82652 47.82652 74.68257
#
# Poissons Ratio (x) = 0.28131 0.37753
# Poissons Ratio (y) = 0.28131 0.37753
# Poissons Ratio (z) = 0.24177 0.24177
#
# Static dielectric constant tensor:
#      x y z
#    x 1.687170 0.000000 0.000000 
#    y 0.000000 1.687170 0.000000 
#    z 0.000000 0.000000 1.680100 
# 
# From -- ./inp_files/1134.got.cif
#   From: 2010.05.17/outbox.cif.g08.bks.cpg/sg150_cif.got.tgz:1134.got - 2010.05.20 13:53:18.
