data_PCOD9575628
_publ_section_title
;
Structure prediction by ZEFSAII (Michael W. Deem and Ramdas Pophale) SiO2 
 PCOD9575628
Probable space group: P 31 1 2
;
_chemical_formula_sum "Si O2"
_cell_formula_units_Z 33
_cell_length_a 15.496983
_cell_length_b 15.496983
_cell_length_c 8.347655
_cell_angle_alpha 90.000000
_cell_angle_beta 90.000000
_cell_angle_gamma 120.000000
_cell_volume 1736.158763
_symmetry_space_group_name_H-M "P 31 1 2"
_symmetry_group_IT_number 151
_symmetry_cell_setting 'hexagonal'
loop_
_space_group_symop_operation_xyz
x,y,z
-y,x-y,1/3+z
-x+y,-x,2/3+z
-y,-x,2/3-z
-x+y,y,1/3-z
x,x-y,-z
loop_
_atom_site_type_symbol
_atom_site_label
_atom_site_fract_x
_atom_site_fract_y
_atom_site_fract_z
Si Si1 0.592723 0.447700 0.015262
Si Si2 0.411704 0.420477 0.423244
Si Si3 0.099062 0.900939 0.333334
Si Si4 0.705923 0.900389 0.664550
Si Si5 0.736377 0.546160 0.427230
Si Si6 0.224972 0.107261 0.810408
O O1 0.564889 0.435112 0.833334
O O2 0.709600 0.484971 0.006568
O O3 0.571775 0.533522 0.078565
O O4 0.525931 0.342632 0.105641
O O5 0.476753 0.523248 0.333334
O O6 0.297310 0.381316 0.401647
O O7 0.428141 0.335472 0.340369
O O8 0.125000 0.869321 0.161842
O O9 0.979249 0.839400 0.364798
O O10 0.672344 0.836172 0.500000
O O11 0.797826 0.002688 0.594753
O O12 0.832213 0.653627 0.472602
O O13 0.195641 0.097821 0.000000
#
# Coordination Sequence:
#
# PCOD9575628 Si02
#       6
#     6   6   3   6   6   6
#     4  11  20  32  51  83 119 164 211 243 290 361
#     4   9  21  40  59  83 119 158 196 250 314 366
#     4  12  24  38  64  90 122 172 212 258 302 380
#     4  11  23  42  63  91 122 159 206 263 314 372
#     4  10  22  35  55  81 123 168 202 252 296 357
#     4  11  22  41  59  83 126 166 210 257 316 364
#
# _framework density 19.007477999999999
#
# number of rings (size 3 to 8) (size 9 to 14) (size 15 to 20)
#    0.000    1.455    1.818    3.818    0.000   10.182 
#    4.909    0.000    0.000    0.000    2.364    0.000 
#    0.000    0.000    0.000    0.000    0.000    0.000 
#
# Total GULP energy -183706.904652 kJ/mol
# GULP energy per Si atom -5566.875899 kJ/mol
# Density = 1.896422 g / cm^3
# Si number density = 19.007478 Si / 1000 Ang^3
#
#
#
# Elastic Constant Matrix: (Units=GPa)
#
#
# Indices 1 2 3 4 5 6 
#
# 1 41.3970 56.5797 13.2505 0.0039 3.5662 0.0000
# 2 56.5797 41.3970 13.2505 -0.0039 -3.5662 0.0000
# 3 13.2505 13.2505 107.9642 0.0000 0.0000 0.0000
# 4 0.0039 -0.0039 0.0000 20.9551 0.0000 -3.5662
# 5 3.5662 -3.5662 0.0000 0.0000 20.9551 0.0039
# 6 0.0000 0.0000 0.0000 -3.5662 0.0039 -7.5914
#
#
#
# Elastic Compliance Matrix: (Units=1/GPa)
#
#
# Indices 1 2 3 4 5 6 
#
# 1 -0.025216 0.035773 -0.001296 0.000011 0.010379 0.000000
# 2 0.035773 -0.025216 -0.001296 -0.000011 -0.010379 0.000000
# 3 -0.001296 -0.001296 0.009580 0.000000 0.000000 0.000000
# 4 0.000011 -0.000011 0.000000 0.044188 0.000000 -0.020758
# 5 0.010379 -0.010379 0.000000 0.000000 0.044188 0.000023
# 6 0.000000 0.000000 0.000000 -0.020758 0.000023 -0.121977
#
#
# Mechanical properties :
#
#
# Convention : Reuss Voigt Hill
#
# Bulk Modulus (GPa) = 39.19779 39.65773 39.42776
# Shear Modulus (GPa) = -37.79014 14.04227 -11.87394
#
# Velocity S-wave (km/s) = -4.46373 2.72099 -2.50211
# Velocity P-wave (km/s) = 2.42888 5.54809 3.52717
#
# Compressibility (1/GPa) = 0.02551164
#
# Stress axis : x y z
#
# Youngs Moduli (GPa) = -39.65791 -39.65791 104.38015
#
# Poissons Ratio (x) = 1.41867 0.13524
# Poissons Ratio (y) = 1.41867 0.13524
# Poissons Ratio (z) = -0.05138 -0.05138
#
# Static dielectric constant tensor:
#      x y z
#    x 1.776930 0.000000 0.000000 
#    y 0.000000 1.776930 0.000000 
#    z 0.000000 0.000000 1.868680 
# 
# From -- ./inp_files/1684.got.cif
#   From: 2010.05.17/outbox.cif.g08.bks.cpg/sg151_1_cif.got.tgz:1684.got - 2010.05.20 10:33:20.
