data_PCOD9575277
_publ_section_title
;
Structure prediction by ZEFSAII (Michael W. Deem and Ramdas Pophale) SiO2 
 PCOD9575277
Probable space group: R -3
;
_chemical_formula_sum "Si O2"
_cell_formula_units_Z 96
_cell_length_a 16.154155
_cell_length_b 16.154155
_cell_length_c 20.458380
_cell_angle_alpha 90.000000
_cell_angle_beta 90.000000
_cell_angle_gamma 120.000000
_cell_volume 4623.494699
_symmetry_space_group_name_H-M "R -3"
_symmetry_group_IT_number 148
_symmetry_cell_setting 'hexagonal'
loop_
_space_group_symop_operation_xyz
x,y,z
-y,x-y,z
-x+y,-x,z
-x,-y,-z
y,-x+y,-z
x-y,x,-z
2/3+x,1/3+y,1/3+z
2/3-y,1/3+x-y,1/3+z
2/3-x+y,1/3-x,1/3+z
2/3-x,1/3-y,1/3-z
2/3+y,1/3-x+y,1/3-z
2/3+x-y,1/3+x,1/3-z
1/3+x,2/3+y,2/3+z
1/3-y,2/3+x-y,2/3+z
1/3-x+y,2/3-x,2/3+z
1/3-x,2/3-y,2/3-z
1/3+y,2/3-x+y,2/3-z
1/3+x-y,2/3+x,2/3-z
loop_
_atom_site_type_symbol
_atom_site_label
_atom_site_fract_x
_atom_site_fract_y
_atom_site_fract_z
Si Si1 0.998564 0.446924 0.785699
Si Si2 0.831771 0.128193 0.739314
Si Si3 0.871703 0.620379 0.019896
Si Si4 0.666667 0.333334 0.256599
Si Si5 0.337269 0.861734 0.575685
Si Si6 0.046252 0.281036 0.775721
O O1 0.971871 0.445569 0.862599
O O2 0.068126 0.558104 0.767461
O O3 0.044710 0.379213 0.780838
O O4 0.927138 0.407096 0.723580
O O5 0.833334 0.166667 0.666667
O O6 0.780902 0.014827 0.726110
O O7 0.941952 0.190351 0.759874
O O8 0.780683 0.615468 0.053061
O O9 0.955286 0.731996 0.029847
O O10 0.666668 0.333335 0.333334
O O11 0.683095 0.436605 0.239153
O O12 0.398390 0.926032 0.515208
#
# Coordination Sequence:
#
# PCOD9575277 Si02
#       6
#    18  18  18   6  18  18
#     4  11  23  41  66  96 129 178 218 275 335 398
#     4  11  25  43  64  97 129 170 227 275 325 404
#     4  12  23  43  69  96 134 175 224 279 339 409
#     4  12  24  39  57  99 141 174 211 281 349 426
#     4  11  24  39  66  96 138 173 224 270 343 414
#     4  11  24  42  66  97 133 178 224 277 343 400
#
# _framework density 20.763514000000001
#
# number of rings (size 3 to 8) (size 9 to 14) (size 15 to 20)
#    0.000    0.750    3.750    3.938    5.250    0.000 
#    1.125    0.000    0.000    0.000    0.000    1.312 
#    0.000    0.000    0.000    0.000    0.000    0.000 
#
# Total GULP energy -178399.397036 kJ/mol
# GULP energy per Si atom -5574.981157 kJ/mol
# Density = 2.071626 g / cm^3
# Si number density = 20.763514 Si / 1000 Ang^3
#
#
#
# Elastic Constant Matrix: (Units=GPa)
#
#
# Indices 1 2 3 4 5 6 
#
# 1 62.9672 22.6566 8.0174 -5.5685 -9.1212 -0.0001
# 2 22.6566 62.9672 8.0173 5.5685 9.1212 -0.0001
# 3 8.0174 8.0173 165.0154 0.0000 0.0000 -0.0001
# 4 -5.5685 5.5685 0.0000 28.2198 0.0000 9.1212
# 5 -9.1212 9.1212 0.0000 0.0000 28.2198 -5.5685
# 6 -0.0001 -0.0001 -0.0001 9.1212 -5.5685 20.1553
#
#
#
# Elastic Compliance Matrix: (Units=1/GPa)
#
#
# Indices 1 2 3 4 5 6 
#
# 1 0.021413 -0.009627 -0.000573 0.006125 0.010033 0.000000
# 2 -0.009627 0.021413 -0.000573 -0.006125 -0.010033 0.000000
# 3 -0.000573 -0.000573 0.006116 0.000000 0.000000 0.000000
# 4 0.006125 -0.006125 0.000000 0.044339 0.000000 -0.020065
# 5 0.010033 -0.010033 0.000000 0.000000 0.044339 0.012250
# 6 0.000000 0.000000 0.000000 -0.020065 0.012250 0.062080
#
#
# Mechanical properties :
#
#
# Convention : Reuss Voigt Hill
#
# Bulk Modulus (GPa) = 36.49955 40.92582 38.71268
# Shear Modulus (GPa) = 21.70367 32.13623 26.91995
#
# Velocity S-wave (km/s) = 3.23658 3.93838 3.60460
# Velocity P-wave (km/s) = 5.61998 6.35880 6.00077
#
# Compressibility (1/GPa) = 0.02739760
#
# Stress axis : x y z
#
# Youngs Moduli (GPa) = 46.70055 46.70053 163.51404
#
# Poissons Ratio (x) = 0.44958 0.09364
# Poissons Ratio (y) = 0.44958 0.09363
# Poissons Ratio (z) = 0.02674 0.02674
#
# Static dielectric constant tensor:
#      x y z
#    x 1.761150 0.000000 0.000000 
#    y 0.000000 1.761150 0.000000 
#    z 0.000000 0.000000 1.845500 
# 
# From -- ./inp_files/3662.got.cif
#   From: 2010.05.17/outbox.cif.g08.bks.cpg/sg148_2_cif.got.tgz:3662.got - 2010.05.20 13:50:20.
