data_PCOD9575209
_publ_section_title
;
Structure prediction by ZEFSAII (Michael W. Deem and Ramdas Pophale) SiO2 
 PCOD9575209
Probable space group: R -3
;
_chemical_formula_sum "Si O2"
_cell_formula_units_Z 60
_cell_length_a 10.766907
_cell_length_b 10.766907
_cell_length_c 23.508446
_cell_angle_alpha 90.000000
_cell_angle_beta 90.000000
_cell_angle_gamma 120.000000
_cell_volume 2360.132997
_symmetry_space_group_name_H-M "R -3"
_symmetry_group_IT_number 148
_symmetry_cell_setting 'hexagonal'
loop_
_space_group_symop_operation_xyz
x,y,z
-y,x-y,z
-x+y,-x,z
-x,-y,-z
y,-x+y,-z
x-y,x,-z
2/3+x,1/3+y,1/3+z
2/3-y,1/3+x-y,1/3+z
2/3-x+y,1/3-x,1/3+z
2/3-x,1/3-y,1/3-z
2/3+y,1/3-x+y,1/3-z
2/3+x-y,1/3+x,1/3-z
1/3+x,2/3+y,2/3+z
1/3-y,2/3+x-y,2/3+z
1/3-x+y,2/3-x,2/3+z
1/3-x,2/3-y,2/3-z
1/3+y,2/3-x+y,2/3-z
1/3+x-y,2/3+x,2/3-z
loop_
_atom_site_type_symbol
_atom_site_label
_atom_site_fract_x
_atom_site_fract_y
_atom_site_fract_z
Si Si1 0.404265 0.283034 0.800418
Si Si2 0.663530 0.852521 0.736234
Si Si3 0.102554 0.699919 0.291470
Si Si4 0.000000 0.000000 0.932179
O O1 0.507677 0.448566 0.816741
O O2 0.254901 0.262077 0.775900
O O3 0.568647 0.424664 0.915299
O O4 0.698321 0.725470 0.743683
O O5 0.495518 0.779972 0.749697
O O6 0.703162 0.900172 0.669193
O O7 0.166667 0.833334 0.333334
O O8 0.000000 0.000000 0.000000
#
# Coordination Sequence:
#
# PCOD9575209 Si02
#       4
#    18  18  18   6
#     4  11  28  49  69 104 155 205 249 304 382 451
#     4  11  23  47  76 113 142 192 251 321 378 451
#     4  10  23  44  77 108 144 183 252 307 379 445
#     4  12  21  39  81 111 141 177 252 330 381 432
#
# _framework density 25.422294999999998
#
# number of rings (size 3 to 8) (size 9 to 14) (size 15 to 20)
#    0.000    1.200    3.000    0.300   12.600    1.200 
#   14.400    0.000    0.000    0.000    0.000    0.000 
#    0.000    0.000    0.000    0.000    0.000    0.000 
#
# Total GULP energy -111679.589738 kJ/mol
# GULP energy per Si atom -5583.979487 kJ/mol
# Density = 2.536443 g / cm^3
# Si number density = 25.422295 Si / 1000 Ang^3
#
#
#
# Elastic Constant Matrix: (Units=GPa)
#
#
# Indices 1 2 3 4 5 6 
#
# 1 135.9684 46.7212 47.9138 -13.7159 -0.4501 0.0000
# 2 46.7212 135.9684 47.9138 13.7159 0.4501 0.0000
# 3 47.9138 47.9138 75.9566 0.0000 0.0000 0.0000
# 4 -13.7159 13.7159 0.0000 50.8124 0.0000 0.4501
# 5 -0.4501 0.4501 0.0000 0.0000 50.8124 -13.7159
# 6 0.0000 0.0000 0.0000 0.4501 -13.7159 44.6236
#
#
#
# Elastic Compliance Matrix: (Units=1/GPa)
#
#
# Indices 1 2 3 4 5 6 
#
# 1 0.010200 -0.002020 -0.005160 0.003299 0.000108 0.000000
# 2 -0.002020 0.010200 -0.005160 -0.003299 -0.000108 0.000000
# 3 -0.005160 -0.005160 0.019676 0.000000 0.000000 0.000000
# 4 0.003299 -0.003299 0.000000 0.021463 0.000000 -0.000216
# 5 0.000108 -0.000108 0.000000 0.000000 0.021463 0.006597
# 6 0.000000 0.000000 0.000000 -0.000216 0.006597 0.024440
#
#
# Mechanical properties :
#
#
# Convention : Reuss Voigt Hill
#
# Bulk Modulus (GPa) = 64.95397 70.33233 67.64315
# Shear Modulus (GPa) = 36.42884 42.93932 39.68408
#
# Velocity S-wave (km/s) = 3.78954 4.11425 3.95523
# Velocity P-wave (km/s) = 6.68976 7.09190 6.89377
#
# Compressibility (1/GPa) = 0.01539552
#
# Stress axis : x y z
#
# Youngs Moduli (GPa) = 98.03762 98.03762 50.82400
#
# Poissons Ratio (x) = 0.19800 0.26227
# Poissons Ratio (y) = 0.19800 0.26227
# Poissons Ratio (z) = 0.50591 0.50591
#
# Static dielectric constant tensor:
#      x y z
#    x 2.049950 0.000000 0.000000 
#    y 0.000000 2.049950 0.000000 
#    z 0.000000 0.000000 2.245570 
# 
# From -- ./inp_files/3593.got.cif
#   From: 2010.05.17/outbox.cif.g08.bks.cpg/sg148_2_cif.got.tgz:3593.got - 2010.05.20 13:50:20.
