data_PCOD9575701
_publ_section_title
;
Structure prediction by ZEFSAII (Michael W. Deem and Ramdas Pophale) SiO2 
 PCOD9575701
Probable space group: P 31 2 1
;
_chemical_formula_sum "Si O2"
_cell_formula_units_Z 24
_cell_length_a 8.017726
_cell_length_b 8.017726
_cell_length_c 17.670327
_cell_angle_alpha 90.000000
_cell_angle_beta 90.000000
_cell_angle_gamma 120.000000
_cell_volume 983.733903
_symmetry_space_group_name_H-M "P 31 2 1"
_symmetry_group_IT_number 152
_symmetry_cell_setting 'hexagonal'
loop_
_space_group_symop_operation_xyz
x,y,z
-y,x-y,1/3+z
-x+y,-x,2/3+z
x-y,-y,2/3-z
-x,-x+y,1/3-z
y,x,-z
loop_
_atom_site_type_symbol
_atom_site_label
_atom_site_fract_x
_atom_site_fract_y
_atom_site_fract_z
Si Si1 0.220262 0.545536 0.637288
Si Si2 0.969720 0.778892 0.947313
Si Si3 0.226932 0.910650 0.163031
Si Si4 0.323605 0.088117 0.999545
O O1 0.305897 0.419768 0.673327
O O2 0.306246 0.757385 0.669904
O O3 0.000000 0.430912 0.666667
O O4 0.189349 0.510177 0.546997
O O5 0.846910 0.741899 0.871803
O O6 0.198262 0.918094 0.939637
O O7 0.902786 0.902786 0.000000
O O8 0.288155 0.975072 0.078265
O O9 0.000000 0.765781 0.166667
O O10 0.225316 0.225316 0.000000
#
# Coordination Sequence:
#
# PCOD9575701 Si02
#       4
#     6   6   6   6
#     4   8  16  25  38  70  97 122 167 218 265 324
#     4   8  14  24  38  66  98 120 164 223 265 319
#     4  10  14  25  42  68  98 123 173 221 267 328
#     4  10  15  24  44  69  96 130 166 223 278 322
#
# _framework density 24.396844000000002
#
# number of rings (size 3 to 8) (size 9 to 14) (size 15 to 20)
#    0.000    3.500    7.500    0.000    0.000    0.000 
#    0.000    0.000    0.000    0.000   19.500    1.750 
#    0.000    0.000    0.000    0.000    0.000    0.000 
#
# Total GULP energy -133703.951239 kJ/mol
# GULP energy per Si atom -5570.997968 kJ/mol
# Density = 2.434132 g / cm^3
# Si number density = 24.396844 Si / 1000 Ang^3
#
#
#
# Elastic Constant Matrix: (Units=GPa)
#
#
# Indices 1 2 3 4 5 6 
#
# 1 117.1109 38.6983 6.1213 0.4862 -0.0001 0.0000
# 2 38.6983 117.1109 6.1213 -0.4862 0.0001 0.0000
# 3 6.1213 6.1213 37.2045 0.0000 0.0000 0.0000
# 4 0.4862 -0.4862 0.0000 5.0457 0.0000 0.0001
# 5 -0.0001 0.0001 0.0000 0.0000 5.0457 0.4862
# 6 0.0000 0.0000 0.0000 0.0001 0.4862 39.2063
#
#
#
# Elastic Compliance Matrix: (Units=1/GPa)
#
#
# Indices 1 2 3 4 5 6 
#
# 1 0.009635 -0.003133 -0.001070 -0.001230 0.000000 0.000000
# 2 -0.003133 0.009635 -0.001070 0.001230 0.000000 0.000000
# 3 -0.001070 -0.001070 0.027230 0.000000 0.000000 0.000000
# 4 -0.001230 0.001230 0.000000 0.198426 0.000000 -0.000001
# 5 0.000000 0.000000 0.000000 0.000000 0.198426 -0.002461
# 6 0.000000 0.000000 0.000000 -0.000001 -0.002461 0.025537
#
#
# Mechanical properties :
#
#
# Convention : Reuss Voigt Hill
#
# Bulk Modulus (GPa) = 27.81209 41.47868 34.64538
# Shear Modulus (GPa) = 10.17459 24.55855 17.36657
#
# Velocity S-wave (km/s) = 2.04438 3.17618 2.67092
# Velocity P-wave (km/s) = 4.12278 5.52172 4.87272
#
# Compressibility (1/GPa) = 0.03595559
#
# Stress axis : x y z
#
# Youngs Moduli (GPa) = 103.78565 103.78565 36.72354
#
# Poissons Ratio (x) = 0.32517 0.03929
# Poissons Ratio (y) = 0.32517 0.03929
# Poissons Ratio (z) = 0.11103 0.11103
#
# Static dielectric constant tensor:
#      x y z
#    x 2.090930 0.000000 0.000000 
#    y 0.000000 2.090930 0.000000 
#    z 0.000000 0.000000 1.980250 
# 
# From -- ./inp_files/2605.got.cif
#   From: 2010.05.17/outbox.cif.g08.bks.cpg/sg152_2_cif.got.tgz:2605.got - 2010.05.20 10:36:06.
