data_PCOD9575779
_publ_section_title
;
Structure prediction by ZEFSAII (Michael W. Deem and Ramdas Pophale) SiO2 
 PCOD9575779
Probable space group: P 31 2 1
;
_chemical_formula_sum "Si O2"
_cell_formula_units_Z 24
_cell_length_a 15.651467
_cell_length_b 15.651467
_cell_length_c 5.495503
_cell_angle_alpha 90.000000
_cell_angle_beta 90.000000
_cell_angle_gamma 120.000000
_cell_volume 1165.864775
_symmetry_space_group_name_H-M "P 31 2 1"
_symmetry_group_IT_number 152
_symmetry_cell_setting 'hexagonal'
loop_
_space_group_symop_operation_xyz
x,y,z
-y,x-y,1/3+z
-x+y,-x,2/3+z
x-y,-y,2/3-z
-x,-x+y,1/3-z
y,x,-z
loop_
_atom_site_type_symbol
_atom_site_label
_atom_site_fract_x
_atom_site_fract_y
_atom_site_fract_z
Si Si1 0.277738 0.000000 0.333334
Si Si2 0.623814 0.056587 0.092731
Si Si3 0.205468 0.477674 0.226531
Si Si4 0.655348 0.493752 0.937643
Si Si5 0.720634 0.720634 0.500000
O O1 0.293598 0.905645 0.354819
O O2 0.228154 0.000489 0.584279
O O3 0.725279 0.157588 0.050538
O O4 0.548011 0.092165 0.181000
O O5 0.630553 0.000000 0.333334
O O6 0.591483 0.000000 0.833334
O O7 0.206592 0.540347 0.459543
O O8 0.094334 0.388486 0.185978
O O9 0.233183 0.528172 0.960449
#
# Coordination Sequence:
#
# PCOD9575779 Si02
#       5
#     3   6   6   6   3
#     4   8  14  26  50  70  90 134 182 216 266 328
#     4  12  24  38  60  85 120 160 198 254 315 358
#     4  10  21  37  56  82 112 152 204 243 291 361
#     4  10  19  35  54  75 110 153 196 236 292 351
#     4   8  16  30  54  74 100 138 182 234 270 336
#
# _framework density 20.585578000000002
#
# number of rings (size 3 to 8) (size 9 to 14) (size 15 to 20)
#    0.000    2.000    1.250    3.000    7.000    0.000 
#    4.500    0.000    0.000    0.000    0.000    0.000 
#    3.750    0.000    0.000    0.000    0.000    0.000 
#
# Total GULP energy -133627.006878 kJ/mol
# GULP energy per Si atom -5567.791953 kJ/mol
# Density = 2.053872 g / cm^3
# Si number density = 20.585578 Si / 1000 Ang^3
#
#
#
# Elastic Constant Matrix: (Units=GPa)
#
#
# Indices 1 2 3 4 5 6 
#
# 1 93.5550 -0.5553 35.7594 -25.1122 -0.0002 0.0000
# 2 -0.5553 93.5550 35.7594 25.1122 0.0002 0.0000
# 3 35.7594 35.7594 276.8356 0.0000 0.0000 0.0000
# 4 -25.1122 25.1122 0.0000 34.3958 0.0000 0.0002
# 5 -0.0002 0.0002 0.0000 0.0000 34.3958 -25.1122
# 6 0.0000 0.0000 0.0000 0.0002 -25.1122 47.0552
#
#
#
# Elastic Compliance Matrix: (Units=1/GPa)
#
#
# Indices 1 2 3 4 5 6 
#
# 1 0.014674 -0.002735 -0.001542 0.012710 0.000000 0.000000
# 2 -0.002735 0.014674 -0.001542 -0.012710 0.000000 0.000000
# 3 -0.001542 -0.001542 0.004011 0.000000 0.000000 0.000000
# 4 0.012710 -0.012710 0.000000 0.047632 0.000000 0.000000
# 5 0.000000 0.000000 0.000000 0.000000 0.047632 0.025420
# 6 0.000000 0.000000 0.000000 0.000000 0.025420 0.034818
#
#
# Mechanical properties :
#
#
# Convention : Reuss Voigt Hill
#
# Bulk Modulus (GPa) = 46.04173 67.31918 56.68045
# Shear Modulus (GPa) = 27.42437 49.36815 38.39626
#
# Velocity S-wave (km/s) = 3.65391 4.90245 4.32348
# Velocity P-wave (km/s) = 6.34161 8.05099 7.24687
#
# Compressibility (1/GPa) = 0.02171943
#
# Stress axis : x y z
#
# Youngs Moduli (GPa) = 68.14874 68.14874 249.33574
#
# Poissons Ratio (x) = 0.18639 0.38451
# Poissons Ratio (y) = 0.18639 0.38451
# Poissons Ratio (z) = 0.10510 0.10510
#
# Static dielectric constant tensor:
#      x y z
#    x 1.661200 0.000000 0.000000 
#    y 0.000000 1.661200 0.000000 
#    z 0.000000 0.000000 1.917700 
# 
# From -- ./inp_files/241.got.cif
#   From: 2010.05.17/outbox.cif.g08.bks.cpg/sg152_1_cif.got.tgz:241.got - 2010.05.20 10:36:06.
