data_PCOD9575925
_publ_section_title
;
Structure prediction by ZEFSAII (Michael W. Deem and Ramdas Pophale) SiO2 
 PCOD9575925
Probable space group: P 31 2 1
;
_chemical_formula_sum "Si O2"
_cell_formula_units_Z 30
_cell_length_a 7.786208
_cell_length_b 7.786208
_cell_length_c 21.319506
_cell_angle_alpha 90.000000
_cell_angle_beta 90.000000
_cell_angle_gamma 120.000000
_cell_volume 1119.334195
_symmetry_space_group_name_H-M "P 31 2 1"
_symmetry_group_IT_number 152
_symmetry_cell_setting 'hexagonal'
loop_
_space_group_symop_operation_xyz
x,y,z
-y,x-y,1/3+z
-x+y,-x,2/3+z
x-y,-y,2/3-z
-x,-x+y,1/3-z
y,x,-z
loop_
_atom_site_type_symbol
_atom_site_label
_atom_site_fract_x
_atom_site_fract_y
_atom_site_fract_z
Si Si1 0.275804 0.032800 0.169644
Si Si2 0.495532 0.422263 0.249219
Si Si3 0.778042 0.938306 0.403785
Si Si4 0.855205 0.423659 0.299053
Si Si5 0.875921 0.380162 0.723064
O O1 0.350143 0.220431 0.215393
O O2 0.131017 0.053557 0.119259
O O3 0.466508 0.072820 0.127390
O O4 0.242878 0.856462 0.217960
O O5 0.724590 0.471063 0.253132
O O6 0.426833 0.415080 0.320860
O O7 0.645892 0.699534 0.401400
O O8 0.858268 0.000000 0.333334
O O9 0.601452 0.991198 0.413291
O O10 0.692237 0.290031 0.352068
O O11 0.000000 0.356259 0.666667
#
# Coordination Sequence:
#
# PCOD9575925 Si02
#       5
#     6   6   6   6   6
#     4  12  18  30  64  88 112 148 218 240 296 340
#     4  12  20  34  59  93 114 160 192 260 284 362
#     4   9  16  31  50  89 116 143 187 261 279 352
#     4  10  21  36  56  85 128 144 198 247 316 332
#     4   9  16  31  50  89 116 143 187 261 279 352
#
# _framework density 26.801649000000001
#
# number of rings (size 3 to 8) (size 9 to 14) (size 15 to 20)
#    0.000    2.000   10.000    0.000    0.000    0.000 
#    0.000    0.000    0.000   18.000    0.000    0.000 
#    0.000    0.000    0.000    0.000    0.000    0.000 
#
# Total GULP energy -167218.695966 kJ/mol
# GULP energy per Si atom -5573.956532 kJ/mol
# Density = 2.674065 g / cm^3
# Si number density = 26.801649 Si / 1000 Ang^3
#
#
#
# Elastic Constant Matrix: (Units=GPa)
#
#
# Indices 1 2 3 4 5 6 
#
# 1 34.6946 -5.5931 -1.3783 -3.4918 0.0001 0.0000
# 2 -5.5931 34.6946 -1.3783 3.4918 -0.0001 0.0000
# 3 -1.3783 -1.3783 122.4351 0.0000 0.0000 0.0000
# 4 -3.4918 3.4918 0.0000 43.8028 0.0000 -0.0001
# 5 0.0001 -0.0001 0.0000 0.0000 43.8028 -3.4918
# 6 0.0000 0.0000 0.0000 -0.0001 -3.4918 20.1439
#
#
#
# Elastic Compliance Matrix: (Units=1/GPa)
#
#
# Indices 1 2 3 4 5 6 
#
# 1 0.029784 0.004615 0.000387 0.002006 0.000000 0.000000
# 2 0.004615 0.029784 0.000387 -0.002006 0.000000 0.000000
# 3 0.000387 0.000387 0.008176 0.000000 0.000000 0.000000
# 4 0.002006 -0.002006 0.000000 0.023149 0.000000 0.000000
# 5 0.000000 0.000000 0.000000 0.000000 0.023149 0.004013
# 6 0.000000 0.000000 0.000000 0.000000 0.004013 0.050339
#
#
# Mechanical properties :
#
#
# Convention : Reuss Voigt Hill
#
# Bulk Modulus (GPa) = 12.73505 19.45835 16.09670
# Shear Modulus (GPa) = 27.81211 34.89484 31.35347
#
# Velocity S-wave (km/s) = 3.22483 3.61219 3.42399
# Velocity P-wave (km/s) = 4.31601 4.96721 4.65301
#
# Compressibility (1/GPa) = 0.07852346
#
# Stress axis : x y z
#
# Youngs Moduli (GPa) = 33.57487 33.57487 122.30459
#
# Poissons Ratio (x) = -0.15495 -0.04736
# Poissons Ratio (y) = -0.15495 -0.04736
# Poissons Ratio (z) = -0.01300 -0.01300
#
# Static dielectric constant tensor:
#      x y z
#    x 2.238240 0.000000 0.000000 
#    y 0.000000 2.238240 0.000000 
#    z 0.000000 0.000000 2.123960 
# 
# From -- ./inp_files/2989.got.cif
#   From: 2010.05.17/outbox.cif.g08.bks.cpg/sg152_2_cif.got.tgz:2989.got - 2010.05.20 10:36:06.
