data_PCOD9575105
_publ_section_title
;
Structure prediction by ZEFSAII (Michael W. Deem and Ramdas Pophale) SiO2 
 PCOD9575105
Probable space group: R -3
;
_chemical_formula_sum "Si O2"
_cell_formula_units_Z 60
_cell_length_a 18.912398
_cell_length_b 18.912398
_cell_length_c 8.025850
_cell_angle_alpha 90.000000
_cell_angle_beta 90.000000
_cell_angle_gamma 120.000000
_cell_volume 2486.078673
_symmetry_space_group_name_H-M "R -3"
_symmetry_group_IT_number 148
_symmetry_cell_setting 'hexagonal'
loop_
_space_group_symop_operation_xyz
x,y,z
-y,x-y,z
-x+y,-x,z
-x,-y,-z
y,-x+y,-z
x-y,x,-z
2/3+x,1/3+y,1/3+z
2/3-y,1/3+x-y,1/3+z
2/3-x+y,1/3-x,1/3+z
2/3-x,1/3-y,1/3-z
2/3+y,1/3-x+y,1/3-z
2/3+x-y,1/3+x,1/3-z
1/3+x,2/3+y,2/3+z
1/3-y,2/3+x-y,2/3+z
1/3-x+y,2/3-x,2/3+z
1/3-x,2/3-y,2/3-z
1/3+y,2/3-x+y,2/3-z
1/3+x-y,2/3+x,2/3-z
loop_
_atom_site_type_symbol
_atom_site_label
_atom_site_fract_x
_atom_site_fract_y
_atom_site_fract_z
Si Si1 0.745914 0.237404 0.574670
Si Si2 0.102569 0.445235 0.159936
Si Si3 0.321327 0.175150 0.974164
Si Si4 0.333333 0.666667 0.371359
O O1 0.701147 0.152820 0.675084
O O2 0.814518 0.304679 0.698820
O O3 0.793139 0.231604 0.416936
O O4 0.677861 0.261591 0.556114
O O5 0.091787 0.362865 0.076202
O O6 0.032186 0.465508 0.208918
O O7 0.333334 0.166667 0.166667
O O8 0.333335 0.666668 0.166667
#
# Coordination Sequence:
#
# PCOD9575105 Si02
#       4
#    18  18  18   6
#     4  11  22  43  76 111 141 193 240 295 380 429
#     4  10  20  45  74 101 144 186 240 306 364 435
#     4  11  26  47  68 106 151 192 242 299 366 436
#     4  12  18  42  81 102 145 178 236 316 360 433
#
# _framework density 24.134391999999998
#
# number of rings (size 3 to 8) (size 9 to 14) (size 15 to 20)
#    0.000    1.200    3.000    5.400    0.000    2.400 
#   21.600    6.000    0.000    3.600    0.000    0.000 
#    0.000    0.000    0.000    0.000    0.000    0.000 
#
# Total GULP energy -111882.943670 kJ/mol
# GULP energy per Si atom -5594.147184 kJ/mol
# Density = 2.407946 g / cm^3
# Si number density = 24.134392 Si / 1000 Ang^3
#
#
#
# Elastic Constant Matrix: (Units=GPa)
#
#
# Indices 1 2 3 4 5 6 
#
# 1 75.0450 12.0682 29.8281 4.0122 -11.6605 0.0004
# 2 12.0682 75.0438 29.8231 -4.0115 11.6622 -0.0003
# 3 29.8281 29.8231 84.4173 0.0026 0.0059 0.0008
# 4 4.0122 -4.0115 0.0026 20.4182 0.0009 11.6624
# 5 -11.6605 11.6622 0.0059 0.0009 20.4203 4.0118
# 6 0.0004 -0.0003 0.0008 11.6624 4.0118 31.4880
#
#
#
# Elastic Compliance Matrix: (Units=1/GPa)
#
#
# Indices 1 2 3 4 5 6 
#
# 1 0.017971 -0.002828 -0.005352 -0.004087 0.011879 0.000000
# 2 -0.002828 0.017970 -0.005349 0.004088 -0.011876 -0.000001
# 3 -0.005352 -0.005349 0.015626 -0.000002 -0.000006 0.000001
# 4 -0.004087 0.004088 -0.000002 0.064153 -0.000003 -0.023760
# 5 0.011879 -0.011876 -0.000006 -0.000003 0.064142 -0.008171
# 6 0.000000 -0.000001 0.000001 -0.023760 -0.008171 0.041599
#
#
# Mechanical properties :
#
#
# Convention : Reuss Voigt Hill
#
# Bulk Modulus (GPa) = 40.79685 41.99388 41.39537
# Shear Modulus (GPa) = 19.47879 25.31776 22.39827
#
# Velocity S-wave (km/s) = 2.84403 3.24239 3.04972
# Velocity P-wave (km/s) = 5.26549 5.60850 5.43970
#
# Compressibility (1/GPa) = 0.02451169
#
# Stress axis : x y z
#
# Youngs Moduli (GPa) = 55.64366 55.64825 63.99395
#
# Poissons Ratio (x) = 0.15736 0.34248
# Poissons Ratio (y) = 0.15735 0.34228
# Poissons Ratio (z) = 0.29779 0.29764
#
# Static dielectric constant tensor:
#      x y z
#    x 1.934280 0.000000 0.000000 
#    y 0.000000 1.934280 0.000000 
#    z 0.000000 0.000000 1.908620 
# 
# From -- ./inp_files/768.got.cif
#   From: 2010.05.17/outbox.cif.g08.bks.cpg/sg148_1_cif.got.tgz:768.got - 2010.05.20 13:50:20.
