data_PCOD9575132
_publ_section_title
;
Structure prediction by ZEFSAII (Michael W. Deem and Ramdas Pophale) SiO2 
 PCOD9575132
Probable space group: R -3
;
_chemical_formula_sum "Si O2"
_cell_formula_units_Z 126
_cell_length_a 17.131466
_cell_length_b 17.131466
_cell_length_c 27.705334
_cell_angle_alpha 90.000000
_cell_angle_beta 90.000000
_cell_angle_gamma 120.000000
_cell_volume 7041.790158
_symmetry_space_group_name_H-M "R -3"
_symmetry_group_IT_number 148
_symmetry_cell_setting 'hexagonal'
loop_
_space_group_symop_operation_xyz
x,y,z
-y,x-y,z
-x+y,-x,z
-x,-y,-z
y,-x+y,-z
x-y,x,-z
2/3+x,1/3+y,1/3+z
2/3-y,1/3+x-y,1/3+z
2/3-x+y,1/3-x,1/3+z
2/3-x,1/3-y,1/3-z
2/3+y,1/3-x+y,1/3-z
2/3+x-y,1/3+x,1/3-z
1/3+x,2/3+y,2/3+z
1/3-y,2/3+x-y,2/3+z
1/3-x+y,2/3-x,2/3+z
1/3-x,2/3-y,2/3-z
1/3+y,2/3-x+y,2/3-z
1/3+x-y,2/3+x,2/3-z
loop_
_atom_site_type_symbol
_atom_site_label
_atom_site_fract_x
_atom_site_fract_y
_atom_site_fract_z
Si Si1 0.000000 0.686767 0.500000
Si Si2 0.485999 0.152245 0.755436
Si Si3 0.000386 0.814681 0.779505
Si Si4 0.148015 0.667052 0.887162
Si Si5 0.847755 0.514001 0.755436
Si Si6 0.281554 0.897969 0.990021
Si Si7 0.281554 0.383585 0.990021
O O1 0.915636 0.591155 0.514237
O O2 0.018864 0.753737 0.544708
O O3 0.084364 0.675519 0.485763
O O4 0.981136 0.734873 0.455292
O O5 0.472221 0.236111 0.766510
O O6 0.588331 0.176661 0.764334
O O7 0.462977 0.122563 0.699849
O O8 0.910908 0.821816 0.778404
O O9 0.013577 0.778579 0.727822
O O10 0.088698 0.911302 0.787713
O O11 0.111913 0.680243 0.938845
O O12 0.877437 0.537023 0.699849
O O13 0.307239 0.000000 0.000000
O O14 0.175649 0.824351 0.990962
#
# Coordination Sequence:
#
# PCOD9575132 Si02
#       7
#    18  18  18  18  18  18  18
#     4  12  23  36  57  80 116 158 194 230 281 340
#     4  11  22  36  56  85 118 153 189 232 286 348
#     4  11  23  40  61  86 115 150 194 243 289 336
#     4  11  23  40  61  86 115 150 194 243 289 336
#     4  11  22  36  56  85 118 153 189 232 286 348
#     4  10  21  38  62  87 115 149 190 236 288 341
#     4  10  21  38  62  87 115 149 190 236 288 341
#
# _framework density 17.893177999999999
#
# number of rings (size 3 to 8) (size 9 to 14) (size 15 to 20)
#    0.000    1.143    2.857    4.429    0.000    1.143 
#    0.000    4.286    0.000    0.286    0.000    0.000 
#    0.000    0.000    0.000    0.000    0.000    0.000 
#
# Total GULP energy -234714.264631 kJ/mol
# GULP energy per Si atom -5588.434872 kJ/mol
# Density = 1.785245 g / cm^3
# Si number density = 17.893178 Si / 1000 Ang^3
#
#
#
# Elastic Constant Matrix: (Units=GPa)
#
#
# Indices 1 2 3 4 5 6 
#
# 1 137.6100 100.2228 56.4994 -1.2140 0.0000 0.0000
# 2 100.2228 137.6100 56.4994 1.2140 0.0000 0.0000
# 3 56.4994 56.4994 78.4347 0.0000 0.0000 0.0000
# 4 -1.2140 1.2140 0.0000 20.5900 0.0000 0.0000
# 5 0.0000 0.0000 0.0000 0.0000 20.5900 -1.2140
# 6 0.0000 0.0000 0.0000 0.0000 -1.2140 18.6936
#
#
#
# Elastic Compliance Matrix: (Units=1/GPa)
#
#
# Indices 1 2 3 4 5 6 
#
# 1 0.016621 -0.010229 -0.004605 0.001583 0.000000 0.000000
# 2 -0.010229 0.016621 -0.004605 -0.001583 0.000000 0.000000
# 3 -0.004605 -0.004605 0.019383 0.000000 0.000000 0.000000
# 4 0.001583 -0.001583 0.000000 0.048754 0.000000 0.000000
# 5 0.000000 0.000000 0.000000 0.000000 0.048754 0.003166
# 6 0.000000 0.000000 0.000000 0.000000 0.003166 0.053700
#
#
# Mechanical properties :
#
#
# Convention : Reuss Voigt Hill
#
# Bulk Modulus (GPa) = 72.73059 86.67758 79.70409
# Shear Modulus (GPa) = 20.21894 21.33692 20.77793
#
# Velocity S-wave (km/s) = 3.36517 3.45695 3.41137
# Velocity P-wave (km/s) = 7.47225 8.03000 7.75614
#
# Compressibility (1/GPa) = 0.01374937
#
# Stress axis : x y z
#
# Youngs Moduli (GPa) = 60.16420 60.16420 51.59078
#
# Poissons Ratio (x) = 0.61541 0.23756
# Poissons Ratio (y) = 0.61541 0.23756
# Poissons Ratio (z) = 0.27704 0.27704
#
# Static dielectric constant tensor:
#      x y z
#    x 1.591570 0.000000 0.000000 
#    y 0.000000 1.591570 0.000000 
#    z 0.000000 0.000000 1.620010 
# 
# From -- ./inp_files/3715.got.cif
#   From: 2010.05.17/outbox.cif.g08.bks.cpg/sg148_2_cif.got.tgz:3715.got - 2010.05.20 13:50:20.
