data_PCOD9575772
_publ_section_title
;
Structure prediction by ZEFSAII (Michael W. Deem and Ramdas Pophale) SiO2 
 PCOD9575772
Probable space group: P 31 2 1
;
_chemical_formula_sum "Si O2"
_cell_formula_units_Z 42
_cell_length_a 22.193410
_cell_length_b 22.193410
_cell_length_c 5.005985
_cell_angle_alpha 90.000000
_cell_angle_beta 90.000000
_cell_angle_gamma 120.000000
_cell_volume 2135.345963
_symmetry_space_group_name_H-M "P 31 2 1"
_symmetry_group_IT_number 152
_symmetry_cell_setting 'hexagonal'
loop_
_space_group_symop_operation_xyz
x,y,z
-y,x-y,1/3+z
-x+y,-x,2/3+z
x-y,-y,2/3-z
-x,-x+y,1/3-z
y,x,-z
loop_
_atom_site_type_symbol
_atom_site_label
_atom_site_fract_x
_atom_site_fract_y
_atom_site_fract_z
Si Si1 0.602490 0.821064 0.769563
Si Si2 0.673353 0.449912 0.813135
Si Si3 0.391473 0.131800 0.079222
Si Si4 0.726297 0.951415 0.581702
Si Si5 0.734059 0.734059 0.000000
Si Si6 0.068869 0.068869 0.500000
Si Si7 0.245584 0.693112 0.025571
Si Si8 0.133248 0.927715 0.980902
O O1 0.622948 0.803067 0.053012
O O2 0.649534 0.900173 0.683063
O O3 0.524619 0.806367 0.790244
O O4 0.607034 0.767859 0.553027
O O5 0.683039 0.527629 0.822250
O O6 0.691264 0.425285 0.093633
O O7 0.602948 0.388323 0.685266
O O8 0.730004 0.456168 0.599469
O O9 0.332102 0.051046 0.141460
O O10 0.748684 0.894088 0.504234
O O11 0.737563 0.000000 0.333334
O O12 0.768618 0.000000 0.833334
O O13 0.809061 0.752411 0.127689
O O14 0.080179 0.138885 0.373731
O O15 0.000000 0.046061 0.666667
O O16 0.174288 0.000000 0.833334
#
# Coordination Sequence:
#
# PCOD9575772 Si02
#       8
#     6   6   6   6   3   3   6   6
#     4  10  21  40  57  86 116 153 191 243 289 341
#     4  10  19  33  56  94 122 158 190 234 287 350
#     4  10  22  37  59  86 118 150 197 242 288 344
#     4  12  26  41  61  83 111 147 199 247 288 349
#     4  12  24  40  60  80 108 158 198 250 292 358
#     4  12  24  36  48  72 106 132 172 226 300 350
#     4  10  19  32  59  87 129 154 187 232 290 343
#     4  12  26  37  58  79 107 148 188 240 302 364
#
# _framework density 19.668942999999999
#
# number of rings (size 3 to 8) (size 9 to 14) (size 15 to 20)
#    0.000    1.143    3.571    3.429    4.000    0.000 
#    0.000    0.000    1.571    0.000    0.000    0.000 
#    0.000    0.000    0.000    0.000    0.000    0.000 
#
# Total GULP energy -233861.070538 kJ/mol
# GULP energy per Si atom -5568.120727 kJ/mol
# Density = 1.962418 g / cm^3
# Si number density = 19.668943 Si / 1000 Ang^3
#
#
#
# Elastic Constant Matrix: (Units=GPa)
#
#
# Indices 1 2 3 4 5 6 
#
# 1 72.4799 30.6446 -3.6108 4.6754 0.0000 0.0000
# 2 30.6446 72.4799 -3.6108 -4.6754 0.0000 0.0000
# 3 -3.6108 -3.6108 65.3378 0.0000 0.0000 0.0000
# 4 4.6754 -4.6754 0.0000 25.6682 0.0000 0.0000
# 5 0.0000 0.0000 0.0000 0.0000 25.6682 4.6754
# 6 0.0000 0.0000 0.0000 0.0000 4.6754 20.9176
#
#
#
# Elastic Compliance Matrix: (Units=1/GPa)
#
#
# Indices 1 2 3 4 5 6 
#
# 1 0.017326 -0.007592 0.000538 -0.004539 0.000000 0.000000
# 2 -0.007592 0.017326 0.000538 0.004539 0.000000 0.000000
# 3 0.000538 0.000538 0.015365 0.000000 0.000000 0.000000
# 4 -0.004539 0.004539 0.000000 0.040612 0.000000 0.000000
# 5 0.000000 0.000000 0.000000 0.000000 0.040612 -0.009077
# 6 0.000000 0.000000 0.000000 0.000000 -0.009077 0.049836
#
#
# Mechanical properties :
#
#
# Convention : Reuss Voigt Hill
#
# Bulk Modulus (GPa) = 27.03741 28.57153 27.80447
# Shear Modulus (GPa) = 24.22051 26.90911 25.56481
#
# Velocity S-wave (km/s) = 3.51295 3.70280 3.60912
# Velocity P-wave (km/s) = 5.49823 5.73051 5.61557
#
# Compressibility (1/GPa) = 0.03698579
#
# Stress axis : x y z
#
# Youngs Moduli (GPa) = 57.71597 57.71597 65.08493
#
# Poissons Ratio (x) = 0.43815 -0.03501
# Poissons Ratio (y) = 0.43815 -0.03501
# Poissons Ratio (z) = -0.03105 -0.03105
#
# Static dielectric constant tensor:
#      x y z
#    x 1.703170 0.000000 0.000000 
#    y 0.000000 1.703170 0.000000 
#    z 0.000000 0.000000 1.859080 
# 
# From -- ./inp_files/541.got.cif
#   From: 2010.05.17/outbox.cif.g08.bks.cpg/sg152_1_cif.got.tgz:541.got - 2010.05.20 10:36:06.
