data_PCOD9575732
_publ_section_title
;
Structure prediction by ZEFSAII (Michael W. Deem and Ramdas Pophale) SiO2 
 PCOD9575732
Probable space group: P 31 2 1
;
_chemical_formula_sum "Si O2"
_cell_formula_units_Z 42
_cell_length_a 13.947166
_cell_length_b 13.947166
_cell_length_c 10.050285
_cell_angle_alpha 90.000000
_cell_angle_beta 90.000000
_cell_angle_gamma 120.000000
_cell_volume 1693.093526
_symmetry_space_group_name_H-M "P 31 2 1"
_symmetry_group_IT_number 152
_symmetry_cell_setting 'hexagonal'
loop_
_space_group_symop_operation_xyz
x,y,z
-y,x-y,1/3+z
-x+y,-x,2/3+z
x-y,-y,2/3-z
-x,-x+y,1/3-z
y,x,-z
loop_
_atom_site_type_symbol
_atom_site_label
_atom_site_fract_x
_atom_site_fract_y
_atom_site_fract_z
Si Si1 0.637457 0.180937 0.393516
Si Si2 0.387167 0.957327 0.139307
Si Si3 0.951497 0.846117 0.397249
Si Si4 0.837600 0.647809 0.579331
Si Si5 0.579663 0.474211 0.584909
Si Si6 0.373204 0.599536 0.657956
Si Si7 0.174351 0.962383 0.517654
O O1 0.507073 0.101461 0.401644
O O2 0.690483 0.132761 0.295002
O O3 0.678196 0.194134 0.548531
O O4 0.662831 0.303121 0.351454
O O5 0.296920 0.992885 0.167431
O O6 0.349421 0.852199 0.035154
O O7 0.498170 0.058478 0.070315
O O8 0.910004 0.910004 0.500000
O O9 0.896310 0.721568 0.453114
O O10 0.897554 0.841765 0.256863
O O11 0.083120 0.903011 0.404236
O O12 0.705215 0.574749 0.565426
O O13 0.861627 0.730135 0.701704
O O14 0.497641 0.497641 0.500000
O O15 0.563898 0.370296 0.495809
#
# Coordination Sequence:
#
# PCOD9575732 Si02
#       7
#     6   6   6   6   6   6   6
#     4  10  20  33  58  89 135 172 221 281 325 409
#     4   8  19  35  61  82 127 175 225 274 344 397
#     4  10  19  35  68 101 129 166 223 290 347 420
#     4  10  18  31  59  92 128 162 218 282 336 397
#     4   9  15  32  59  84 111 170 231 272 319 406
#     4   9  18  32  57  83 120 173 224 258 324 397
#     4  10  20  39  68  96 132 173 229 285 353 423
#
# _framework density 24.806660999999998
#
# number of rings (size 3 to 8) (size 9 to 14) (size 15 to 20)
#    0.857    1.714    0.000    5.571    0.000    0.000 
#    0.000    1.429   47.143    0.000    0.000    0.000 
#    0.000    0.000    0.000    0.000    0.000    0.000 
#
# Total GULP energy -233882.058880 kJ/mol
# GULP energy per Si atom -5568.620450 kJ/mol
# Density = 2.475020 g / cm^3
# Si number density = 24.806661 Si / 1000 Ang^3
#
#
#
# Elastic Constant Matrix: (Units=GPa)
#
#
# Indices 1 2 3 4 5 6 
#
# 1 102.0539 33.2691 37.5119 4.4531 0.0000 0.0000
# 2 33.2691 102.0539 37.5119 -4.4531 0.0000 0.0000
# 3 37.5119 37.5119 72.2546 0.0000 0.0000 0.0000
# 4 4.4531 -4.4531 0.0000 44.7030 0.0000 0.0000
# 5 0.0000 0.0000 0.0000 0.0000 44.7030 4.4531
# 6 0.0000 0.0000 0.0000 0.0000 4.4531 34.3924
#
#
#
# Elastic Compliance Matrix: (Units=1/GPa)
#
#
# Indices 1 2 3 4 5 6 
#
# 1 0.012552 -0.002176 -0.005387 -0.001467 0.000000 0.000000
# 2 -0.002176 0.012552 -0.005387 0.001467 0.000000 0.000000
# 3 -0.005387 -0.005387 0.019433 0.000000 0.000000 0.000000
# 4 -0.001467 0.001467 0.000000 0.022662 0.000000 0.000000
# 5 0.000000 0.000000 0.000000 0.000000 0.022662 -0.002934
# 6 0.000000 0.000000 0.000000 0.000000 -0.002934 0.029456
#
#
# Mechanical properties :
#
#
# Convention : Reuss Voigt Hill
#
# Bulk Modulus (GPa) = 53.65368 54.77200 54.21284
# Shear Modulus (GPa) = 33.01846 35.96434 34.49140
#
# Velocity S-wave (km/s) = 3.65229 3.81174 3.73286
# Velocity P-wave (km/s) = 6.28182 6.44204 6.36244
#
# Compressibility (1/GPa) = 0.01863805
#
# Stress axis : x y z
#
# Youngs Moduli (GPa) = 79.66751 79.66751 51.45785
#
# Poissons Ratio (x) = 0.17335 0.27720
# Poissons Ratio (y) = 0.17335 0.27720
# Poissons Ratio (z) = 0.42917 0.42917
#
# Static dielectric constant tensor:
#      x y z
#    x 2.012340 0.000000 0.000000 
#    y 0.000000 2.012340 0.000000 
#    z 0.000000 0.000000 2.076060 
# 
# From -- ./inp_files/1813.got.cif
#   From: 2010.05.17/outbox.cif.g08.bks.cpg/sg152_1_cif.got.tgz:1813.got - 2010.05.20 10:36:06.
