data_PCOD9575733
_publ_section_title
;
Structure prediction by ZEFSAII (Michael W. Deem and Ramdas Pophale) SiO2 
 PCOD9575733
Probable space group: P 31 2 1
;
_chemical_formula_sum "Si O2"
_cell_formula_units_Z 42
_cell_length_a 14.993556
_cell_length_b 14.993556
_cell_length_c 11.945411
_cell_angle_alpha 90.000000
_cell_angle_beta 90.000000
_cell_angle_gamma 120.000000
_cell_volume 2325.632140
_symmetry_space_group_name_H-M "P 31 2 1"
_symmetry_group_IT_number 152
_symmetry_cell_setting 'hexagonal'
loop_
_space_group_symop_operation_xyz
x,y,z
-y,x-y,1/3+z
-x+y,-x,2/3+z
x-y,-y,2/3-z
-x,-x+y,1/3-z
y,x,-z
loop_
_atom_site_type_symbol
_atom_site_label
_atom_site_fract_x
_atom_site_fract_y
_atom_site_fract_z
Si Si1 0.513820 0.358209 0.702263
Si Si2 0.948171 0.429358 0.555165
Si Si3 0.163407 0.288794 0.734926
Si Si4 0.930224 0.712916 0.279451
Si Si5 0.959927 0.244355 0.823525
Si Si6 0.482705 0.761259 0.065640
Si Si7 0.363929 0.633475 0.509747
O O1 0.518881 0.445434 0.783425
O O2 0.402810 0.295769 0.647937
O O3 0.546435 0.288162 0.775896
O O4 0.596107 0.396585 0.600573
O O5 0.835124 0.338811 0.592671
O O6 0.000000 0.494625 0.666667
O O7 0.013279 0.375546 0.515911
O O8 0.209965 0.216635 0.706431
O O9 0.107020 0.296733 0.621493
O O10 0.255597 0.403661 0.762933
O O11 0.069383 0.248441 0.820617
O O12 0.827708 0.717439 0.255302
O O13 0.000000 0.743567 0.166667
O O14 0.383378 0.730907 0.143006
O O15 0.450599 0.774876 0.941363
#
# Coordination Sequence:
#
# PCOD9575733 Si02
#       7
#     6   6   6   6   6   6   6
#     4  10  21  34  51  82 114 150 182 226 272 330
#     4  10  18  32  53  78 106 145 195 214 269 338
#     4   9  16  30  50  79 100 131 182 232 272 322
#     4  10  20  33  53  86 113 134 189 241 281 332
#     4   9  16  32  53  74 103 140 176 235 280 323
#     4   9  16  29  50  74 105 139 183 223 257 322
#     4   9  18  32  49  73 113 152 182 214 269 325
#
# _framework density 18.059605000000001
#
# number of rings (size 3 to 8) (size 9 to 14) (size 15 to 20)
#    0.000    2.571    2.857    1.714    0.000    1.143 
#    5.143    1.429    0.000    0.000   29.714    0.000 
#    0.000    0.000    0.000    0.000    0.000    0.000 
#
# Total GULP energy -233985.060236 kJ/mol
# GULP energy per Si atom -5571.072863 kJ/mol
# Density = 1.801850 g / cm^3
# Si number density = 18.059605 Si / 1000 Ang^3
#
#
#
# Elastic Constant Matrix: (Units=GPa)
#
#
# Indices 1 2 3 4 5 6 
#
# 1 57.9085 37.1128 24.8336 3.6290 -0.0001 0.0000
# 2 37.1128 57.9085 24.8336 -3.6290 0.0001 0.0000
# 3 24.8336 24.8336 48.3759 0.0000 0.0000 0.0000
# 4 3.6290 -3.6290 0.0000 23.5844 0.0000 0.0001
# 5 -0.0001 0.0001 0.0000 0.0000 23.5844 3.6290
# 6 0.0000 0.0000 0.0000 0.0001 3.6290 10.3979
#
#
#
# Elastic Compliance Matrix: (Units=1/GPa)
#
#
# Indices 1 2 3 4 5 6 
#
# 1 0.032600 -0.018216 -0.007384 -0.007819 0.000000 0.000000
# 2 -0.018216 0.032600 -0.007384 0.007819 0.000000 0.000000
# 3 -0.007384 -0.007384 0.028252 0.000000 0.000000 0.000000
# 4 -0.007819 0.007819 0.000000 0.044807 0.000000 0.000000
# 5 0.000000 0.000000 0.000000 0.000000 0.044807 -0.015638
# 6 0.000000 0.000000 0.000000 0.000000 -0.015638 0.101632
#
#
# Mechanical properties :
#
#
# Convention : Reuss Voigt Hill
#
# Bulk Modulus (GPa) = 36.38439 37.52810 36.95624
# Shear Modulus (GPa) = 13.89561 16.67420 15.28490
#
# Velocity S-wave (km/s) = 2.77687 3.04186 2.91238
# Velocity P-wave (km/s) = 5.52014 5.75869 5.64067
#
# Compressibility (1/GPa) = 0.02748431
#
# Stress axis : x y z
#
# Youngs Moduli (GPa) = 30.67523 30.67523 35.39551
#
# Poissons Ratio (x) = 0.55879 0.26135
# Poissons Ratio (y) = 0.55879 0.26135
# Poissons Ratio (z) = 0.22649 0.22649
#
# Static dielectric constant tensor:
#      x y z
#    x 1.634870 0.000000 0.000000 
#    y 0.000000 1.634870 0.000000 
#    z 0.000000 0.000000 1.642660 
# 
# From -- ./inp_files/1815.got.cif
#   From: 2010.05.17/outbox.cif.g08.bks.cpg/sg152_1_cif.got.tgz:1815.got - 2010.05.20 10:36:06.
