data_PCOD9575468
_publ_section_title
;
Structure prediction by ZEFSAII (Michael W. Deem and Ramdas Pophale) SiO2 
 PCOD9575468
Probable space group: P 3 2 1
;
_chemical_formula_sum "Si O2"
_cell_formula_units_Z 31
_cell_length_a 14.003589
_cell_length_b 14.003589
_cell_length_c 8.387541
_cell_angle_alpha 90.000000
_cell_angle_beta 90.000000
_cell_angle_gamma 120.000000
_cell_volume 1424.439472
_symmetry_space_group_name_H-M "P 3 2 1"
_symmetry_group_IT_number 150
_symmetry_cell_setting 'hexagonal'
loop_
_space_group_symop_operation_xyz
x,y,z
-y,x-y,z
-x+y,-x,z
x-y,-y,-z
-x,-x+y,-z
y,x,-z
loop_
_atom_site_type_symbol
_atom_site_label
_atom_site_fract_x
_atom_site_fract_y
_atom_site_fract_z
Si Si1 0.875528 0.000000 0.000000
Si Si2 0.333334 0.666668 0.334763
Si Si3 0.035781 0.342697 0.326377
Si Si4 0.449681 0.161418 0.097044
Si Si5 0.895104 0.460603 0.808202
Si Si6 0.666668 0.333334 0.283185
Si Si7 0.663963 0.897386 0.165568
O O1 0.000000 0.102605 0.000000
O O2 0.793034 0.981790 0.142995
O O3 0.344120 0.568574 0.256711
O O4 0.333334 0.666667 0.524838
O O5 0.061309 0.468418 0.319153
O O6 0.146535 0.341710 0.283835
O O7 0.000000 0.294916 0.500000
O O8 0.938934 0.290497 0.194364
O O9 0.545783 0.247141 0.213111
O O10 0.512279 0.120222 0.971882
O O11 0.393316 0.215317 0.991722
O O12 0.956603 0.592153 0.809226
#
# Coordination Sequence:
#
# PCOD9575468 Si02
#       7
#     3   2   6   6   6   2   6
#     4  10  24  44  70  96 116 158 240 314 332 370
#     4  12  19  35  55  93 142 176 199 246 340 392
#     4  11  24  40  61  98 140 172 212 272 340 410
#     4  11  21  38  61  93 130 172 217 260 319 410
#     4  11  20  37  62  92 134 175 219 260 321 418
#     4  12  22  32  58  96 136 179 199 264 325 407
#     4  11  22  40  71  93 123 178 227 276 337 400
#
# _framework density 21.762944000000001
#
# number of rings (size 3 to 8) (size 9 to 14) (size 15 to 20)
#    0.194    0.774    5.806    4.645    2.710    0.000 
#    0.000    0.000    0.000    0.000    0.000    0.000 
#    0.000    0.000    0.000    0.000    0.000    0.000 
#
# Total GULP energy -172961.164878 kJ/mol
# GULP energy per Si atom -5579.392415 kJ/mol
# Density = 2.171341 g / cm^3
# Si number density = 21.762944 Si / 1000 Ang^3
#
#
#
# Elastic Constant Matrix: (Units=GPa)
#
#
# Indices 1 2 3 4 5 6 
#
# 1 77.1286 8.1700 17.6715 3.1552 0.0000 0.0000
# 2 8.1700 77.1299 17.6717 -3.1557 0.0000 0.0000
# 3 17.6715 17.6717 110.2077 -0.0004 0.0000 0.0000
# 4 3.1552 -3.1557 -0.0004 19.8917 0.0000 0.0000
# 5 0.0000 0.0000 0.0000 0.0000 19.8912 3.1553
# 6 0.0000 0.0000 0.0000 0.0000 3.1553 34.4796
#
#
#
# Elastic Compliance Matrix: (Units=1/GPa)
#
#
# Indices 1 2 3 4 5 6 
#
# 1 0.013636 -0.001079 -0.002014 -0.002334 0.000000 0.000000
# 2 -0.001079 0.013636 -0.002014 0.002334 0.000000 0.000000
# 3 -0.002014 -0.002014 0.009720 0.000000 0.000000 0.000000
# 4 -0.002334 0.002334 0.000000 0.051013 0.000000 0.000000
# 5 0.000000 0.000000 0.000000 0.000000 0.051014 -0.004668
# 6 0.000000 0.000000 0.000000 0.000000 -0.004668 0.029430
#
#
# Mechanical properties :
#
#
# Convention : Reuss Voigt Hill
#
# Bulk Modulus (GPa) = 37.34045 39.05472 38.19758
# Shear Modulus (GPa) = 26.65424 29.58270 28.11847
#
# Velocity S-wave (km/s) = 3.50344 3.69089 3.59839
# Velocity P-wave (km/s) = 5.79315 6.01232 5.90375
#
# Compressibility (1/GPa) = 0.02678061
#
# Stress axis : x y z
#
# Youngs Moduli (GPa) = 73.33285 73.33395 102.88560
#
# Poissons Ratio (x) = 0.07910 0.20717
# Poissons Ratio (y) = 0.07910 0.20717
# Poissons Ratio (z) = 0.14766 0.14767
#
# Static dielectric constant tensor:
#      x y z
#    x 1.915220 0.000000 0.000000 
#    y 0.000000 1.915220 0.000000 
#    z 0.000000 0.000000 1.780080 
# 
# From -- ./inp_files/663.got.cif
#   From: 2010.05.17/outbox.cif.g08.bks.cpg/sg150_cif.got.tgz:663.got - 2010.05.20 13:53:18.
