data_PCOD9575364
_publ_section_title
;
Structure prediction by ZEFSAII (Michael W. Deem and Ramdas Pophale) SiO2 
 PCOD9575364
Probable space group: P 3 1 2
;
_chemical_formula_sum "Si O2"
_cell_formula_units_Z 42
_cell_length_a 12.785130
_cell_length_b 12.785130
_cell_length_c 18.268252
_cell_angle_alpha 90.000000
_cell_angle_beta 90.000000
_cell_angle_gamma 120.000000
_cell_volume 2586.055982
_symmetry_space_group_name_H-M "P 3 1 2"
_symmetry_group_IT_number 149
_symmetry_cell_setting 'hexagonal'
loop_
_space_group_symop_operation_xyz
x,y,z
-y,x-y,z
-x+y,-x,z
-y,-x,-z
-x+y,y,-z
x,x-y,-z
loop_
_atom_site_type_symbol
_atom_site_label
_atom_site_fract_x
_atom_site_fract_y
_atom_site_fract_z
Si Si1 0.666551 0.582269 0.140265
Si Si2 0.084876 0.665985 0.280508
Si Si3 0.666551 0.582269 0.859735
Si Si4 0.334015 0.418890 0.719492
Si Si5 0.751950 0.751327 1.000000
Si Si6 0.247490 0.247612 0.583659
Si Si7 0.247490 0.999878 0.583659
O O1 0.546792 0.453208 0.128241
O O2 0.783477 0.566955 0.147993
O O3 0.645681 0.640085 0.213057
O O4 0.690682 0.669961 0.071521
O O5 0.108033 0.554017 0.285058
O O6 0.209600 0.790400 0.269073
O O7 0.994404 0.640085 0.213057
O O8 0.026090 0.679019 0.355397
O O9 0.690682 0.669961 0.928479
O O10 0.320981 0.347071 0.644603
O O11 0.743442 0.871721 0.000000
O O12 0.891296 0.782591 0.000000
O O13 0.253550 0.126775 0.596076
O O14 0.287157 0.289046 0.500000
O O15 0.109162 0.218325 0.589318
#
# Coordination Sequence:
#
# PCOD9575364 Si02
#       7
#     6   6   6   6   6   6   6
#     4  10  20  34  53  75  99 128 163 204 247 290
#     4  10  20  33  49  70  98 132 167 202 241 288
#     4  10  20  34  53  75  99 128 163 204 247 290
#     4  10  20  33  49  70  98 132 167 202 241 288
#     4  10  20  34  52  74 100 128 158 194 238 288
#     4   9  17  30  49  72  96 122 155 198 247 295
#     4   9  17  30  49  72  96 122 155 198 247 295
#
# _framework density 16.240947999999999
#
# number of rings (size 3 to 8) (size 9 to 14) (size 15 to 20)
#    0.000    2.286    0.000    3.143    0.000    1.714 
#    0.000    1.429    0.000   15.429    0.000    0.000 
#    0.000    0.000    0.000    0.000    0.000    0.000 
#
# Total GULP energy -234307.984983 kJ/mol
# GULP energy per Si atom -5578.761547 kJ/mol
# Density = 1.620398 g / cm^3
# Si number density = 16.240948 Si / 1000 Ang^3
#
#
#
# Elastic Constant Matrix: (Units=GPa)
#
#
# Indices 1 2 3 4 5 6 
#
# 1 118.0317 78.5573 87.5857 0.0000 0.0000 0.0000
# 2 78.5573 118.0317 87.5857 0.0000 0.0000 0.0000
# 3 87.5857 87.5857 135.8290 0.0000 0.0000 0.0000
# 4 0.0000 0.0000 0.0000 26.4989 0.0000 0.0000
# 5 0.0000 0.0000 0.0000 0.0000 26.4989 0.0000
# 6 0.0000 0.0000 0.0000 0.0000 0.0000 19.7372
#
#
#
# Elastic Compliance Matrix: (Units=1/GPa)
#
#
# Indices 1 2 3 4 5 6 
#
# 1 0.018645 -0.006688 -0.007710 0.000000 0.000000 0.000000
# 2 -0.006688 0.018645 -0.007710 0.000000 0.000000 0.000000
# 3 -0.007710 -0.007710 0.017305 0.000000 0.000000 0.000000
# 4 0.000000 0.000000 0.000000 0.037737 0.000000 0.000000
# 5 0.000000 0.000000 0.000000 0.000000 0.037737 0.000000
# 6 0.000000 0.000000 0.000000 0.000000 0.000000 0.050666
#
#
# Mechanical properties :
#
#
# Convention : Reuss Voigt Hill
#
# Bulk Modulus (GPa) = 96.34921 97.70552 97.02736
# Shear Modulus (GPa) = 21.89032 22.42458 22.15745
#
# Velocity S-wave (km/s) = 3.67529 3.71987 3.69764
# Velocity P-wave (km/s) = 8.80136 8.87358 8.83755
#
# Compressibility (1/GPa) = 0.01037891
#
# Stress axis : x y z
#
# Youngs Moduli (GPa) = 53.63417 53.63417 57.78547
#
# Poissons Ratio (x) = 0.35871 0.44553
# Poissons Ratio (y) = 0.35871 0.44553
# Poissons Ratio (z) = 0.41352 0.41352
#
# Static dielectric constant tensor:
#      x y z
#    x 1.513620 0.000000 0.000000 
#    y 0.000000 1.513620 0.000000 
#    z 0.000000 0.000000 1.534390 
# 
# From -- ./inp_files/1088.got.cif
#   From: 2010.05.17/outbox.cif.g08.bks.cpg/sg149_cif.got.tgz:1088.got - 2010.05.20 13:52:34.
