data_PCOD9575928
_publ_section_title
;
Structure prediction by ZEFSAII (Michael W. Deem and Ramdas Pophale) SiO2 
 PCOD9575928
Probable space group: P 31 2 1
;
_chemical_formula_sum "Si O2"
_cell_formula_units_Z 45
_cell_length_a 17.561156
_cell_length_b 17.561156
_cell_length_c 9.300238
_cell_angle_alpha 90.000000
_cell_angle_beta 90.000000
_cell_angle_gamma 120.000000
_cell_volume 2483.881633
_symmetry_space_group_name_H-M "P 31 2 1"
_symmetry_group_IT_number 152
_symmetry_cell_setting 'hexagonal'
loop_
_space_group_symop_operation_xyz
x,y,z
-y,x-y,1/3+z
-x+y,-x,2/3+z
x-y,-y,2/3-z
-x,-x+y,1/3-z
y,x,-z
loop_
_atom_site_type_symbol
_atom_site_label
_atom_site_fract_x
_atom_site_fract_y
_atom_site_fract_z
Si Si1 0.384730 0.989592 0.629917
Si Si2 0.470878 0.416770 0.650472
Si Si3 0.707650 0.212564 0.806029
Si Si4 0.185955 0.524494 0.291176
Si Si5 0.173168 0.391611 0.070336
Si Si6 0.697395 0.697395 0.000000
Si Si7 0.654588 0.844738 0.079424
Si Si8 0.972663 0.686218 0.501370
O O1 0.439253 0.937830 0.625738
O O2 0.292477 0.929380 0.712352
O O3 0.359861 0.009273 0.474097
O O4 0.456705 0.081558 0.698742
O O5 0.443331 0.443331 0.500000
O O6 0.481790 0.335816 0.604417
O O7 0.393852 0.375079 0.766744
O O8 0.624172 0.212418 0.737622
O O9 0.753748 0.178046 0.697167
O O10 0.777248 0.299888 0.885553
O O11 0.213425 0.483466 0.157770
O O12 0.205245 0.333309 0.160935
O O13 0.200950 0.388951 0.904984
O O14 0.789324 0.700391 0.970662
O O15 0.720909 0.949594 0.088574
O O16 0.000000 0.696497 0.666667
#
# Coordination Sequence:
#
# PCOD9575928 Si02
#       8
#     6   6   6   6   6   3   6   6
#     4  11  21  38  61  83 121 158 210 248 306 362
#     4  12  20  35  59  81 112 160 204 245 294 360
#     4  12  24  39  57  83 122 162 203 256 304 363
#     4  12  23  40  58  85 118 160 205 253 305 359
#     4  10  21  36  59  87 117 156 204 251 306 366
#     4  10  22  38  62  88 114 164 208 260 302 380
#     4  10  21  40  59  86 121 158 209 253 313 371
#     4  10  21  36  57  87 123 154 201 258 308 367
#
# _framework density 18.116806
#
# number of rings (size 3 to 8) (size 9 to 14) (size 15 to 20)
#    0.000    1.067    6.667    0.400    0.933    1.067 
#    0.000    0.000    0.000    0.000    0.000    0.000 
#   40.000    0.000    1.333    0.000    0.000    0.000 
#
# Total GULP energy -250529.520728 kJ/mol
# GULP energy per Si atom -5567.322683 kJ/mol
# Density = 1.807557 g / cm^3
# Si number density = 18.116806 Si / 1000 Ang^3
#
#
#
# Elastic Constant Matrix: (Units=GPa)
#
#
# Indices 1 2 3 4 5 6 
#
# 1 100.7868 58.9813 38.4245 -2.0678 -0.0001 0.0000
# 2 58.9813 100.7868 38.4245 2.0678 0.0001 0.0000
# 3 38.4245 38.4245 65.7671 0.0000 0.0000 0.0000
# 4 -2.0678 2.0678 0.0000 26.8397 0.0000 0.0001
# 5 -0.0001 0.0001 0.0000 0.0000 26.8397 -2.0678
# 6 0.0000 0.0000 0.0000 0.0001 -2.0678 20.9027
#
#
#
# Elastic Compliance Matrix: (Units=1/GPa)
#
#
# Indices 1 2 3 4 5 6 
#
# 1 0.016405 -0.007699 -0.005086 0.001857 0.000000 0.000000
# 2 -0.007699 0.016405 -0.005086 -0.001857 0.000000 0.000000
# 3 -0.005086 -0.005086 0.021148 0.000000 0.000000 0.000000
# 4 0.001857 -0.001857 0.000000 0.037544 0.000000 0.000000
# 5 0.000000 0.000000 0.000000 0.000000 0.037544 0.003714
# 6 0.000000 0.000000 0.000000 0.000000 0.003714 0.048208
#
#
# Mechanical properties :
#
#
# Convention : Reuss Voigt Hill
#
# Bulk Modulus (GPa) = 54.90093 59.88907 57.39500
# Shear Modulus (GPa) = 22.82379 23.68379 23.25379
#
# Velocity S-wave (km/s) = 3.55324 3.61956 3.58655
# Velocity P-wave (km/s) = 6.87049 7.11317 6.99288
#
# Compressibility (1/GPa) = 0.01821463
#
# Stress axis : x y z
#
# Youngs Moduli (GPa) = 60.95782 60.95782 47.28479
#
# Poissons Ratio (x) = 0.46933 0.24050
# Poissons Ratio (y) = 0.46933 0.24050
# Poissons Ratio (z) = 0.31005 0.31005
#
# Static dielectric constant tensor:
#      x y z
#    x 1.669710 0.000000 0.000000 
#    y 0.000000 1.669710 0.000000 
#    z 0.000000 0.000000 1.682680 
# 
# From -- ./inp_files/1335.got.cif
#   From: 2010.05.17/outbox.cif.g08.bks.cpg/sg152_1_cif.got.tgz:1335.got - 2010.05.20 10:36:06.
