data_PCOD9575859
_publ_section_title
;
Structure prediction by ZEFSAII (Michael W. Deem and Ramdas Pophale) SiO2 
 PCOD9575859
Probable space group: P 31 2 1
;
_chemical_formula_sum "Si O2"
_cell_formula_units_Z 36
_cell_length_a 11.621428
_cell_length_b 11.621428
_cell_length_c 14.087826
_cell_angle_alpha 90.000000
_cell_angle_beta 90.000000
_cell_angle_gamma 120.000000
_cell_volume 1647.758659
_symmetry_space_group_name_H-M "P 31 2 1"
_symmetry_group_IT_number 152
_symmetry_cell_setting 'hexagonal'
loop_
_space_group_symop_operation_xyz
x,y,z
-y,x-y,1/3+z
-x+y,-x,2/3+z
x-y,-y,2/3-z
-x,-x+y,1/3-z
y,x,-z
loop_
_atom_site_type_symbol
_atom_site_label
_atom_site_fract_x
_atom_site_fract_y
_atom_site_fract_z
Si Si1 0.638855 0.608704 0.699918
Si Si2 0.018735 0.649493 0.941114
Si Si3 0.252964 0.845847 0.329770
Si Si4 0.516059 0.705172 0.553658
Si Si5 0.295208 0.702177 0.689409
Si Si6 0.817540 0.134071 0.869601
O O1 0.499579 0.493005 0.742808
O O2 0.592589 0.634873 0.597157
O O3 0.728722 0.540131 0.696400
O O4 0.700148 0.748651 0.752112
O O5 0.136939 0.756430 0.876051
O O6 0.075361 0.705219 0.047977
O O7 0.874235 0.632760 0.937500
O O8 0.372342 0.821096 0.358167
O O9 0.202072 0.794903 0.222671
O O10 0.301005 0.000000 0.333334
O O11 0.413822 0.694368 0.636402
O O12 0.429020 0.662293 0.459542
O O13 0.813172 0.000000 0.833334
#
# Coordination Sequence:
#
# PCOD9575859 Si02
#       6
#     6   6   6   6   6   6
#     4  10  20  37  64  90 127 169 217 263 321 392
#     4   9  20  39  62  88 124 167 223 264 321 396
#     4  11  24  39  61  94 132 168 212 270 342 395
#     4  10  22  38  62  91 129 171 217 271 327 395
#     4  11  24  36  60  97 133 167 211 274 335 391
#     4   9  21  41  65  90 126 173 219 271 321 403
#
# _framework density 21.847857999999999
#
# number of rings (size 3 to 8) (size 9 to 14) (size 15 to 20)
#    0.000    2.000    1.667    0.500   11.667    2.667 
#    0.000    0.000    0.000   27.000    0.000    0.000 
#    0.000    0.000    0.000    0.000    0.000    0.000 
#
# Total GULP energy -200783.870200 kJ/mol
# GULP energy per Si atom -5577.329728 kJ/mol
# Density = 2.179813 g / cm^3
# Si number density = 21.847858 Si / 1000 Ang^3
#
#
#
# Elastic Constant Matrix: (Units=GPa)
#
#
# Indices 1 2 3 4 5 6 
#
# 1 102.8431 45.7909 -1.8718 -5.3257 0.0000 0.0000
# 2 45.7909 102.8431 -1.8718 5.3257 0.0000 0.0000
# 3 -1.8718 -1.8718 46.4685 0.0000 0.0000 0.0000
# 4 -5.3257 5.3257 0.0000 19.1996 0.0000 0.0000
# 5 0.0000 0.0000 0.0000 0.0000 19.1996 -5.3257
# 6 0.0000 0.0000 0.0000 0.0000 -5.3257 28.5261
#
#
#
# Elastic Compliance Matrix: (Units=1/GPa)
#
#
# Indices 1 2 3 4 5 6 
#
# 1 0.012610 -0.005875 0.000271 0.005128 0.000000 0.000000
# 2 -0.005875 0.012610 0.000271 -0.005128 0.000000 0.000000
# 3 0.000271 0.000271 0.021542 0.000000 0.000000 0.000000
# 4 0.005128 -0.005128 0.000000 0.054929 0.000000 0.000000
# 5 0.000000 0.000000 0.000000 0.000000 0.054929 0.010255
# 6 0.000000 0.000000 0.000000 0.000000 0.010255 0.036970
#
#
# Mechanical properties :
#
#
# Convention : Reuss Voigt Hill
#
# Bulk Modulus (GPa) = 27.70354 37.36103 32.53229
# Shear Modulus (GPa) = 23.11736 27.39219 25.25477
#
# Velocity S-wave (km/s) = 3.25638 3.54470 3.40360
# Velocity P-wave (km/s) = 5.18136 5.82159 5.51078
#
# Compressibility (1/GPa) = 0.03609647
#
# Stress axis : x y z
#
# Youngs Moduli (GPa) = 79.30251 79.30251 46.42134
#
# Poissons Ratio (x) = 0.46592 -0.01259
# Poissons Ratio (y) = 0.46592 -0.01259
# Poissons Ratio (z) = -0.02151 -0.02151
#
# Static dielectric constant tensor:
#      x y z
#    x 1.816860 0.000000 0.000000 
#    y 0.000000 1.816860 0.000000 
#    z 0.000000 0.000000 1.900760 
# 
# From -- ./inp_files/2022.got.cif
#   From: 2010.05.17/outbox.cif.g08.bks.cpg/sg152_2_cif.got.tgz:2022.got - 2010.05.20 10:36:06.
