data_PCOD9575595
_publ_section_title
;
Structure prediction by ZEFSAII (Michael W. Deem and Ramdas Pophale) SiO2 
 PCOD9575595
Probable space group: P 31 1 2
;
_chemical_formula_sum "Si O2"
_cell_formula_units_Z 36
_cell_length_a 8.284302
_cell_length_b 8.284302
_cell_length_c 27.042588
_cell_angle_alpha 90.000000
_cell_angle_beta 90.000000
_cell_angle_gamma 120.000000
_cell_volume 1607.276994
_symmetry_space_group_name_H-M "P 31 1 2"
_symmetry_group_IT_number 151
_symmetry_cell_setting 'hexagonal'
loop_
_space_group_symop_operation_xyz
x,y,z
-y,x-y,1/3+z
-x+y,-x,2/3+z
-y,-x,2/3-z
-x+y,y,1/3-z
x,x-y,-z
loop_
_atom_site_type_symbol
_atom_site_label
_atom_site_fract_x
_atom_site_fract_y
_atom_site_fract_z
Si Si1 0.146274 0.450815 0.367515
Si Si2 0.869185 0.677215 0.011401
Si Si3 0.542020 0.350661 0.252520
Si Si4 0.102747 0.474370 0.722800
Si Si5 0.662375 0.082270 0.203552
Si Si6 0.398427 0.976313 0.840980
O O1 0.233418 0.324963 0.350407
O O2 0.271686 0.670294 0.384426
O O3 0.038715 0.468887 0.319843
O O4 0.032392 0.347560 0.415760
O O5 0.797338 0.489601 0.042944
O O6 0.741174 0.750035 0.037824
O O7 0.834435 0.629908 0.953098
O O8 0.620386 0.240486 0.222894
O O9 0.503978 0.467941 0.211494
O O10 0.037905 0.494597 0.777408
O O11 0.485993 0.971985 0.166667
O O12 0.868257 0.202876 0.181610
O O13 0.221563 0.778438 0.833334
#
# Coordination Sequence:
#
# PCOD9575595 Si02
#       6
#     6   6   6   6   6   6
#     4  11  24  43  62 101 139 173 227 291 361 419
#     4  11  21  40  71  94 126 181 229 279 343 429
#     4  10  20  40  64  93 127 165 225 282 330 407
#     4  11  23  42  69  99 134 182 228 289 352 424
#     4  10  22  41  63  88 136 175 212 287 352 402
#     4  11  22  40  66  96 127 177 229 276 349 428
#
# _framework density 22.398130999999999
#
# number of rings (size 3 to 8) (size 9 to 14) (size 15 to 20)
#    0.000    1.333    3.333    4.000    0.000    2.667 
#    6.000    1.667    0.000    0.000    0.000    0.000 
#    0.000    0.000    0.000    0.000    0.000    0.000 
#
# Total GULP energy -200585.961019 kJ/mol
# GULP energy per Si atom -5571.832251 kJ/mol
# Density = 2.234715 g / cm^3
# Si number density = 22.398131 Si / 1000 Ang^3
#
#
#
# Elastic Constant Matrix: (Units=GPa)
#
#
# Indices 1 2 3 4 5 6 
#
# 1 62.7550 28.6670 25.0271 -0.0002 -6.2215 0.0000
# 2 28.6670 62.7550 25.0271 0.0002 6.2215 0.0000
# 3 25.0271 25.0271 145.4213 0.0000 0.0000 0.0000
# 4 -0.0002 0.0002 0.0000 40.2195 0.0000 6.2215
# 5 -6.2215 6.2215 0.0000 0.0000 40.2195 -0.0002
# 6 0.0000 0.0000 0.0000 6.2215 -0.0002 17.0440
#
#
#
# Elastic Compliance Matrix: (Units=1/GPa)
#
#
# Indices 1 2 3 4 5 6 
#
# 1 0.021584 -0.009508 -0.002078 0.000000 0.004809 0.000000
# 2 -0.009508 0.021584 -0.002078 0.000000 -0.004809 0.000000
# 3 -0.002078 -0.002078 0.007592 0.000000 0.000000 0.000000
# 4 0.000000 0.000000 0.000000 0.026351 0.000000 -0.009619
# 5 0.004809 -0.004809 0.000000 0.000000 0.026351 0.000000
# 6 0.000000 0.000000 0.000000 -0.009619 0.000000 0.062183
#
#
# Mechanical properties :
#
#
# Convention : Reuss Voigt Hill
#
# Bulk Modulus (GPa) = 42.67848 47.59708 45.13778
# Shear Modulus (GPa) = 24.90235 32.31062 28.60649
#
# Velocity S-wave (km/s) = 3.33799 3.80222 3.57765
# Velocity P-wave (km/s) = 5.82684 6.36965 6.10428
#
# Compressibility (1/GPa) = 0.02343101
#
# Stress axis : x y z
#
# Youngs Moduli (GPa) = 46.33103 46.33103 131.71879
#
# Poissons Ratio (x) = 0.44050 0.27375
# Poissons Ratio (y) = 0.44050 0.27375
# Poissons Ratio (z) = 0.09629 0.09629
#
# Static dielectric constant tensor:
#      x y z
#    x 1.874020 0.000000 0.000000 
#    y 0.000000 1.874020 0.000000 
#    z 0.000000 0.000000 1.884130 
# 
# From -- ./inp_files/4677.got.cif
#   From: 2010.05.17/outbox.cif.g08.bks.cpg/sg151_3_cif.got.tgz:4677.got - 2010.05.20 10:33:20.
