data_PCOD9575116
_publ_section_title
;
Structure prediction by ZEFSAII (Michael W. Deem and Ramdas Pophale) SiO2 
 PCOD9575116
Probable space group: R -3
;
_chemical_formula_sum "Si O2"
_cell_formula_units_Z 72
_cell_length_a 22.273054
_cell_length_b 22.273054
_cell_length_c 9.779840
_cell_angle_alpha 90.000000
_cell_angle_beta 90.000000
_cell_angle_gamma 120.000000
_cell_volume 4201.669822
_symmetry_space_group_name_H-M "R -3"
_symmetry_group_IT_number 148
_symmetry_cell_setting 'hexagonal'
loop_
_space_group_symop_operation_xyz
x,y,z
-y,x-y,z
-x+y,-x,z
-x,-y,-z
y,-x+y,-z
x-y,x,-z
2/3+x,1/3+y,1/3+z
2/3-y,1/3+x-y,1/3+z
2/3-x+y,1/3-x,1/3+z
2/3-x,1/3-y,1/3-z
2/3+y,1/3-x+y,1/3-z
2/3+x-y,1/3+x,1/3-z
1/3+x,2/3+y,2/3+z
1/3-y,2/3+x-y,2/3+z
1/3-x+y,2/3-x,2/3+z
1/3-x,2/3-y,2/3-z
1/3+y,2/3-x+y,2/3-z
1/3+x-y,2/3+x,2/3-z
loop_
_atom_site_type_symbol
_atom_site_label
_atom_site_fract_x
_atom_site_fract_y
_atom_site_fract_z
Si Si1 0.553348 0.082793 0.998274
Si Si2 0.957413 0.724420 0.891916
Si Si3 0.232555 0.233624 0.445012
Si Si4 0.771072 0.089684 0.185530
O O1 0.615940 0.100963 0.892768
O O2 0.508249 0.117265 0.951938
O O3 0.584494 0.091964 0.149966
O O4 0.500000 0.000000 0.000000
O O5 0.928707 0.644160 0.842641
O O6 0.036081 0.762396 0.846543
O O7 0.952251 0.724528 0.053919
O O8 0.281035 0.232678 0.323080
O O9 0.833334 0.166667 0.166667
#
# Coordination Sequence:
#
# PCOD9575116 Si02
#       4
#    18  18  18  18
#     4  10  21  36  58  81 115 153 187 237 288 340
#     4  11  21  36  53  83 117 148 186 237 285 345
#     4  11  21  38  57  83 115 151 191 233 287 349
#     4  12  23  34  56  82 116 151 188 231 291 341
#
# _framework density 17.136043999999998
#
# number of rings (size 3 to 8) (size 9 to 14) (size 15 to 20)
#    0.000    1.000    5.000    4.500    3.500    0.000 
#    0.000    0.000    0.000    0.500    0.000    0.000 
#    0.000    4.000    0.000    0.000    0.000    0.000 
#
# Total GULP energy -133808.470578 kJ/mol
# GULP energy per Si atom -5575.352941 kJ/mol
# Density = 1.709704 g / cm^3
# Si number density = 17.136044 Si / 1000 Ang^3
#
#
#
# Elastic Constant Matrix: (Units=GPa)
#
#
# Indices 1 2 3 4 5 6 
#
# 1 52.9419 19.7691 -9.3132 -6.8090 5.3047 0.0000
# 2 19.7691 52.9418 -9.3132 6.8089 -5.3050 0.0000
# 3 -9.3132 -9.3132 67.0196 -0.0002 -0.0005 0.0000
# 4 -6.8090 6.8089 -0.0002 26.1607 -0.0001 -5.3048
# 5 5.3047 -5.3050 -0.0005 -0.0001 26.1604 -6.8089
# 6 0.0000 0.0000 0.0000 -5.3048 -6.8089 16.5864
#
#
#
# Elastic Compliance Matrix: (Units=1/GPa)
#
#
# Indices 1 2 3 4 5 6 
#
# 1 0.025327 -0.011067 0.001982 0.009472 -0.007380 0.000000
# 2 -0.011067 0.025327 0.001982 -0.009472 0.007380 0.000000
# 3 0.001982 0.001982 0.015472 0.000000 0.000000 0.000000
# 4 0.009472 -0.009472 0.000000 0.046149 0.000000 0.014760
# 5 -0.007380 0.007380 0.000000 0.000000 0.046150 0.018945
# 6 0.000000 0.000000 0.000000 0.014760 0.018945 0.072788
#
#
# Mechanical properties :
#
#
# Convention : Reuss Voigt Hill
#
# Bulk Modulus (GPa) = 19.26037 19.46541 19.36289
# Shear Modulus (GPa) = 19.03119 25.23221 22.13170
#
# Velocity S-wave (km/s) = 3.33617 3.84143 3.59768
# Velocity P-wave (km/s) = 5.10922 5.57310 5.34620
#
# Compressibility (1/GPa) = 0.05192009
#
# Stress axis : x y z
#
# Youngs Moduli (GPa) = 39.48302 39.48285 64.63382
#
# Poissons Ratio (x) = 0.43694 -0.12808
# Poissons Ratio (y) = 0.43695 -0.12809
# Poissons Ratio (z) = -0.07824 -0.07825
#
# Static dielectric constant tensor:
#      x y z
#    x 1.580580 0.000000 0.000000 
#    y 0.000000 1.580580 0.000000 
#    z 0.000000 0.000000 1.645750 
# 
# From -- ./inp_files/792.got.cif
#   From: 2010.05.17/outbox.cif.g08.bks.cpg/sg148_1_cif.got.tgz:792.got - 2010.05.20 13:50:20.
