data_PCOD9575337
_publ_section_title
;
Structure prediction by ZEFSAII (Michael W. Deem and Ramdas Pophale) SiO2 
 PCOD9575337
Probable space group: R -3
;
_chemical_formula_sum "Si O2"
_cell_formula_units_Z 48
_cell_length_a 30.000000
_cell_length_b 30.000000
_cell_length_c 9.000000
_cell_angle_alpha 90.000000
_cell_angle_beta 90.000000
_cell_angle_gamma 120.000000
_cell_volume 7014.805771
_symmetry_space_group_name_H-M "R -3"
_symmetry_group_IT_number 148
_symmetry_cell_setting 'hexagonal'
loop_
_space_group_symop_operation_xyz
x,y,z
-y,x-y,z
-x+y,-x,z
-x,-y,-z
y,-x+y,-z
x-y,x,-z
2/3+x,1/3+y,1/3+z
2/3-y,1/3+x-y,1/3+z
2/3-x+y,1/3-x,1/3+z
2/3-x,1/3-y,1/3-z
2/3+y,1/3-x+y,1/3-z
2/3+x-y,1/3+x,1/3-z
1/3+x,2/3+y,2/3+z
1/3-y,2/3+x-y,2/3+z
1/3-x+y,2/3-x,2/3+z
1/3-x,2/3-y,2/3-z
1/3+y,2/3-x+y,2/3-z
1/3+x-y,2/3+x,2/3-z
loop_
_atom_site_type_symbol
_atom_site_label
_atom_site_fract_x
_atom_site_fract_y
_atom_site_fract_z
Si Si1 0.011092 0.765405 0.282222
Si Si2 0.827877 0.023040 0.008075
Si Si3 0.744763 0.222381 0.167374
Si Si4 0.423641 0.408946 0.815354
Si Si5 0.426574 0.954991 0.850780
Si Si6 0.599130 0.210705 0.810651
Si Si7 0.431867 0.539873 0.033734
Si Si8 0.148010 0.289967 0.648482
O O1 0.038689 0.744076 0.174052
O O2 0.052514 0.815520 0.369373
O O3 0.975684 0.724614 0.404332
O O4 0.985427 0.787509 0.170301
O O5 0.799146 0.044583 0.903404
O O6 0.822155 0.973209 0.923234
O O7 0.886304 0.065934 0.049767
O O8 0.731139 0.244738 0.016442
O O9 0.778174 0.195025 0.113694
O O10 0.462609 0.451835 0.696062
O O11 0.444009 0.416283 0.988042
O O12 0.461467 0.002958 0.742866
O O13 0.455342 0.923124 0.896161
O O14 0.575034 0.247347 0.843083
O O15 0.578622 0.167775 0.942262
O O16 0.465438 0.547352 0.178807
#
# Coordination Sequence:
#
# PCOD9575337 Si02
#       8
#    18  18  18  18  18  18  18  18
#     4  12  24  43  63  95 144 185 233 287 354 426
#     4  12  27  42  68 102 143 181 233 295 363 424
#     4  11  26  45  69 108 142 188 238 297 365 440
#     4  11  24  41  67  97 135 185 235 284 351 417
#     4  11  22  41  70 101 132 182 239 295 351 421
#     4  11  24  42  71 104 139 176 237 301 358 434
#     4  10  20  38  68  94 124 178 227 285 341 417
#     4  10  20  43  70  98 127 173 240 289 341 415
#
# _framework density 6.84267
#
# number of rings (size 3 to 8) (size 9 to 14) (size 15 to 20)
#    0.000    1.000    3.750    3.125    7.000    3.500 
#    0.000    0.000    0.000    1.000    0.000    0.000 
#    0.000    0.000    0.000    0.000    0.000    0.000 
#
# Total GULP energy -267685.162685 kJ/mol
# GULP energy per Si atom -5576.774223 kJ/mol
# Density = 0.682710 g / cm^3
# Si number density = 6.842670 Si / 1000 Ang^3
#
#
#
# Elastic Constant Matrix: (Units=GPa)
#
#
# Indices 1 2 3 4 5 6 
#
# 1 110.8215 42.6545 30.5620 2.6399 3.1921 -0.0028
# 2 42.6545 110.7918 30.5721 -2.6295 -3.1607 0.0028
# 3 30.5620 30.5721 60.8098 0.0222 -0.0068 0.0137
# 4 2.6399 -2.6295 0.0222 34.6364 0.0215 -3.1767
# 5 3.1921 -3.1607 -0.0068 0.0215 34.6401 2.6382
# 6 -0.0028 0.0028 0.0137 -3.1767 2.6382 34.0718
#
#
#
# Elastic Compliance Matrix: (Units=1/GPa)
#
#
# Indices 1 2 3 4 5 6 
#
# 1 0.011516 -0.003370 -0.004093 -0.001130 -0.001369 0.000004
# 2 -0.003370 0.011520 -0.004098 0.001133 0.001360 0.000001
# 3 -0.004093 -0.004098 0.020562 -0.000013 0.000008 -0.000010
# 4 -0.001130 0.001133 -0.000013 0.029294 -0.000019 0.002732
# 5 -0.001369 0.001360 0.000008 -0.000019 0.029291 -0.002270
# 6 0.000004 0.000001 -0.000010 0.002732 -0.002270 0.029780
#
#
# Mechanical properties :
#
#
# Convention : Reuss Voigt Hill
#
# Bulk Modulus (GPa) = 48.83926 54.44447 51.64186
# Shear Modulus (GPa) = 30.88108 32.57862 31.72985
#
# Velocity S-wave (km/s) = 3.88279 3.98808 3.93579
# Velocity P-wave (km/s) = 6.62907 6.91274 6.77239
#
# Compressibility (1/GPa) = 0.02047533
#
# Stress axis : x y z
#
# Youngs Moduli (GPa) = 86.83790 86.80618 48.63287
#
# Poissons Ratio (x) = 0.29253 0.19906
# Poissons Ratio (y) = 0.29264 0.19931
# Poissons Ratio (z) = 0.35544 0.35575
#
# Static dielectric constant tensor:
#      x y z
#    x 1.815430 -0.000040 -0.000070 
#    y -0.000040 1.815490 -0.000020 
#    z -0.000070 -0.000020 1.739620 
# 
# From -- ./inp_files/1147.got.cif
#   From: 2010.05.17/outbox.ucp.g08.bks.cvg/sg148_1_cif.got.tgz:1147.got - 2010.06.11 11:44:40.
