data_PCOD9575671
_publ_section_title
;
Structure prediction by ZEFSAII (Michael W. Deem and Ramdas Pophale) SiO2 
 PCOD9575671
Probable space group: P 31 1 2
;
_chemical_formula_sum "Si O2"
_cell_formula_units_Z 33
_cell_length_a 11.794992
_cell_length_b 11.794992
_cell_length_c 14.578374
_cell_angle_alpha 90.000000
_cell_angle_beta 90.000000
_cell_angle_gamma 120.000000
_cell_volume 1756.446883
_symmetry_space_group_name_H-M "P 31 1 2"
_symmetry_group_IT_number 151
_symmetry_cell_setting 'hexagonal'
loop_
_space_group_symop_operation_xyz
x,y,z
-y,x-y,1/3+z
-x+y,-x,2/3+z
-y,-x,2/3-z
-x+y,y,1/3-z
x,x-y,-z
loop_
_atom_site_type_symbol
_atom_site_label
_atom_site_fract_x
_atom_site_fract_y
_atom_site_fract_z
Si Si1 0.050923 0.264710 0.347240
Si Si2 0.840380 0.163096 0.184042
Si Si3 0.917028 0.088782 0.672336
Si Si4 0.530324 0.115566 0.769492
Si Si5 0.500959 0.811491 0.596063
Si Si6 0.379919 0.189960 0.500000
O O1 0.089946 0.154012 0.366679
O O2 0.184573 0.389695 0.316733
O O3 0.954633 0.223874 0.260134
O O4 0.968623 0.270418 0.433599
O O5 0.808631 0.275039 0.153087
O O6 0.895700 0.129360 0.094252
O O7 0.871529 0.158338 0.745642
O O8 0.070705 0.141410 0.666667
O O9 0.582171 0.164342 0.666667
O O10 0.654486 0.127081 0.821960
O O11 0.412999 0.964864 0.758869
O O12 0.382402 0.764804 0.666667
O O13 0.471472 0.735736 0.500000
#
# Coordination Sequence:
#
# PCOD9575671 Si02
#       6
#     6   6   6   6   6   3
#     4  11  21  37  66  98 130 160 229 285 348 397
#     4  11  21  38  66 100 126 170 218 284 342 409
#     4  12  21  35  63 101 135 164 212 297 351 386
#     4  11  22  44  67  88 132 186 225 266 340 424
#     4  11  21  40  68  92 127 181 226 277 349 427
#     4  12  26  42  62  98 136 184 232 268 340 426
#
# _framework density 18.787929999999999
#
# number of rings (size 3 to 8) (size 9 to 14) (size 15 to 20)
#    0.000    0.727    7.273    2.727    0.000    0.000 
#    3.273    2.727    2.000    0.000    0.000    0.000 
#    0.000    0.000    0.000    0.000    0.000    0.000 
#
# Total GULP energy -184273.696022 kJ/mol
# GULP energy per Si atom -5584.051395 kJ/mol
# Density = 1.874517 g / cm^3
# Si number density = 18.787930 Si / 1000 Ang^3
#
#
#
# Elastic Constant Matrix: (Units=GPa)
#
#
# Indices 1 2 3 4 5 6 
#
# 1 103.1323 55.0724 51.8833 0.0002 -4.8200 0.0000
# 2 55.0724 103.1323 51.8833 -0.0002 4.8200 0.0000
# 3 51.8833 51.8833 114.8273 0.0000 0.0000 0.0000
# 4 0.0002 -0.0002 0.0000 23.2615 0.0000 4.8200
# 5 -4.8200 4.8200 0.0000 0.0000 23.2615 0.0002
# 6 0.0000 0.0000 0.0000 4.8200 0.0002 24.0299
#
#
#
# Elastic Compliance Matrix: (Units=1/GPa)
#
#
# Indices 1 2 3 4 5 6 
#
# 1 0.015346 -0.006363 -0.004059 0.000000 0.004498 0.000000
# 2 -0.006363 0.015346 -0.004059 0.000000 -0.004498 0.000000
# 3 -0.004059 -0.004059 0.012377 0.000000 0.000000 0.000000
# 4 0.000000 0.000000 0.000000 0.044854 0.000000 -0.008997
# 5 0.004498 -0.004498 0.000000 0.000000 0.044854 0.000000
# 6 0.000000 0.000000 0.000000 -0.008997 0.000000 0.043419
#
#
# Mechanical properties :
#
#
# Convention : Reuss Voigt Hill
#
# Bulk Modulus (GPa) = 70.88526 70.97443 70.92984
# Shear Modulus (GPa) = 23.82528 24.92745 24.37636
#
# Velocity S-wave (km/s) = 3.56493 3.64645 3.60592
# Velocity P-wave (km/s) = 7.39973 7.45570 7.42777
#
# Compressibility (1/GPa) = 0.01410730
#
# Stress axis : x y z
#
# Youngs Moduli (GPa) = 65.16168 65.16168 80.79699
#
# Poissons Ratio (x) = 0.41464 0.32795
# Poissons Ratio (y) = 0.41464 0.32795
# Poissons Ratio (z) = 0.26449 0.26449
#
# Static dielectric constant tensor:
#      x y z
#    x 1.667140 0.000000 0.000000 
#    y 0.000000 1.667140 0.000000 
#    z 0.000000 0.000000 1.651390 
# 
# From -- ./inp_files/2896.got.cif
#   From: 2010.05.17/outbox.cif.g08.bks.cpg/sg151_2_cif.got.tgz:2896.got - 2010.05.20 10:33:20.
