data_PCOD9575487
_publ_section_title
;
Structure prediction by ZEFSAII (Michael W. Deem and Ramdas Pophale) SiO2 
 PCOD9575487
Probable space group: P 3 2 1
;
_chemical_formula_sum "Si O2"
_cell_formula_units_Z 34
_cell_length_a 14.884928
_cell_length_b 14.884928
_cell_length_c 7.949131
_cell_angle_alpha 90.000000
_cell_angle_beta 90.000000
_cell_angle_gamma 120.000000
_cell_volume 1525.259583
_symmetry_space_group_name_H-M "P 3 2 1"
_symmetry_group_IT_number 150
_symmetry_cell_setting 'hexagonal'
loop_
_space_group_symop_operation_xyz
x,y,z
-y,x-y,z
-x+y,-x,z
x-y,-y,-z
-x,-x+y,-z
y,x,-z
loop_
_atom_site_type_symbol
_atom_site_label
_atom_site_fract_x
_atom_site_fract_y
_atom_site_fract_z
Si Si1 0.320689 0.255184 0.842161
Si Si2 0.568807 0.781142 0.637532
Si Si3 0.552907 0.096649 0.805950
Si Si4 0.333335 0.666668 0.752724
Si Si5 0.000000 0.396781 0.500000
Si Si6 0.666668 0.333334 0.829666
Si Si7 0.708306 0.000000 0.500000
Si Si8 0.116251 0.386097 0.996517
O O1 0.421855 0.371010 0.832772
O O2 0.256025 0.228970 0.671835
O O3 0.254703 0.254703 0.000000
O O4 0.369110 0.181382 0.861792
O O5 0.447792 0.722828 0.676774
O O6 0.605315 0.710479 0.538257
O O7 0.605888 0.891566 0.549437
O O8 0.612008 0.785260 0.825458
O O9 0.625498 0.217798 0.762605
O O10 0.470191 0.028924 0.663710
O O11 0.488581 0.107942 0.963207
O O12 0.333334 0.666667 0.960953
O O13 0.000000 0.293554 0.000000
#
# Coordination Sequence:
#
# PCOD9575487 Si02
#       8
#     6   6   6   2   3   2   3   6
#     4  12  26  45  72 105 142 199 249 309 384 449
#     4  12  28  46  72 108 152 199 254 312 384 454
#     4  12  24  43  68 103 151 200 246 303 378 459
#     4  12  27  43  71 112 153 208 251 301 370 476
#     4  12  29  44  70 111 148 200 252 319 384 463
#     4  12  24  43  71 103 153 205 251 301 382 467
#     4  12  29  50  70 105 154 200 252 321 378 463
#     4  12  24  46  73 102 143 195 248 313 377 461
#
# _framework density 22.291288000000002
#
# number of rings (size 3 to 8) (size 9 to 14) (size 15 to 20)
#    0.000    0.000    7.059    2.118    4.941    0.000 
#    0.000    0.000    0.000    0.706    4.588    0.000 
#    0.000    0.000    0.000    0.000    0.000    0.000 
#
# Total GULP energy -190054.439172 kJ/mol
# GULP energy per Si atom -5589.836446 kJ/mol
# Density = 2.224055 g / cm^3
# Si number density = 22.291288 Si / 1000 Ang^3
#
#
#
# Elastic Constant Matrix: (Units=GPa)
#
#
# Indices 1 2 3 4 5 6 
#
# 1 91.2093 50.3569 31.4847 6.6888 0.0000 0.0000
# 2 50.3569 91.2088 31.4843 -6.6892 0.0000 0.0000
# 3 31.4847 31.4843 120.0114 0.0000 0.0000 0.0000
# 4 6.6888 -6.6892 0.0000 38.5453 0.0000 0.0000
# 5 0.0000 0.0000 0.0000 0.0000 38.5450 6.6891
# 6 0.0000 0.0000 0.0000 0.0000 6.6891 20.4264
#
#
#
# Elastic Compliance Matrix: (Units=1/GPa)
#
#
# Indices 1 2 3 4 5 6 
#
# 1 0.016975 -0.008978 -0.002098 -0.004504 0.000000 0.000000
# 2 -0.008978 0.016975 -0.002098 0.004504 0.000000 0.000000
# 3 -0.002098 -0.002098 0.009433 0.000000 0.000000 0.000000
# 4 -0.004504 0.004504 0.000000 0.027507 0.000000 0.000000
# 5 0.000000 0.000000 0.000000 0.000000 0.027507 -0.009008
# 6 0.000000 0.000000 0.000000 0.000000 -0.009008 0.051906
#
#
# Mechanical properties :
#
#
# Convention : Reuss Voigt Hill
#
# Bulk Modulus (GPa) = 58.70110 58.78681 58.74395
# Shear Modulus (GPa) = 27.42279 32.11025 29.76652
#
# Velocity S-wave (km/s) = 3.51123 3.79949 3.65820
# Velocity P-wave (km/s) = 6.54440 6.75851 6.65232
#
# Compressibility (1/GPa) = 0.01703546
#
# Stress axis : x y z
#
# Youngs Moduli (GPa) = 58.90956 58.90925 106.00695
#
# Poissons Ratio (x) = 0.52890 0.22240
# Poissons Ratio (y) = 0.52890 0.22240
# Poissons Ratio (z) = 0.12359 0.12359
#
# Static dielectric constant tensor:
#      x y z
#    x 1.811180 0.000000 0.000000 
#    y 0.000000 1.811180 0.000000 
#    z 0.000000 0.000000 1.922970 
# 
# From -- ./inp_files/690.got.cif
#   From: 2010.05.17/outbox.cif.g08.bks.cpg/sg150_cif.got.tgz:690.got - 2010.05.20 13:53:18.
