data_PCOD9575226
_publ_section_title
;
Structure prediction by ZEFSAII (Michael W. Deem and Ramdas Pophale) SiO2 
 PCOD9575226
Probable space group: R -3
;
_chemical_formula_sum "Si O2"
_cell_formula_units_Z 84
_cell_length_a 15.377476
_cell_length_b 15.377476
_cell_length_c 16.187113
_cell_angle_alpha 90.000000
_cell_angle_beta 90.000000
_cell_angle_gamma 120.000000
_cell_volume 3314.897819
_symmetry_space_group_name_H-M "R -3"
_symmetry_group_IT_number 148
_symmetry_cell_setting 'hexagonal'
loop_
_space_group_symop_operation_xyz
x,y,z
-y,x-y,z
-x+y,-x,z
-x,-y,-z
y,-x+y,-z
x-y,x,-z
2/3+x,1/3+y,1/3+z
2/3-y,1/3+x-y,1/3+z
2/3-x+y,1/3-x,1/3+z
2/3-x,1/3-y,1/3-z
2/3+y,1/3-x+y,1/3-z
2/3+x-y,1/3+x,1/3-z
1/3+x,2/3+y,2/3+z
1/3-y,2/3+x-y,2/3+z
1/3-x+y,2/3-x,2/3+z
1/3-x,2/3-y,2/3-z
1/3+y,2/3-x+y,2/3-z
1/3+x-y,2/3+x,2/3-z
loop_
_atom_site_type_symbol
_atom_site_label
_atom_site_fract_x
_atom_site_fract_y
_atom_site_fract_z
Si Si1 0.691164 0.077454 0.631805
Si Si2 0.359562 0.489234 0.788623
Si Si3 0.134668 0.189016 0.446609
Si Si4 0.000000 0.000000 0.851932
Si Si5 0.666666 0.333333 0.991159
Si Si6 0.995458 0.537932 0.331734
O O1 0.720691 0.138980 0.546853
O O2 0.739640 0.126970 0.720337
O O3 0.574720 0.053685 0.643051
O O4 0.704726 0.979987 0.621902
O O5 0.309888 0.558592 0.787279
O O6 0.457880 0.543159 0.731725
O O7 0.276936 0.386888 0.746172
O O8 0.058025 0.192380 0.512928
O O9 0.058995 0.109765 0.379935
O O10 0.000000 0.000000 0.753916
#
# Coordination Sequence:
#
# PCOD9575226 Si02
#       6
#    18  18  18   6   6  18
#     4  11  22  42  69  94 131 172 208 262 330 383
#     4  11  23  41  66  94 128 172 215 267 312 376
#     4   9  19  37  64  97 135 165 212 265 317 379
#     4  12  18  32  68  93 121 164 226 246 311 371
#     4   9  16  34  58  97 124 164 211 259 304 373
#     4  10  25  43  62  92 128 168 214 266 319 381
#
# _framework density 25.340150000000001
#
# number of rings (size 3 to 8) (size 9 to 14) (size 15 to 20)
#    0.000    1.714    2.143    4.071    0.000    4.286 
#    0.000    2.143    0.000   14.143    0.000    0.000 
#    0.000    0.000    0.000    0.000    0.000    0.000 
#
# Total GULP energy -156639.862533 kJ/mol
# GULP energy per Si atom -5594.280805 kJ/mol
# Density = 2.528247 g / cm^3
# Si number density = 25.340150 Si / 1000 Ang^3
#
#
#
# Elastic Constant Matrix: (Units=GPa)
#
#
# Indices 1 2 3 4 5 6 
#
# 1 68.8331 23.9909 31.6998 0.4870 3.1416 -0.0002
# 2 23.9909 68.8330 31.6998 -0.4871 -3.1416 0.0000
# 3 31.6998 31.6998 131.1947 0.0001 0.0000 0.0001
# 4 0.4870 -0.4871 0.0001 31.5426 0.0000 -3.1415
# 5 3.1416 -3.1416 0.0000 0.0000 31.5423 0.4873
# 6 -0.0002 0.0000 0.0001 -3.1415 0.4873 22.4209
#
#
#
# Elastic Compliance Matrix: (Units=1/GPa)
#
#
# Indices 1 2 3 4 5 6 
#
# 1 0.017763 -0.004861 -0.003118 -0.000349 -0.002253 0.000000
# 2 -0.004861 0.017763 -0.003118 0.000349 0.002253 0.000000
# 3 -0.003118 -0.003118 0.009129 0.000000 0.000000 0.000000
# 4 -0.000349 0.000349 0.000000 0.032163 0.000000 0.004506
# 5 -0.002253 0.002253 0.000000 0.000000 0.032163 -0.000699
# 6 0.000000 0.000000 0.000000 0.004506 -0.000699 0.045248
#
#
# Mechanical properties :
#
#
# Convention : Reuss Voigt Hill
#
# Bulk Modulus (GPa) = 44.51676 49.29354 46.90515
# Shear Modulus (GPa) = 27.18752 29.19918 28.19335
#
# Velocity S-wave (km/s) = 3.27907 3.39822 3.33918
# Velocity P-wave (km/s) = 5.65175 5.90696 5.78076
#
# Compressibility (1/GPa) = 0.02246345
#
# Stress axis : x y z
#
# Youngs Moduli (GPa) = 56.29660 56.29651 109.54344
#
# Poissons Ratio (x) = 0.27364 0.34150
# Poissons Ratio (y) = 0.27364 0.34150
# Poissons Ratio (z) = 0.17551 0.17551
#
# Static dielectric constant tensor:
#      x y z
#    x 2.049160 0.000000 0.000000 
#    y 0.000000 2.049160 0.000000 
#    z 0.000000 0.000000 1.949650 
# 
# From -- ./inp_files/1980.got.cif
#   From: 2010.05.17/outbox.cif.g08.bks.cpg/sg148_1_cif.got.tgz:1980.got - 2010.05.20 13:50:20.
