data_PCOD9575876
_publ_section_title
;
Structure prediction by ZEFSAII (Michael W. Deem and Ramdas Pophale) SiO2 
 PCOD9575876
Probable space group: P 31 2 1
;
_chemical_formula_sum "Si O2"
_cell_formula_units_Z 42
_cell_length_a 8.709534
_cell_length_b 8.709534
_cell_length_c 29.421213
_cell_angle_alpha 90.000000
_cell_angle_beta 90.000000
_cell_angle_gamma 120.000000
_cell_volume 1932.773861
_symmetry_space_group_name_H-M "P 31 2 1"
_symmetry_group_IT_number 152
_symmetry_cell_setting 'hexagonal'
loop_
_space_group_symop_operation_xyz
x,y,z
-y,x-y,1/3+z
-x+y,-x,2/3+z
x-y,-y,2/3-z
-x,-x+y,1/3-z
y,x,-z
loop_
_atom_site_type_symbol
_atom_site_label
_atom_site_fract_x
_atom_site_fract_y
_atom_site_fract_z
Si Si1 0.897111 0.524208 0.394438
Si Si2 0.451930 0.009364 0.695595
Si Si3 0.076636 0.139121 0.714446
Si Si4 0.139340 0.422290 0.496160
Si Si5 0.773419 0.202649 0.462379
Si Si6 0.007802 0.716642 0.239627
Si Si7 0.924277 0.697312 0.618877
O O1 0.724595 0.525516 0.374341
O O2 0.971732 0.440602 0.357737
O O3 0.833798 0.391004 0.436983
O O4 0.036254 0.735565 0.397872
O O5 0.284034 0.840605 0.719303
O O6 0.627051 0.017024 0.714482
O O7 0.000000 0.166198 0.666667
O O8 0.918218 0.067644 0.750196
O O9 0.096233 0.966410 0.707703
O O10 0.140245 0.601390 0.506853
O O11 0.263336 0.412978 0.535327
O O12 0.216589 0.401280 0.448671
O O13 0.942327 0.252267 0.493988
O O14 0.727217 0.054259 0.423164
O O15 0.000000 0.670723 0.666667
#
# Coordination Sequence:
#
# PCOD9575876 Si02
#       7
#     6   6   6   6   6   6   6
#     4  11  24  41  69 100 138 167 222 287 351 409
#     4  11  23  42  68 102 133 172 216 286 353 410
#     4  10  20  39  68 100 128 171 217 268 340 419
#     4  11  28  44  66  86 139 183 226 276 326 418
#     4  12  25  48  62 102 132 178 236 280 346 409
#     4  11  23  48  63  94 132 186 223 272 339 413
#     4  10  21  40  68  97 132 170 213 277 352 410
#
# _framework density 21.730425
#
# number of rings (size 3 to 8) (size 9 to 14) (size 15 to 20)
#    0.000    1.143    5.714    0.000    6.000    0.000 
#    2.571    2.143    0.000    0.000    0.000    0.000 
#    0.000    0.000    0.000    0.000    0.000    0.000 
#
# Total GULP energy -234226.500814 kJ/mol
# GULP energy per Si atom -5576.821448 kJ/mol
# Density = 2.168097 g / cm^3
# Si number density = 21.730425 Si / 1000 Ang^3
#
#
#
# Elastic Constant Matrix: (Units=GPa)
#
#
# Indices 1 2 3 4 5 6 
#
# 1 67.8782 6.9001 15.6927 -2.9358 0.0001 0.0000
# 2 6.9001 67.8782 15.6927 2.9358 -0.0001 0.0000
# 3 15.6927 15.6927 64.3501 0.0000 0.0000 0.0000
# 4 -2.9358 2.9358 0.0000 35.6004 0.0000 -0.0001
# 5 0.0001 -0.0001 0.0000 0.0000 35.6004 -2.9358
# 6 0.0000 0.0000 0.0000 -0.0001 -2.9358 30.4890
#
#
#
# Elastic Compliance Matrix: (Units=1/GPa)
#
#
# Indices 1 2 3 4 5 6 
#
# 1 0.015714 -0.000816 -0.003633 0.001363 0.000000 0.000000
# 2 -0.000816 0.015714 -0.003633 -0.001363 0.000000 0.000000
# 3 -0.003633 -0.003633 0.017312 0.000000 0.000000 0.000000
# 4 0.001363 -0.001363 0.000000 0.028314 0.000000 0.000000
# 5 0.000000 0.000000 0.000000 0.000000 0.028314 0.002726
# 6 0.000000 0.000000 0.000000 0.000000 0.002726 0.033061
#
#
# Mechanical properties :
#
#
# Convention : Reuss Voigt Hill
#
# Bulk Modulus (GPa) = 30.69816 30.74193 30.72004
# Shear Modulus (GPa) = 30.21995 31.12603 30.67299
#
# Velocity S-wave (km/s) = 3.73322 3.78877 3.76110
# Velocity P-wave (km/s) = 5.72189 5.77212 5.74706
#
# Compressibility (1/GPa) = 0.03257525
#
# Stress axis : x y z
#
# Youngs Moduli (GPa) = 63.63691 63.63691 57.76373
#
# Poissons Ratio (x) = 0.05196 0.20986
# Poissons Ratio (y) = 0.05196 0.20986
# Poissons Ratio (z) = 0.23119 0.23119
#
# Static dielectric constant tensor:
#      x y z
#    x 1.855990 0.000000 0.000000 
#    y 0.000000 1.855990 0.000000 
#    z 0.000000 0.000000 1.785830 
# 
# From -- ./inp_files/3717.got.cif
#   From: 2010.05.17/outbox.cif.g08.bks.cpg/sg152_2_cif.got.tgz:3717.got - 2010.05.20 10:36:06.
