data_PCOD9575683
_publ_section_title
;
Structure prediction by ZEFSAII (Michael W. Deem and Ramdas Pophale) SiO2 
 PCOD9575683
Probable space group: P 31 1 2
;
_chemical_formula_sum "Si O2"
_cell_formula_units_Z 24
_cell_length_a 8.055443
_cell_length_b 8.055443
_cell_length_c 20.089422
_cell_angle_alpha 90.000000
_cell_angle_beta 90.000000
_cell_angle_gamma 120.000000
_cell_volume 1128.955780
_symmetry_space_group_name_H-M "P 31 1 2"
_symmetry_group_IT_number 151
_symmetry_cell_setting 'hexagonal'
loop_
_space_group_symop_operation_xyz
x,y,z
-y,x-y,1/3+z
-x+y,-x,2/3+z
-y,-x,2/3-z
-x+y,y,1/3-z
x,x-y,-z
loop_
_atom_site_type_symbol
_atom_site_label
_atom_site_fract_x
_atom_site_fract_y
_atom_site_fract_z
Si Si1 0.622617 0.001200 0.477238
Si Si2 0.274279 0.327490 0.601842
Si Si3 0.288085 0.955951 0.143905
Si Si4 0.613457 0.005844 0.731492
O O1 0.628959 0.814480 0.500000
O O2 0.465500 0.945345 0.419907
O O3 0.539791 0.064104 0.539925
O O4 0.833334 0.166666 0.458344
O O5 0.175871 0.351741 0.666667
O O6 0.126875 0.269231 0.539925
O O7 0.333332 0.166666 0.612231
O O8 0.481148 0.962295 0.166667
O O9 0.186822 0.798832 0.086574
O O10 0.490797 0.981594 0.666667
#
# Coordination Sequence:
#
# PCOD9575683 Si02
#       4
#     6   6   6   6
#     4  11  23  42  67  96 131 172 216 271 331 388
#     4  11  23  41  65  96 131 171 219 269 324 394
#     4  11  23  42  67  96 131 172 216 271 331 388
#     4  11  23  41  65  96 131 171 219 269 324 394
#
# _framework density 21.258582000000001
#
# number of rings (size 3 to 8) (size 9 to 14) (size 15 to 20)
#    0.000    1.000    0.000   10.500    0.000    4.000 
#    0.000    2.500    0.000    0.000    0.000    0.000 
#    0.000    0.000    0.000    0.000    0.000    0.000 
#
# Total GULP energy -134457.509077 kJ/mol
# GULP energy per Si atom -5602.396212 kJ/mol
# Density = 2.121020 g / cm^3
# Si number density = 21.258582 Si / 1000 Ang^3
#
#
#
# Elastic Constant Matrix: (Units=GPa)
#
#
# Indices 1 2 3 4 5 6 
#
# 1 141.7522 48.5126 41.3243 0.0007 0.0001 0.0000
# 2 48.5126 141.7522 41.3243 -0.0007 -0.0001 0.0000
# 3 41.3243 41.3243 108.8886 0.0000 0.0000 0.0000
# 4 0.0007 -0.0007 0.0000 10.7690 0.0000 -0.0001
# 5 0.0001 -0.0001 0.0000 0.0000 10.7690 0.0007
# 6 0.0000 0.0000 0.0000 -0.0001 0.0007 46.6198
#
#
#
# Elastic Compliance Matrix: (Units=1/GPa)
#
#
# Indices 1 2 3 4 5 6 
#
# 1 0.008509 -0.002216 -0.002388 -0.000001 0.000000 0.000000
# 2 -0.002216 0.008509 -0.002388 0.000001 0.000000 0.000000
# 3 -0.002388 -0.002388 0.010997 0.000000 0.000000 0.000000
# 4 -0.000001 0.000001 0.000000 0.092859 0.000000 0.000000
# 5 0.000000 0.000000 0.000000 0.000000 0.092859 -0.000001
# 6 0.000000 0.000000 0.000000 0.000000 -0.000001 0.021450
#
#
# Mechanical properties :
#
#
# Convention : Reuss Voigt Hill
#
# Bulk Modulus (GPa) = 71.27763 72.74617 72.01190
# Shear Modulus (GPa) = 19.69712 31.04703 25.37207
#
# Velocity S-wave (km/s) = 3.04723 3.82573 3.45845
# Velocity P-wave (km/s) = 6.78104 7.33545 7.06369
#
# Compressibility (1/GPa) = 0.01402965
#
# Stress axis : x y z
#
# Youngs Moduli (GPa) = 117.52007 117.52007 90.93779
#
# Poissons Ratio (x) = 0.26041 0.21719
# Poissons Ratio (y) = 0.26041 0.21719
# Poissons Ratio (z) = 0.28068 0.28068
#
# Static dielectric constant tensor:
#      x y z
#    x 1.746580 0.000000 0.000000 
#    y 0.000000 1.746580 0.000000 
#    z 0.000000 0.000000 1.764170 
# 
# From -- ./inp_files/3714.got.cif
#   From: 2010.05.17/outbox.cif.g08.bks.cpg/sg151_2_cif.got.tgz:3714.got - 2010.05.20 10:33:20.
