data_PCOD9575724
_publ_section_title
;
Structure prediction by ZEFSAII (Michael W. Deem and Ramdas Pophale) SiO2 
 PCOD9575724
Probable space group: P 31 2 1
;
_chemical_formula_sum "Si O2"
_cell_formula_units_Z 33
_cell_length_a 15.295120
_cell_length_b 15.295120
_cell_length_c 8.941660
_cell_angle_alpha 90.000000
_cell_angle_beta 90.000000
_cell_angle_gamma 120.000000
_cell_volume 1811.567669
_symmetry_space_group_name_H-M "P 31 2 1"
_symmetry_group_IT_number 152
_symmetry_cell_setting 'hexagonal'
loop_
_space_group_symop_operation_xyz
x,y,z
-y,x-y,1/3+z
-x+y,-x,2/3+z
x-y,-y,2/3-z
-x,-x+y,1/3-z
y,x,-z
loop_
_atom_site_type_symbol
_atom_site_label
_atom_site_fract_x
_atom_site_fract_y
_atom_site_fract_z
Si Si1 0.000000 0.352121 0.666667
Si Si2 0.816120 0.721671 0.234104
Si Si3 0.463436 0.500829 0.155813
Si Si4 0.454396 0.593522 0.608381
Si Si5 0.943317 0.000000 0.833334
Si Si6 0.477697 0.290075 0.633165
Si Si7 0.331732 0.000000 0.833334
O O1 0.925664 0.254659 0.758468
O O2 0.937132 0.387553 0.562877
O O3 0.904030 0.832568 0.195258
O O4 0.848049 0.640923 0.287581
O O5 0.739692 0.721083 0.359263
O O6 0.525237 0.469474 0.269027
O O7 0.367199 0.493912 0.233751
O O8 0.439412 0.439412 0.000000
O O9 0.459235 0.691725 0.679156
O O10 0.357541 0.520436 0.513907
O O11 0.553490 0.645857 0.500678
O O12 0.000000 0.016208 0.666667
#
# Coordination Sequence:
#
# PCOD9575724 Si02
#       7
#     3   6   6   6   3   6   3
#     4  10  18  42  66  88 122 172 212 252 322 400
#     4  11  23  40  68  92 121 170 220 264 345 392
#     4  10  20  39  63  90 132 168 208 266 310 387
#     4  11  21  37  63  90 129 166 205 262 316 387
#     4  12  27  47  68  98 132 172 232 307 341 398
#     4  11  22  38  63  95 128 167 209 258 328 391
#     4  10  17  41  62  90 118 172 204 249 327 404
#
# _framework density 18.216266999999998
#
# number of rings (size 3 to 8) (size 9 to 14) (size 15 to 20)
#    0.545    0.727    6.364    0.545    2.545    2.909 
#    0.000    8.182    0.000    0.000    0.000    0.000 
#    0.000    0.000    0.000    0.000    0.000    0.000 
#
# Total GULP energy -183712.702343 kJ/mol
# GULP energy per Si atom -5567.051586 kJ/mol
# Density = 1.817481 g / cm^3
# Si number density = 18.216267 Si / 1000 Ang^3
#
#
#
# Elastic Constant Matrix: (Units=GPa)
#
#
# Indices 1 2 3 4 5 6 
#
# 1 78.6411 33.6452 45.3637 0.4400 0.0000 0.0000
# 2 33.6452 78.6411 45.3637 -0.4400 0.0000 0.0000
# 3 45.3637 45.3637 104.7895 0.0000 0.0000 0.0000
# 4 0.4400 -0.4400 0.0000 28.9202 0.0000 0.0000
# 5 0.0000 0.0000 0.0000 0.0000 28.9202 0.4400
# 6 0.0000 0.0000 0.0000 0.0000 0.4400 22.4980
#
#
#
# Elastic Compliance Matrix: (Units=1/GPa)
#
#
# Indices 1 2 3 4 5 6 
#
# 1 0.017964 -0.004267 -0.005929 -0.000338 0.000000 0.000000
# 2 -0.004267 0.017964 -0.005929 0.000338 0.000000 0.000000
# 3 -0.005929 -0.005929 0.014677 0.000000 0.000000 0.000000
# 4 -0.000338 0.000338 0.000000 0.034588 0.000000 0.000000
# 5 0.000000 0.000000 0.000000 0.000000 0.034588 -0.000676
# 6 0.000000 0.000000 0.000000 0.000000 -0.000676 0.044462
#
#
# Mechanical properties :
#
#
# Convention : Reuss Voigt Hill
#
# Bulk Modulus (GPa) = 54.48807 56.75745 55.62276
# Shear Modulus (GPa) = 24.67777 25.24760 24.96268
#
# Velocity S-wave (km/s) = 3.68463 3.72693 3.70584
# Velocity P-wave (km/s) = 6.93388 7.05303 6.99371
#
# Compressibility (1/GPa) = 0.01835264
#
# Stress axis : x y z
#
# Youngs Moduli (GPa) = 55.66753 55.66753 68.13556
#
# Poissons Ratio (x) = 0.23754 0.40400
# Poissons Ratio (y) = 0.23754 0.40400
# Poissons Ratio (z) = 0.33007 0.33007
#
# Static dielectric constant tensor:
#      x y z
#    x 1.632980 0.000000 0.000000 
#    y 0.000000 1.632980 0.000000 
#    z 0.000000 0.000000 1.705930 
# 
# From -- ./inp_files/1197.got.cif
#   From: 2010.05.17/outbox.cif.g08.bks.cpg/sg152_1_cif.got.tgz:1197.got - 2010.05.20 10:36:06.
