data_PCOD9575987
_publ_section_title
;
Structure prediction by ZEFSAII (Michael W. Deem and Ramdas Pophale) SiO2 
 PCOD9575987
Probable space group: P 31 2 1
;
_chemical_formula_sum "Si O2"
_cell_formula_units_Z 42
_cell_length_a 11.294797
_cell_length_b 11.294797
_cell_length_c 16.420610
_cell_angle_alpha 90.000000
_cell_angle_beta 90.000000
_cell_angle_gamma 120.000000
_cell_volume 1814.164974
_symmetry_space_group_name_H-M "P 31 2 1"
_symmetry_group_IT_number 152
_symmetry_cell_setting 'hexagonal'
loop_
_space_group_symop_operation_xyz
x,y,z
-y,x-y,1/3+z
-x+y,-x,2/3+z
x-y,-y,2/3-z
-x,-x+y,1/3-z
y,x,-z
loop_
_atom_site_type_symbol
_atom_site_label
_atom_site_fract_x
_atom_site_fract_y
_atom_site_fract_z
Si Si1 0.187158 0.862997 0.584772
Si Si2 0.246051 0.632035 0.610862
Si Si3 0.179048 0.186734 0.233515
Si Si4 0.425158 0.313615 0.337620
Si Si5 0.487712 0.487712 0.500000
Si Si6 0.755292 0.229365 0.150943
Si Si7 0.011629 0.486594 0.481934
Si Si8 0.946201 0.000000 0.333334
O O1 0.199967 0.742344 0.628963
O O2 0.080244 0.814774 0.510254
O O3 0.331919 0.958576 0.542893
O O4 0.130321 0.930584 0.646485
O O5 0.241605 0.517103 0.669395
O O6 0.404864 0.714678 0.583233
O O7 0.146490 0.549155 0.536097
O O8 0.270407 0.211609 0.313831
O O9 0.167427 0.321710 0.219238
O O10 0.042221 0.048598 0.254519
O O11 0.439211 0.382521 0.425092
O O12 0.477108 0.429323 0.268610
O O13 0.633913 0.505097 0.527848
O O14 0.614147 0.109432 0.190096
#
# Coordination Sequence:
#
# PCOD9575987 Si02
#       8
#     6   6   6   6   3   6   6   3
#     4  11  25  48  69 102 140 187 235 283 354 423
#     4  10  21  45  70 103 128 182 230 291 355 409
#     4  11  25  50  68  98 147 187 230 291 350 420
#     4  10  23  45  71 105 140 179 240 295 352 413
#     4  10  22  40  72 108 130 186 230 294 356 416
#     4   9  21  40  68  96 137 174 224 286 338 412
#     4  10  22  45  69  98 141 182 225 294 350 411
#     4  12  30  42  70 104 138 200 226 282 346 434
#
# _framework density 23.151145
#
# number of rings (size 3 to 8) (size 9 to 14) (size 15 to 20)
#    0.000    1.714    2.857    0.429    8.000    2.286 
#   20.571    0.000    0.000    0.000    0.000    0.000 
#    0.000    0.000    0.000    0.000    0.000    0.000 
#
# Total GULP energy -234614.850317 kJ/mol
# GULP energy per Si atom -5586.067865 kJ/mol
# Density = 2.309845 g / cm^3
# Si number density = 23.151145 Si / 1000 Ang^3
#
#
#
# Elastic Constant Matrix: (Units=GPa)
#
#
# Indices 1 2 3 4 5 6 
#
# 1 80.6248 17.3162 27.1122 0.9663 0.0000 0.0000
# 2 17.3162 80.6248 27.1122 -0.9663 0.0000 0.0000
# 3 27.1122 27.1122 72.1530 0.0000 0.0000 0.0000
# 4 0.9663 -0.9663 0.0000 31.9087 0.0000 0.0000
# 5 0.0000 0.0000 0.0000 0.0000 31.9087 0.9663
# 6 0.0000 0.0000 0.0000 0.0000 0.9663 31.6543
#
#
#
# Elastic Compliance Matrix: (Units=1/GPa)
#
#
# Indices 1 2 3 4 5 6 
#
# 1 0.014351 -0.001459 -0.004844 -0.000479 0.000000 0.000000
# 2 -0.001459 0.014351 -0.004844 0.000479 0.000000 0.000000
# 3 -0.004844 -0.004844 0.017500 0.000000 0.000000 0.000000
# 4 -0.000479 0.000479 0.000000 0.031368 0.000000 0.000000
# 5 0.000000 0.000000 0.000000 0.000000 0.031368 -0.000958
# 6 0.000000 0.000000 0.000000 0.000000 -0.000958 0.031620
#
#
# Mechanical properties :
#
#
# Convention : Reuss Voigt Hill
#
# Bulk Modulus (GPa) = 41.82865 41.83156 41.83011
# Shear Modulus (GPa) = 29.26980 29.88517 29.57749
#
# Velocity S-wave (km/s) = 3.55955 3.59677 3.57821
# Velocity P-wave (km/s) = 5.91614 5.94618 5.93118
#
# Compressibility (1/GPa) = 0.02390706
#
# Stress axis : x y z
#
# Youngs Moduli (GPa) = 69.68022 69.68022 57.14251
#
# Poissons Ratio (x) = 0.10166 0.27682
# Poissons Ratio (y) = 0.10166 0.27682
# Poissons Ratio (z) = 0.33756 0.33756
#
# Static dielectric constant tensor:
#      x y z
#    x 1.920710 0.000000 0.000000 
#    y 0.000000 1.920710 0.000000 
#    z 0.000000 0.000000 1.857320 
# 
# From -- ./inp_files/2494.got.cif
#   From: 2010.05.17/outbox.cif.g08.bks.cpg/sg152_2_cif.got.tgz:2494.got - 2010.05.20 10:36:06.
