data_PCOD9575259
_publ_section_title
;
Structure prediction by ZEFSAII (Michael W. Deem and Ramdas Pophale) SiO2 
 PCOD9575259
Probable space group: R -3
;
_chemical_formula_sum "Si O2"
_cell_formula_units_Z 144
_cell_length_a 30.791674
_cell_length_b 30.791674
_cell_length_c 9.197745
_cell_angle_alpha 90.000000
_cell_angle_beta 90.000000
_cell_angle_gamma 120.000000
_cell_volume 7552.288936
_symmetry_space_group_name_H-M "R -3"
_symmetry_group_IT_number 148
_symmetry_cell_setting 'hexagonal'
loop_
_space_group_symop_operation_xyz
x,y,z
-y,x-y,z
-x+y,-x,z
-x,-y,-z
y,-x+y,-z
x-y,x,-z
2/3+x,1/3+y,1/3+z
2/3-y,1/3+x-y,1/3+z
2/3-x+y,1/3-x,1/3+z
2/3-x,1/3-y,1/3-z
2/3+y,1/3-x+y,1/3-z
2/3+x-y,1/3+x,1/3-z
1/3+x,2/3+y,2/3+z
1/3-y,2/3+x-y,2/3+z
1/3-x+y,2/3-x,2/3+z
1/3-x,2/3-y,2/3-z
1/3+y,2/3-x+y,2/3-z
1/3+x-y,2/3+x,2/3-z
loop_
_atom_site_type_symbol
_atom_site_label
_atom_site_fract_x
_atom_site_fract_y
_atom_site_fract_z
Si Si1 0.422810 0.474159 0.826989
Si Si2 0.461787 0.178989 0.894629
Si Si3 0.240176 0.945280 0.366495
Si Si4 0.790364 0.934774 0.425158
Si Si5 0.600577 0.716553 0.988547
Si Si6 0.863419 0.066838 0.099019
Si Si7 0.496524 0.864895 0.601648
Si Si8 0.307870 0.192839 0.932154
O O1 0.404257 0.419717 0.892356
O O2 0.391397 0.474381 0.690520
O O3 0.481627 0.498125 0.790385
O O4 0.415935 0.510872 0.938849
O O5 0.414297 0.135955 0.805106
O O6 0.474544 0.230431 0.815563
O O7 0.506235 0.165804 0.900409
O O8 0.451988 0.182931 0.064787
O O9 0.218778 0.918245 0.211464
O O10 0.277387 0.004179 0.342924
O O11 0.748061 0.932881 0.531560
O O12 0.551169 0.695109 0.887876
O O13 0.651255 0.767847 0.955555
O O14 0.922475 0.105315 0.080394
O O15 0.835812 0.091300 0.013947
O O16 0.842698 0.013280 0.021084
#
# Coordination Sequence:
#
# PCOD9575259 Si02
#       8
#    18  18  18  18  18  18  18  18
#     4  11  22  38  63  87 120 164 206 254 301 357
#     4  11  23  39  63  93 119 154 203 248 311 363
#     4  11  22  38  59  85 123 161 206 253 302 350
#     4  11  21  39  64  90 120 154 204 254 303 365
#     4  11  23  39  57  89 123 164 206 256 299 354
#     4  11  24  42  62  91 121 160 205 256 299 370
#     4  11  24  41  64  89 123 159 208 253 305 361
#     4  11  22  38  62  86 122 163 209 249 305 351
#
# _framework density 19.067066000000001
#
# number of rings (size 3 to 8) (size 9 to 14) (size 15 to 20)
#    0.000    1.000    6.250    1.125    1.750    1.000 
#    2.250    0.000    0.000    0.500    0.000    0.000 
#    0.000    0.000    0.000    0.000    0.000    0.000 
#
# Total GULP energy -267834.223430 kJ/mol
# GULP energy per Si atom -5579.879655 kJ/mol
# Density = 1.902367 g / cm^3
# Si number density = 19.067066 Si / 1000 Ang^3
#
#
#
# Elastic Constant Matrix: (Units=GPa)
#
#
# Indices 1 2 3 4 5 6 
#
# 1 73.7338 25.4480 3.3106 0.9933 -4.6621 0.0210
# 2 25.4480 73.7440 3.2903 -1.0005 4.5824 0.0114
# 3 3.3106 3.2903 64.4076 -0.0422 -0.1383 0.0159
# 4 0.9933 -1.0005 -0.0422 19.3699 -0.0152 4.6215
# 5 -4.6621 4.5824 -0.1383 -0.0152 19.3139 1.0050
# 6 0.0210 0.0114 0.0159 4.6215 1.0050 24.1371
#
#
#
# Elastic Compliance Matrix: (Units=1/GPa)
#
#
# Indices 1 2 3 4 5 6 
#
# 1 0.015938 -0.005817 -0.000512 -0.001111 0.005224 -0.000016
# 2 -0.005817 0.015929 -0.000525 0.001116 -0.005186 0.000000
# 3 -0.000512 -0.000525 0.015580 0.000038 0.000114 -0.000022
# 4 -0.001111 0.001116 0.000038 0.054219 0.000050 -0.010383
# 5 0.005224 -0.005186 0.000114 0.000050 0.054387 -0.002276
# 6 -0.000016 0.000000 -0.000022 -0.010383 -0.002276 0.043513
#
#
# Mechanical properties :
#
#
# Convention : Reuss Voigt Hill
#
# Bulk Modulus (GPa) = 29.63923 30.66479 30.15201
# Shear Modulus (GPa) = 22.26993 24.55328 23.41161
#
# Velocity S-wave (km/s) = 3.42128 3.59239 3.50788
# Velocity P-wave (km/s) = 5.58438 5.77274 5.67934
#
# Compressibility (1/GPa) = 0.03373907
#
# Stress axis : x y z
#
# Youngs Moduli (GPa) = 62.74257 62.78018 64.18687
#
# Poissons Ratio (x) = 0.36518 0.03284
# Poissons Ratio (y) = 0.36497 0.03371
# Poissons Ratio (z) = 0.03210 0.03297
#
# Static dielectric constant tensor:
#      x y z
#    x 1.686350 0.000000 -0.000040 
#    y 0.000000 1.686370 0.000000 
#    z -0.000040 0.000000 1.694240 
# 
# From -- ./inp_files/1144.got.cif
#   From: 2010.05.17/outbox.cif.g08.bks.cpg/sg148_1_cif.got.tgz:1144.got - 2010.05.20 13:50:20.
