data_PCOD9575483
_publ_section_title
;
Structure prediction by ZEFSAII (Michael W. Deem and Ramdas Pophale) SiO2 
 PCOD9575483
Probable space group: P 3 2 1
;
_chemical_formula_sum "Si O2"
_cell_formula_units_Z 19
_cell_length_a 11.910264
_cell_length_b 11.910264
_cell_length_c 7.589565
_cell_angle_alpha 90.000000
_cell_angle_beta 90.000000
_cell_angle_gamma 120.000000
_cell_volume 932.374297
_symmetry_space_group_name_H-M "P 3 2 1"
_symmetry_group_IT_number 150
_symmetry_cell_setting 'hexagonal'
loop_
_space_group_symop_operation_xyz
x,y,z
-y,x-y,z
-x+y,-x,z
x-y,-y,-z
-x,-x+y,-z
y,x,-z
loop_
_atom_site_type_symbol
_atom_site_label
_atom_site_fract_x
_atom_site_fract_y
_atom_site_fract_z
Si Si1 0.666668 0.333334 0.861144
Si Si2 0.505821 0.453711 0.323079
Si Si3 0.618092 0.879420 0.124814
Si Si4 0.647280 0.647280 0.000000
Si Si5 0.333334 0.666668 0.567207
O O1 0.680893 0.213864 0.922973
O O2 0.666668 0.333334 0.646331
O O3 0.539191 0.539191 0.500000
O O4 0.351239 0.395442 0.293352
O O5 0.586355 0.542155 0.158271
O O6 0.548561 0.348376 0.360443
O O7 0.668400 0.778361 0.095113
O O8 0.699021 0.000000 0.000000
#
# Coordination Sequence:
#
# PCOD9575483 Si02
#       5
#     2   6   6   3   2
#     4  12  21  43  65 109 136 164 229 283 341 406
#     4  12  24  40  69 101 135 177 218 285 335 399
#     4  12  23  43  68  96 136 179 224 277 333 401
#     4  12  26  44  64  98 140 178 226 278 336 402
#     4  12  24  43  71 103 136 176 229 280 350 385
#
# _framework density 20.378081999999999
#
# number of rings (size 3 to 8) (size 9 to 14) (size 15 to 20)
#    0.000    0.000    7.895    1.895    0.000    2.526 
#    0.947    0.000    0.000    0.000    0.000    2.211 
#    0.000    0.000    0.000    0.000    0.000    0.000 
#
# Total GULP energy -105865.584875 kJ/mol
# GULP energy per Si atom -5571.872888 kJ/mol
# Density = 2.033170 g / cm^3
# Si number density = 20.378082 Si / 1000 Ang^3
#
#
#
# Elastic Constant Matrix: (Units=GPa)
#
#
# Indices 1 2 3 4 5 6 
#
# 1 113.2360 50.4057 26.7772 7.0434 0.0000 0.0000
# 2 50.4057 113.2374 26.7789 -7.0425 0.0000 0.0000
# 3 26.7772 26.7789 107.1899 0.0005 0.0000 0.0000
# 4 7.0434 -7.0425 0.0005 23.5842 0.0000 0.0000
# 5 0.0000 0.0000 0.0000 0.0000 23.5842 7.0427
# 6 0.0000 0.0000 0.0000 0.0000 7.0427 31.4161
#
#
#
# Elastic Compliance Matrix: (Units=1/GPa)
#
#
# Indices 1 2 3 4 5 6 
#
# 1 0.011856 -0.005201 -0.001662 -0.005094 0.000000 0.000000
# 2 -0.005201 0.011856 -0.001663 0.005094 0.000000 0.000000
# 3 -0.001662 -0.001663 0.010160 0.000000 0.000000 0.000000
# 4 -0.005094 0.005094 0.000000 0.045444 0.000000 0.000000
# 5 0.000000 0.000000 0.000000 0.000000 0.045443 -0.010187
# 6 0.000000 0.000000 0.000000 0.000000 -0.010187 0.034115
#
#
# Mechanical properties :
#
#
# Convention : Reuss Voigt Hill
#
# Bulk Modulus (GPa) = 59.45403 60.17635 59.81519
# Shear Modulus (GPa) = 27.54308 31.03033 29.28670
#
# Velocity S-wave (km/s) = 3.68040 3.90645 3.79511
# Velocity P-wave (km/s) = 6.87745 7.06691 6.97282
#
# Compressibility (1/GPa) = 0.01681972
#
# Stress axis : x y z
#
# Youngs Moduli (GPa) = 84.34254 84.34326 98.42612
#
# Poissons Ratio (x) = 0.43870 0.16362
# Poissons Ratio (y) = 0.43870 0.16365
# Poissons Ratio (z) = 0.14021 0.14024
#
# Static dielectric constant tensor:
#      x y z
#    x 1.756960 0.000000 0.000000 
#    y 0.000000 1.756960 0.000000 
#    z 0.000000 0.000000 1.827600 
# 
# From -- ./inp_files/432.got.cif
#   From: 2010.05.17/outbox.cif.g08.bks.cpg/sg150_cif.got.tgz:432.got - 2010.05.20 13:53:18.
