data_PCOD9575602
_publ_section_title
;
Structure prediction by ZEFSAII (Michael W. Deem and Ramdas Pophale) SiO2 
 PCOD9575602
Probable space group: P 31 1 2
;
_chemical_formula_sum "Si O2"
_cell_formula_units_Z 42
_cell_length_a 14.872330
_cell_length_b 14.872330
_cell_length_c 11.083554
_cell_angle_alpha 90.000000
_cell_angle_beta 90.000000
_cell_angle_gamma 120.000000
_cell_volume 2123.086555
_symmetry_space_group_name_H-M "P 31 1 2"
_symmetry_group_IT_number 151
_symmetry_cell_setting 'hexagonal'
loop_
_space_group_symop_operation_xyz
x,y,z
-y,x-y,1/3+z
-x+y,-x,2/3+z
-y,-x,2/3-z
-x+y,y,1/3-z
x,x-y,-z
loop_
_atom_site_type_symbol
_atom_site_label
_atom_site_fract_x
_atom_site_fract_y
_atom_site_fract_z
Si Si1 0.869039 0.041162 0.501386
Si Si2 0.783247 0.747844 0.238082
Si Si3 0.079177 0.830954 0.466664
Si Si4 0.072271 0.716612 0.806277
Si Si5 0.320726 0.755776 0.471129
Si Si6 0.401355 0.426953 0.394337
Si Si7 0.092544 0.640665 0.556764
O O1 0.827308 0.054691 0.628807
O O2 0.977590 0.145281 0.487522
O O3 0.889684 0.944842 0.500000
O O4 0.763183 0.005748 0.428256
O O5 0.884552 0.769104 0.166667
O O6 0.740179 0.826026 0.213056
O O7 0.683480 0.636396 0.209749
O O8 0.118697 0.881304 0.333334
O O9 0.064150 0.716478 0.481240
O O10 0.179680 0.820321 0.833334
O O11 0.068395 0.644236 0.696994
O O12 0.054741 0.663738 0.936271
O O13 0.273265 0.726736 0.333334
O O14 0.377741 0.688871 0.500000
O O15 0.377635 0.874721 0.520744
O O16 0.217281 0.700143 0.551588
O O17 0.513579 0.486422 0.333334
O O18 0.054882 0.527441 0.500000
#
# Coordination Sequence:
#
# PCOD9575602 Si02
#       7
#     6   6   6   6   6   6   6
#     4  10  22  36  60  89 124 168 211 256 320 397
#     4  11  22  39  56  89 126 163 206 265 327 381
#     4  12  22  36  60  89 127 165 210 265 320 383
#     4  10  20  42  58  81 121 165 214 260 313 391
#     4  11  23  37  53  82 119 162 214 254 307 370
#     4  11  24  37  62  85 117 165 211 259 318 380
#     4  11  24  38  56  82 123 167 215 258 310 372
#
# _framework density 19.782520000000002
#
# number of rings (size 3 to 8) (size 9 to 14) (size 15 to 20)
#    0.000    1.143    4.286    3.000    4.000    2.286 
#    0.000    0.000    0.000    0.000    0.000    4.000 
#    0.000    0.000    0.000    0.000    0.000    0.000 
#
# Total GULP energy -233921.525486 kJ/mol
# GULP energy per Si atom -5569.560131 kJ/mol
# Density = 1.973749 g / cm^3
# Si number density = 19.782520 Si / 1000 Ang^3
#
#
#
# Elastic Constant Matrix: (Units=GPa)
#
#
# Indices 1 2 3 4 5 6 
#
# 1 93.3166 34.3794 16.6182 -0.0002 3.8472 0.0000
# 2 34.3794 93.3166 16.6182 0.0002 -3.8472 0.0000
# 3 16.6182 16.6182 96.1544 0.0000 0.0000 0.0000
# 4 -0.0002 0.0002 0.0000 17.6748 0.0000 -3.8472
# 5 3.8472 -3.8472 0.0000 0.0000 17.6748 -0.0002
# 6 0.0000 0.0000 0.0000 -3.8472 -0.0002 29.4686
#
#
#
# Elastic Compliance Matrix: (Units=1/GPa)
#
#
# Indices 1 2 3 4 5 6 
#
# 1 0.012832 -0.004632 -0.001417 0.000000 -0.003801 0.000000
# 2 -0.004632 0.012832 -0.001417 0.000000 0.003801 0.000000
# 3 -0.001417 -0.001417 0.010890 0.000000 0.000000 0.000000
# 4 0.000000 0.000000 0.000000 0.058233 0.000000 0.007602
# 5 -0.003801 0.003801 0.000000 0.000000 0.058233 0.000000
# 6 0.000000 0.000000 0.000000 0.007602 0.000000 0.034927
#
#
# Mechanical properties :
#
#
# Convention : Reuss Voigt Hill
#
# Bulk Modulus (GPa) = 46.25135 46.44656 46.34896
# Shear Modulus (GPa) = 23.79993 27.30841 25.55417
#
# Velocity S-wave (km/s) = 3.47231 3.71945 3.59800
# Velocity P-wave (km/s) = 6.28542 6.47883 6.38286
#
# Compressibility (1/GPa) = 0.02162099
#
# Stress axis : x y z
#
# Youngs Moduli (GPa) = 77.93186 77.93186 91.82905
#
# Poissons Ratio (x) = 0.36096 0.13014
# Poissons Ratio (y) = 0.36096 0.13014
# Poissons Ratio (z) = 0.11044 0.11044
#
# Static dielectric constant tensor:
#      x y z
#    x 1.791760 0.000000 0.000000 
#    y 0.000000 1.791760 0.000000 
#    z 0.000000 0.000000 1.838000 
# 
# From -- ./inp_files/2565.got.cif
#   From: 2010.05.17/outbox.cif.g08.bks.cpg/sg151_2_cif.got.tgz:2565.got - 2010.05.20 10:33:20.
