data_PCOD9575605
_publ_section_title
;
Structure prediction by ZEFSAII (Michael W. Deem and Ramdas Pophale) SiO2 
 PCOD9575605
Probable space group: P 31 1 2
;
_chemical_formula_sum "Si O2"
_cell_formula_units_Z 24
_cell_length_a 7.139923
_cell_length_b 7.139923
_cell_length_c 23.358978
_cell_angle_alpha 90.000000
_cell_angle_beta 90.000000
_cell_angle_gamma 120.000000
_cell_volume 1031.267962
_symmetry_space_group_name_H-M "P 31 1 2"
_symmetry_group_IT_number 151
_symmetry_cell_setting 'hexagonal'
loop_
_space_group_symop_operation_xyz
x,y,z
-y,x-y,1/3+z
-x+y,-x,2/3+z
-y,-x,2/3-z
-x+y,y,1/3-z
x,x-y,-z
loop_
_atom_site_type_symbol
_atom_site_label
_atom_site_fract_x
_atom_site_fract_y
_atom_site_fract_z
Si Si1 0.641092 0.872023 0.244418
Si Si2 0.275730 0.963009 0.217360
Si Si3 0.767492 0.534984 0.666667
Si Si4 0.875277 0.227228 0.728199
Si Si5 0.682459 0.317542 0.833334
O O1 0.673606 0.688828 0.273669
O O2 0.771955 0.091701 0.280685
O O3 0.401913 0.836089 0.235538
O O4 0.737193 0.206970 0.128840
O O5 0.175813 0.900999 0.153791
O O6 0.085661 0.883531 0.263248
O O7 0.866576 0.380186 0.680148
O O8 0.854474 0.339499 0.786448
#
# Coordination Sequence:
#
# PCOD9575605 Si02
#       5
#     6   6   3   6   3
#     4  10  23  43  66 102 127 179 231 269 345 406
#     4  10  21  44  71  98 127 172 245 269 317 434
#     4  12  26  42  64 104 146 170 222 290 350 404
#     4  12  23  45  71  94 140 180 219 290 340 394
#     4  10  20  44  68 100 126 174 234 272 334 410
#
# _framework density 23.272321000000002
#
# number of rings (size 3 to 8) (size 9 to 14) (size 15 to 20)
#    0.000    1.500    7.500    0.000    0.000    5.000 
#    4.500    2.500    0.000    0.000    0.000    0.000 
#    0.000    0.000    0.000    0.000    0.000    0.000 
#
# Total GULP energy -133827.430944 kJ/mol
# GULP energy per Si atom -5576.142956 kJ/mol
# Density = 2.321935 g / cm^3
# Si number density = 23.272321 Si / 1000 Ang^3
#
#
#
# Elastic Constant Matrix: (Units=GPa)
#
#
# Indices 1 2 3 4 5 6 
#
# 1 99.3074 27.2747 32.0013 0.0000 5.1243 0.0000
# 2 27.2747 99.3074 32.0013 0.0000 -5.1243 0.0000
# 3 32.0013 32.0013 78.1302 0.0000 0.0000 0.0000
# 4 0.0000 0.0000 0.0000 31.1561 0.0000 -5.1243
# 5 5.1243 -5.1243 0.0000 0.0000 31.1561 0.0000
# 6 0.0000 0.0000 0.0000 -5.1243 0.0000 36.0163
#
#
#
# Elastic Compliance Matrix: (Units=1/GPa)
#
#
# Indices 1 2 3 4 5 6 
#
# 1 0.012089 -0.002126 -0.004081 0.000000 -0.002338 0.000000
# 2 -0.002126 0.012089 -0.004081 0.000000 0.002338 0.000000
# 3 -0.004081 -0.004081 0.016142 0.000000 0.000000 0.000000
# 4 0.000000 0.000000 0.000000 0.032865 0.000000 0.004676
# 5 -0.002338 0.002338 0.000000 0.000000 0.032865 0.000000
# 6 0.000000 0.000000 0.000000 0.004676 0.000000 0.028430
#
#
# Mechanical properties :
#
#
# Convention : Reuss Voigt Hill
#
# Bulk Modulus (GPa) = 50.64490 51.03329 50.83910
# Shear Modulus (GPa) = 30.93306 32.03023 31.48164
#
# Velocity S-wave (km/s) = 3.64974 3.71391 3.68197
# Velocity P-wave (km/s) = 6.29047 6.35352 6.32207
#
# Compressibility (1/GPa) = 0.01974532
#
# Stress axis : x y z
#
# Youngs Moduli (GPa) = 82.71765 82.71765 61.94971
#
# Poissons Ratio (x) = 0.17585 0.25281
# Poissons Ratio (y) = 0.17585 0.25281
# Poissons Ratio (z) = 0.33756 0.33756
#
# Static dielectric constant tensor:
#      x y z
#    x 1.888080 0.000000 0.000000 
#    y 0.000000 1.888080 0.000000 
#    z 0.000000 0.000000 1.940440 
# 
# From -- ./inp_files/4133.got.cif
#   From: 2010.05.17/outbox.cif.g08.bks.cpg/sg151_3_cif.got.tgz:4133.got - 2010.05.20 10:33:20.
