data_PCOD9575755
_publ_section_title
;
Structure prediction by ZEFSAII (Michael W. Deem and Ramdas Pophale) SiO2 
 PCOD9575755
Probable space group: P 31 2 1
;
_chemical_formula_sum "Si O2"
_cell_formula_units_Z 30
_cell_length_a 16.599941
_cell_length_b 16.599941
_cell_length_c 6.473409
_cell_angle_alpha 90.000000
_cell_angle_beta 90.000000
_cell_angle_gamma 120.000000
_cell_volume 1544.816032
_symmetry_space_group_name_H-M "P 31 2 1"
_symmetry_group_IT_number 152
_symmetry_cell_setting 'hexagonal'
loop_
_space_group_symop_operation_xyz
x,y,z
-y,x-y,1/3+z
-x+y,-x,2/3+z
x-y,-y,2/3-z
-x,-x+y,1/3-z
y,x,-z
loop_
_atom_site_type_symbol
_atom_site_label
_atom_site_fract_x
_atom_site_fract_y
_atom_site_fract_z
Si Si1 0.494196 0.115883 0.154677
Si Si2 0.240430 0.903869 0.220588
Si Si3 0.332055 0.000000 0.833334
Si Si4 0.096586 0.700017 0.288985
Si Si5 0.604427 0.356723 0.523916
Si Si6 0.579767 0.000000 0.333334
O O1 0.438199 0.118766 0.355926
O O2 0.552020 0.065460 0.205814
O O3 0.561492 0.208436 0.029884
O O4 0.414020 0.053887 0.994358
O O5 0.145960 0.811071 0.272391
O O6 0.263363 0.000000 0.333334
O O7 0.249554 0.926578 0.977619
O O8 0.169152 0.669688 0.200846
O O9 0.067453 0.664298 0.521541
O O10 0.000000 0.648850 0.166667
O O11 0.610605 0.275610 0.647951
#
# Coordination Sequence:
#
# PCOD9575755 Si02
#       6
#     6   6   3   6   6   3
#     4  11  21  37  59  91 125 180 217 275 328 405
#     4  10  23  40  66  92 124 171 233 278 338 414
#     4  10  18  38  66  88 126 164 234 272 336 390
#     4  12  27  43  64  97 135 178 223 289 349 411
#     4  12  27  40  62  92 137 185 237 279 339 418
#     4  12  24  40  62  90 134 168 216 276 348 400
#
# _framework density 19.419785999999998
#
# number of rings (size 3 to 8) (size 9 to 14) (size 15 to 20)
#    0.000    0.800    5.000    3.600    8.400    3.200 
#    0.000    0.000    0.000    0.000    5.200    0.000 
#    0.000    0.000    0.000    0.000    0.000    0.000 
#
# Total GULP energy -167554.414184 kJ/mol
# GULP energy per Si atom -5585.147139 kJ/mol
# Density = 1.937559 g / cm^3
# Si number density = 19.419786 Si / 1000 Ang^3
#
#
#
# Elastic Constant Matrix: (Units=GPa)
#
#
# Indices 1 2 3 4 5 6 
#
# 1 107.6858 45.8334 42.8154 -0.1603 -0.0001 0.0000
# 2 45.8334 107.6858 42.8154 0.1603 0.0001 0.0000
# 3 42.8154 42.8154 113.2290 0.0000 0.0000 0.0000
# 4 -0.1603 0.1603 0.0000 32.1396 0.0000 0.0001
# 5 -0.0001 0.0001 0.0000 0.0000 32.1396 -0.1603
# 6 0.0000 0.0000 0.0000 0.0001 -0.1603 30.9262
#
#
#
# Elastic Compliance Matrix: (Units=1/GPa)
#
#
# Indices 1 2 3 4 5 6 
#
# 1 0.012211 -0.003957 -0.003121 0.000081 0.000000 0.000000
# 2 -0.003957 0.012211 -0.003121 -0.000081 0.000000 0.000000
# 3 -0.003121 -0.003121 0.011192 0.000000 0.000000 0.000000
# 4 0.000081 -0.000081 0.000000 0.031115 0.000000 0.000000
# 5 0.000000 0.000000 0.000000 0.000000 0.031115 0.000161
# 6 0.000000 0.000000 0.000000 0.000000 0.000161 0.032336
#
#
# Mechanical properties :
#
#
# Convention : Reuss Voigt Hill
#
# Bulk Modulus (GPa) = 65.71866 65.72545 65.72205
# Shear Modulus (GPa) = 32.12293 32.18352 32.15323
#
# Velocity S-wave (km/s) = 4.07152 4.07536 4.07344
# Velocity P-wave (km/s) = 7.48449 7.48751 7.48600
#
# Compressibility (1/GPa) = 0.01521638
#
# Stress axis : x y z
#
# Youngs Moduli (GPa) = 81.89044 81.89044 89.34726
#
# Poissons Ratio (x) = 0.32400 0.27889
# Poissons Ratio (y) = 0.32400 0.27889
# Poissons Ratio (z) = 0.25562 0.25562
#
# Static dielectric constant tensor:
#      x y z
#    x 1.702900 0.000000 0.000000 
#    y 0.000000 1.702900 0.000000 
#    z 0.000000 0.000000 1.695800 
# 
# From -- ./inp_files/367.got.cif
#   From: 2010.05.17/outbox.cif.g08.bks.cpg/sg152_1_cif.got.tgz:367.got - 2010.05.20 10:36:06.
