data_PCOD9575336
_publ_section_title
;
Structure prediction by ZEFSAII (Michael W. Deem and Ramdas Pophale) SiO2 
 PCOD9575336
Probable space group: R -3
;
_chemical_formula_sum "Si O2"
_cell_formula_units_Z 36
_cell_length_a 24.000000
_cell_length_b 24.000000
_cell_length_c 12.000000
_cell_angle_alpha 90.000000
_cell_angle_beta 90.000000
_cell_angle_gamma 120.000000
_cell_volume 5985.967591
_symmetry_space_group_name_H-M "R -3"
_symmetry_group_IT_number 148
_symmetry_cell_setting 'hexagonal'
loop_
_space_group_symop_operation_xyz
x,y,z
-y,x-y,z
-x+y,-x,z
-x,-y,-z
y,-x+y,-z
x-y,x,-z
2/3+x,1/3+y,1/3+z
2/3-y,1/3+x-y,1/3+z
2/3-x+y,1/3-x,1/3+z
2/3-x,1/3-y,1/3-z
2/3+y,1/3-x+y,1/3-z
2/3+x-y,1/3+x,1/3-z
1/3+x,2/3+y,2/3+z
1/3-y,2/3+x-y,2/3+z
1/3-x+y,2/3-x,2/3+z
1/3-x,2/3-y,2/3-z
1/3+y,2/3-x+y,2/3-z
1/3+x-y,2/3+x,2/3-z
loop_
_atom_site_type_symbol
_atom_site_label
_atom_site_fract_x
_atom_site_fract_y
_atom_site_fract_z
Si Si1 0.638114 0.720760 0.471478
Si Si2 0.326776 0.781889 0.224989
Si Si3 0.493320 0.500069 0.306522
Si Si4 0.376636 0.438407 0.123528
Si Si5 0.170056 0.739456 0.825555
Si Si6 0.062350 0.979349 0.806056
O O1 0.648575 0.778492 0.556076
O O2 0.634415 0.731828 0.336605
O O3 0.701249 0.714453 0.500671
O O4 0.568470 0.657027 0.497311
O O5 0.386165 0.792817 0.146565
O O6 0.316302 0.843847 0.222874
O O7 0.345695 0.764551 0.344258
O O8 0.432424 0.466482 0.219946
O O9 0.486781 0.549818 0.394689
O O10 0.502009 0.449634 0.387583
O O11 0.224193 0.715275 0.813164
O O12 0.983993 0.933740 0.829640
#
# Coordination Sequence:
#
# PCOD9575336 Si02
#       6
#    18  18  18  18  18  18
#     4  12  23  47  70 102 140 178 235 302 348 429
#     4  12  20  35  62 103 144 177 220 288 363 426
#     4  11  26  45  72 101 138 195 236 291 362 423
#     4  12  25  42  72 101 138 178 245 299 357 415
#     4  11  24  50  68 100 149 188 234 288 362 436
#     4  10  20  38  67 104 143 182 225 282 356 430
#
# _framework density 6.0140650000000004
#
# number of rings (size 3 to 8) (size 9 to 14) (size 15 to 20)
#    0.333    0.333    5.000    3.667    0.000    0.000 
#    3.000    0.000    0.000    1.000    0.000    0.000 
#    0.000    0.000    0.000    0.000    0.000    0.000 
#
# Total GULP energy -200483.834183 kJ/mol
# GULP energy per Si atom -5568.995394 kJ/mol
# Density = 0.600038 g / cm^3
# Si number density = 6.014065 Si / 1000 Ang^3
#
#
#
# Elastic Constant Matrix: (Units=GPa)
#
#
# Indices 1 2 3 4 5 6 
#
# 1 161.1147 65.0594 53.0295 0.3088 1.5490 0.0000
# 2 65.0594 161.1147 53.0296 -0.3088 -1.5490 0.0000
# 3 53.0295 53.0296 129.8932 0.0000 -0.0001 0.0000
# 4 0.3088 -0.3088 0.0000 43.8035 0.0000 -1.5490
# 5 1.5490 -1.5490 -0.0001 0.0000 43.8035 0.3088
# 6 0.0000 0.0000 0.0000 -1.5490 0.3088 48.0276
#
#
#
# Elastic Compliance Matrix: (Units=1/GPa)
#
#
# Indices 1 2 3 4 5 6 
#
# 1 0.007946 -0.002477 -0.002232 -0.000073 -0.000369 0.000000
# 2 -0.002477 0.007946 -0.002232 0.000073 0.000369 0.000000
# 3 -0.002232 -0.002232 0.009521 0.000000 0.000000 0.000000
# 4 -0.000073 0.000073 0.000000 0.022856 0.000000 0.000737
# 5 -0.000369 0.000369 0.000000 0.000000 0.022856 -0.000147
# 6 0.000000 0.000000 0.000000 0.000737 -0.000147 0.020846
#
#
# Mechanical properties :
#
#
# Convention : Reuss Voigt Hill
#
# Bulk Modulus (GPa) = 86.74414 88.26219 87.50316
# Shear Modulus (GPa) = 45.57940 45.86052 45.71996
#
# Velocity S-wave (km/s) = 5.03165 5.04714 5.03940
# Velocity P-wave (km/s) = 9.05205 9.10994 9.08104
#
# Compressibility (1/GPa) = 0.01152816
#
# Stress axis : x y z
#
# Youngs Moduli (GPa) = 125.85542 125.85540 105.02624
#
# Poissons Ratio (x) = 0.31180 0.23446
# Poissons Ratio (y) = 0.31180 0.23446
# Poissons Ratio (z) = 0.28096 0.28096
#
# Static dielectric constant tensor:
#      x y z
#    x 1.642420 0.000000 0.000000 
#    y 0.000000 1.642420 0.000000 
#    z 0.000000 0.000000 1.641940 
# 
# From -- ./inp_files/1526.got.cif
#   From: 2010.05.17/outbox.ucp.g08.bks.cvg/sg148_1_cif.got.tgz:1526.got - 2010.06.11 11:44:40.
