data_PCOD9575589
_publ_section_title
;
Structure prediction by ZEFSAII (Michael W. Deem and Ramdas Pophale) SiO2 
 PCOD9575589
Probable space group: P 31 1 2
;
_chemical_formula_sum "Si O2"
_cell_formula_units_Z 18
_cell_length_a 7.749128
_cell_length_b 7.749128
_cell_length_c 13.204740
_cell_angle_alpha 90.000000
_cell_angle_beta 90.000000
_cell_angle_gamma 120.000000
_cell_volume 686.698590
_symmetry_space_group_name_H-M "P 31 1 2"
_symmetry_group_IT_number 151
_symmetry_cell_setting 'hexagonal'
loop_
_space_group_symop_operation_xyz
x,y,z
-y,x-y,1/3+z
-x+y,-x,2/3+z
-y,-x,2/3-z
-x+y,y,1/3-z
x,x-y,-z
loop_
_atom_site_type_symbol
_atom_site_label
_atom_site_fract_x
_atom_site_fract_y
_atom_site_fract_z
Si Si1 0.729285 0.989933 0.170582
Si Si2 0.673872 0.326129 0.833334
Si Si3 0.497570 0.502431 0.333334
Si Si4 0.017967 0.982033 0.333334
Si Si5 0.305584 0.611168 0.166667
O O1 0.719045 0.179641 0.212585
O O2 0.857119 0.952521 0.251335
O O3 0.536038 0.776659 0.147237
O O4 0.833934 0.052650 0.062171
O O5 0.633972 0.153937 0.753835
O O6 0.313827 0.483738 0.261207
#
# Coordination Sequence:
#
# PCOD9575589 Si02
#       5
#     6   3   3   3   3
#     4  10  22  42  70 106 150 194 256 316 398 490
#     4  11  26  46  72 109 154 210 268 339 408 494
#     4  12  28  48  76 110 158 208 274 342 418 488
#     4  10  20  38  72 110 150 202 250 320 398 490
#     4  11  26  46  72 109 154 210 268 339 408 494
#
# _framework density 26.212371000000001
#
# number of rings (size 3 to 8) (size 9 to 14) (size 15 to 20)
#    0.000    1.333    0.000    4.000    0.000   16.000 
#    0.000    0.000    0.000    0.000    0.000    0.000 
#    0.000    0.000    0.000    0.000    0.000    0.000 
#
# Total GULP energy -100404.703608 kJ/mol
# GULP energy per Si atom -5578.039089 kJ/mol
# Density = 2.615271 g / cm^3
# Si number density = 26.212371 Si / 1000 Ang^3
#
#
#
# Elastic Constant Matrix: (Units=GPa)
#
#
# Indices 1 2 3 4 5 6 
#
# 1 127.2340 45.7901 53.5072 0.0002 5.6606 0.0000
# 2 45.7901 127.2340 53.5072 -0.0002 -5.6606 0.0000
# 3 53.5072 53.5072 136.7530 0.0000 0.0000 0.0000
# 4 0.0002 -0.0002 0.0000 38.9040 0.0000 -5.6606
# 5 5.6606 -5.6606 0.0000 0.0000 38.9040 0.0002
# 6 0.0000 0.0000 0.0000 -5.6606 0.0002 40.7220
#
#
#
# Elastic Compliance Matrix: (Units=1/GPa)
#
#
# Indices 1 2 3 4 5 6 
#
# 1 0.010078 -0.002454 -0.002983 0.000000 -0.001823 0.000000
# 2 -0.002454 0.010078 -0.002983 0.000000 0.001823 0.000000
# 3 -0.002983 -0.002983 0.009647 0.000000 0.000000 0.000000
# 4 0.000000 0.000000 0.000000 0.026235 0.000000 0.003647
# 5 -0.001823 0.001823 0.000000 0.000000 0.026235 0.000000
# 6 0.000000 0.000000 0.000000 0.003647 0.000000 0.025064
#
#
# Mechanical properties :
#
#
# Convention : Reuss Voigt Hill
#
# Bulk Modulus (GPa) = 77.14162 77.42557 77.28360
# Shear Modulus (GPa) = 38.91094 39.60042 39.25568
#
# Velocity S-wave (km/s) = 3.85704 3.89106 3.87408
# Velocity P-wave (km/s) = 7.02346 7.05613 7.03982
#
# Compressibility (1/GPa) = 0.01296317
#
# Stress axis : x y z
#
# Youngs Moduli (GPa) = 99.22336 99.22336 103.65910
#
# Poissons Ratio (x) = 0.24345 0.30925
# Poissons Ratio (y) = 0.24345 0.30925
# Poissons Ratio (z) = 0.29601 0.29601
#
# Static dielectric constant tensor:
#      x y z
#    x 2.212310 0.000000 0.000000 
#    y 0.000000 2.212310 0.000000 
#    z 0.000000 0.000000 2.227190 
# 
# From -- ./inp_files/2227.got.cif
#   From: 2010.05.17/outbox.cif.g08.bks.cpg/sg151_2_cif.got.tgz:2227.got - 2010.05.20 10:33:20.
