data_PCOD9575796
_publ_section_title
;
Structure prediction by ZEFSAII (Michael W. Deem and Ramdas Pophale) SiO2 
 PCOD9575796
Probable space group: P 31 2 1
;
_chemical_formula_sum "Si O2"
_cell_formula_units_Z 42
_cell_length_a 14.040693
_cell_length_b 14.040693
_cell_length_c 11.110230
_cell_angle_alpha 90.000000
_cell_angle_beta 90.000000
_cell_angle_gamma 120.000000
_cell_volume 1896.840302
_symmetry_space_group_name_H-M "P 31 2 1"
_symmetry_group_IT_number 152
_symmetry_cell_setting 'hexagonal'
loop_
_space_group_symop_operation_xyz
x,y,z
-y,x-y,1/3+z
-x+y,-x,2/3+z
x-y,-y,2/3-z
-x,-x+y,1/3-z
y,x,-z
loop_
_atom_site_type_symbol
_atom_site_label
_atom_site_fract_x
_atom_site_fract_y
_atom_site_fract_z
Si Si1 0.690857 0.690857 0.000000
Si Si2 0.523225 0.574537 0.322935
Si Si3 0.026470 0.641810 0.443076
Si Si4 0.220144 0.974795 0.590721
Si Si5 0.521728 0.759861 0.963055
Si Si6 0.000000 0.766197 0.666667
Si Si7 0.628736 0.845159 0.701421
Si Si8 0.357011 0.812161 0.884217
O O1 0.769485 0.752558 0.886609
O O2 0.571802 0.681484 0.988843
O O3 0.459218 0.490527 0.214868
O O4 0.631116 0.685516 0.288426
O O5 0.457942 0.613615 0.410922
O O6 0.567170 0.500934 0.390458
O O7 0.966083 0.654807 0.326528
O O8 0.154721 0.709729 0.407871
O O9 0.997103 0.695072 0.552354
O O10 0.106801 0.884368 0.646437
O O11 0.264546 0.096678 0.641267
O O12 0.580657 0.811562 0.835026
O O13 0.397723 0.730071 0.931859
O O14 0.541122 0.762675 0.602036
#
# Coordination Sequence:
#
# PCOD9575796 Si02
#       8
#     3   6   6   6   6   3   6   6
#     4  10  20  39  63  88 126 180 214 253 330 413
#     4   9  18  35  60  86 116 161 212 266 321 386
#     4  11  21  37  63  93 126 171 219 269 332 389
#     4  10  22  40  63  90 132 173 220 268 335 399
#     4  10  19  37  63  91 126 166 214 263 327 400
#     4  12  24  39  63  96 140 174 218 275 326 413
#     4  10  20  36  66  93 121 171 218 275 330 383
#     4   9  17  33  59  90 115 150 217 273 313 376
#
# _framework density 22.142084000000001
#
# number of rings (size 3 to 8) (size 9 to 14) (size 15 to 20)
#    0.000    2.000    2.857    1.286    0.000    2.286 
#    0.000    2.143    9.429    0.000    0.000    0.000 
#    0.000    0.000    0.000    0.000    0.000    0.000 
#
# Total GULP energy -234218.249926 kJ/mol
# GULP energy per Si atom -5576.624998 kJ/mol
# Density = 2.209169 g / cm^3
# Si number density = 22.142084 Si / 1000 Ang^3
#
#
#
# Elastic Constant Matrix: (Units=GPa)
#
#
# Indices 1 2 3 4 5 6 
#
# 1 84.8725 29.5362 9.6258 -5.0607 0.0000 0.0000
# 2 29.5362 84.8725 9.6258 5.0607 0.0000 0.0000
# 3 9.6258 9.6258 41.1689 0.0000 0.0000 0.0000
# 4 -5.0607 5.0607 0.0000 22.4656 0.0000 0.0000
# 5 0.0000 0.0000 0.0000 0.0000 22.4656 -5.0607
# 6 0.0000 0.0000 0.0000 0.0000 -5.0607 27.6681
#
#
#
# Elastic Compliance Matrix: (Units=1/GPa)
#
#
# Indices 1 2 3 4 5 6 
#
# 1 0.013973 -0.004875 -0.002127 0.004246 0.000000 0.000000
# 2 -0.004875 0.013973 -0.002127 -0.004246 0.000000 0.000000
# 3 -0.002127 -0.002127 0.025285 0.000000 0.000000 0.000000
# 4 0.004246 -0.004246 0.000000 0.046425 0.000000 0.000000
# 5 0.000000 0.000000 0.000000 0.000000 0.046425 0.008492
# 6 0.000000 0.000000 0.000000 0.000000 0.008492 0.037696
#
#
# Mechanical properties :
#
#
# Convention : Reuss Voigt Hill
#
# Bulk Modulus (GPa) = 28.59375 34.27662 31.43518
# Shear Modulus (GPa) = 23.39792 25.32828 24.36310
#
# Velocity S-wave (km/s) = 3.25425 3.38582 3.32069
# Velocity P-wave (km/s) = 5.20211 5.54968 5.37870
#
# Compressibility (1/GPa) = 0.03497268
#
# Stress axis : x y z
#
# Youngs Moduli (GPa) = 71.56535 71.56535 39.54911
#
# Poissons Ratio (x) = 0.34886 0.08414
# Poissons Ratio (y) = 0.34886 0.08414
# Poissons Ratio (z) = 0.15225 0.15225
#
# Static dielectric constant tensor:
#      x y z
#    x 1.835570 0.000000 0.000000 
#    y 0.000000 1.835570 0.000000 
#    z 0.000000 0.000000 1.861500 
# 
# From -- ./inp_files/1844.got.cif
#   From: 2010.05.17/outbox.cif.g08.bks.cpg/sg152_1_cif.got.tgz:1844.got - 2010.05.20 10:36:06.
