data_PCOD9575633
_publ_section_title
;
Structure prediction by ZEFSAII (Michael W. Deem and Ramdas Pophale) SiO2 
 PCOD9575633
Probable space group: P 31 1 2
;
_chemical_formula_sum "Si O2"
_cell_formula_units_Z 30
_cell_length_a 13.838560
_cell_length_b 13.838560
_cell_length_c 8.417735
_cell_angle_alpha 90.000000
_cell_angle_beta 90.000000
_cell_angle_gamma 120.000000
_cell_volume 1396.071571
_symmetry_space_group_name_H-M "P 31 1 2"
_symmetry_group_IT_number 151
_symmetry_cell_setting 'hexagonal'
loop_
_space_group_symop_operation_xyz
x,y,z
-y,x-y,1/3+z
-x+y,-x,2/3+z
-y,-x,2/3-z
-x+y,y,1/3-z
x,x-y,-z
loop_
_atom_site_type_symbol
_atom_site_label
_atom_site_fract_x
_atom_site_fract_y
_atom_site_fract_z
Si Si1 0.828072 0.438314 0.178169
Si Si2 0.915034 0.283211 0.254833
Si Si3 0.503361 0.625821 0.678040
Si Si4 0.943693 0.685450 0.118519
Si Si5 0.532136 0.828564 0.838122
O O1 0.697621 0.395242 0.166667
O O2 0.857898 0.360239 0.278640
O O3 0.886611 0.568716 0.219708
O O4 0.867239 0.433620 0.000000
O O5 0.835532 0.164469 0.333334
O O6 0.037159 0.365776 0.323398
O O7 0.924185 0.264754 0.068593
O O8 0.453248 0.546753 0.833334
O O9 0.490183 0.733346 0.705435
O O10 0.428279 0.548645 0.533636
O O11 0.871795 0.743589 0.166667
O O12 0.074166 0.733344 0.146762
O O13 0.525454 0.762727 0.000000
#
# Coordination Sequence:
#
# PCOD9575633 Si02
#       5
#     6   6   6   6   6
#     4   9  17  30  49  81 119 164 203 250 313 386
#     4  11  23  36  61  96 134 175 218 284 337 414
#     4  10  23  42  64  99 138 186 231 284 343 418
#     4  10  22  40  63  89 130 175 225 274 343 401
#     4  10  22  44  66  98 136 183 234 285 344 413
#
# _framework density 21.488871
#
# number of rings (size 3 to 8) (size 9 to 14) (size 15 to 20)
#    0.000    2.000    2.000    0.600    5.600    3.200 
#   21.600    0.000    0.000    1.200    0.000    0.000 
#    0.000    0.000    0.000    0.000    0.000    0.000 
#
# Total GULP energy -167432.287359 kJ/mol
# GULP energy per Si atom -5581.076245 kJ/mol
# Density = 2.143996 g / cm^3
# Si number density = 21.488871 Si / 1000 Ang^3
#
#
#
# Elastic Constant Matrix: (Units=GPa)
#
#
# Indices 1 2 3 4 5 6 
#
# 1 85.0848 15.3715 22.0937 0.0000 3.0163 0.0000
# 2 15.3715 85.0848 22.0937 0.0000 -3.0163 0.0000
# 3 22.0937 22.0937 50.9207 0.0000 0.0000 0.0000
# 4 0.0000 0.0000 0.0000 17.6719 0.0000 -3.0163
# 5 3.0163 -3.0163 0.0000 0.0000 17.6719 0.0000
# 6 0.0000 0.0000 0.0000 -3.0163 0.0000 34.8566
#
#
#
# Elastic Compliance Matrix: (Units=1/GPa)
#
#
# Indices 1 2 3 4 5 6 
#
# 1 0.013431 -0.001128 -0.005338 0.000000 -0.002485 0.000000
# 2 -0.001128 0.013431 -0.005338 0.000000 0.002485 0.000000
# 3 -0.005338 -0.005338 0.024270 0.000000 0.000000 0.000000
# 4 0.000000 0.000000 0.000000 0.057435 0.000000 0.004970
# 5 -0.002485 0.002485 0.000000 0.000000 0.057435 0.000000
# 6 0.000000 0.000000 0.000000 0.004970 0.000000 0.029119
#
#
# Mechanical properties :
#
#
# Convention : Reuss Voigt Hill
#
# Bulk Modulus (GPa) = 36.33196 37.80090 37.06643
# Shear Modulus (GPa) = 21.93893 24.80884 23.37388
#
# Velocity S-wave (km/s) = 3.19869 3.40148 3.30164
# Velocity P-wave (km/s) = 5.53048 5.74942 5.64101
#
# Compressibility (1/GPa) = 0.02752398
#
# Stress axis : x y z
#
# Youngs Moduli (GPa) = 74.45442 74.45442 41.20240
#
# Poissons Ratio (x) = 0.08402 0.21993
# Poissons Ratio (y) = 0.08402 0.21993
# Poissons Ratio (z) = 0.39743 0.39743
#
# Static dielectric constant tensor:
#      x y z
#    x 1.815010 0.000000 0.000000 
#    y 0.000000 1.815010 0.000000 
#    z 0.000000 0.000000 1.819580 
# 
# From -- ./inp_files/1518.got.cif
#   From: 2010.05.17/outbox.cif.g08.bks.cpg/sg151_1_cif.got.tgz:1518.got - 2010.05.20 10:33:20.
