data_PCOD9575179
_publ_section_title
;
Structure prediction by ZEFSAII (Michael W. Deem and Ramdas Pophale) SiO2 
 PCOD9575179
Probable space group: R -3
;
_chemical_formula_sum "Si O2"
_cell_formula_units_Z 114
_cell_length_a 13.859274
_cell_length_b 13.859274
_cell_length_c 31.686245
_cell_angle_alpha 90.000000
_cell_angle_beta 90.000000
_cell_angle_gamma 120.000000
_cell_volume 5270.870782
_symmetry_space_group_name_H-M "R -3"
_symmetry_group_IT_number 148
_symmetry_cell_setting 'hexagonal'
loop_
_space_group_symop_operation_xyz
x,y,z
-y,x-y,z
-x+y,-x,z
-x,-y,-z
y,-x+y,-z
x-y,x,-z
2/3+x,1/3+y,1/3+z
2/3-y,1/3+x-y,1/3+z
2/3-x+y,1/3-x,1/3+z
2/3-x,1/3-y,1/3-z
2/3+y,1/3-x+y,1/3-z
2/3+x-y,1/3+x,1/3-z
1/3+x,2/3+y,2/3+z
1/3-y,2/3+x-y,2/3+z
1/3-x+y,2/3-x,2/3+z
1/3-x,2/3-y,2/3-z
1/3+y,2/3-x+y,2/3-z
1/3+x-y,2/3+x,2/3-z
loop_
_atom_site_type_symbol
_atom_site_label
_atom_site_fract_x
_atom_site_fract_y
_atom_site_fract_z
Si Si1 0.000000 0.000000 0.550555
Si Si2 0.064416 0.824601 0.657345
Si Si3 0.804569 0.950658 0.387933
Si Si4 0.135085 0.196513 0.112976
Si Si5 0.513258 0.123533 0.498934
Si Si6 0.261166 0.271055 0.749561
Si Si7 0.163811 0.969280 0.027491
O O1 0.903965 0.886329 0.571865
O O2 0.000000 0.000000 0.500000
O O3 0.071117 0.724514 0.634193
O O4 0.954191 0.824480 0.642416
O O5 0.065591 0.805734 0.706978
O O6 0.164372 0.938523 0.638607
O O7 0.679778 0.896430 0.403875
O O8 0.139535 0.105079 0.142891
O O9 0.266046 0.274844 0.099145
O O10 0.067625 0.157982 0.069283
O O11 0.057561 0.233871 0.139286
O O12 0.489939 0.135607 0.547358
O O13 0.500000 0.000000 0.500000
O O14 0.089396 0.889226 0.989540
#
# Coordination Sequence:
#
# PCOD9575179 Si02
#       7
#     6  18  18  18  18  18  18
#     4   9  21  39  66  93 129 183 240 282 342 420
#     4  11  22  43  67 101 137 176 234 292 355 420
#     4  10  22  42  65  98 139 176 229 303 346 415
#     4  11  22  44  67  98 142 178 234 287 339 428
#     4  10  25  44  66  97 141 187 230 284 347 423
#     4  11  23  43  66  99 137 182 233 281 355 419
#     4  12  23  39  70 107 136 180 228 289 361 414
#
# _framework density 21.628304
#
# number of rings (size 3 to 8) (size 9 to 14) (size 15 to 20)
#    0.000    1.263    3.158    2.211    2.211    2.526 
#    5.684    0.000    0.000    0.000    0.000    0.000 
#    0.000    0.000    0.000    0.000    0.000    0.000 
#
# Total GULP energy -211833.652257 kJ/mol
# GULP energy per Si atom -5574.569796 kJ/mol
# Density = 2.157908 g / cm^3
# Si number density = 21.628304 Si / 1000 Ang^3
#
#
#
# Elastic Constant Matrix: (Units=GPa)
#
#
# Indices 1 2 3 4 5 6 
#
# 1 51.2722 -6.4147 42.8617 -1.8714 -9.2412 0.0000
# 2 -6.4147 51.2722 42.8617 1.8714 9.2412 0.0000
# 3 42.8617 42.8617 181.3564 0.0000 0.0000 0.0000
# 4 -1.8714 1.8714 0.0000 28.9053 0.0000 9.2412
# 5 -9.2412 9.2412 0.0000 0.0000 28.9053 -1.8714
# 6 0.0000 0.0000 0.0000 9.2412 -1.8714 28.8435
#
#
#
# Elastic Compliance Matrix: (Units=1/GPa)
#
#
# Indices 1 2 3 4 5 6 
#
# 1 0.030029 0.010625 -0.009608 0.001256 0.006204 0.000000
# 2 0.010625 0.030029 -0.009608 -0.001256 -0.006204 0.000000
# 3 -0.009608 -0.009608 0.010056 0.000000 0.000000 0.000000
# 4 0.001256 -0.001256 0.000000 0.038725 0.000000 -0.012407
# 5 0.006204 -0.006204 0.000000 0.000000 0.038725 0.002513
# 6 0.000000 0.000000 0.000000 -0.012407 0.002513 0.038808
#
#
# Mechanical properties :
#
#
# Convention : Reuss Voigt Hill
#
# Bulk Modulus (GPa) = 18.89238 49.16869 34.03054
# Shear Modulus (GPa) = 22.60415 30.97030 26.78722
#
# Velocity S-wave (km/s) = 3.23634 3.78820 3.52309
# Velocity P-wave (km/s) = 4.76646 6.47431 5.68489
#
# Compressibility (1/GPa) = 0.05293139
#
# Stress axis : x y z
#
# Youngs Moduli (GPa) = 33.30093 33.30093 99.44688
#
# Poissons Ratio (x) = -0.35383 0.95551
# Poissons Ratio (y) = -0.35383 0.95551
# Poissons Ratio (z) = 0.31996 0.31996
#
# Static dielectric constant tensor:
#      x y z
#    x 1.829970 0.000000 0.000000 
#    y 0.000000 1.829970 0.000000 
#    z 0.000000 0.000000 1.775410 
# 
# From -- ./inp_files/4034.got.cif
#   From: 2010.05.17/outbox.cif.g08.bks.cpg/sg148_3_cif.got.tgz:4034.got - 2010.05.20 13:50:20.
