data_PCOD9575766
_publ_section_title
;
Structure prediction by ZEFSAII (Michael W. Deem and Ramdas Pophale) SiO2 
 PCOD9575766
Probable space group: P 31 2 1
;
_chemical_formula_sum "Si O2"
_cell_formula_units_Z 30
_cell_length_a 18.872087
_cell_length_b 18.872087
_cell_length_c 5.036834
_cell_angle_alpha 90.000000
_cell_angle_beta 90.000000
_cell_angle_gamma 120.000000
_cell_volume 1553.560353
_symmetry_space_group_name_H-M "P 31 2 1"
_symmetry_group_IT_number 152
_symmetry_cell_setting 'hexagonal'
loop_
_space_group_symop_operation_xyz
x,y,z
-y,x-y,1/3+z
-x+y,-x,2/3+z
x-y,-y,2/3-z
-x,-x+y,1/3-z
y,x,-z
loop_
_atom_site_type_symbol
_atom_site_label
_atom_site_fract_x
_atom_site_fract_y
_atom_site_fract_z
Si Si1 0.057679 0.306160 0.411089
Si Si2 0.147266 0.057792 0.588744
Si Si3 0.740107 0.415713 0.214409
Si Si4 0.905369 0.440560 0.190583
Si Si5 0.151847 0.481442 0.647598
O O1 0.087931 0.241814 0.345198
O O2 0.125669 0.395272 0.506748
O O3 0.000000 0.272328 0.666667
O O4 0.000000 0.300797 0.166667
O O5 0.127031 0.127031 0.500000
O O6 0.122628 0.000000 0.333334
O O7 0.093975 0.000000 0.833334
O O8 0.673730 0.392738 0.444210
O O9 0.836146 0.462896 0.277263
O O10 0.716171 0.465925 0.009781
O O11 0.890939 0.370329 0.407009
O O12 0.000000 0.508762 0.166667
O O13 0.880341 0.403748 0.895535
#
# Coordination Sequence:
#
# PCOD9575766 Si02
#       5
#     6   6   6   6   6
#     4  10  20  34  51  77 107 139 178 225 276 326
#     4  10  19  31  50  74 103 137 179 226 271 325
#     4  10  20  37  56  82 113 146 189 230 281 340
#     4  11  22  35  57  84 112 143 187 235 280 330
#     4  11  21  35  58  78 111 145 185 226 281 334
#
# _framework density 19.310480999999999
#
# number of rings (size 3 to 8) (size 9 to 14) (size 15 to 20)
#    0.000    1.600    2.000    4.800    0.000    0.000 
#    0.000    1.000    0.000    0.000    0.000   11.200 
#    0.000    0.000    0.000    0.000    0.000    0.000 
#
# Total GULP energy -167124.948497 kJ/mol
# GULP energy per Si atom -5570.831617 kJ/mol
# Density = 1.926653 g / cm^3
# Si number density = 19.310481 Si / 1000 Ang^3
#
#
#
# Elastic Constant Matrix: (Units=GPa)
#
#
# Indices 1 2 3 4 5 6 
#
# 1 109.3931 29.1859 18.5141 -8.0400 0.0000 0.0000
# 2 29.1859 109.3931 18.5141 8.0400 0.0000 0.0000
# 3 18.5141 18.5141 103.9530 0.0000 0.0000 0.0000
# 4 -8.0400 8.0400 0.0000 23.7565 0.0000 0.0000
# 5 0.0000 0.0000 0.0000 0.0000 23.7565 -8.0400
# 6 0.0000 0.0000 0.0000 0.0000 -8.0400 40.1036
#
#
#
# Elastic Compliance Matrix: (Units=1/GPa)
#
#
# Indices 1 2 3 4 5 6 
#
# 1 0.010476 -0.002899 -0.001349 0.004527 0.000000 0.000000
# 2 -0.002899 0.010476 -0.001349 -0.004527 0.000000 0.000000
# 3 -0.001349 -0.001349 0.010100 0.000000 0.000000 0.000000
# 4 0.004527 -0.004527 0.000000 0.045158 0.000000 0.000000
# 5 0.000000 0.000000 0.000000 0.000000 0.045158 0.009053
# 6 0.000000 0.000000 0.000000 0.000000 0.009053 0.026750
#
#
# Mechanical properties :
#
#
# Convention : Reuss Voigt Hill
#
# Bulk Modulus (GPa) = 50.36242 50.57417 50.46830
# Shear Modulus (GPa) = 30.13263 34.62497 32.37880
#
# Velocity S-wave (km/s) = 3.95451 4.23906 4.09925
# Velocity P-wave (km/s) = 6.85477 7.08564 6.97116
#
# Compressibility (1/GPa) = 0.01985608
#
# Stress axis : x y z
#
# Youngs Moduli (GPa) = 95.45684 95.45684 99.00608
#
# Poissons Ratio (x) = 0.27676 0.13360
# Poissons Ratio (y) = 0.27676 0.13360
# Poissons Ratio (z) = 0.12881 0.12881
#
# Static dielectric constant tensor:
#      x y z
#    x 1.736550 0.000000 0.000000 
#    y 0.000000 1.736550 0.000000 
#    z 0.000000 0.000000 1.703430 
# 
# From -- ./inp_files/327.got.cif
#   From: 2010.05.17/outbox.cif.g08.bks.cpg/sg152_1_cif.got.tgz:327.got - 2010.05.20 10:36:06.
