data_PCOD9575858
_publ_section_title
;
Structure prediction by ZEFSAII (Michael W. Deem and Ramdas Pophale) SiO2 
 PCOD9575858
Probable space group: P 31 2 1
;
_chemical_formula_sum "Si O2"
_cell_formula_units_Z 21
_cell_length_a 7.970107
_cell_length_b 7.970107
_cell_length_c 17.281139
_cell_angle_alpha 90.000000
_cell_angle_beta 90.000000
_cell_angle_gamma 120.000000
_cell_volume 950.673305
_symmetry_space_group_name_H-M "P 31 2 1"
_symmetry_group_IT_number 152
_symmetry_cell_setting 'hexagonal'
loop_
_space_group_symop_operation_xyz
x,y,z
-y,x-y,1/3+z
-x+y,-x,2/3+z
x-y,-y,2/3-z
-x,-x+y,1/3-z
y,x,-z
loop_
_atom_site_type_symbol
_atom_site_label
_atom_site_fract_x
_atom_site_fract_y
_atom_site_fract_z
Si Si1 0.343568 0.858668 0.889834
Si Si2 0.487271 0.122363 0.036123
Si Si3 0.547361 0.547361 0.000000
Si Si4 0.678971 0.778024 0.843394
O O1 0.153667 0.676729 0.919364
O O2 0.477890 0.786994 0.847258
O O3 0.316669 0.000000 0.833334
O O4 0.450371 0.983722 0.964586
O O5 0.324686 0.023381 0.100895
O O6 0.521152 0.331789 0.008360
O O7 0.663799 0.662147 0.922616
O O8 0.843155 0.000000 0.833334
#
# Coordination Sequence:
#
# PCOD9575858 Si02
#       4
#     6   6   3   6
#     4  10  20  37  63  91 123 166 214 262 322 391
#     4  11  22  41  66  94 130 171 219 272 334 399
#     4  10  24  42  64  96 130 166 222 280 338 400
#     4  10  22  40  63  91 127 170 218 268 326 390
#
# _framework density 22.089608999999999
#
# number of rings (size 3 to 8) (size 9 to 14) (size 15 to 20)
#    0.000    1.714    0.000    5.143    0.000    8.000 
#    0.000   10.000    0.000    0.000    0.000    0.000 
#    0.000    0.000    0.000    0.000    0.000    0.000 
#
# Total GULP energy -117277.484701 kJ/mol
# GULP energy per Si atom -5584.642129 kJ/mol
# Density = 2.203933 g / cm^3
# Si number density = 22.089609 Si / 1000 Ang^3
#
#
#
# Elastic Constant Matrix: (Units=GPa)
#
#
# Indices 1 2 3 4 5 6 
#
# 1 70.9854 33.9255 39.2855 -1.0417 -0.0003 0.0000
# 2 33.9255 70.9854 39.2855 1.0417 0.0003 0.0000
# 3 39.2855 39.2855 113.3062 0.0000 0.0000 0.0000
# 4 -1.0417 1.0417 0.0000 36.1588 0.0000 0.0003
# 5 -0.0003 0.0003 0.0000 0.0000 36.1588 -1.0417
# 6 0.0000 0.0000 0.0000 0.0003 -1.0417 18.5300
#
#
#
# Elastic Compliance Matrix: (Units=1/GPa)
#
#
# Indices 1 2 3 4 5 6 
#
# 1 0.019951 -0.007076 -0.004464 0.000779 0.000000 0.000000
# 2 -0.007076 0.019951 -0.004464 -0.000779 0.000000 0.000000
# 3 -0.004464 -0.004464 0.011921 0.000000 0.000000 0.000000
# 4 0.000779 -0.000779 0.000000 0.027701 0.000000 0.000000
# 5 0.000000 0.000000 0.000000 0.000000 0.027701 0.001557
# 6 0.000000 0.000000 0.000000 0.000000 0.001557 0.054054
#
#
# Mechanical properties :
#
#
# Convention : Reuss Voigt Hill
#
# Bulk Modulus (GPa) = 50.46614 53.36332 51.91473
# Shear Modulus (GPa) = 25.01347 27.68822 26.35085
#
# Velocity S-wave (km/s) = 3.36871 3.54425 3.45760
# Velocity P-wave (km/s) = 6.16658 6.39993 6.28433
#
# Compressibility (1/GPa) = 0.01981526
#
# Stress axis : x y z
#
# Youngs Moduli (GPa) = 50.12244 50.12244 83.88400
#
# Poissons Ratio (x) = 0.35466 0.37447
# Poissons Ratio (y) = 0.35466 0.37447
# Poissons Ratio (z) = 0.22375 0.22375
#
# Static dielectric constant tensor:
#      x y z
#    x 1.837630 0.000000 0.000000 
#    y 0.000000 1.837630 0.000000 
#    z 0.000000 0.000000 1.778120 
# 
# From -- ./inp_files/2245.got.cif
#   From: 2010.05.17/outbox.cif.g08.bks.cpg/sg152_2_cif.got.tgz:2245.got - 2010.05.20 10:36:06.
