data_PCOD9575297
_publ_section_title
;
Structure prediction by ZEFSAII (Michael W. Deem and Ramdas Pophale) SiO2 
 PCOD9575297
Probable space group: R -3
;
_chemical_formula_sum "Si O2"
_cell_formula_units_Z 36
_cell_length_a 13.432587
_cell_length_b 13.432587
_cell_length_c 7.998037
_cell_angle_alpha 90.000000
_cell_angle_beta 90.000000
_cell_angle_gamma 120.000000
_cell_volume 1249.779408
_symmetry_space_group_name_H-M "R -3"
_symmetry_group_IT_number 148
_symmetry_cell_setting 'hexagonal'
loop_
_space_group_symop_operation_xyz
x,y,z
-y,x-y,z
-x+y,-x,z
-x,-y,-z
y,-x+y,-z
x-y,x,-z
2/3+x,1/3+y,1/3+z
2/3-y,1/3+x-y,1/3+z
2/3-x+y,1/3-x,1/3+z
2/3-x,1/3-y,1/3-z
2/3+y,1/3-x+y,1/3-z
2/3+x-y,1/3+x,1/3-z
1/3+x,2/3+y,2/3+z
1/3-y,2/3+x-y,2/3+z
1/3-x+y,2/3-x,2/3+z
1/3-x,2/3-y,2/3-z
1/3+y,2/3-x+y,2/3-z
1/3+x-y,2/3+x,2/3-z
loop_
_atom_site_type_symbol
_atom_site_label
_atom_site_fract_x
_atom_site_fract_y
_atom_site_fract_z
Si Si1 0.840613 0.291380 0.431989
Si Si2 0.889157 0.372164 0.903836
O O1 0.753491 0.213980 0.283207
O O2 0.956675 0.291630 0.489256
O O3 0.766055 0.216420 0.593140
O O4 0.783634 0.245880 0.899198
#
# Coordination Sequence:
#
# PCOD9575297 Si02
#       2
#    18  18
#     4  11  26  45  74 103 141 185 231 287 348 411
#     4  11  26  45  72 105 140 184 232 287 346 413
#
# _framework density 28.805083
#
# number of rings (size 3 to 8) (size 9 to 14) (size 15 to 20)
#    0.000    1.000    0.000    4.000   14.000    4.000 
#    0.000    0.000    0.000    0.000    0.000    0.000 
#    0.000    0.000    0.000    0.000    0.000    0.000 
#
# Total GULP energy -66992.903394 kJ/mol
# GULP energy per Si atom -5582.741949 kJ/mol
# Density = 2.873952 g / cm^3
# Si number density = 28.805083 Si / 1000 Ang^3
#
#
#
# Elastic Constant Matrix: (Units=GPa)
#
#
# Indices 1 2 3 4 5 6 
#
# 1 94.1486 -6.2299 23.6131 -1.7307 -5.7121 0.0000
# 2 -6.2299 94.1486 23.6131 1.7307 5.7121 0.0000
# 3 23.6131 23.6131 201.6239 0.0000 0.0000 0.0000
# 4 -1.7307 1.7307 0.0000 33.5784 0.0000 5.7121
# 5 -5.7121 5.7121 0.0000 0.0000 33.5784 -1.7307
# 6 0.0000 0.0000 0.0000 5.7121 -1.7307 50.1892
#
#
#
# Elastic Compliance Matrix: (Units=1/GPa)
#
#
# Indices 1 2 3 4 5 6 
#
# 1 0.011158 0.000980 -0.001422 0.000525 0.001731 0.000000
# 2 0.000980 0.011158 -0.001422 -0.000525 -0.001731 0.000000
# 3 -0.001422 -0.001422 0.005293 0.000000 0.000000 0.000000
# 4 0.000525 -0.000525 0.000000 0.030424 0.000000 -0.003463
# 5 0.001731 -0.001731 0.000000 0.000000 0.030424 0.001049
# 6 0.000000 0.000000 0.000000 -0.003463 0.001049 0.020355
#
#
# Mechanical properties :
#
#
# Convention : Reuss Voigt Hill
#
# Bulk Modulus (GPa) = 41.87237 52.43488 47.15363
# Shear Modulus (GPa) = 41.49465 46.73085 44.11275
#
# Velocity S-wave (km/s) = 3.79955 4.03216 3.91758
# Velocity P-wave (km/s) = 5.81522 6.31828 6.07196
#
# Compressibility (1/GPa) = 0.02388210
#
# Stress axis : x y z
#
# Youngs Moduli (GPa) = 89.62522 89.62522 188.93994
#
# Poissons Ratio (x) = -0.08785 0.26858
# Poissons Ratio (y) = -0.08785 0.26858
# Poissons Ratio (z) = 0.12740 0.12740
#
# Static dielectric constant tensor:
#      x y z
#    x 2.198940 0.000000 0.000000 
#    y 0.000000 2.198940 0.000000 
#    z 0.000000 0.000000 2.352760 
# 
# From -- ./inp_files/517.got.cif
#   From: 2010.05.17/outbox.cif.g08.bks.cpg/sg148_1_cif.got.tgz:517.got - 2010.05.20 13:50:20.
