data_PCOD9575080
_publ_section_title
;
Structure prediction by ZEFSAII (Michael W. Deem and Ramdas Pophale) SiO2 
 PCOD9575080
Probable space group: R -3
;
_chemical_formula_sum "Si O2"
_cell_formula_units_Z 144
_cell_length_a 29.913499
_cell_length_b 29.913499
_cell_length_c 9.560515
_cell_angle_alpha 90.000000
_cell_angle_beta 90.000000
_cell_angle_gamma 120.000000
_cell_volume 7408.774054
_symmetry_space_group_name_H-M "R -3"
_symmetry_group_IT_number 148
_symmetry_cell_setting 'hexagonal'
loop_
_space_group_symop_operation_xyz
x,y,z
-y,x-y,z
-x+y,-x,z
-x,-y,-z
y,-x+y,-z
x-y,x,-z
2/3+x,1/3+y,1/3+z
2/3-y,1/3+x-y,1/3+z
2/3-x+y,1/3-x,1/3+z
2/3-x,1/3-y,1/3-z
2/3+y,1/3-x+y,1/3-z
2/3+x-y,1/3+x,1/3-z
1/3+x,2/3+y,2/3+z
1/3-y,2/3+x-y,2/3+z
1/3-x+y,2/3-x,2/3+z
1/3-x,2/3-y,2/3-z
1/3+y,2/3-x+y,2/3-z
1/3+x-y,2/3+x,2/3-z
loop_
_atom_site_type_symbol
_atom_site_label
_atom_site_fract_x
_atom_site_fract_y
_atom_site_fract_z
Si Si1 0.635538 0.515306 0.971720
Si Si2 0.258848 0.915975 0.444348
Si Si3 0.273230 0.187692 0.318266
Si Si4 0.849018 0.779229 0.322356
Si Si5 0.255204 0.551890 0.336808
Si Si6 0.965190 0.074765 0.329749
Si Si7 0.582346 0.657168 0.899033
Si Si8 0.033711 0.301959 0.924956
O O1 0.697237 0.557134 0.961851
O O2 0.610462 0.498886 0.818639
O O3 0.629224 0.463280 0.040942
O O4 0.605782 0.540652 0.049738
O O5 0.217685 0.899050 0.568813
O O6 0.314302 0.957022 0.512269
O O7 0.240063 0.941861 0.326315
O O8 0.262371 0.129731 0.298573
O O9 0.287755 0.220439 0.176007
O O10 0.900082 0.832036 0.283902
O O11 0.802717 0.782796 0.248219
O O12 0.309198 0.558397 0.382922
O O13 0.253464 0.602526 0.382320
O O14 0.256708 0.554766 0.166529
O O15 0.637773 0.702032 0.952734
O O16 0.585338 0.646127 0.737197
#
# Coordination Sequence:
#
# PCOD9575080 Si02
#       8
#    18  18  18  18  18  18  18  18
#     4  10  20  35  58  90 121 161 204 256 306 367
#     4  11  21  39  64  89 117 161 216 255 302 365
#     4  11  22  41  61  87 125 166 204 258 313 372
#     4  11  23  35  58  88 130 160 200 255 322 369
#     4   9  16  29  53  80 121 153 196 243 304 364
#     4   9  17  30  50  84 115 158 193 242 303 367
#     4  12  21  38  64  91 119 162 209 258 307 373
#     4  11  22  39  64  87 116 160 211 253 304 371
#
# _framework density 19.436415
#
# number of rings (size 3 to 8) (size 9 to 14) (size 15 to 20)
#    0.000    1.500    5.000    1.750    1.750    2.000 
#    0.000    1.250    5.500    0.000    0.000    0.000 
#    0.000    1.000    0.000    0.000    0.000    0.000 
#
# Total GULP energy -267519.575182 kJ/mol
# GULP energy per Si atom -5573.324483 kJ/mol
# Density = 1.939218 g / cm^3
# Si number density = 19.436415 Si / 1000 Ang^3
#
#
#
# Elastic Constant Matrix: (Units=GPa)
#
#
# Indices 1 2 3 4 5 6 
#
# 1 64.9101 22.9196 15.8869 3.6038 -1.8904 0.0031
# 2 22.9196 64.9252 15.8649 -3.6114 1.8778 0.0008
# 3 15.8869 15.8649 62.6448 -0.0220 -0.0136 0.0052
# 4 3.6038 -3.6114 -0.0220 7.8866 -0.0078 1.8907
# 5 -1.8904 1.8778 -0.0136 -0.0078 7.8623 3.6163
# 6 0.0031 0.0008 0.0052 1.8907 3.6163 21.0022
#
#
#
# Elastic Compliance Matrix: (Units=1/GPa)
#
#
# Indices 1 2 3 4 5 6 
#
# 1 0.019500 -0.006962 -0.003185 -0.012100 0.006336 -0.000003
# 2 -0.006962 0.019489 -0.003167 0.012090 -0.006323 0.000001
# 3 -0.003185 -0.003167 0.017573 0.000057 0.000027 -0.000014
# 4 -0.012100 0.012090 0.000057 0.140912 0.000191 -0.012717
# 5 0.006336 -0.006323 0.000027 0.000191 0.141432 -0.024371
# 6 -0.000003 0.000001 -0.000014 -0.012717 -0.024371 0.052955
#
#
# Mechanical properties :
#
#
# Convention : Reuss Voigt Hill
#
# Bulk Modulus (GPa) = 33.40693 33.53587 33.47140
# Shear Modulus (GPa) = 11.66950 16.53747 14.10348
#
# Velocity S-wave (km/s) = 2.45295 2.92010 2.69666
# Velocity P-wave (km/s) = 5.02471 5.35359 5.19175
#
# Compressibility (1/GPa) = 0.02993391
#
# Stress axis : x y z
#
# Youngs Moduli (GPa) = 51.28200 51.31020 56.90578
#
# Poissons Ratio (x) = 0.35721 0.18125
# Poissons Ratio (y) = 0.35702 0.18024
# Poissons Ratio (z) = 0.16334 0.16251
#
# Static dielectric constant tensor:
#      x y z
#    x 1.696030 0.000000 -0.000020 
#    y 0.000000 1.696040 0.000000 
#    z -0.000020 0.000000 1.664500 
# 
# From -- ./inp_files/1143.got.cif
#   From: 2010.05.17/outbox.cif.g08.bks.cpg/sg148_1_cif.got.tgz:1143.got - 2010.05.20 13:50:20.
