data_PCOD9575612
_publ_section_title
;
Structure prediction by ZEFSAII (Michael W. Deem and Ramdas Pophale) SiO2 
 PCOD9575612
Probable space group: P 31 1 2
;
_chemical_formula_sum "Si O2"
_cell_formula_units_Z 42
_cell_length_a 8.055230
_cell_length_b 8.055230
_cell_length_c 27.296780
_cell_angle_alpha 90.000000
_cell_angle_beta 90.000000
_cell_angle_gamma 120.000000
_cell_volume 1533.903159
_symmetry_space_group_name_H-M "P 31 1 2"
_symmetry_group_IT_number 151
_symmetry_cell_setting 'hexagonal'
loop_
_space_group_symop_operation_xyz
x,y,z
-y,x-y,1/3+z
-x+y,-x,2/3+z
-y,-x,2/3-z
-x+y,y,1/3-z
x,x-y,-z
loop_
_atom_site_type_symbol
_atom_site_label
_atom_site_fract_x
_atom_site_fract_y
_atom_site_fract_z
Si Si1 0.904929 0.846419 0.431526
Si Si2 0.272225 0.743792 0.045907
Si Si3 0.927093 0.641502 0.230883
Si Si4 0.640966 0.454803 0.715336
Si Si5 0.334859 0.430900 0.471915
Si Si6 0.329633 0.127077 0.665024
Si Si7 0.320057 0.185429 0.861167
O O1 0.900999 0.827612 0.373363
O O2 0.816131 0.670178 0.470378
O O3 0.834815 0.991046 0.447941
O O4 0.129048 0.952790 0.442685
O O5 0.203895 0.618411 0.095735
O O6 0.445442 0.957440 0.053153
O O7 0.330894 0.665447 0.000000
O O8 0.072682 0.728888 0.027764
O O9 0.720232 0.601442 0.212469
O O10 0.907570 0.619350 0.289767
O O11 0.050512 0.587625 0.194060
O O12 0.771577 0.543154 0.666667
O O13 0.510110 0.231730 0.702558
O O14 0.742769 0.502331 0.768084
O O15 0.099137 0.330363 0.470587
#
# Coordination Sequence:
#
# PCOD9575612 Si02
#       7
#     6   6   6   6   6   6   6
#     4   9  16  30  55  85 113 147 195 243 289 350
#     4  10  21  38  58  82 113 148 191 243 296 349
#     4   8  14  27  49  80 110 142 186 227 274 342
#     4  11  23  39  58  81 115 156 196 239 294 359
#     4   7  13  28  51  75 105 144 183 229 282 334
#     4  11  21  32  55  86 115 148 188 239 298 357
#     4   8  16  32  54  80 112 151 194 240 289 348
#
# _framework density 27.381126999999999
#
# number of rings (size 3 to 8) (size 9 to 14) (size 15 to 20)
#    0.000    2.857    0.000    4.286    0.000    1.714 
#    0.000    1.429    0.000    7.714    0.000    0.000 
#    0.000    0.000    0.000    0.000    0.000    0.000 
#
# Total GULP energy -234300.673821 kJ/mol
# GULP energy per Si atom -5578.587472 kJ/mol
# Density = 2.731881 g / cm^3
# Si number density = 27.381127 Si / 1000 Ang^3
#
#
#
# Elastic Constant Matrix: (Units=GPa)
#
#
# Indices 1 2 3 4 5 6 
#
# 1 29.9781 18.5556 22.7930 -0.0001 10.5199 0.0000
# 2 18.5556 29.9781 22.7930 0.0001 -10.5199 0.0000
# 3 22.7930 22.7930 171.4838 0.0000 0.0000 0.0000
# 4 -0.0001 0.0001 0.0000 29.6177 0.0000 -10.5199
# 5 10.5199 -10.5199 0.0000 0.0000 29.6177 -0.0001
# 6 0.0000 0.0000 0.0000 -10.5199 -0.0001 5.7113
#
#
#
# Elastic Compliance Matrix: (Units=1/GPa)
#
#
# Indices 1 2 3 4 5 6 
#
# 1 0.138371 -0.114827 -0.003129 0.000001 -0.089933 0.000000
# 2 -0.114827 0.138371 -0.003129 -0.000001 0.089933 0.000000
# 3 -0.003129 -0.003129 0.006663 0.000000 0.000000 0.000000
# 4 0.000001 -0.000001 0.000000 0.097650 0.000000 0.179866
# 5 -0.089933 0.089933 0.000000 0.000000 0.097650 0.000001
# 6 0.000000 0.000000 0.000000 0.179866 0.000001 0.506397
#
#
# Mechanical properties :
#
#
# Convention : Reuss Voigt Hill
#
# Bulk Modulus (GPa) = 24.25241 39.96928 32.11084
# Shear Modulus (GPa) = 4.02895 24.14257 14.08576
#
# Velocity S-wave (km/s) = 1.21434 2.97260 2.27057
# Velocity P-wave (km/s) = 3.29283 5.13915 4.31588
#
# Compressibility (1/GPa) = 0.04123301
#
# Stress axis : x y z
#
# Youngs Moduli (GPa) = 7.22695 7.22695 150.07510
#
# Poissons Ratio (x) = 0.82985 0.46963
# Poissons Ratio (y) = 0.82985 0.46963
# Poissons Ratio (z) = 0.02262 0.02262
#
# Static dielectric constant tensor:
#      x y z
#    x 2.265730 0.000000 0.000000 
#    y 0.000000 2.265730 0.000000 
#    z 0.000000 0.000000 2.300310 
# 
# From -- ./inp_files/5055.got.cif
#   From: 2010.05.17/outbox.cif.g08.bks.cpg/sg151_3_cif.got.tgz:5055.got - 2010.05.20 10:33:20.
