data_PCOD9575370
_publ_section_title
;
Structure prediction by ZEFSAII (Michael W. Deem and Ramdas Pophale) SiO2 
 PCOD9575370
Probable space group: P 3 1 2
;
_chemical_formula_sum "Si O2"
_cell_formula_units_Z 28
_cell_length_a 14.864647
_cell_length_b 14.864647
_cell_length_c 7.638397
_cell_angle_alpha 90.000000
_cell_angle_beta 90.000000
_cell_angle_gamma 120.000000
_cell_volume 1461.645517
_symmetry_space_group_name_H-M "P 3 1 2"
_symmetry_group_IT_number 149
_symmetry_cell_setting 'hexagonal'
loop_
_space_group_symop_operation_xyz
x,y,z
-y,x-y,z
-x+y,-x,z
-y,-x,-z
-x+y,y,-z
x,x-y,-z
loop_
_atom_site_type_symbol
_atom_site_label
_atom_site_fract_x
_atom_site_fract_y
_atom_site_fract_z
Si Si1 0.678794 0.740613 0.784006
Si Si2 0.437756 0.539165 0.292522
Si Si3 0.233085 0.106434 0.203699
Si Si4 0.333335 0.666668 0.714012
Si Si5 0.000000 0.000000 0.289369
Si Si6 0.660229 0.937397 0.798817
O O1 0.582707 0.627377 0.742127
O O2 0.787167 0.753057 0.716584
O O3 0.658312 0.833932 0.723603
O O4 0.682698 0.745758 0.994995
O O5 0.446926 0.553075 0.500000
O O6 0.365516 0.584473 0.224949
O O7 0.552165 0.616346 0.220746
O O8 0.110830 0.024269 0.218532
O O9 0.286576 0.043243 0.276257
O O10 0.263090 0.131545 0.000000
O O11 0.333334 0.666667 0.500000
O O12 0.000000 0.000000 0.500000
#
# Coordination Sequence:
#
# PCOD9575370 Si02
#       6
#     6   6   6   2   2   6
#     4  10  20  34  56  81 105 139 183 227 266 315
#     4  11  21  35  52  75 114 148 174 214 267 326
#     4  10  20  38  57  76 109 148 183 223 271 318
#     4   9  18  30  46  71 103 144 175 200 250 312
#     4  12  22  29  49  84 118 146 178 219 262 332
#     4  10  20  34  56  81 105 139 183 227 266 315
#
# _framework density 19.156493000000001
#
# number of rings (size 3 to 8) (size 9 to 14) (size 15 to 20)
#    0.000    1.714    4.286    1.286    0.000    1.714 
#    0.000    0.000    0.000    0.857    0.000    3.000 
#    0.000    0.000    0.000    0.000    0.000    0.000 
#
# Total GULP energy -156180.340710 kJ/mol
# GULP energy per Si atom -5577.869311 kJ/mol
# Density = 1.911289 g / cm^3
# Si number density = 19.156493 Si / 1000 Ang^3
#
#
#
# Elastic Constant Matrix: (Units=GPa)
#
#
# Indices 1 2 3 4 5 6 
#
# 1 94.8587 50.5095 -8.2030 0.0004 2.3875 -0.0007
# 2 50.5095 94.8576 -8.2030 0.0001 -2.3873 -0.0004
# 3 -8.2030 -8.2030 34.9686 0.0002 0.0000 -0.0001
# 4 0.0004 0.0001 0.0002 -2.5947 -0.0002 -2.3875
# 5 2.3875 -2.3873 0.0000 -0.0002 -2.5946 0.0000
# 6 -0.0007 -0.0004 -0.0001 -2.3875 0.0000 22.1742
#
#
#
# Elastic Compliance Matrix: (Units=1/GPa)
#
#
# Indices 1 2 3 4 5 6 
#
# 1 0.013791 -0.006725 0.001658 0.000000 0.018878 0.000000
# 2 -0.006725 0.013791 0.001658 0.000001 -0.018878 0.000000
# 3 0.001658 0.001658 0.029375 0.000002 0.000001 0.000000
# 4 0.000000 0.000001 0.000002 -0.350659 0.000027 -0.037756
# 5 0.018878 -0.018878 0.000001 0.000027 -0.350678 0.000004
# 6 0.000000 0.000000 0.000000 -0.037756 0.000004 0.041032
#
#
# Mechanical properties :
#
#
# Convention : Reuss Voigt Hill
#
# Bulk Modulus (GPa) = 19.94513 32.54354 26.24434
# Shear Modulus (GPa) = -8.62342 16.10241 3.73950
#
# Velocity S-wave (km/s) = -2.12399 2.90241 1.39868
# Velocity P-wave (km/s) = 2.10218 5.31574 4.04205
#
# Compressibility (1/GPa) = 0.05013756
#
# Stress axis : x y z
#
# Youngs Moduli (GPa) = 72.51079 72.50973 34.04278
#
# Poissons Ratio (x) = 0.48763 -0.05643
# Poissons Ratio (y) = 0.48763 -0.05643
# Poissons Ratio (z) = -0.12019 -0.12020
#
# Static dielectric constant tensor:
#      x y z
#    x 1.691350 0.000000 0.000000 
#    y 0.000000 1.691350 0.000000 
#    z 0.000000 0.000000 1.708590 
# 
# From -- ./inp_files/566.got.cif
#   From: 2010.05.17/outbox.cif.g08.bks.cpg/sg149_cif.got.tgz:566.got - 2010.05.20 13:52:34.
