data_PCOD9575718
_publ_section_title
;
Structure prediction by ZEFSAII (Michael W. Deem and Ramdas Pophale) SiO2 
 PCOD9575718
Probable space group: P 31 2 1
;
_chemical_formula_sum "Si O2"
_cell_formula_units_Z 18
_cell_length_a 7.871234
_cell_length_b 7.871234
_cell_length_c 14.225531
_cell_angle_alpha 90.000000
_cell_angle_beta 90.000000
_cell_angle_gamma 120.000000
_cell_volume 763.281551
_symmetry_space_group_name_H-M "P 31 2 1"
_symmetry_group_IT_number 152
_symmetry_cell_setting 'hexagonal'
loop_
_space_group_symop_operation_xyz
x,y,z
-y,x-y,1/3+z
-x+y,-x,2/3+z
x-y,-y,2/3-z
-x,-x+y,1/3-z
y,x,-z
loop_
_atom_site_type_symbol
_atom_site_label
_atom_site_fract_x
_atom_site_fract_y
_atom_site_fract_z
Si Si1 0.888774 0.602585 0.054695
Si Si2 0.872030 0.210326 0.524298
Si Si3 0.290551 0.463398 0.237443
O O1 0.820698 0.728776 0.114806
O O2 0.842225 0.403267 0.103746
O O3 0.763147 0.546348 0.956869
O O4 0.103742 0.721822 0.009697
O O5 0.720900 0.979343 0.506291
O O6 0.868618 0.359126 0.450173
#
# Coordination Sequence:
#
# PCOD9575718 Si02
#       3
#     6   6   6
#     4   9  18  32  56  78 111 149 190 234 293 344
#     4   9  18  31  56  78 111 149 195 234 287 354
#     4  10  17  33  56  81 107 154 190 233 294 349
#
# _framework density 23.582383
#
# number of rings (size 3 to 8) (size 9 to 14) (size 15 to 20)
#    2.000    0.667    3.333    0.000    0.000    0.000 
#    0.000    6.667   14.667    8.000    0.000    0.000 
#    0.000    0.000    0.000    0.000    0.000    0.000 
#
# Total GULP energy -100243.401625 kJ/mol
# GULP energy per Si atom -5569.077868 kJ/mol
# Density = 2.352871 g / cm^3
# Si number density = 23.582383 Si / 1000 Ang^3
#
#
#
# Elastic Constant Matrix: (Units=GPa)
#
#
# Indices 1 2 3 4 5 6 
#
# 1 121.3515 71.1722 16.4465 24.5091 0.0000 0.0000
# 2 71.1722 121.3515 16.4465 -24.5091 0.0000 0.0000
# 3 16.4465 16.4465 48.6094 0.0000 0.0000 0.0000
# 4 24.5091 -24.5091 0.0000 21.2937 0.0000 0.0000
# 5 0.0000 0.0000 0.0000 0.0000 21.2937 24.5091
# 6 0.0000 0.0000 0.0000 0.0000 24.5091 25.0897
#
#
#
# Elastic Compliance Matrix: (Units=1/GPa)
#
#
# Indices 1 2 3 4 5 6 
#
# 1 -0.077361 0.082874 -0.001865 0.184432 0.000000 0.000000
# 2 0.082874 -0.077361 -0.001865 -0.184432 0.000000 0.000000
# 3 -0.001865 -0.001865 0.021834 0.000000 0.000000 0.000000
# 4 0.184432 -0.184432 0.000000 -0.377601 0.000000 0.000000
# 5 0.000000 0.000000 0.000000 0.000000 -0.377601 0.368863
# 6 0.000000 0.000000 0.000000 0.000000 0.368863 -0.320471
#
#
# Mechanical properties :
#
#
# Convention : Reuss Voigt Hill
#
# Bulk Modulus (GPa) = 39.37143 55.49366 47.43254
# Shear Modulus (GPa) = -3.68085 26.01855 11.16885
#
# Velocity S-wave (km/s) = -1.25069 3.32521 2.17862
# Velocity P-wave (km/s) = 3.82699 6.19077 5.14643
#
# Compressibility (1/GPa) = 0.02539913
#
# Stress axis : x y z
#
# Youngs Moduli (GPa) = -12.92636 -12.92636 45.79945
#
# Poissons Ratio (x) = 1.07126 0.08543
# Poissons Ratio (y) = 1.07126 0.08543
# Poissons Ratio (z) = -0.02411 -0.02411
#
# Static dielectric constant tensor:
#      x y z
#    x 1.891380 0.000000 0.000000 
#    y 0.000000 1.891380 0.000000 
#    z 0.000000 0.000000 2.009940 
# 
# From -- ./inp_files/2189.got.cif
#   From: 2010.05.17/outbox.cif.g08.bks.cpg/sg152_2_cif.got.tgz:2189.got - 2010.05.20 10:36:06.
