data_PCOD9575022
_publ_section_title
;
Structure prediction by ZEFSAII (Michael W. Deem and Ramdas Pophale) SiO2 
 PCOD9575022
Probable space group: R -3
;
_chemical_formula_sum "Si O2"
_cell_formula_units_Z 72
_cell_length_a 24.009925
_cell_length_b 24.009925
_cell_length_c 5.377074
_cell_angle_alpha 90.000000
_cell_angle_beta 90.000000
_cell_angle_gamma 120.000000
_cell_volume 2684.468127
_symmetry_space_group_name_H-M "R -3"
_symmetry_group_IT_number 148
_symmetry_cell_setting 'hexagonal'
loop_
_space_group_symop_operation_xyz
x,y,z
-y,x-y,z
-x+y,-x,z
-x,-y,-z
y,-x+y,-z
x-y,x,-z
2/3+x,1/3+y,1/3+z
2/3-y,1/3+x-y,1/3+z
2/3-x+y,1/3-x,1/3+z
2/3-x,1/3-y,1/3-z
2/3+y,1/3-x+y,1/3-z
2/3+x-y,1/3+x,1/3-z
1/3+x,2/3+y,2/3+z
1/3-y,2/3+x-y,2/3+z
1/3-x+y,2/3-x,2/3+z
1/3-x,2/3-y,2/3-z
1/3+y,2/3-x+y,2/3-z
1/3+x-y,2/3+x,2/3-z
loop_
_atom_site_type_symbol
_atom_site_label
_atom_site_fract_x
_atom_site_fract_y
_atom_site_fract_z
Si Si1 0.803199 0.368690 0.722913
Si Si2 0.049877 0.733624 0.159978
Si Si3 0.438047 0.918681 0.181847
Si Si4 0.822958 0.021942 0.979436
O O1 0.753292 0.305276 0.872621
O O2 0.878166 0.402509 0.820018
O O3 0.808244 0.351273 0.434780
O O4 0.040275 0.665806 0.057843
O O5 0.126282 0.784186 0.161630
O O6 0.022357 0.768847 0.990897
O O7 0.400027 0.891340 0.444429
O O8 0.398403 0.893739 0.929553
#
# Coordination Sequence:
#
# PCOD9575022 Si02
#       4
#    18  18  18  18
#     4  10  23  45  66  90 124 170 221 274 317 362
#     4  10  18  35  64  92 134 167 202 244 330 382
#     4  10  22  38  62  96 128 163 216 260 307 388
#     4  10  22  38  62  96 128 163 216 260 307 388
#
# _framework density 26.820955000000001
#
# number of rings (size 3 to 8) (size 9 to 14) (size 15 to 20)
#    0.000    2.000    2.500    0.250    0.000    9.000 
#    0.000    1.250    0.000   27.000    0.000    0.000 
#    0.000    0.000    0.000    0.000    0.000    0.000 
#
# Total GULP energy -133713.093489 kJ/mol
# GULP energy per Si atom -5571.378895 kJ/mol
# Density = 2.675991 g / cm^3
# Si number density = 26.820955 Si / 1000 Ang^3
#
#
#
# Elastic Constant Matrix: (Units=GPa)
#
#
# Indices 1 2 3 4 5 6 
#
# 1 105.7405 17.6495 31.8182 -6.9121 -13.4043 0.1013
# 2 17.6495 107.7569 33.5553 6.9816 12.0962 0.0402
# 3 31.8182 33.5553 131.6585 -0.1621 -1.3902 0.1717
# 4 -6.9121 6.9816 -0.1621 26.4568 0.2066 11.2739
# 5 -13.4043 12.0962 -1.3902 0.2066 24.5522 -7.0579
# 6 0.1013 0.0402 0.1717 11.2739 -7.0579 45.7399
#
#
#
# Elastic Compliance Matrix: (Units=1/GPa)
#
#
# Indices 1 2 3 4 5 6 
#
# 1 0.011654 -0.002297 -0.002149 0.003462 0.007423 0.000276
# 2 -0.002297 0.011434 -0.002437 -0.003480 -0.007062 -0.000228
# 3 -0.002149 -0.002437 0.008742 0.000120 0.000529 0.000026
# 4 0.003462 -0.003480 0.000120 0.044264 0.000106 -0.010899
# 5 0.007423 -0.007062 0.000529 0.000106 0.050520 0.007757
# 6 0.000276 -0.000228 0.000026 -0.010899 0.007757 0.025746
#
#
# Mechanical properties :
#
#
# Convention : Reuss Voigt Hill
#
# Bulk Modulus (GPa) = 55.36337 56.80020 56.08178
# Shear Modulus (GPa) = 29.04485 36.82531 32.93508
#
# Velocity S-wave (km/s) = 3.29434 3.70943 3.50803
# Velocity P-wave (km/s) = 5.92932 6.29047 6.11256
#
# Compressibility (1/GPa) = 0.01806248
#
# Stress axis : x y z
#
# Youngs Moduli (GPa) = 85.80599 87.46075 114.39569
#
# Poissons Ratio (x) = 0.20094 0.24580
# Poissons Ratio (y) = 0.19714 0.27883
# Poissons Ratio (z) = 0.18437 0.21318
#
# Static dielectric constant tensor:
#      x y z
#    x 2.273400 -0.000200 -0.000650 
#    y -0.000200 2.274090 -0.000020 
#    z -0.000650 -0.000020 2.059710 
# 
# From -- ./inp_files/367.got.cif
#   From: 2010.05.17/outbox.cif.g08.bks.cpg/sg148_1_cif.got.tgz:367.got - 2010.05.20 13:50:20.
