data_PCOD9575765
_publ_section_title
;
Structure prediction by ZEFSAII (Michael W. Deem and Ramdas Pophale) SiO2 
 PCOD9575765
Probable space group: P 31 2 1
;
_chemical_formula_sum "Si O2"
_cell_formula_units_Z 36
_cell_length_a 21.971863
_cell_length_b 21.971863
_cell_length_c 5.007264
_cell_angle_alpha 90.000000
_cell_angle_beta 90.000000
_cell_angle_gamma 120.000000
_cell_volume 2093.461055
_symmetry_space_group_name_H-M "P 31 2 1"
_symmetry_group_IT_number 152
_symmetry_cell_setting 'hexagonal'
loop_
_space_group_symop_operation_xyz
x,y,z
-y,x-y,1/3+z
-x+y,-x,2/3+z
x-y,-y,2/3-z
-x,-x+y,1/3-z
y,x,-z
loop_
_atom_site_type_symbol
_atom_site_label
_atom_site_fract_x
_atom_site_fract_y
_atom_site_fract_z
Si Si1 0.915821 0.763607 0.165092
Si Si2 0.842750 0.916446 0.342544
Si Si3 0.576817 0.367402 0.945612
Si Si4 0.461043 0.731115 0.882210
Si Si5 0.254844 0.395052 0.483740
Si Si6 0.566500 0.918025 0.326619
O O1 0.901220 0.778511 0.463529
O O2 0.873872 0.681321 0.105074
O O3 0.000000 0.793584 0.166667
O O4 0.899537 0.809930 0.954959
O O5 0.879620 0.879620 0.500000
O O6 0.897839 0.000000 0.333334
O O7 0.548265 0.306478 0.166033
O O8 0.648889 0.428840 0.066754
O O9 0.581849 0.331359 0.671066
O O10 0.514908 0.385748 0.921126
O O11 0.542692 0.778669 0.801715
O O12 0.288333 0.391589 0.203159
O O13 0.316576 0.420613 0.702530
O O14 0.595044 0.000000 0.333334
#
# Coordination Sequence:
#
# PCOD9575765 Si02
#       6
#     6   6   6   6   6   6
#     4  10  19  32  50  72  97 126 159 199 245 291
#     4  10  21  34  51  73  97 126 158 197 244 292
#     4  10  19  30  48  71  98 128 160 197 241 290
#     4  10  19  31  48  73 100 129 160 198 243 287
#     4  10  20  32  50  74  99 127 161 201 246 292
#     4  10  19  31  48  71  98 128 160 200 245 290
#
# _framework density 17.196404000000001
#
# number of rings (size 3 to 8) (size 9 to 14) (size 15 to 20)
#    0.000    2.000    0.000    5.000    0.000    3.333 
#    0.000    0.000    0.000    2.000    0.000    0.000 
#    0.000    0.000    0.000    0.000    0.000    0.000 
#
# Total GULP energy -200603.303931 kJ/mol
# GULP energy per Si atom -5572.313998 kJ/mol
# Density = 1.715726 g / cm^3
# Si number density = 17.196404 Si / 1000 Ang^3
#
#
#
# Elastic Constant Matrix: (Units=GPa)
#
#
# Indices 1 2 3 4 5 6 
#
# 1 81.2541 47.2167 -1.4632 1.9877 0.0000 0.0000
# 2 47.2167 81.2541 -1.4632 -1.9877 0.0000 0.0000
# 3 -1.4632 -1.4632 63.3095 0.0000 0.0000 0.0000
# 4 1.9877 -1.9877 0.0000 19.8730 0.0000 0.0000
# 5 0.0000 0.0000 0.0000 0.0000 19.8730 1.9877
# 6 0.0000 0.0000 0.0000 0.0000 1.9877 17.0187
#
#
#
# Elastic Compliance Matrix: (Units=1/GPa)
#
#
# Indices 1 2 3 4 5 6 
#
# 1 0.018757 -0.010969 0.000180 -0.002973 0.000000 0.000000
# 2 -0.010969 0.018757 0.000180 0.002973 0.000000 0.000000
# 3 0.000180 0.000180 0.015804 0.000000 0.000000 0.000000
# 4 -0.002973 0.002973 0.000000 0.050914 0.000000 0.000000
# 5 0.000000 0.000000 0.000000 0.000000 0.050914 -0.005947
# 6 0.000000 0.000000 0.000000 0.000000 -0.005947 0.059453
#
#
# Mechanical properties :
#
#
# Convention : Reuss Voigt Hill
#
# Bulk Modulus (GPa) = 31.15296 34.93312 33.04304
# Shear Modulus (GPa) = 20.28240 23.45476 21.86858
#
# Velocity S-wave (km/s) = 3.43805 3.69715 3.56995
# Velocity P-wave (km/s) = 5.82370 6.21157 6.02076
#
# Compressibility (1/GPa) = 0.03209968
#
# Stress axis : x y z
#
# Youngs Moduli (GPa) = 53.31247 53.31247 63.27613
#
# Poissons Ratio (x) = 0.58480 -0.01139
# Poissons Ratio (y) = 0.58480 -0.01139
# Poissons Ratio (z) = -0.00960 -0.00960
#
# Static dielectric constant tensor:
#      x y z
#    x 1.593920 0.000000 0.000000 
#    y 0.000000 1.593920 0.000000 
#    z 0.000000 0.000000 1.594780 
# 
# From -- ./inp_files/468.got.cif
#   From: 2010.05.17/outbox.cif.g08.bks.cpg/sg152_1_cif.got.tgz:468.got - 2010.05.20 10:36:06.
