data_PCOD9575529
_publ_section_title
;
Structure prediction by ZEFSAII (Michael W. Deem and Ramdas Pophale) SiO2 
 PCOD9575529
Probable space group: P 31 1 2
;
_chemical_formula_sum "Si O2"
_cell_formula_units_Z 33
_cell_length_a 14.309934
_cell_length_b 14.309934
_cell_length_c 11.956240
_cell_angle_alpha 90.000000
_cell_angle_beta 90.000000
_cell_angle_gamma 120.000000
_cell_volume 2120.315642
_symmetry_space_group_name_H-M "P 31 1 2"
_symmetry_group_IT_number 151
_symmetry_cell_setting 'hexagonal'
loop_
_space_group_symop_operation_xyz
x,y,z
-y,x-y,1/3+z
-x+y,-x,2/3+z
-y,-x,2/3-z
-x+y,y,1/3-z
x,x-y,-z
loop_
_atom_site_type_symbol
_atom_site_label
_atom_site_fract_x
_atom_site_fract_y
_atom_site_fract_z
Si Si1 0.215607 0.237320 0.403830
Si Si2 0.105664 0.651666 0.946653
Si Si3 0.508956 0.754478 0.000000
Si Si4 0.500366 0.848623 0.359345
Si Si5 0.203434 0.182584 0.656000
Si Si6 0.664336 0.915377 0.180442
O O1 0.303987 0.337827 0.334512
O O2 0.246890 0.232497 0.533129
O O3 0.193384 0.127285 0.345794
O O4 0.114125 0.257742 0.414915
O O5 0.098856 0.640517 0.813396
O O6 0.230383 0.740394 0.974498
O O7 0.080520 0.540260 0.000000
O O8 0.435266 0.809809 0.988949
O O9 0.586555 0.776756 0.894487
O O10 0.580903 0.924553 0.262731
O O11 0.269770 0.262761 0.757490
O O12 0.084764 0.169528 0.666667
#
# Coordination Sequence:
#
# PCOD9575529 Si02
#       6
#     6   6   3   6   6   6
#     4   9  17  32  49  67  94 127 165 212 247 289
#     4  10  19  31  44  68 104 134 164 200 241 299
#     4  12  18  30  48  72 104 148 162 198 246 310
#     4  10  20  28  44  70 105 138 163 190 244 311
#     4   9  17  33  52  69  92 125 169 217 251 293
#     4  10  19  31  46  72  97 127 181 207 239 305
#
# _framework density 15.563719000000001
#
# number of rings (size 3 to 8) (size 9 to 14) (size 15 to 20)
#    0.000    2.182    3.636    2.727    2.545    0.000 
#    0.000   15.455    0.000    0.000    0.000    0.000 
#   10.909    0.000    0.000    0.000    0.000    0.000 
#
# Total GULP energy -183787.788753 kJ/mol
# GULP energy per Si atom -5569.326932 kJ/mol
# Density = 1.552830 g / cm^3
# Si number density = 15.563719 Si / 1000 Ang^3
#
#
#
# Elastic Constant Matrix: (Units=GPa)
#
#
# Indices 1 2 3 4 5 6 
#
# 1 74.9730 31.9989 44.3911 0.0002 6.2580 0.0000
# 2 31.9989 74.9730 44.3911 -0.0002 -6.2580 0.0000
# 3 44.3911 44.3911 97.1668 0.0000 0.0000 0.0000
# 4 0.0002 -0.0002 0.0000 14.4656 0.0000 -6.2580
# 5 6.2580 -6.2580 0.0000 0.0000 14.4656 0.0002
# 6 0.0000 0.0000 0.0000 -6.2580 0.0002 21.4871
#
#
#
# Elastic Compliance Matrix: (Units=1/GPa)
#
#
# Indices 1 2 3 4 5 6 
#
# 1 0.020841 -0.005783 -0.006879 0.000000 -0.011518 0.000000
# 2 -0.005783 0.020841 -0.006879 0.000000 0.011518 0.000000
# 3 -0.006879 -0.006879 0.016577 0.000000 0.000000 0.000000
# 4 0.000000 0.000000 0.000000 0.079095 0.000000 0.023036
# 5 -0.011518 0.011518 0.000000 0.000000 0.079095 -0.000001
# 6 0.000000 0.000000 0.000000 0.023036 -0.000001 0.053249
#
#
# Mechanical properties :
#
#
# Convention : Reuss Voigt Hill
#
# Bulk Modulus (GPa) = 52.14902 54.29721 53.22311
# Shear Modulus (GPa) = 15.86430 18.50579 17.18505
#
# Velocity S-wave (km/s) = 3.19613 3.45198 3.32652
# Velocity P-wave (km/s) = 6.87022 7.13099 7.00182
#
# Compressibility (1/GPa) = 0.01917582
#
# Stress axis : x y z
#
# Youngs Moduli (GPa) = 47.98232 47.98232 60.32412
#
# Poissons Ratio (x) = 0.27750 0.41498
# Poissons Ratio (y) = 0.27750 0.41498
# Poissons Ratio (z) = 0.33008 0.33008
#
# Static dielectric constant tensor:
#      x y z
#    x 1.513770 0.000000 0.000000 
#    y 0.000000 1.513770 0.000000 
#    z 0.000000 0.000000 1.567860 
# 
# From -- ./inp_files/2469.got.cif
#   From: 2010.05.17/outbox.cif.g08.bks.cpg/sg151_2_cif.got.tgz:2469.got - 2010.05.20 10:33:20.
