data_PCOD9575989
_publ_section_title
;
Structure prediction by ZEFSAII (Michael W. Deem and Ramdas Pophale) SiO2 
 PCOD9575989
Probable space group: P 31 2 1
;
_chemical_formula_sum "Si O2"
_cell_formula_units_Z 42
_cell_length_a 10.563822
_cell_length_b 10.563822
_cell_length_c 18.465568
_cell_angle_alpha 90.000000
_cell_angle_beta 90.000000
_cell_angle_gamma 120.000000
_cell_volume 1784.577661
_symmetry_space_group_name_H-M "P 31 2 1"
_symmetry_group_IT_number 152
_symmetry_cell_setting 'hexagonal'
loop_
_space_group_symop_operation_xyz
x,y,z
-y,x-y,1/3+z
-x+y,-x,2/3+z
x-y,-y,2/3-z
-x,-x+y,1/3-z
y,x,-z
loop_
_atom_site_type_symbol
_atom_site_label
_atom_site_fract_x
_atom_site_fract_y
_atom_site_fract_z
Si Si1 0.465197 0.273184 0.125201
Si Si2 0.516757 0.995574 0.975918
Si Si3 0.258438 0.274398 0.250702
Si Si4 0.221727 0.454782 0.549802
Si Si5 0.000000 0.699421 0.666667
Si Si6 0.704851 0.649420 0.250586
Si Si7 0.758084 0.758084 0.000000
Si Si8 0.734546 0.769387 0.396917
O O1 0.371327 0.296246 0.187054
O O2 0.634967 0.384665 0.136458
O O3 0.435147 0.315453 0.045168
O O4 0.407845 0.100200 0.120128
O O5 0.661993 0.069785 0.024667
O O6 0.393149 0.897102 0.035901
O O7 0.534928 0.898204 0.917109
O O8 0.434374 0.072880 0.938710
O O9 0.107905 0.264882 0.225047
O O10 0.221998 0.122453 0.290224
O O11 0.167215 0.364320 0.475862
O O12 0.092237 0.369836 0.608627
O O13 0.922783 0.743303 0.604087
O O14 0.786405 0.766936 0.313048
#
# Coordination Sequence:
#
# PCOD9575989 Si02
#       8
#     6   6   6   6   3   6   3   6
#     4  11  21  36  66  88 122 162 199 262 305 369
#     4   9  22  37  60  88 124 154 202 251 299 372
#     4  11  20  38  65  85 119 166 200 254 309 359
#     4  11  20  37  62  93 122 158 207 256 312 359
#     4  10  22  40  58  90 124 156 214 244 310 376
#     4   9  20  39  57  89 125 159 203 244 308 371
#     4  10  22  36  54  98 118 146 220 254 278 384
#     4   9  21  39  60  85 121 166 195 250 307 366
#
# _framework density 23.534980000000001
#
# number of rings (size 3 to 8) (size 9 to 14) (size 15 to 20)
#    0.857    1.143    2.857    0.857    2.000    0.571 
#    0.000    4.286    3.143    0.000    0.000    0.000 
#    0.000    0.000    0.000    0.000    0.000    0.000 
#
# Total GULP energy -234214.865276 kJ/mol
# GULP energy per Si atom -5576.544411 kJ/mol
# Density = 2.348141 g / cm^3
# Si number density = 23.534980 Si / 1000 Ang^3
#
#
#
# Elastic Constant Matrix: (Units=GPa)
#
#
# Indices 1 2 3 4 5 6 
#
# 1 68.3524 22.3569 -0.2160 6.1908 0.0000 0.0000
# 2 22.3569 68.3524 -0.2160 -6.1908 0.0000 0.0000
# 3 -0.2160 -0.2160 50.1580 0.0000 0.0000 0.0000
# 4 6.1908 -6.1908 0.0000 25.9985 0.0000 0.0000
# 5 0.0000 0.0000 0.0000 0.0000 25.9985 6.1908
# 6 0.0000 0.0000 0.0000 0.0000 6.1908 22.9978
#
#
#
# Elastic Compliance Matrix: (Units=1/GPa)
#
#
# Indices 1 2 3 4 5 6 
#
# 1 0.017127 -0.006103 0.000047 -0.005532 0.000000 0.000000
# 2 -0.006103 0.017127 0.000047 0.005532 0.000000 0.000000
# 3 0.000047 0.000047 0.019937 0.000000 0.000000 0.000000
# 4 -0.005532 0.005532 0.000000 0.041098 0.000000 0.000000
# 5 0.000000 0.000000 0.000000 0.000000 0.041098 -0.011063
# 6 0.000000 0.000000 0.000000 0.000000 -0.011063 0.046461
#
#
# Mechanical properties :
#
#
# Convention : Reuss Voigt Hill
#
# Bulk Modulus (GPa) = 23.71004 25.63473 24.67239
# Shear Modulus (GPa) = 23.93217 25.99480 24.96348
#
# Velocity S-wave (km/s) = 3.19231 3.32703 3.26037
# Velocity P-wave (km/s) = 4.86663 5.06702 4.96783
#
# Compressibility (1/GPa) = 0.04217622
#
# Stress axis : x y z
#
# Youngs Moduli (GPa) = 58.38605 58.38605 50.15695
#
# Poissons Ratio (x) = 0.35633 -0.00238
# Poissons Ratio (y) = 0.35633 -0.00238
# Poissons Ratio (z) = -0.00277 -0.00277
#
# Static dielectric constant tensor:
#      x y z
#    x 1.902200 0.000000 0.000000 
#    y 0.000000 1.902200 0.000000 
#    z 0.000000 0.000000 1.976300 
# 
# From -- ./inp_files/2828.got.cif
#   From: 2010.05.17/outbox.cif.g08.bks.cpg/sg152_2_cif.got.tgz:2828.got - 2010.05.20 10:36:06.
