data_PCOD9575210
_publ_section_title
;
Structure prediction by ZEFSAII (Michael W. Deem and Ramdas Pophale) SiO2 
 PCOD9575210
Probable space group: R -3
;
_chemical_formula_sum "Si O2"
_cell_formula_units_Z 84
_cell_length_a 14.131216
_cell_length_b 14.131216
_cell_length_c 22.727153
_cell_angle_alpha 90.000000
_cell_angle_beta 90.000000
_cell_angle_gamma 120.000000
_cell_volume 3930.381771
_symmetry_space_group_name_H-M "R -3"
_symmetry_group_IT_number 148
_symmetry_cell_setting 'hexagonal'
loop_
_space_group_symop_operation_xyz
x,y,z
-y,x-y,z
-x+y,-x,z
-x,-y,-z
y,-x+y,-z
x-y,x,-z
2/3+x,1/3+y,1/3+z
2/3-y,1/3+x-y,1/3+z
2/3-x+y,1/3-x,1/3+z
2/3-x,1/3-y,1/3-z
2/3+y,1/3-x+y,1/3-z
2/3+x-y,1/3+x,1/3-z
1/3+x,2/3+y,2/3+z
1/3-y,2/3+x-y,2/3+z
1/3-x+y,2/3-x,2/3+z
1/3-x,2/3-y,2/3-z
1/3+y,2/3-x+y,2/3-z
1/3+x-y,2/3+x,2/3-z
loop_
_atom_site_type_symbol
_atom_site_label
_atom_site_fract_x
_atom_site_fract_y
_atom_site_fract_z
Si Si1 0.666668 0.333334 0.663002
Si Si2 0.585973 0.497559 0.182031
Si Si3 0.358178 0.344643 0.242715
Si Si4 0.666667 0.333334 0.523276
Si Si5 0.210861 0.874705 0.901026
Si Si6 0.815211 0.045915 0.675161
O O1 0.666668 0.333334 0.592792
O O2 0.742626 0.284602 0.679935
O O3 0.462615 0.418701 0.202137
O O4 0.605198 0.580647 0.128319
O O5 0.636665 0.422214 0.165214
O O6 0.665828 0.576344 0.233358
O O7 0.353249 0.233703 0.265474
O O8 0.362813 0.414220 0.298289
O O9 0.166667 0.833334 0.833334
O O10 0.315705 0.873224 0.928509
O O11 0.833334 0.166667 0.666667
#
# Coordination Sequence:
#
# PCOD9575210 Si02
#       6
#     6  18  18   6  18  18
#     4  12  27  42  72 103 143 190 237 279 367 434
#     4  11  24  42  70 102 141 185 241 299 365 433
#     4  11  26  41  71 105 140 191 235 303 364 437
#     4  12  21  45  75 103 131 187 243 297 340 434
#     4  10  23  45  70  99 139 189 249 295 364 440
#     4  12  27  45  72 103 147 187 242 303 361 439
#
# _framework density 21.371970000000001
#
# number of rings (size 3 to 8) (size 9 to 14) (size 15 to 20)
#    0.000    0.857    2.143    5.143   15.000    0.000 
#    0.000    0.000    0.000    4.286    0.000    0.000 
#    0.000    0.000    0.000    0.000    0.000    0.000 
#
# Total GULP energy -156339.793648 kJ/mol
# GULP energy per Si atom -5583.564059 kJ/mol
# Density = 2.132333 g / cm^3
# Si number density = 21.371970 Si / 1000 Ang^3
#
#
#
# Elastic Constant Matrix: (Units=GPa)
#
#
# Indices 1 2 3 4 5 6 
#
# 1 139.0830 46.3493 22.5805 5.2113 6.2943 0.0000
# 2 46.3493 139.0842 22.5812 -5.2119 -6.2949 0.0000
# 3 22.5805 22.5812 48.3116 -0.0007 -0.0001 0.0007
# 4 5.2113 -5.2119 -0.0007 33.0382 0.0001 -6.2945
# 5 6.2943 -6.2949 -0.0001 0.0001 33.0368 5.2108
# 6 0.0000 0.0000 0.0007 -6.2945 5.2108 46.3657
#
#
#
# Elastic Compliance Matrix: (Units=1/GPa)
#
#
# Indices 1 2 3 4 5 6 
#
# 1 0.008680 -0.002595 -0.002844 -0.001779 -0.002148 0.000000
# 2 -0.002595 0.008680 -0.002844 0.001779 0.002148 0.000000
# 3 -0.002844 -0.002844 0.023358 0.000000 0.000000 0.000000
# 4 -0.001779 0.001779 0.000000 0.031648 0.000000 0.004296
# 5 -0.002148 0.002148 0.000000 0.000000 0.031649 -0.003557
# 6 0.000000 0.000000 0.000000 0.004296 -0.003557 0.022551
#
#
# Mechanical properties :
#
#
# Convention : Reuss Voigt Hill
#
# Bulk Modulus (GPa) = 41.40542 56.61120 49.00831
# Shear Modulus (GPa) = 33.07248 38.15269 35.61258
#
# Velocity S-wave (km/s) = 3.93806 4.22972 4.08649
# Velocity P-wave (km/s) = 6.33194 7.09930 6.72657
#
# Compressibility (1/GPa) = 0.02415143
#
# Stress axis : x y z
#
# Youngs Moduli (GPa) = 115.20340 115.20375 42.81213
#
# Poissons Ratio (x) = 0.29893 0.12177
# Poissons Ratio (y) = 0.29893 0.12178
# Poissons Ratio (z) = 0.32768 0.32769
#
# Static dielectric constant tensor:
#      x y z
#    x 1.822800 0.000000 0.000000 
#    y 0.000000 1.822800 0.000000 
#    z 0.000000 0.000000 1.905250 
# 
# From -- ./inp_files/3355.got.cif
#   From: 2010.05.17/outbox.cif.g08.bks.cpg/sg148_2_cif.got.tgz:3355.got - 2010.05.20 13:50:20.
