data_PCOD9575676
_publ_section_title
;
Structure prediction by ZEFSAII (Michael W. Deem and Ramdas Pophale) SiO2 
 PCOD9575676
Probable space group: P 31 1 2
;
_chemical_formula_sum "Si O2"
_cell_formula_units_Z 36
_cell_length_a 8.009792
_cell_length_b 8.009792
_cell_length_c 29.440611
_cell_angle_alpha 90.000000
_cell_angle_beta 90.000000
_cell_angle_gamma 120.000000
_cell_volume 1635.761294
_symmetry_space_group_name_H-M "P 31 1 2"
_symmetry_group_IT_number 151
_symmetry_cell_setting 'hexagonal'
loop_
_space_group_symop_operation_xyz
x,y,z
-y,x-y,1/3+z
-x+y,-x,2/3+z
-y,-x,2/3-z
-x+y,y,1/3-z
x,x-y,-z
loop_
_atom_site_type_symbol
_atom_site_label
_atom_site_fract_x
_atom_site_fract_y
_atom_site_fract_z
Si Si1 0.233599 0.925961 0.197113
Si Si2 0.684077 0.544967 0.619659
Si Si3 0.464899 0.108910 0.463612
Si Si4 0.054775 0.639796 0.570549
Si Si5 0.462456 0.794948 0.618560
Si Si6 0.007614 0.690623 0.863681
O O1 0.177324 0.089117 0.203202
O O2 0.440348 0.019847 0.221889
O O3 0.251505 0.892649 0.144019
O O4 0.097019 0.714688 0.216155
O O5 0.743697 0.487394 0.666667
O O6 0.563653 0.369990 0.584426
O O7 0.566868 0.663099 0.624274
O O8 0.893004 0.668324 0.595381
O O9 0.369287 0.184644 0.500000
O O10 0.630271 0.116597 0.496585
O O11 0.243148 0.692935 0.599914
O O12 0.437444 0.874888 0.666667
O O13 0.582990 0.944642 0.578836
O O14 0.198906 0.801095 0.833334
#
# Coordination Sequence:
#
# PCOD9575676 Si02
#       6
#     6   6   6   6   6   6
#     4  11  22  39  69 105 135 178 236 303 361 434
#     4  12  24  41  68 103 143 188 245 299 374 453
#     4  12  24  41  68 105 139 180 239 304 362 435
#     4  11  21  40  70 100 136 181 236 297 364 439
#     4  12  24  43  70 100 141 193 243 297 371 450
#     4  12  22  41  69 102 140 182 240 302 363 438
#
# _framework density 22.008102000000001
#
# number of rings (size 3 to 8) (size 9 to 14) (size 15 to 20)
#    0.000    0.333    8.333    1.500    0.000    0.000 
#    0.000    3.333    0.000    1.000    0.000    0.000 
#    0.000    0.000    0.000    0.000    0.000    0.000 
#
# Total GULP energy -200632.809417 kJ/mol
# GULP energy per Si atom -5573.133595 kJ/mol
# Density = 2.195801 g / cm^3
# Si number density = 22.008102 Si / 1000 Ang^3
#
#
#
# Elastic Constant Matrix: (Units=GPa)
#
#
# Indices 1 2 3 4 5 6 
#
# 1 86.0413 19.1859 42.0507 -0.0003 2.4891 0.0000
# 2 19.1859 86.0413 42.0507 0.0003 -2.4891 0.0000
# 3 42.0507 42.0507 174.3592 0.0000 0.0000 0.0000
# 4 -0.0003 0.0003 0.0000 23.9247 0.0000 -2.4891
# 5 2.4891 -2.4891 0.0000 0.0000 23.9247 -0.0003
# 6 0.0000 0.0000 0.0000 -2.4891 -0.0003 33.4277
#
#
#
# Elastic Compliance Matrix: (Units=1/GPa)
#
#
# Indices 1 2 3 4 5 6 
#
# 1 0.013423 -0.001651 -0.002839 0.000000 -0.001568 0.000000
# 2 -0.001651 0.013423 -0.002839 0.000000 0.001568 0.000000
# 3 -0.002839 -0.002839 0.007105 0.000000 0.000000 0.000000
# 4 0.000000 0.000000 0.000000 0.042124 0.000000 0.003137
# 5 -0.001568 0.001568 0.000000 0.000000 0.042124 0.000000
# 6 0.000000 0.000000 0.000000 0.003137 0.000000 0.030149
#
#
# Mechanical properties :
#
#
# Convention : Reuss Voigt Hill
#
# Bulk Modulus (GPa) = 51.83263 61.44627 56.63945
# Shear Modulus (GPa) = 29.50921 32.46571 30.98746
#
# Velocity S-wave (km/s) = 3.66571 3.84496 3.75641
# Velocity P-wave (km/s) = 6.44355 6.90595 6.67875
#
# Compressibility (1/GPa) = 0.01929286
#
# Stress axis : x y z
#
# Youngs Moduli (GPa) = 74.49655 74.49655 140.75063
#
# Poissons Ratio (x) = 0.12299 0.39962
# Poissons Ratio (y) = 0.12299 0.39962
# Poissons Ratio (z) = 0.21151 0.21151
#
# Static dielectric constant tensor:
#      x y z
#    x 1.913970 0.000000 0.000000 
#    y 0.000000 1.913970 0.000000 
#    z 0.000000 0.000000 1.798680 
# 
# From -- ./inp_files/4870.got.cif
#   From: 2010.05.17/outbox.cif.g08.bks.cpg/sg151_3_cif.got.tgz:4870.got - 2010.05.20 10:33:20.
