data_PCOD9575006
_publ_section_title
;
Structure prediction by ZEFSAII (Michael W. Deem and Ramdas Pophale) SiO2 
 PCOD9575006
Probable space group: R -3
;
_chemical_formula_sum "Si O2"
_cell_formula_units_Z 54
_cell_length_a 9.496475
_cell_length_b 9.496475
_cell_length_c 24.723458
_cell_angle_alpha 90.000000
_cell_angle_beta 90.000000
_cell_angle_gamma 120.000000
_cell_volume 1930.921883
_symmetry_space_group_name_H-M "R -3"
_symmetry_group_IT_number 148
_symmetry_cell_setting 'hexagonal'
loop_
_space_group_symop_operation_xyz
x,y,z
-y,x-y,z
-x+y,-x,z
-x,-y,-z
y,-x+y,-z
x-y,x,-z
2/3+x,1/3+y,1/3+z
2/3-y,1/3+x-y,1/3+z
2/3-x+y,1/3-x,1/3+z
2/3-x,1/3-y,1/3-z
2/3+y,1/3-x+y,1/3-z
2/3+x-y,1/3+x,1/3-z
1/3+x,2/3+y,2/3+z
1/3-y,2/3+x-y,2/3+z
1/3-x+y,2/3-x,2/3+z
1/3-x,2/3-y,2/3-z
1/3+y,2/3-x+y,2/3-z
1/3+x-y,2/3+x,2/3-z
loop_
_atom_site_type_symbol
_atom_site_label
_atom_site_fract_x
_atom_site_fract_y
_atom_site_fract_z
Si Si1 0.681312 0.748966 0.101094
Si Si2 0.623120 0.913127 0.452935
Si Si3 0.852598 0.791686 0.327385
O O1 0.558263 0.559044 0.107290
O O2 0.795016 0.786723 0.154336
O O3 0.613263 0.869406 0.117173
O O4 0.687427 0.772484 0.036049
O O5 0.521287 0.921131 0.402101
O O6 0.833374 0.952063 0.337003
#
# Coordination Sequence:
#
# PCOD9575006 Si02
#       3
#    18  18  18
#     4  10  18  31  54  78 108 149 181 236 274 322
#     4  10  19  33  54  85 113 144 193 237 282 331
#     4  10  20  34  57  80 116 153 186 234 281 340
#
# _framework density 27.965919
#
# number of rings (size 3 to 8) (size 9 to 14) (size 15 to 20)
#    0.667    1.333    3.333    1.667    0.000    2.667 
#    0.000    6.667    0.000    0.000    0.000    0.000 
#    3.333   13.333    0.000    0.000    0.000    0.000 
#
# Total GULP energy -100297.781935 kJ/mol
# GULP energy per Si atom -5572.098996 kJ/mol
# Density = 2.790227 g / cm^3
# Si number density = 27.965919 Si / 1000 Ang^3
#
#
#
# Elastic Constant Matrix: (Units=GPa)
#
#
# Indices 1 2 3 4 5 6 
#
# 1 86.8114 27.0848 33.4306 -6.6257 7.2825 0.0000
# 2 27.0848 86.8114 33.4306 6.6257 -7.2825 0.0000
# 3 33.4306 33.4306 354.2032 0.0000 0.0000 0.0000
# 4 -6.6257 6.6257 0.0000 37.1277 0.0000 -7.2825
# 5 7.2825 -7.2825 0.0000 0.0000 37.1277 -6.6257
# 6 0.0000 0.0000 0.0000 -7.2825 -6.6257 29.8633
#
#
#
# Elastic Compliance Matrix: (Units=1/GPa)
#
#
# Indices 1 2 3 4 5 6 
#
# 1 0.013821 -0.004526 -0.000877 0.003274 -0.003599 0.000000
# 2 -0.004526 0.013821 -0.000877 -0.003274 0.003599 0.000000
# 3 -0.000877 -0.000877 0.002989 0.000000 0.000000 0.000000
# 4 0.003274 -0.003274 0.000000 0.029514 0.000000 0.007197
# 5 -0.003599 0.003599 0.000000 0.000000 0.029514 0.006548
# 6 0.000000 0.000000 0.000000 0.007197 0.006548 0.036694
#
#
# Mechanical properties :
#
#
# Convention : Reuss Voigt Hill
#
# Bulk Modulus (GPa) = 55.34169 79.52423 67.43296
# Shear Modulus (GPa) = 34.49756 49.74907 42.12332
#
# Velocity S-wave (km/s) = 3.51601 4.22230 3.88524
# Velocity P-wave (km/s) = 6.02620 7.22968 6.65520
#
# Compressibility (1/GPa) = 0.01806956
#
# Stress axis : x y z
#
# Youngs Moduli (GPa) = 72.35392 72.35392 334.57824
#
# Poissons Ratio (x) = 0.32748 0.29352
# Poissons Ratio (y) = 0.32748 0.29352
# Poissons Ratio (z) = 0.06347 0.06347
#
# Static dielectric constant tensor:
#      x y z
#    x 2.176410 0.000000 0.000000 
#    y 0.000000 2.176410 0.000000 
#    z 0.000000 0.000000 2.329700 
# 
# From -- ./inp_files/2978.got.cif
#   From: 2010.05.17/outbox.cif.g08.bks.cpg/sg148_2_cif.got.tgz:2978.got - 2010.05.20 13:50:20.
