data_PCOD9575991
_publ_section_title
;
Structure prediction by ZEFSAII (Michael W. Deem and Ramdas Pophale) SiO2 
 PCOD9575991
Probable space group: P 31 2 1
;
_chemical_formula_sum "Si O2"
_cell_formula_units_Z 42
_cell_length_a 9.239920
_cell_length_b 9.239920
_cell_length_c 30.847149
_cell_angle_alpha 90.000000
_cell_angle_beta 90.000000
_cell_angle_gamma 120.000000
_cell_volume 2280.773115
_symmetry_space_group_name_H-M "P 31 2 1"
_symmetry_group_IT_number 152
_symmetry_cell_setting 'hexagonal'
loop_
_space_group_symop_operation_xyz
x,y,z
-y,x-y,1/3+z
-x+y,-x,2/3+z
x-y,-y,2/3-z
-x,-x+y,1/3-z
y,x,-z
loop_
_atom_site_type_symbol
_atom_site_label
_atom_site_fract_x
_atom_site_fract_y
_atom_site_fract_z
Si Si1 0.580761 0.186465 0.667253
Si Si2 0.262808 0.331951 0.896216
Si Si3 0.938335 0.976934 0.881610
Si Si4 0.110123 0.288391 0.627864
Si Si5 0.625174 0.916881 0.129333
Si Si6 0.575913 0.455460 0.725880
Si Si7 0.607296 0.451801 0.930007
O O1 0.710285 0.139098 0.689280
O O2 0.528788 0.282929 0.701291
O O3 0.696255 0.321745 0.631147
O O4 0.446797 0.023702 0.641315
O O5 0.320227 0.397266 0.847156
O O6 0.216592 0.454152 0.922082
O O7 0.416924 0.331260 0.919005
O O8 0.103126 0.148703 0.893041
O O9 0.885003 0.000000 0.833334
O O10 0.804587 0.929583 0.919451
O O11 0.966712 0.817985 0.878660
O O12 0.000000 0.162712 0.666667
O O13 0.997239 0.371604 0.615246
O O14 0.581391 0.031441 0.099339
O O15 0.510246 0.729265 0.111420
#
# Coordination Sequence:
#
# PCOD9575991 Si02
#       7
#     6   6   6   6   6   6   6
#     4  10  22  37  54  81 122 149 186 236 293 349
#     4  11  20  35  61  88 109 144 201 242 281 342
#     4   9  20  36  58  84 113 146 195 239 281 344
#     4   9  17  36  57  76 108 155 188 222 286 349
#     4   9  20  39  58  80 115 154 188 237 291 346
#     4  11  23  37  58  87 116 152 190 241 295 345
#     4   9  18  36  57  79 109 152 190 229 279 347
#
# _framework density 18.414807
#
# number of rings (size 3 to 8) (size 9 to 14) (size 15 to 20)
#    0.000    2.286    1.429    1.714    2.000    1.143 
#    2.571    0.000    0.000    0.857    0.000    0.000 
#    0.000    0.000    0.000    0.000    0.000    0.000 
#
# Total GULP energy -234302.642316 kJ/mol
# GULP energy per Si atom -5578.634341 kJ/mol
# Density = 1.837289 g / cm^3
# Si number density = 18.414807 Si / 1000 Ang^3
#
#
#
# Elastic Constant Matrix: (Units=GPa)
#
#
# Indices 1 2 3 4 5 6 
#
# 1 48.2406 21.5858 37.5480 6.8476 -0.0003 0.0000
# 2 21.5858 48.2406 37.5480 -6.8476 0.0003 0.0000
# 3 37.5480 37.5480 100.6732 0.0000 0.0000 0.0000
# 4 6.8476 -6.8476 0.0000 22.4081 0.0000 0.0003
# 5 -0.0003 0.0003 0.0000 0.0000 22.4081 6.8476
# 6 0.0000 0.0000 0.0000 0.0003 6.8476 13.3274
#
#
#
# Elastic Compliance Matrix: (Units=1/GPa)
#
#
# Indices 1 2 3 4 5 6 
#
# 1 0.034209 -0.010295 -0.008919 -0.013600 0.000001 0.000000
# 2 -0.010295 0.034209 -0.008919 0.013600 -0.000001 0.000000
# 3 -0.008919 -0.008919 0.016586 0.000000 0.000000 0.000000
# 4 -0.013600 0.013600 0.000000 0.052938 0.000000 -0.000001
# 5 0.000001 -0.000001 0.000000 0.000000 0.052938 -0.027200
# 6 0.000000 0.000000 0.000000 -0.000001 -0.027200 0.089008
#
#
# Mechanical properties :
#
#
# Convention : Reuss Voigt Hill
#
# Bulk Modulus (GPa) = 34.79840 43.39087 39.09464
# Shear Modulus (GPa) = 14.46198 18.32691 16.39444
#
# Velocity S-wave (km/s) = 2.80544 3.15814 2.98700
# Velocity P-wave (km/s) = 5.42513 6.07558 5.75954
#
# Compressibility (1/GPa) = 0.02873695
#
# Stress axis : x y z
#
# Youngs Moduli (GPa) = 29.23231 29.23231 60.29156
#
# Poissons Ratio (x) = 0.30096 0.53773
# Poissons Ratio (y) = 0.30096 0.53773
# Poissons Ratio (z) = 0.26072 0.26072
#
# Static dielectric constant tensor:
#      x y z
#    x 1.611900 0.000000 0.000000 
#    y 0.000000 1.611900 0.000000 
#    z 0.000000 0.000000 1.658510 
# 
# From -- ./inp_files/3705.got.cif
#   From: 2010.05.17/outbox.cif.g08.bks.cpg/sg152_2_cif.got.tgz:3705.got - 2010.05.20 10:36:06.
