data_PCOD9575419
_publ_section_title
;
Structure prediction by ZEFSAII (Michael W. Deem and Ramdas Pophale) SiO2 
 PCOD9575419
Probable space group: P 3 2 1
;
_chemical_formula_sum "Si O2"
_cell_formula_units_Z 38
_cell_length_a 14.866175
_cell_length_b 14.866175
_cell_length_c 11.430673
_cell_angle_alpha 90.000000
_cell_angle_beta 90.000000
_cell_angle_gamma 120.000000
_cell_volume 2187.766230
_symmetry_space_group_name_H-M "P 3 2 1"
_symmetry_group_IT_number 150
_symmetry_cell_setting 'hexagonal'
loop_
_space_group_symop_operation_xyz
x,y,z
-y,x-y,z
-x+y,-x,z
x-y,-y,-z
-x,-x+y,-z
y,x,-z
loop_
_atom_site_type_symbol
_atom_site_label
_atom_site_fract_x
_atom_site_fract_y
_atom_site_fract_z
Si Si1 0.791321 0.791321 0.641762
Si Si2 0.731255 0.560734 0.640059
Si Si3 0.731255 0.560734 0.359941
Si Si4 0.567569 0.365273 0.000000
Si Si5 0.605773 0.116674 0.256841
Si Si6 0.000000 0.000000 0.643108
Si Si7 0.605773 0.116674 0.743159
O O1 0.794768 0.794768 0.500000
O O2 0.781644 0.681508 0.676038
O O3 0.681508 0.781644 0.676038
O O4 0.895148 0.895148 0.681283
O O5 0.719160 0.555701 0.500000
O O6 0.802974 0.514139 0.679111
O O7 0.619242 0.489018 0.697480
O O8 0.802974 0.514139 0.320889
O O9 0.619242 0.489018 0.302520
O O10 0.559136 0.252116 0.000000
O O11 0.521772 0.381170 0.881317
O O12 0.521772 0.381170 0.118683
O O13 0.577847 1.000000 0.280567
O O14 0.000000 0.000000 0.500000
#
# Coordination Sequence:
#
# PCOD9575419 Si02
#       7
#     6   6   6   6   6   2   6
#     4   9  20  36  55  80 113 152 195 228 269 337
#     4  11  22  37  56  85 122 156 188 231 288 355
#     4  11  22  37  56  85 122 156 188 231 288 355
#     4  10  19  40  62  78 112 156 196 241 292 348
#     4  12  23  38  61  86 117 153 195 244 297 346
#     4   9  18  36  57  75 105 154 191 229 270 315
#     4  12  23  38  61  86 117 153 195 244 297 346
#
# _framework density 17.369312999999998
#
# number of rings (size 3 to 8) (size 9 to 14) (size 15 to 20)
#    0.316    0.947    4.737    2.053    2.211    1.895 
#    0.000    0.000    0.000    0.000    0.000    0.000 
#    0.000    0.000    0.000    0.000    0.000    0.000 
#
# Total GULP energy -212059.022395 kJ/mol
# GULP energy per Si atom -5580.500589 kJ/mol
# Density = 1.732978 g / cm^3
# Si number density = 17.369313 Si / 1000 Ang^3
#
#
#
# Elastic Constant Matrix: (Units=GPa)
#
#
# Indices 1 2 3 4 5 6 
#
# 1 88.2288 17.9265 -3.0559 0.0000 0.0000 0.0000
# 2 17.9265 88.2288 -3.0559 0.0000 0.0000 0.0000
# 3 -3.0559 -3.0559 45.6345 0.0000 0.0000 0.0000
# 4 0.0000 0.0000 0.0000 4.8395 0.0000 0.0000
# 5 0.0000 0.0000 0.0000 0.0000 4.8395 0.0000
# 6 0.0000 0.0000 0.0000 0.0000 0.0000 35.1512
#
#
#
# Elastic Compliance Matrix: (Units=1/GPa)
#
#
# Indices 1 2 3 4 5 6 
#
# 1 0.011840 -0.002384 0.000633 0.000000 0.000000 0.000000
# 2 -0.002384 0.011840 0.000633 0.000000 0.000000 0.000000
# 3 0.000633 0.000633 0.021998 0.000000 0.000000 0.000000
# 4 0.000000 0.000000 0.000000 0.206632 0.000000 0.000000
# 5 0.000000 0.000000 0.000000 0.000000 0.206632 0.000000
# 6 0.000000 0.000000 0.000000 0.000000 0.000000 0.028449
#
#
# Mechanical properties :
#
#
# Convention : Reuss Voigt Hill
#
# Bulk Modulus (GPa) = 23.01795 27.30237 25.16016
# Shear Modulus (GPa) = 9.91853 22.98455 16.45154
#
# Velocity S-wave (km/s) = 2.39223 3.64164 3.08094
# Velocity P-wave (km/s) = 4.57288 5.78230 5.21278
#
# Compressibility (1/GPa) = 0.04344436
#
# Stress axis : x y z
#
# Youngs Moduli (GPa) = 84.45623 84.45623 45.45858
#
# Poissons Ratio (x) = 0.20133 -0.02879
# Poissons Ratio (y) = 0.20133 -0.02879
# Poissons Ratio (z) = -0.05348 -0.05348
#
# Static dielectric constant tensor:
#      x y z
#    x 1.579510 0.000000 0.000000 
#    y 0.000000 1.579510 0.000000 
#    z 0.000000 0.000000 1.559460 
# 
# From -- ./inp_files/936.got.cif
#   From: 2010.05.17/outbox.cif.g08.bks.cpg/sg150_cif.got.tgz:936.got - 2010.05.20 13:53:18.
