data_PCOD9575792
_publ_section_title
;
Structure prediction by ZEFSAII (Michael W. Deem and Ramdas Pophale) SiO2 
 PCOD9575792
Probable space group: P 31 2 1
;
_chemical_formula_sum "Si O2"
_cell_formula_units_Z 33
_cell_length_a 14.840454
_cell_length_b 14.840454
_cell_length_c 8.643478
_cell_angle_alpha 90.000000
_cell_angle_beta 90.000000
_cell_angle_gamma 120.000000
_cell_volume 1648.593324
_symmetry_space_group_name_H-M "P 31 2 1"
_symmetry_group_IT_number 152
_symmetry_cell_setting 'hexagonal'
loop_
_space_group_symop_operation_xyz
x,y,z
-y,x-y,1/3+z
-x+y,-x,2/3+z
x-y,-y,2/3-z
-x,-x+y,1/3-z
y,x,-z
loop_
_atom_site_type_symbol
_atom_site_label
_atom_site_fract_x
_atom_site_fract_y
_atom_site_fract_z
Si Si1 0.604964 0.369428 0.469400
Si Si2 0.000000 0.436814 0.666667
Si Si3 0.561189 0.794257 0.619007
Si Si4 0.464883 0.818887 0.200335
Si Si5 0.331270 0.999411 0.010647
Si Si6 0.116190 0.797982 0.676993
O O1 0.516081 0.318770 0.596615
O O2 0.703478 0.481676 0.498633
O O3 0.650436 0.291542 0.434727
O O4 0.551520 0.380159 0.314677
O O5 0.901115 0.448990 0.702496
O O6 0.976812 0.372781 0.504357
O O7 0.632006 0.754137 0.698815
O O8 0.633212 0.887738 0.510121
O O9 0.582358 0.845160 0.229536
O O10 0.291971 0.082779 0.994343
O O11 0.373560 0.000000 0.833334
O O12 0.000000 0.777092 0.666667
#
# Coordination Sequence:
#
# PCOD9575792 Si02
#       6
#     6   3   6   6   6   6
#     4  10  19  37  58  91 131 165 209 259 311 395
#     4  12  20  40  64  90 134 170 218 252 326 402
#     4  10  21  39  63  94 126 171 215 266 327 392
#     4  11  21  35  57  93 128 173 213 256 321 391
#     4  10  23  41  65  90 121 172 221 267 325 378
#     4  11  23  39  57  90 126 168 218 278 324 377
#
# _framework density 20.017067000000001
#
# number of rings (size 3 to 8) (size 9 to 14) (size 15 to 20)
#    0.000    1.455    4.545    3.273    0.000    2.909 
#    0.000    0.909    0.000    0.000   21.273    0.000 
#    0.000    0.000    0.000    0.000    0.000    0.000 
#
# Total GULP energy -183724.408886 kJ/mol
# GULP energy per Si atom -5567.406330 kJ/mol
# Density = 1.997151 g / cm^3
# Si number density = 20.017067 Si / 1000 Ang^3
#
#
#
# Elastic Constant Matrix: (Units=GPa)
#
#
# Indices 1 2 3 4 5 6 
#
# 1 67.3337 21.3256 5.1202 0.0114 0.0002 0.0000
# 2 21.3256 67.3337 5.1202 -0.0114 -0.0002 0.0000
# 3 5.1202 5.1202 95.7577 0.0000 0.0000 0.0000
# 4 0.0114 -0.0114 0.0000 22.3116 0.0000 -0.0002
# 5 0.0002 -0.0002 0.0000 0.0000 22.3116 0.0114
# 6 0.0000 0.0000 0.0000 -0.0002 0.0114 23.0041
#
#
#
# Elastic Compliance Matrix: (Units=1/GPa)
#
#
# Indices 1 2 3 4 5 6 
#
# 1 0.016542 -0.005193 -0.000607 -0.000011 0.000000 0.000000
# 2 -0.005193 0.016542 -0.000607 0.000011 0.000000 0.000000
# 3 -0.000607 -0.000607 0.010508 0.000000 0.000000 0.000000
# 4 -0.000011 0.000011 0.000000 0.044820 0.000000 0.000000
# 5 0.000000 0.000000 0.000000 0.000000 0.044820 -0.000022
# 6 0.000000 0.000000 0.000000 0.000000 -0.000022 0.043471
#
#
# Mechanical properties :
#
#
# Convention : Reuss Voigt Hill
#
# Bulk Modulus (GPa) = 32.48971 32.61746 32.55358
# Shear Modulus (GPa) = 25.02809 26.78275 25.90542
#
# Velocity S-wave (km/s) = 3.53985 3.66183 3.60136
# Velocity P-wave (km/s) = 5.74226 5.84883 5.79579
#
# Compressibility (1/GPa) = 0.03077898
#
# Stress axis : x y z
#
# Youngs Moduli (GPa) = 60.45123 60.45123 95.16632
#
# Poissons Ratio (x) = 0.31393 0.05775
# Poissons Ratio (y) = 0.31393 0.05775
# Poissons Ratio (z) = 0.03668 0.03668
#
# Static dielectric constant tensor:
#      x y z
#    x 1.721950 0.000000 0.000000 
#    y 0.000000 1.721950 0.000000 
#    z 0.000000 0.000000 1.823230 
# 
# From -- ./inp_files/1129.got.cif
#   From: 2010.05.17/outbox.cif.g08.bks.cpg/sg152_1_cif.got.tgz:1129.got - 2010.05.20 10:36:06.
