data_PCOD9575192
_publ_section_title
;
Structure prediction by ZEFSAII (Michael W. Deem and Ramdas Pophale) SiO2 
 PCOD9575192
Probable space group: R -3
;
_chemical_formula_sum "Si O2"
_cell_formula_units_Z 78
_cell_length_a 19.128872
_cell_length_b 19.128872
_cell_length_c 12.711386
_cell_angle_alpha 90.000000
_cell_angle_beta 90.000000
_cell_angle_gamma 120.000000
_cell_volume 4028.118710
_symmetry_space_group_name_H-M "R -3"
_symmetry_group_IT_number 148
_symmetry_cell_setting 'hexagonal'
loop_
_space_group_symop_operation_xyz
x,y,z
-y,x-y,z
-x+y,-x,z
-x,-y,-z
y,-x+y,-z
x-y,x,-z
2/3+x,1/3+y,1/3+z
2/3-y,1/3+x-y,1/3+z
2/3-x+y,1/3-x,1/3+z
2/3-x,1/3-y,1/3-z
2/3+y,1/3-x+y,1/3-z
2/3+x-y,1/3+x,1/3-z
1/3+x,2/3+y,2/3+z
1/3-y,2/3+x-y,2/3+z
1/3-x+y,2/3-x,2/3+z
1/3-x,2/3-y,2/3-z
1/3+y,2/3-x+y,2/3-z
1/3+x-y,2/3+x,2/3-z
loop_
_atom_site_type_symbol
_atom_site_label
_atom_site_fract_x
_atom_site_fract_y
_atom_site_fract_z
Si Si1 0.007499 0.736731 0.252878
Si Si2 0.994125 0.497063 0.371979
Si Si3 0.000000 0.000000 0.122937
Si Si4 0.095811 0.904188 0.133221
Si Si5 0.992500 0.729233 0.747119
O O1 0.925247 0.708783 0.319243
O O2 0.983344 0.666665 0.166665
O O3 0.041215 0.819480 0.191171
O O4 0.072149 0.738815 0.333331
O O5 0.042119 0.591913 0.347423
O O6 0.000000 0.500000 0.500000
O O7 0.906095 0.453048 0.314532
O O8 0.904769 0.952385 0.146189
O O9 0.000000 0.000000 0.000000
O O10 0.180517 0.958782 0.191175
#
# Coordination Sequence:
#
# PCOD9575192 Si02
#       5
#    18  18   6  18  18
#     4  11  22  40  66  94 127 172 215 263 323 382
#     4  10  23  37  62  90 132 169 204 264 322 379
#     4  12  33  39  63  99 127 176 214 261 327 393
#     4  12  25  46  64  94 134 170 220 264 324 391
#     4  11  22  40  66  94 127 172 215 263 323 382
#
# _framework density 19.363878
#
# number of rings (size 3 to 8) (size 9 to 14) (size 15 to 20)
#    0.000    0.923    4.615    2.077   12.923    0.000 
#    0.000    0.000    0.000    0.000    0.000    1.615 
#    0.000    0.000    0.000    0.000    0.000    0.000 
#
# Total GULP energy -144922.751018 kJ/mol
# GULP energy per Si atom -5573.951962 kJ/mol
# Density = 1.931980 g / cm^3
# Si number density = 19.363878 Si / 1000 Ang^3
#
#
#
# Elastic Constant Matrix: (Units=GPa)
#
#
# Indices 1 2 3 4 5 6 
#
# 1 148.6883 77.1801 59.0609 1.4210 0.0000 0.0000
# 2 77.1801 148.6883 59.0609 -1.4210 0.0000 0.0000
# 3 59.0609 59.0609 64.4767 0.0000 0.0000 0.0000
# 4 1.4210 -1.4210 0.0000 36.6405 0.0000 0.0000
# 5 0.0000 0.0000 0.0000 0.0000 36.6405 1.4210
# 6 0.0000 0.0000 0.0000 0.0000 1.4210 35.7541
#
#
#
# Elastic Compliance Matrix: (Units=1/GPa)
#
#
# Indices 1 2 3 4 5 6 
#
# 1 0.011252 -0.002754 -0.007785 -0.000543 0.000000 0.000000
# 2 -0.002754 0.011252 -0.007785 0.000543 0.000000 0.000000
# 3 -0.007785 -0.007785 0.029771 0.000000 0.000000 0.000000
# 4 -0.000543 0.000543 0.000000 0.027334 0.000000 0.000000
# 5 0.000000 0.000000 0.000000 0.000000 0.027334 -0.001086
# 6 0.000000 0.000000 0.000000 0.000000 -0.001086 0.028012
#
#
# Mechanical properties :
#
#
# Convention : Reuss Voigt Hill
#
# Bulk Modulus (GPa) = 63.98194 83.60631 73.79413
# Shear Modulus (GPa) = 28.27863 32.91044 30.59453
#
# Velocity S-wave (km/s) = 3.82564 4.12707 3.97921
# Velocity P-wave (km/s) = 7.25449 8.12283 7.70091
#
# Compressibility (1/GPa) = 0.01562941
#
# Stress axis : x y z
#
# Youngs Moduli (GPa) = 88.87127 88.87127 33.58976
#
# Poissons Ratio (x) = 0.24473 0.26148
# Poissons Ratio (y) = 0.24473 0.26148
# Poissons Ratio (z) = 0.69183 0.69183
#
# Static dielectric constant tensor:
#      x y z
#    x 1.675190 0.000000 0.000000 
#    y 0.000000 1.675190 0.000000 
#    z 0.000000 0.000000 1.719010 
# 
# From -- ./inp_files/1915.got.cif
#   From: 2010.05.17/outbox.cif.g08.bks.cpg/sg148_1_cif.got.tgz:1915.got - 2010.05.20 13:50:20.
