data_PCOD9575301
_publ_section_title
;
Structure prediction by ZEFSAII (Michael W. Deem and Ramdas Pophale) SiO2 
 PCOD9575301
Probable space group: R -3
;
_chemical_formula_sum "Si O2"
_cell_formula_units_Z 60
_cell_length_a 13.937544
_cell_length_b 13.937544
_cell_length_c 14.502705
_cell_angle_alpha 90.000000
_cell_angle_beta 90.000000
_cell_angle_gamma 120.000000
_cell_volume 2439.788319
_symmetry_space_group_name_H-M "R -3"
_symmetry_group_IT_number 148
_symmetry_cell_setting 'hexagonal'
loop_
_space_group_symop_operation_xyz
x,y,z
-y,x-y,z
-x+y,-x,z
-x,-y,-z
y,-x+y,-z
x-y,x,-z
2/3+x,1/3+y,1/3+z
2/3-y,1/3+x-y,1/3+z
2/3-x+y,1/3-x,1/3+z
2/3-x,1/3-y,1/3-z
2/3+y,1/3-x+y,1/3-z
2/3+x-y,1/3+x,1/3-z
1/3+x,2/3+y,2/3+z
1/3-y,2/3+x-y,2/3+z
1/3-x+y,2/3-x,2/3+z
1/3-x,2/3-y,2/3-z
1/3+y,2/3-x+y,2/3-z
1/3+x-y,2/3+x,2/3-z
loop_
_atom_site_type_symbol
_atom_site_label
_atom_site_fract_x
_atom_site_fract_y
_atom_site_fract_z
Si Si1 0.930291 0.782617 0.705931
Si Si2 0.000000 0.000000 0.392535
Si Si3 0.001286 0.478222 0.370079
Si Si4 0.539830 0.890494 0.801184
O O1 0.833334 0.666667 0.666667
O O2 0.653986 0.758451 0.603481
O O3 0.902769 0.801876 0.809922
O O4 0.055771 0.807158 0.700530
O O5 0.050292 0.927677 0.354009
O O6 0.000000 0.000000 0.500000
O O7 0.042438 0.424060 0.447624
O O8 0.553401 0.802428 0.738672
#
# Coordination Sequence:
#
# PCOD9575301 Si02
#       4
#    18   6  18  18
#     4  12  28  49  80 113 166 214 276 346 412 499
#     4  12  30  51  75 130 164 220 294 342 429 508
#     4  11  27  50  80 117 155 217 271 338 420 485
#     4  11  27  50  78 117 159 212 281 330 415 503
#
# _framework density 24.592298
#
# number of rings (size 3 to 8) (size 9 to 14) (size 15 to 20)
#    0.000    0.600    3.000    1.800   16.800    0.000 
#    0.000    1.500    0.000    0.000    0.000    0.000 
#    0.000    0.000    0.000    0.000    0.000    0.000 
#
# Total GULP energy -111864.059548 kJ/mol
# GULP energy per Si atom -5593.202977 kJ/mol
# Density = 2.453632 g / cm^3
# Si number density = 24.592298 Si / 1000 Ang^3
#
#
#
# Elastic Constant Matrix: (Units=GPa)
#
#
# Indices 1 2 3 4 5 6 
#
# 1 154.3137 63.6029 75.1384 -6.1191 -13.6716 0.0000
# 2 63.6029 154.3137 75.1384 6.1191 13.6716 0.0000
# 3 75.1384 75.1384 176.6098 0.0000 0.0000 0.0000
# 4 -6.1191 6.1191 0.0000 56.4907 0.0000 13.6716
# 5 -13.6716 13.6716 0.0000 0.0000 56.4907 -6.1191
# 6 0.0000 0.0000 0.0000 13.6716 -6.1191 45.3554
#
#
#
# Elastic Compliance Matrix: (Units=1/GPa)
#
#
# Indices 1 2 3 4 5 6 
#
# 1 0.009288 -0.002794 -0.002763 0.001309 0.002924 0.000000
# 2 -0.002794 0.009288 -0.002763 -0.001309 -0.002924 0.000000
# 3 -0.002763 -0.002763 0.008013 0.000000 0.000000 0.000000
# 4 0.001309 -0.001309 0.000000 0.019401 0.000000 -0.005848
# 5 0.002924 -0.002924 0.000000 0.000000 0.019401 0.002617
# 6 0.000000 0.000000 0.000000 -0.005848 0.002617 0.024164
#
#
# Mechanical properties :
#
#
# Convention : Reuss Voigt Hill
#
# Bulk Modulus (GPa) = 100.50403 101.44404 100.97404
# Shear Modulus (GPa) = 45.65727 49.75786 47.70756
#
# Velocity S-wave (km/s) = 4.31347 4.50300 4.40925
# Velocity P-wave (km/s) = 8.10955 8.26897 8.18965
#
# Compressibility (1/GPa) = 0.00994985
#
# Stress axis : x y z
#
# Youngs Moduli (GPa) = 107.66403 107.66403 124.79385
#
# Poissons Ratio (x) = 0.30080 0.34480
# Poissons Ratio (y) = 0.30080 0.34480
# Poissons Ratio (z) = 0.29747 0.29747
#
# Static dielectric constant tensor:
#      x y z
#    x 1.928420 0.000000 0.000000 
#    y 0.000000 1.928420 0.000000 
#    z 0.000000 0.000000 1.907910 
# 
# From -- ./inp_files/1364.got.cif
#   From: 2010.05.17/outbox.cif.g08.bks.cpg/sg148_1_cif.got.tgz:1364.got - 2010.05.20 13:50:20.
