data_PCOD9575817
_publ_section_title
;
Structure prediction by ZEFSAII (Michael W. Deem and Ramdas Pophale) SiO2 
 PCOD9575817
Probable space group: P 31 2 1
;
_chemical_formula_sum "Si O2"
_cell_formula_units_Z 48
_cell_length_a 12.225624
_cell_length_b 12.225624
_cell_length_c 20.723884
_cell_angle_alpha 90.000000
_cell_angle_beta 90.000000
_cell_angle_gamma 120.000000
_cell_volume 2682.525470
_symmetry_space_group_name_H-M "P 31 2 1"
_symmetry_group_IT_number 152
_symmetry_cell_setting 'hexagonal'
loop_
_space_group_symop_operation_xyz
x,y,z
-y,x-y,1/3+z
-x+y,-x,2/3+z
x-y,-y,2/3-z
-x,-x+y,1/3-z
y,x,-z
loop_
_atom_site_type_symbol
_atom_site_label
_atom_site_fract_x
_atom_site_fract_y
_atom_site_fract_z
Si Si1 0.657472 0.632038 0.845761
Si Si2 0.579579 0.862924 0.152229
Si Si3 0.139880 0.749072 0.157587
Si Si4 0.299399 0.691548 0.371842
Si Si5 0.554567 0.085391 0.386583
Si Si6 0.390700 0.844556 0.917950
Si Si7 0.114532 0.622057 0.900960
Si Si8 0.437349 0.553543 0.383708
O O1 0.802361 0.668947 0.846676
O O2 0.636072 0.745501 0.824491
O O3 0.581079 0.583896 0.912665
O O4 0.591965 0.506272 0.801885
O O5 0.469686 0.772192 0.101664
O O6 0.519819 0.864617 0.221740
O O7 0.644953 0.003774 0.124424
O O8 0.162261 0.663451 0.210809
O O9 0.131042 0.681098 0.090560
O O10 0.000000 0.728673 0.166667
O O11 0.357777 0.805518 0.321092
O O12 0.198414 0.580733 0.325775
O O13 0.418016 0.673611 0.389718
O O14 0.572557 0.000000 0.333334
O O15 0.253888 0.742227 0.890307
O O16 0.439616 0.994468 0.920997
O O17 0.098130 0.585272 0.976097
#
# Coordination Sequence:
#
# PCOD9575817 Si02
#       8
#     6   6   6   6   6   6   6   6
#     4  11  22  37  61  88 120 163 203 264 316 368
#     4  11  22  37  58  90 123 158 204 255 317 375
#     4  10  22  38  62  88 119 159 205 254 310 376
#     4  11  20  34  57  86 126 154 202 253 311 374
#     4  11  22  37  58  88 122 161 207 257 313 373
#     4  10  20  36  54  86 124 154 201 250 313 377
#     4  10  22  33  54  86 121 155 195 247 308 376
#     4  10  20  33  55  83 121 158 187 249 305 373
#
# _framework density 17.893585999999999
#
# number of rings (size 3 to 8) (size 9 to 14) (size 15 to 20)
#    0.000    1.500    3.750    3.000    5.250    0.000 
#    0.000    0.000    0.000    3.750    0.000    0.000 
#    0.000    0.000    0.000    0.000    0.000    0.000 
#
# Total GULP energy -267481.853508 kJ/mol
# GULP energy per Si atom -5572.538615 kJ/mol
# Density = 1.785286 g / cm^3
# Si number density = 17.893586 Si / 1000 Ang^3
#
#
#
# Elastic Constant Matrix: (Units=GPa)
#
#
# Indices 1 2 3 4 5 6 
#
# 1 105.3175 47.7552 37.9946 -5.2364 -0.0001 0.0000
# 2 47.7552 105.3175 37.9946 5.2364 0.0001 0.0000
# 3 37.9946 37.9946 97.0631 0.0000 0.0000 0.0000
# 4 -5.2364 5.2364 0.0000 18.7696 0.0000 0.0001
# 5 -0.0001 0.0001 0.0000 0.0000 18.7696 -5.2364
# 6 0.0000 0.0000 0.0000 0.0001 -5.2364 28.7811
#
#
#
# Elastic Compliance Matrix: (Units=1/GPa)
#
#
# Indices 1 2 3 4 5 6 
#
# 1 0.013205 -0.005096 -0.003174 0.005106 0.000000 0.000000
# 2 -0.005096 0.013205 -0.003174 -0.005106 0.000000 0.000000
# 3 -0.003174 -0.003174 0.012787 0.000000 0.000000 0.000000
# 4 0.005106 -0.005106 0.000000 0.056127 0.000000 0.000000
# 5 0.000000 0.000000 0.000000 0.000000 0.056127 0.010212
# 6 0.000000 0.000000 0.000000 0.000000 0.010212 0.036603
#
#
# Mechanical properties :
#
#
# Convention : Reuss Voigt Hill
#
# Bulk Modulus (GPa) = 61.31797 61.68740 61.50269
# Shear Modulus (GPa) = 23.10768 25.52765 24.31766
#
# Velocity S-wave (km/s) = 3.59750 3.78118 3.69048
# Velocity P-wave (km/s) = 7.18321 7.32206 7.25297
#
# Compressibility (1/GPa) = 0.01630843
#
# Stress axis : x y z
#
# Youngs Moduli (GPa) = 75.72913 75.72913 78.20162
#
# Poissons Ratio (x) = 0.38595 0.24821
# Poissons Ratio (y) = 0.38595 0.24821
# Poissons Ratio (z) = 0.24036 0.24036
#
# Static dielectric constant tensor:
#      x y z
#    x 1.664880 0.000000 0.000000 
#    y 0.000000 1.664880 0.000000 
#    z 0.000000 0.000000 1.653900 
# 
# From -- ./inp_files/2858.got.cif
#   From: 2010.05.17/outbox.cif.g08.bks.cpg/sg152_2_cif.got.tgz:2858.got - 2010.05.20 10:36:06.
