data_PCOD9575265
_publ_section_title
;
Structure prediction by ZEFSAII (Michael W. Deem and Ramdas Pophale) SiO2 
 PCOD9575265
Probable space group: R -3
;
_chemical_formula_sum "Si O2"
_cell_formula_units_Z 84
_cell_length_a 13.680925
_cell_length_b 13.680925
_cell_length_c 25.354935
_cell_angle_alpha 90.000000
_cell_angle_beta 90.000000
_cell_angle_gamma 120.000000
_cell_volume 4109.831887
_symmetry_space_group_name_H-M "R -3"
_symmetry_group_IT_number 148
_symmetry_cell_setting 'hexagonal'
loop_
_space_group_symop_operation_xyz
x,y,z
-y,x-y,z
-x+y,-x,z
-x,-y,-z
y,-x+y,-z
x-y,x,-z
2/3+x,1/3+y,1/3+z
2/3-y,1/3+x-y,1/3+z
2/3-x+y,1/3-x,1/3+z
2/3-x,1/3-y,1/3-z
2/3+y,1/3-x+y,1/3-z
2/3+x-y,1/3+x,1/3-z
1/3+x,2/3+y,2/3+z
1/3-y,2/3+x-y,2/3+z
1/3-x+y,2/3-x,2/3+z
1/3-x,2/3-y,2/3-z
1/3+y,2/3-x+y,2/3-z
1/3+x-y,2/3+x,2/3-z
loop_
_atom_site_type_symbol
_atom_site_label
_atom_site_fract_x
_atom_site_fract_y
_atom_site_fract_z
Si Si1 0.460263 0.340109 0.313603
Si Si2 0.000000 0.000000 0.315986
Si Si3 0.012034 0.605451 0.535657
Si Si4 0.868552 0.291915 0.648317
Si Si5 0.766729 0.577935 0.529565
Si Si6 0.000000 0.000000 0.812971
O O1 0.583907 0.450849 0.313715
O O2 0.404555 0.278400 0.258205
O O3 0.377611 0.384413 0.332900
O O4 0.882748 0.891562 0.332851
O O5 0.000000 0.000000 0.251445
O O6 0.888296 0.592387 0.541020
O O7 0.000000 0.500000 0.500000
O O8 0.084479 0.730185 0.508981
O O9 0.833334 0.166667 0.666667
O O10 0.864055 0.288569 0.585250
O O11 0.698215 0.455564 0.502728
#
# Coordination Sequence:
#
# PCOD9575265 Si02
#       6
#    18   6  18  18  18   6
#     4  12  28  46  70 103 140 179 228 293 360 411
#     4   9  21  36  66  99 130 179 229 288 339 405
#     4  12  26  44  70 101 139 186 227 281 347 423
#     4  11  21  43  69  99 136 178 240 286 340 413
#     4  11  23  41  66 101 136 180 231 279 346 413
#     4   9  18  36  66  93 124 164 232 276 315 405
#
# _framework density 20.438790999999998
#
# number of rings (size 3 to 8) (size 9 to 14) (size 15 to 20)
#    0.000    0.857    4.286    2.786    9.000    0.000 
#    0.000    0.000    0.000    0.429    0.000    0.000 
#    0.000    0.000    0.000    0.000    0.000    0.000 
#
# Total GULP energy -156197.855387 kJ/mol
# GULP energy per Si atom -5578.494835 kJ/mol
# Density = 2.039227 g / cm^3
# Si number density = 20.438791 Si / 1000 Ang^3
#
#
#
# Elastic Constant Matrix: (Units=GPa)
#
#
# Indices 1 2 3 4 5 6 
#
# 1 121.6662 46.5942 24.8126 2.1089 0.1507 0.0000
# 2 46.5942 121.6662 24.8126 -2.1089 -0.1507 0.0000
# 3 24.8126 24.8126 69.4548 0.0000 0.0000 0.0000
# 4 2.1089 -2.1089 0.0000 31.3042 0.0000 -0.1507
# 5 0.1507 -0.1507 0.0000 0.0000 31.3042 2.1089
# 6 0.0000 0.0000 0.0000 -0.1507 2.1089 37.5360
#
#
#
# Elastic Compliance Matrix: (Units=1/GPa)
#
#
# Indices 1 2 3 4 5 6 
#
# 1 0.010007 -0.003364 -0.002373 -0.000901 -0.000064 0.000000
# 2 -0.003364 0.010007 -0.002373 0.000901 0.000064 0.000000
# 3 -0.002373 -0.002373 0.016094 0.000000 0.000000 0.000000
# 4 -0.000901 0.000901 0.000000 0.032067 0.000000 0.000129
# 5 -0.000064 0.000064 0.000000 0.000000 0.032067 -0.001802
# 6 0.000000 0.000000 0.000000 0.000129 -0.001802 0.026743
#
#
# Mechanical properties :
#
#
# Convention : Reuss Voigt Hill
#
# Bulk Modulus (GPa) = 50.28461 56.13620 53.21041
# Shear Modulus (GPa) = 33.37021 34.46674 33.91848
#
# Velocity S-wave (km/s) = 4.04504 4.11096 4.07813
# Velocity P-wave (km/s) = 6.81707 7.07520 6.94733
#
# Compressibility (1/GPa) = 0.01988680
#
# Stress axis : x y z
#
# Youngs Moduli (GPa) = 99.92746 99.92746 62.13679
#
# Poissons Ratio (x) = 0.33617 0.14747
# Poissons Ratio (y) = 0.33617 0.14747
# Poissons Ratio (z) = 0.23715 0.23715
#
# Static dielectric constant tensor:
#      x y z
#    x 1.780040 0.000000 0.000000 
#    y 0.000000 1.780040 0.000000 
#    z 0.000000 0.000000 1.782270 
# 
# From -- ./inp_files/3354.got.cif
#   From: 2010.05.17/outbox.cif.g08.bks.cpg/sg148_2_cif.got.tgz:3354.got - 2010.05.20 13:50:20.
