data_PCOD9575561
_publ_section_title
;
Structure prediction by ZEFSAII (Michael W. Deem and Ramdas Pophale) SiO2 
 PCOD9575561
Probable space group: P 31 1 2
;
_chemical_formula_sum "Si O2"
_cell_formula_units_Z 48
_cell_length_a 11.076918
_cell_length_b 11.076918
_cell_length_c 20.985245
_cell_angle_alpha 90.000000
_cell_angle_beta 90.000000
_cell_angle_gamma 120.000000
_cell_volume 2229.885467
_symmetry_space_group_name_H-M "P 31 1 2"
_symmetry_group_IT_number 151
_symmetry_cell_setting 'hexagonal'
loop_
_space_group_symop_operation_xyz
x,y,z
-y,x-y,1/3+z
-x+y,-x,2/3+z
-y,-x,2/3-z
-x+y,y,1/3-z
x,x-y,-z
loop_
_atom_site_type_symbol
_atom_site_label
_atom_site_fract_x
_atom_site_fract_y
_atom_site_fract_z
Si Si1 0.454257 0.406104 0.615793
Si Si2 0.947688 0.135660 0.123069
Si Si3 0.143056 0.935188 0.404837
Si Si4 0.044755 0.837387 0.024708
Si Si5 0.603537 0.077440 0.511623
Si Si6 0.231778 0.592430 0.101506
Si Si7 0.146982 0.685085 0.656056
Si Si8 0.474106 0.142808 0.615758
O O1 0.301927 0.323205 0.581038
O O2 0.565803 0.489706 0.561393
O O3 0.477113 0.520451 0.668518
O O4 0.470925 0.278438 0.640436
O O5 0.072833 0.145666 0.166667
O O6 0.901385 0.244240 0.145952
O O7 0.816012 0.978482 0.119321
O O8 0.998763 0.175461 0.049409
O O9 0.124358 0.875643 0.333334
O O10 0.113539 0.064647 0.396315
O O11 0.981420 0.683372 0.054098
O O12 0.211693 0.913226 0.026170
O O13 0.498939 0.927769 0.543877
O O14 0.562469 0.175409 0.551568
O O15 0.315580 0.631160 0.166667
O O16 0.266331 0.494265 0.057211
O O17 0.278814 0.731495 0.061376
O O18 0.548963 0.097925 0.666667
#
# Coordination Sequence:
#
# PCOD9575561 Si02
#       8
#     6   6   6   6   6   6   6   6
#     4  11  25  39  66  98 131 167 221 275 325 399
#     4  11  21  37  61  93 128 161 209 273 331 382
#     4   9  23  41  61  91 128 173 213 262 333 395
#     4  10  19  39  65  92 118 166 218 263 318 395
#     4  12  21  38  65  99 120 165 227 278 319 394
#     4  11  21  35  59  94 130 162 217 277 332 387
#     4  11  21  37  63  95 130 171 212 275 340 380
#     4  11  21  41  65  87 126 171 215 263 328 400
#
# _framework density 21.525770999999999
#
# number of rings (size 3 to 8) (size 9 to 14) (size 15 to 20)
#    0.000    1.250    5.000    1.500    1.750    2.000 
#    0.000    3.125    0.000    0.000    0.000    0.000 
#    0.000    0.000    0.000    0.000    0.000    0.000 
#
# Total GULP energy -267972.160833 kJ/mol
# GULP energy per Si atom -5582.753351 kJ/mol
# Density = 2.147678 g / cm^3
# Si number density = 21.525771 Si / 1000 Ang^3
#
#
#
# Elastic Constant Matrix: (Units=GPa)
#
#
# Indices 1 2 3 4 5 6 
#
# 1 83.9610 23.8204 -0.6818 -0.0002 3.9610 0.0000
# 2 23.8204 83.9610 -0.6818 0.0002 -3.9610 0.0000
# 3 -0.6818 -0.6818 51.6462 0.0000 0.0000 0.0000
# 4 -0.0002 0.0002 0.0000 17.5812 0.0000 -3.9610
# 5 3.9610 -3.9610 0.0000 0.0000 17.5812 -0.0002
# 6 0.0000 0.0000 0.0000 -3.9610 -0.0002 30.0703
#
#
#
# Elastic Compliance Matrix: (Units=1/GPa)
#
#
# Indices 1 2 3 4 5 6 
#
# 1 0.013208 -0.003928 0.000123 0.000000 -0.003861 0.000000
# 2 -0.003928 0.013208 0.000123 0.000000 0.003861 0.000000
# 3 0.000123 0.000123 0.019366 0.000000 0.000000 0.000000
# 4 0.000000 0.000000 0.000000 0.058619 0.000000 0.007721
# 5 -0.003861 0.003861 0.000000 0.000000 0.058619 0.000000
# 6 0.000000 0.000000 0.000000 0.007721 0.000000 0.034273
#
#
# Mechanical properties :
#
#
# Convention : Reuss Voigt Hill
#
# Bulk Modulus (GPa) = 26.03152 29.38684 27.70918
# Shear Modulus (GPa) = 22.99244 26.18730 24.58987
#
# Velocity S-wave (km/s) = 3.27178 3.49170 3.38353
# Velocity P-wave (km/s) = 5.13733 5.47152 5.30706
#
# Compressibility (1/GPa) = 0.03841497
#
# Stress axis : x y z
#
# Youngs Moduli (GPa) = 75.71213 75.71213 51.63758
#
# Poissons Ratio (x) = 0.29742 -0.00633
# Poissons Ratio (y) = 0.29742 -0.00633
# Poissons Ratio (z) = -0.00928 -0.00928
#
# Static dielectric constant tensor:
#      x y z
#    x 1.835500 0.000000 0.000000 
#    y 0.000000 1.835500 0.000000 
#    z 0.000000 0.000000 1.833490 
# 
# From -- ./inp_files/3979.got.cif
#   From: 2010.05.17/outbox.cif.g08.bks.cpg/sg151_2_cif.got.tgz:3979.got - 2010.05.20 10:33:20.
