data_PCOD9575528
_publ_section_title
;
Structure prediction by ZEFSAII (Michael W. Deem and Ramdas Pophale) SiO2 
 PCOD9575528
Probable space group: P 31 1 2
;
_chemical_formula_sum "Si O2"
_cell_formula_units_Z 24
_cell_length_a 16.613051
_cell_length_b 16.613051
_cell_length_c 5.076916
_cell_angle_alpha 90.000000
_cell_angle_beta 90.000000
_cell_angle_gamma 120.000000
_cell_volume 1213.471012
_symmetry_space_group_name_H-M "P 31 1 2"
_symmetry_group_IT_number 151
_symmetry_cell_setting 'hexagonal'
loop_
_space_group_symop_operation_xyz
x,y,z
-y,x-y,1/3+z
-x+y,-x,2/3+z
-y,-x,2/3-z
-x+y,y,1/3-z
x,x-y,-z
loop_
_atom_site_type_symbol
_atom_site_label
_atom_site_fract_x
_atom_site_fract_y
_atom_site_fract_z
Si Si1 0.291839 0.049852 0.979840
Si Si2 0.183208 0.537083 0.257779
Si Si3 0.969126 0.430278 0.260132
Si Si4 0.180150 0.992780 0.473935
O O1 0.394804 0.074125 0.901846
O O2 0.215907 0.984411 0.762242
O O3 0.287883 0.143941 0.000000
O O4 0.261600 0.008325 0.271153
O O5 0.248448 0.496896 0.166667
O O6 0.220171 0.610086 0.500000
O O7 0.077410 0.463077 0.322827
O O8 0.180047 0.590024 0.000000
O O9 0.933260 0.466630 0.500000
O O10 0.964378 0.482189 0.000000
O O11 0.088375 0.911626 0.333334
O O12 0.169595 0.084798 0.500000
#
# Coordination Sequence:
#
# PCOD9575528 Si02
#       4
#     6   6   6   6
#     4  10  21  38  58  82 111 147 188 234 290 344
#     4  10  19  30  46  69  99 135 173 210 249 297
#     4  10  21  37  56  79 106 140 180 225 280 334
#     4  10  21  35  55  84 119 156 192 229 272 329
#
# _framework density 19.777975999999999
#
# number of rings (size 3 to 8) (size 9 to 14) (size 15 to 20)
#    0.000    2.000    0.000    3.750    0.000    5.000 
#    0.000    0.000    0.000    1.500    0.000    0.000 
#    0.000    0.000    0.000    0.000    0.000    0.000 
#
# Total GULP energy -133764.195328 kJ/mol
# GULP energy per Si atom -5573.508139 kJ/mol
# Density = 1.973296 g / cm^3
# Si number density = 19.777976 Si / 1000 Ang^3
#
#
#
# Elastic Constant Matrix: (Units=GPa)
#
#
# Indices 1 2 3 4 5 6 
#
# 1 46.1732 15.1445 30.6859 -0.0005 0.2321 0.0000
# 2 15.1445 46.1732 30.6859 0.0005 -0.2321 0.0000
# 3 30.6859 30.6859 125.6886 0.0000 0.0000 0.0000
# 4 -0.0005 0.0005 0.0000 16.1916 0.0000 -0.2321
# 5 0.2321 -0.2321 0.0000 0.0000 16.1916 -0.0005
# 6 0.0000 0.0000 0.0000 -0.2321 -0.0005 15.5143
#
#
#
# Elastic Compliance Matrix: (Units=1/GPa)
#
#
# Indices 1 2 3 4 5 6 
#
# 1 0.026909 -0.005326 -0.005269 0.000001 -0.000462 0.000000
# 2 -0.005326 0.026909 -0.005269 -0.000001 0.000462 0.000000
# 3 -0.005269 -0.005269 0.010529 0.000000 0.000000 0.000000
# 4 0.000001 -0.000001 0.000000 0.061774 0.000000 0.000924
# 5 -0.000462 0.000462 0.000000 0.000000 0.061774 0.000002
# 6 0.000000 0.000000 0.000000 0.000924 0.000002 0.064470
#
#
# Mechanical properties :
#
#
# Convention : Reuss Voigt Hill
#
# Bulk Modulus (GPa) = 30.65882 41.22974 35.94428
# Shear Modulus (GPa) = 16.95111 19.01408 17.98259
#
# Velocity S-wave (km/s) = 2.93075 3.10397 3.01860
# Velocity P-wave (km/s) = 5.19495 5.80842 5.51023
#
# Compressibility (1/GPa) = 0.03261704
#
# Stress axis : x y z
#
# Youngs Moduli (GPa) = 37.16262 37.16262 94.97548
#
# Poissons Ratio (x) = 0.19794 0.50044
# Poissons Ratio (y) = 0.19794 0.50044
# Poissons Ratio (z) = 0.19582 0.19582
#
# Static dielectric constant tensor:
#      x y z
#    x 1.734180 0.000000 0.000000 
#    y 0.000000 1.734180 0.000000 
#    z 0.000000 0.000000 1.705970 
# 
# From -- ./inp_files/201.got.cif
#   From: 2010.05.17/outbox.cif.g08.bks.cpg/sg151_1_cif.got.tgz:201.got - 2010.05.20 10:33:20.
