data_PCOD9575360
_publ_section_title
;
Structure prediction by ZEFSAII (Michael W. Deem and Ramdas Pophale) SiO2 
 PCOD9575360
Probable space group: P 3 1 2
;
_chemical_formula_sum "Si O2"
_cell_formula_units_Z 36
_cell_length_a 12.732303
_cell_length_b 12.732303
_cell_length_c 16.108994
_cell_angle_alpha 90.000000
_cell_angle_beta 90.000000
_cell_angle_gamma 120.000000
_cell_volume 2261.585349
_symmetry_space_group_name_H-M "P 3 1 2"
_symmetry_group_IT_number 149
_symmetry_cell_setting 'hexagonal'
loop_
_space_group_symop_operation_xyz
x,y,z
-y,x-y,z
-x+y,-x,z
-y,-x,-z
-x+y,y,-z
x,x-y,-z
loop_
_atom_site_type_symbol
_atom_site_label
_atom_site_fract_x
_atom_site_fract_y
_atom_site_fract_z
Si Si1 0.583159 0.666873 0.500000
Si Si2 0.000441 0.250348 0.659824
Si Si3 0.918596 0.584710 0.818053
Si Si4 0.666233 0.582989 1.000000
Si Si5 0.000442 0.750094 0.659825
Si Si6 0.666115 0.081405 0.181947
O O1 0.460945 0.539056 0.500000
O O2 0.554965 0.777483 0.500000
O O3 0.663351 0.684573 0.581480
O O4 0.663349 0.684572 0.418518
O O5 0.115439 0.230879 0.664214
O O6 0.988219 0.311613 0.743895
O O7 0.877352 0.122648 0.649537
O O8 0.973636 0.635136 0.909976
O O9 0.915679 0.457840 0.806244
O O10 0.781480 0.562961 0.817361
O O11 0.988220 0.676608 0.743896
O O12 0.553484 0.446517 0.000000
O O13 0.790075 0.580150 0.000000
O O14 0.661500 0.635136 0.909976
#
# Coordination Sequence:
#
# PCOD9575360 Si02
#       6
#     6   6   6   6   6   6
#     4  10  20  34  52  72  92 114 144 186 234 280
#     4  10  20  33  49  68  93 126 161 193 222 261
#     4   9  16  27  45  69  95 121 151 191 239 286
#     4   8  13  22  39  64  92 120 150 186 232 284
#     4  10  20  33  49  68  93 126 161 193 222 261
#     4   9  16  27  45  69  95 121 151 191 239 286
#
# _framework density 15.918037999999999
#
# number of rings (size 3 to 8) (size 9 to 14) (size 15 to 20)
#    0.000    2.667    0.000    2.500    0.000    2.667 
#    0.000    2.500    0.000    5.333    0.000    2.333 
#    0.000    0.000    0.000    0.000    0.000    0.000 
#
# Total GULP energy -200454.651488 kJ/mol
# GULP energy per Si atom -5568.184764 kJ/mol
# Density = 1.588181 g / cm^3
# Si number density = 15.918038 Si / 1000 Ang^3
#
#
#
# Elastic Constant Matrix: (Units=GPa)
#
#
# Indices 1 2 3 4 5 6 
#
# 1 73.6082 48.2112 74.3558 0.0000 -0.0006 0.0000
# 2 48.2112 73.6082 74.3558 0.0000 0.0006 0.0000
# 3 74.3558 74.3558 180.7168 0.0000 0.0000 0.0000
# 4 0.0000 0.0000 0.0000 19.7102 0.0000 0.0006
# 5 -0.0006 0.0006 0.0000 0.0000 19.7102 0.0000
# 6 0.0000 0.0000 0.0000 0.0006 0.0000 12.6985
#
#
#
# Elastic Compliance Matrix: (Units=1/GPa)
#
#
# Indices 1 2 3 4 5 6 
#
# 1 0.027934 -0.011441 -0.006786 0.000000 0.000001 0.000000
# 2 -0.011441 0.027934 -0.006786 0.000000 -0.000001 0.000000
# 3 -0.006786 -0.006786 0.011118 0.000000 0.000000 0.000000
# 4 0.000000 0.000000 0.000000 0.050735 0.000000 -0.000002
# 5 0.000001 -0.000001 0.000000 0.000000 0.050735 0.000000
# 6 0.000000 0.000000 0.000000 -0.000002 0.000000 0.078750
#
#
# Mechanical properties :
#
#
# Convention : Reuss Voigt Hill
#
# Bulk Modulus (GPa) = 58.96386 80.19766 69.58076
# Shear Modulus (GPa) = 16.50795 19.15779 17.83287
#
# Velocity S-wave (km/s) = 3.22383 3.47295 3.35071
# Velocity P-wave (km/s) = 7.14003 8.15922 7.66658
#
# Compressibility (1/GPa) = 0.01695954
#
# Stress axis : x y z
#
# Youngs Moduli (GPa) = 35.79886 35.79886 89.94651
#
# Poissons Ratio (x) = 0.40957 0.61038
# Poissons Ratio (y) = 0.40957 0.61038
# Poissons Ratio (z) = 0.24293 0.24293
#
# Static dielectric constant tensor:
#      x y z
#    x 1.496360 0.000000 0.000000 
#    y 0.000000 1.496360 0.000000 
#    z 0.000000 0.000000 1.569940 
# 
# From -- ./inp_files/1005.got.cif
#   From: 2010.05.17/outbox.cif.g08.bks.cpg/sg149_cif.got.tgz:1005.got - 2010.05.20 13:52:34.
