data_PCOD9575834
_publ_section_title
;
Structure prediction by ZEFSAII (Michael W. Deem and Ramdas Pophale) SiO2 
 PCOD9575834
Probable space group: P 31 2 1
;
_chemical_formula_sum "Si O2"
_cell_formula_units_Z 48
_cell_length_a 11.990380
_cell_length_b 11.990380
_cell_length_c 20.019712
_cell_angle_alpha 90.000000
_cell_angle_beta 90.000000
_cell_angle_gamma 120.000000
_cell_volume 2492.610104
_symmetry_space_group_name_H-M "P 31 2 1"
_symmetry_group_IT_number 152
_symmetry_cell_setting 'hexagonal'
loop_
_space_group_symop_operation_xyz
x,y,z
-y,x-y,1/3+z
-x+y,-x,2/3+z
x-y,-y,2/3-z
-x,-x+y,1/3-z
y,x,-z
loop_
_atom_site_type_symbol
_atom_site_label
_atom_site_fract_x
_atom_site_fract_y
_atom_site_fract_z
Si Si1 0.708951 0.566740 0.913806
Si Si2 0.923676 0.584234 0.598938
Si Si3 0.620829 0.863718 0.960941
Si Si4 0.613723 0.296746 0.732883
Si Si5 0.652375 0.163401 0.476985
Si Si6 0.850800 0.556109 0.277902
Si Si7 0.670478 0.529257 0.528851
Si Si8 0.098619 0.361466 0.501950
O O1 0.564862 0.457570 0.934253
O O2 0.777916 0.496637 0.880090
O O3 0.712440 0.661727 0.855512
O O4 0.787772 0.641009 0.978932
O O5 0.792030 0.581789 0.579497
O O6 0.000000 0.652448 0.666667
O O7 0.032655 0.649343 0.541680
O O8 0.466717 0.791544 0.951727
O O9 0.675911 0.846226 0.891151
O O10 0.672549 0.011940 0.973262
O O11 0.728041 0.439626 0.752415
O O12 0.529228 0.292079 0.671243
O O13 0.530091 0.237910 0.799556
O O14 0.507548 0.134778 0.482455
O O15 0.868238 0.457535 0.228897
O O16 0.791119 0.629438 0.236127
O O17 0.630188 0.630188 0.500000
#
# Coordination Sequence:
#
# PCOD9575834 Si02
#       8
#     6   6   6   6   6   6   6   6
#     4  11  21  35  61  93 127 156 206 269 326 383
#     4  11  22  39  62  91 129 171 208 261 337 386
#     4  11  21  36  60  86 120 160 202 249 323 383
#     4  11  22  36  60  93 127 162 208 257 320 385
#     4  10  20  35  58  89 127 159 200 255 318 383
#     4  12  22  37  62  91 123 164 211 260 319 396
#     4  12  22  43  62  93 135 175 209 271 329 392
#     4  10  20  37  55  85 125 156 196 255 318 373
#
# _framework density 19.256923
#
# number of rings (size 3 to 8) (size 9 to 14) (size 15 to 20)
#    0.000    1.000    5.000    5.250    1.750    1.000 
#    2.250    0.000    0.000    1.500    0.000    0.000 
#    0.000    0.000    0.000    0.000    0.000    0.000 
#
# Total GULP energy -267927.242446 kJ/mol
# GULP energy per Si atom -5581.817551 kJ/mol
# Density = 1.921309 g / cm^3
# Si number density = 19.256923 Si / 1000 Ang^3
#
#
#
# Elastic Constant Matrix: (Units=GPa)
#
#
# Indices 1 2 3 4 5 6 
#
# 1 48.7232 17.8309 15.7357 -1.4051 0.0002 0.0000
# 2 17.8309 48.7232 15.7357 1.4051 -0.0002 0.0000
# 3 15.7357 15.7357 74.3378 0.0000 0.0000 0.0000
# 4 -1.4051 1.4051 0.0000 24.8060 0.0000 -0.0002
# 5 0.0002 -0.0002 0.0000 0.0000 24.8060 -1.4051
# 6 0.0000 0.0000 0.0000 -0.0002 -1.4051 15.4462
#
#
#
# Elastic Compliance Matrix: (Units=1/GPa)
#
#
# Indices 1 2 3 4 5 6 
#
# 1 0.024617 -0.007921 -0.003534 0.001843 0.000000 0.000000
# 2 -0.007921 0.024617 -0.003534 -0.001843 0.000000 0.000000
# 3 -0.003534 -0.003534 0.014948 0.000000 0.000000 0.000000
# 4 0.001843 -0.001843 0.000000 0.040522 0.000000 0.000000
# 5 0.000000 0.000000 0.000000 0.000000 0.040522 0.003686
# 6 0.000000 0.000000 0.000000 0.000000 0.003686 0.065076
#
#
# Mechanical properties :
#
#
# Convention : Reuss Voigt Hill
#
# Bulk Modulus (GPa) = 29.23600 30.04319 29.63960
# Shear Modulus (GPa) = 19.86626 21.17710 20.52168
#
# Velocity S-wave (km/s) = 3.21540 3.31979 3.26801
# Velocity P-wave (km/s) = 5.38518 5.50725 5.44655
#
# Compressibility (1/GPa) = 0.03420441
#
# Stress axis : x y z
#
# Youngs Moduli (GPa) = 40.62168 40.62168 66.89692
#
# Poissons Ratio (x) = 0.32175 0.23643
# Poissons Ratio (y) = 0.32175 0.23643
# Poissons Ratio (z) = 0.14357 0.14357
#
# Static dielectric constant tensor:
#      x y z
#    x 1.699640 0.000000 0.000000 
#    y 0.000000 1.699640 0.000000 
#    z 0.000000 0.000000 1.720620 
# 
# From -- ./inp_files/2851.got.cif
#   From: 2010.05.17/outbox.cif.g08.bks.cpg/sg152_2_cif.got.tgz:2851.got - 2010.05.20 10:36:06.
