data_PCOD9575299
_publ_section_title
;
Structure prediction by ZEFSAII (Michael W. Deem and Ramdas Pophale) SiO2 
 PCOD9575299
Probable space group: R -3
;
_chemical_formula_sum "Si O2"
_cell_formula_units_Z 36
_cell_length_a 13.822932
_cell_length_b 13.822932
_cell_length_c 7.405985
_cell_angle_alpha 90.000000
_cell_angle_beta 90.000000
_cell_angle_gamma 120.000000
_cell_volume 1225.501375
_symmetry_space_group_name_H-M "R -3"
_symmetry_group_IT_number 148
_symmetry_cell_setting 'hexagonal'
loop_
_space_group_symop_operation_xyz
x,y,z
-y,x-y,z
-x+y,-x,z
-x,-y,-z
y,-x+y,-z
x-y,x,-z
2/3+x,1/3+y,1/3+z
2/3-y,1/3+x-y,1/3+z
2/3-x+y,1/3-x,1/3+z
2/3-x,1/3-y,1/3-z
2/3+y,1/3-x+y,1/3-z
2/3+x-y,1/3+x,1/3-z
1/3+x,2/3+y,2/3+z
1/3-y,2/3+x-y,2/3+z
1/3-x+y,2/3-x,2/3+z
1/3-x,2/3-y,2/3-z
1/3+y,2/3-x+y,2/3-z
1/3+x-y,2/3+x,2/3-z
loop_
_atom_site_type_symbol
_atom_site_label
_atom_site_fract_x
_atom_site_fract_y
_atom_site_fract_z
Si Si1 0.480266 0.726991 0.918327
Si Si2 0.911797 0.657466 0.368485
O O1 0.400865 0.782682 0.931750
O O2 0.552439 0.739427 0.739131
O O3 0.580406 0.791838 0.059829
O O4 0.955049 0.630670 0.549534
#
# Coordination Sequence:
#
# PCOD9575299 Si02
#       2
#    18  18
#     4   9  24  47  72 100 144 190 226 287 354 410
#     4  11  26  46  73 104 138 184 235 288 343 412
#
# _framework density 29.375733
#
# number of rings (size 3 to 8) (size 9 to 14) (size 15 to 20)
#    1.000    1.000    0.000    0.000   14.000    4.000 
#    0.000    2.500    0.000    0.000    0.000    0.000 
#    0.000    0.000    0.000    0.000    0.000    0.000 
#
# Total GULP energy -67103.234613 kJ/mol
# GULP energy per Si atom -5591.936218 kJ/mol
# Density = 2.930887 g / cm^3
# Si number density = 29.375733 Si / 1000 Ang^3
#
#
#
# Elastic Constant Matrix: (Units=GPa)
#
#
# Indices 1 2 3 4 5 6 
#
# 1 198.5138 74.5964 43.0691 -13.1615 -1.9428 0.0000
# 2 74.5964 198.5138 43.0691 13.1615 1.9428 0.0000
# 3 43.0691 43.0691 147.3874 0.0000 0.0000 0.0000
# 4 -13.1615 13.1615 0.0000 41.6672 0.0000 1.9428
# 5 -1.9428 1.9428 0.0000 0.0000 41.6672 -13.1615
# 6 0.0000 0.0000 0.0000 1.9428 -13.1615 61.9587
#
#
#
# Elastic Compliance Matrix: (Units=1/GPa)
#
#
# Indices 1 2 3 4 5 6 
#
# 1 0.006349 -0.002315 -0.001179 0.002737 0.000404 0.000000
# 2 -0.002315 0.006349 -0.001179 -0.002737 -0.000404 0.000000
# 3 -0.001179 -0.001179 0.007474 0.000000 0.000000 0.000000
# 4 0.002737 -0.002737 0.000000 0.025766 0.000000 -0.000808
# 5 0.000404 -0.000404 0.000000 0.000000 0.025766 0.005473
# 6 0.000000 0.000000 0.000000 -0.000808 0.005473 0.017328
#
#
# Mechanical properties :
#
#
# Convention : Reuss Voigt Hill
#
# Bulk Modulus (GPa) = 92.37186 96.20935 94.29061
# Shear Modulus (GPa) = 49.02697 54.63730 51.83213
#
# Velocity S-wave (km/s) = 4.08972 4.31739 4.20510
# Velocity P-wave (km/s) = 7.33583 7.59444 7.46625
#
# Compressibility (1/GPa) = 0.01082581
#
# Stress axis : x y z
#
# Youngs Moduli (GPa) = 157.51572 157.51572 133.80350
#
# Poissons Ratio (x) = 0.36470 0.15770
# Poissons Ratio (y) = 0.36470 0.15770
# Poissons Ratio (z) = 0.18565 0.18565
#
# Static dielectric constant tensor:
#      x y z
#    x 2.361780 0.000000 0.000000 
#    y 0.000000 2.361780 0.000000 
#    z 0.000000 0.000000 2.309010 
# 
# From -- ./inp_files/524.got.cif
#   From: 2010.05.17/outbox.cif.g08.bks.cpg/sg148_1_cif.got.tgz:524.got - 2010.05.20 13:50:20.
