data_PCOD9575852
_publ_section_title
;
Structure prediction by ZEFSAII (Michael W. Deem and Ramdas Pophale) SiO2 
 PCOD9575852
Probable space group: P 31 2 1
;
_chemical_formula_sum "Si O2"
_cell_formula_units_Z 30
_cell_length_a 17.789849
_cell_length_b 17.789849
_cell_length_c 5.640009
_cell_angle_alpha 90.000000
_cell_angle_beta 90.000000
_cell_angle_gamma 120.000000
_cell_volume 1545.805871
_symmetry_space_group_name_H-M "P 31 2 1"
_symmetry_group_IT_number 152
_symmetry_cell_setting 'hexagonal'
loop_
_space_group_symop_operation_xyz
x,y,z
-y,x-y,1/3+z
-x+y,-x,2/3+z
x-y,-y,2/3-z
-x,-x+y,1/3-z
y,x,-z
loop_
_atom_site_type_symbol
_atom_site_label
_atom_site_fract_x
_atom_site_fract_y
_atom_site_fract_z
Si Si1 0.901547 0.384195 0.905097
Si Si2 0.419956 0.372546 0.243256
Si Si3 0.740594 0.325926 0.193879
Si Si4 0.230240 0.785081 0.456482
Si Si5 0.970055 0.278228 0.411521
O O1 0.930407 0.482218 0.844645
O O2 0.835128 0.308978 0.728011
O O3 0.980823 0.365391 0.925360
O O4 0.841414 0.367796 0.134193
O O5 0.397922 0.397922 0.500000
O O6 0.414899 0.280840 0.294722
O O7 0.367452 0.367452 0.000000
O O8 0.717886 0.394120 0.308823
O O9 0.724832 0.253561 0.384677
O O10 0.234269 0.866582 0.592114
O O11 0.000000 0.260374 0.666667
O O12 0.000000 0.255355 0.166667
#
# Coordination Sequence:
#
# PCOD9575852 Si02
#       5
#     6   6   6   6   6
#     4  11  23  40  62  84 118 159 222 272 312 370
#     4  12  28  42  62  93 129 170 213 265 336 392
#     4  12  23  35  54  84 119 165 216 273 325 377
#     4  11  24  41  61  81 120 164 216 268 324 381
#     4  10  20  37  61  85 106 150 204 267 300 356
#
# _framework density 19.407354000000002
#
# number of rings (size 3 to 8) (size 9 to 14) (size 15 to 20)
#    0.000    0.800    2.000    7.200    8.400    0.000 
#    0.000    0.000    0.000    0.000    0.000    0.000 
#    0.000    0.000    0.000  102.600    0.000    0.600 
#
# Total GULP energy -167336.689380 kJ/mol
# GULP energy per Si atom -5577.889646 kJ/mol
# Density = 1.936318 g / cm^3
# Si number density = 19.407354 Si / 1000 Ang^3
#
#
#
# Elastic Constant Matrix: (Units=GPa)
#
#
# Indices 1 2 3 4 5 6 
#
# 1 77.2868 34.1372 37.6729 -0.8953 0.0000 0.0000
# 2 34.1372 77.2868 37.6729 0.8953 0.0000 0.0000
# 3 37.6729 37.6729 110.4427 0.0000 0.0000 0.0000
# 4 -0.8953 0.8953 0.0000 24.4877 0.0000 0.0000
# 5 0.0000 0.0000 0.0000 0.0000 24.4877 -0.8953
# 6 0.0000 0.0000 0.0000 0.0000 -0.8953 21.5748
#
#
#
# Elastic Compliance Matrix: (Units=1/GPa)
#
#
# Indices 1 2 3 4 5 6 
#
# 1 0.017438 -0.005772 -0.003979 0.000849 0.000000 0.000000
# 2 -0.005772 0.017438 -0.003979 -0.000849 0.000000 0.000000
# 3 -0.003979 -0.003979 0.011769 0.000000 0.000000 0.000000
# 4 0.000849 -0.000849 0.000000 0.040899 0.000000 0.000000
# 5 0.000000 0.000000 0.000000 0.000000 0.040899 0.001697
# 6 0.000000 0.000000 0.000000 0.000000 0.001697 0.046421
#
#
# Mechanical properties :
#
#
# Convention : Reuss Voigt Hill
#
# Bulk Modulus (GPa) = 52.12856 53.77582 52.95219
# Shear Modulus (GPa) = 23.95557 24.47893 24.21725
#
# Velocity S-wave (km/s) = 3.51715 3.55536 3.53631
# Velocity P-wave (km/s) = 6.58880 6.68007 6.63459
#
# Compressibility (1/GPa) = 0.01918334
#
# Stress axis : x y z
#
# Youngs Moduli (GPa) = 57.34615 57.34615 84.96801
#
# Poissons Ratio (x) = 0.33103 0.33810
# Poissons Ratio (y) = 0.33103 0.33810
# Poissons Ratio (z) = 0.22819 0.22819
#
# Static dielectric constant tensor:
#      x y z
#    x 1.699940 0.000000 0.000000 
#    y 0.000000 1.699940 0.000000 
#    z 0.000000 0.000000 1.847270 
# 
# From -- ./inp_files/316.got.cif
#   From: 2010.05.17/outbox.cif.g08.bks.cpg/sg152_1_cif.got.tgz:316.got - 2010.05.20 10:36:06.
