data_PCOD9575415
_publ_section_title
;
Structure prediction by ZEFSAII (Michael W. Deem and Ramdas Pophale) SiO2 
 PCOD9575415
Probable space group: P 3 2 1
;
_chemical_formula_sum "Si O2"
_cell_formula_units_Z 24
_cell_length_a 15.381183
_cell_length_b 15.381183
_cell_length_c 5.580728
_cell_angle_alpha 90.000000
_cell_angle_beta 90.000000
_cell_angle_gamma 120.000000
_cell_volume 1143.407315
_symmetry_space_group_name_H-M "P 3 2 1"
_symmetry_group_IT_number 150
_symmetry_cell_setting 'hexagonal'
loop_
_space_group_symop_operation_xyz
x,y,z
-y,x-y,z
-x+y,-x,z
x-y,-y,-z
-x,-x+y,-z
y,x,-z
loop_
_atom_site_type_symbol
_atom_site_label
_atom_site_fract_x
_atom_site_fract_y
_atom_site_fract_z
Si Si1 0.754361 0.000000 0.000000
Si Si2 0.238603 0.238603 0.500000
Si Si3 0.628867 0.628867 0.000000
Si Si4 0.776088 0.213238 1.000000
Si Si5 0.471120 0.296469 0.500000
Si Si6 0.523521 0.523521 0.500000
O O1 0.807676 0.000000 0.754778
O O2 0.736739 0.094673 1.000000
O O3 0.349320 0.249704 0.500000
O O4 0.732250 0.628276 1.000000
O O5 0.575484 0.575484 0.750382
O O6 0.739082 0.235247 0.749156
O O7 0.739082 0.235247 0.250844
O O8 0.513612 0.414554 0.500000
#
# Coordination Sequence:
#
# PCOD9575415 Si02
#       6
#     3   3   3   6   6   3
#     4   8  14  27  48  71 100 140 184 212 256 345
#     4   7  12  22  44  74  86 111 174 231 238 280
#     4  12  24  35  56  95 130 144 186 278 338 335
#     4  10  19  34  56  85 114 150 195 243 294 360
#     4   9  17  33  56  74 101 149 201 228 267 359
#     4  11  22  38  60  88 118 161 208 251 302 376
#
# _framework density 20.989895000000001
#
# number of rings (size 3 to 8) (size 9 to 14) (size 15 to 20)
#    0.000    2.500    0.000    4.500    0.000    2.000 
#    0.000    0.000    0.000   20.500    0.000    0.000 
#    0.000    8.000    0.000    0.000    0.000    2.250 
#
# Total GULP energy -133697.943627 kJ/mol
# GULP energy per Si atom -5570.747651 kJ/mol
# Density = 2.094212 g / cm^3
# Si number density = 20.989895 Si / 1000 Ang^3
#
#
#
# Elastic Constant Matrix: (Units=GPa)
#
#
# Indices 1 2 3 4 5 6 
#
# 1 118.3141 -67.9231 14.1382 -0.0001 0.0000 0.0000
# 2 -67.9231 118.3141 14.1382 0.0001 0.0000 0.0000
# 3 14.1382 14.1382 262.3773 0.0000 0.0000 0.0000
# 4 -0.0001 0.0001 0.0000 19.8052 0.0000 0.0000
# 5 0.0000 0.0000 0.0000 0.0000 19.8052 -0.0001
# 6 0.0000 0.0000 0.0000 0.0000 -0.0001 93.1186
#
#
#
# Elastic Compliance Matrix: (Units=1/GPa)
#
#
# Indices 1 2 3 4 5 6 
#
# 1 0.012917 0.007547 -0.001103 0.000000 0.000000 0.000000
# 2 0.007547 0.012917 -0.001103 0.000000 0.000000 0.000000
# 3 -0.001103 -0.001103 0.003930 0.000000 0.000000 0.000000
# 4 0.000000 0.000000 0.000000 0.050492 0.000000 0.000000
# 5 0.000000 0.000000 0.000000 0.000000 0.050492 0.000000
# 6 0.000000 0.000000 0.000000 0.000000 0.000000 0.010739
#
#
# Mechanical properties :
#
#
# Convention : Reuss Voigt Hill
#
# Bulk Modulus (GPa) = 24.72397 46.63466 35.67931
# Shear Modulus (GPa) = 34.65373 62.45594 48.55484
#
# Velocity S-wave (km/s) = 4.06762 5.46075 4.81484
# Velocity P-wave (km/s) = 5.81939 7.87564 6.92427
#
# Compressibility (1/GPa) = 0.04044658
#
# Stress axis : x y z
#
# Youngs Moduli (GPa) = 77.42014 77.42014 254.44385
#
# Poissons Ratio (x) = -0.58429 0.28057
# Poissons Ratio (y) = -0.58429 0.28057
# Poissons Ratio (z) = 0.08537 0.08537
#
# Static dielectric constant tensor:
#      x y z
#    x 1.718150 0.000000 0.000000 
#    y 0.000000 1.718150 0.000000 
#    z 0.000000 0.000000 1.821610 
# 
# From -- ./inp_files/184.got.cif
#   From: 2010.05.17/outbox.cif.g08.bks.cpg/sg150_cif.got.tgz:184.got - 2010.05.20 13:53:18.
