data_PCOD9575762
_publ_section_title
;
Structure prediction by ZEFSAII (Michael W. Deem and Ramdas Pophale) SiO2 
 PCOD9575762
Probable space group: P 31 2 1
;
_chemical_formula_sum "Si O2"
_cell_formula_units_Z 48
_cell_length_a 24.163230
_cell_length_b 24.163230
_cell_length_c 5.454946
_cell_angle_alpha 90.000000
_cell_angle_beta 90.000000
_cell_angle_gamma 120.000000
_cell_volume 2758.233717
_symmetry_space_group_name_H-M "P 31 2 1"
_symmetry_group_IT_number 152
_symmetry_cell_setting 'hexagonal'
loop_
_space_group_symop_operation_xyz
x,y,z
-y,x-y,1/3+z
-x+y,-x,2/3+z
x-y,-y,2/3-z
-x,-x+y,1/3-z
y,x,-z
loop_
_atom_site_type_symbol
_atom_site_label
_atom_site_fract_x
_atom_site_fract_y
_atom_site_fract_z
Si Si1 0.737697 0.517547 0.890120
Si Si2 0.204725 0.228070 0.749370
Si Si3 0.641097 0.934913 0.583824
Si Si4 0.059889 0.581061 0.911729
Si Si5 0.727865 0.389769 0.879218
Si Si6 0.868226 0.638996 0.915088
Si Si7 0.450322 0.529976 0.740244
Si Si8 0.660321 0.476599 0.393677
O O1 0.760532 0.465412 0.839939
O O2 0.793346 0.590887 0.893346
O O3 0.689674 0.503461 0.660550
O O4 0.709379 0.502575 0.165839
O O5 0.188174 0.188174 0.500000
O O6 0.283283 0.267453 0.747339
O O7 0.185782 0.283294 0.749773
O O8 0.188786 0.188786 0.000000
O O9 0.596509 0.966093 0.576119
O O10 0.625842 0.895583 0.333519
O O11 0.625117 0.892489 0.828413
O O12 0.098658 0.584500 0.669286
O O13 0.997427 0.510772 0.918312
O O14 0.097111 0.593144 0.164631
O O15 0.711650 0.342640 0.650244
O O16 0.770133 0.371024 0.052528
O O17 0.490729 0.604503 0.687353
#
# Coordination Sequence:
#
# PCOD9575762 Si02
#       8
#     6   6   6   6   6   6   6   6
#     4  11  23  35  50  60  76 102 139 162 183 217
#     4   8  16  25  40  56  82 101 110 135 175 219
#     4  10  19  28  44  64  91  97 114 142 189 237
#     4  10  21  31  49  68  88  97 113 146 191 254
#     4  10  20  35  44  52  72  92 126 161 186 198
#     4  10  20  31  42  64  80 104 123 150 180 221
#     4  10  22  34  47  67  84 100 119 148 193 238
#     4  11  23  37  50  61  77 103 132 163 191 220
#
# _framework density 17.402441
#
# number of rings (size 3 to 8) (size 9 to 14) (size 15 to 20)
#    0.000    2.000    1.250    2.250   14.000    0.000 
#    0.000    0.000    0.000    0.000    0.000    0.000 
#    0.000    0.000    0.000    0.000    0.000    0.000 
#
# Total GULP energy -267206.096090 kJ/mol
# GULP energy per Si atom -5566.793669 kJ/mol
# Density = 1.736283 g / cm^3
# Si number density = 17.402441 Si / 1000 Ang^3
#
#
#
# Elastic Constant Matrix: (Units=GPa)
#
#
# Indices 1 2 3 4 5 6 
#
# 1 12.1265 2.9745 0.8584 0.0529 0.0000 0.0000
# 2 2.9745 12.1265 0.8584 -0.0529 0.0000 0.0000
# 3 0.8584 0.8584 144.6150 0.0000 0.0000 0.0000
# 4 0.0529 -0.0529 0.0000 14.2380 0.0000 0.0000
# 5 0.0000 0.0000 0.0000 0.0000 14.2380 0.0529
# 6 0.0000 0.0000 0.0000 0.0000 0.0529 4.5760
#
#
#
# Elastic Compliance Matrix: (Units=1/GPa)
#
#
# Indices 1 2 3 4 5 6 
#
# 1 0.087768 -0.021503 -0.000393 -0.000406 0.000000 0.000000
# 2 -0.021503 0.087768 -0.000393 0.000406 0.000000 0.000000
# 3 -0.000393 -0.000393 0.006920 0.000000 0.000000 0.000000
# 4 -0.000406 0.000406 0.000000 0.070238 0.000000 0.000000
# 5 0.000000 0.000000 0.000000 0.000000 0.070238 -0.000812
# 6 0.000000 0.000000 0.000000 0.000000 -0.000812 0.218542
#
#
# Mechanical properties :
#
#
# Convention : Reuss Voigt Hill
#
# Bulk Modulus (GPa) = 7.25281 19.80561 13.52921
# Shear Modulus (GPa) = 7.91124 17.55548 12.73336
#
# Velocity S-wave (km/s) = 2.13446 3.17960 2.70793
# Velocity P-wave (km/s) = 3.20177 4.98853 4.19146
#
# Compressibility (1/GPa) = 0.13787755
#
# Stress axis : x y z
#
# Youngs Moduli (GPa) = 11.39363 11.39363 144.51738
#
# Poissons Ratio (x) = 0.24499 0.05684
# Poissons Ratio (y) = 0.24499 0.05684
# Poissons Ratio (z) = 0.00448 0.00448
#
# Static dielectric constant tensor:
#      x y z
#    x 1.604050 0.000000 0.000000 
#    y 0.000000 1.604050 0.000000 
#    z 0.000000 0.000000 1.698160 
# 
# From -- ./inp_files/597.got.cif
#   From: 2010.05.17/outbox.cif.g08.bks.cpg/sg152_1_cif.got.tgz:597.got - 2010.05.20 10:36:06.
