data_PCOD9575430
_publ_section_title
;
Structure prediction by ZEFSAII (Michael W. Deem and Ramdas Pophale) SiO2 
 PCOD9575430
Probable space group: P 3 2 1
;
_chemical_formula_sum "Si O2"
_cell_formula_units_Z 32
_cell_length_a 15.121818
_cell_length_b 15.121818
_cell_length_c 7.408211
_cell_angle_alpha 90.000000
_cell_angle_beta 90.000000
_cell_angle_gamma 120.000000
_cell_volume 1467.073892
_symmetry_space_group_name_H-M "P 3 2 1"
_symmetry_group_IT_number 150
_symmetry_cell_setting 'hexagonal'
loop_
_space_group_symop_operation_xyz
x,y,z
-y,x-y,z
-x+y,-x,z
x-y,-y,-z
-x,-x+y,-z
y,x,-z
loop_
_atom_site_type_symbol
_atom_site_label
_atom_site_fract_x
_atom_site_fract_y
_atom_site_fract_z
Si Si1 0.790095 0.000000 0.214322
Si Si2 0.827797 0.569294 0.220907
Si Si3 0.886984 0.402037 0.780299
Si Si4 0.827798 0.569294 0.779091
Si Si5 0.000000 0.000000 0.288735
Si Si6 0.113016 0.515053 0.780301
O O1 0.686274 0.900329 0.281043
O O2 0.895910 0.000000 0.237389
O O3 0.785947 0.099673 0.281042
O O4 0.776896 0.000000 0.000000
O O5 0.710900 0.517575 0.280462
O O6 0.868472 0.493549 0.276852
O O7 0.827768 0.570558 0.999999
O O8 0.868471 0.493548 0.723146
O O9 0.806676 0.289099 0.719536
O O10 0.000000 0.430474 0.727458
O O11 0.882382 0.401223 0.999999
O O12 0.000000 0.000000 0.500000
#
# Coordination Sequence:
#
# PCOD9575430 Si02
#       6
#     6   6   6   6   2   6
#     4  10  20  36  57  80 104 138 185 228 259 306
#     4   9  16  26  43  71 107 142 173 210 259 313
#     4   9  15  23  36  61 100 138 166 198 253 312
#     4   9  16  26  43  71 107 142 173 210 259 313
#     4  12  28  44  55  72 100 140 181 222 277 326
#     4   9  15  23  36  61 100 138 166 198 253 312
#
# _framework density 21.812124000000001
#
# number of rings (size 3 to 8) (size 9 to 14) (size 15 to 20)
#    0.000    2.625    1.875    1.312    2.625    3.000 
#    0.000    0.000    0.000    0.000    0.000    5.250 
#    0.000    0.000    0.000    0.000    0.000    0.000 
#
# Total GULP energy -178618.767446 kJ/mol
# GULP energy per Si atom -5581.836483 kJ/mol
# Density = 2.176248 g / cm^3
# Si number density = 21.812124 Si / 1000 Ang^3
#
#
#
# Elastic Constant Matrix: (Units=GPa)
#
#
# Indices 1 2 3 4 5 6 
#
# 1 -115.8515 358.1641 0.7657 -0.0060 0.0000 0.0002
# 2 358.1641 -115.8515 0.7657 0.0060 0.0000 -0.0002
# 3 0.7657 0.7657 68.6179 0.0000 0.0000 0.0000
# 4 -0.0060 0.0060 0.0000 -34.4934 0.0000 0.0000
# 5 0.0000 0.0000 0.0000 0.0000 -34.4934 -0.0060
# 6 0.0002 -0.0002 0.0000 0.0000 -0.0060 -237.0080
#
#
#
# Elastic Compliance Matrix: (Units=1/GPa)
#
#
# Indices 1 2 3 4 5 6 
#
# 1 0.001009 0.003118 -0.000046 0.000000 0.000000 0.000000
# 2 0.003118 0.001009 -0.000046 0.000000 0.000000 0.000000
# 3 -0.000046 -0.000046 0.014574 0.000000 0.000000 0.000000
# 4 0.000000 0.000000 0.000000 -0.028991 0.000000 0.000000
# 5 0.000000 0.000000 0.000000 0.000000 -0.028991 0.000001
# 6 0.000000 0.000000 0.000000 0.000000 0.000001 -0.004219
#
#
# Mechanical properties :
#
#
# Convention : Reuss Voigt Hill
#
# Bulk Modulus (GPa) = 44.16057 61.81178 52.98618
# Shear Modulus (GPa) = -113.34337 -96.05099 -104.69718
#
# Velocity S-wave (km/s) = -7.21639 -6.64313 -6.93569
# Velocity P-wave (km/s) = 7.01036 5.51741 6.30821
#
# Compressibility (1/GPa) = 0.02264463
#
# Stress axis : x y z
#
# Youngs Moduli (GPa) = 991.29820 991.29820 68.61310
#
# Poissons Ratio (x) = -3.09128 0.00316
# Poissons Ratio (y) = -3.09128 0.00316
# Poissons Ratio (z) = 0.04566 0.04566
#
# Static dielectric constant tensor:
#      x y z
#    x 13.944760 0.000010 0.000000 
#    y 0.000010 13.944770 0.000000 
#    z 0.000000 0.000000 1.856230 
# 
# From -- ./inp_files/655.got.cif
#   From: 2010.05.17/outbox.cif.g08.bks.cpg/sg150_cif.got.tgz:655.got - 2010.05.20 13:53:18.
