data_PCOD9575964
_publ_section_title
;
Structure prediction by ZEFSAII (Michael W. Deem and Ramdas Pophale) SiO2 
 PCOD9575964
Probable space group: P 31 2 1
;
_chemical_formula_sum "Si O2"
_cell_formula_units_Z 30
_cell_length_a 8.288142
_cell_length_b 8.288142
_cell_length_c 20.067450
_cell_angle_alpha 90.000000
_cell_angle_beta 90.000000
_cell_angle_gamma 120.000000
_cell_volume 1193.815430
_symmetry_space_group_name_H-M "P 31 2 1"
_symmetry_group_IT_number 152
_symmetry_cell_setting 'hexagonal'
loop_
_space_group_symop_operation_xyz
x,y,z
-y,x-y,1/3+z
-x+y,-x,2/3+z
x-y,-y,2/3-z
-x,-x+y,1/3-z
y,x,-z
loop_
_atom_site_type_symbol
_atom_site_label
_atom_site_fract_x
_atom_site_fract_y
_atom_site_fract_z
Si Si1 0.399898 0.931484 0.679585
Si Si2 0.878302 0.878302 0.000000
Si Si3 0.405550 0.057916 0.437688
Si Si4 0.226865 0.361730 0.249704
Si Si5 0.334497 0.634327 0.135351
Si Si6 0.658264 0.000000 0.333334
O O1 0.528366 0.956496 0.617592
O O2 0.376040 0.773288 0.732373
O O3 0.186110 0.852316 0.658639
O O4 0.459002 0.118100 0.718483
O O5 0.817742 0.707683 0.052108
O O6 0.873377 0.025907 0.053087
O O7 0.521069 0.218281 0.489919
O O8 0.546529 0.019771 0.394625
O O9 0.288535 0.847049 0.467086
O O10 0.246716 0.432443 0.173667
#
# Coordination Sequence:
#
# PCOD9575964 Si02
#       6
#     6   3   6   6   6   3
#     4  11  25  41  69  97 137 177 233 282 350 418
#     4  11  25  44  68  94 140 178 234 282 354 412
#     4  10  21  39  68 100 130 178 222 283 340 421
#     4  12  25  44  67  99 138 183 228 292 350 418
#     4  11  23  41  69 101 139 178 233 283 357 415
#     4   9  19  40  62  94 130 172 218 274 344 404
#
# _framework density 25.129511000000001
#
# number of rings (size 3 to 8) (size 9 to 14) (size 15 to 20)
#    0.000    1.200    2.000    3.600    8.400    0.000 
#    0.000    4.000    0.000    0.000    0.000    0.000 
#    0.000    0.000    0.000    0.000    0.000    0.000 
#
# Total GULP energy -167351.898563 kJ/mol
# GULP energy per Si atom -5578.396619 kJ/mol
# Density = 2.507232 g / cm^3
# Si number density = 25.129511 Si / 1000 Ang^3
#
#
#
# Elastic Constant Matrix: (Units=GPa)
#
#
# Indices 1 2 3 4 5 6 
#
# 1 47.9502 -1.2786 5.9020 2.6777 0.0002 0.0000
# 2 -1.2786 47.9502 5.9020 -2.6777 -0.0002 0.0000
# 3 5.9020 5.9020 80.3909 0.0000 0.0000 0.0000
# 4 2.6777 -2.6777 0.0000 26.7102 0.0000 -0.0002
# 5 0.0002 -0.0002 0.0000 0.0000 26.7102 2.6777
# 6 0.0000 0.0000 0.0000 -0.0002 2.6777 24.6144
#
#
#
# Elastic Compliance Matrix: (Units=1/GPa)
#
#
# Indices 1 2 3 4 5 6 
#
# 1 0.021184 0.000647 -0.001603 -0.002059 0.000000 0.000000
# 2 0.000647 0.021184 -0.001603 0.002059 0.000000 0.000000
# 3 -0.001603 -0.001603 0.012675 0.000000 0.000000 0.000000
# 4 -0.002059 0.002059 0.000000 0.037852 0.000000 0.000000
# 5 0.000000 0.000000 0.000000 0.000000 0.037852 -0.004118
# 6 0.000000 0.000000 0.000000 0.000000 -0.004118 0.041075
#
#
# Mechanical properties :
#
#
# Convention : Reuss Voigt Hill
#
# Bulk Modulus (GPa) = 20.02934 21.92689 20.97811
# Shear Modulus (GPa) = 25.82905 26.65802 26.24353
#
# Velocity S-wave (km/s) = 3.20947 3.26056 3.23512
# Velocity P-wave (km/s) = 4.66069 4.78744 4.72449
#
# Compressibility (1/GPa) = 0.04992676
#
# Stress axis : x y z
#
# Youngs Moduli (GPa) = 47.20436 47.20436 78.89818
#
# Poissons Ratio (x) = -0.03055 0.12646
# Poissons Ratio (y) = -0.03055 0.12646
# Poissons Ratio (z) = 0.07566 0.07566
#
# Static dielectric constant tensor:
#      x y z
#    x 2.077830 0.000000 0.000000 
#    y 0.000000 2.077830 0.000000 
#    z 0.000000 0.000000 1.984690 
# 
# From -- ./inp_files/3046.got.cif
#   From: 2010.05.17/outbox.cif.g08.bks.cpg/sg152_2_cif.got.tgz:3046.got - 2010.05.20 10:36:06.
