data_PCOD9575556
_publ_section_title
;
Structure prediction by ZEFSAII (Michael W. Deem and Ramdas Pophale) SiO2 
 PCOD9575556
Probable space group: P 31 1 2
;
_chemical_formula_sum "Si O2"
_cell_formula_units_Z 42
_cell_length_a 8.792940
_cell_length_b 8.792940
_cell_length_c 31.946553
_cell_angle_alpha 90.000000
_cell_angle_beta 90.000000
_cell_angle_gamma 120.000000
_cell_volume 2139.059456
_symmetry_space_group_name_H-M "P 31 1 2"
_symmetry_group_IT_number 151
_symmetry_cell_setting 'hexagonal'
loop_
_space_group_symop_operation_xyz
x,y,z
-y,x-y,1/3+z
-x+y,-x,2/3+z
-y,-x,2/3-z
-x+y,y,1/3-z
x,x-y,-z
loop_
_atom_site_type_symbol
_atom_site_label
_atom_site_fract_x
_atom_site_fract_y
_atom_site_fract_z
Si Si1 0.438860 0.179279 0.734124
Si Si2 0.694525 0.240612 0.878634
Si Si3 0.338649 0.010657 0.345369
Si Si4 0.846179 0.905500 0.450122
Si Si5 0.521502 0.600345 0.586632
Si Si6 0.439661 0.620263 0.285485
Si Si7 0.979560 0.194192 0.918954
O O1 0.626691 0.309724 0.754332
O O2 0.400845 0.268934 0.695307
O O3 0.445757 0.006427 0.719361
O O4 0.280284 0.102772 0.767747
O O5 0.690145 0.309856 0.833334
O O6 0.544576 0.041029 0.886040
O O7 0.881987 0.253172 0.885432
O O8 0.490902 0.994946 0.369678
O O9 0.261983 0.096120 0.378163
O O10 0.179634 0.820367 0.333334
O O11 0.705395 0.934775 0.424068
O O12 0.034901 0.060999 0.436248
O O13 0.818432 0.909216 0.500000
O O14 0.388504 0.676121 0.589224
O O15 0.383863 0.616138 0.333334
O O16 0.632440 0.772229 0.272731
#
# Coordination Sequence:
#
# PCOD9575556 Si02
#       7
#     6   6   6   6   6   6   6
#     4  10  21  37  66  84 118 168 202 251 307 372
#     4  10  21  41  61  86 122 166 209 247 303 376
#     4  11  20  40  61  90 123 157 209 253 315 368
#     4  11  22  42  63  91 122 161 211 256 307 373
#     4  10  24  38  60  92 121 160 200 259 314 361
#     4  10  19  38  59  90 122 155 195 247 311 378
#     4  10  21  36  66  90 116 162 205 248 310 372
#
# _framework density 19.634798
#
# number of rings (size 3 to 8) (size 9 to 14) (size 15 to 20)
#    0.000    1.714    2.857    1.714    0.000    0.000 
#    7.714    0.000    0.000    0.000    0.000    0.000 
#    0.000    0.000    0.000    0.000    0.000    0.000 
#
# Total GULP energy -234343.149922 kJ/mol
# GULP energy per Si atom -5579.598808 kJ/mol
# Density = 1.959011 g / cm^3
# Si number density = 19.634798 Si / 1000 Ang^3
#
#
#
# Elastic Constant Matrix: (Units=GPa)
#
#
# Indices 1 2 3 4 5 6 
#
# 1 84.5493 30.5476 37.2979 -0.0006 7.1033 0.0000
# 2 30.5476 84.5493 37.2979 0.0006 -7.1033 0.0000
# 3 37.2979 37.2979 93.0484 0.0000 0.0000 0.0000
# 4 -0.0006 0.0006 0.0000 20.2307 0.0000 -7.1033
# 5 7.1033 -7.1033 0.0000 0.0000 20.2307 -0.0006
# 6 0.0000 0.0000 0.0000 -7.1033 -0.0006 27.0009
#
#
#
# Elastic Compliance Matrix: (Units=1/GPa)
#
#
# Indices 1 2 3 4 5 6 
#
# 1 0.016070 -0.004332 -0.004705 0.000001 -0.007164 0.000000
# 2 -0.004332 0.016070 -0.004705 -0.000001 0.007164 0.000000
# 3 -0.004705 -0.004705 0.014519 0.000000 0.000000 0.000000
# 4 0.000001 -0.000001 0.000000 0.054460 0.000000 0.014327
# 5 -0.007164 0.007164 0.000000 0.000000 0.054460 0.000001
# 6 0.000000 0.000000 0.000000 0.014327 0.000001 0.040805
#
#
# Mechanical properties :
#
#
# Convention : Reuss Voigt Hill
#
# Bulk Modulus (GPa) = 52.15268 52.49266 52.32267
# Shear Modulus (GPa) = 21.71450 23.95938 22.83694
#
# Velocity S-wave (km/s) = 3.32914 3.49700 3.41410
# Velocity P-wave (km/s) = 6.43402 6.56490 6.49979
#
# Compressibility (1/GPa) = 0.01917447
#
# Stress axis : x y z
#
# Youngs Moduli (GPa) = 62.22739 62.22739 68.87509
#
# Poissons Ratio (x) = 0.26959 0.32406
# Poissons Ratio (y) = 0.26959 0.32406
# Poissons Ratio (z) = 0.29278 0.29278
#
# Static dielectric constant tensor:
#      x y z
#    x 1.698830 0.000000 0.000000 
#    y 0.000000 1.698830 0.000000 
#    z 0.000000 0.000000 1.710750 
# 
# From -- ./inp_files/5024.got.cif
#   From: 2010.05.17/outbox.cif.g08.bks.cpg/sg151_3_cif.got.tgz:5024.got - 2010.05.20 10:33:20.
