data_PCOD9575857
_publ_section_title
;
Structure prediction by ZEFSAII (Michael W. Deem and Ramdas Pophale) SiO2 
 PCOD9575857
Probable space group: P 31 2 1
;
_chemical_formula_sum "Si O2"
_cell_formula_units_Z 30
_cell_length_a 8.588228
_cell_length_b 8.588228
_cell_length_c 21.477394
_cell_angle_alpha 90.000000
_cell_angle_beta 90.000000
_cell_angle_gamma 120.000000
_cell_volume 1371.890179
_symmetry_space_group_name_H-M "P 31 2 1"
_symmetry_group_IT_number 152
_symmetry_cell_setting 'hexagonal'
loop_
_space_group_symop_operation_xyz
x,y,z
-y,x-y,1/3+z
-x+y,-x,2/3+z
x-y,-y,2/3-z
-x,-x+y,1/3-z
y,x,-z
loop_
_atom_site_type_symbol
_atom_site_label
_atom_site_fract_x
_atom_site_fract_y
_atom_site_fract_z
Si Si1 0.793587 0.991302 0.508335
Si Si2 0.596606 0.356677 0.211318
Si Si3 0.719540 0.115424 0.282980
Si Si4 0.552680 0.231421 0.756343
Si Si5 0.417454 0.985103 0.647831
O O1 0.967132 0.967132 0.500000
O O2 0.733731 0.998679 0.438363
O O3 0.637415 0.806520 0.541278
O O4 0.770407 0.148991 0.540343
O O5 0.676229 0.252854 0.248889
O O6 0.688375 0.393575 0.143105
O O7 0.636977 0.527187 0.253614
O O8 0.903430 0.220902 0.322214
O O9 0.570386 0.000000 0.333334
O O10 0.542893 0.084278 0.707833
O O11 0.573608 0.388423 0.710606
#
# Coordination Sequence:
#
# PCOD9575857 Si02
#       5
#     6   6   6   6   6
#     4  10  20  37  62  92 131 164 214 276 335 393
#     4  10  23  39  66  97 132 174 227 280 329 410
#     4  11  22  39  67  93 128 176 219 270 342 408
#     4  10  21  38  63  98 130 171 227 273 334 402
#     4  11  20  39  67  97 126 175 227 276 331 412
#
# _framework density 21.867637999999999
#
# number of rings (size 3 to 8) (size 9 to 14) (size 15 to 20)
#    0.000    1.600    4.000    1.200    0.000    0.000 
#    0.000    1.000    4.400    0.000    0.000    0.000 
#    0.000    0.000    0.000    0.000    0.000    0.000 
#
# Total GULP energy -167130.884505 kJ/mol
# GULP energy per Si atom -5571.029484 kJ/mol
# Density = 2.181787 g / cm^3
# Si number density = 21.867638 Si / 1000 Ang^3
#
#
#
# Elastic Constant Matrix: (Units=GPa)
#
#
# Indices 1 2 3 4 5 6 
#
# 1 43.7772 7.2578 40.7417 2.6770 -0.0002 0.0000
# 2 7.2578 43.7772 40.7417 -2.6770 0.0002 0.0000
# 3 40.7417 40.7417 165.9649 0.0000 0.0000 0.0000
# 4 2.6770 -2.6770 0.0000 37.8482 0.0000 0.0002
# 5 -0.0002 0.0002 0.0000 0.0000 37.8482 2.6770
# 6 0.0000 0.0000 0.0000 0.0002 2.6770 18.2597
#
#
#
# Elastic Compliance Matrix: (Units=1/GPa)
#
#
# Indices 1 2 3 4 5 6 
#
# 1 0.029947 0.002278 -0.007911 -0.001957 0.000000 0.000000
# 2 0.002278 0.029947 -0.007911 0.001957 0.000000 0.000000
# 3 -0.007911 -0.007911 0.009909 0.000000 0.000000 0.000000
# 4 -0.001957 0.001957 0.000000 0.026698 0.000000 0.000000
# 5 0.000000 0.000000 0.000000 0.000000 0.026698 -0.003914
# 6 0.000000 0.000000 0.000000 0.000000 -0.003914 0.055339
#
#
# Mechanical properties :
#
#
# Convention : Reuss Voigt Hill
#
# Bulk Modulus (GPa) = 23.41037 47.88908 35.64973
# Shear Modulus (GPa) = 22.74117 29.77642 26.25880
#
# Velocity S-wave (km/s) = 3.22832 3.69408 3.46902
# Velocity P-wave (km/s) = 4.96234 6.33577 5.69064
#
# Compressibility (1/GPa) = 0.04271610
#
# Stress axis : x y z
#
# Youngs Moduli (GPa) = 33.39211 33.39211 100.91584
#
# Poissons Ratio (x) = -0.07605 0.79831
# Poissons Ratio (y) = -0.07605 0.79831
# Poissons Ratio (z) = 0.26415 0.26415
#
# Static dielectric constant tensor:
#      x y z
#    x 1.862930 0.000000 0.000000 
#    y 0.000000 1.862930 0.000000 
#    z 0.000000 0.000000 1.835310 
# 
# From -- ./inp_files/2991.got.cif
#   From: 2010.05.17/outbox.cif.g08.bks.cpg/sg152_2_cif.got.tgz:2991.got - 2010.05.20 10:36:06.
