data_PCOD9575576
_publ_section_title
;
Structure prediction by ZEFSAII (Michael W. Deem and Ramdas Pophale) SiO2 
 PCOD9575576
Probable space group: P 31 1 2
;
_chemical_formula_sum "Si O2"
_cell_formula_units_Z 42
_cell_length_a 14.878053
_cell_length_b 14.878053
_cell_length_c 12.482716
_cell_angle_alpha 90.000000
_cell_angle_beta 90.000000
_cell_angle_gamma 120.000000
_cell_volume 2392.940634
_symmetry_space_group_name_H-M "P 31 1 2"
_symmetry_group_IT_number 151
_symmetry_cell_setting 'hexagonal'
loop_
_space_group_symop_operation_xyz
x,y,z
-y,x-y,1/3+z
-x+y,-x,2/3+z
-y,-x,2/3-z
-x+y,y,1/3-z
x,x-y,-z
loop_
_atom_site_type_symbol
_atom_site_label
_atom_site_fract_x
_atom_site_fract_y
_atom_site_fract_z
Si Si1 0.658405 0.926288 0.470185
Si Si2 0.204513 0.005878 0.664538
Si Si3 0.089565 0.306644 0.438545
Si Si4 0.472319 0.734750 0.129123
Si Si5 0.211160 0.998948 0.316813
Si Si6 0.385553 0.092994 0.500133
Si Si7 0.469442 0.945283 0.539376
O O1 0.608151 0.804076 0.500000
O O2 0.680695 0.946072 0.345216
O O3 0.577389 0.960707 0.500600
O O4 0.757064 0.975722 0.549129
O O5 0.167871 0.089945 0.667864
O O6 0.315873 0.058347 0.607290
O O7 0.137822 0.904851 0.591297
O O8 0.175921 0.420237 0.483273
O O9 0.003298 0.251783 0.529786
O O10 0.370897 0.741793 0.166667
O O11 0.463333 0.626014 0.163207
O O12 0.480473 0.740237 0.000000
O O13 0.304318 0.038763 0.401995
O O14 0.118821 0.881180 0.333334
O O15 0.433780 0.216890 0.500000
O O16 0.456223 0.041417 0.503759
O O17 0.469004 0.938008 0.666667
#
# Coordination Sequence:
#
# PCOD9575576 Si02
#       7
#     6   6   6   6   6   6   6
#     4  10  21  36  52  83 120 148 185 236 290 358
#     4  10  20  38  54  79 111 149 196 242 280 344
#     4  11  21  38  51  79 120 152 191 239 288 350
#     4  12  23  35  55  86 123 163 197 234 290 357
#     4  11  21  36  59  79 110 153 193 243 297 350
#     4  10  20  36  58  86 109 140 197 249 286 341
#     4  12  19  35  61  84 113 155 198 236 294 349
#
# _framework density 17.551627
#
# number of rings (size 3 to 8) (size 9 to 14) (size 15 to 20)
#    0.000    1.143    4.286    3.857    0.000    0.571 
#    7.714    0.000    0.000    0.000    3.714    0.000 
#    0.000    0.000    0.000    0.000    0.000    0.000 
#
# Total GULP energy -234271.982347 kJ/mol
# GULP energy per Si atom -5577.904342 kJ/mol
# Density = 1.751168 g / cm^3
# Si number density = 17.551627 Si / 1000 Ang^3
#
#
#
# Elastic Constant Matrix: (Units=GPa)
#
#
# Indices 1 2 3 4 5 6 
#
# 1 -0.9542 80.8884 25.1764 0.0159 -89.0439 0.0000
# 2 80.8884 -0.9542 25.1764 -0.0159 89.0439 0.0000
# 3 25.1764 25.1764 145.7436 0.0000 0.0000 0.0000
# 4 0.0159 -0.0159 0.0000 -100.3766 0.0000 89.0439
# 5 -89.0439 89.0439 0.0000 0.0000 -100.3766 0.0158
# 6 0.0000 0.0000 0.0000 89.0439 0.0158 -40.9213
#
#
#
# Elastic Compliance Matrix: (Units=1/GPa)
#
#
# Indices 1 2 3 4 5 6 
#
# 1 0.013586 0.000452 -0.002425 0.000002 -0.011651 0.000000
# 2 0.000452 0.013586 -0.002425 -0.000002 0.011651 0.000000
# 3 -0.002425 -0.002425 0.007699 0.000000 0.000000 0.000000
# 4 0.000002 -0.000002 0.000000 0.010709 0.000000 0.023302
# 5 -0.011651 0.011651 0.000000 0.000000 0.010709 0.000004
# 6 0.000000 0.000000 0.000000 0.023302 0.000004 0.026268
#
#
# Mechanical properties :
#
#
# Convention : Reuss Voigt Hill
#
# Bulk Modulus (GPa) = 38.35092 45.14639 41.74866
# Shear Modulus (GPa) = 49.97804 -47.49530 1.24137
#
# Velocity S-wave (km/s) = 5.34197 -5.20760 0.84191
# Velocity P-wave (km/s) = 7.74253 3.22194 4.97824
#
# Compressibility (1/GPa) = 0.02607499
#
# Stress axis : x y z
#
# Youngs Moduli (GPa) = 73.60588 73.60588 129.88432
#
# Poissons Ratio (x) = -0.03327 0.31496
# Poissons Ratio (y) = -0.03327 0.31496
# Poissons Ratio (z) = 0.17849 0.17849
#
# Static dielectric constant tensor:
#      x y z
#    x 1.626750 0.000000 0.000000 
#    y 0.000000 1.626750 0.000000 
#    z 0.000000 0.000000 1.607200 
# 
# From -- ./inp_files/2599.got.cif
#   From: 2010.05.17/outbox.cif.g08.bks.cpg/sg151_2_cif.got.tgz:2599.got - 2010.05.20 10:33:20.
