data_PCOD9575407
_publ_section_title
;
Structure prediction by ZEFSAII (Michael W. Deem and Ramdas Pophale) SiO2 
 PCOD9575407
Probable space group: P 3 2 1
;
_chemical_formula_sum "Si O2"
_cell_formula_units_Z 39
_cell_length_a 16.465089
_cell_length_b 16.465089
_cell_length_c 8.553569
_cell_angle_alpha 90.000000
_cell_angle_beta 90.000000
_cell_angle_gamma 120.000000
_cell_volume 2008.196288
_symmetry_space_group_name_H-M "P 3 2 1"
_symmetry_group_IT_number 150
_symmetry_cell_setting 'hexagonal'
loop_
_space_group_symop_operation_xyz
x,y,z
-y,x-y,z
-x+y,-x,z
x-y,-y,-z
-x,-x+y,-z
y,x,-z
loop_
_atom_site_type_symbol
_atom_site_label
_atom_site_fract_x
_atom_site_fract_y
_atom_site_fract_z
Si Si1 0.432677 0.173002 0.011531
Si Si2 0.331899 0.331899 0.500000
Si Si3 0.057445 0.466114 0.762441
Si Si4 0.418337 0.845602 0.208321
Si Si5 0.515986 0.841748 0.728096
Si Si6 0.238374 0.390100 0.267110
Si Si7 0.310555 0.794999 0.501892
O O1 0.409439 0.083246 0.115371
O O2 0.438739 0.248402 0.137683
O O3 0.531183 0.197473 0.919928
O O4 0.362714 0.167838 0.876839
O O5 0.342233 0.420216 0.600784
O O6 0.260176 0.318881 0.360954
O O7 0.116008 0.575245 0.812813
O O8 0.108036 0.474115 0.598170
O O9 0.949556 0.434356 0.763966
O O10 0.521734 0.857504 0.196888
O O11 0.377526 0.790800 0.370948
O O12 0.459215 0.746033 0.628252
O O13 0.201782 0.432852 0.398857
#
# Coordination Sequence:
#
# PCOD9575407 Si02
#       7
#     6   3   6   6   6   6   6
#     4  10  23  35  42  74 100 122 163 249 277 315
#     4  10  18  34  60  70  82 136 170 232 254 340
#     4  11  20  36  55  68  96 146 191 218 271 367
#     4  11  20  36  55  68  96 146 191 218 271 367
#     4  10  20  36  50  72 102 126 184 229 285 324
#     4  10  20  36  50  72 102 126 184 229 285 324
#     4   9  20  31  46  75  96 119 172 248 266 301
#
# _framework density 19.420411999999999
#
# number of rings (size 3 to 8) (size 9 to 14) (size 15 to 20)
#    0.000    1.846    1.538    3.692    0.000    0.615 
#   36.923    0.000    0.000    0.000    0.000    0.000 
#    0.000    0.000    0.000    0.000    0.000    0.000 
#
# Total GULP energy -217181.504547 kJ/mol
# GULP energy per Si atom -5568.756527 kJ/mol
# Density = 1.937621 g / cm^3
# Si number density = 19.420412 Si / 1000 Ang^3
#
#
#
# Elastic Constant Matrix: (Units=GPa)
#
#
# Indices 1 2 3 4 5 6 
#
# 1 66.3165 22.1994 12.0564 -1.5443 0.0000 0.0000
# 2 22.1994 66.3165 12.0564 1.5443 0.0000 0.0000
# 3 12.0564 12.0564 49.5498 0.0000 0.0000 0.0000
# 4 -1.5443 1.5443 0.0000 28.8695 0.0000 0.0000
# 5 0.0000 0.0000 0.0000 0.0000 28.8695 -1.5443
# 6 0.0000 0.0000 0.0000 0.0000 -1.5443 22.0585
#
#
#
# Elastic Compliance Matrix: (Units=1/GPa)
#
#
# Indices 1 2 3 4 5 6 
#
# 1 0.017426 -0.005326 -0.002944 0.001217 0.000000 0.000000
# 2 -0.005326 0.017426 -0.002944 -0.001217 0.000000 0.000000
# 3 -0.002944 -0.002944 0.021614 0.000000 0.000000 0.000000
# 4 0.001217 -0.001217 0.000000 0.034769 0.000000 0.000000
# 5 0.000000 0.000000 0.000000 0.000000 0.034769 0.002434
# 6 0.000000 0.000000 0.000000 0.000000 0.002434 0.045504
#
#
# Mechanical properties :
#
#
# Convention : Reuss Voigt Hill
#
# Bulk Modulus (GPa) = 29.37969 30.53414 29.95691
# Shear Modulus (GPa) = 24.35670 25.01757 24.68713
#
# Velocity S-wave (km/s) = 3.54528 3.59306 3.56925
# Velocity P-wave (km/s) = 5.64976 5.74197 5.69605
#
# Compressibility (1/GPa) = 0.03403712
#
# Stress axis : x y z
#
# Youngs Moduli (GPa) = 57.38627 57.38627 46.26548
#
# Poissons Ratio (x) = 0.30566 0.13621
# Poissons Ratio (y) = 0.30566 0.13621
# Poissons Ratio (z) = 0.16895 0.16895
#
# Static dielectric constant tensor:
#      x y z
#    x 1.709540 0.000000 0.000000 
#    y 0.000000 1.709540 0.000000 
#    z 0.000000 0.000000 1.773820 
# 
# From -- ./inp_files/731.got.cif
#   From: 2010.05.17/outbox.cif.g08.bks.cpg/sg150_cif.got.tgz:731.got - 2010.05.20 13:53:18.
