data_PCOD9575603
_publ_section_title
;
Structure prediction by ZEFSAII (Michael W. Deem and Ramdas Pophale) SiO2 
 PCOD9575603
Probable space group: P 31 1 2
;
_chemical_formula_sum "Si O2"
_cell_formula_units_Z 36
_cell_length_a 9.431888
_cell_length_b 9.431888
_cell_length_c 23.963690
_cell_angle_alpha 90.000000
_cell_angle_beta 90.000000
_cell_angle_gamma 120.000000
_cell_volume 1846.212107
_symmetry_space_group_name_H-M "P 31 1 2"
_symmetry_group_IT_number 151
_symmetry_cell_setting 'hexagonal'
loop_
_space_group_symop_operation_xyz
x,y,z
-y,x-y,1/3+z
-x+y,-x,2/3+z
-y,-x,2/3-z
-x+y,y,1/3-z
x,x-y,-z
loop_
_atom_site_type_symbol
_atom_site_label
_atom_site_fract_x
_atom_site_fract_y
_atom_site_fract_z
Si Si1 0.723572 0.490154 0.280890
Si Si2 0.755283 0.853301 0.435535
Si Si3 0.974804 0.737219 0.366582
Si Si4 0.460260 0.576077 0.266182
Si Si5 0.768698 0.183572 0.399482
Si Si6 0.427298 0.508870 0.898156
O O1 0.616964 0.383037 0.333334
O O2 0.864735 0.636346 0.314503
O O3 0.613640 0.551681 0.249597
O O4 0.788617 0.382195 0.249774
O O5 0.800151 0.900076 0.500000
O O6 0.877739 0.804552 0.404287
O O7 0.574070 0.697400 0.428747
O O8 0.749146 0.007706 0.410010
O O9 0.029658 0.626525 0.402110
O O10 0.123494 0.876507 0.333334
O O11 0.442421 0.557580 0.333334
O O12 0.478179 0.750330 0.252396
O O13 0.788422 0.211579 0.333334
O O14 0.932380 0.325182 0.427273
O O15 0.449370 0.550631 0.833334
#
# Coordination Sequence:
#
# PCOD9575603 Si02
#       6
#     6   6   6   6   6   6
#     4  10  20  42  68  91 118 163 223 259 308 373
#     4  12  25  42  65  97 134 170 214 274 332 379
#     4  12  25  43  68  95 130 171 221 269 315 394
#     4  11  22  42  68  91 130 171 216 263 316 391
#     4  11  22  41  69  94 122 170 224 256 317 395
#     4  12  25  42  65  98 135 166 208 273 334 379
#
# _framework density 19.499386000000001
#
# number of rings (size 3 to 8) (size 9 to 14) (size 15 to 20)
#    0.000    0.667    6.667    3.500    4.667    0.000 
#    0.000    0.000    0.000    0.000    0.000    0.000 
#    0.000    0.000    0.000    0.000    0.000    0.000 
#
# Total GULP energy -200937.045396 kJ/mol
# GULP energy per Si atom -5581.584594 kJ/mol
# Density = 1.945500 g / cm^3
# Si number density = 19.499386 Si / 1000 Ang^3
#
#
#
# Elastic Constant Matrix: (Units=GPa)
#
#
# Indices 1 2 3 4 5 6 
#
# 1 162.5548 84.7107 21.6986 -0.0007 1.7081 0.0000
# 2 84.7107 162.5548 21.6986 0.0007 -1.7081 0.0000
# 3 21.6986 21.6986 33.4763 0.0000 0.0000 0.0000
# 4 -0.0007 0.0007 0.0000 10.3000 0.0000 -1.7081
# 5 1.7081 -1.7081 0.0000 0.0000 10.3000 -0.0007
# 6 0.0000 0.0000 0.0000 -1.7081 -0.0007 38.9220
#
#
#
# Elastic Compliance Matrix: (Units=1/GPa)
#
#
# Indices 1 2 3 4 5 6 
#
# 1 0.008752 -0.004188 -0.002958 0.000001 -0.002146 0.000000
# 2 -0.004188 0.008752 -0.002958 -0.000001 0.002146 0.000000
# 3 -0.002958 -0.002958 0.033706 0.000000 0.000000 0.000000
# 4 0.000001 -0.000001 0.000000 0.097800 0.000000 0.004292
# 5 -0.002146 0.002146 0.000000 0.000000 0.097800 0.000002
# 6 0.000000 0.000000 0.000000 0.004292 0.000002 0.025881
#
#
# Mechanical properties :
#
#
# Convention : Reuss Voigt Hill
#
# Bulk Modulus (GPa) = 32.25640 68.31129 50.28384
# Shear Modulus (GPa) = 16.48901 27.26959 21.87930
#
# Velocity S-wave (km/s) = 2.91110 3.74369 3.35334
# Velocity P-wave (km/s) = 5.27992 7.33454 6.39035
#
# Compressibility (1/GPa) = 0.03100160
#
# Stress axis : x y z
#
# Youngs Moduli (GPa) = 114.26134 114.26134 29.66798
#
# Poissons Ratio (x) = 0.47858 0.08775
# Poissons Ratio (y) = 0.47858 0.08775
# Poissons Ratio (z) = 0.33797 0.33797
#
# Static dielectric constant tensor:
#      x y z
#    x 1.676110 0.000000 0.000000 
#    y 0.000000 1.676110 0.000000 
#    z 0.000000 0.000000 1.655610 
# 
# From -- ./inp_files/4674.got.cif
#   From: 2010.05.17/outbox.cif.g08.bks.cpg/sg151_3_cif.got.tgz:4674.got - 2010.05.20 10:33:20.
