data_PCOD9575844
_publ_section_title
;
Structure prediction by ZEFSAII (Michael W. Deem and Ramdas Pophale) SiO2 
 PCOD9575844
Probable space group: P 31 2 1
;
_chemical_formula_sum "Si O2"
_cell_formula_units_Z 33
_cell_length_a 11.525115
_cell_length_b 11.525115
_cell_length_c 14.594897
_cell_angle_alpha 90.000000
_cell_angle_beta 90.000000
_cell_angle_gamma 120.000000
_cell_volume 1678.889841
_symmetry_space_group_name_H-M "P 31 2 1"
_symmetry_group_IT_number 152
_symmetry_cell_setting 'hexagonal'
loop_
_space_group_symop_operation_xyz
x,y,z
-y,x-y,1/3+z
-x+y,-x,2/3+z
x-y,-y,2/3-z
-x,-x+y,1/3-z
y,x,-z
loop_
_atom_site_type_symbol
_atom_site_label
_atom_site_fract_x
_atom_site_fract_y
_atom_site_fract_z
Si Si1 0.614277 0.649036 0.601509
Si Si2 0.963169 0.277727 0.770619
Si Si3 0.864931 0.381240 0.428346
Si Si4 0.403672 0.290326 0.647856
Si Si5 0.191030 0.191030 0.500000
Si Si6 0.757758 0.432555 0.135204
O O1 0.672706 0.672706 0.500000
O O2 0.667114 0.576176 0.669918
O O3 0.639251 0.783279 0.648985
O O4 0.451963 0.570814 0.582781
O O5 0.941032 0.143048 0.821902
O O6 0.821122 0.273720 0.772725
O O7 0.000000 0.274413 0.666667
O O8 0.067731 0.412698 0.822725
O O9 0.929310 0.538396 0.399871
O O10 0.711489 0.337189 0.451184
O O11 0.280132 0.270855 0.588020
O O12 0.525153 0.331018 0.574154
#
# Coordination Sequence:
#
# PCOD9575844 Si02
#       6
#     6   6   6   6   3   6
#     4  11  20  34  58  91 123 162 206 257 316 379
#     4  11  25  39  63  93 123 163 215 262 318 374
#     4  11  21  34  57  90 126 154 203 262 316 373
#     4  10  20  36  59  90 123 163 204 256 320 380
#     4  10  20  44  66  84 118 180 220 252 306 392
#     4  10  22  34  59  88 128 160 206 259 319 378
#
# _framework density 19.655843999999998
#
# number of rings (size 3 to 8) (size 9 to 14) (size 15 to 20)
#    0.000    1.455    5.455    2.182    6.364    1.455 
#    0.000    0.000    2.000    1.091    0.000    0.000 
#    0.000    0.000    0.000    0.000    0.000    0.000 
#
# Total GULP energy -183768.240249 kJ/mol
# GULP energy per Si atom -5568.734553 kJ/mol
# Density = 1.961111 g / cm^3
# Si number density = 19.655844 Si / 1000 Ang^3
#
#
#
# Elastic Constant Matrix: (Units=GPa)
#
#
# Indices 1 2 3 4 5 6 
#
# 1 65.1763 21.6548 24.1958 -3.1662 0.0005 0.0000
# 2 21.6548 65.1763 24.1958 3.1662 -0.0005 0.0000
# 3 24.1958 24.1958 83.8824 0.0000 0.0000 0.0000
# 4 -3.1662 3.1662 0.0000 28.3889 0.0000 -0.0005
# 5 0.0005 -0.0005 0.0000 0.0000 28.3889 -3.1662
# 6 0.0000 0.0000 0.0000 -0.0005 -3.1662 21.7607
#
#
#
# Elastic Compliance Matrix: (Units=1/GPa)
#
#
# Indices 1 2 3 4 5 6 
#
# 1 0.018539 -0.004817 -0.003958 0.002605 0.000000 0.000000
# 2 -0.004817 0.018539 -0.003958 -0.002605 0.000000 0.000000
# 3 -0.003958 -0.003958 0.014205 0.000000 0.000000 0.000000
# 4 0.002605 -0.002605 0.000000 0.035806 0.000000 0.000001
# 5 0.000000 0.000000 0.000000 0.000000 0.035806 0.005210
# 6 0.000000 0.000000 0.000000 0.000001 0.005210 0.046712
#
#
# Mechanical properties :
#
#
# Convention : Reuss Voigt Hill
#
# Bulk Modulus (GPa) = 38.73408 39.36976 39.05192
# Shear Modulus (GPa) = 24.54827 25.32031 24.93429
#
# Velocity S-wave (km/s) = 3.53782 3.59302 3.56553
# Velocity P-wave (km/s) = 6.03632 6.10623 6.07138
#
# Compressibility (1/GPa) = 0.02581706
#
# Stress axis : x y z
#
# Youngs Moduli (GPa) = 53.93929 53.93929 70.39800
#
# Poissons Ratio (x) = 0.25982 0.27865
# Poissons Ratio (y) = 0.25982 0.27865
# Poissons Ratio (z) = 0.21351 0.21351
#
# Static dielectric constant tensor:
#      x y z
#    x 1.722880 0.000000 0.000000 
#    y 0.000000 1.722880 0.000000 
#    z 0.000000 0.000000 1.727280 
# 
# From -- ./inp_files/2014.got.cif
#   From: 2010.05.17/outbox.cif.g08.bks.cpg/sg152_2_cif.got.tgz:2014.got - 2010.05.20 10:36:06.
