data_PCOD9575326
_publ_section_title
;
Structure prediction by ZEFSAII (Michael W. Deem and Ramdas Pophale) SiO2 
 PCOD9575326
Probable space group: R -3
;
_chemical_formula_sum "Si O2"
_cell_formula_units_Z 54
_cell_length_a 18.680945
_cell_length_b 18.680945
_cell_length_c 6.872193
_cell_angle_alpha 90.000000
_cell_angle_beta 90.000000
_cell_angle_gamma 120.000000
_cell_volume 2076.938625
_symmetry_space_group_name_H-M "R -3"
_symmetry_group_IT_number 148
_symmetry_cell_setting 'hexagonal'
loop_
_space_group_symop_operation_xyz
x,y,z
-y,x-y,z
-x+y,-x,z
-x,-y,-z
y,-x+y,-z
x-y,x,-z
2/3+x,1/3+y,1/3+z
2/3-y,1/3+x-y,1/3+z
2/3-x+y,1/3-x,1/3+z
2/3-x,1/3-y,1/3-z
2/3+y,1/3-x+y,1/3-z
2/3+x-y,1/3+x,1/3-z
1/3+x,2/3+y,2/3+z
1/3-y,2/3+x-y,2/3+z
1/3-x+y,2/3-x,2/3+z
1/3-x,2/3-y,2/3-z
1/3+y,2/3-x+y,2/3-z
1/3+x-y,2/3+x,2/3-z
loop_
_atom_site_type_symbol
_atom_site_label
_atom_site_fract_x
_atom_site_fract_y
_atom_site_fract_z
Si Si1 0.901900 0.087368 0.963112
Si Si2 0.185827 0.051482 0.534806
Si Si3 0.330836 0.266238 0.055174
O O1 0.917717 0.131956 0.755172
O O2 0.830086 0.093957 0.071825
O O3 0.989663 0.124261 0.067389
O O4 0.153610 0.111343 0.456764
O O5 0.259197 0.055546 0.407517
O O6 0.287268 0.306263 0.924159
#
# Coordination Sequence:
#
# PCOD9575326 Si02
#       3
#    18  18  18
#     4  12  27  48  77 113 154 201 261 316 388 461
#     4  12  26  49  77 111 156 204 255 319 390 455
#     4  12  28  51  80 114 157 205 262 320 386 460
#
# _framework density 25.999806
#
# number of rings (size 3 to 8) (size 9 to 14) (size 15 to 20)
#    0.000    0.000    3.333    5.667    4.667    1.333 
#    0.000    0.000    0.000    0.000    0.000    0.000 
#    0.000    0.000    0.000    0.000    0.000    0.000 
#
# Total GULP energy -101234.585954 kJ/mol
# GULP energy per Si atom -5624.143664 kJ/mol
# Density = 2.594063 g / cm^3
# Si number density = 25.999806 Si / 1000 Ang^3
#
#
#
# Elastic Constant Matrix: (Units=GPa)
#
#
# Indices 1 2 3 4 5 6 
#
# 1 143.2048 51.6269 15.0909 -1.8673 3.6340 -0.0091
# 2 51.6269 143.1749 15.0555 1.8509 -3.6288 -0.0035
# 3 15.0909 15.0555 111.0062 -0.0342 -0.0215 -0.0190
# 4 -1.8673 1.8509 -0.0342 50.0875 -0.0256 -3.6363
# 5 3.6340 -3.6288 -0.0215 -0.0256 50.0805 -1.8706
# 6 -0.0091 -0.0035 -0.0190 -3.6363 -1.8706 45.7674
#
#
#
# Elastic Compliance Matrix: (Units=1/GPa)
#
#
# Indices 1 2 3 4 5 6 
#
# 1 0.008122 -0.002879 -0.000714 0.000408 -0.000798 0.000001
# 2 -0.002879 0.008123 -0.000710 -0.000408 0.000797 0.000000
# 3 -0.000714 -0.000710 0.009202 0.000006 0.000004 0.000004
# 4 0.000408 -0.000408 0.000006 0.020111 0.000011 0.001598
# 5 -0.000798 0.000797 0.000004 0.000011 0.020114 0.000823
# 6 0.000001 0.000000 0.000004 0.001598 0.000823 0.022010
#
#
# Mechanical properties :
#
#
# Convention : Reuss Voigt Hill
#
# Bulk Modulus (GPa) = 59.38094 62.32585 60.85339
# Shear Modulus (GPa) = 49.06695 50.22792 49.64743
#
# Velocity S-wave (km/s) = 4.34891 4.40006 4.37456
# Velocity P-wave (km/s) = 6.93584 7.05958 6.99799
#
# Compressibility (1/GPa) = 0.01684042
#
# Stress axis : x y z
#
# Youngs Moduli (GPa) = 123.12676 123.11083 108.67366
#
# Poissons Ratio (x) = 0.35444 0.07756
# Poissons Ratio (y) = 0.35449 0.07719
# Poissons Ratio (z) = 0.08787 0.08744
#
# Static dielectric constant tensor:
#      x y z
#    x 2.013340 0.000000 -0.000020 
#    y 0.000000 2.013350 0.000000 
#    z -0.000020 0.000000 2.050030 
# 
# From -- ./inp_files/665.got.cif
#   From: 2010.05.17/outbox.cif.g08.bks.cpg/sg148_1_cif.got.tgz:665.got - 2010.05.20 13:50:20.
