data_PCOD9575848
_publ_section_title
;
Structure prediction by ZEFSAII (Michael W. Deem and Ramdas Pophale) SiO2 
 PCOD9575848
Probable space group: P 31 2 1
;
_chemical_formula_sum "Si O2"
_cell_formula_units_Z 42
_cell_length_a 14.823792
_cell_length_b 14.823792
_cell_length_c 11.537228
_cell_angle_alpha 90.000000
_cell_angle_beta 90.000000
_cell_angle_gamma 120.000000
_cell_volume 2195.587412
_symmetry_space_group_name_H-M "P 31 2 1"
_symmetry_group_IT_number 152
_symmetry_cell_setting 'hexagonal'
loop_
_space_group_symop_operation_xyz
x,y,z
-y,x-y,1/3+z
-x+y,-x,2/3+z
x-y,-y,2/3-z
-x,-x+y,1/3-z
y,x,-z
loop_
_atom_site_type_symbol
_atom_site_label
_atom_site_fract_x
_atom_site_fract_y
_atom_site_fract_z
Si Si1 0.014028 0.623379 0.040022
Si Si2 0.407560 0.716542 0.164071
Si Si3 0.737735 0.627245 0.474718
Si Si4 0.503684 0.592814 0.718879
Si Si5 0.916975 0.409831 0.570743
Si Si6 0.690431 0.052673 0.211766
Si Si7 0.807855 0.383362 0.271085
O O1 0.128832 0.634469 0.032786
O O2 0.000000 0.661943 0.166667
O O3 0.993524 0.659167 0.914128
O O4 0.936040 0.499126 0.039146
O O5 0.414994 0.826302 0.135139
O O6 0.478373 0.681765 0.087550
O O7 0.435040 0.691206 0.289033
O O8 0.284380 0.637083 0.153056
O O9 0.726839 0.726839 0.500000
O O10 0.700261 0.576330 0.347401
O O11 0.847333 0.645540 0.514503
O O12 0.653434 0.538008 0.557488
O O13 0.577720 0.559834 0.787231
O O14 0.914277 0.517617 0.570321
O O15 0.000000 0.420302 0.666667
O O16 0.693782 0.000000 0.333334
#
# Coordination Sequence:
#
# PCOD9575848 Si02
#       7
#     6   6   6   6   6   6   6
#     4  11  20  37  55  80 120 154 201 252 293 352
#     4  12  22  31  54  76 110 163 202 241 298 357
#     4  12  21  39  59  81 118 157 200 259 305 365
#     4  11  21  34  52  81 116 158 207 252 300 354
#     4  10  20  37  50  79 117 155 203 254 291 354
#     4  10  22  39  58  85 116 153 200 252 308 366
#     4  12  20  35  49  79 109 151 210 238 292 356
#
# _framework density 19.129277999999999
#
# number of rings (size 3 to 8) (size 9 to 14) (size 15 to 20)
#    0.000    0.857    7.143    2.571    4.000    0.000 
#    2.571    0.000    0.000    0.000    0.000    1.000 
#    0.000    1.143    0.000    0.000    0.000    0.000 
#
# Total GULP energy -233950.841890 kJ/mol
# GULP energy per Si atom -5570.258140 kJ/mol
# Density = 1.908574 g / cm^3
# Si number density = 19.129278 Si / 1000 Ang^3
#
#
#
# Elastic Constant Matrix: (Units=GPa)
#
#
# Indices 1 2 3 4 5 6 
#
# 1 70.2394 19.7936 27.6912 1.1600 0.0000 0.0000
# 2 19.7936 70.2394 27.6912 -1.1600 0.0000 0.0000
# 3 27.6912 27.6912 116.0825 0.0000 0.0000 0.0000
# 4 1.1600 -1.1600 0.0000 18.0080 0.0000 0.0000
# 5 0.0000 0.0000 0.0000 0.0000 18.0080 1.1600
# 6 0.0000 0.0000 0.0000 0.0000 1.1600 25.2229
#
#
#
# Elastic Compliance Matrix: (Units=1/GPa)
#
#
# Indices 1 2 3 4 5 6 
#
# 1 0.016450 -0.003433 -0.003105 -0.001281 0.000000 0.000000
# 2 -0.003433 0.016450 -0.003105 0.001281 0.000000 0.000000
# 3 -0.003105 -0.003105 0.010096 0.000000 0.000000 0.000000
# 4 -0.001281 0.001281 0.000000 0.055696 0.000000 0.000000
# 5 0.000000 0.000000 0.000000 0.000000 0.055696 -0.002561
# 6 0.000000 0.000000 0.000000 0.000000 -0.002561 0.039764
#
#
# Mechanical properties :
#
#
# Convention : Reuss Voigt Hill
#
# Bulk Modulus (GPa) = 42.17715 45.21258 43.69486
# Shear Modulus (GPa) = 22.58964 24.34013 23.46489
#
# Velocity S-wave (km/s) = 3.44014 3.57094 3.50615
# Velocity P-wave (km/s) = 6.15433 6.37878 6.26756
#
# Compressibility (1/GPa) = 0.02370952
#
# Stress axis : x y z
#
# Youngs Moduli (GPa) = 60.79151 60.79151 99.04872
#
# Poissons Ratio (x) = 0.20867 0.30757
# Poissons Ratio (y) = 0.20867 0.30757
# Poissons Ratio (z) = 0.18877 0.18877
#
# Static dielectric constant tensor:
#      x y z
#    x 1.688310 0.000000 0.000000 
#    y 0.000000 1.688310 0.000000 
#    z 0.000000 0.000000 1.855450 
# 
# From -- ./inp_files/1820.got.cif
#   From: 2010.05.17/outbox.cif.g08.bks.cpg/sg152_1_cif.got.tgz:1820.got - 2010.05.20 10:36:06.
