data_PCOD9575911
_publ_section_title
;
Structure prediction by ZEFSAII (Michael W. Deem and Ramdas Pophale) SiO2 
 PCOD9575911
Probable space group: P 31 2 1
;
_chemical_formula_sum "Si O2"
_cell_formula_units_Z 33
_cell_length_a 7.424084
_cell_length_b 7.424084
_cell_length_c 25.633590
_cell_angle_alpha 90.000000
_cell_angle_beta 90.000000
_cell_angle_gamma 120.000000
_cell_volume 1223.561546
_symmetry_space_group_name_H-M "P 31 2 1"
_symmetry_group_IT_number 152
_symmetry_cell_setting 'hexagonal'
loop_
_space_group_symop_operation_xyz
x,y,z
-y,x-y,1/3+z
-x+y,-x,2/3+z
x-y,-y,2/3-z
-x,-x+y,1/3-z
y,x,-z
loop_
_atom_site_type_symbol
_atom_site_label
_atom_site_fract_x
_atom_site_fract_y
_atom_site_fract_z
Si Si1 0.532689 0.537240 0.911587
Si Si2 0.803983 0.222043 0.854760
Si Si3 0.000000 0.221895 0.666667
Si Si4 0.239898 0.373958 0.162705
Si Si5 0.151719 0.784232 0.943372
Si Si6 0.396336 0.581180 0.379851
O O1 0.613371 0.635425 0.854193
O O2 0.323112 0.346339 0.886029
O O3 0.610255 0.400533 0.942379
O O4 0.599269 0.715059 0.954767
O O5 0.597631 0.247579 0.844606
O O6 0.791773 0.204616 0.917400
O O7 0.744082 0.000000 0.833334
O O8 0.151943 0.169857 0.698801
O O9 0.323280 0.388059 0.221036
O O10 0.000000 0.200218 0.166667
O O11 0.380065 0.988289 0.937417
O O12 0.166115 0.635313 0.985926
#
# Coordination Sequence:
#
# PCOD9575911 Si02
#       6
#     6   6   3   6   6   6
#     4  11  25  45  73 109 148 191 254 312 385 451
#     4  10  20  44  71 105 140 191 248 306 367 452
#     4  12  30  46  68 114 158 192 252 318 384 466
#     4  10  22  47  75 103 141 196 253 306 375 457
#     4  12  25  51  74 111 152 199 255 313 384 463
#     4  11  25  46  80 106 148 202 249 311 382 455
#
# _framework density 26.970443
#
# number of rings (size 3 to 8) (size 9 to 14) (size 15 to 20)
#    0.000    1.091    5.455    2.182   10.182    0.727 
#    0.000    4.545    0.000    0.000    0.000    0.000 
#    0.000    0.000    0.000    0.000    0.000    0.000 
#
# Total GULP energy -184012.515677 kJ/mol
# GULP energy per Si atom -5576.136839 kJ/mol
# Density = 2.690906 g / cm^3
# Si number density = 26.970443 Si / 1000 Ang^3
#
#
#
# Elastic Constant Matrix: (Units=GPa)
#
#
# Indices 1 2 3 4 5 6 
#
# 1 73.3042 17.1567 33.3486 -6.2574 0.0003 0.0000
# 2 17.1567 73.3042 33.3486 6.2574 -0.0003 0.0000
# 3 33.3486 33.3486 225.5588 0.0000 0.0000 0.0000
# 4 -6.2574 6.2574 0.0000 48.2199 0.0000 -0.0003
# 5 0.0003 -0.0003 0.0000 0.0000 48.2199 -6.2574
# 6 0.0000 0.0000 0.0000 -0.0003 -6.2574 28.0737
#
#
#
# Elastic Compliance Matrix: (Units=1/GPa)
#
#
# Indices 1 2 3 4 5 6 
#
# 1 0.015374 -0.002967 -0.001834 0.002380 0.000000 0.000000
# 2 -0.002967 0.015374 -0.001834 -0.002380 0.000000 0.000000
# 3 -0.001834 -0.001834 0.004976 0.000000 0.000000 0.000000
# 4 0.002380 -0.002380 0.000000 0.021356 0.000000 0.000000
# 5 0.000000 0.000000 0.000000 0.000000 0.021356 0.004760
# 6 0.000000 0.000000 0.000000 0.000000 0.004760 0.036681
#
#
# Mechanical properties :
#
#
# Convention : Reuss Voigt Hill
#
# Bulk Modulus (GPa) = 44.53872 59.98609 52.26240
# Shear Modulus (GPa) = 36.79926 44.12361 40.46143
#
# Velocity S-wave (km/s) = 3.69783 4.04914 3.87746
# Velocity P-wave (km/s) = 5.89760 6.64457 6.28220
#
# Compressibility (1/GPa) = 0.02245238
#
# Stress axis : x y z
#
# Youngs Moduli (GPa) = 65.04552 65.04552 200.97078
#
# Poissons Ratio (x) = 0.19298 0.36865
# Poissons Ratio (y) = 0.19298 0.36865
# Poissons Ratio (z) = 0.11932 0.11932
#
# Static dielectric constant tensor:
#      x y z
#    x 2.321210 0.000000 0.000000 
#    y 0.000000 2.321210 0.000000 
#    z 0.000000 0.000000 2.171130 
# 
# From -- ./inp_files/3054.got.cif
#   From: 2010.05.17/outbox.cif.g08.bks.cpg/sg152_2_cif.got.tgz:3054.got - 2010.05.20 10:36:06.
