data_PCOD9575292
_publ_section_title
;
Structure prediction by ZEFSAII (Michael W. Deem and Ramdas Pophale) SiO2 
 PCOD9575292
Probable space group: R -3
;
_chemical_formula_sum "Si O2"
_cell_formula_units_Z 72
_cell_length_a 11.338708
_cell_length_b 11.338708
_cell_length_c 28.436085
_cell_angle_alpha 90.000000
_cell_angle_beta 90.000000
_cell_angle_gamma 120.000000
_cell_volume 3166.121508
_symmetry_space_group_name_H-M "R -3"
_symmetry_group_IT_number 148
_symmetry_cell_setting 'hexagonal'
loop_
_space_group_symop_operation_xyz
x,y,z
-y,x-y,z
-x+y,-x,z
-x,-y,-z
y,-x+y,-z
x-y,x,-z
2/3+x,1/3+y,1/3+z
2/3-y,1/3+x-y,1/3+z
2/3-x+y,1/3-x,1/3+z
2/3-x,1/3-y,1/3-z
2/3+y,1/3-x+y,1/3-z
2/3+x-y,1/3+x,1/3-z
1/3+x,2/3+y,2/3+z
1/3-y,2/3+x-y,2/3+z
1/3-x+y,2/3-x,2/3+z
1/3-x,2/3-y,2/3-z
1/3+y,2/3-x+y,2/3-z
1/3+x-y,2/3+x,2/3-z
loop_
_atom_site_type_symbol
_atom_site_label
_atom_site_fract_x
_atom_site_fract_y
_atom_site_fract_z
Si Si1 0.504865 0.789812 0.360753
Si Si2 0.194345 0.358470 0.111498
Si Si3 0.753382 0.751548 0.983380
Si Si4 0.147439 0.323980 0.450558
O O1 0.370849 0.804307 0.350423
O O2 0.559624 0.803480 0.414039
O O3 0.623553 0.929269 0.338188
O O4 0.202400 0.279456 0.066578
O O5 0.084618 0.406529 0.104343
O O6 0.351301 0.480346 0.116283
O O7 0.165252 0.288814 0.162732
O O8 0.865058 0.761319 0.019395
#
# Coordination Sequence:
#
# PCOD9575292 Si02
#       4
#    18  18  18  18
#     4   9  22  43  64  89 120 162 215 260 307 360
#     4   9  19  37  66  97 128 162 204 259 312 361
#     4  11  25  44  61  89 128 168 207 251 310 380
#     4   9  17  38  67  99 124 157 208 264 311 359
#
# _framework density 22.740756999999999
#
# number of rings (size 3 to 8) (size 9 to 14) (size 15 to 20)
#    0.500    2.000    0.000    0.750    3.500    3.000 
#    9.000    3.750    0.000    0.000    0.000    0.000 
#    0.000    0.000    0.000    0.000    0.000    0.000 
#
# Total GULP energy -133764.048165 kJ/mol
# GULP energy per Si atom -5573.502007 kJ/mol
# Density = 2.268900 g / cm^3
# Si number density = 22.740757 Si / 1000 Ang^3
#
#
#
# Elastic Constant Matrix: (Units=GPa)
#
#
# Indices 1 2 3 4 5 6 
#
# 1 74.5443 49.9487 32.5762 0.7532 13.1589 0.0000
# 2 49.9487 74.5443 32.5762 -0.7532 -13.1589 0.0000
# 3 32.5762 32.5762 127.7936 0.0000 0.0000 0.0000
# 4 0.7532 -0.7532 0.0000 31.5376 0.0000 -13.1589
# 5 13.1589 -13.1589 0.0000 0.0000 31.5376 0.7532
# 6 0.0000 0.0000 0.0000 -13.1589 0.7532 12.2978
#
#
#
# Elastic Compliance Matrix: (Units=1/GPa)
#
#
# Indices 1 2 3 4 5 6 
#
# 1 0.041457 -0.032188 -0.002363 -0.001759 -0.030728 0.000000
# 2 -0.032188 0.041457 -0.002363 0.001759 0.030728 0.000000
# 3 -0.002363 -0.002363 0.009030 0.000000 0.000000 0.000000
# 4 -0.001759 0.001759 0.000000 0.057435 0.000000 0.061456
# 5 -0.030728 0.030728 0.000000 0.000000 0.057435 -0.003517
# 6 0.000000 0.000000 0.000000 0.061456 -0.003517 0.147290
#
#
# Mechanical properties :
#
#
# Convention : Reuss Voigt Hill
#
# Bulk Modulus (GPa) = 55.19756 56.34271 55.77013
# Shear Modulus (GPa) = 11.52154 25.85998 18.69076
#
# Velocity S-wave (km/s) = 2.25332 3.37585 2.87000
# Velocity P-wave (km/s) = 5.57631 6.32653 5.96323
#
# Compressibility (1/GPa) = 0.01811674
#
# Stress axis : x y z
#
# Youngs Moduli (GPa) = 24.12129 24.12129 110.74507
#
# Poissons Ratio (x) = 0.77642 0.26167
# Poissons Ratio (y) = 0.77642 0.26167
# Poissons Ratio (z) = 0.05699 0.05699
#
# Static dielectric constant tensor:
#      x y z
#    x 1.912960 0.000000 0.000000 
#    y 0.000000 1.912960 0.000000 
#    z 0.000000 0.000000 1.851520 
# 
# From -- ./inp_files/3893.got.cif
#   From: 2010.05.17/outbox.cif.g08.bks.cpg/sg148_2_cif.got.tgz:3893.got - 2010.05.20 13:50:20.
