data_PCOD9575460
_publ_section_title
;
Structure prediction by ZEFSAII (Michael W. Deem and Ramdas Pophale) SiO2 
 PCOD9575460
Probable space group: P 3 2 1
;
_chemical_formula_sum "Si O2"
_cell_formula_units_Z 12
_cell_length_a 7.608277
_cell_length_b 7.608277
_cell_length_c 10.828088
_cell_angle_alpha 90.000000
_cell_angle_beta 90.000000
_cell_angle_gamma 120.000000
_cell_volume 542.818999
_symmetry_space_group_name_H-M "P 3 2 1"
_symmetry_group_IT_number 150
_symmetry_cell_setting 'hexagonal'
loop_
_space_group_symop_operation_xyz
x,y,z
-y,x-y,z
-x+y,-x,z
x-y,-y,-z
-x,-x+y,-z
y,x,-z
loop_
_atom_site_type_symbol
_atom_site_label
_atom_site_fract_x
_atom_site_fract_y
_atom_site_fract_z
Si Si1 0.907069 0.549784 0.750001
Si Si2 0.000000 0.769451 0.000000
Si Si3 0.230550 0.230550 0.500000
O O1 0.684061 0.531430 0.750001
O O2 0.009567 0.660811 0.876208
O O3 0.009564 0.660808 0.623792
O O4 0.811230 0.811230 0.000000
O O5 0.188770 0.000000 0.500000
#
# Coordination Sequence:
#
# PCOD9575460 Si02
#       3
#     6   3   3
#     4  10  24  38  64  96 128 162 222 264 314 370
#     4  10  22  42  68  90 132 174 210 260 332 384
#     4  10  22  42  68  90 132 174 210 260 332 384
#
# _framework density 22.106815000000001
#
# number of rings (size 3 to 8) (size 9 to 14) (size 15 to 20)
#    2.000    0.000    0.000    3.000    7.000    0.000 
#    0.000    0.000    0.000    0.000    0.000    0.000 
#    0.000    0.000    0.000    0.000    0.000    0.000 
#
# Total GULP energy -66903.893591 kJ/mol
# GULP energy per Si atom -5575.324466 kJ/mol
# Density = 2.205650 g / cm^3
# Si number density = 22.106815 Si / 1000 Ang^3
#
#
#
# Elastic Constant Matrix: (Units=GPa)
#
#
# Indices 1 2 3 4 5 6 
#
# 1 44.8980 -6.5261 33.0540 -0.0002 0.0000 0.0000
# 2 -6.5261 44.8980 33.0540 0.0002 0.0000 0.0000
# 3 33.0540 33.0540 226.3299 0.0000 0.0000 0.0000
# 4 -0.0002 0.0002 0.0000 32.9921 0.0000 0.0000
# 5 0.0000 0.0000 0.0000 0.0000 32.9921 -0.0002
# 6 0.0000 0.0000 0.0000 0.0000 -0.0002 25.7120
#
#
#
# Elastic Compliance Matrix: (Units=1/GPa)
#
#
# Indices 1 2 3 4 5 6 
#
# 1 0.027134 0.007688 -0.005086 0.000000 0.000000 0.000000
# 2 0.007688 0.027134 -0.005086 0.000000 0.000000 0.000000
# 3 -0.005086 -0.005086 0.005904 0.000000 0.000000 0.000000
# 4 0.000000 0.000000 0.000000 0.030310 0.000000 0.000000
# 5 0.000000 0.000000 0.000000 0.000000 0.030310 0.000000
# 6 0.000000 0.000000 0.000000 0.000000 0.000000 0.038892
#
#
# Mechanical properties :
#
#
# Convention : Reuss Voigt Hill
#
# Bulk Modulus (GPa) = 18.11399 48.36553 33.23976
# Shear Modulus (GPa) = 27.31448 35.44218 31.37833
#
# Velocity S-wave (km/s) = 3.51888 4.00837 3.77157
# Velocity P-wave (km/s) = 4.97209 6.58394 5.83395
#
# Compressibility (1/GPa) = 0.05520593
#
# Stress axis : x y z
#
# Youngs Moduli (GPa) = 36.85390 36.85390 169.38387
#
# Poissons Ratio (x) = -0.28333 0.86141
# Poissons Ratio (y) = -0.28333 0.86141
# Poissons Ratio (z) = 0.18742 0.18742
#
# Static dielectric constant tensor:
#      x y z
#    x 1.822700 0.000000 0.000000 
#    y 0.000000 1.822700 0.000000 
#    z 0.000000 0.000000 1.744350 
# 
# From -- ./inp_files/325.got.cif
#   From: 2010.05.17/outbox.cif.g08.bks.cpg/sg150_cif.got.tgz:325.got - 2010.05.20 13:53:18.
