data_PCOD9575681
_publ_section_title
;
Structure prediction by ZEFSAII (Michael W. Deem and Ramdas Pophale) SiO2 
 PCOD9575681
Probable space group: P 31 1 2
;
_chemical_formula_sum "Si O2"
_cell_formula_units_Z 30
_cell_length_a 17.901032
_cell_length_b 17.901032
_cell_length_c 5.178906
_cell_angle_alpha 90.000000
_cell_angle_beta 90.000000
_cell_angle_gamma 120.000000
_cell_volume 1437.225116
_symmetry_space_group_name_H-M "P 31 1 2"
_symmetry_group_IT_number 151
_symmetry_cell_setting 'hexagonal'
loop_
_space_group_symop_operation_xyz
x,y,z
-y,x-y,1/3+z
-x+y,-x,2/3+z
-y,-x,2/3-z
-x+y,y,1/3-z
x,x-y,-z
loop_
_atom_site_type_symbol
_atom_site_label
_atom_site_fract_x
_atom_site_fract_y
_atom_site_fract_z
Si Si1 0.082543 0.611585 0.821539
Si Si2 0.298924 0.230609 0.567030
Si Si3 0.682731 0.094609 0.398897
Si Si4 0.665113 0.879361 0.756127
Si Si5 0.382827 0.617174 0.833334
Si Si6 0.716387 0.432774 0.666667
O O1 0.167943 0.634980 0.660351
O O2 0.992868 0.584936 0.676068
O O3 0.064688 0.532344 0.000000
O O4 0.104392 0.694166 0.992404
O O5 0.263376 0.131688 0.500000
O O6 0.367378 0.283971 0.342143
O O7 0.227954 0.259275 0.539698
O O8 0.349879 0.255713 0.837901
O O9 0.684802 0.185199 0.419926
O O10 0.690482 0.845241 0.500000
O O11 0.633555 0.816778 0.000000
O O12 0.299461 0.598921 0.666667
O O13 0.635421 0.364580 0.833334
#
# Coordination Sequence:
#
# PCOD9575681 Si02
#       6
#     6   6   6   6   3   3
#     4  11  29  43  71  96 138 194 241 302 347 421
#     4  11  22  47  77 102 136 189 232 293 345 427
#     4  11  26  47  69 101 141 183 253 285 352 423
#     4  11  26  44  71 107 144 179 235 292 356 424
#     4  12  30  48  66 100 140 192 244 302 368 426
#     4  12  30  42  70 102 148 196 232 310 360 426
#
# _framework density 20.873557000000002
#
# number of rings (size 3 to 8) (size 9 to 14) (size 15 to 20)
#    0.000    0.800    2.000    3.000   18.200    0.000 
#    0.000    0.000    0.000    1.200    0.000    0.000 
#    0.000    0.000    0.000    0.000    0.000    0.000 
#
# Total GULP energy -167606.013503 kJ/mol
# GULP energy per Si atom -5586.867117 kJ/mol
# Density = 2.082605 g / cm^3
# Si number density = 20.873557 Si / 1000 Ang^3
#
#
#
# Elastic Constant Matrix: (Units=GPa)
#
#
# Indices 1 2 3 4 5 6 
#
# 1 117.1529 53.5253 24.6523 0.0012 -4.2202 0.0000
# 2 53.5253 117.1529 24.6523 -0.0012 4.2202 0.0000
# 3 24.6523 24.6523 75.2674 0.0000 0.0000 0.0000
# 4 0.0012 -0.0012 0.0000 24.6385 0.0000 4.2202
# 5 -4.2202 4.2202 0.0000 0.0000 24.6385 0.0012
# 6 0.0000 0.0000 0.0000 4.2202 0.0012 31.8138
#
#
#
# Elastic Compliance Matrix: (Units=1/GPa)
#
#
# Indices 1 2 3 4 5 6 
#
# 1 0.011277 -0.004805 -0.002120 -0.000001 0.002755 0.000000
# 2 -0.004805 0.011277 -0.002120 0.000001 -0.002755 0.000000
# 3 -0.002120 -0.002120 0.014674 0.000000 0.000000 0.000000
# 4 -0.000001 0.000001 0.000000 0.041531 0.000000 -0.005509
# 5 0.002755 -0.002755 0.000000 0.000000 0.041531 -0.000002
# 6 0.000000 0.000000 0.000000 -0.005509 -0.000002 0.032164
#
#
# Mechanical properties :
#
#
# Convention : Reuss Voigt Hill
#
# Bulk Modulus (GPa) = 52.24995 57.24813 54.74904
# Shear Modulus (GPa) = 28.26127 30.00104 29.13115
#
# Velocity S-wave (km/s) = 3.68357 3.79525 3.73983
# Velocity P-wave (km/s) = 6.57096 6.83308 6.70330
#
# Compressibility (1/GPa) = 0.01913877
#
# Stress axis : x y z
#
# Youngs Moduli (GPa) = 88.67954 88.67954 68.14595
#
# Poissons Ratio (x) = 0.42613 0.14444
# Poissons Ratio (y) = 0.42613 0.14444
# Poissons Ratio (z) = 0.18796 0.18796
#
# Static dielectric constant tensor:
#      x y z
#    x 1.880120 0.000000 0.000000 
#    y 0.000000 1.880120 0.000000 
#    z 0.000000 0.000000 1.761780 
# 
# From -- ./inp_files/484.got.cif
#   From: 2010.05.17/outbox.cif.g08.bks.cpg/sg151_1_cif.got.tgz:484.got - 2010.05.20 10:33:20.
