data_PCOD9575470
_publ_section_title
;
Structure prediction by ZEFSAII (Michael W. Deem and Ramdas Pophale) SiO2 
 PCOD9575470
Probable space group: P 3 2 1
;
_chemical_formula_sum "Si O2"
_cell_formula_units_Z 13
_cell_length_a 9.817946
_cell_length_b 9.817946
_cell_length_c 7.809415
_cell_angle_alpha 90.000000
_cell_angle_beta 90.000000
_cell_angle_gamma 120.000000
_cell_volume 651.914157
_symmetry_space_group_name_H-M "P 3 2 1"
_symmetry_group_IT_number 150
_symmetry_cell_setting 'hexagonal'
loop_
_space_group_symop_operation_xyz
x,y,z
-y,x-y,z
-x+y,-x,z
x-y,-y,-z
-x,-x+y,-z
y,x,-z
loop_
_atom_site_type_symbol
_atom_site_label
_atom_site_fract_x
_atom_site_fract_y
_atom_site_fract_z
Si Si1 0.333334 0.666668 0.705780
Si Si2 0.177530 0.177530 0.500000
Si Si3 0.666668 0.333333 0.705778
Si Si4 1.000000 0.607101 0.195215
O O1 0.333334 0.666667 0.500001
O O2 0.401880 0.558380 0.771358
O O3 0.271723 0.271723 0.333536
O O4 0.147786 0.000000 0.500000
O O5 0.558379 0.401880 0.771356
O O6 0.000000 0.656758 0.000000
#
# Coordination Sequence:
#
# PCOD9575470 Si02
#       4
#     2   3   2   6
#     4  12  25  47  73 100 143 187 229 287 349 412
#     4  10  26  44  70 100 140 186 226 282 348 408
#     4  12  25  47  73 100 143 187 229 287 349 412
#     4  12  26  45  71 104 141 184 233 286 347 413
#
# _framework density 19.941276999999999
#
# number of rings (size 3 to 8) (size 9 to 14) (size 15 to 20)
#    0.462    0.000    4.615    2.769    6.462    1.846 
#    0.000    0.000    0.000    0.000    0.000    0.000 
#    0.000    0.000    0.000    0.000    0.000    0.000 
#
# Total GULP energy -72723.901942 kJ/mol
# GULP energy per Si atom -5594.146303 kJ/mol
# Density = 1.989589 g / cm^3
# Si number density = 19.941277 Si / 1000 Ang^3
#
#
#
# Elastic Constant Matrix: (Units=GPa)
#
#
# Indices 1 2 3 4 5 6 
#
# 1 142.7196 66.7452 42.5448 0.0005 0.0000 0.0000
# 2 66.7452 142.7196 42.5444 0.0005 0.0000 0.0000
# 3 42.5448 42.5444 202.8262 -0.0003 0.0000 0.0000
# 4 0.0005 0.0005 -0.0003 7.9527 0.0000 0.0000
# 5 0.0000 0.0000 0.0000 0.0000 7.9540 0.0006
# 6 0.0000 0.0000 0.0000 0.0000 0.0006 37.9861
#
#
#
# Elastic Compliance Matrix: (Units=1/GPa)
#
#
# Indices 1 2 3 4 5 6 
#
# 1 0.009191 -0.003972 -0.001095 0.000000 0.000000 0.000000
# 2 -0.003972 0.009191 -0.001095 0.000000 0.000000 0.000000
# 3 -0.001095 -0.001095 0.005390 0.000000 0.000000 0.000000
# 4 0.000000 0.000000 0.000000 0.125744 0.000000 0.000000
# 5 0.000000 0.000000 0.000000 0.000000 0.125723 -0.000002
# 6 0.000000 0.000000 0.000000 0.000000 -0.000002 0.026325
#
#
# Mechanical properties :
#
#
# Convention : Reuss Voigt Hill
#
# Bulk Modulus (GPa) = 87.34878 87.99268 87.67073
# Shear Modulus (GPa) = 15.73806 33.20729 24.47267
#
# Velocity S-wave (km/s) = 2.81235 4.08518 3.50699
# Velocity P-wave (km/s) = 7.37861 8.15311 7.77551
#
# Compressibility (1/GPa) = 0.01144836
#
# Stress axis : x y z
#
# Youngs Moduli (GPa) = 108.80739 108.80755 185.54361
#
# Poissons Ratio (x) = 0.43216 0.20311
# Poissons Ratio (y) = 0.43216 0.20311
# Poissons Ratio (z) = 0.11911 0.11911
#
# Static dielectric constant tensor:
#      x y z
#    x 1.687770 0.000000 0.000000 
#    y 0.000000 1.687760 0.000000 
#    z 0.000000 0.000000 1.681190 
# 
# From -- ./inp_files/351.got.cif
#   From: 2010.05.17/outbox.cif.g08.bks.cpg/sg150_cif.got.tgz:351.got - 2010.05.20 13:53:18.
