data_PCOD9575788
_publ_section_title
;
Structure prediction by ZEFSAII (Michael W. Deem and Ramdas Pophale) SiO2 
 PCOD9575788
Probable space group: P 31 2 1
;
_chemical_formula_sum "Si O2"
_cell_formula_units_Z 42
_cell_length_a 11.683073
_cell_length_b 11.683073
_cell_length_c 18.297333
_cell_angle_alpha 90.000000
_cell_angle_beta 90.000000
_cell_angle_gamma 120.000000
_cell_volume 2162.880895
_symmetry_space_group_name_H-M "P 31 2 1"
_symmetry_group_IT_number 152
_symmetry_cell_setting 'hexagonal'
loop_
_space_group_symop_operation_xyz
x,y,z
-y,x-y,1/3+z
-x+y,-x,2/3+z
x-y,-y,2/3-z
-x,-x+y,1/3-z
y,x,-z
loop_
_atom_site_type_symbol
_atom_site_label
_atom_site_fract_x
_atom_site_fract_y
_atom_site_fract_z
Si Si1 0.772487 0.922365 0.719803
Si Si2 0.387565 0.562504 0.191685
Si Si3 0.433614 0.081565 0.566359
Si Si4 0.467231 0.737634 0.901226
Si Si5 0.244390 0.257652 0.220688
Si Si6 0.270409 0.509816 0.732319
Si Si7 0.383335 0.383335 0.500000
Si Si8 0.000000 0.000049 0.166667
O O1 0.694497 0.764646 0.729753
O O2 0.772230 0.959156 0.636351
O O3 0.679789 0.962213 0.765978
O O4 0.911095 0.987948 0.762546
O O5 0.517566 0.574995 0.227715
O O6 0.352510 0.662718 0.232716
O O7 0.282411 0.406245 0.197067
O O8 0.423889 0.624111 0.110089
O O9 0.455483 0.145139 0.485391
O O10 0.571694 0.183384 0.604858
O O11 0.489529 0.872873 0.863549
O O12 0.522923 0.751114 0.982064
O O13 0.380566 0.252119 0.224677
O O14 0.131801 0.141990 0.172295
#
# Coordination Sequence:
#
# PCOD9575788 Si02
#       8
#     6   6   6   6   6   6   3   3
#     4  10  19  38  61  87 115 156 202 257 300 345
#     4  10  22  38  56  87 126 157 194 246 307 380
#     4   9  20  36  57  87 120 150 200 252 297 360
#     4  10  19  36  60  86 116 153 204 247 300 358
#     4  11  22  40  61  84 127 160 200 256 311 363
#     4  10  20  38  61  87 115 158 202 248 305 365
#     4   9  18  33  60  96 108 139 210 261 280 350
#     4  11  24  37  58  90 120 155 214 247 300 378
#
# _framework density 19.418545000000002
#
# number of rings (size 3 to 8) (size 9 to 14) (size 15 to 20)
#    0.000    2.000    1.429    2.143    0.000    1.143 
#    5.143    0.000    6.286    0.000    0.000    0.000 
#    0.000    0.000    0.000    0.000    0.000    0.000 
#
# Total GULP energy -234275.226085 kJ/mol
# GULP energy per Si atom -5577.981573 kJ/mol
# Density = 1.937435 g / cm^3
# Si number density = 19.418545 Si / 1000 Ang^3
#
#
#
# Elastic Constant Matrix: (Units=GPa)
#
#
# Indices 1 2 3 4 5 6 
#
# 1 71.8495 21.7649 8.0400 2.4896 0.0000 0.0000
# 2 21.7649 71.8495 8.0400 -2.4896 0.0000 0.0000
# 3 8.0400 8.0400 64.9917 0.0000 0.0000 0.0000
# 4 2.4896 -2.4896 0.0000 10.5931 0.0000 0.0000
# 5 0.0000 0.0000 0.0000 0.0000 10.5931 2.4896
# 6 0.0000 0.0000 0.0000 0.0000 2.4896 25.0423
#
#
#
# Elastic Compliance Matrix: (Units=1/GPa)
#
#
# Indices 1 2 3 4 5 6 
#
# 1 0.015679 -0.004765 -0.001350 -0.004805 0.000000 0.000000
# 2 -0.004765 0.015679 -0.001350 0.004805 0.000000 0.000000
# 3 -0.001350 -0.001350 0.015721 0.000000 0.000000 0.000000
# 4 -0.004805 0.004805 0.000000 0.096660 0.000000 0.000000
# 5 0.000000 0.000000 0.000000 0.000000 0.096660 -0.009610
# 6 0.000000 0.000000 0.000000 0.000000 -0.009610 0.040888
#
#
# Mechanical properties :
#
#
# Convention : Reuss Voigt Hill
#
# Bulk Modulus (GPa) = 31.10607 31.59785 31.35196
# Shear Modulus (GPa) = 16.29025 20.63541 18.46283
#
# Velocity S-wave (km/s) = 2.89952 3.26339 3.08682
# Velocity P-wave (km/s) = 5.22141 5.52331 5.37448
#
# Compressibility (1/GPa) = 0.03214806
#
# Stress axis : x y z
#
# Youngs Moduli (GPa) = 63.77969 63.77969 63.61067
#
# Poissons Ratio (x) = 0.30391 0.08588
# Poissons Ratio (y) = 0.30391 0.08588
# Poissons Ratio (z) = 0.08611 0.08611
#
# Static dielectric constant tensor:
#      x y z
#    x 1.705120 0.000000 0.000000 
#    y 0.000000 1.705120 0.000000 
#    z 0.000000 0.000000 1.691310 
# 
# From -- ./inp_files/2481.got.cif
#   From: 2010.05.17/outbox.cif.g08.bks.cpg/sg152_2_cif.got.tgz:2481.got - 2010.05.20 10:36:06.
