data_PCOD9575986
_publ_section_title
;
Structure prediction by ZEFSAII (Michael W. Deem and Ramdas Pophale) SiO2 
 PCOD9575986
Probable space group: P 31 2 1
;
_chemical_formula_sum "Si O2"
_cell_formula_units_Z 39
_cell_length_a 8.848989
_cell_length_b 8.848989
_cell_length_c 28.226227
_cell_angle_alpha 90.000000
_cell_angle_beta 90.000000
_cell_angle_gamma 120.000000
_cell_volume 1914.127100
_symmetry_space_group_name_H-M "P 31 2 1"
_symmetry_group_IT_number 152
_symmetry_cell_setting 'hexagonal'
loop_
_space_group_symop_operation_xyz
x,y,z
-y,x-y,1/3+z
-x+y,-x,2/3+z
x-y,-y,2/3-z
-x,-x+y,1/3-z
y,x,-z
loop_
_atom_site_type_symbol
_atom_site_label
_atom_site_fract_x
_atom_site_fract_y
_atom_site_fract_z
Si Si1 0.098537 0.762364 0.857272
Si Si2 0.480286 0.278370 0.999455
Si Si3 0.358016 0.201456 0.337166
Si Si4 0.000000 0.944851 0.166667
Si Si5 0.244682 0.349063 0.423584
Si Si6 0.677054 0.578299 0.564717
Si Si7 0.504764 0.512117 0.266439
O O1 0.168539 0.775961 0.803954
O O2 0.032070 0.576131 0.880819
O O3 0.259825 0.906137 0.888948
O O4 0.972407 0.844396 0.853560
O O5 0.448296 0.164746 0.951909
O O6 0.328731 0.328731 0.000000
O O7 0.662010 0.460169 0.000028
O O8 0.491952 0.171050 0.043728
O O9 0.326590 0.276149 0.385432
O O10 0.379300 0.339447 0.296937
O O11 0.206095 0.000000 0.333334
O O12 0.923949 0.804101 0.208235
O O13 0.404114 0.505151 0.450731
O O14 0.142303 0.436143 0.399255
#
# Coordination Sequence:
#
# PCOD9575986 Si02
#       7
#     6   6   6   3   6   6   6
#     4  10  25  43  68  90 137 173 223 281 333 402
#     4  11  25  42  67  98 136 173 231 278 340 410
#     4  11  23  43  65  96 132 174 216 278 335 398
#     4  10  24  46  64 102 132 182 230 270 342 408
#     4  12  24  41  67  95 132 175 220 272 338 402
#     4  10  21  45  64  92 131 178 217 271 344 397
#     4  12  24  42  67 103 128 175 226 279 337 403
#
# _framework density 20.374824
#
# number of rings (size 3 to 8) (size 9 to 14) (size 15 to 20)
#    0.000    1.231    3.077    2.769    6.462    1.846 
#    5.538    0.000    0.000    0.000    0.000    0.000 
#    0.000    0.000    0.000    0.000    0.000    0.000 
#
# Total GULP energy -217797.234509 kJ/mol
# GULP energy per Si atom -5584.544475 kJ/mol
# Density = 2.032845 g / cm^3
# Si number density = 20.374824 Si / 1000 Ang^3
#
#
#
# Elastic Constant Matrix: (Units=GPa)
#
#
# Indices 1 2 3 4 5 6 
#
# 1 65.3805 9.8250 6.5536 6.6504 -0.0002 0.0000
# 2 9.8250 65.3805 6.5536 -6.6504 0.0002 0.0000
# 3 6.5536 6.5536 45.2327 0.0000 0.0000 0.0000
# 4 6.6504 -6.6504 0.0000 27.6283 0.0000 0.0002
# 5 -0.0002 0.0002 0.0000 0.0000 27.6283 6.6504
# 6 0.0000 0.0000 0.0000 0.0002 6.6504 27.7777
#
#
#
# Elastic Compliance Matrix: (Units=1/GPa)
#
#
# Indices 1 2 3 4 5 6 
#
# 1 0.016371 -0.002730 -0.001976 -0.004598 0.000000 0.000000
# 2 -0.002730 0.016371 -0.001976 0.004598 0.000000 0.000000
# 3 -0.001976 -0.001976 0.022681 0.000000 0.000000 0.000000
# 4 -0.004598 0.004598 0.000000 0.038408 0.000000 0.000000
# 5 0.000000 0.000000 0.000000 0.000000 0.038408 -0.009195
# 6 0.000000 0.000000 0.000000 0.000000 -0.009195 0.038202
#
#
# Mechanical properties :
#
#
# Convention : Reuss Voigt Hill
#
# Bulk Modulus (GPa) = 23.77696 24.65093 24.21395
# Shear Modulus (GPa) = 25.27485 26.81096 26.04290
#
# Velocity S-wave (km/s) = 3.52589 3.63145 3.57906
# Velocity P-wave (km/s) = 5.31704 5.45053 5.38420
#
# Compressibility (1/GPa) = 0.04205751
#
# Stress axis : x y z
#
# Youngs Moduli (GPa) = 61.08338 61.08338 44.09049
#
# Poissons Ratio (x) = 0.16674 0.08714
# Poissons Ratio (y) = 0.16674 0.08714
# Poissons Ratio (z) = 0.12073 0.12073
#
# Static dielectric constant tensor:
#      x y z
#    x 1.746520 0.000000 0.000000 
#    y 0.000000 1.746520 0.000000 
#    z 0.000000 0.000000 1.687890 
# 
# From -- ./inp_files/3633.got.cif
#   From: 2010.05.17/outbox.cif.g08.bks.cpg/sg152_2_cif.got.tgz:3633.got - 2010.05.20 10:36:06.
