data_PCOD9575791
_publ_section_title
;
Structure prediction by ZEFSAII (Michael W. Deem and Ramdas Pophale) SiO2 
 PCOD9575791
Probable space group: P 31 2 1
;
_chemical_formula_sum "Si O2"
_cell_formula_units_Z 36
_cell_length_a 8.640307
_cell_length_b 8.640307
_cell_length_c 27.833046
_cell_angle_alpha 90.000000
_cell_angle_beta 90.000000
_cell_angle_gamma 120.000000
_cell_volume 1799.491156
_symmetry_space_group_name_H-M "P 31 2 1"
_symmetry_group_IT_number 152
_symmetry_cell_setting 'hexagonal'
loop_
_space_group_symop_operation_xyz
x,y,z
-y,x-y,1/3+z
-x+y,-x,2/3+z
x-y,-y,2/3-z
-x,-x+y,1/3-z
y,x,-z
loop_
_atom_site_type_symbol
_atom_site_label
_atom_site_fract_x
_atom_site_fract_y
_atom_site_fract_z
Si Si1 0.138361 0.596946 0.029218
Si Si2 0.107404 0.475522 0.714924
Si Si3 0.669734 0.640973 0.446536
Si Si4 0.313594 0.279417 0.107274
Si Si5 0.370159 0.027688 0.607152
Si Si6 0.675705 0.052911 0.550550
O O1 0.334441 0.616160 0.034085
O O2 0.010860 0.471518 0.071481
O O3 0.179046 0.796970 0.036651
O O4 0.054554 0.500719 0.979637
O O5 0.175109 0.364103 0.745868
O O6 0.000000 0.383595 0.666667
O O7 0.997123 0.535613 0.749450
O O8 0.587851 0.587851 0.500000
O O9 0.848281 0.628184 0.442613
O O10 0.719715 0.847528 0.441763
O O11 0.365533 0.266937 0.161969
O O12 0.292552 0.117319 0.075535
O O13 0.503664 0.073178 0.562161
#
# Coordination Sequence:
#
# PCOD9575791 Si02
#       6
#     6   6   6   6   6   6
#     4  10  21  37  59  85 119 158 194 246 306 354
#     4  10  19  37  58  86 117 157 202 241 302 362
#     4   9  20  40  59  83 118 156 198 247 304 359
#     4  10  20  38  62  82 114 159 198 249 302 360
#     4  11  21  37  58  87 116 152 202 243 299 364
#     4  10  21  37  58  86 119 153 199 248 299 366
#
# _framework density 20.005654
#
# number of rings (size 3 to 8) (size 9 to 14) (size 15 to 20)
#    0.000    2.000    1.667    2.000    0.000    1.333 
#    9.000    2.500    0.000    0.000    0.000    0.000 
#    0.000    0.000    0.000    0.000    0.000    0.000 
#
# Total GULP energy -201074.086109 kJ/mol
# GULP energy per Si atom -5585.391281 kJ/mol
# Density = 1.996012 g / cm^3
# Si number density = 20.005654 Si / 1000 Ang^3
#
#
#
# Elastic Constant Matrix: (Units=GPa)
#
#
# Indices 1 2 3 4 5 6 
#
# 1 36.3611 -0.4473 18.0280 -0.8454 0.0001 0.0000
# 2 -0.4473 36.3611 18.0280 0.8454 -0.0001 0.0000
# 3 18.0280 18.0280 88.9776 0.0000 0.0000 0.0000
# 4 -0.8454 0.8454 0.0000 27.6295 0.0000 -0.0001
# 5 0.0001 -0.0001 0.0000 0.0000 27.6295 -0.8454
# 6 0.0000 0.0000 0.0000 -0.0001 -0.8454 18.4042
#
#
#
# Elastic Compliance Matrix: (Units=1/GPa)
#
#
# Indices 1 2 3 4 5 6 
#
# 1 0.031080 0.003874 -0.007082 0.000832 0.000000 0.000000
# 2 0.003874 0.031080 -0.007082 -0.000832 0.000000 0.000000
# 3 -0.007082 -0.007082 0.014109 0.000000 0.000000 0.000000
# 4 0.000832 -0.000832 0.000000 0.036244 0.000000 0.000000
# 5 0.000000 0.000000 0.000000 0.000000 0.036244 0.001665
# 6 0.000000 0.000000 0.000000 0.000000 0.001665 0.054412
#
#
# Mechanical properties :
#
#
# Convention : Reuss Voigt Hill
#
# Bulk Modulus (GPa) = 17.95683 25.87970 21.91826
# Shear Modulus (GPa) = 20.63444 23.13868 21.88656
#
# Velocity S-wave (km/s) = 3.21507 3.40458 3.31118
# Velocity P-wave (km/s) = 4.77259 5.33096 5.05949
#
# Compressibility (1/GPa) = 0.05568912
#
# Stress axis : x y z
#
# Youngs Moduli (GPa) = 32.17461 32.17461 70.87813
#
# Poissons Ratio (x) = -0.12466 0.50198
# Poissons Ratio (y) = -0.12466 0.50198
# Poissons Ratio (z) = 0.22787 0.22787
#
# Static dielectric constant tensor:
#      x y z
#    x 1.698430 0.000000 0.000000 
#    y 0.000000 1.698430 0.000000 
#    z 0.000000 0.000000 1.706540 
# 
# From -- ./inp_files/3360.got.cif
#   From: 2010.05.17/outbox.cif.g08.bks.cpg/sg152_2_cif.got.tgz:3360.got - 2010.05.20 10:36:06.
