data_PCOD9575165
_publ_section_title
;
Structure prediction by ZEFSAII (Michael W. Deem and Ramdas Pophale) SiO2 
 PCOD9575165
Probable space group: R -3
;
_chemical_formula_sum "Si O2"
_cell_formula_units_Z 54
_cell_length_a 22.231197
_cell_length_b 22.231197
_cell_length_c 4.785876
_cell_angle_alpha 90.000000
_cell_angle_beta 90.000000
_cell_angle_gamma 120.000000
_cell_volume 2048.414154
_symmetry_space_group_name_H-M "R -3"
_symmetry_group_IT_number 148
_symmetry_cell_setting 'hexagonal'
loop_
_space_group_symop_operation_xyz
x,y,z
-y,x-y,z
-x+y,-x,z
-x,-y,-z
y,-x+y,-z
x-y,x,-z
2/3+x,1/3+y,1/3+z
2/3-y,1/3+x-y,1/3+z
2/3-x+y,1/3-x,1/3+z
2/3-x,1/3-y,1/3-z
2/3+y,1/3-x+y,1/3-z
2/3+x-y,1/3+x,1/3-z
1/3+x,2/3+y,2/3+z
1/3-y,2/3+x-y,2/3+z
1/3-x+y,2/3-x,2/3+z
1/3-x,2/3-y,2/3-z
1/3+y,2/3-x+y,2/3-z
1/3+x-y,2/3+x,2/3-z
loop_
_atom_site_type_symbol
_atom_site_label
_atom_site_fract_x
_atom_site_fract_y
_atom_site_fract_z
Si Si1 0.413357 0.385793 0.504040
Si Si2 0.887293 0.856107 0.453813
Si Si3 0.161195 0.919590 0.287867
O O1 0.350382 0.390821 0.645257
O O2 0.458535 0.389706 0.769257
O O3 0.470654 0.436939 0.279862
O O4 0.883421 0.916521 0.625957
O O5 0.831880 0.842780 0.212963
O O6 0.868142 0.785878 0.621104
#
# Coordination Sequence:
#
# PCOD9575165 Si02
#       3
#    18  18  18
#     4  12  22  44  68  90 132 182 222 276 330 364
#     4   8  19  42  69 101 137 171 208 270 333 401
#     4  10  22  39  70 102 128 171 224 264 320 418
#
# _framework density 26.361854000000001
#
# number of rings (size 3 to 8) (size 9 to 14) (size 15 to 20)
#    2.000    0.000    3.333    0.333    0.000    2.667 
#    0.000   10.000    0.000    4.000    0.000    0.000 
#    0.000    0.000    0.000    0.000    0.000    0.000 
#
# Total GULP energy -100258.136841 kJ/mol
# GULP energy per Si atom -5569.896491 kJ/mol
# Density = 2.630185 g / cm^3
# Si number density = 26.361854 Si / 1000 Ang^3
#
#
#
# Elastic Constant Matrix: (Units=GPa)
#
#
# Indices 1 2 3 4 5 6 
#
# 1 103.0192 44.6685 34.1532 2.5879 -6.3041 -0.4342
# 2 44.6685 103.7303 34.6812 -0.3214 5.0728 -0.0241
# 3 34.1532 34.6812 134.1141 0.4685 -0.4379 -0.3341
# 4 2.5879 -0.3214 0.4685 20.1912 0.8530 6.0504
# 5 -6.3041 5.0728 -0.4379 0.8530 19.6596 0.8308
# 6 -0.4342 -0.0241 -0.3341 6.0504 0.8308 29.9331
#
#
#
# Elastic Compliance Matrix: (Units=1/GPa)
#
#
# Indices 1 2 3 4 5 6 
#
# 1 0.013011 -0.005234 -0.001933 -0.002069 0.005551 0.000427
# 2 -0.005234 0.012816 -0.002002 0.001192 -0.005074 -0.000188
# 3 -0.001933 -0.002002 0.008467 -0.000003 0.000083 0.000063
# 4 -0.002069 0.001192 -0.000003 0.053134 -0.002825 -0.010691
# 5 0.005551 -0.005074 0.000083 -0.002825 0.054115 -0.000854
# 6 0.000427 -0.000188 0.000063 -0.010691 -0.000854 0.035599
#
#
# Mechanical properties :
#
#
# Convention : Reuss Voigt Hill
#
# Bulk Modulus (GPa) = 62.68164 63.09661 62.88912
# Shear Modulus (GPa) = 24.90051 29.11416 27.00734
#
# Velocity S-wave (km/s) = 3.07671 3.32686 3.20423
# Velocity P-wave (km/s) = 6.03743 6.22448 6.13167
#
# Compressibility (1/GPa) = 0.01595364
#
# Stress axis : x y z
#
# Youngs Moduli (GPa) = 76.85897 78.03021 118.10681
#
# Poissons Ratio (x) = 0.40842 0.22834
# Poissons Ratio (y) = 0.40229 0.23649
# Poissons Ratio (z) = 0.14860 0.15624
#
# Static dielectric constant tensor:
#      x y z
#    x 2.131690 0.000280 -0.001200 
#    y 0.000280 2.132970 0.000180 
#    z -0.001200 0.000180 2.061450 
# 
# From -- ./inp_files/328.got.cif
#   From: 2010.05.17/outbox.cif.g08.bks.cpg/sg148_1_cif.got.tgz:328.got - 2010.05.20 13:50:20.
