data_PCOD9575255
_publ_section_title
;
Structure prediction by ZEFSAII (Michael W. Deem and Ramdas Pophale) SiO2 
 PCOD9575255
Probable space group: R -3
;
_chemical_formula_sum "Si O2"
_cell_formula_units_Z 72
_cell_length_a 15.419254
_cell_length_b 15.419254
_cell_length_c 13.244901
_cell_angle_alpha 90.000000
_cell_angle_beta 90.000000
_cell_angle_gamma 120.000000
_cell_volume 2727.131460
_symmetry_space_group_name_H-M "R -3"
_symmetry_group_IT_number 148
_symmetry_cell_setting 'hexagonal'
loop_
_space_group_symop_operation_xyz
x,y,z
-y,x-y,z
-x+y,-x,z
-x,-y,-z
y,-x+y,-z
x-y,x,-z
2/3+x,1/3+y,1/3+z
2/3-y,1/3+x-y,1/3+z
2/3-x+y,1/3-x,1/3+z
2/3-x,1/3-y,1/3-z
2/3+y,1/3-x+y,1/3-z
2/3+x-y,1/3+x,1/3-z
1/3+x,2/3+y,2/3+z
1/3-y,2/3+x-y,2/3+z
1/3-x+y,2/3-x,2/3+z
1/3-x,2/3-y,2/3-z
1/3+y,2/3-x+y,2/3-z
1/3+x-y,2/3+x,2/3-z
loop_
_atom_site_type_symbol
_atom_site_label
_atom_site_fract_x
_atom_site_fract_y
_atom_site_fract_z
Si Si1 0.478190 0.352524 0.983516
Si Si2 0.494177 0.658525 0.416558
Si Si3 0.786999 0.275463 0.400510
Si Si4 0.642140 0.997029 0.163550
O O1 0.581766 0.452371 0.006533
O O2 0.487171 0.259469 0.028287
O O3 0.389129 0.350790 0.051456
O O4 0.449093 0.353561 0.867421
O O5 0.463215 0.707807 0.508639
O O6 0.579886 0.640560 0.465714
O O7 0.721499 0.210217 0.307131
O O8 0.873187 0.258804 0.443159
#
# Coordination Sequence:
#
# PCOD9575255 Si02
#       4
#    18  18  18  18
#     4  11  24  43  67  99 137 181 226 280 341 407
#     4  11  23  41  63  98 139 175 220 278 336 404
#     4  11  21  36  63  97 130 169 217 277 341 398
#     4  11  23  40  65  98 137 177 221 277 341 403
#
# _framework density 26.401367
#
# number of rings (size 3 to 8) (size 9 to 14) (size 15 to 20)
#    0.000    1.000    0.000    8.250    0.000    4.000 
#    0.000    0.000    0.000    0.000    0.000   10.500 
#    0.000    0.000    0.000    0.000    0.000    0.000 
#
# Total GULP energy -134259.749722 kJ/mol
# GULP energy per Si atom -5594.156238 kJ/mol
# Density = 2.634128 g / cm^3
# Si number density = 26.401367 Si / 1000 Ang^3
#
#
#
# Elastic Constant Matrix: (Units=GPa)
#
#
# Indices 1 2 3 4 5 6 
#
# 1 116.3868 34.0896 40.4129 6.5522 -7.7882 0.0000
# 2 34.0896 116.3868 40.4129 -6.5522 7.7882 0.0000
# 3 40.4129 40.4129 100.2079 0.0000 0.0000 0.0000
# 4 6.5522 -6.5522 0.0000 50.7409 0.0000 7.7882
# 5 -7.7882 7.7882 0.0000 0.0000 50.7409 6.5522
# 6 0.0000 0.0000 0.0000 7.7882 6.5522 41.1486
#
#
#
# Elastic Compliance Matrix: (Units=1/GPa)
#
#
# Indices 1 2 3 4 5 6 
#
# 1 0.010634 -0.002151 -0.003421 -0.001651 0.001962 0.000000
# 2 -0.002151 0.010634 -0.003421 0.001651 -0.001962 0.000000
# 3 -0.003421 -0.003421 0.012739 0.000000 0.000000 0.000000
# 4 -0.001651 0.001651 0.000000 0.020737 0.000000 -0.003925
# 5 0.001962 -0.001962 0.000000 0.000000 0.020737 -0.003302
# 6 0.000000 0.000000 0.000000 -0.003925 -0.003302 0.025571
#
#
# Mechanical properties :
#
#
# Convention : Reuss Voigt Hill
#
# Bulk Modulus (GPa) = 62.42062 62.53468 62.47765
# Shear Modulus (GPa) = 40.19977 43.06380 41.63178
#
# Velocity S-wave (km/s) = 3.90633 4.04309 3.97530
# Velocity P-wave (km/s) = 6.63628 6.74782 6.69228
#
# Compressibility (1/GPa) = 0.01602035
#
# Stress axis : x y z
#
# Youngs Moduli (GPa) = 94.03530 94.03530 78.50082
#
# Poissons Ratio (x) = 0.20228 0.26857
# Poissons Ratio (y) = 0.20228 0.26857
# Poissons Ratio (z) = 0.32171 0.32171
#
# Static dielectric constant tensor:
#      x y z
#    x 2.079300 0.000000 0.000000 
#    y 0.000000 2.079300 0.000000 
#    z 0.000000 0.000000 2.098590 
# 
# From -- ./inp_files/2524.got.cif
#   From: 2010.05.17/outbox.cif.g08.bks.cpg/sg148_2_cif.got.tgz:2524.got - 2010.05.20 13:50:20.
