data_PCOD9575677
_publ_section_title
;
Structure prediction by ZEFSAII (Michael W. Deem and Ramdas Pophale) SiO2 
 PCOD9575677
Probable space group: P 31 1 2
;
_chemical_formula_sum "Si O2"
_cell_formula_units_Z 24
_cell_length_a 16.596341
_cell_length_b 16.596341
_cell_length_c 5.055591
_cell_angle_alpha 90.000000
_cell_angle_beta 90.000000
_cell_angle_gamma 120.000000
_cell_volume 1205.944338
_symmetry_space_group_name_H-M "P 31 1 2"
_symmetry_group_IT_number 151
_symmetry_cell_setting 'hexagonal'
loop_
_space_group_symop_operation_xyz
x,y,z
-y,x-y,1/3+z
-x+y,-x,2/3+z
-y,-x,2/3-z
-x+y,y,1/3-z
x,x-y,-z
loop_
_atom_site_type_symbol
_atom_site_label
_atom_site_fract_x
_atom_site_fract_y
_atom_site_fract_z
Si Si1 0.643604 0.467968 0.579660
Si Si2 0.577849 0.607242 0.398604
Si Si3 0.646527 0.733039 0.892675
Si Si4 0.160060 0.025640 0.256008
O O1 0.604241 0.395760 0.333334
O O2 0.745692 0.491383 0.666667
O O3 0.632639 0.554707 0.492279
O O4 0.578616 0.421385 0.833334
O O5 0.472922 0.527079 0.333334
O O6 0.592030 0.680534 0.627880
O O7 0.618693 0.659652 0.126738
O O8 0.756991 0.778302 0.853518
O O9 0.628791 0.814396 0.000000
O O10 0.195746 0.097873 0.500000
O O11 0.152080 0.076040 0.000000
O O12 0.059416 0.940584 0.333334
#
# Coordination Sequence:
#
# PCOD9575677 Si02
#       4
#     6   6   6   6
#     4  11  22  37  59  89 127 169 209 245 285 339
#     4  11  23  42  65  90 120 157 201 251 309 366
#     4  11  24  42  64  90 120 157 200 250 310 367
#     4  11  22  37  59  89 127 169 208 244 286 340
#
# _framework density 19.901416999999999
#
# number of rings (size 3 to 8) (size 9 to 14) (size 15 to 20)
#    0.000    1.000    0.000    9.000    0.000    7.000 
#    0.000    2.500    0.000    7.500    0.000    0.000 
#    0.000    0.000    0.000    0.000    0.000    0.000 
#
# Total GULP energy -134285.266089 kJ/mol
# GULP energy per Si atom -5595.219420 kJ/mol
# Density = 1.985612 g / cm^3
# Si number density = 19.901417 Si / 1000 Ang^3
#
#
#
# Elastic Constant Matrix: (Units=GPa)
#
#
# Indices 1 2 3 4 5 6 
#
# 1 394.5131 -261.9289 31.0688 0.0272 315.2123 0.0000
# 2 -261.9289 394.5131 31.0688 -0.0272 -315.2123 0.0000
# 3 31.0688 31.0688 132.1863 0.0000 0.0000 0.0000
# 4 0.0272 -0.0272 0.0000 362.1746 0.0000 -315.2123
# 5 315.2123 -315.2123 0.0000 0.0000 362.1746 0.0272
# 6 0.0000 0.0000 0.0000 -315.2123 0.0272 328.2210
#
#
#
# Elastic Compliance Matrix: (Units=1/GPa)
#
#
# Indices 1 2 3 4 5 6 
#
# 1 0.008878 -0.000402 -0.001992 -0.000001 -0.008076 0.000000
# 2 -0.000402 0.008878 -0.001992 0.000001 0.008076 0.000000
# 3 -0.001992 -0.001992 0.008502 0.000000 0.000000 0.000000
# 4 -0.000001 0.000001 0.000000 0.016819 0.000000 0.016153
# 5 -0.008076 0.008076 0.000000 0.000000 0.016819 -0.000001
# 6 0.000000 0.000000 0.000000 0.016153 -0.000001 0.018559
#
#
# Mechanical properties :
#
#
# Convention : Reuss Voigt Hill
#
# Bulk Modulus (GPa) = 57.19221 57.95883 57.57552
# Shear Modulus (GPa) = 53.73122 285.24764 169.48943
#
# Velocity S-wave (km/s) = 5.20166 11.98505 9.23847
# Velocity P-wave (km/s) = 8.05460 14.85625 11.94958
#
# Compressibility (1/GPa) = 0.01748490
#
# Stress axis : x y z
#
# Youngs Moduli (GPa) = 112.64005 112.64005 117.62542
#
# Poissons Ratio (x) = 0.04526 0.23433
# Poissons Ratio (y) = 0.04526 0.23433
# Poissons Ratio (z) = 0.22440 0.22440
#
# Static dielectric constant tensor:
#      x y z
#    x 1.551720 0.000000 0.000000 
#    y 0.000000 1.551720 0.000000 
#    z 0.000000 0.000000 1.689110 
# 
# From -- ./inp_files/169.got.cif
#   From: 2010.05.17/outbox.cif.g08.bks.cpg/sg151_1_cif.got.tgz:169.got - 2010.05.20 10:33:20.
