data_PCOD9575557
_publ_section_title
;
Structure prediction by ZEFSAII (Michael W. Deem and Ramdas Pophale) SiO2 
 PCOD9575557
Probable space group: P 31 1 2
;
_chemical_formula_sum "Si O2"
_cell_formula_units_Z 42
_cell_length_a 8.813835
_cell_length_b 8.813835
_cell_length_c 27.089769
_cell_angle_alpha 90.000000
_cell_angle_beta 90.000000
_cell_angle_gamma 120.000000
_cell_volume 1822.492566
_symmetry_space_group_name_H-M "P 31 1 2"
_symmetry_group_IT_number 151
_symmetry_cell_setting 'hexagonal'
loop_
_space_group_symop_operation_xyz
x,y,z
-y,x-y,1/3+z
-x+y,-x,2/3+z
-y,-x,2/3-z
-x+y,y,1/3-z
x,x-y,-z
loop_
_atom_site_type_symbol
_atom_site_label
_atom_site_fract_x
_atom_site_fract_y
_atom_site_fract_z
Si Si1 0.632775 0.820555 0.908281
Si Si2 0.679664 0.974206 0.727899
Si Si3 0.468965 0.353336 0.638821
Si Si4 0.093233 0.544971 0.843543
Si Si5 0.025661 0.028866 0.225349
Si Si6 0.042409 0.443776 0.395609
Si Si7 0.743004 0.618959 0.560627
O O1 0.601099 0.903622 0.859064
O O2 0.813499 0.817567 0.906653
O O3 0.470081 0.629348 0.913127
O O4 0.636465 0.935976 0.954395
O O5 0.533286 0.942418 0.768521
O O6 0.616159 0.785388 0.703111
O O7 0.737855 0.149275 0.696775
O O8 0.856886 0.007450 0.755921
O O9 0.535214 0.453406 0.689964
O O10 0.613762 0.471605 0.598386
O O11 0.273941 0.726060 0.833334
O O12 0.940712 0.579303 0.823544
O O13 0.019428 0.038856 0.166667
O O14 0.013955 0.195426 0.244462
O O15 0.924819 0.304994 0.437324
#
# Coordination Sequence:
#
# PCOD9575557 Si02
#       7
#     6   6   6   6   6   6   6
#     4  10  21  37  69  95 125 169 222 275 333 401
#     4  10  22  40  69  95 128 178 215 284 337 393
#     4  10  23  43  63  92 131 179 221 270 330 405
#     4  11  20  41  65  99 132 165 218 279 348 399
#     4  10  19  38  61  95 129 162 211 268 338 408
#     4  11  22  44  64  96 129 178 227 267 325 404
#     4  10  24  39  62  92 135 174 213 281 335 396
#
# _framework density 23.045359000000001
#
# number of rings (size 3 to 8) (size 9 to 14) (size 15 to 20)
#    0.000    1.714    2.857    1.286    0.000    1.143 
#    7.714    7.143    0.000    0.000    0.000    0.000 
#    0.000    0.000    0.000    0.000    0.000    0.000 
#
# Total GULP energy -234602.727488 kJ/mol
# GULP energy per Si atom -5585.779226 kJ/mol
# Density = 2.299291 g / cm^3
# Si number density = 23.045359 Si / 1000 Ang^3
#
#
#
# Elastic Constant Matrix: (Units=GPa)
#
#
# Indices 1 2 3 4 5 6 
#
# 1 122.0334 46.7556 25.3542 0.0001 4.7939 0.0000
# 2 46.7556 122.0334 25.3542 -0.0001 -4.7939 0.0000
# 3 25.3542 25.3542 45.6009 0.0000 0.0000 0.0000
# 4 0.0001 -0.0001 0.0000 24.5951 0.0000 -4.7939
# 5 4.7939 -4.7939 0.0000 0.0000 24.5951 0.0001
# 6 0.0000 0.0000 0.0000 -4.7939 0.0001 37.6389
#
#
#
# Elastic Compliance Matrix: (Units=1/GPa)
#
#
# Indices 1 2 3 4 5 6 
#
# 1 0.010367 -0.003255 -0.003955 0.000000 -0.002655 0.000000
# 2 -0.003255 0.010367 -0.003955 0.000000 0.002655 0.000000
# 3 -0.003955 -0.003955 0.026327 0.000000 0.000000 0.000000
# 4 0.000000 0.000000 0.000000 0.041694 0.000000 0.005310
# 5 -0.002655 0.002655 0.000000 0.000000 0.041694 0.000000
# 6 0.000000 0.000000 0.000000 0.005310 0.000000 0.027245
#
#
# Mechanical properties :
#
#
# Convention : Reuss Voigt Hill
#
# Bulk Modulus (GPa) = 40.43071 53.84396 47.13733
# Shear Modulus (GPa) = 26.55810 30.17939 28.36875
#
# Velocity S-wave (km/s) = 3.39842 3.62272 3.51236
# Velocity P-wave (km/s) = 5.74292 6.39639 6.07844
#
# Compressibility (1/GPa) = 0.02473368
#
# Stress axis : x y z
#
# Youngs Moduli (GPa) = 96.45553 96.45553 37.98387
#
# Poissons Ratio (x) = 0.31395 0.15021
# Poissons Ratio (y) = 0.31395 0.15021
# Poissons Ratio (z) = 0.38145 0.38145
#
# Static dielectric constant tensor:
#      x y z
#    x 1.897190 0.000000 0.000000 
#    y 0.000000 1.897190 0.000000 
#    z 0.000000 0.000000 1.841280 
# 
# From -- ./inp_files/5035.got.cif
#   From: 2010.05.17/outbox.cif.g08.bks.cpg/sg151_3_cif.got.tgz:5035.got - 2010.05.20 10:33:20.
