data_PCOD9575604
_publ_section_title
;
Structure prediction by ZEFSAII (Michael W. Deem and Ramdas Pophale) SiO2 
 PCOD9575604
Probable space group: P 31 1 2
;
_chemical_formula_sum "Si O2"
_cell_formula_units_Z 36
_cell_length_a 8.984648
_cell_length_b 8.984648
_cell_length_c 24.224520
_cell_angle_alpha 90.000000
_cell_angle_beta 90.000000
_cell_angle_gamma 120.000000
_cell_volume 1693.510705
_symmetry_space_group_name_H-M "P 31 1 2"
_symmetry_group_IT_number 151
_symmetry_cell_setting 'hexagonal'
loop_
_space_group_symop_operation_xyz
x,y,z
-y,x-y,1/3+z
-x+y,-x,2/3+z
-y,-x,2/3-z
-x+y,y,1/3-z
x,x-y,-z
loop_
_atom_site_type_symbol
_atom_site_label
_atom_site_fract_x
_atom_site_fract_y
_atom_site_fract_z
Si Si1 0.112283 0.887717 0.833334
Si Si2 0.618218 0.318871 0.934478
Si Si3 0.699805 0.965175 0.286629
Si Si4 0.785972 0.696674 0.907777
Si Si5 0.230828 0.639577 0.437924
Si Si6 0.398782 0.958886 0.924563
Si Si7 0.022735 0.977266 0.333334
O O1 0.254149 0.914820 0.878825
O O2 0.930035 0.812529 0.863780
O O3 0.425465 0.291559 0.926453
O O4 0.757132 0.503158 0.910924
O O5 0.578761 0.133944 0.912846
O O6 0.652047 0.326024 0.000000
O O7 0.539455 0.811120 0.256320
O O8 0.648925 0.974291 0.349854
O O9 0.873189 0.957270 0.290837
O O10 0.597251 0.661267 0.893328
O O11 0.845046 0.801851 0.965604
O O12 0.291871 0.645936 0.500000
O O13 0.371716 0.798643 0.404191
#
# Coordination Sequence:
#
# PCOD9575604 Si02
#       7
#     3   6   6   6   6   6   3
#     4  12  24  44  64  98 136 174 232 282 348 414
#     4   9  20  41  69  92 126 173 227 275 342 408
#     4  10  20  42  71  92 128 181 222 281 344 419
#     4  11  27  40  68  99 135 181 227 286 341 426
#     4  11  26  42  68 101 135 179 234 288 358 417
#     4  11  21  44  67  95 134 177 227 289 348 416
#     4  12  22  44  66 102 132 184 234 286 348 418
#
# _framework density 21.257617
#
# number of rings (size 3 to 8) (size 9 to 14) (size 15 to 20)
#    0.000    1.333    5.000    0.500   14.000    0.000 
#    3.000    1.667    0.000    0.000    0.000    0.000 
#    0.000    0.000    0.000    0.000    0.000    0.000 
#
# Total GULP energy -200989.874750 kJ/mol
# GULP energy per Si atom -5583.052076 kJ/mol
# Density = 2.120923 g / cm^3
# Si number density = 21.257617 Si / 1000 Ang^3
#
#
#
# Elastic Constant Matrix: (Units=GPa)
#
#
# Indices 1 2 3 4 5 6 
#
# 1 67.5884 12.7056 6.3040 0.0000 0.5446 0.0000
# 2 12.7056 67.5884 6.3040 0.0000 -0.5446 0.0000
# 3 6.3040 6.3040 38.6867 0.0000 0.0000 0.0000
# 4 0.0000 0.0000 0.0000 27.3420 0.0000 -0.5446
# 5 0.5446 -0.5446 0.0000 0.0000 27.3420 0.0000
# 6 0.0000 0.0000 0.0000 -0.5446 0.0000 27.4414
#
#
#
# Elastic Compliance Matrix: (Units=1/GPa)
#
#
# Indices 1 2 3 4 5 6 
#
# 1 0.015505 -0.002723 -0.002083 0.000000 -0.000363 0.000000
# 2 -0.002723 0.015505 -0.002083 0.000000 0.000363 0.000000
# 3 -0.002083 -0.002083 0.026527 0.000000 0.000000 0.000000
# 4 0.000000 0.000000 0.000000 0.036588 0.000000 0.000726
# 5 -0.000363 0.000363 0.000000 0.000000 0.036588 0.000000
# 6 0.000000 0.000000 0.000000 0.000726 0.000000 0.036456
#
#
# Mechanical properties :
#
#
# Convention : Reuss Voigt Hill
#
# Bulk Modulus (GPa) = 22.85240 24.94343 23.89792
# Shear Modulus (GPa) = 25.57117 26.32837 25.94977
#
# Velocity S-wave (km/s) = 3.47207 3.52311 3.49768
# Velocity P-wave (km/s) = 5.18144 5.32062 5.25149
#
# Compressibility (1/GPa) = 0.04375908
#
# Stress axis : x y z
#
# Youngs Moduli (GPa) = 64.49710 64.49710 37.69683
#
# Poissons Ratio (x) = 0.17565 0.07851
# Poissons Ratio (y) = 0.17565 0.07851
# Poissons Ratio (z) = 0.13433 0.13433
#
# Static dielectric constant tensor:
#      x y z
#    x 1.814550 0.000000 0.000000 
#    y 0.000000 1.814550 0.000000 
#    z 0.000000 0.000000 1.783450 
# 
# From -- ./inp_files/4701.got.cif
#   From: 2010.05.17/outbox.cif.g08.bks.cpg/sg151_3_cif.got.tgz:4701.got - 2010.05.20 10:33:20.
