data_PCOD9575168
_publ_section_title
;
Structure prediction by ZEFSAII (Michael W. Deem and Ramdas Pophale) SiO2 
 PCOD9575168
Probable space group: R -3
;
_chemical_formula_sum "Si O2"
_cell_formula_units_Z 54
_cell_length_a 16.081529
_cell_length_b 16.081529
_cell_length_c 11.865869
_cell_angle_alpha 90.000000
_cell_angle_beta 90.000000
_cell_angle_gamma 120.000000
_cell_volume 2657.570887
_symmetry_space_group_name_H-M "R -3"
_symmetry_group_IT_number 148
_symmetry_cell_setting 'hexagonal'
loop_
_space_group_symop_operation_xyz
x,y,z
-y,x-y,z
-x+y,-x,z
-x,-y,-z
y,-x+y,-z
x-y,x,-z
2/3+x,1/3+y,1/3+z
2/3-y,1/3+x-y,1/3+z
2/3-x+y,1/3-x,1/3+z
2/3-x,1/3-y,1/3-z
2/3+y,1/3-x+y,1/3-z
2/3+x-y,1/3+x,1/3-z
1/3+x,2/3+y,2/3+z
1/3-y,2/3+x-y,2/3+z
1/3-x+y,2/3-x,2/3+z
1/3-x,2/3-y,2/3-z
1/3+y,2/3-x+y,2/3-z
1/3+x-y,2/3+x,2/3-z
loop_
_atom_site_type_symbol
_atom_site_label
_atom_site_fract_x
_atom_site_fract_y
_atom_site_fract_z
Si Si1 0.054708 0.381216 0.909310
Si Si2 0.211165 0.043392 0.477804
Si Si3 0.484422 0.130690 0.346202
O O1 0.121401 0.411200 0.799721
O O2 0.973089 0.409228 0.886159
O O3 0.117577 0.426956 0.020577
O O4 0.997859 0.266581 0.926740
O O5 0.124460 0.943067 0.522695
O O6 0.482875 0.229115 0.357576
#
# Coordination Sequence:
#
# PCOD9575168 Si02
#       3
#    18  18  18
#     4  10  22  40  62  86 120 160 196 236 294 362
#     4  11  23  40  62  90 119 155 198 246 294 345
#     4  11  23  40  62  90 119 155 198 246 294 345
#
# _framework density 20.319307999999999
#
# number of rings (size 3 to 8) (size 9 to 14) (size 15 to 20)
#    0.000    1.333    0.000    6.667    0.000    8.000 
#    0.000    0.000    0.000    0.000    0.000    0.000 
#    0.000    0.000    0.000    0.000    0.000    0.000 
#
# Total GULP energy -100695.668598 kJ/mol
# GULP energy per Si atom -5594.203811 kJ/mol
# Density = 2.027306 g / cm^3
# Si number density = 20.319308 Si / 1000 Ang^3
#
#
#
# Elastic Constant Matrix: (Units=GPa)
#
#
# Indices 1 2 3 4 5 6 
#
# 1 -314.5127 388.9611 30.4850 -15.7966 147.0974 0.0000
# 2 388.9611 -314.5127 30.4850 15.7966 -147.0974 0.0000
# 3 30.4850 30.4850 99.1984 0.0000 0.0000 0.0000
# 4 -15.7966 15.7966 0.0000 -47.3047 0.0000 -147.0974
# 5 147.0974 -147.0974 0.0000 0.0000 -47.3047 -15.7966
# 6 0.0000 0.0000 0.0000 -147.0974 -15.7966 -351.7369
#
#
#
# Elastic Compliance Matrix: (Units=1/GPa)
#
#
# Indices 1 2 3 4 5 6 
#
# 1 0.011228 0.006721 -0.005516 -0.001505 0.014014 0.000000
# 2 0.006721 0.011228 -0.005516 0.001505 -0.014014 0.000000
# 3 -0.005516 -0.005516 0.013471 0.000000 0.000000 0.000000
# 4 -0.001505 0.001505 0.000000 0.067018 0.000000 -0.028027
# 5 0.014014 -0.014014 0.000000 0.000000 0.067018 -0.003010
# 6 0.000000 0.000000 0.000000 -0.028027 -0.003010 0.009013
#
#
# Mechanical properties :
#
#
# Convention : Reuss Voigt Hill
#
# Bulk Modulus (GPa) = 36.62232 41.11506 38.86869
# Shear Modulus (GPa) = 25.41931 -154.58646 -64.58358
#
# Velocity S-wave (km/s) = 3.54077 -8.73177 -5.64388
# Velocity P-wave (km/s) = 5.89734 9.02108 4.82707
#
# Compressibility (1/GPa) = 0.02730576
#
# Stress axis : x y z
#
# Youngs Moduli (GPa) = 89.06221 89.06221 74.23249
#
# Poissons Ratio (x) = -0.59863 0.40948
# Poissons Ratio (y) = -0.59863 0.40948
# Poissons Ratio (z) = 0.49128 0.49128
#
# Static dielectric constant tensor:
#      x y z
#    x 1.706960 0.000000 0.000000 
#    y 0.000000 1.706960 0.000000 
#    z 0.000000 0.000000 1.702060 
# 
# From -- ./inp_files/1279.got.cif
#   From: 2010.05.17/outbox.cif.g08.bks.cpg/sg148_1_cif.got.tgz:1279.got - 2010.05.20 13:50:20.
