data_PCOD9575910
_publ_section_title
;
Structure prediction by ZEFSAII (Michael W. Deem and Ramdas Pophale) SiO2 
 PCOD9575910
Probable space group: P 31 2 1
;
_chemical_formula_sum "Si O2"
_cell_formula_units_Z 45
_cell_length_a 14.574285
_cell_length_b 14.574285
_cell_length_c 11.923961
_cell_angle_alpha 90.000000
_cell_angle_beta 90.000000
_cell_angle_gamma 120.000000
_cell_volume 2193.439673
_symmetry_space_group_name_H-M "P 31 2 1"
_symmetry_group_IT_number 152
_symmetry_cell_setting 'hexagonal'
loop_
_space_group_symop_operation_xyz
x,y,z
-y,x-y,1/3+z
-x+y,-x,2/3+z
x-y,-y,2/3-z
-x,-x+y,1/3-z
y,x,-z
loop_
_atom_site_type_symbol
_atom_site_label
_atom_site_fract_x
_atom_site_fract_y
_atom_site_fract_z
Si Si1 0.394366 0.276284 0.170830
Si Si2 0.513209 0.272160 0.987118
Si Si3 0.510328 0.597292 0.792670
Si Si4 0.418035 0.850665 0.521878
Si Si5 0.566595 0.683049 0.549312
Si Si6 0.643524 0.905781 0.607545
Si Si7 0.880042 0.217438 0.712000
Si Si8 0.755461 0.000000 0.833334
O O1 0.501253 0.392422 0.178969
O O2 0.295094 0.292921 0.189446
O O3 0.386891 0.199451 0.272018
O O4 0.401577 0.238166 0.046715
O O5 0.565043 0.388924 0.937097
O O6 0.501249 0.196774 0.883315
O O7 0.571239 0.249351 0.086941
O O8 0.584476 0.543129 0.800993
O O9 0.507206 0.630411 0.664625
O O10 0.568807 0.701273 0.871143
O O11 0.522015 0.870730 0.587821
O O12 0.618466 0.618466 0.500000
O O13 0.652889 0.803355 0.583339
O O14 0.674491 0.950757 0.731257
O O15 0.000000 0.275408 0.666667
O O16 0.851735 0.106710 0.776009
#
# Coordination Sequence:
#
# PCOD9575910 Si02
#       8
#     6   6   6   6   6   6   6   3
#     4  10  25  42  64 100 137 175 226 280 344 414
#     4  11  24  40  60  93 132 174 223 273 331 403
#     4  11  23  44  67  98 136 182 223 276 352 414
#     4  10  23  40  60  91 134 174 219 270 333 403
#     4  11  22  41  67  94 130 173 225 274 334 412
#     4   9  21  40  62  95 127 177 207 275 338 402
#     4  11  24  43  76  99 133 184 235 285 348 414
#     4  10  20  44  70  94 134 168 234 282 346 408
#
# _framework density 20.515720999999999
#
# number of rings (size 3 to 8) (size 9 to 14) (size 15 to 20)
#    0.000    1.600    2.667    0.800    3.733    9.600 
#    1.200    0.000    5.867    0.000    0.000    0.000 
#    0.000    0.000    0.000    0.000    0.000    0.000 
#
# Total GULP energy -250981.458423 kJ/mol
# GULP energy per Si atom -5577.365743 kJ/mol
# Density = 2.046903 g / cm^3
# Si number density = 20.515721 Si / 1000 Ang^3
#
#
#
# Elastic Constant Matrix: (Units=GPa)
#
#
# Indices 1 2 3 4 5 6 
#
# 1 53.4107 -2.1371 19.2147 2.4157 0.0001 0.0000
# 2 -2.1371 53.4107 19.2147 -2.4157 -0.0001 0.0000
# 3 19.2147 19.2147 109.4556 0.0000 0.0000 0.0000
# 4 2.4157 -2.4157 0.0000 35.6773 0.0000 -0.0001
# 5 0.0001 -0.0001 0.0000 0.0000 35.6773 2.4157
# 6 0.0000 0.0000 0.0000 -0.0001 2.4157 27.7739
#
#
#
# Elastic Compliance Matrix: (Units=1/GPa)
#
#
# Indices 1 2 3 4 5 6 
#
# 1 0.020284 0.002174 -0.003942 -0.001226 0.000000 0.000000
# 2 0.002174 0.020284 -0.003942 0.001226 0.000000 0.000000
# 3 -0.003942 -0.003942 0.010520 0.000000 0.000000 0.000000
# 4 -0.001226 0.001226 0.000000 0.028195 0.000000 0.000000
# 5 0.000000 0.000000 0.000000 0.000000 0.028195 -0.002452
# 6 0.000000 0.000000 0.000000 0.000000 -0.002452 0.036218
#
#
# Mechanical properties :
#
#
# Convention : Reuss Voigt Hill
#
# Bulk Modulus (GPa) = 25.21011 32.09571 28.65291
# Shear Modulus (GPa) = 29.70195 31.82469 30.76332
#
# Velocity S-wave (km/s) = 3.80908 3.94284 3.87654
# Velocity P-wave (km/s) = 5.62675 6.03377 5.83381
#
# Compressibility (1/GPa) = 0.03966663
#
# Stress axis : x y z
#
# Youngs Moduli (GPa) = 49.30085 49.30085 95.05421
#
# Poissons Ratio (x) = -0.10720 0.37475
# Poissons Ratio (y) = -0.10720 0.37475
# Poissons Ratio (z) = 0.19437 0.19437
#
# Static dielectric constant tensor:
#      x y z
#    x 1.780730 0.000000 0.000000 
#    y 0.000000 1.780730 0.000000 
#    z 0.000000 0.000000 1.759960 
# 
# From -- ./inp_files/1885.got.cif
#   From: 2010.05.17/outbox.cif.g08.bks.cpg/sg152_1_cif.got.tgz:1885.got - 2010.05.20 10:36:06.
