data_PCOD9575174
_publ_section_title
;
Structure prediction by ZEFSAII (Michael W. Deem and Ramdas Pophale) SiO2 
 PCOD9575174
Probable space group: R -3
;
_chemical_formula_sum "Si O2"
_cell_formula_units_Z 54
_cell_length_a 18.209837
_cell_length_b 18.209837
_cell_length_c 7.118359
_cell_angle_alpha 90.000000
_cell_angle_beta 90.000000
_cell_angle_gamma 120.000000
_cell_volume 2044.196477
_symmetry_space_group_name_H-M "R -3"
_symmetry_group_IT_number 148
_symmetry_cell_setting 'hexagonal'
loop_
_space_group_symop_operation_xyz
x,y,z
-y,x-y,z
-x+y,-x,z
-x,-y,-z
y,-x+y,-z
x-y,x,-z
2/3+x,1/3+y,1/3+z
2/3-y,1/3+x-y,1/3+z
2/3-x+y,1/3-x,1/3+z
2/3-x,1/3-y,1/3-z
2/3+y,1/3-x+y,1/3-z
2/3+x-y,1/3+x,1/3-z
1/3+x,2/3+y,2/3+z
1/3-y,2/3+x-y,2/3+z
1/3-x+y,2/3-x,2/3+z
1/3-x,2/3-y,2/3-z
1/3+y,2/3-x+y,2/3-z
1/3+x-y,2/3+x,2/3-z
loop_
_atom_site_type_symbol
_atom_site_label
_atom_site_fract_x
_atom_site_fract_y
_atom_site_fract_z
Si Si1 0.312013 0.085052 0.854509
Si Si2 0.457133 0.371783 0.164928
Si Si3 0.580886 0.418342 0.746620
O O1 0.251553 0.125407 0.868759
O O2 0.336916 0.075197 0.641821
O O3 0.403238 0.163624 0.915197
O O4 0.262726 0.002655 0.982054
O O5 0.480600 0.305933 0.068703
O O6 0.649678 0.444412 0.918369
#
# Coordination Sequence:
#
# PCOD9575174 Si02
#       3
#    18  18  18
#     4  10  23  44  74 112 154 198 255 316 382 456
#     4  10  23  43  72 113 154 198 252 319 384 455
#     4  10  22  41  68 106 153 203 245 298 375 455
#
# _framework density 26.416249000000001
#
# number of rings (size 3 to 8) (size 9 to 14) (size 15 to 20)
#    0.000    2.000    0.000    1.333    0.000   13.333 
#    0.000    0.000    0.000   18.667    0.000    0.000 
#    0.000    0.000    0.000    0.000    0.000    0.000 
#
# Total GULP energy -100469.534119 kJ/mol
# GULP energy per Si atom -5581.640784 kJ/mol
# Density = 2.635612 g / cm^3
# Si number density = 26.416249 Si / 1000 Ang^3
#
#
#
# Elastic Constant Matrix: (Units=GPa)
#
#
# Indices 1 2 3 4 5 6 
#
# 1 142.3977 43.8405 54.1555 10.7430 -0.6032 -0.0024
# 2 43.8405 142.4037 54.1605 -10.7442 0.5957 0.0002
# 3 54.1555 54.1605 134.7790 -0.0020 -0.0111 -0.0038
# 4 10.7430 -10.7442 -0.0020 44.5431 -0.0017 0.5961
# 5 -0.6032 0.5957 -0.0111 -0.0017 44.5335 10.7406
# 6 -0.0024 0.0002 -0.0038 0.5961 10.7406 49.2794
#
#
#
# Elastic Compliance Matrix: (Units=1/GPa)
#
#
# Indices 1 2 3 4 5 6 
#
# 1 0.008859 -0.001852 -0.002815 -0.002584 0.000144 0.000000
# 2 -0.001852 0.008859 -0.002816 0.002583 -0.000144 0.000000
# 3 -0.002815 -0.002816 0.009682 0.000000 0.000002 0.000000
# 4 -0.002584 0.002583 0.000000 0.023700 0.000001 -0.000287
# 5 0.000144 -0.000144 0.000002 0.000001 0.023705 -0.005167
# 6 0.000000 0.000000 0.000000 -0.000287 -0.005167 0.021422
#
#
# Mechanical properties :
#
#
# Convention : Reuss Voigt Hill
#
# Bulk Modulus (GPa) = 80.42584 80.43260 80.42922
# Shear Modulus (GPa) = 43.35066 45.49946 44.42506
#
# Velocity S-wave (km/s) = 4.05540 4.15469 4.10534
# Velocity P-wave (km/s) = 7.24155 7.31639 7.27906
#
# Compressibility (1/GPa) = 0.01243381
#
# Stress axis : x y z
#
# Youngs Moduli (GPa) = 112.87898 112.88096 103.28122
#
# Poissons Ratio (x) = 0.20906 0.29078
# Poissons Ratio (y) = 0.20906 0.29081
# Poissons Ratio (z) = 0.31780 0.31784
#
# Static dielectric constant tensor:
#      x y z
#    x 2.106400 0.000000 0.000000 
#    y 0.000000 2.106400 0.000000 
#    z 0.000000 0.000000 2.247250 
# 
# From -- ./inp_files/664.got.cif
#   From: 2010.05.17/outbox.cif.g08.bks.cpg/sg148_1_cif.got.tgz:664.got - 2010.05.20 13:50:20.
