data_PCOD9575450
_publ_section_title
;
Structure prediction by ZEFSAII (Michael W. Deem and Ramdas Pophale) SiO2 
 PCOD9575450
Probable space group: P 3 2 1
;
_chemical_formula_sum "Si O2"
_cell_formula_units_Z 34
_cell_length_a 11.686065
_cell_length_b 11.686065
_cell_length_c 13.959127
_cell_angle_alpha 90.000000
_cell_angle_beta 90.000000
_cell_angle_gamma 120.000000
_cell_volume 1650.917934
_symmetry_space_group_name_H-M "P 3 2 1"
_symmetry_group_IT_number 150
_symmetry_cell_setting 'hexagonal'
loop_
_space_group_symop_operation_xyz
x,y,z
-y,x-y,z
-x+y,-x,z
x-y,-y,-z
-x,-x+y,-z
y,x,-z
loop_
_atom_site_type_symbol
_atom_site_label
_atom_site_fract_x
_atom_site_fract_y
_atom_site_fract_z
Si Si1 0.333335 0.666668 0.583466
Si Si2 0.371221 0.426498 0.391276
Si Si3 0.110960 0.403837 0.124561
Si Si4 0.333334 0.666667 0.807931
Si Si5 0.589777 0.960010 0.182235
Si Si6 0.825741 0.216221 0.097236
Si Si7 0.704469 0.567200 0.545960
O O1 0.333334 0.666667 0.695151
O O2 0.229884 0.524732 0.540173
O O3 0.401063 0.401063 0.500000
O O4 0.399664 0.379980 0.290967
O O5 0.217342 0.378165 0.398133
O O6 0.464579 0.585195 0.386845
O O7 0.074741 0.518093 0.147833
O O8 0.233438 0.412925 0.182509
O O9 0.973813 0.264595 0.134355
O O10 0.157399 0.413994 0.014133
O O11 0.472314 0.694766 0.848409
O O12 0.709981 0.066614 0.116929
O O13 0.671692 0.671692 0.500000
#
# Coordination Sequence:
#
# PCOD9575450 Si02
#       7
#     2   6   6   2   6   6   6
#     4   9  21  30  54  91 119 163 210 261 318 388
#     4  10  22  38  58  96 125 168 216 268 320 386
#     4  11  25  44  69  99 132 181 219 281 340 391
#     4  12  21  36  63  97 134 163 222 276 336 388
#     4  12  24  44  70  98 139 175 232 271 339 413
#     4  11  25  41  67 101 134 171 226 279 334 400
#     4   9  19  36  58  80 126 166 210 264 322 375
#
# _framework density 20.594602999999999
#
# number of rings (size 3 to 8) (size 9 to 14) (size 15 to 20)
#    0.000    1.412    1.765    3.353    9.882    1.412 
#    1.059    0.000    0.000    0.353    0.000    0.000 
#    0.000    0.000    0.000    0.000    0.000    0.000 
#
# Total GULP energy -189684.238501 kJ/mol
# GULP energy per Si atom -5578.948191 kJ/mol
# Density = 2.054773 g / cm^3
# Si number density = 20.594603 Si / 1000 Ang^3
#
#
#
# Elastic Constant Matrix: (Units=GPa)
#
#
# Indices 1 2 3 4 5 6 
#
# 1 98.5849 36.5210 31.1397 0.8190 0.0000 0.0000
# 2 36.5210 98.5844 31.1397 -0.8191 0.0000 0.0000
# 3 31.1397 31.1397 117.6548 -0.0001 0.0000 0.0000
# 4 0.8190 -0.8191 -0.0001 11.2051 0.0000 0.0000
# 5 0.0000 0.0000 0.0000 0.0000 11.2056 0.8189
# 6 0.0000 0.0000 0.0000 0.0000 0.8189 31.0318
#
#
#
# Elastic Compliance Matrix: (Units=1/GPa)
#
#
# Indices 1 2 3 4 5 6 
#
# 1 0.012287 -0.003857 -0.002231 -0.001180 0.000000 0.000000
# 2 -0.003857 0.012287 -0.002231 0.001180 0.000000 0.000000
# 3 -0.002231 -0.002231 0.009681 0.000000 0.000000 0.000000
# 4 -0.001180 0.001180 0.000000 0.089418 0.000000 0.000000
# 5 0.000000 0.000000 0.000000 0.000000 0.089414 -0.002360
# 6 0.000000 0.000000 0.000000 0.000000 -0.002360 0.032287
#
#
# Mechanical properties :
#
#
# Convention : Reuss Voigt Hill
#
# Bulk Modulus (GPa) = 56.76673 56.93610 56.85141
# Shear Modulus (GPa) = 18.66487 25.09009 21.87748
#
# Velocity S-wave (km/s) = 3.01375 3.49418 3.26282
# Velocity P-wave (km/s) = 6.30349 6.63213 6.46990
#
# Compressibility (1/GPa) = 0.01761595
#
# Stress axis : x y z
#
# Youngs Moduli (GPa) = 81.38783 81.38739 103.30042
#
# Poissons Ratio (x) = 0.31389 0.23048
# Poissons Ratio (y) = 0.31389 0.23049
# Poissons Ratio (z) = 0.18159 0.18159
#
# Static dielectric constant tensor:
#      x y z
#    x 1.789070 0.000000 0.000000 
#    y 0.000000 1.789080 0.000000 
#    z 0.000000 0.000000 1.781660 
# 
# From -- ./inp_files/1041.got.cif
#   From: 2010.05.17/outbox.cif.g08.bks.cpg/sg150_cif.got.tgz:1041.got - 2010.05.20 13:53:18.
