data_PCOD9575317
_publ_section_title
;
Structure prediction by ZEFSAII (Michael W. Deem and Ramdas Pophale) SiO2 
 PCOD9575317
Probable space group: R -3
;
_chemical_formula_sum "Si O2"
_cell_formula_units_Z 54
_cell_length_a 10.099363
_cell_length_b 10.099363
_cell_length_c 25.924109
_cell_angle_alpha 90.000000
_cell_angle_beta 90.000000
_cell_angle_gamma 120.000000
_cell_volume 2289.931204
_symmetry_space_group_name_H-M "R -3"
_symmetry_group_IT_number 148
_symmetry_cell_setting 'hexagonal'
loop_
_space_group_symop_operation_xyz
x,y,z
-y,x-y,z
-x+y,-x,z
-x,-y,-z
y,-x+y,-z
x-y,x,-z
2/3+x,1/3+y,1/3+z
2/3-y,1/3+x-y,1/3+z
2/3-x+y,1/3-x,1/3+z
2/3-x,1/3-y,1/3-z
2/3+y,1/3-x+y,1/3-z
2/3+x-y,1/3+x,1/3-z
1/3+x,2/3+y,2/3+z
1/3-y,2/3+x-y,2/3+z
1/3-x+y,2/3-x,2/3+z
1/3-x,2/3-y,2/3-z
1/3+y,2/3-x+y,2/3-z
1/3+x-y,2/3+x,2/3-z
loop_
_atom_site_type_symbol
_atom_site_label
_atom_site_fract_x
_atom_site_fract_y
_atom_site_fract_z
Si Si1 0.000000 0.000000 0.354848
Si Si2 0.802864 0.645299 0.916824
Si Si3 0.000000 0.000000 0.060046
Si Si4 0.672063 0.061659 0.519017
Si Si5 0.333334 0.666668 0.897101
O O1 0.171164 0.122619 0.376791
O O2 0.000000 0.000000 0.292447
O O3 0.716300 0.618053 0.862549
O O4 0.959004 0.651093 0.901768
O O5 0.865404 0.827113 0.926380
O O6 0.000000 0.000000 0.000000
O O7 0.730663 0.231710 0.538915
O O8 0.500000 0.000000 0.500000
#
# Coordination Sequence:
#
# PCOD9575317 Si02
#       5
#     6  18   6  18   6
#     4  12  33  47  77 126 168 197 242 357 427 437
#     4  12  26  50  77 112 152 203 263 316 391 480
#     4  12  28  47  76 105 153 211 260 307 381 484
#     4  12  23  46  79 107 142 203 268 313 370 475
#     4  12  28  49  76 118 157 199 259 328 403 467
#
# _framework density 23.581496999999999
#
# number of rings (size 3 to 8) (size 9 to 14) (size 15 to 20)
#    0.000    0.000    6.667    2.000    4.667    2.667 
#    0.000    0.000    0.000    0.000    0.000    0.000 
#    0.000    0.000    0.000    0.000    0.000    0.000 
#
# Total GULP energy -100434.900095 kJ/mol
# GULP energy per Si atom -5579.716672 kJ/mol
# Density = 2.352782 g / cm^3
# Si number density = 23.581497 Si / 1000 Ang^3
#
#
#
# Elastic Constant Matrix: (Units=GPa)
#
#
# Indices 1 2 3 4 5 6 
#
# 1 100.7115 31.1186 30.7675 1.9598 -7.7449 0.0003
# 2 31.1186 100.7124 30.7678 -1.9598 7.7454 -0.0002
# 3 30.7675 30.7678 117.3138 -0.0010 0.0002 0.0006
# 4 1.9598 -1.9598 -0.0010 9.3569 -0.0003 7.7455
# 5 -7.7449 7.7454 0.0002 -0.0003 9.3573 1.9608
# 6 0.0003 -0.0002 0.0006 7.7455 1.9608 34.7967
#
#
#
# Elastic Compliance Matrix: (Units=1/GPa)
#
#
# Indices 1 2 3 4 5 6 
#
# 1 0.013258 -0.004615 -0.002267 -0.003743 0.014793 -0.000001
# 2 -0.004615 0.013258 -0.002267 0.003742 -0.014794 0.000001
# 3 -0.002267 -0.002267 0.009713 0.000002 0.000000 0.000000
# 4 -0.003743 0.003742 0.000002 0.132936 0.000010 -0.029591
# 5 0.014793 -0.014794 0.000000 0.000010 0.132927 -0.007493
# 6 -0.000001 0.000001 0.000000 -0.029591 -0.007493 0.035747
#
#
# Mechanical properties :
#
#
# Convention : Reuss Voigt Hill
#
# Bulk Modulus (GPa) = 55.76392 56.00505 55.88449
# Shear Modulus (GPa) = 13.80777 25.77444 19.79111
#
# Velocity S-wave (km/s) = 2.42241 3.30963 2.90015
# Velocity P-wave (km/s) = 5.61451 6.19726 5.91307
#
# Compressibility (1/GPa) = 0.01793274
#
# Stress axis : x y z
#
# Youngs Moduli (GPa) = 75.42498 75.42519 102.95226
#
# Poissons Ratio (x) = 0.34805 0.23339
# Poissons Ratio (y) = 0.34805 0.23338
# Poissons Ratio (z) = 0.17099 0.17098
#
# Static dielectric constant tensor:
#      x y z
#    x 1.636720 0.000020 0.000000 
#    y 0.000020 1.636750 0.000000 
#    z 0.000000 0.000000 1.842950 
# 
# From -- ./inp_files/3266.got.cif
#   From: 2010.05.17/outbox.cif.g08.bks.cpg/sg148_2_cif.got.tgz:3266.got - 2010.05.20 13:50:20.
