data_PCOD9575892
_publ_section_title
;
Structure prediction by ZEFSAII (Michael W. Deem and Ramdas Pophale) SiO2 
 PCOD9575892
Probable space group: P 31 2 1
;
_chemical_formula_sum "Si O2"
_cell_formula_units_Z 30
_cell_length_a 8.938858
_cell_length_b 8.938858
_cell_length_c 21.927884
_cell_angle_alpha 90.000000
_cell_angle_beta 90.000000
_cell_angle_gamma 120.000000
_cell_volume 1517.369790
_symmetry_space_group_name_H-M "P 31 2 1"
_symmetry_group_IT_number 152
_symmetry_cell_setting 'hexagonal'
loop_
_space_group_symop_operation_xyz
x,y,z
-y,x-y,1/3+z
-x+y,-x,2/3+z
x-y,-y,2/3-z
-x,-x+y,1/3-z
y,x,-z
loop_
_atom_site_type_symbol
_atom_site_label
_atom_site_fract_x
_atom_site_fract_y
_atom_site_fract_z
Si Si1 0.828702 0.674039 0.204388
Si Si2 0.174590 0.328829 0.958215
Si Si3 0.164192 0.647298 0.016584
Si Si4 0.041785 0.446322 0.576063
Si Si5 0.179854 0.732979 0.352459
O O1 0.764705 0.777562 0.246894
O O2 0.868251 0.551266 0.247417
O O3 0.674467 0.568644 0.156679
O O4 0.000000 0.798580 0.166667
O O5 0.361452 0.441273 0.924678
O O6 0.192966 0.192966 0.000000
O O7 0.156930 0.469150 0.999470
O O8 0.362454 0.787203 0.005818
O O9 0.025228 0.668334 0.976152
O O10 0.148459 0.403217 0.626052
O O11 0.844964 0.299505 0.591476
#
# Coordination Sequence:
#
# PCOD9575892 Si02
#       5
#     6   6   6   6   6
#     4  12  26  40  64 100 131 164 224 277 322 383
#     4  11  24  43  67  90 130 176 216 258 334 394
#     4  11  21  41  65  96 121 172 220 260 322 394
#     4  10  22  42  64  92 129 172 210 268 322 387
#     4  10  20  41  67  89 129 171 212 256 335 384
#
# _framework density 19.771053999999999
#
# number of rings (size 3 to 8) (size 9 to 14) (size 15 to 20)
#    0.000    1.200    8.000    0.000    2.800    1.600 
#    0.000    3.000    0.000    0.000    0.000    0.000 
#    0.000    0.000    0.000    0.000    0.000    0.000 
#
# Total GULP energy -167295.421253 kJ/mol
# GULP energy per Si atom -5576.514042 kJ/mol
# Density = 1.972605 g / cm^3
# Si number density = 19.771054 Si / 1000 Ang^3
#
#
#
# Elastic Constant Matrix: (Units=GPa)
#
#
# Indices 1 2 3 4 5 6 
#
# 1 85.2913 46.1878 44.9686 2.4644 -0.0001 0.0000
# 2 46.1878 85.2913 44.9686 -2.4644 0.0001 0.0000
# 3 44.9686 44.9686 102.6931 0.0000 0.0000 0.0000
# 4 2.4644 -2.4644 0.0000 32.0040 0.0000 0.0001
# 5 -0.0001 0.0001 0.0000 0.0000 32.0040 2.4644
# 6 0.0000 0.0000 0.0000 0.0001 2.4644 19.5517
#
#
#
# Elastic Compliance Matrix: (Units=1/GPa)
#
#
# Indices 1 2 3 4 5 6 
#
# 1 0.018341 -0.007483 -0.004755 -0.001988 0.000000 0.000000
# 2 -0.007483 0.018341 -0.004755 0.001988 0.000000 0.000000
# 3 -0.004755 -0.004755 0.013902 0.000000 0.000000 0.000000
# 4 -0.001988 0.001988 0.000000 0.031552 0.000000 0.000000
# 5 0.000000 0.000000 0.000000 0.000000 0.031552 -0.003977
# 6 0.000000 0.000000 0.000000 0.000000 -0.003977 0.051648
#
#
# Mechanical properties :
#
#
# Convention : Reuss Voigt Hill
#
# Bulk Modulus (GPa) = 60.24326 60.61395 60.42861
# Shear Modulus (GPa) = 24.40765 25.85533 25.13149
#
# Velocity S-wave (km/s) = 3.51738 3.62019 3.56915
# Velocity P-wave (km/s) = 6.85803 6.94254 6.90041
#
# Compressibility (1/GPa) = 0.01659937
#
# Stress axis : x y z
#
# Youngs Moduli (GPa) = 54.52263 54.52263 71.93280
#
# Poissons Ratio (x) = 0.40798 0.34202
# Poissons Ratio (y) = 0.40798 0.34202
# Poissons Ratio (z) = 0.25924 0.25924
#
# Static dielectric constant tensor:
#      x y z
#    x 1.731180 0.000000 0.000000 
#    y 0.000000 1.731180 0.000000 
#    z 0.000000 0.000000 1.689520 
# 
# From -- ./inp_files/3000.got.cif
#   From: 2010.05.17/outbox.cif.g08.bks.cpg/sg152_2_cif.got.tgz:3000.got - 2010.05.20 10:36:06.
