data_PCOD9575759
_publ_section_title
;
Structure prediction by ZEFSAII (Michael W. Deem and Ramdas Pophale) SiO2 
 PCOD9575759
Probable space group: P 31 2 1
;
_chemical_formula_sum "Si O2"
_cell_formula_units_Z 36
_cell_length_a 8.828798
_cell_length_b 8.828798
_cell_length_c 23.111405
_cell_angle_alpha 90.000000
_cell_angle_beta 90.000000
_cell_angle_gamma 120.000000
_cell_volume 1560.127674
_symmetry_space_group_name_H-M "P 31 2 1"
_symmetry_group_IT_number 152
_symmetry_cell_setting 'hexagonal'
loop_
_space_group_symop_operation_xyz
x,y,z
-y,x-y,1/3+z
-x+y,-x,2/3+z
x-y,-y,2/3-z
-x,-x+y,1/3-z
y,x,-z
loop_
_atom_site_type_symbol
_atom_site_label
_atom_site_fract_x
_atom_site_fract_y
_atom_site_fract_z
Si Si1 0.879925 0.493166 0.456121
Si Si2 0.773162 0.532545 0.576164
Si Si3 0.850587 0.763488 0.378581
Si Si4 0.247669 0.509774 0.588622
Si Si5 0.000000 0.236531 0.666667
Si Si6 0.566583 0.000000 0.833334
Si Si7 0.828023 0.374717 0.966915
O O1 0.889675 0.513857 0.525410
O O2 0.839620 0.640691 0.431734
O O3 0.706521 0.315845 0.433824
O O4 0.049357 0.523092 0.420770
O O5 0.839868 0.722195 0.605546
O O6 0.596724 0.486956 0.541394
O O7 0.692436 0.372340 0.621096
O O8 0.775565 0.641921 0.321452
O O9 0.055031 0.881933 0.367136
O O10 0.269492 0.407083 0.535653
O O11 0.378725 0.517595 0.640133
O O12 0.066742 0.386108 0.618178
#
# Coordination Sequence:
#
# PCOD9575759 Si02
#       7
#     6   6   6   6   3   3   6
#     4  10  21  42  68  92 130 185 229 275 342 425
#     4  11  20  39  69  96 130 172 236 282 342 420
#     4  11  20  40  68  94 128 181 225 281 348 420
#     4  10  21  39  66  96 134 176 228 280 350 424
#     4  12  24  40  62 110 138 168 234 296 356 414
#     4  10  18  40  68  94 118 182 232 276 350 422
#     4  11  21  41  69  96 127 184 232 277 342 431
#
# _framework density 23.075032
#
# number of rings (size 3 to 8) (size 9 to 14) (size 15 to 20)
#    0.000    1.333    6.667    3.000    0.000    0.000 
#   12.000    1.667    0.000    0.000    0.000    0.000 
#    0.000    0.000    0.000    0.000    0.000    0.000 
#
# Total GULP energy -200739.896186 kJ/mol
# GULP energy per Si atom -5576.108227 kJ/mol
# Density = 2.302251 g / cm^3
# Si number density = 23.075032 Si / 1000 Ang^3
#
#
#
# Elastic Constant Matrix: (Units=GPa)
#
#
# Indices 1 2 3 4 5 6 
#
# 1 67.5041 12.6891 20.2693 -2.9478 0.0001 0.0000
# 2 12.6891 67.5041 20.2693 2.9478 -0.0001 0.0000
# 3 20.2693 20.2693 76.7364 0.0000 0.0000 0.0000
# 4 -2.9478 2.9478 0.0000 38.2047 0.0000 -0.0001
# 5 0.0001 -0.0001 0.0000 0.0000 38.2047 -2.9478
# 6 0.0000 0.0000 0.0000 -0.0001 -2.9478 27.4075
#
#
#
# Elastic Compliance Matrix: (Units=1/GPa)
#
#
# Indices 1 2 3 4 5 6 
#
# 1 0.016394 -0.002002 -0.003801 0.001419 0.000000 0.000000
# 2 -0.002002 0.016394 -0.003801 -0.001419 0.000000 0.000000
# 3 -0.003801 -0.003801 0.015040 0.000000 0.000000 0.000000
# 4 0.001419 -0.001419 0.000000 0.026394 0.000000 0.000000
# 5 0.000000 0.000000 0.000000 0.000000 0.026394 0.002839
# 6 0.000000 0.000000 0.000000 0.000000 0.002839 0.036792
#
#
# Mechanical properties :
#
#
# Convention : Reuss Voigt Hill
#
# Bulk Modulus (GPa) = 34.94391 35.35556 35.14974
# Shear Modulus (GPa) = 30.09227 31.33118 30.71173
#
# Velocity S-wave (km/s) = 3.61516 3.68883 3.65218
# Velocity P-wave (km/s) = 5.70984 5.78779 5.74895
#
# Compressibility (1/GPa) = 0.02861729
#
# Stress axis : x y z
#
# Youngs Moduli (GPa) = 60.99907 60.99907 66.48999
#
# Poissons Ratio (x) = 0.12213 0.25276
# Poissons Ratio (y) = 0.12213 0.25276
# Poissons Ratio (z) = 0.23188 0.23188
#
# Static dielectric constant tensor:
#      x y z
#    x 1.962800 0.000000 0.000000 
#    y 0.000000 1.962800 0.000000 
#    z 0.000000 0.000000 1.905530 
# 
# From -- ./inp_files/3453.got.cif
#   From: 2010.05.17/outbox.cif.g08.bks.cpg/sg152_2_cif.got.tgz:3453.got - 2010.05.20 10:36:06.
