data_PCOD9575548
_publ_section_title
;
Structure prediction by ZEFSAII (Michael W. Deem and Ramdas Pophale) SiO2 
 PCOD9575548
Probable space group: P 31 1 2
;
_chemical_formula_sum "Si O2"
_cell_formula_units_Z 30
_cell_length_a 7.889005
_cell_length_b 7.889005
_cell_length_c 25.482592
_cell_angle_alpha 90.000000
_cell_angle_beta 90.000000
_cell_angle_gamma 120.000000
_cell_volume 1373.468474
_symmetry_space_group_name_H-M "P 31 1 2"
_symmetry_group_IT_number 151
_symmetry_cell_setting 'hexagonal'
loop_
_space_group_symop_operation_xyz
x,y,z
-y,x-y,1/3+z
-x+y,-x,2/3+z
-y,-x,2/3-z
-x+y,y,1/3-z
x,x-y,-z
loop_
_atom_site_type_symbol
_atom_site_label
_atom_site_fract_x
_atom_site_fract_y
_atom_site_fract_z
Si Si1 0.430094 0.174548 0.813090
Si Si2 0.345583 0.868235 0.222569
Si Si3 0.654421 0.131767 0.722568
Si Si4 0.000002 0.561692 0.750000
Si Si5 0.174549 0.744459 0.646424
O O1 0.628866 0.371135 0.833334
O O2 0.301405 0.257068 0.786396
O O3 0.493898 0.072510 0.768707
O O4 0.351969 0.046396 0.865190
O O5 0.422229 0.844457 0.166667
O O6 0.174737 0.655898 0.237944
O O7 0.506106 0.927489 0.268707
O O8 0.577773 0.155545 0.666667
O O9 0.825266 0.344104 0.737944
O O10 0.698603 0.955667 0.713603
O O11 0.046398 0.694430 0.698524
O O12 0.371138 0.742276 0.666667
#
# Coordination Sequence:
#
# PCOD9575548 Si02
#       5
#     6   6   6   6   6
#     4   9  19  34  58  85 112 154 197 239 296 354
#     4  10  19  35  60  86 115 154 198 246 301 363
#     4  10  19  35  60  86 115 154 198 246 301 363
#     4  10  20  36  62  90 120 154 198 252 304 358
#     4   9  19  34  58  85 112 154 197 239 296 354
#
# _framework density 21.842510000000001
#
# number of rings (size 3 to 8) (size 9 to 14) (size 15 to 20)
#    0.000    2.400    0.000    2.400    0.000    0.000 
#    0.000    0.000    0.000  158.400    0.000    0.000 
#    0.000    0.000    0.000    0.000    0.000    0.000 
#
# Total GULP energy -167433.626333 kJ/mol
# GULP energy per Si atom -5581.120878 kJ/mol
# Density = 2.179280 g / cm^3
# Si number density = 21.842510 Si / 1000 Ang^3
#
#
#
# Elastic Constant Matrix: (Units=GPa)
#
#
# Indices 1 2 3 4 5 6 
#
# 1 47.9318 9.2283 24.3765 -0.0001 -0.0002 0.0000
# 2 9.2283 47.9318 24.3765 0.0001 0.0002 0.0000
# 3 24.3765 24.3765 140.4129 0.0000 0.0000 0.0000
# 4 -0.0001 0.0001 0.0000 32.5050 0.0000 0.0002
# 5 -0.0002 0.0002 0.0000 0.0000 32.5050 -0.0001
# 6 0.0000 0.0000 0.0000 0.0002 -0.0001 19.3517
#
#
#
# Elastic Compliance Matrix: (Units=1/GPa)
#
#
# Indices 1 2 3 4 5 6 
#
# 1 0.023186 -0.002651 -0.003565 0.000000 0.000000 0.000000
# 2 -0.002651 0.023186 -0.003565 0.000000 0.000000 0.000000
# 3 -0.003565 -0.003565 0.008360 0.000000 0.000000 0.000000
# 4 0.000000 0.000000 0.000000 0.030765 0.000000 0.000000
# 5 0.000000 0.000000 0.000000 0.000000 0.030765 0.000000
# 6 0.000000 0.000000 0.000000 0.000000 0.000000 0.051675
#
#
# Mechanical properties :
#
#
# Convention : Reuss Voigt Hill
#
# Bulk Modulus (GPa) = 28.43312 39.13769 33.78541
# Shear Modulus (GPa) = 25.09759 28.75869 26.92814
#
# Velocity S-wave (km/s) = 3.39340 3.63249 3.51498
# Velocity P-wave (km/s) = 5.32909 5.96241 5.65462
#
# Compressibility (1/GPa) = 0.03517025
#
# Stress axis : x y z
#
# Youngs Moduli (GPa) = 43.12865 43.12865 119.62179
#
# Poissons Ratio (x) = 0.11434 0.42646
# Poissons Ratio (y) = 0.11434 0.42646
# Poissons Ratio (z) = 0.15376 0.15376
#
# Static dielectric constant tensor:
#      x y z
#    x 1.864770 0.000000 0.000000 
#    y 0.000000 1.864770 0.000000 
#    z 0.000000 0.000000 1.780550 
# 
# From -- ./inp_files/4177.got.cif
#   From: 2010.05.17/outbox.cif.g08.bks.cpg/sg151_3_cif.got.tgz:4177.got - 2010.05.20 10:33:20.
