data_PCOD9575423
_publ_section_title
;
Structure prediction by ZEFSAII (Michael W. Deem and Ramdas Pophale) SiO2 
 PCOD9575423
Probable space group: P 3 2 1
;
_chemical_formula_sum "Si O2"
_cell_formula_units_Z 48
_cell_length_a 13.114735
_cell_length_b 13.114735
_cell_length_c 20.874189
_cell_angle_alpha 90.000000
_cell_angle_beta 90.000000
_cell_angle_gamma 120.000000
_cell_volume 3109.276054
_symmetry_space_group_name_H-M "P 3 2 1"
_symmetry_group_IT_number 150
_symmetry_cell_setting 'hexagonal'
loop_
_space_group_symop_operation_xyz
x,y,z
-y,x-y,z
-x+y,-x,z
x-y,-y,-z
-x,-x+y,-z
y,x,-z
loop_
_atom_site_type_symbol
_atom_site_label
_atom_site_fract_x
_atom_site_fract_y
_atom_site_fract_z
Si Si1 0.000667 0.757966 0.571926
Si Si2 0.091999 0.667260 0.170782
Si Si3 0.910023 0.333794 0.058489
Si Si4 0.333575 0.907393 0.318483
Si Si5 0.423771 0.333794 0.058489
Si Si6 0.757300 0.757966 0.571926
Si Si7 0.091998 0.424738 0.170782
Si Si8 0.092607 0.666425 0.318483
O O1 0.889390 0.778779 0.574715
O O2 0.983703 0.669257 0.628517
O O3 0.000000 0.711818 0.500000
O O4 0.120057 0.879943 0.579976
O O5 0.120290 0.560145 0.165632
O O6 0.209222 0.790778 0.155545
O O7 0.058271 0.670925 0.244722
O O8 0.985269 0.635144 0.122660
O O9 0.791585 0.208415 0.054237
O O10 0.880795 0.440398 0.057242
O O11 0.985269 0.350125 0.122660
O O12 0.000000 0.359175 0.000000
O O13 0.314446 0.983703 0.371483
O O14 0.329075 0.941729 0.244722
O O15 0.225717 0.774283 0.325410
O O16 0.455651 0.911303 0.328270
O O17 0.359174 0.359174 0.000000
O O18 0.711818 0.711818 0.500000
#
# Coordination Sequence:
#
# PCOD9575423 Si02
#       8
#     6   6   6   6   6   6   6   6
#     4   9  17  29  45  64  86 115 152 192 230 267
#     4   9  17  30  49  71  93 118 149 185 223 264
#     4  10  20  33  50  71  94 120 150 185 223 262
#     4   9  17  29  46  68  92 118 148 183 224 268
#     4  10  20  33  50  71  94 120 150 185 223 262
#     4   9  17  29  45  64  86 115 152 192 230 267
#     4   9  17  30  49  71  93 118 149 185 223 264
#     4   9  17  29  46  68  92 118 148 183 224 268
#
# _framework density 15.437676
#
# number of rings (size 3 to 8) (size 9 to 14) (size 15 to 20)
#    0.000    2.750    0.000    1.750    0.000    4.500 
#    0.000    2.500    0.000    5.000    0.000    0.000 
#    0.000    0.000    0.000    0.000    0.000    0.000 
#
# Total GULP energy -267444.591311 kJ/mol
# GULP energy per Si atom -5571.762319 kJ/mol
# Density = 1.540254 g / cm^3
# Si number density = 15.437676 Si / 1000 Ang^3
#
#
#
# Elastic Constant Matrix: (Units=GPa)
#
#
# Indices 1 2 3 4 5 6 
#
# 1 87.6621 56.0425 74.5918 -1.0769 0.0000 0.0000
# 2 56.0425 87.6621 74.5918 1.0769 0.0000 0.0000
# 3 74.5918 74.5918 125.2730 0.0000 0.0000 0.0000
# 4 -1.0769 1.0769 0.0000 23.2815 0.0000 0.0000
# 5 0.0000 0.0000 0.0000 0.0000 23.2815 -1.0769
# 6 0.0000 0.0000 0.0000 0.0000 -1.0769 15.8098
#
#
#
# Elastic Compliance Matrix: (Units=1/GPa)
#
#
# Indices 1 2 3 4 5 6 
#
# 1 0.024974 -0.006751 -0.010851 0.001468 0.000000 0.000000
# 2 -0.006751 0.024974 -0.010851 -0.001468 0.000000 0.000000
# 3 -0.010851 -0.010851 0.020904 0.000000 0.000000 0.000000
# 4 0.001468 -0.001468 0.000000 0.043088 0.000000 0.000000
# 5 0.000000 0.000000 0.000000 0.000000 0.043088 0.002935
# 6 0.000000 0.000000 0.000000 0.000000 0.002935 0.063452
#
#
# Mechanical properties :
#
#
# Convention : Reuss Voigt Hill
#
# Bulk Modulus (GPa) = 71.69579 79.00548 75.35063
# Shear Modulus (GPa) = 17.72821 18.83262 18.28042
#
# Velocity S-wave (km/s) = 3.39244 3.49651 3.44487
# Velocity P-wave (km/s) = 7.86688 8.22125 8.04602
#
# Compressibility (1/GPa) = 0.01394782
#
# Stress axis : x y z
#
# Youngs Moduli (GPa) = 40.04087 40.04087 47.83733
#
# Poissons Ratio (x) = 0.27034 0.51906
# Poissons Ratio (y) = 0.27034 0.51906
# Poissons Ratio (z) = 0.43447 0.43447
#
# Static dielectric constant tensor:
#      x y z
#    x 1.483790 0.000000 0.000000 
#    y 0.000000 1.483790 0.000000 
#    z 0.000000 0.000000 1.536500 
# 
# From -- ./inp_files/1147.got.cif
#   From: 2010.05.17/outbox.cif.g08.bks.cpg/sg150_cif.got.tgz:1147.got - 2010.05.20 13:53:18.
