data_PCOD9575217
_publ_section_title
;
Structure prediction by ZEFSAII (Michael W. Deem and Ramdas Pophale) SiO2 
 PCOD9575217
Probable space group: R -3
;
_chemical_formula_sum "Si O2"
_cell_formula_units_Z 114
_cell_length_a 22.016794
_cell_length_b 22.016794
_cell_length_c 14.265281
_cell_angle_alpha 90.000000
_cell_angle_beta 90.000000
_cell_angle_gamma 120.000000
_cell_volume 5988.514708
_symmetry_space_group_name_H-M "R -3"
_symmetry_group_IT_number 148
_symmetry_cell_setting 'hexagonal'
loop_
_space_group_symop_operation_xyz
x,y,z
-y,x-y,z
-x+y,-x,z
-x,-y,-z
y,-x+y,-z
x-y,x,-z
2/3+x,1/3+y,1/3+z
2/3-y,1/3+x-y,1/3+z
2/3-x+y,1/3-x,1/3+z
2/3-x,1/3-y,1/3-z
2/3+y,1/3-x+y,1/3-z
2/3+x-y,1/3+x,1/3-z
1/3+x,2/3+y,2/3+z
1/3-y,2/3+x-y,2/3+z
1/3-x+y,2/3-x,2/3+z
1/3-x,2/3-y,2/3-z
1/3+y,2/3-x+y,2/3-z
1/3+x-y,2/3+x,2/3-z
loop_
_atom_site_type_symbol
_atom_site_label
_atom_site_fract_x
_atom_site_fract_y
_atom_site_fract_z
Si Si1 0.659058 0.076136 0.373423
Si Si2 0.969945 0.722185 0.254842
Si Si3 0.228440 0.433725 0.068958
Si Si4 0.000000 0.000000 0.610290
Si Si5 0.868820 0.728720 0.909940
Si Si6 0.740708 0.883012 0.289151
Si Si7 0.848862 0.872803 0.415481
O O1 0.694947 0.039766 0.313459
O O2 0.629104 0.042909 0.476251
O O3 0.595418 0.073546 0.315727
O O4 0.726309 0.154155 0.389677
O O5 0.923886 0.751993 0.305771
O O6 0.047143 0.786526 0.266791
O O7 0.184479 0.354623 0.108024
O O8 0.177861 0.466290 0.058175
O O9 0.288121 0.490380 0.141489
O O10 0.993154 0.924719 0.626036
O O11 0.000000 0.000000 0.500000
O O12 0.899827 0.757133 0.807849
O O13 0.666667 0.833334 0.333334
O O14 0.796558 0.890766 0.363963
#
# Coordination Sequence:
#
# PCOD9575217 Si02
#       7
#    18  18  18   6  18  18  18
#     4  10  24  43  64  88 124 160 202 253 302 371
#     4  10  24  40  59  89 124 156 207 252 297 366
#     4  11  22  36  59  91 121 166 198 245 308 370
#     4  12  21  36  57  87 126 174 190 246 306 372
#     4  10  24  41  62  90 118 161 206 248 306 360
#     4  11  23  37  58  90 119 155 205 253 300 354
#     4  12  22  36  60  88 129 161 203 249 309 367
#
# _framework density 19.036439999999999
#
# number of rings (size 3 to 8) (size 9 to 14) (size 15 to 20)
#    0.000    1.263    3.158    1.895    4.421    3.789 
#    0.000    0.000    0.000    0.316    0.000    0.000 
#    0.000    0.000    0.000    0.000    0.000    0.000 
#
# Total GULP energy -211604.501035 kJ/mol
# GULP energy per Si atom -5568.539501 kJ/mol
# Density = 1.899311 g / cm^3
# Si number density = 19.036440 Si / 1000 Ang^3
#
#
#
# Elastic Constant Matrix: (Units=GPa)
#
#
# Indices 1 2 3 4 5 6 
#
# 1 62.1945 18.6830 34.3617 2.8247 5.7571 0.0000
# 2 18.6830 62.1945 34.3617 -2.8247 -5.7571 0.0000
# 3 34.3617 34.3617 145.0017 0.0000 0.0000 0.0000
# 4 2.8247 -2.8247 0.0000 27.0621 0.0000 -5.7571
# 5 5.7571 -5.7571 0.0000 0.0000 27.0621 2.8247
# 6 0.0000 0.0000 0.0000 -5.7571 2.8247 21.7558
#
#
#
# Elastic Compliance Matrix: (Units=1/GPa)
#
#
# Indices 1 2 3 4 5 6 
#
# 1 0.020095 -0.004613 -0.003669 -0.002579 -0.005256 0.000000
# 2 -0.004613 0.020095 -0.003669 0.002579 0.005256 0.000000
# 3 -0.003669 -0.003669 0.008635 0.000000 0.000000 0.000000
# 4 -0.002579 0.002579 0.000000 0.039727 0.000000 0.010513
# 5 -0.005256 0.005256 0.000000 0.000000 0.039727 -0.005158
# 6 0.000000 0.000000 0.000000 0.010513 -0.005158 0.049416
#
#
# Mechanical properties :
#
#
# Convention : Reuss Voigt Hill
#
# Bulk Modulus (GPa) = 40.12234 49.35593 44.73913
# Shear Modulus (GPa) = 23.82030 27.30830 25.56430
#
# Velocity S-wave (km/s) = 3.54121 3.79162 3.66855
# Velocity P-wave (km/s) = 6.15163 6.71952 6.44184
#
# Compressibility (1/GPa) = 0.02492377
#
# Stress axis : x y z
#
# Youngs Moduli (GPa) = 49.76358 49.76358 115.80387
#
# Poissons Ratio (x) = 0.22957 0.42486
# Poissons Ratio (y) = 0.22957 0.42486
# Poissons Ratio (z) = 0.18257 0.18257
#
# Static dielectric constant tensor:
#      x y z
#    x 1.633280 0.000000 0.000000 
#    y 0.000000 1.633280 0.000000 
#    z 0.000000 0.000000 1.725040 
# 
# From -- ./inp_files/2126.got.cif
#   From: 2010.05.17/outbox.cif.g08.bks.cpg/sg148_2_cif.got.tgz:2126.got - 2010.05.20 13:50:20.
