data_PCOD9575275
_publ_section_title
;
Structure prediction by ZEFSAII (Michael W. Deem and Ramdas Pophale) SiO2 
 PCOD9575275
Probable space group: R -3
;
_chemical_formula_sum "Si O2"
_cell_formula_units_Z 108
_cell_length_a 21.888451
_cell_length_b 21.888451
_cell_length_c 12.681856
_cell_angle_alpha 90.000000
_cell_angle_beta 90.000000
_cell_angle_gamma 120.000000
_cell_volume 5261.911099
_symmetry_space_group_name_H-M "R -3"
_symmetry_group_IT_number 148
_symmetry_cell_setting 'hexagonal'
loop_
_space_group_symop_operation_xyz
x,y,z
-y,x-y,z
-x+y,-x,z
-x,-y,-z
y,-x+y,-z
x-y,x,-z
2/3+x,1/3+y,1/3+z
2/3-y,1/3+x-y,1/3+z
2/3-x+y,1/3-x,1/3+z
2/3-x,1/3-y,1/3-z
2/3+y,1/3-x+y,1/3-z
2/3+x-y,1/3+x,1/3-z
1/3+x,2/3+y,2/3+z
1/3-y,2/3+x-y,2/3+z
1/3-x+y,2/3-x,2/3+z
1/3-x,2/3-y,2/3-z
1/3+y,2/3-x+y,2/3-z
1/3+x-y,2/3+x,2/3-z
loop_
_atom_site_type_symbol
_atom_site_label
_atom_site_fract_x
_atom_site_fract_y
_atom_site_fract_z
Si Si1 0.377907 0.261114 0.582715
Si Si2 0.854706 0.261029 0.177508
Si Si3 0.079068 0.385368 0.175644
Si Si4 0.176702 0.263101 0.693557
Si Si5 0.426101 0.149684 0.533755
Si Si6 0.174618 0.573729 0.668715
O O1 0.433368 0.322133 0.504546
O O2 0.393697 0.295408 0.700379
O O3 0.302755 0.251028 0.539572
O O4 0.390690 0.194119 0.581550
O O5 0.898561 0.233758 0.245595
O O6 0.824080 0.226211 0.063721
O O7 0.782455 0.233969 0.242597
O O8 0.039653 0.300758 0.164533
O O9 0.144631 0.404642 0.097658
O O10 0.188236 0.199018 0.731072
O O11 0.466498 0.193658 0.433421
O O12 0.216110 0.653942 0.699015
#
# Coordination Sequence:
#
# PCOD9575275 Si02
#       6
#    18  18  18  18  18  18
#     4  12  26  40  65  92 134 170 222 267 329 390
#     4  11  23  40  64  96 124 174 216 266 325 401
#     4  12  25  41  62  93 131 172 217 271 328 387
#     4  11  24  40  64  92 133 170 217 267 329 385
#     4  12  24  41  63  97 131 169 213 274 323 393
#     4  12  24  42  67  96 128 166 217 271 330 388
#
# _framework density 20.524861000000001
#
# number of rings (size 3 to 8) (size 9 to 14) (size 15 to 20)
#    0.000    0.333    8.333    0.667    2.333    0.000 
#    0.000    0.000    0.000    0.000    0.000    0.000 
#    0.000    5.333    0.000    0.000    0.000    0.000 
#
# Total GULP energy -200547.311717 kJ/mol
# GULP energy per Si atom -5570.758659 kJ/mol
# Density = 2.047815 g / cm^3
# Si number density = 20.524861 Si / 1000 Ang^3
#
#
#
# Elastic Constant Matrix: (Units=GPa)
#
#
# Indices 1 2 3 4 5 6 
#
# 1 59.9997 40.1312 4.7664 -3.9082 7.1380 0.0000
# 2 40.1312 59.9997 4.7664 3.9082 -7.1380 0.0000
# 3 4.7664 4.7664 63.3520 0.0000 0.0000 0.0000
# 4 -3.9082 3.9082 0.0000 15.0648 0.0000 -7.1380
# 5 7.1380 -7.1380 0.0000 0.0000 15.0648 -3.9082
# 6 0.0000 0.0000 0.0000 -7.1380 -3.9082 9.9342
#
#
#
# Elastic Compliance Matrix: (Units=1/GPa)
#
#
# Indices 1 2 3 4 5 6 
#
# 1 0.050171 -0.040112 -0.000757 0.023422 -0.042778 0.000000
# 2 -0.040112 0.050171 -0.000757 -0.023422 0.042778 0.000000
# 3 -0.000757 -0.000757 0.015899 0.000000 0.000000 0.000000
# 4 0.023422 -0.023422 0.000000 0.119071 0.000000 0.085556
# 5 -0.042778 0.042778 0.000000 0.000000 0.119071 0.046844
# 6 0.000000 0.000000 0.000000 0.085556 0.046844 0.180566
#
#
# Mechanical properties :
#
#
# Convention : Reuss Voigt Hill
#
# Bulk Modulus (GPa) = 30.31272 31.40881 30.86076
# Shear Modulus (GPa) = 7.94665 16.92524 12.43594
#
# Velocity S-wave (km/s) = 1.96980 2.87474 2.46417
# Velocity P-wave (km/s) = 4.46927 5.13370 4.81296
#
# Compressibility (1/GPa) = 0.03298945
#
# Stress axis : x y z
#
# Youngs Moduli (GPa) = 19.93186 19.93186 62.89823
#
# Poissons Ratio (x) = 0.79951 0.04760
# Poissons Ratio (y) = 0.79951 0.04760
# Poissons Ratio (z) = 0.01508 0.01508
#
# Static dielectric constant tensor:
#      x y z
#    x 1.783310 0.000000 0.000000 
#    y 0.000000 1.783310 0.000000 
#    z 0.000000 0.000000 1.785070 
# 
# From -- ./inp_files/2027.got.cif
#   From: 2010.05.17/outbox.cif.g08.bks.cpg/sg148_2_cif.got.tgz:2027.got - 2010.05.20 13:50:20.
