data_PCOD9575571
_publ_section_title
;
Structure prediction by ZEFSAII (Michael W. Deem and Ramdas Pophale) SiO2 
 PCOD9575571
Probable space group: P 31 1 2
;
_chemical_formula_sum "Si O2"
_cell_formula_units_Z 42
_cell_length_a 20.825581
_cell_length_b 20.825581
_cell_length_c 5.722607
_cell_angle_alpha 90.000000
_cell_angle_beta 90.000000
_cell_angle_gamma 120.000000
_cell_volume 2149.407729
_symmetry_space_group_name_H-M "P 31 1 2"
_symmetry_group_IT_number 151
_symmetry_cell_setting 'hexagonal'
loop_
_space_group_symop_operation_xyz
x,y,z
-y,x-y,1/3+z
-x+y,-x,2/3+z
-y,-x,2/3-z
-x+y,y,1/3-z
x,x-y,-z
loop_
_atom_site_type_symbol
_atom_site_label
_atom_site_fract_x
_atom_site_fract_y
_atom_site_fract_z
Si Si1 0.004173 0.144929 0.763030
Si Si2 0.584734 0.389435 0.587651
Si Si3 0.005204 0.667262 0.931225
Si Si4 0.115880 0.815538 0.078693
Si Si5 0.546457 0.027602 0.415405
Si Si6 0.789360 0.723509 0.745795
Si Si7 0.411066 0.275985 0.594726
O O1 0.058357 0.116713 0.666667
O O2 0.058554 0.211131 0.934926
O O3 0.981300 0.191525 0.589502
O O4 0.926396 0.073605 0.833334
O O5 0.615038 0.384963 0.333334
O O6 0.588632 0.470180 0.586735
O O7 0.498550 0.327587 0.608359
O O8 0.617649 0.382352 0.833334
O O9 0.008801 0.607152 0.766533
O O10 0.985208 0.720523 0.785772
O O11 0.074258 0.725825 0.081328
O O12 0.935088 0.618057 0.094100
O O13 0.155305 0.844696 0.333334
O O14 0.160600 0.839401 0.833334
O O15 0.503958 0.007915 0.666667
O O16 0.503464 0.006927 0.166667
O O17 0.867978 0.735955 0.666667
O O18 0.744260 0.639937 0.845912
O O19 0.393679 0.196840 0.500000
#
# Coordination Sequence:
#
# PCOD9575571 Si02
#       7
#     6   6   6   6   6   6   6
#     4  11  24  40  57  80 108 151 208 272 332 395
#     4  10  20  37  57  82 116 147 190 241 305 365
#     4  12  22  38  62  84 123 160 199 258 314 382
#     4  11  25  43  61  86 117 161 207 253 322 386
#     4  10  20  34  57  88 118 150 192 237 302 360
#     4  12  23  37  59  83 118 146 202 269 323 383
#     4  12  23  37  58  92 117 158 208 265 320 373
#
# _framework density 19.540268000000001
#
# number of rings (size 3 to 8) (size 9 to 14) (size 15 to 20)
#    0.000    0.857    5.714    4.714    0.000    1.143 
#    0.000    0.000    0.000    0.857    0.000    0.000 
#    0.000    0.000    0.000    2.571    0.000    7.000 
#
# Total GULP energy -234238.071166 kJ/mol
# GULP energy per Si atom -5577.096933 kJ/mol
# Density = 1.949579 g / cm^3
# Si number density = 19.540268 Si / 1000 Ang^3
#
#
#
# Elastic Constant Matrix: (Units=GPa)
#
#
# Indices 1 2 3 4 5 6 
#
# 1 47.3041 32.0518 32.4961 0.0005 5.2251 0.0000
# 2 32.0518 47.3041 32.4961 -0.0005 -5.2251 0.0000
# 3 32.4961 32.4961 134.4789 0.0000 0.0000 0.0000
# 4 0.0005 -0.0005 0.0000 32.3549 0.0000 -5.2251
# 5 5.2251 -5.2251 0.0000 0.0000 32.3549 0.0005
# 6 0.0000 0.0000 0.0000 -5.2251 0.0005 7.6262
#
#
#
# Elastic Compliance Matrix: (Units=1/GPa)
#
#
# Indices 1 2 3 4 5 6 
#
# 1 0.044716 -0.029005 -0.003796 -0.000001 -0.011905 0.000000
# 2 -0.029005 0.044716 -0.003796 0.000001 0.011905 0.000000
# 3 -0.003796 -0.003796 0.009271 0.000000 0.000000 0.000000
# 4 -0.000001 0.000001 0.000000 0.034753 0.000000 0.023811
# 5 -0.011905 0.011905 0.000000 0.000000 0.034753 -0.000002
# 6 0.000000 0.000000 0.000000 0.023811 -0.000002 0.147442
#
#
# Mechanical properties :
#
#
# Convention : Reuss Voigt Hill
#
# Bulk Modulus (GPa) = 39.20550 47.01946 43.11248
# Shear Modulus (GPa) = 12.58344 23.27005 17.92675
#
# Velocity S-wave (km/s) = 2.54042 3.45465 3.03219
# Velocity P-wave (km/s) = 5.35840 6.32676 5.86261
#
# Compressibility (1/GPa) = 0.02550663
#
# Stress axis : x y z
#
# Youngs Moduli (GPa) = 22.36345 22.36345 107.86474
#
# Poissons Ratio (x) = 0.64866 0.40950
# Poissons Ratio (y) = 0.64865 0.40950
# Poissons Ratio (z) = 0.08490 0.08490
#
# Static dielectric constant tensor:
#      x y z
#    x 1.693550 0.000000 0.000000 
#    y 0.000000 1.693550 0.000000 
#    z 0.000000 0.000000 -0.362110 
# 
# From -- ./inp_files/811.got.cif
#   From: 2010.05.17/outbox.cif.g08.bks.cpg/sg151_1_cif.got.tgz:811.got - 2010.05.20 10:33:20.
