data_PCOD9575730
_publ_section_title
;
Structure prediction by ZEFSAII (Michael W. Deem and Ramdas Pophale) SiO2 
 PCOD9575730
Probable space group: P 31 2 1
;
_chemical_formula_sum "Si O2"
_cell_formula_units_Z 18
_cell_length_a 7.778075
_cell_length_b 7.778075
_cell_length_c 12.896124
_cell_angle_alpha 90.000000
_cell_angle_beta 90.000000
_cell_angle_gamma 120.000000
_cell_volume 675.669142
_symmetry_space_group_name_H-M "P 31 2 1"
_symmetry_group_IT_number 152
_symmetry_cell_setting 'hexagonal'
loop_
_space_group_symop_operation_xyz
x,y,z
-y,x-y,1/3+z
-x+y,-x,2/3+z
x-y,-y,2/3-z
-x,-x+y,1/3-z
y,x,-z
loop_
_atom_site_type_symbol
_atom_site_label
_atom_site_fract_x
_atom_site_fract_y
_atom_site_fract_z
Si Si1 0.783465 0.678318 0.163200
Si Si2 0.655037 0.141071 0.248098
Si Si3 0.682875 0.480518 0.375553
O O1 0.579206 0.642234 0.109929
O O2 0.712882 0.627093 0.282386
O O3 0.826636 0.518656 0.098758
O O4 0.000000 0.874049 0.166667
O O5 0.742596 0.346429 0.306606
O O6 0.759289 0.171170 0.138171
O O7 0.664715 0.000000 0.333334
#
# Coordination Sequence:
#
# PCOD9575730 Si02
#       3
#     6   6   6
#     4  10  18  30  52  80 111 148 194 247 297 350
#     4   9  18  32  52  78 110 147 193 243 290 349
#     4   9  18  32  51  76 109 151 193 236 293 359
#
# _framework density 26.640257999999999
#
# number of rings (size 3 to 8) (size 9 to 14) (size 15 to 20)
#    0.000    2.667    0.000    2.000    0.000    2.667 
#    0.000    0.000    0.000   30.000    0.000   18.667 
#    0.000    0.000    0.000    0.000    0.000    0.000 
#
# Total GULP energy -100253.639521 kJ/mol
# GULP energy per Si atom -5569.646640 kJ/mol
# Density = 2.657962 g / cm^3
# Si number density = 26.640258 Si / 1000 Ang^3
#
#
#
# Elastic Constant Matrix: (Units=GPa)
#
#
# Indices 1 2 3 4 5 6 
#
# 1 77.3186 31.3499 37.0159 10.1397 0.0000 0.0000
# 2 31.3499 77.3186 37.0159 -10.1397 0.0000 0.0000
# 3 37.0159 37.0159 274.8656 0.0000 0.0000 0.0000
# 4 10.1397 -10.1397 0.0000 23.9754 0.0000 0.0000
# 5 0.0000 0.0000 0.0000 0.0000 23.9754 10.1397
# 6 0.0000 0.0000 0.0000 0.0000 10.1397 22.9843
#
#
#
# Elastic Compliance Matrix: (Units=1/GPa)
#
#
# Indices 1 2 3 4 5 6 
#
# 1 0.018438 -0.008306 -0.001364 -0.011310 0.000000 0.000000
# 2 -0.008306 0.018438 -0.001364 0.011310 0.000000 0.000000
# 3 -0.001364 -0.001364 0.004006 0.000000 0.000000 0.000000
# 4 -0.011310 0.011310 0.000000 0.051276 0.000000 0.000000
# 5 0.000000 0.000000 0.000000 0.000000 0.051276 -0.022621
# 6 0.000000 0.000000 0.000000 0.000000 -0.022621 0.053487
#
#
# Mechanical properties :
#
#
# Convention : Reuss Voigt Hill
#
# Bulk Modulus (GPa) = 53.15882 71.14068 62.14975
# Shear Modulus (GPa) = 22.19652 35.79509 28.99580
#
# Velocity S-wave (km/s) = 2.88964 3.66956 3.30270
# Velocity P-wave (km/s) = 5.57952 6.68703 6.15822
#
# Compressibility (1/GPa) = 0.01881156
#
# Stress axis : x y z
#
# Youngs Moduli (GPa) = 54.23668 54.23668 249.64796
#
# Poissons Ratio (x) = 0.45048 0.34063
# Poissons Ratio (y) = 0.45048 0.34063
# Poissons Ratio (z) = 0.07400 0.07400
#
# Static dielectric constant tensor:
#      x y z
#    x 2.341030 0.000000 0.000000 
#    y 0.000000 2.341030 0.000000 
#    z 0.000000 0.000000 2.150090 
# 
# From -- ./inp_files/1457.got.cif
#   From: 2010.05.17/outbox.cif.g08.bks.cpg/sg152_1_cif.got.tgz:1457.got - 2010.05.20 10:36:06.
