data_PCOD9575824
_publ_section_title
;
Structure prediction by ZEFSAII (Michael W. Deem and Ramdas Pophale) SiO2 
 PCOD9575824
Probable space group: P 31 2 1
;
_chemical_formula_sum "Si O2"
_cell_formula_units_Z 24
_cell_length_a 9.455342
_cell_length_b 9.455342
_cell_length_c 12.009717
_cell_angle_alpha 90.000000
_cell_angle_beta 90.000000
_cell_angle_gamma 120.000000
_cell_volume 929.860692
_symmetry_space_group_name_H-M "P 31 2 1"
_symmetry_group_IT_number 152
_symmetry_cell_setting 'hexagonal'
loop_
_space_group_symop_operation_xyz
x,y,z
-y,x-y,1/3+z
-x+y,-x,2/3+z
x-y,-y,2/3-z
-x,-x+y,1/3-z
y,x,-z
loop_
_atom_site_type_symbol
_atom_site_label
_atom_site_fract_x
_atom_site_fract_y
_atom_site_fract_z
Si Si1 0.000000 0.648101 0.666667
Si Si2 0.186114 0.510273 0.545507
Si Si3 0.512339 0.051036 0.682288
Si Si4 0.202379 0.319008 0.242609
Si Si5 0.000000 0.188273 0.666667
O O1 0.852930 0.468893 0.701753
O O2 0.939915 0.693862 0.553137
O O3 0.355267 0.514827 0.558928
O O4 0.163437 0.568469 0.427533
O O5 0.051376 0.320686 0.567503
O O6 0.354513 0.057957 0.723328
O O7 0.536431 0.904881 0.635542
O O8 0.171519 0.152992 0.299487
#
# Coordination Sequence:
#
# PCOD9575824 Si02
#       5
#     3   6   6   6   3
#     4   9  18  34  62  89 118 157 204 249 296 357
#     4   9  18  35  58  89 119 153 199 255 301 346
#     4  10  20  34  61  90 117 153 205 254 296 354
#     4  10  21  39  63  89 119 158 203 249 299 358
#     4   9  20  36  58  85 124 161 190 241 312 363
#
# _framework density 25.810317999999999
#
# number of rings (size 3 to 8) (size 9 to 14) (size 15 to 20)
#    0.000    2.500    0.000    1.500    0.000   10.000 
#    0.000    2.500    0.000   31.500    0.000    0.000 
#    0.000    0.000    0.000    0.000    0.000    0.000 
#
# Total GULP energy -134099.929433 kJ/mol
# GULP energy per Si atom -5587.497060 kJ/mol
# Density = 2.575157 g / cm^3
# Si number density = 25.810318 Si / 1000 Ang^3
#
#
#
# Elastic Constant Matrix: (Units=GPa)
#
#
# Indices 1 2 3 4 5 6 
#
# 1 106.1202 40.4984 12.9536 8.8402 0.0001 0.0000
# 2 40.4984 106.1202 12.9536 -8.8402 -0.0001 0.0000
# 3 12.9536 12.9536 115.7439 0.0000 0.0000 0.0000
# 4 8.8402 -8.8402 0.0000 22.5149 0.0000 -0.0001
# 5 0.0001 -0.0001 0.0000 0.0000 22.5149 8.8402
# 6 0.0000 0.0000 0.0000 -0.0001 8.8402 32.8109
#
#
#
# Elastic Compliance Matrix: (Units=1/GPa)
#
#
# Indices 1 2 3 4 5 6 
#
# 1 0.012000 -0.005042 -0.000779 -0.006691 0.000000 0.000000
# 2 -0.005042 0.012000 -0.000779 0.006691 0.000000 0.000000
# 3 -0.000779 -0.000779 0.008814 0.000000 0.000000 0.000000
# 4 -0.006691 0.006691 0.000000 0.049669 0.000000 0.000000
# 5 0.000000 0.000000 0.000000 0.000000 0.049669 -0.013382
# 6 0.000000 0.000000 0.000000 0.000000 -0.013382 0.034083
#
#
# Mechanical properties :
#
#
# Convention : Reuss Voigt Hill
#
# Bulk Modulus (GPa) = 50.98074 51.19947 51.09010
# Shear Modulus (GPa) = 26.88565 33.00672 29.94619
#
# Velocity S-wave (km/s) = 3.23098 3.57994 3.40993
# Velocity P-wave (km/s) = 5.80637 6.08012 5.94482
#
# Compressibility (1/GPa) = 0.01961525
#
# Stress axis : x y z
#
# Youngs Moduli (GPa) = 83.33447 83.33447 113.45499
#
# Poissons Ratio (x) = 0.42016 0.08835
# Poissons Ratio (y) = 0.42016 0.08835
# Poissons Ratio (z) = 0.06489 0.06489
#
# Static dielectric constant tensor:
#      x y z
#    x 2.035150 0.000000 0.000000 
#    y 0.000000 2.035150 0.000000 
#    z 0.000000 0.000000 1.948850 
# 
# From -- ./inp_files/1693.got.cif
#   From: 2010.05.17/outbox.cif.g08.bks.cpg/sg152_1_cif.got.tgz:1693.got - 2010.05.20 10:36:06.
