data_PCOD9575152
_publ_section_title
;
Structure prediction by ZEFSAII (Michael W. Deem and Ramdas Pophale) SiO2 
 PCOD9575152
Probable space group: R -3
;
_chemical_formula_sum "Si O2"
_cell_formula_units_Z 144
_cell_length_a 29.270530
_cell_length_b 29.270530
_cell_length_c 9.156582
_cell_angle_alpha 90.000000
_cell_angle_beta 90.000000
_cell_angle_gamma 120.000000
_cell_volume 6793.994535
_symmetry_space_group_name_H-M "R -3"
_symmetry_group_IT_number 148
_symmetry_cell_setting 'hexagonal'
loop_
_space_group_symop_operation_xyz
x,y,z
-y,x-y,z
-x+y,-x,z
-x,-y,-z
y,-x+y,-z
x-y,x,-z
2/3+x,1/3+y,1/3+z
2/3-y,1/3+x-y,1/3+z
2/3-x+y,1/3-x,1/3+z
2/3-x,1/3-y,1/3-z
2/3+y,1/3-x+y,1/3-z
2/3+x-y,1/3+x,1/3-z
1/3+x,2/3+y,2/3+z
1/3-y,2/3+x-y,2/3+z
1/3-x+y,2/3-x,2/3+z
1/3-x,2/3-y,2/3-z
1/3+y,2/3-x+y,2/3-z
1/3+x-y,2/3+x,2/3-z
loop_
_atom_site_type_symbol
_atom_site_label
_atom_site_fract_x
_atom_site_fract_y
_atom_site_fract_z
Si Si1 0.251050 0.458363 0.384371
Si Si2 0.482910 0.280719 0.337911
Si Si3 0.186187 0.894515 0.827030
Si Si4 0.787925 0.283809 0.138264
Si Si5 0.689357 0.449686 0.840069
Si Si6 0.231183 0.860919 0.332653
Si Si7 0.610855 0.567813 0.323736
Si Si8 0.621974 0.898363 0.533546
O O1 0.236737 0.476261 0.535678
O O2 0.290279 0.506113 0.284328
O O3 0.192674 0.425917 0.309115
O O4 0.276177 0.421300 0.423024
O O5 0.511048 0.268761 0.205747
O O6 0.512530 0.338277 0.408168
O O7 0.424983 0.269301 0.292319
O O8 0.166667 0.833334 0.833334
O O9 0.148803 0.915884 0.771864
O O10 0.237764 0.917285 0.727159
O O11 0.198345 0.911549 0.993659
O O12 0.787138 0.312994 0.994092
O O13 0.733301 0.433025 0.859441
O O14 0.166667 0.833334 0.333334
O O15 0.261532 0.888599 0.484702
O O16 0.251973 0.907162 0.212484
O O17 0.668047 0.608042 0.393134
#
# Coordination Sequence:
#
# PCOD9575152 Si02
#       8
#    18  18  18  18  18  18  18  18
#     4  10  21  44  72  97 137 177 234 284 343 422
#     4  11  21  45  66 103 130 174 229 292 335 409
#     4  12  23  40  68 102 136 184 238 286 345 411
#     4  12  26  42  75 101 137 180 235 285 347 416
#     4  12  29  47  71 103 143 179 223 288 365 433
#     4   9  21  41  69  99 138 183 238 294 348 416
#     4  11  23  42  65  98 144 179 234 296 348 409
#     4  11  23  44  67 100 141 188 234 296 349 409
#
# _framework density 21.19519
#
# number of rings (size 3 to 8) (size 9 to 14) (size 15 to 20)
#    0.000    1.000    5.000    1.625    8.750    0.000 
#    2.250    0.000    0.000    1.000    0.000    0.000 
#    0.000    0.000    0.000    0.000    0.000    0.000 
#
# Total GULP energy -267878.986982 kJ/mol
# GULP energy per Si atom -5580.812229 kJ/mol
# Density = 2.114695 g / cm^3
# Si number density = 21.195190 Si / 1000 Ang^3
#
#
#
# Elastic Constant Matrix: (Units=GPa)
#
#
# Indices 1 2 3 4 5 6 
#
# 1 73.7676 29.3706 15.6125 6.2520 -8.9447 -0.0182
# 2 29.3706 73.7702 15.5938 -6.2714 8.9295 -0.0013
# 3 15.6125 15.5938 36.6208 -0.0468 -0.1480 0.0070
# 4 6.2520 -6.2714 -0.0468 33.8852 -0.0293 8.9347
# 5 -8.9447 8.9295 -0.1480 -0.0293 33.7950 6.2595
# 6 -0.0182 -0.0013 0.0070 8.9347 6.2595 22.2263
#
#
#
# Elastic Compliance Matrix: (Units=1/GPa)
#
#
# Indices 1 2 3 4 5 6 
#
# 1 0.018943 -0.007817 -0.004725 -0.004947 0.007050 0.000020
# 2 -0.007817 0.018952 -0.004760 0.004934 -0.007095 0.000011
# 3 -0.004725 -0.004760 0.031349 0.000056 0.000160 -0.000081
# 4 -0.004947 0.004934 0.000056 0.035057 0.000030 -0.014105
# 5 0.007050 -0.007095 0.000160 0.000030 0.035167 -0.009911
# 6 0.000020 0.000011 -0.000081 -0.014105 -0.009911 0.053453
#
#
# Mechanical properties :
#
#
# Convention : Reuss Voigt Hill
#
# Bulk Modulus (GPa) = 28.86846 33.92360 31.39603
# Shear Modulus (GPa) = 20.91427 26.22009 23.56718
#
# Velocity S-wave (km/s) = 3.14466 3.52103 3.33815
# Velocity P-wave (km/s) = 5.18025 5.70703 5.45001
#
# Compressibility (1/GPa) = 0.03463989
#
# Stress axis : x y z
#
# Youngs Moduli (GPa) = 52.79091 52.76389 31.89907
#
# Poissons Ratio (x) = 0.41246 0.15072
# Poissons Ratio (y) = 0.41267 0.15184
# Poissons Ratio (z) = 0.24944 0.25116
#
# Static dielectric constant tensor:
#      x y z
#    x 1.913810 -0.000410 -0.000170 
#    y -0.000410 1.914340 -0.000050 
#    z -0.000170 -0.000050 1.763600 
# 
# From -- ./inp_files/1141.got.cif
#   From: 2010.05.17/outbox.cif.g08.bks.cpg/sg148_1_cif.got.tgz:1141.got - 2010.05.20 13:50:20.
