data_PCOD9575147
_publ_section_title
;
Structure prediction by ZEFSAII (Michael W. Deem and Ramdas Pophale) SiO2 
 PCOD9575147
Probable space group: R -3
;
_chemical_formula_sum "Si O2"
_cell_formula_units_Z 108
_cell_length_a 17.343472
_cell_length_b 17.343472
_cell_length_c 20.162476
_cell_angle_alpha 90.000000
_cell_angle_beta 90.000000
_cell_angle_gamma 120.000000
_cell_volume 5252.264421
_symmetry_space_group_name_H-M "R -3"
_symmetry_group_IT_number 148
_symmetry_cell_setting 'hexagonal'
loop_
_space_group_symop_operation_xyz
x,y,z
-y,x-y,z
-x+y,-x,z
-x,-y,-z
y,-x+y,-z
x-y,x,-z
2/3+x,1/3+y,1/3+z
2/3-y,1/3+x-y,1/3+z
2/3-x+y,1/3-x,1/3+z
2/3-x,1/3-y,1/3-z
2/3+y,1/3-x+y,1/3-z
2/3+x-y,1/3+x,1/3-z
1/3+x,2/3+y,2/3+z
1/3-y,2/3+x-y,2/3+z
1/3-x+y,2/3-x,2/3+z
1/3-x,2/3-y,2/3-z
1/3+y,2/3-x+y,2/3-z
1/3+x-y,2/3+x,2/3-z
loop_
_atom_site_type_symbol
_atom_site_label
_atom_site_fract_x
_atom_site_fract_y
_atom_site_fract_z
Si Si1 0.737011 0.657024 0.593297
Si Si2 0.510885 0.844219 0.166667
Si Si3 0.518348 0.666667 0.666667
Si Si4 0.851713 0.332616 0.185718
Si Si5 0.000718 0.814954 0.852384
Si Si6 0.403677 0.413320 0.926630
O O1 0.780111 0.752844 0.559262
O O2 0.672861 0.582845 0.540708
O O3 0.752844 0.780111 0.440738
O O4 0.958341 0.666667 0.666667
O O5 0.500995 0.750498 0.148634
O O6 0.697417 0.848708 0.267611
O O7 0.421255 0.578745 0.665014
O O8 0.557195 0.668559 0.593182
O O9 0.555303 0.664775 0.740151
O O10 0.757042 0.242958 0.179787
O O11 0.840516 0.420258 0.182341
O O12 0.916179 0.339528 0.125959
#
# Coordination Sequence:
#
# PCOD9575147 Si02
#       6
#    18  18  18  18  18  18
#     4   9  19  36  55  78 113 150 184 235 305 361
#     4  10  21  40  65  88 108 144 200 260 309 352
#     4   8  13  22  40  70 109 150 190 228 266 318
#     4   9  16  28  49  79 116 156 194 230 274 339
#     4   9  16  28  49  79 116 156 194 230 274 339
#     4   9  19  36  55  78 113 150 184 235 305 361
#
# _framework density 20.562560000000001
#
# number of rings (size 3 to 8) (size 9 to 14) (size 15 to 20)
#    0.000    3.000    0.000    0.667    0.000    4.000 
#    3.000    0.833    0.000    4.000    0.000    0.000 
#    0.000    0.000    0.000    1.000    0.000    0.667 
#
# Total GULP energy -200780.154839 kJ/mol
# GULP energy per Si atom -5577.226523 kJ/mol
# Density = 2.051576 g / cm^3
# Si number density = 20.562560 Si / 1000 Ang^3
#
#
#
# Elastic Constant Matrix: (Units=GPa)
#
#
# Indices 1 2 3 4 5 6 
#
# 1 80.7054 40.0126 61.9841 -8.0657 -0.0001 0.0000
# 2 40.0126 80.7054 61.9841 8.0657 0.0001 0.0000
# 3 61.9841 61.9841 206.3075 0.0000 0.0000 0.0000
# 4 -8.0657 8.0657 0.0000 24.3690 0.0000 0.0001
# 5 -0.0001 0.0001 0.0000 0.0000 24.3690 -8.0657
# 6 0.0000 0.0000 0.0000 0.0001 -8.0657 20.3464
#
#
#
# Elastic Compliance Matrix: (Units=1/GPa)
#
#
# Indices 1 2 3 4 5 6 
#
# 1 0.020133 -0.008153 -0.003599 0.009362 0.000000 0.000000
# 2 -0.008153 0.020133 -0.003599 -0.009362 0.000000 0.000000
# 3 -0.003599 -0.003599 0.007010 0.000000 0.000000 0.000000
# 4 0.009362 -0.009362 0.000000 0.047233 0.000000 0.000000
# 5 0.000000 0.000000 0.000000 0.000000 0.047233 0.018724
# 6 0.000000 0.000000 0.000000 0.000000 0.018724 0.056571
#
#
# Mechanical properties :
#
#
# Convention : Reuss Voigt Hill
#
# Bulk Modulus (GPa) = 60.34052 77.29777 68.81915
# Shear Modulus (GPa) = 21.31829 27.39938 24.35883
#
# Velocity S-wave (km/s) = 3.22336 3.65429 3.44557
# Velocity P-wave (km/s) = 6.57738 7.44837 7.02638
#
# Compressibility (1/GPa) = 0.01657261
#
# Stress axis : x y z
#
# Youngs Moduli (GPa) = 49.67010 49.67010 142.65471
#
# Poissons Ratio (x) = 0.40495 0.51346
# Poissons Ratio (y) = 0.40495 0.51346
# Poissons Ratio (z) = 0.17878 0.17878
#
# Static dielectric constant tensor:
#      x y z
#    x 1.722650 0.000000 0.000000 
#    y 0.000000 1.722650 0.000000 
#    z 0.000000 0.000000 1.766900 
# 
# From -- ./inp_files/3701.got.cif
#   From: 2010.05.17/outbox.cif.g08.bks.cpg/sg148_2_cif.got.tgz:3701.got - 2010.05.20 13:50:20.
