data_PCOD9575944
_publ_section_title
;
Structure prediction by ZEFSAII (Michael W. Deem and Ramdas Pophale) SiO2 
 PCOD9575944
Probable space group: P 31 2 1
;
_chemical_formula_sum "Si O2"
_cell_formula_units_Z 30
_cell_length_a 8.655645
_cell_length_b 8.655645
_cell_length_c 22.325892
_cell_angle_alpha 90.000000
_cell_angle_beta 90.000000
_cell_angle_gamma 120.000000
_cell_volume 1448.566120
_symmetry_space_group_name_H-M "P 31 2 1"
_symmetry_group_IT_number 152
_symmetry_cell_setting 'hexagonal'
loop_
_space_group_symop_operation_xyz
x,y,z
-y,x-y,1/3+z
-x+y,-x,2/3+z
x-y,-y,2/3-z
-x,-x+y,1/3-z
y,x,-z
loop_
_atom_site_type_symbol
_atom_site_label
_atom_site_fract_x
_atom_site_fract_y
_atom_site_fract_z
Si Si1 0.338698 0.519479 0.666136
Si Si2 0.684389 0.872765 0.114249
Si Si3 0.849909 0.000000 0.833334
Si Si4 0.655057 0.141935 0.913541
Si Si5 0.346851 0.479753 0.125898
Si Si6 0.448086 0.448086 0.000000
O O1 0.263085 0.357528 0.713782
O O2 0.436362 0.476781 0.614275
O O3 0.456506 0.699254 0.704524
O O4 0.165799 0.529181 0.645389
O O5 0.874105 0.891548 0.125738
O O6 0.533965 0.666787 0.127263
O O7 0.661564 0.006326 0.158106
O O8 0.795436 0.116137 0.875011
O O9 0.542882 0.201685 0.871685
O O10 0.329266 0.395944 0.059379
#
# Coordination Sequence:
#
# PCOD9575944 Si02
#       6
#     6   6   3   6   6   3
#     4  10  21  38  59  84 113 153 192 236 290 346
#     4  10  22  39  59  85 117 155 196 239 292 349
#     4  12  24  38  58  90 122 152 192 246 296 346
#     4  10  23  39  60  86 117 153 193 240 293 346
#     4  10  21  38  60  85 115 157 197 239 291 354
#     4   8  18  36  58  82 110 146 192 240 288 340
#
# _framework density 20.710135999999999
#
# number of rings (size 3 to 8) (size 9 to 14) (size 15 to 20)
#    0.000    2.400    0.000    4.800    0.000   10.400 
#    0.000    0.000    0.000    0.000    0.000    0.000 
#    0.000    0.000    0.000    0.000    0.000    0.000 
#
# Total GULP energy -167586.967696 kJ/mol
# GULP energy per Si atom -5586.232257 kJ/mol
# Density = 2.066300 g / cm^3
# Si number density = 20.710136 Si / 1000 Ang^3
#
#
#
# Elastic Constant Matrix: (Units=GPa)
#
#
# Indices 1 2 3 4 5 6 
#
# 1 57.4665 5.9560 7.8292 -1.4354 0.0003 0.0000
# 2 5.9560 57.4665 7.8292 1.4354 -0.0003 0.0000
# 3 7.8292 7.8292 29.2159 0.0000 0.0000 0.0000
# 4 -1.4354 1.4354 0.0000 16.0453 0.0000 -0.0003
# 5 0.0003 -0.0003 0.0000 0.0000 16.0453 -1.4354
# 6 0.0000 0.0000 0.0000 -0.0003 -1.4354 25.7552
#
#
#
# Elastic Compliance Matrix: (Units=1/GPa)
#
#
# Indices 1 2 3 4 5 6 
#
# 1 0.018198 -0.001313 -0.004525 0.001745 0.000000 0.000000
# 2 -0.001313 0.018198 -0.004525 -0.001745 0.000000 0.000000
# 3 -0.004525 -0.004525 0.036653 0.000000 0.000000 0.000000
# 4 0.001745 -0.001745 0.000000 0.062636 0.000000 0.000001
# 5 0.000000 0.000000 0.000000 0.000000 0.062636 0.003491
# 6 0.000000 0.000000 0.000000 0.000001 0.003491 0.039022
#
#
# Mechanical properties :
#
#
# Convention : Reuss Voigt Hill
#
# Bulk Modulus (GPa) = 19.11202 20.81977 19.96590
# Shear Modulus (GPa) = 18.14833 19.73812 18.94323
#
# Velocity S-wave (km/s) = 2.96345 3.09053 3.02766
# Velocity P-wave (km/s) = 4.57797 4.77597 4.67802
#
# Compressibility (1/GPa) = 0.05232308
#
# Stress axis : x y z
#
# Youngs Moduli (GPa) = 54.95231 54.95231 27.28293
#
# Poissons Ratio (x) = 0.07216 0.12345
# Poissons Ratio (y) = 0.07216 0.12345
# Poissons Ratio (z) = 0.24864 0.24864
#
# Static dielectric constant tensor:
#      x y z
#    x 1.739620 0.000000 0.000000 
#    y 0.000000 1.739620 0.000000 
#    z 0.000000 0.000000 1.737590 
# 
# From -- ./inp_files/3040.got.cif
#   From: 2010.05.17/outbox.cif.g08.bks.cpg/sg152_2_cif.got.tgz:3040.got - 2010.05.20 10:36:06.
