data_PCOD9576559
_publ_section_title
;
Structure prediction by ZEFSAII (Michael W. Deem and Ramdas Pophale) SiO2 
 PCOD9576559
Probable space group: P 32 2 1
;
_chemical_formula_sum "Si O2"
_cell_formula_units_Z 33
_cell_length_a 11.248131
_cell_length_b 11.248131
_cell_length_c 13.835174
_cell_angle_alpha 90.000000
_cell_angle_beta 90.000000
_cell_angle_gamma 120.000000
_cell_volume 1515.918973
_symmetry_space_group_name_H-M "P 32 2 1"
_symmetry_group_IT_number 154
_symmetry_cell_setting 'hexagonal'
loop_
_space_group_symop_operation_xyz
x,y,z
-y,x-y,2/3+z
-x+y,-x,1/3+z
x-y,-y,1/3-z
-x,-x+y,2/3-z
y,x,-z
loop_
_atom_site_type_symbol
_atom_site_label
_atom_site_fract_x
_atom_site_fract_y
_atom_site_fract_z
Si Si1 0.876984 0.711762 0.642429
Si Si2 0.645699 0.437397 0.108734
Si Si3 0.370162 0.786688 0.064305
Si Si4 0.000000 0.657465 0.833334
Si Si5 0.941115 0.941115 0.500000
Si Si6 0.373536 0.373536 0.000000
Si Si7 0.828349 0.120631 0.498796
O O1 0.729576 0.578173 0.623526
O O2 0.874476 0.844058 0.595039
O O3 0.928713 0.700885 0.749027
O O4 0.999692 0.722101 0.573123
O O5 0.625342 0.345554 0.201954
O O6 0.731948 0.599093 0.128915
O O7 0.732876 0.403654 0.033074
O O8 0.502165 0.403382 0.064669
O O9 0.512816 0.888978 0.117377
O O10 0.085471 0.948667 0.491908
O O11 0.341342 0.246423 0.933047
#
# Coordination Sequence:
#
# PCOD9576559 Si02
#       7
#     6   6   6   3   3   3   6
#     4  10  21  39  65 102 142 186 242 294 365 442
#     4  12  23  40  65 100 142 181 242 305 377 445
#     4  12  22  37  63 103 144 187 234 309 381 439
#     4  12  23  36  68 113 150 184 255 313 368 452
#     4   8  19  44  66  91 140 190 239 285 364 448
#     4  12  24  40  70 102 138 188 232 308 368 440
#     4  10  22  42  66  98 137 183 250 294 357 455
#
# _framework density 21.768975000000001
#
# number of rings (size 3 to 8) (size 9 to 14) (size 15 to 20)
#    1.091    0.000    7.273    0.545    0.000    0.000 
#    0.000    4.545    0.000    1.091    0.000    1.273 
#    0.000    0.000    0.000    0.000    0.000    0.000 
#
# Total GULP energy -184216.246240 kJ/mol
# GULP energy per Si atom -5582.310492 kJ/mol
# Density = 2.171943 g / cm^3
# Si number density = 21.768975 Si / 1000 Ang^3
#
#
#
# Elastic Constant Matrix: (Units=GPa)
#
#
# Indices 1 2 3 4 5 6 
#
# 1 86.3796 37.5172 31.6766 0.3238 -0.0001 0.0000
# 2 37.5172 86.3796 31.6766 -0.3238 0.0001 0.0000
# 3 31.6766 31.6766 97.6421 0.0000 0.0000 0.0000
# 4 0.3238 -0.3238 0.0000 26.8274 0.0000 0.0001
# 5 -0.0001 0.0001 0.0000 0.0000 26.8274 0.3238
# 6 0.0000 0.0000 0.0000 0.0001 0.3238 24.4312
#
#
#
# Elastic Compliance Matrix: (Units=1/GPa)
#
#
# Indices 1 2 3 4 5 6 
#
# 1 0.015073 -0.005396 -0.003139 -0.000247 0.000000 0.000000
# 2 -0.005396 0.015073 -0.003139 0.000247 0.000000 0.000000
# 3 -0.003139 -0.003139 0.012278 0.000000 0.000000 0.000000
# 4 -0.000247 0.000247 0.000000 0.037281 0.000000 0.000000
# 5 0.000000 0.000000 0.000000 0.000000 0.037281 -0.000494
# 6 0.000000 0.000000 0.000000 0.000000 -0.000494 0.040938
#
#
# Mechanical properties :
#
#
# Convention : Reuss Voigt Hill
#
# Bulk Modulus (GPa) = 52.42627 52.46021 52.44324
# Shear Modulus (GPa) = 26.64798 26.91924 26.78361
#
# Velocity S-wave (km/s) = 3.50255 3.52033 3.51145
# Velocity P-wave (km/s) = 6.36337 6.37766 6.37052
#
# Compressibility (1/GPa) = 0.01907441
#
# Stress axis : x y z
#
# Youngs Moduli (GPa) = 66.34526 66.34526 81.44464
#
# Poissons Ratio (x) = 0.35802 0.25567
# Poissons Ratio (y) = 0.35802 0.25567
# Poissons Ratio (z) = 0.20827 0.20827
#
# Static dielectric constant tensor:
#      x y z
#    x 1.780280 0.000000 0.000000 
#    y 0.000000 1.780280 0.000000 
#    z 0.000000 0.000000 1.802420 
# 
# From -- ./inp_files/2032.got.cif
#   From: 2010.05.17/outbox.cif.g08.bks.cpg/sg154_2_cif.got.tgz:2032.got - 2010.05.20 10:41:43.
