data_PCOD9576685
_publ_section_title
;
Structure prediction by ZEFSAII (Michael W. Deem and Ramdas Pophale) SiO2 
 PCOD9576685
Probable space group: P 32 2 1
;
_chemical_formula_sum "Si O2"
_cell_formula_units_Z 24
_cell_length_a 13.719883
_cell_length_b 13.719883
_cell_length_c 6.496659
_cell_angle_alpha 90.000000
_cell_angle_beta 90.000000
_cell_angle_gamma 120.000000
_cell_volume 1059.062326
_symmetry_space_group_name_H-M "P 32 2 1"
_symmetry_group_IT_number 154
_symmetry_cell_setting 'hexagonal'
loop_
_space_group_symop_operation_xyz
x,y,z
-y,x-y,2/3+z
-x+y,-x,1/3+z
x-y,-y,1/3-z
-x,-x+y,2/3-z
y,x,-z
loop_
_atom_site_type_symbol
_atom_site_label
_atom_site_fract_x
_atom_site_fract_y
_atom_site_fract_z
Si Si1 0.625282 0.731104 0.634987
Si Si2 0.793118 0.000000 0.166667
Si Si3 0.222058 0.000000 0.666667
Si Si4 0.386669 0.605792 0.448203
Si Si5 0.604952 0.922368 0.822325
O O1 0.713616 0.713616 0.500000
O O2 0.668065 0.736810 0.863822
O O3 0.502991 0.637913 0.560550
O O4 0.621246 0.845497 0.651907
O O5 0.915863 0.111894 0.198007
O O6 0.728773 0.014010 0.363905
O O7 0.406459 0.704697 0.289179
O O8 0.344072 0.495782 0.309169
O O9 0.582001 0.000000 0.666667
#
# Coordination Sequence:
#
# PCOD9576685 Si02
#       5
#     6   3   3   6   6
#     4  11  26  45  76 102 142 188 238 299 358 424
#     4  10  24  48  76 102 146 188 234 302 364 422
#     4  10  24  52  70 110 144 184 244 296 364 428
#     4  12  28  47  71 105 149 193 242 301 363 430
#     4  11  26  47  73 103 143 189 243 295 358 433
#
# _framework density 22.661555
#
# number of rings (size 3 to 8) (size 9 to 14) (size 15 to 20)
#    0.000    1.000    2.500    1.500   12.250    2.000 
#   11.250    0.000    0.000    0.000    0.000    0.000 
#    0.000    0.000    0.000    0.000    0.000    0.000 
#
# Total GULP energy -133775.142004 kJ/mol
# GULP energy per Si atom -5573.964250 kJ/mol
# Density = 2.260998 g / cm^3
# Si number density = 22.661555 Si / 1000 Ang^3
#
#
#
# Elastic Constant Matrix: (Units=GPa)
#
#
# Indices 1 2 3 4 5 6 
#
# 1 80.2093 94.7094 90.3168 27.6723 -0.0001 0.0000
# 2 94.7094 80.2093 90.3168 -27.6723 0.0001 0.0000
# 3 90.3168 90.3168 -78.0005 0.0000 0.0000 0.0000
# 4 27.6723 -27.6723 0.0000 31.8977 0.0000 0.0001
# 5 -0.0001 0.0001 0.0000 0.0000 31.8977 27.6723
# 6 0.0000 0.0000 0.0000 0.0001 27.6723 -7.2501
#
#
#
# Elastic Compliance Matrix: (Units=1/GPa)
#
#
# Indices 1 2 3 4 5 6 
#
# 1 -0.006696 0.009300 0.003015 0.013878 0.000000 0.000000
# 2 0.009300 -0.006696 0.003015 -0.013878 0.000000 0.000000
# 3 0.003015 0.003015 -0.005839 0.000000 0.000000 0.000000
# 4 0.013878 -0.013878 0.000000 0.007272 0.000000 0.000000
# 5 0.000000 0.000000 0.000000 0.000000 0.007272 0.027755
# 6 0.000000 0.000000 0.000000 0.000000 0.027755 -0.031993
#
#
# Mechanical properties :
#
#
# Convention : Reuss Voigt Hill
#
# Bulk Modulus (GPa) = 87.50708 70.34490 78.92599
# Shear Modulus (GPa) = -78.70090 -1.55258 -40.12674
#
# Velocity S-wave (km/s) = -5.89951 -0.82861 -4.21253
# Velocity P-wave (km/s) = 2.77615 5.49486 3.35309
#
# Compressibility (1/GPa) = 0.01142765
#
# Stress axis : x y z
#
# Youngs Moduli (GPa) = -149.33211 -149.33211 -171.26806
#
# Poissons Ratio (x) = 1.38881 0.51634
# Poissons Ratio (y) = 1.38881 0.51634
# Poissons Ratio (z) = 0.45020 0.45020
#
# Static dielectric constant tensor:
#      x y z
#    x 1.951200 0.000000 0.000000 
#    y 0.000000 1.951200 0.000000 
#    z 0.000000 0.000000 1.836710 
# 
# From -- ./inp_files/225.got.cif
#   From: 2010.05.17/outbox.cif.g08.bks.cpg/sg154_1_cif.got.tgz:225.got - 2010.05.20 10:41:43.
