data_PCOD9576404
_publ_section_title
;
Structure prediction by ZEFSAII (Michael W. Deem and Ramdas Pophale) SiO2 
 PCOD9576404
Probable space group: P 32 2 1
;
_chemical_formula_sum "Si O2"
_cell_formula_units_Z 42
_cell_length_a 14.037845
_cell_length_b 14.037845
_cell_length_c 10.179038
_cell_angle_alpha 90.000000
_cell_angle_beta 90.000000
_cell_angle_gamma 120.000000
_cell_volume 1737.153729
_symmetry_space_group_name_H-M "P 32 2 1"
_symmetry_group_IT_number 154
_symmetry_cell_setting 'hexagonal'
loop_
_space_group_symop_operation_xyz
x,y,z
-y,x-y,2/3+z
-x+y,-x,1/3+z
x-y,-y,1/3-z
-x,-x+y,2/3-z
y,x,-z
loop_
_atom_site_type_symbol
_atom_site_label
_atom_site_fract_x
_atom_site_fract_y
_atom_site_fract_z
Si Si1 0.789042 0.115849 0.522942
Si Si2 0.124144 0.785181 0.787974
Si Si3 0.889183 0.409286 0.878920
Si Si4 0.549626 0.217789 0.477641
Si Si5 0.664957 0.457983 0.261106
Si Si6 0.129674 0.994743 0.822860
Si Si7 0.461614 0.456306 0.804459
O O1 0.803022 0.131130 0.366555
O O2 0.810427 0.229951 0.584559
O O3 0.888956 0.095833 0.558595
O O4 0.659010 0.026044 0.528627
O O5 0.210416 0.744567 0.810075
O O6 0.000000 0.707132 0.833334
O O7 0.157596 0.899666 0.863752
O O8 0.803520 0.330698 0.988739
O O9 0.000000 0.407536 0.833334
O O10 0.956698 0.515709 0.981733
O O11 0.622357 0.440520 0.411191
O O12 0.673567 0.287832 0.528966
O O13 0.515389 0.095046 0.530090
O O14 0.558423 0.442872 0.183242
O O15 0.145878 0.000000 0.666667
O O16 0.000000 0.947604 0.833334
#
# Coordination Sequence:
#
# PCOD9576404 Si02
#       7
#     6   6   6   6   6   6   6
#     4  10  20  37  69 106 136 187 238 304 374 425
#     4  10  21  39  66  99 136 187 250 304 360 445
#     4   8  17  35  66 106 149 190 249 305 358 441
#     4   9  19  37  68 104 141 196 246 303 373 433
#     4  10  18  37  70 104 154 183 242 310 364 442
#     4   9  19  37  68 100 133 179 243 302 364 433
#     4   8  18  36  63 106 141 185 240 295 367 434
#
# _framework density 24.177481
#
# number of rings (size 3 to 8) (size 9 to 14) (size 15 to 20)
#    0.857    2.000    0.000    0.857    0.000    1.714 
#    0.000    5.714   15.714    6.000    0.000    0.000 
#    0.000    0.000    0.000    0.000    0.000    0.000 
#
# Total GULP energy -233928.368082 kJ/mol
# GULP energy per Si atom -5569.723050 kJ/mol
# Density = 2.412245 g / cm^3
# Si number density = 24.177481 Si / 1000 Ang^3
#
#
#
# Elastic Constant Matrix: (Units=GPa)
#
#
# Indices 1 2 3 4 5 6 
#
# 1 108.1340 133.1879 40.1844 1.4194 -0.0008 0.0000
# 2 133.1879 108.1340 40.1844 -1.4194 0.0008 0.0000
# 3 40.1844 40.1844 110.8032 0.0000 0.0000 0.0000
# 4 1.4194 -1.4194 0.0000 29.8493 0.0000 0.0008
# 5 -0.0008 0.0008 0.0000 0.0000 29.8493 1.4194
# 6 0.0000 0.0000 0.0000 0.0008 1.4194 -12.5270
#
#
#
# Elastic Compliance Matrix: (Units=1/GPa)
#
#
# Indices 1 2 3 4 5 6 
#
# 1 -0.017493 0.022207 -0.001709 0.001888 -0.000001 0.000000
# 2 0.022207 -0.017493 -0.001709 -0.001888 0.000001 0.000000
# 3 -0.001709 -0.001709 0.010265 0.000000 0.000000 0.000000
# 4 0.001888 -0.001888 0.000000 0.033322 0.000000 0.000002
# 5 -0.000001 0.000001 0.000000 0.000000 0.033322 0.003776
# 6 0.000000 0.000000 0.000000 0.000002 0.003776 -0.079400
#
#
# Mechanical properties :
#
#
# Convention : Reuss Voigt Hill
#
# Bulk Modulus (GPa) = 77.79747 83.79829 80.79788
# Shear Modulus (GPa) = -70.65195 17.00196 -26.82500
#
# Velocity S-wave (km/s) = -5.41162 2.65470 -3.33453
# Velocity P-wave (km/s) = 2.60769 6.64315 4.32038
#
# Compressibility (1/GPa) = 0.01285389
#
# Stress axis : x y z
#
# Youngs Moduli (GPa) = -57.16418 -57.16418 97.42041
#
# Poissons Ratio (x) = 1.26942 0.16652
# Poissons Ratio (y) = 1.26942 0.16652
# Poissons Ratio (z) = -0.09771 -0.09771
#
# Static dielectric constant tensor:
#      x y z
#    x 2.256290 0.000000 0.000000 
#    y 0.000000 2.256290 0.000000 
#    z 0.000000 0.000000 1.934460 
# 
# From -- ./inp_files/1752.got.cif
#   From: 2010.05.17/outbox.cif.g08.bks.cpg/sg154_1_cif.got.tgz:1752.got - 2010.05.20 10:41:43.
