data_PCOD9576467
_publ_section_title
;
Structure prediction by ZEFSAII (Michael W. Deem and Ramdas Pophale) SiO2 
 PCOD9576467
Probable space group: P 32 2 1
;
_chemical_formula_sum "Si O2"
_cell_formula_units_Z 36
_cell_length_a 8.245193
_cell_length_b 8.245193
_cell_length_c 26.495663
_cell_angle_alpha 90.000000
_cell_angle_beta 90.000000
_cell_angle_gamma 120.000000
_cell_volume 1559.937056
_symmetry_space_group_name_H-M "P 32 2 1"
_symmetry_group_IT_number 154
_symmetry_cell_setting 'hexagonal'
loop_
_space_group_symop_operation_xyz
x,y,z
-y,x-y,2/3+z
-x+y,-x,1/3+z
x-y,-y,1/3-z
-x,-x+y,2/3-z
y,x,-z
loop_
_atom_site_type_symbol
_atom_site_label
_atom_site_fract_x
_atom_site_fract_y
_atom_site_fract_z
Si Si1 0.685948 0.000000 0.666667
Si Si2 0.054190 0.137462 0.423064
Si Si3 0.449585 0.682671 0.119054
Si Si4 0.756339 0.968098 0.779455
Si Si5 0.256223 0.264274 0.685151
Si Si6 0.642903 0.343050 0.664057
Si Si7 0.000000 0.369619 0.833334
O O1 0.746450 0.948555 0.718251
O O2 0.496798 0.817066 0.648786
O O3 0.089994 0.326323 0.450500
O O4 0.151227 0.200923 0.367638
O O5 0.842669 0.000071 0.403022
O O6 0.116623 0.010811 0.454193
O O7 0.322945 0.459816 0.132926
O O8 0.403768 0.687944 0.060460
O O9 0.409510 0.838529 0.144194
O O10 0.872555 0.183149 0.799034
O O11 0.470661 0.327658 0.694038
O O12 0.246159 0.445234 0.671614
#
# Coordination Sequence:
#
# PCOD9576467 Si02
#       7
#     3   6   6   6   6   6   3
#     4  10  22  42  70 100 142 178 234 302 364 432
#     4  10  22  41  62  95 135 179 230 285 354 425
#     4  10  25  46  64  97 137 180 234 289 351 431
#     4  11  25  45  74 102 139 188 237 302 362 444
#     4  10  20  34  60  99 137 175 220 289 353 424
#     4  10  21  36  63  98 136 173 224 284 355 422
#     4  12  28  46  70 102 140 186 246 294 368 448
#
# _framework density 23.077853000000001
#
# number of rings (size 3 to 8) (size 9 to 14) (size 15 to 20)
#    0.000    1.667    0.000    5.000   11.667    3.333 
#    0.000    1.667    0.000    0.000    0.000    0.000 
#    0.000    0.000    0.000    0.000    0.000    0.000 
#
# Total GULP energy -200551.291027 kJ/mol
# GULP energy per Si atom -5570.869195 kJ/mol
# Density = 2.302533 g / cm^3
# Si number density = 23.077853 Si / 1000 Ang^3
#
#
#
# Elastic Constant Matrix: (Units=GPa)
#
#
# Indices 1 2 3 4 5 6 
#
# 1 123.6774 52.8961 17.7445 -2.3231 0.0000 0.0000
# 2 52.8961 123.6774 17.7445 2.3231 0.0000 0.0000
# 3 17.7445 17.7445 44.4875 0.0000 0.0000 0.0000
# 4 -2.3231 2.3231 0.0000 31.6301 0.0000 0.0000
# 5 0.0000 0.0000 0.0000 0.0000 31.6301 -2.3231
# 6 0.0000 0.0000 0.0000 0.0000 -2.3231 35.3906
#
#
#
# Elastic Compliance Matrix: (Units=1/GPa)
#
#
# Indices 1 2 3 4 5 6 
#
# 1 0.010177 -0.004020 -0.002456 0.001043 0.000000 0.000000
# 2 -0.004020 0.010177 -0.002456 -0.001043 0.000000 0.000000
# 3 -0.002456 -0.002456 0.024437 0.000000 0.000000 0.000000
# 4 0.001043 -0.001043 0.000000 0.031769 0.000000 0.000000
# 5 0.000000 0.000000 0.000000 0.000000 0.031769 0.002085
# 6 0.000000 0.000000 0.000000 0.000000 0.002085 0.028393
#
#
# Mechanical properties :
#
#
# Convention : Reuss Voigt Hill
#
# Bulk Modulus (GPa) = 37.13604 52.06805 44.60204
# Shear Modulus (GPa) = 30.56992 33.29400 31.93196
#
# Velocity S-wave (km/s) = 3.64351 3.80239 3.72380
# Velocity P-wave (km/s) = 5.81608 6.47213 6.15285
#
# Compressibility (1/GPa) = 0.02692802
#
# Stress axis : x y z
#
# Youngs Moduli (GPa) = 98.26359 98.26359 40.92111
#
# Poissons Ratio (x) = 0.39500 0.10049
# Poissons Ratio (y) = 0.39500 0.10049
# Poissons Ratio (z) = 0.24131 0.24131
#
# Static dielectric constant tensor:
#      x y z
#    x 1.991340 0.000000 0.000000 
#    y 0.000000 1.991340 0.000000 
#    z 0.000000 0.000000 1.867930 
# 
# From -- ./inp_files/3661.got.cif
#   From: 2010.05.17/outbox.cif.g08.bks.cpg/sg154_2_cif.got.tgz:3661.got - 2010.05.20 10:41:43.
