data_PCOD9576927
_publ_section_title
;
Structure prediction by ZEFSAII (Michael W. Deem and Ramdas Pophale) SiO2 
 PCOD9576927
Probable space group: R 3 2
;
_chemical_formula_sum "Si O2"
_cell_formula_units_Z 81
_cell_length_a 19.379713
_cell_length_b 19.379713
_cell_length_c 13.477960
_cell_angle_alpha 90.000000
_cell_angle_beta 90.000000
_cell_angle_gamma 120.000000
_cell_volume 4383.787330
_symmetry_space_group_name_H-M "R 3 2"
_symmetry_group_IT_number 155
_symmetry_cell_setting 'hexagonal'
loop_
_space_group_symop_operation_xyz
x,y,z
-y,x-y,z
-x+y,-x,z
x-y,-y,-z
-x,-x+y,-z
y,x,-z
2/3+x,1/3+y,1/3+z
2/3-y,1/3+x-y,1/3+z
2/3-x+y,1/3-x,1/3+z
2/3+x-y,1/3-y,1/3-z
2/3-x,1/3-x+y,1/3-z
2/3+y,1/3+x,1/3-z
1/3+x,2/3+y,2/3+z
1/3-y,2/3+x-y,2/3+z
1/3-x+y,2/3-x,2/3+z
1/3+x-y,2/3-y,2/3-z
1/3-x,2/3-x+y,2/3-z
1/3+y,2/3+x,2/3-z
loop_
_atom_site_type_symbol
_atom_site_label
_atom_site_fract_x
_atom_site_fract_y
_atom_site_fract_z
Si Si1 0.968978 0.590085 0.233015
Si Si2 0.902237 0.348295 0.671197
Si Si3 0.146101 0.619395 0.265020
Si Si4 0.584972 0.823214 0.383713
Si Si5 0.011517 0.333334 0.833334
O O1 0.925990 0.592657 0.333334
O O2 0.927385 0.510650 0.166075
O O3 0.984554 0.666667 0.166667
O O4 0.055553 0.600893 0.252873
O O5 0.860375 0.396895 0.707650
O O6 0.835565 0.255815 0.661099
O O7 0.971874 0.363706 0.749952
O O8 0.940935 0.364460 0.561672
O O9 0.193677 0.666667 0.166667
O O10 0.179129 0.684081 0.351046
O O11 0.666667 0.893732 0.333334
#
# Coordination Sequence:
#
# PCOD9576927 Si02
#       5
#    18  18  18  18   9
#     4  11  19  34  60  93 120 155 207 273 338 386
#     4  11  23  38  60  93 129 175 218 263 335 399
#     4  11  21  35  60  89 125 163 207 264 330 397
#     4  12  20  38  62  86 128 168 211 278 334 393
#     4  10  20  38  62  84 130 172 212 274 320 390
#
# _framework density 18.477174999999999
#
# number of rings (size 3 to 8) (size 9 to 14) (size 15 to 20)
#    0.000    0.889    8.889    2.667    0.000    1.778 
#    1.333    0.000    2.444    0.000    0.000    0.000 
#    6.667    0.000    0.000    0.000    0.000    0.000 
#
# Total GULP energy -150393.728938 kJ/mol
# GULP energy per Si atom -5570.138109 kJ/mol
# Density = 1.843512 g / cm^3
# Si number density = 18.477175 Si / 1000 Ang^3
#
#
#
# Elastic Constant Matrix: (Units=GPa)
#
#
# Indices 1 2 3 4 5 6 
#
# 1 81.0145 30.1971 39.1977 -1.7347 -0.0001 0.0000
# 2 30.1971 81.0145 39.1977 1.7347 0.0001 0.0000
# 3 39.1977 39.1977 107.0231 0.0000 0.0000 0.0000
# 4 -1.7347 1.7347 0.0000 25.4684 0.0000 0.0001
# 5 -0.0001 0.0001 0.0000 0.0000 25.4684 -1.7347
# 6 0.0000 0.0000 0.0000 0.0001 -1.7347 25.4087
#
#
#
# Elastic Compliance Matrix: (Units=1/GPa)
#
#
# Indices 1 2 3 4 5 6 
#
# 1 0.015946 -0.003824 -0.004440 0.001347 0.000000 0.000000
# 2 -0.003824 0.015946 -0.004440 -0.001347 0.000000 0.000000
# 3 -0.004440 -0.004440 0.012596 0.000000 0.000000 0.000000
# 4 0.001347 -0.001347 0.000000 0.039448 0.000000 0.000000
# 5 0.000000 0.000000 0.000000 0.000000 0.039448 0.002693
# 6 0.000000 0.000000 0.000000 0.000000 0.002693 0.039540
#
#
# Mechanical properties :
#
#
# Convention : Reuss Voigt Hill
#
# Bulk Modulus (GPa) = 52.40963 54.02635 53.21799
# Shear Modulus (GPa) = 25.68180 25.96641 25.82411
#
# Velocity S-wave (km/s) = 3.73221 3.75283 3.74253
# Velocity P-wave (km/s) = 6.85555 6.93407 6.89492
#
# Compressibility (1/GPa) = 0.01908046
#
# Stress axis : x y z
#
# Youngs Moduli (GPa) = 62.71249 62.71249 79.39188
#
# Poissons Ratio (x) = 0.23984 0.35246
# Poissons Ratio (y) = 0.23984 0.35246
# Poissons Ratio (z) = 0.27841 0.27841
#
# Static dielectric constant tensor:
#      x y z
#    x 1.672340 0.000000 0.000000 
#    y 0.000000 1.672340 0.000000 
#    z 0.000000 0.000000 1.692730 
# 
# From -- ./inp_files/3822.got.cif
#   From: 2010.05.17/outbox.cif.g08.bks.cpg/sg155_2_cif.got.tgz:3822.got - 2010.05.20 10:44:35.
