data_PCOD9576107
_publ_section_title
;
Structure prediction by ZEFSAII (Michael W. Deem and Ramdas Pophale) SiO2 
 PCOD9576107
Probable space group: P 31 2 1
;
_chemical_formula_sum "Si O2"
_cell_formula_units_Z 15
_cell_length_a 11.755074
_cell_length_b 11.755074
_cell_length_c 4.892119
_cell_angle_alpha 90.000000
_cell_angle_beta 90.000000
_cell_angle_gamma 120.000000
_cell_volume 585.434590
_symmetry_space_group_name_H-M "P 31 2 1"
_symmetry_group_IT_number 152
_symmetry_cell_setting 'hexagonal'
loop_
_space_group_symop_operation_xyz
x,y,z
-y,x-y,1/3+z
-x+y,-x,2/3+z
x-y,-y,2/3-z
-x,-x+y,1/3-z
y,x,-z
loop_
_atom_site_type_symbol
_atom_site_label
_atom_site_fract_x
_atom_site_fract_y
_atom_site_fract_z
Si Si1 0.754202 0.481292 0.900329
Si Si2 0.000000 0.693310 0.166667
Si Si3 0.101680 0.241389 0.926667
O O1 0.778748 0.382879 0.718223
O O2 0.766542 0.600987 0.718930
O O3 0.869727 0.554626 0.125417
O O4 0.009147 0.778087 0.433121
O O5 0.000000 0.197375 0.666667
O O6 0.000000 0.161494 0.166667
#
# Coordination Sequence:
#
# PCOD9576107 Si02
#       3
#     6   3   6
#     4  10  24  48  82 125 174 230 302 382 461 560
#     4   8  24  48  78 122 172 230 308 366 472 546
#     4  10  24  52  80 115 172 230 300 384 458 547
#
# _framework density 25.62199
#
# number of rings (size 3 to 8) (size 9 to 14) (size 15 to 20)
#    2.400    0.000    0.000    0.000    5.600    1.600 
#   14.400    4.000    8.800    0.000    0.000    0.000 
#    0.000    0.000    0.000    0.000    0.000    0.000 
#
# Total GULP energy -83566.267641 kJ/mol
# GULP energy per Si atom -5571.084509 kJ/mol
# Density = 2.556367 g / cm^3
# Si number density = 25.621990 Si / 1000 Ang^3
#
#
#
# Elastic Constant Matrix: (Units=GPa)
#
#
# Indices 1 2 3 4 5 6 
#
# 1 156.0733 2.2933 10.1559 -22.8110 0.0003 0.0000
# 2 2.2933 156.0733 10.1559 22.8110 -0.0003 0.0000
# 3 10.1559 10.1559 142.5907 0.0000 0.0000 0.0000
# 4 -22.8110 22.8110 0.0000 61.3744 0.0000 -0.0003
# 5 0.0003 -0.0003 0.0000 0.0000 61.3744 -22.8110
# 6 0.0000 0.0000 0.0000 -0.0003 -22.8110 76.8900
#
#
#
# Elastic Compliance Matrix: (Units=1/GPa)
#
#
# Indices 1 2 3 4 5 6 
#
# 1 0.006841 -0.000468 -0.000454 0.002716 0.000000 0.000000
# 2 -0.000468 0.006841 -0.000454 -0.002716 0.000000 0.000000
# 3 -0.000454 -0.000454 0.007078 0.000000 0.000000 0.000000
# 4 0.002716 -0.002716 0.000000 0.018313 0.000000 0.000000
# 5 0.000000 0.000000 0.000000 0.000000 0.018313 0.005433
# 6 0.000000 0.000000 0.000000 0.000000 0.005433 0.014617
#
#
# Mechanical properties :
#
#
# Convention : Reuss Voigt Hill
#
# Bulk Modulus (GPa) = 55.53232 55.54974 55.54103
# Shear Modulus (GPa) = 61.91504 68.73658 65.32581
#
# Velocity S-wave (km/s) = 4.92110 5.18512 5.05483
# Velocity P-wave (km/s) = 7.34918 7.58781 7.46945
#
# Compressibility (1/GPa) = 0.01800753
#
# Stress axis : x y z
#
# Youngs Moduli (GPa) = 146.18440 146.18440 141.28815
#
# Poissons Ratio (x) = 0.06841 0.06413
# Poissons Ratio (y) = 0.06841 0.06413
# Poissons Ratio (z) = 0.06635 0.06635
#
# Static dielectric constant tensor:
#      x y z
#    x 2.270180 0.000000 0.000000 
#    y 0.000000 2.270180 0.000000 
#    z 0.000000 0.000000 8.602160 
# 
# From -- ./inp_files/102.got.cif
#   From: 2010.05.17/outbox.cif.g08.bks.cpg/sg152_1_cif.got.tgz:102.got - 2010.05.20 10:36:06.
