data_PCOD9576930
_publ_section_title
;
Structure prediction by ZEFSAII (Michael W. Deem and Ramdas Pophale) SiO2 
 PCOD9576930
Probable space group: R 3 2
;
_chemical_formula_sum "Si O2"
_cell_formula_units_Z 90
_cell_length_a 17.968543
_cell_length_b 17.968543
_cell_length_c 14.859369
_cell_angle_alpha 90.000000
_cell_angle_beta 90.000000
_cell_angle_gamma 120.000000
_cell_volume 4154.863169
_symmetry_space_group_name_H-M "R 3 2"
_symmetry_group_IT_number 155
_symmetry_cell_setting 'hexagonal'
loop_
_space_group_symop_operation_xyz
x,y,z
-y,x-y,z
-x+y,-x,z
x-y,-y,-z
-x,-x+y,-z
y,x,-z
2/3+x,1/3+y,1/3+z
2/3-y,1/3+x-y,1/3+z
2/3-x+y,1/3-x,1/3+z
2/3+x-y,1/3-y,1/3-z
2/3-x,1/3-x+y,1/3-z
2/3+y,1/3+x,1/3-z
1/3+x,2/3+y,2/3+z
1/3-y,2/3+x-y,2/3+z
1/3-x+y,2/3-x,2/3+z
1/3+x-y,2/3-y,2/3-z
1/3-x,2/3-x+y,2/3-z
1/3+y,2/3+x,2/3-z
loop_
_atom_site_type_symbol
_atom_site_label
_atom_site_fract_x
_atom_site_fract_y
_atom_site_fract_z
Si Si1 0.950052 0.146900 0.133420
Si Si2 0.901293 0.512429 0.974955
Si Si3 0.160311 0.284460 0.541319
Si Si4 0.815320 0.950121 0.159398
Si Si5 0.911940 0.280050 0.026069
O O1 0.933005 0.209359 0.069712
O O2 0.957399 0.187061 0.233102
O O3 0.040706 0.151288 0.117729
O O4 0.872645 0.049005 0.130537
O O5 0.858606 0.563900 0.932562
O O6 0.909428 0.461746 0.889896
O O7 0.851888 0.463903 0.064661
O O8 0.000000 0.579144 0.000000
O O9 0.239922 0.381490 0.531700
O O10 0.088927 0.288429 0.598998
O O11 0.000000 0.364509 0.000000
#
# Coordination Sequence:
#
# PCOD9576930 Si02
#       5
#    18  18  18  18  18
#     4  11  25  40  66  89 132 172 214 269 332 395
#     4   9  20  35  63  93 117 157 204 263 323 369
#     4  10  20  38  64  91 125 155 213 266 316 394
#     4  11  22  41  61  93 125 166 215 263 327 392
#     4  11  23  43  63  95 129 172 215 268 335 404
#
# _framework density 21.661363000000001
#
# number of rings (size 3 to 8) (size 9 to 14) (size 15 to 20)
#    0.000    1.600    4.000    0.400    2.800    4.000 
#    0.000    0.000    0.000    0.000    0.000    0.000 
#    0.000    0.000    0.000    0.000    0.000    0.000 
#
# Total GULP energy -167714.550867 kJ/mol
# GULP energy per Si atom -5590.485029 kJ/mol
# Density = 2.161206 g / cm^3
# Si number density = 21.661363 Si / 1000 Ang^3
#
#
#
# Elastic Constant Matrix: (Units=GPa)
#
#
# Indices 1 2 3 4 5 6 
#
# 1 70.5399 13.7146 7.0391 0.3131 0.0000 0.0000
# 2 13.7146 70.5399 7.0391 -0.3131 0.0000 0.0000
# 3 7.0391 7.0391 58.3346 0.0000 0.0000 0.0000
# 4 0.3131 -0.3131 0.0000 29.1938 0.0000 0.0000
# 5 0.0000 0.0000 0.0000 0.0000 29.1938 0.3131
# 6 0.0000 0.0000 0.0000 0.0000 0.3131 28.4127
#
#
#
# Elastic Compliance Matrix: (Units=1/GPa)
#
#
# Indices 1 2 3 4 5 6 
#
# 1 0.014856 -0.002743 -0.001462 -0.000189 0.000000 0.000000
# 2 -0.002743 0.014856 -0.001462 0.000189 0.000000 0.000000
# 3 -0.001462 -0.001462 0.017495 0.000000 0.000000 0.000000
# 4 -0.000189 0.000189 0.000000 0.034258 0.000000 0.000000
# 5 0.000000 0.000000 0.000000 0.000000 0.034258 -0.000377
# 6 0.000000 0.000000 0.000000 0.000000 -0.000377 0.035200
#
#
# Mechanical properties :
#
#
# Convention : Reuss Voigt Hill
#
# Bulk Modulus (GPa) = 27.87479 28.33333 28.10406
# Shear Modulus (GPa) = 28.70012 28.80150 28.75081
#
# Velocity S-wave (km/s) = 3.64393 3.65036 3.64715
# Velocity P-wave (km/s) = 5.53179 5.55656 5.54419
#
# Compressibility (1/GPa) = 0.03587470
#
# Stress axis : x y z
#
# Youngs Moduli (GPa) = 67.31087 67.31087 57.15844
#
# Poissons Ratio (x) = 0.18466 0.08355
# Poissons Ratio (y) = 0.18466 0.08355
# Poissons Ratio (z) = 0.09838 0.09838
#
# Static dielectric constant tensor:
#      x y z
#    x 1.784960 0.000000 0.000000 
#    y 0.000000 1.784960 0.000000 
#    z 0.000000 0.000000 1.807220 
# 
# From -- ./inp_files/6098.got.cif
#   From: 2010.05.17/outbox.cif.g08.bks.cpg/sg155_4_cif.got.tgz:6098.got - 2010.05.20 10:44:35.
