data_PCOD9576455
_publ_section_title
;
Structure prediction by ZEFSAII (Michael W. Deem and Ramdas Pophale) SiO2 
 PCOD9576455
Probable space group: P 32 2 1
;
_chemical_formula_sum "Si O2"
_cell_formula_units_Z 45
_cell_length_a 10.608603
_cell_length_b 10.608603
_cell_length_c 19.759565
_cell_angle_alpha 90.000000
_cell_angle_beta 90.000000
_cell_angle_gamma 120.000000
_cell_volume 1925.858638
_symmetry_space_group_name_H-M "P 32 2 1"
_symmetry_group_IT_number 154
_symmetry_cell_setting 'hexagonal'
loop_
_space_group_symop_operation_xyz
x,y,z
-y,x-y,2/3+z
-x+y,-x,1/3+z
x-y,-y,1/3-z
-x,-x+y,2/3-z
y,x,-z
loop_
_atom_site_type_symbol
_atom_site_label
_atom_site_fract_x
_atom_site_fract_y
_atom_site_fract_z
Si Si1 0.719987 0.667541 0.067549
Si Si2 0.349719 0.575099 0.293150
Si Si3 0.172716 0.983973 0.317379
Si Si4 0.119611 0.579553 0.765691
Si Si5 0.710794 0.166406 0.642348
Si Si6 0.787776 0.009847 0.245086
Si Si7 0.534472 0.135625 0.518587
Si Si8 0.289819 0.000000 0.166667
O O1 0.817527 0.594347 0.054303
O O2 0.610845 0.596032 0.130406
O O3 0.776450 0.839070 0.069129
O O4 0.621693 0.621693 0.000000
O O5 0.451545 0.595785 0.356155
O O6 0.262098 0.658039 0.314508
O O7 0.437296 0.614325 0.224901
O O8 0.230735 0.880407 0.345713
O O9 0.204224 0.991914 0.235795
O O10 0.000000 0.902612 0.333334
O O11 0.230934 0.126214 0.364052
O O12 0.252065 0.738019 0.781908
O O13 0.119969 0.458847 0.814646
O O14 0.997356 0.627530 0.760709
O O15 0.668202 0.152021 0.563126
O O16 0.634984 0.000000 0.666667
O O17 0.824713 0.000000 0.166667
#
# Coordination Sequence:
#
# PCOD9576455 Si02
#       8
#     6   6   6   6   6   6   6   3
#     4  11  19  41  68  92 139 184 238 303 346 438
#     4  11  20  38  70 105 139 185 249 300 379 440
#     4  11  28  47  72 105 147 206 243 311 381 463
#     4  10  23  45  71 101 142 191 233 314 358 447
#     4  10  19  43  62  94 142 182 237 305 368 435
#     4  11  24  44  73 108 147 193 258 301 377 444
#     4  10  20  36  68 102 133 184 237 297 375 424
#     4  12  26  54  70 104 156 192 250 310 390 444
#
# _framework density 23.366199999999999
#
# number of rings (size 3 to 8) (size 9 to 14) (size 15 to 20)
#    0.000    1.333    6.000    1.200    2.800    2.133 
#    9.600    0.000    0.000    0.000    0.000    0.000 
#    0.000    0.000    0.000    0.000    0.000    0.000 
#
# Total GULP energy -250579.924893 kJ/mol
# GULP energy per Si atom -5568.442775 kJ/mol
# Density = 2.331302 g / cm^3
# Si number density = 23.366200 Si / 1000 Ang^3
#
#
#
# Elastic Constant Matrix: (Units=GPa)
#
#
# Indices 1 2 3 4 5 6 
#
# 1 67.7345 21.6913 23.5820 -2.4002 -0.0001 0.0000
# 2 21.6913 67.7345 23.5820 2.4002 0.0001 0.0000
# 3 23.5820 23.5820 144.5813 0.0000 0.0000 0.0000
# 4 -2.4002 2.4002 0.0000 32.5108 0.0000 0.0001
# 5 -0.0001 0.0001 0.0000 0.0000 32.5108 -2.4002
# 6 0.0000 0.0000 0.0000 0.0001 -2.4002 23.0216
#
#
#
# Elastic Compliance Matrix: (Units=1/GPa)
#
#
# Indices 1 2 3 4 5 6 
#
# 1 0.017061 -0.004826 -0.001996 0.001616 0.000000 0.000000
# 2 -0.004826 0.017061 -0.001996 -0.001616 0.000000 0.000000
# 3 -0.001996 -0.001996 0.007568 0.000000 0.000000 0.000000
# 4 0.001616 -0.001616 0.000000 0.030998 0.000000 0.000000
# 5 0.000000 0.000000 0.000000 0.000000 0.030998 0.003232
# 6 0.000000 0.000000 0.000000 0.000000 0.003232 0.043774
#
#
# Mechanical properties :
#
#
# Convention : Reuss Voigt Hill
#
# Bulk Modulus (GPa) = 41.57131 46.41788 43.99459
# Shear Modulus (GPa) = 28.88301 31.68831 30.28566
#
# Velocity S-wave (km/s) = 3.51964 3.68660 3.60409
# Velocity P-wave (km/s) = 5.86063 6.16684 6.01568
#
# Compressibility (1/GPa) = 0.02405505
#
# Stress axis : x y z
#
# Youngs Moduli (GPa) = 58.61299 58.61299 132.14398
#
# Poissons Ratio (x) = 0.28287 0.26370
# Poissons Ratio (y) = 0.28287 0.26370
# Poissons Ratio (z) = 0.11697 0.11697
#
# Static dielectric constant tensor:
#      x y z
#    x 1.999420 0.000000 0.000000 
#    y 0.000000 1.999420 0.000000 
#    z 0.000000 0.000000 1.954090 
# 
# From -- ./inp_files/2494.got.cif
#   From: 2010.05.17/outbox.cif.g08.bks.cpg/sg154_2_cif.got.tgz:2494.got - 2010.05.20 10:41:43.
