data_PCOD9576059
_publ_section_title
;
Structure prediction by ZEFSAII (Michael W. Deem and Ramdas Pophale) SiO2 
 PCOD9576059
Probable space group: P 31 2 1
;
_chemical_formula_sum "Si O2"
_cell_formula_units_Z 36
_cell_length_a 8.944091
_cell_length_b 8.944091
_cell_length_c 23.920851
_cell_angle_alpha 90.000000
_cell_angle_beta 90.000000
_cell_angle_gamma 120.000000
_cell_volume 1657.218131
_symmetry_space_group_name_H-M "P 31 2 1"
_symmetry_group_IT_number 152
_symmetry_cell_setting 'hexagonal'
loop_
_space_group_symop_operation_xyz
x,y,z
-y,x-y,1/3+z
-x+y,-x,2/3+z
x-y,-y,2/3-z
-x,-x+y,1/3-z
y,x,-z
loop_
_atom_site_type_symbol
_atom_site_label
_atom_site_fract_x
_atom_site_fract_y
_atom_site_fract_z
Si Si1 0.930841 0.000000 0.333334
Si Si2 0.031706 0.722895 0.340809
Si Si3 0.300992 0.435807 0.446988
Si Si4 0.638963 0.896608 0.261734
Si Si5 0.506965 0.040093 0.109419
Si Si6 0.817665 0.202902 0.195708
Si Si7 0.576596 0.576596 0.000000
O O1 0.880992 0.141222 0.356680
O O2 0.116674 0.133856 0.305383
O O3 0.238775 0.830672 0.337601
O O4 0.953302 0.658074 0.278443
O O5 0.979075 0.568763 0.384844
O O6 0.348947 0.348947 0.500000
O O7 0.450538 0.636126 0.442854
O O8 0.124992 0.443385 0.454834
O O9 0.527342 0.726609 0.227603
O O10 0.522599 0.974429 0.281913
O O11 0.805417 0.053183 0.234282
O O12 0.653537 0.094797 0.155775
O O13 0.000000 0.290921 0.166667
#
# Coordination Sequence:
#
# PCOD9576059 Si02
#       7
#     3   6   6   6   6   6   3
#     4  10  22  46  64 104 132 180 230 282 346 406
#     4  11  25  46  71  99 137 181 231 282 351 413
#     4  11  27  47  69 102 140 185 230 291 350 421
#     4  11  24  42  68 102 138 177 231 284 346 410
#     4  12  26  44  73 103 138 186 233 290 350 416
#     4  11  26  44  67 100 141 186 231 287 346 417
#     4  10  26  40  70 100 134 180 218 288 334 424
#
# _framework density 21.723153
#
# number of rings (size 3 to 8) (size 9 to 14) (size 15 to 20)
#    0.000    1.000    1.667    3.000   14.000    0.667 
#    3.000    0.000    0.000    0.000    0.000    0.000 
#    0.000    0.000    0.000    0.000    0.000    0.000 
#
# Total GULP energy -200704.617148 kJ/mol
# GULP energy per Si atom -5575.128254 kJ/mol
# Density = 2.167371 g / cm^3
# Si number density = 21.723153 Si / 1000 Ang^3
#
#
#
# Elastic Constant Matrix: (Units=GPa)
#
#
# Indices 1 2 3 4 5 6 
#
# 1 115.3614 39.0206 24.5499 10.1520 0.0000 0.0000
# 2 39.0206 115.3614 24.5499 -10.1520 0.0000 0.0000
# 3 24.5499 24.5499 51.5957 0.0000 0.0000 0.0000
# 4 10.1520 -10.1520 0.0000 14.9243 0.0000 0.0000
# 5 0.0000 0.0000 0.0000 0.0000 14.9243 10.1520
# 6 0.0000 0.0000 0.0000 0.0000 10.1520 38.1704
#
#
#
# Elastic Compliance Matrix: (Units=1/GPa)
#
#
# Indices 1 2 3 4 5 6 
#
# 1 0.011812 -0.004180 -0.003632 -0.010879 0.000000 0.000000
# 2 -0.004180 0.011812 -0.003632 0.010879 0.000000 0.000000
# 3 -0.003632 -0.003632 0.022837 0.000000 0.000000 0.000000
# 4 -0.010879 0.010879 0.000000 0.081805 0.000000 0.000000
# 5 0.000000 0.000000 0.000000 0.000000 0.081805 -0.021757
# 6 0.000000 0.000000 0.000000 0.000000 -0.021757 0.031985
#
#
# Mechanical properties :
#
#
# Convention : Reuss Voigt Hill
#
# Bulk Modulus (GPa) = 42.41631 50.95102 46.68366
# Shear Modulus (GPa) = 18.32831 26.55034 22.43932
#
# Velocity S-wave (km/s) = 2.90784 3.49981 3.21747
# Velocity P-wave (km/s) = 5.55358 6.31167 5.94472
#
# Compressibility (1/GPa) = 0.02357584
#
# Stress axis : x y z
#
# Youngs Moduli (GPa) = 84.65642 84.65642 43.78785
#
# Poissons Ratio (x) = 0.35387 0.15902
# Poissons Ratio (y) = 0.35387 0.15902
# Poissons Ratio (z) = 0.30744 0.30744
#
# Static dielectric constant tensor:
#      x y z
#    x 1.803670 0.000000 0.000000 
#    y 0.000000 1.803670 0.000000 
#    z 0.000000 0.000000 2.881430 
# 
# From -- ./inp_files/3444.got.cif
#   From: 2010.05.17/outbox.cif.g08.bks.cpg/sg152_2_cif.got.tgz:3444.got - 2010.05.20 10:36:06.
