data_PCOD9576904
_publ_section_title
;
Structure prediction by ZEFSAII (Michael W. Deem and Ramdas Pophale) SiO2 
 PCOD9576904
Probable space group: R 3 2
;
_chemical_formula_sum "Si O2"
_cell_formula_units_Z 63
_cell_length_a 14.524667
_cell_length_b 14.524667
_cell_length_c 12.720097
_cell_angle_alpha 90.000000
_cell_angle_beta 90.000000
_cell_angle_gamma 120.000000
_cell_volume 2323.985550
_symmetry_space_group_name_H-M "R 3 2"
_symmetry_group_IT_number 155
_symmetry_cell_setting 'hexagonal'
loop_
_space_group_symop_operation_xyz
x,y,z
-y,x-y,z
-x+y,-x,z
x-y,-y,-z
-x,-x+y,-z
y,x,-z
2/3+x,1/3+y,1/3+z
2/3-y,1/3+x-y,1/3+z
2/3-x+y,1/3-x,1/3+z
2/3+x-y,1/3-y,1/3-z
2/3-x,1/3-x+y,1/3-z
2/3+y,1/3+x,1/3-z
1/3+x,2/3+y,2/3+z
1/3-y,2/3+x-y,2/3+z
1/3-x+y,2/3-x,2/3+z
1/3+x-y,2/3-y,2/3-z
1/3-x,2/3-x+y,2/3-z
1/3+y,2/3+x,2/3-z
loop_
_atom_site_type_symbol
_atom_site_label
_atom_site_fract_x
_atom_site_fract_y
_atom_site_fract_z
Si Si1 0.543216 0.801193 0.327600
Si Si2 0.753699 0.587121 0.956661
Si Si3 0.799102 0.522218 0.434229
Si Si4 0.854827 0.666667 0.166667
O O1 0.666667 0.890558 0.333334
O O2 0.479920 0.852923 0.274799
O O3 0.544124 0.703358 0.269412
O O4 0.490870 0.762738 0.444472
O O5 0.763750 0.609460 0.082123
O O6 0.827508 0.707904 0.916262
O O7 0.777460 0.444127 0.333334
O O8 0.920928 0.551512 0.444139
#
# Coordination Sequence:
#
# PCOD9576904 Si02
#       4
#    18  18  18   9
#     4  11  23  38  60  91 125 161 209 265 322 389
#     4  10  20  36  58  84 120 160 202 257 321 381
#     4   9  18  37  60  81 111 159 206 250 307 372
#     4   8  16  34  58  78 106 154 208 248 296 368
#
# _framework density 27.108602999999999
#
# number of rings (size 3 to 8) (size 9 to 14) (size 15 to 20)
#    0.000    2.286    0.000    4.857    0.000    3.429 
#    0.000   11.429    0.000    3.429    0.000    0.000 
#    0.000    0.000    0.000    0.000    0.000    0.000 
#
# Total GULP energy -117187.202601 kJ/mol
# GULP energy per Si atom -5580.342981 kJ/mol
# Density = 2.704690 g / cm^3
# Si number density = 27.108603 Si / 1000 Ang^3
#
#
#
# Elastic Constant Matrix: (Units=GPa)
#
#
# Indices 1 2 3 4 5 6 
#
# 1 112.6649 18.0031 -12.1528 -4.4542 0.0001 0.0000
# 2 18.0031 112.6649 -12.1528 4.4542 -0.0001 0.0000
# 3 -12.1528 -12.1528 129.5782 0.0000 0.0000 0.0000
# 4 -4.4542 4.4542 0.0000 6.4630 0.0000 -0.0001
# 5 0.0001 -0.0001 0.0000 0.0000 6.4630 -4.4542
# 6 0.0000 0.0000 0.0000 -0.0001 -4.4542 47.3309
#
#
#
# Elastic Compliance Matrix: (Units=1/GPa)
#
#
# Indices 1 2 3 4 5 6 
#
# 1 0.009543 -0.001754 0.000730 0.007785 0.000000 0.000000
# 2 -0.001754 0.009543 0.000730 -0.007785 0.000000 0.000000
# 3 0.000730 0.000730 0.007854 0.000000 0.000000 0.000000
# 4 0.007785 -0.007785 0.000000 0.165458 0.000000 0.000001
# 5 0.000000 0.000000 0.000000 0.000000 0.165458 0.015571
# 6 0.000000 0.000000 0.000000 0.000001 0.015571 0.022593
#
#
# Mechanical properties :
#
#
# Convention : Reuss Voigt Hill
#
# Bulk Modulus (GPa) = 37.94481 38.03369 37.98925
# Shear Modulus (GPa) = 12.82645 36.13208 24.47927
#
# Velocity S-wave (km/s) = 2.17756 3.65480 3.00827
# Velocity P-wave (km/s) = 4.51111 5.64541 5.10983
#
# Compressibility (1/GPa) = 0.02635407
#
# Stress axis : x y z
#
# Youngs Moduli (GPa) = 104.79191 104.79191 127.31768
#
# Poissons Ratio (x) = 0.18379 -0.09300
# Poissons Ratio (y) = 0.18379 -0.09300
# Poissons Ratio (z) = -0.07655 -0.07655
#
# Static dielectric constant tensor:
#      x y z
#    x 2.057110 0.000000 0.000000 
#    y 0.000000 2.057110 0.000000 
#    z 0.000000 0.000000 1.957990 
# 
# From -- ./inp_files/5766.got.cif
#   From: 2010.05.17/outbox.cif.g08.bks.cpg/sg155_3_cif.got.tgz:5766.got - 2010.05.20 10:44:35.
