data_PCOD9576127
_publ_section_title
;
Structure prediction by ZEFSAII (Michael W. Deem and Ramdas Pophale) SiO2 
 PCOD9576127
Probable space group: P 31 2 1
;
_chemical_formula_sum "Si O2"
_cell_formula_units_Z 39
_cell_length_a 15.825279
_cell_length_b 15.825279
_cell_length_c 11.049092
_cell_angle_alpha 90.000000
_cell_angle_beta 90.000000
_cell_angle_gamma 120.000000
_cell_volume 2396.403649
_symmetry_space_group_name_H-M "P 31 2 1"
_symmetry_group_IT_number 152
_symmetry_cell_setting 'hexagonal'
loop_
_space_group_symop_operation_xyz
x,y,z
-y,x-y,1/3+z
-x+y,-x,2/3+z
x-y,-y,2/3-z
-x,-x+y,1/3-z
y,x,-z
loop_
_atom_site_type_symbol
_atom_site_label
_atom_site_fract_x
_atom_site_fract_y
_atom_site_fract_z
Si Si1 0.556294 0.669023 0.523885
Si Si2 0.377947 0.920371 0.230248
Si Si3 0.211501 0.607510 0.004071
Si Si4 0.667635 0.000000 0.833334
Si Si5 0.497364 0.900747 0.032916
Si Si6 0.746115 0.316154 0.591084
Si Si7 0.399051 0.204968 0.606972
O O1 0.629109 0.629109 0.500000
O O2 0.496396 0.655057 0.402898
O O3 0.469073 0.595195 0.613170
O O4 0.608488 0.772572 0.590887
O O5 0.473004 0.951464 0.144981
O O6 0.356642 0.825058 0.304257
O O7 0.281710 0.875789 0.143961
O O8 0.395077 0.000000 0.333334
O O9 0.323739 0.660888 0.039632
O O10 0.183000 0.686586 0.050587
O O11 0.206349 0.583583 0.863121
O O12 0.676714 0.909608 0.782541
O O13 0.628869 0.038773 0.720864
O O14 0.493421 0.801902 0.079730
#
# Coordination Sequence:
#
# PCOD9576127 Si02
#       7
#     6   6   6   3   6   6   6
#     4  11  21  33  51  77 103 140 186 229 265 306
#     4  11  24  34  48  77 112 141 183 229 272 307
#     4  12  19  32  52  74 108 153 189 210 255 309
#     4  12  22  38  56  72 102 148 188 224 264 320
#     4  11  20  34  51  74 106 144 191 223 249 313
#     4  12  20  34  49  73 111 152 187 220 252 312
#     4  11  22  36  55  75 106 143 185 226 262 319
#
# _framework density 16.274387000000001
#
# number of rings (size 3 to 8) (size 9 to 14) (size 15 to 20)
#    0.000    0.615   10.000    0.000    6.462    0.000 
#    0.000    0.000    0.000    0.000    0.000    0.000 
#    2.308    0.000    0.000    0.000    0.000    0.000 
#
# Total GULP energy -217212.514471 kJ/mol
# GULP energy per Si atom -5569.551653 kJ/mol
# Density = 1.623735 g / cm^3
# Si number density = 16.274387 Si / 1000 Ang^3
#
#
#
# Elastic Constant Matrix: (Units=GPa)
#
#
# Indices 1 2 3 4 5 6 
#
# 1 53.8334 21.9058 10.1010 -8.4246 -0.0003 0.0000
# 2 21.9058 53.8334 10.1010 8.4246 0.0003 0.0000
# 3 10.1010 10.1010 45.9314 0.0000 0.0000 0.0000
# 4 -8.4246 8.4246 0.0000 31.3453 0.0000 0.0003
# 5 -0.0003 0.0003 0.0000 0.0000 31.3453 -8.4246
# 6 0.0000 0.0000 0.0000 0.0003 -8.4246 15.9638
#
#
#
# Elastic Compliance Matrix: (Units=1/GPa)
#
#
# Indices 1 2 3 4 5 6 
#
# 1 0.025262 -0.011236 -0.003085 0.009809 0.000000 0.000000
# 2 -0.011236 0.025262 -0.003085 -0.009809 0.000000 0.000000
# 3 -0.003085 -0.003085 0.023128 0.000000 0.000000 0.000000
# 4 0.009809 -0.009809 0.000000 0.037176 0.000000 -0.000001
# 5 0.000000 0.000000 0.000000 0.000000 0.037176 0.019619
# 6 0.000000 0.000000 0.000000 -0.000001 0.019619 0.072995
#
#
# Mechanical properties :
#
#
# Convention : Reuss Voigt Hill
#
# Bulk Modulus (GPa) = 25.74526 26.42374 26.08450
# Shear Modulus (GPa) = 18.60434 23.16361 20.88397
#
# Velocity S-wave (km/s) = 3.38474 3.77678 3.58612
# Velocity P-wave (km/s) = 5.57935 5.94057 5.76279
#
# Compressibility (1/GPa) = 0.03884210
#
# Stress axis : x y z
#
# Youngs Moduli (GPa) = 39.58561 39.58561 43.23719
#
# Poissons Ratio (x) = 0.44477 0.13337
# Poissons Ratio (y) = 0.44477 0.13337
# Poissons Ratio (z) = 0.12210 0.12210
#
# Static dielectric constant tensor:
#      x y z
#    x 1.562560 0.000000 0.000000 
#    y 0.000000 1.562560 0.000000 
#    z 0.000000 0.000000 1.571370 
# 
# From -- ./inp_files/1757.got.cif
#   From: 2010.05.17/outbox.cif.g08.bks.cpg/sg152_1_cif.got.tgz:1757.got - 2010.05.20 10:36:06.
