data_PCOD9576420
_publ_section_title
;
Structure prediction by ZEFSAII (Michael W. Deem and Ramdas Pophale) SiO2 
 PCOD9576420
Probable space group: P 32 2 1
;
_chemical_formula_sum "Si O2"
_cell_formula_units_Z 33
_cell_length_a 20.457249
_cell_length_b 20.457249
_cell_length_c 5.092280
_cell_angle_alpha 90.000000
_cell_angle_beta 90.000000
_cell_angle_gamma 120.000000
_cell_volume 1845.599100
_symmetry_space_group_name_H-M "P 32 2 1"
_symmetry_group_IT_number 154
_symmetry_cell_setting 'hexagonal'
loop_
_space_group_symop_operation_xyz
x,y,z
-y,x-y,2/3+z
-x+y,-x,1/3+z
x-y,-y,1/3-z
-x,-x+y,2/3-z
y,x,-z
loop_
_atom_site_type_symbol
_atom_site_label
_atom_site_fract_x
_atom_site_fract_y
_atom_site_fract_z
Si Si1 0.301036 0.911889 0.105846
Si Si2 0.247803 0.716245 0.655057
Si Si3 0.155245 0.208147 0.245582
Si Si4 0.201712 0.836293 0.595013
Si Si5 0.347936 0.792895 0.155397
Si Si6 0.075322 0.000000 0.666667
O O1 0.233468 0.873646 0.314185
O O2 0.352117 0.873403 0.166298
O O3 0.347008 0.000000 0.166667
O O4 0.262856 0.887757 0.818137
O O5 0.198519 0.755709 0.594109
O O6 0.313043 0.747316 0.428397
O O7 0.205468 0.627203 0.706781
O O8 0.286015 0.748478 0.934007
O O9 0.182363 0.182363 0.500000
O O10 0.169057 0.291075 0.297547
O O11 0.064898 0.151037 0.198231
O O12 0.198883 0.198883 0.000000
O O13 0.000000 0.951465 0.833334
#
# Coordination Sequence:
#
# PCOD9576420 Si02
#       6
#     6   6   6   6   6   3
#     4  10  21  36  55  80 113 142 190 228 274 335
#     4  10  19  33  55  82 113 138 187 223 279 327
#     4  11  23  38  58  79 110 143 183 225 280 332
#     4  10  22  38  55  83 110 150 184 232 276 339
#     4  10  19  32  54  82 109 144 176 233 273 322
#     4  10  20  36  52  78 106 130 176 226 270 312
#
# _framework density 17.880372000000001
#
# number of rings (size 3 to 8) (size 9 to 14) (size 15 to 20)
#    0.000    1.818    0.909    3.818    2.545    0.000 
#    0.000    0.909    0.000    4.364    0.000    0.000 
#    0.000    0.000    0.000    0.000    0.000    0.000 
#
# Total GULP energy -183901.929234 kJ/mol
# GULP energy per Si atom -5572.785734 kJ/mol
# Density = 1.783968 g / cm^3
# Si number density = 17.880372 Si / 1000 Ang^3
#
#
#
# Elastic Constant Matrix: (Units=GPa)
#
#
# Indices 1 2 3 4 5 6 
#
# 1 97.1440 57.1594 -7.6179 6.5670 0.0000 0.0000
# 2 57.1594 97.1440 -7.6179 -6.5670 0.0000 0.0000
# 3 -7.6179 -7.6179 61.5757 0.0000 0.0000 0.0000
# 4 6.5670 -6.5670 0.0000 21.9996 0.0000 0.0000
# 5 0.0000 0.0000 0.0000 0.0000 21.9996 6.5670
# 6 0.0000 0.0000 0.0000 0.0000 6.5670 19.9923
#
#
#
# Elastic Compliance Matrix: (Units=1/GPa)
#
#
# Indices 1 2 3 4 5 6 
#
# 1 0.017145 -0.010584 0.000812 -0.008277 0.000000 0.000000
# 2 -0.010584 0.017145 0.000812 0.008277 0.000000 0.000000
# 3 0.000812 0.000812 0.016441 0.000000 0.000000 0.000000
# 4 -0.008277 0.008277 0.000000 0.050397 0.000000 0.000000
# 5 0.000000 0.000000 0.000000 0.000000 0.050397 -0.016554
# 6 0.000000 0.000000 0.000000 0.000000 -0.016554 0.055457
#
#
# Mechanical properties :
#
#
# Convention : Reuss Voigt Hill
#
# Bulk Modulus (GPa) = 30.47895 37.74565 34.11230
# Shear Modulus (GPa) = 21.20097 27.06097 24.13097
#
# Velocity S-wave (km/s) = 3.44715 3.89452 3.67765
# Velocity P-wave (km/s) = 5.73819 6.43265 6.09532
#
# Compressibility (1/GPa) = 0.03280953
#
# Stress axis : x y z
#
# Youngs Moduli (GPa) = 58.32718 58.32718 60.82355
#
# Poissons Ratio (x) = 0.61732 -0.04937
# Poissons Ratio (y) = 0.61732 -0.04937
# Poissons Ratio (z) = -0.04734 -0.04734
#
# Static dielectric constant tensor:
#      x y z
#    x 1.639360 0.000000 0.000000 
#    y 0.000000 1.639360 0.000000 
#    z 0.000000 0.000000 1.635260 
# 
# From -- ./inp_files/457.got.cif
#   From: 2010.05.17/outbox.cif.g08.bks.cpg/sg154_1_cif.got.tgz:457.got - 2010.05.20 10:41:43.
