data_PCOD9576091
_publ_section_title
;
Structure prediction by ZEFSAII (Michael W. Deem and Ramdas Pophale) SiO2 
 PCOD9576091
Probable space group: P 31 2 1
;
_chemical_formula_sum "Si O2"
_cell_formula_units_Z 33
_cell_length_a 15.888891
_cell_length_b 15.888891
_cell_length_c 7.538234
_cell_angle_alpha 90.000000
_cell_angle_beta 90.000000
_cell_angle_gamma 120.000000
_cell_volume 1648.114642
_symmetry_space_group_name_H-M "P 31 2 1"
_symmetry_group_IT_number 152
_symmetry_cell_setting 'hexagonal'
loop_
_space_group_symop_operation_xyz
x,y,z
-y,x-y,1/3+z
-x+y,-x,2/3+z
x-y,-y,2/3-z
-x,-x+y,1/3-z
y,x,-z
loop_
_atom_site_type_symbol
_atom_site_label
_atom_site_fract_x
_atom_site_fract_y
_atom_site_fract_z
Si Si1 0.595865 0.269936 0.098229
Si Si2 0.600246 0.527854 0.341892
Si Si3 0.000000 0.333759 0.666667
Si Si4 0.730205 0.201920 0.975527
Si Si5 0.811832 0.608120 0.914447
Si Si6 0.615267 0.004091 0.531949
O O1 0.637092 0.281979 0.300116
O O2 0.797041 0.427124 0.334308
O O3 0.482730 0.229407 0.119241
O O4 0.589046 0.589046 0.500000
O O5 0.692180 0.510445 0.373595
O O6 0.490615 0.436832 0.310320
O O7 0.627581 0.589322 0.160071
O O8 0.910707 0.235285 0.593208
O O9 0.697361 0.100056 0.071755
O O10 0.759993 0.195354 0.777192
O O11 0.922099 0.651935 0.861623
O O12 0.578553 0.000000 0.333334
#
# Coordination Sequence:
#
# PCOD9576091 Si02
#       6
#     6   6   3   6   6   6
#     4  12  23  37  57  86 125 171 219 262 313 382
#     4  11  24  42  64  94 133 176 216 271 321 394
#     4  10  24  42  62  90 124 170 220 260 338 386
#     4  11  25  40  63  93 126 176 222 268 324 388
#     4  11  24  42  62  91 129 172 221 274 326 391
#     4  12  25  42  64  96 134 170 220 271 326 390
#
# _framework density 20.022877000000001
#
# number of rings (size 3 to 8) (size 9 to 14) (size 15 to 20)
#    0.000    0.727    2.727    4.909   12.727    0.000 
#    0.000    0.000    0.000    0.000    0.000    5.091 
#    2.727    0.000    0.000    0.000    0.000    0.000 
#
# Total GULP energy -184286.877566 kJ/mol
# GULP energy per Si atom -5584.450835 kJ/mol
# Density = 1.997730 g / cm^3
# Si number density = 20.022877 Si / 1000 Ang^3
#
#
#
# Elastic Constant Matrix: (Units=GPa)
#
#
# Indices 1 2 3 4 5 6 
#
# 1 96.8628 58.6659 26.4512 3.8545 -0.0002 0.0000
# 2 58.6659 96.8628 26.4512 -3.8545 0.0002 0.0000
# 3 26.4512 26.4512 82.0473 0.0000 0.0000 0.0000
# 4 3.8545 -3.8545 0.0000 23.9008 0.0000 0.0002
# 5 -0.0002 0.0002 0.0000 0.0000 23.9008 3.8545
# 6 0.0000 0.0000 0.0000 0.0002 3.8545 19.0985
#
#
#
# Elastic Compliance Matrix: (Units=1/GPa)
#
#
# Indices 1 2 3 4 5 6 
#
# 1 0.017141 -0.009920 -0.002328 -0.004364 0.000000 0.000000
# 2 -0.009920 0.017141 -0.002328 0.004364 0.000000 0.000000
# 3 -0.002328 -0.002328 0.013689 0.000000 0.000000 0.000000
# 4 -0.004364 0.004364 0.000000 0.043247 0.000000 0.000000
# 5 0.000000 0.000000 0.000000 0.000000 0.043247 -0.008728
# 6 0.000000 0.000000 0.000000 0.000000 -0.008728 0.054122
#
#
# Mechanical properties :
#
#
# Convention : Reuss Voigt Hill
#
# Bulk Modulus (GPa) = 53.13565 55.43442 54.28503
# Shear Modulus (GPa) = 22.32008 24.32697 23.32353
#
# Velocity S-wave (km/s) = 3.34238 3.48941 3.41668
# Velocity P-wave (km/s) = 6.44130 6.63176 6.53723
#
# Compressibility (1/GPa) = 0.01881976
#
# Stress axis : x y z
#
# Youngs Moduli (GPa) = 58.33874 58.33874 73.05003
#
# Poissons Ratio (x) = 0.57870 0.17007
# Poissons Ratio (y) = 0.57870 0.17007
# Poissons Ratio (z) = 0.13582 0.13582
#
# Static dielectric constant tensor:
#      x y z
#    x 1.744880 0.000000 0.000000 
#    y 0.000000 1.744880 0.000000 
#    z 0.000000 0.000000 1.785270 
# 
# From -- ./inp_files/1139.got.cif
#   From: 2010.05.17/outbox.cif.g08.bks.cpg/sg152_1_cif.got.tgz:1139.got - 2010.05.20 10:36:06.
