data_PCOD9576362
_publ_section_title
;
Structure prediction by ZEFSAII (Michael W. Deem and Ramdas Pophale) SiO2 
 PCOD9576362
Probable space group: P 32 1 2
;
_chemical_formula_sum "Si O2"
_cell_formula_units_Z 36
_cell_length_a 11.604506
_cell_length_b 11.604506
_cell_length_c 14.845132
_cell_angle_alpha 90.000000
_cell_angle_beta 90.000000
_cell_angle_gamma 120.000000
_cell_volume 1731.282783
_symmetry_space_group_name_H-M "P 32 1 2"
_symmetry_group_IT_number 153
_symmetry_cell_setting 'hexagonal'
loop_
_space_group_symop_operation_xyz
x,y,z
-y,x-y,2/3+z
-x+y,-x,1/3+z
-y,-x,1/3-z
-x+y,y,2/3-z
x,x-y,-z
loop_
_atom_site_type_symbol
_atom_site_label
_atom_site_fract_x
_atom_site_fract_y
_atom_site_fract_z
Si Si1 0.764046 0.528091 0.333334
Si Si2 0.845632 0.922816 0.000000
Si Si3 0.042771 0.612632 0.366530
Si Si4 0.299403 0.916845 0.767567
Si Si5 0.662567 0.337434 0.166667
Si Si6 0.227667 0.113834 0.500000
Si Si7 0.461494 0.409320 0.570549
Si Si8 0.418716 0.610190 0.888998
O O1 0.688301 0.608748 0.351512
O O2 0.688494 0.441058 0.245932
O O3 0.755790 0.971567 0.947482
O O4 0.899225 0.871233 0.916236
O O5 0.019715 0.466601 0.393226
O O6 0.063648 0.689287 0.458977
O O7 0.170870 0.659665 0.304218
O O8 0.222866 0.757893 0.754973
O O9 0.616080 0.197184 0.213245
O O10 0.327814 0.263328 0.544519
O O11 0.510286 0.489715 0.666667
O O12 0.453718 0.511050 0.501385
O O13 0.316030 0.632059 0.833334
#
# Coordination Sequence:
#
# PCOD9576362 Si02
#       8
#     3   3   6   6   3   3   6   6
#     4  12  24  42  65  95 146 182 234 280 360 432
#     4  12  24  48  77 101 138 196 248 298 352 444
#     4  11  23  40  62 104 134 184 228 292 355 424
#     4  11  22  39  70  95 134 179 237 283 349 430
#     4  11  22  40  62  96 142 183 222 282 344 433
#     4  11  26  46  78 108 140 195 254 292 362 443
#     4  11  24  41  68 105 142 183 232 300 366 423
#     4  12  23  39  66 102 139 178 235 298 355 428
#
# _framework density 20.793828999999999
#
# number of rings (size 3 to 8) (size 9 to 14) (size 15 to 20)
#    0.000    0.667    7.500    1.000    4.667    1.333 
#    0.000    0.833    1.833    0.000    0.000    0.000 
#    0.000    0.000    0.000    0.000    0.000    0.000 
#
# Total GULP energy -200540.744217 kJ/mol
# GULP energy per Si atom -5570.576228 kJ/mol
# Density = 2.074650 g / cm^3
# Si number density = 20.793829 Si / 1000 Ang^3
#
#
#
# Elastic Constant Matrix: (Units=GPa)
#
#
# Indices 1 2 3 4 5 6 
#
# 1 42.3845 12.3990 30.1469 -0.0027 -5.1019 0.0000
# 2 12.3990 42.3845 30.1469 0.0027 5.1019 0.0000
# 3 30.1469 30.1469 122.9893 0.0000 0.0000 0.0000
# 4 -0.0027 0.0027 0.0000 28.4414 0.0000 5.1019
# 5 -5.1019 5.1019 0.0000 0.0000 28.4414 -0.0027
# 6 0.0000 0.0000 0.0000 5.1019 -0.0027 14.9928
#
#
#
# Elastic Compliance Matrix: (Units=1/GPa)
#
#
# Indices 1 2 3 4 5 6 
#
# 1 0.030257 -0.005260 -0.006127 0.000003 0.006371 0.000000
# 2 -0.005260 0.030257 -0.006127 -0.000003 -0.006371 0.000000
# 3 -0.006127 -0.006127 0.011135 0.000000 0.000000 0.000000
# 4 0.000003 -0.000003 0.000000 0.037446 0.000000 -0.012742
# 5 0.006371 -0.006371 0.000000 0.000000 0.037446 0.000007
# 6 0.000000 0.000000 0.000000 -0.012742 0.000007 0.071035
#
#
# Mechanical properties :
#
#
# Convention : Reuss Voigt Hill
#
# Bulk Modulus (GPa) = 27.30750 39.23822 33.27286
# Shear Modulus (GPa) = 18.88131 23.37947 21.13039
#
# Velocity S-wave (km/s) = 3.01661 3.35677 3.19123
# Velocity P-wave (km/s) = 5.02934 5.82537 5.44193
#
# Compressibility (1/GPa) = 0.03661998
#
# Stress axis : x y z
#
# Youngs Moduli (GPa) = 33.04979 33.04979 89.81013
#
# Poissons Ratio (x) = 0.17385 0.55029
# Poissons Ratio (y) = 0.17385 0.55029
# Poissons Ratio (z) = 0.20251 0.20251
#
# Static dielectric constant tensor:
#      x y z
#    x 1.775650 0.000000 0.000000 
#    y 0.000000 1.775650 0.000000 
#    z 0.000000 0.000000 1.820280 
# 
# From -- ./inp_files/3018.got.cif
#   From: 2010.05.17/outbox.cif.g08.bks.cpg/sg153_2_cif.got.tgz:3018.got - 2010.05.20 10:38:56.
