data_PCOD9576222
_publ_section_title
;
Structure prediction by ZEFSAII (Michael W. Deem and Ramdas Pophale) SiO2 
 PCOD9576222
Probable space group: P 32 1 2
;
_chemical_formula_sum "Si O2"
_cell_formula_units_Z 36
_cell_length_a 12.179124
_cell_length_b 12.179124
_cell_length_c 14.305396
_cell_angle_alpha 90.000000
_cell_angle_beta 90.000000
_cell_angle_gamma 120.000000
_cell_volume 1837.649245
_symmetry_space_group_name_H-M "P 32 1 2"
_symmetry_group_IT_number 153
_symmetry_cell_setting 'hexagonal'
loop_
_space_group_symop_operation_xyz
x,y,z
-y,x-y,2/3+z
-x+y,-x,1/3+z
-y,-x,1/3-z
-x+y,y,2/3-z
x,x-y,-z
loop_
_atom_site_type_symbol
_atom_site_label
_atom_site_fract_x
_atom_site_fract_y
_atom_site_fract_z
Si Si1 0.362946 0.181473 0.500000
Si Si2 0.583238 0.416763 0.166667
Si Si3 0.995688 0.225798 0.996269
Si Si4 0.636598 0.363403 0.666667
Si Si5 0.354838 0.175494 0.844336
Si Si6 0.912446 0.467212 0.832793
Si Si7 0.928871 0.071130 0.666667
Si Si8 0.491415 0.833391 0.416968
O O1 0.276558 0.210046 0.569481
O O2 0.442204 0.317738 0.443427
O O3 0.607841 0.358193 0.262043
O O4 0.668276 0.566489 0.178604
O O5 0.058629 0.138124 0.990517
O O6 0.098674 0.369029 0.964538
O O7 0.882067 0.184857 0.922427
O O8 0.543575 0.372484 0.590772
O O9 0.459386 0.323908 0.869414
O O10 0.237385 0.113251 0.912681
O O11 0.054405 0.521113 0.865984
O O12 0.389236 0.778471 0.333334
O O13 0.482489 0.741245 0.500000
#
# Coordination Sequence:
#
# PCOD9576222 Si02
#       8
#     3   3   6   3   6   6   3   6
#     4  12  21  36  70 100 130 160 209 286 352 392
#     4  10  19  32  58  98 128 154 191 268 350 392
#     4  11  25  41  65  97 130 177 225 275 323 405
#     4  10  17  28  54  92 133 148 186 248 328 406
#     4  10  22  37  62  94 129 167 211 279 336 403
#     4  10  18  36  61  98 126 159 214 272 341 393
#     4  12  25  44  64  86 129 190 234 252 324 402
#     4  11  21  41  69  98 129 174 235 275 333 414
#
# _framework density 19.590246
#
# number of rings (size 3 to 8) (size 9 to 14) (size 15 to 20)
#    0.000    1.333    2.500    7.000    2.333    1.333 
#    0.000    0.000    7.333    0.000    0.000    0.000 
#    0.000    0.000    0.000    0.000    0.000    0.000 
#
# Total GULP energy -200527.636488 kJ/mol
# GULP energy per Si atom -5570.212125 kJ/mol
# Density = 1.954566 g / cm^3
# Si number density = 19.590246 Si / 1000 Ang^3
#
#
#
# Elastic Constant Matrix: (Units=GPa)
#
#
# Indices 1 2 3 4 5 6 
#
# 1 110.1254 72.6786 37.9869 0.0003 -9.2594 0.0000
# 2 72.6786 110.1254 37.9869 -0.0003 9.2594 0.0000
# 3 37.9869 37.9869 81.2869 0.0000 0.0000 0.0000
# 4 0.0003 -0.0003 0.0000 22.4129 0.0000 9.2594
# 5 -9.2594 9.2594 0.0000 0.0000 22.4129 0.0003
# 6 0.0000 0.0000 0.0000 9.2594 0.0003 18.7234
#
#
#
# Elastic Compliance Matrix: (Units=1/GPa)
#
#
# Indices 1 2 3 4 5 6 
#
# 1 0.020175 -0.013386 -0.003173 0.000000 0.013865 0.000000
# 2 -0.013386 0.020175 -0.003173 0.000000 -0.013865 0.000000
# 3 -0.003173 -0.003173 0.015267 0.000000 0.000000 0.000000
# 4 0.000000 0.000000 0.000000 0.056073 0.000000 -0.027730
# 5 0.013865 -0.013865 0.000000 0.000000 0.056073 -0.000001
# 6 0.000000 0.000000 0.000000 -0.027730 -0.000001 0.067123
#
#
# Mechanical properties :
#
#
# Convention : Reuss Voigt Hill
#
# Bulk Modulus (GPa) = 61.90121 66.53808 64.21965
# Shear Modulus (GPa) = 17.87405 22.90217 20.38811
#
# Velocity S-wave (km/s) = 3.02387 3.42286 3.22953
# Velocity P-wave (km/s) = 6.62256 7.04698 6.83806
#
# Compressibility (1/GPa) = 0.01615477
#
# Stress axis : x y z
#
# Youngs Moduli (GPa) = 49.56596 49.56596 65.49940
#
# Poissons Ratio (x) = 0.66350 0.20780
# Poissons Ratio (y) = 0.66350 0.20780
# Poissons Ratio (z) = 0.15725 0.15725
#
# Static dielectric constant tensor:
#      x y z
#    x 1.800730 0.000000 0.000000 
#    y 0.000000 1.800730 0.000000 
#    z 0.000000 0.000000 1.762140 
# 
# From -- ./inp_files/3007.got.cif
#   From: 2010.05.17/outbox.cif.g08.bks.cpg/sg153_2_cif.got.tgz:3007.got - 2010.05.20 10:38:56.
