data_PCOD9576629
_publ_section_title
;
Structure prediction by ZEFSAII (Michael W. Deem and Ramdas Pophale) SiO2 
 PCOD9576629
Probable space group: P 32 2 1
;
_chemical_formula_sum "Si O2"
_cell_formula_units_Z 21
_cell_length_a 8.686550
_cell_length_b 8.686550
_cell_length_c 13.732546
_cell_angle_alpha 90.000000
_cell_angle_beta 90.000000
_cell_angle_gamma 120.000000
_cell_volume 897.379908
_symmetry_space_group_name_H-M "P 32 2 1"
_symmetry_group_IT_number 154
_symmetry_cell_setting 'hexagonal'
loop_
_space_group_symop_operation_xyz
x,y,z
-y,x-y,2/3+z
-x+y,-x,1/3+z
x-y,-y,1/3-z
-x,-x+y,2/3-z
y,x,-z
loop_
_atom_site_type_symbol
_atom_site_label
_atom_site_fract_x
_atom_site_fract_y
_atom_site_fract_z
Si Si1 0.618118 0.267078 0.156123
Si Si2 0.376981 0.146037 0.339797
Si Si3 0.000400 0.403104 0.192996
Si Si4 0.880272 0.880272 0.000000
O O1 0.468658 0.163395 0.236498
O O2 0.678140 0.174203 0.074235
O O3 0.807541 0.378537 0.212375
O O4 0.577817 0.412340 0.109433
O O5 0.379891 0.998880 0.409723
O O6 0.179288 0.111392 0.330948
O O7 0.003460 0.237810 0.242032
#
# Coordination Sequence:
#
# PCOD9576629 Si02
#       4
#     6   6   6   3
#     4  10  22  44  72 112 144 203 249 313 387 458
#     4  10  25  41  76 106 151 196 253 317 383 466
#     4  10  23  40  74  99 148 198 244 315 374 457
#     4  12  22  46  70 102 152 204 252 316 386 450
#
# _framework density 23.40146
#
# number of rings (size 3 to 8) (size 9 to 14) (size 15 to 20)
#    1.714    0.000    0.000    4.286    4.000    0.000 
#    0.000   10.000    0.000    0.000    0.000    0.000 
#    0.000    0.000    0.000    0.000    0.000    0.000 
#
# Total GULP energy -117205.582766 kJ/mol
# GULP energy per Si atom -5581.218227 kJ/mol
# Density = 2.334820 g / cm^3
# Si number density = 23.401460 Si / 1000 Ang^3
#
#
#
# Elastic Constant Matrix: (Units=GPa)
#
#
# Indices 1 2 3 4 5 6 
#
# 1 127.6218 33.0947 49.7787 3.2605 0.0000 0.0000
# 2 33.0947 127.6218 49.7787 -3.2605 0.0000 0.0000
# 3 49.7787 49.7787 106.1742 0.0000 0.0000 0.0000
# 4 3.2605 -3.2605 0.0000 36.3847 0.0000 0.0000
# 5 0.0000 0.0000 0.0000 0.0000 36.3847 3.2605
# 6 0.0000 0.0000 0.0000 0.0000 3.2605 47.2636
#
#
#
# Elastic Compliance Matrix: (Units=1/GPa)
#
#
# Indices 1 2 3 4 5 6 
#
# 1 0.009707 -0.000938 -0.004111 -0.000954 0.000000 0.000000
# 2 -0.000938 0.009707 -0.004111 0.000954 0.000000 0.000000
# 3 -0.004111 -0.004111 0.013273 0.000000 0.000000 0.000000
# 4 -0.000954 0.000954 0.000000 0.027655 0.000000 0.000000
# 5 0.000000 0.000000 0.000000 0.000000 0.027655 -0.001908
# 6 0.000000 0.000000 0.000000 0.000000 -0.001908 0.021290
#
#
# Mechanical properties :
#
#
# Convention : Reuss Voigt Hill
#
# Bulk Modulus (GPa) = 69.60679 69.63578 69.62128
# Shear Modulus (GPa) = 37.76543 39.25764 38.51153
#
# Velocity S-wave (km/s) = 4.02158 4.10026 4.06111
# Velocity P-wave (km/s) = 7.16752 7.22757 7.19761
#
# Compressibility (1/GPa) = 0.01436641
#
# Stress axis : x y z
#
# Youngs Moduli (GPa) = 103.02037 103.02037 75.33830
#
# Poissons Ratio (x) = 0.09663 0.30973
# Poissons Ratio (y) = 0.09663 0.30973
# Poissons Ratio (z) = 0.42354 0.42354
#
# Static dielectric constant tensor:
#      x y z
#    x 1.879170 0.000000 0.000000 
#    y 0.000000 1.879170 0.000000 
#    z 0.000000 0.000000 1.982220 
# 
# From -- ./inp_files/2269.got.cif
#   From: 2010.05.17/outbox.cif.g08.bks.cpg/sg154_2_cif.got.tgz:2269.got - 2010.05.20 10:41:43.
