data_PCOD9576546
_publ_section_title
;
Structure prediction by ZEFSAII (Michael W. Deem and Ramdas Pophale) SiO2 
 PCOD9576546
Probable space group: P 32 2 1
;
_chemical_formula_sum "Si O2"
_cell_formula_units_Z 39
_cell_length_a 8.334367
_cell_length_b 8.334367
_cell_length_c 30.606054
_cell_angle_alpha 90.000000
_cell_angle_beta 90.000000
_cell_angle_gamma 120.000000
_cell_volume 1841.124736
_symmetry_space_group_name_H-M "P 32 2 1"
_symmetry_group_IT_number 154
_symmetry_cell_setting 'hexagonal'
loop_
_space_group_symop_operation_xyz
x,y,z
-y,x-y,2/3+z
-x+y,-x,1/3+z
x-y,-y,1/3-z
-x,-x+y,2/3-z
y,x,-z
loop_
_atom_site_type_symbol
_atom_site_label
_atom_site_fract_x
_atom_site_fract_y
_atom_site_fract_z
Si Si1 0.443162 0.085159 0.054135
Si Si2 0.778534 0.173227 0.839088
Si Si3 0.039174 0.483200 0.092779
Si Si4 0.395245 0.600302 0.326128
Si Si5 0.403012 0.000000 0.666667
Si Si6 0.537595 0.835431 0.194153
Si Si7 0.979711 0.635050 0.251909
O O1 0.595032 0.228078 0.019623
O O2 0.565187 0.097858 0.096663
O O3 0.304086 0.162323 0.064158
O O4 0.352380 0.885518 0.032858
O O5 0.676167 0.085433 0.884352
O O6 0.761904 0.357603 0.836115
O O7 0.657493 0.046322 0.798469
O O8 0.000000 0.244957 0.833334
O O9 0.202241 0.439719 0.082204
O O10 0.919782 0.445357 0.049594
O O11 0.902659 0.321371 0.125909
O O12 0.198177 0.419396 0.336074
O O13 0.505476 0.005477 0.712605
O O14 0.698502 0.000000 0.166667
#
# Coordination Sequence:
#
# PCOD9576546 Si02
#       7
#     6   6   6   6   3   6   6
#     4   9  20  38  58  85 113 150 196 239 300 362
#     4  10  22  39  60  87 119 161 206 251 308 376
#     4  11  21  37  60  89 120 157 200 254 312 362
#     4  10  21  38  60  84 116 152 195 248 297 365
#     4  10  22  40  60  86 114 160 208 240 304 374
#     4   9  20  37  56  82 116 152 195 243 297 362
#     4  10  21  37  61  87 118 158 201 248 304 375
#
# _framework density 21.182706
#
# number of rings (size 3 to 8) (size 9 to 14) (size 15 to 20)
#    0.000    2.154    0.000    3.692    0.000    9.231 
#    0.000    6.154    0.000    0.000    0.000    0.000 
#    0.000    0.000    0.000    0.000    0.000    0.000 
#
# Total GULP energy -217257.876451 kJ/mol
# GULP energy per Si atom -5570.714781 kJ/mol
# Density = 2.113449 g / cm^3
# Si number density = 21.182706 Si / 1000 Ang^3
#
#
#
# Elastic Constant Matrix: (Units=GPa)
#
#
# Indices 1 2 3 4 5 6 
#
# 1 61.7855 18.8594 19.9665 -4.5559 0.0001 0.0000
# 2 18.8594 61.7855 19.9665 4.5559 -0.0001 0.0000
# 3 19.9665 19.9665 67.5230 0.0000 0.0000 0.0000
# 4 -4.5559 4.5559 0.0000 35.9971 0.0000 -0.0001
# 5 0.0001 -0.0001 0.0000 0.0000 35.9971 -4.5559
# 6 0.0000 0.0000 0.0000 -0.0001 -4.5559 21.4630
#
#
#
# Elastic Compliance Matrix: (Units=1/GPa)
#
#
# Indices 1 2 3 4 5 6 
#
# 1 0.019233 -0.004706 -0.004296 0.003030 0.000000 0.000000
# 2 -0.004706 0.019233 -0.004296 -0.003030 0.000000 0.000000
# 3 -0.004296 -0.004296 0.017350 0.000000 0.000000 0.000000
# 4 0.003030 -0.003030 0.000000 0.028547 0.000000 0.000000
# 5 0.000000 0.000000 0.000000 0.000000 0.028547 0.006060
# 6 0.000000 0.000000 0.000000 0.000000 0.006060 0.047878
#
#
# Mechanical properties :
#
#
# Convention : Reuss Voigt Hill
#
# Bulk Modulus (GPa) = 34.22102 34.29767 34.25934
# Shear Modulus (GPa) = 25.36484 27.51156 26.43820
#
# Velocity S-wave (km/s) = 3.46415 3.60776 3.53668
# Velocity P-wave (km/s) = 5.67368 5.79492 5.73462
#
# Compressibility (1/GPa) = 0.02922181
#
# Stress axis : x y z
#
# Youngs Moduli (GPa) = 51.99379 51.99379 57.63617
#
# Poissons Ratio (x) = 0.24468 0.24759
# Poissons Ratio (y) = 0.24468 0.24759
# Poissons Ratio (z) = 0.22335 0.22335
#
# Static dielectric constant tensor:
#      x y z
#    x 1.804410 0.000000 0.000000 
#    y 0.000000 1.804410 0.000000 
#    z 0.000000 0.000000 1.820200 
# 
# From -- ./inp_files/3713.got.cif
#   From: 2010.05.17/outbox.cif.g08.bks.cpg/sg154_2_cif.got.tgz:3713.got - 2010.05.20 10:41:43.
