data_PCOD9576976
_publ_section_title
;
Structure prediction by ZEFSAII (Michael W. Deem and Ramdas Pophale) SiO2 
 PCOD9576976
Probable space group: R 3 2
;
_chemical_formula_sum "Si O2"
_cell_formula_units_Z 75
_cell_length_a 13.568201
_cell_length_b 13.568201
_cell_length_c 20.560655
_cell_angle_alpha 90.000000
_cell_angle_beta 90.000000
_cell_angle_gamma 120.000000
_cell_volume 3278.023893
_symmetry_space_group_name_H-M "R 3 2"
_symmetry_group_IT_number 155
_symmetry_cell_setting 'hexagonal'
loop_
_space_group_symop_operation_xyz
x,y,z
-y,x-y,z
-x+y,-x,z
x-y,-y,-z
-x,-x+y,-z
y,x,-z
2/3+x,1/3+y,1/3+z
2/3-y,1/3+x-y,1/3+z
2/3-x+y,1/3-x,1/3+z
2/3+x-y,1/3-y,1/3-z
2/3-x,1/3-x+y,1/3-z
2/3+y,1/3+x,1/3-z
1/3+x,2/3+y,2/3+z
1/3-y,2/3+x-y,2/3+z
1/3-x+y,2/3-x,2/3+z
1/3+x-y,2/3-y,2/3-z
1/3-x,2/3-x+y,2/3-z
1/3+y,2/3+x,2/3-z
loop_
_atom_site_type_symbol
_atom_site_label
_atom_site_fract_x
_atom_site_fract_y
_atom_site_fract_z
Si Si1 0.253582 0.801397 0.545446
Si Si2 0.000000 0.000000 0.207985
Si Si3 0.000000 0.640417 0.000000
Si Si4 0.832324 0.607376 0.238070
Si Si5 0.798067 0.944727 0.565842
Si Si6 0.000000 0.000000 0.359930
O O1 0.300809 0.760203 0.484552
O O2 0.367275 0.901186 0.577468
O O3 0.177715 0.678431 0.578990
O O4 0.162054 0.841895 0.542465
O O5 0.000000 0.000000 0.284000
O O6 0.072950 0.634095 0.059835
O O7 0.901627 0.652160 0.038299
O O8 0.878248 0.666667 0.166667
O O9 0.862315 0.000000 0.500000
O O10 0.875607 0.917119 0.611528
#
# Coordination Sequence:
#
# PCOD9576976 Si02
#       6
#    18   6   9  18  18   6
#     4   9  20  41  66  93 133 166 214 281 335 378
#     4   9  21  40  76 103 121 174 235 269 322 417
#     4  10  22  40  68  96 130 172 220 274 336 408
#     4  10  21  37  63  98 128 162 221 274 324 398
#     4  11  25  43  65  93 140 179 215 274 342 393
#     4  12  28  43  69  99 139 178 235 269 334 409
#
# _framework density 22.879638
#
# number of rings (size 3 to 8) (size 9 to 14) (size 15 to 20)
#    0.000    1.920    0.000    4.080   10.080    5.760 
#    0.000    2.400    5.280    0.000    0.000    0.000 
#    0.000    0.000    0.000    0.000    0.000    0.000 
#
# Total GULP energy -139306.199494 kJ/mol
# GULP energy per Si atom -5572.247980 kJ/mol
# Density = 2.282756 g / cm^3
# Si number density = 22.879638 Si / 1000 Ang^3
#
#
#
# Elastic Constant Matrix: (Units=GPa)
#
#
# Indices 1 2 3 4 5 6 
#
# 1 59.9159 42.5007 26.4972 -2.2979 0.0002 0.0000
# 2 42.5007 59.9159 26.4972 2.2979 -0.0002 0.0000
# 3 26.4972 26.4972 120.7546 0.0000 0.0000 0.0000
# 4 -2.2979 2.2979 0.0000 12.7846 0.0000 -0.0002
# 5 0.0002 -0.0002 0.0000 0.0000 12.7846 -2.2979
# 6 0.0000 0.0000 0.0000 -0.0002 -2.2979 8.7076
#
#
#
# Elastic Compliance Matrix: (Units=1/GPa)
#
#
# Indices 1 2 3 4 5 6 
#
# 1 0.035648 -0.024633 -0.002417 0.010835 -0.000001 0.000000
# 2 -0.024633 0.035648 -0.002417 -0.010835 0.000001 0.000000
# 3 -0.002417 -0.002417 0.009342 0.000000 0.000000 0.000000
# 4 0.010835 -0.010835 0.000000 0.082114 0.000000 0.000002
# 5 -0.000001 0.000001 0.000000 0.000000 0.082114 0.021670
# 6 0.000000 0.000000 0.000000 0.000002 0.021670 0.120561
#
#
# Mechanical properties :
#
#
# Convention : Reuss Voigt Hill
#
# Bulk Modulus (GPa) = 46.07552 47.95295 47.01423
# Shear Modulus (GPa) = 11.58495 16.52810 14.05653
#
# Velocity S-wave (km/s) = 2.25265 2.69065 2.48133
# Velocity P-wave (km/s) = 5.19113 5.53689 5.36679
#
# Compressibility (1/GPa) = 0.02170350
#
# Stress axis : x y z
#
# Youngs Moduli (GPa) = 28.05243 28.05243 107.04388
#
# Poissons Ratio (x) = 0.69101 0.25872
# Poissons Ratio (y) = 0.69101 0.25872
# Poissons Ratio (z) = 0.06780 0.06780
#
# Static dielectric constant tensor:
#      x y z
#    x 1.947080 0.000000 0.000000 
#    y 0.000000 1.947080 0.000000 
#    z 0.000000 0.000000 1.884110 
# 
# From -- ./inp_files/6825.got.cif
#   From: 2010.05.17/outbox.cif.g08.bks.cpg/sg155_4_cif.got.tgz:6825.got - 2010.05.20 10:44:35.
