data_PCOD9576776
_publ_section_title
;
Structure prediction by ZEFSAII (Michael W. Deem and Ramdas Pophale) SiO2 
 PCOD9576776
Probable space group: R 3 2
;
_chemical_formula_sum "Si O2"
_cell_formula_units_Z 135
_cell_length_a 26.768161
_cell_length_b 26.768161
_cell_length_c 12.316532
_cell_angle_alpha 90.000000
_cell_angle_beta 90.000000
_cell_angle_gamma 120.000000
_cell_volume 7642.864195
_symmetry_space_group_name_H-M "R 3 2"
_symmetry_group_IT_number 155
_symmetry_cell_setting 'hexagonal'
loop_
_space_group_symop_operation_xyz
x,y,z
-y,x-y,z
-x+y,-x,z
x-y,-y,-z
-x,-x+y,-z
y,x,-z
2/3+x,1/3+y,1/3+z
2/3-y,1/3+x-y,1/3+z
2/3-x+y,1/3-x,1/3+z
2/3+x-y,1/3-y,1/3-z
2/3-x,1/3-x+y,1/3-z
2/3+y,1/3+x,1/3-z
1/3+x,2/3+y,2/3+z
1/3-y,2/3+x-y,2/3+z
1/3-x+y,2/3-x,2/3+z
1/3+x-y,2/3-y,2/3-z
1/3-x,2/3-x+y,2/3-z
1/3+y,2/3+x,2/3-z
loop_
_atom_site_type_symbol
_atom_site_label
_atom_site_fract_x
_atom_site_fract_y
_atom_site_fract_z
Si Si1 0.000000 0.577086 0.000000
Si Si2 0.055169 0.446456 0.343704
Si Si3 0.069992 0.541919 0.506594
Si Si4 0.256339 0.066514 0.971255
Si Si5 0.243973 0.279899 0.753465
Si Si6 0.856882 0.591076 0.861906
Si Si7 0.404962 0.938189 0.946571
Si Si8 0.856950 0.794093 0.513650
O O1 0.950780 0.587337 0.053972
O O2 0.030807 0.564668 0.099038
O O3 0.080763 0.503228 0.419921
O O4 0.079314 0.406107 0.383597
O O5 0.078949 0.469736 0.223533
O O6 0.986513 0.413846 0.343855
O O7 0.089167 0.531208 0.622316
O O8 0.092458 0.608348 0.479076
O O9 0.000000 0.512572 0.500000
O O10 0.262477 0.081992 0.844514
O O11 0.212127 0.000000 0.000000
O O12 0.281735 0.333334 0.833334
O O13 0.220385 0.291606 0.639547
O O14 0.890683 0.557349 0.833334
O O15 0.788744 0.545883 0.865386
O O16 0.404276 0.890659 0.027405
O O17 0.446022 0.000000 0.000000
O O18 0.850878 0.850878 0.500000
#
# Coordination Sequence:
#
# PCOD9576776 Si02
#       8
#     9  18  18  18  18  18  18  18
#     4  10  22  34  56  84 108 138 182 234 280 334
#     4  10  18  30  42  65  89 137 175 219 260 306
#     4   9  18  29  45  62  90 129 177 217 262 313
#     4  11  20  29  42  63  95 135 186 226 262 307
#     4  10  18  33  53  75 104 139 181 224 275 328
#     4  10  21  37  56  78 107 139 179 225 278 331
#     4  11  21  29  43  65  98 134 176 222 264 309
#     4  10  21  35  52  73 103 135 177 215 273 325
#
# _framework density 17.663535
#
# number of rings (size 3 to 8) (size 9 to 14) (size 15 to 20)
#    0.000    1.867    4.000    1.600    0.933    1.067 
#    0.000    0.000    0.000    0.267    0.000    0.000 
#    0.000    0.000    0.000    0.000    0.000    0.800 
#
# Total GULP energy -250738.157591 kJ/mol
# GULP energy per Si atom -5571.959058 kJ/mol
# Density = 1.762333 g / cm^3
# Si number density = 17.663535 Si / 1000 Ang^3
#
#
#
# Elastic Constant Matrix: (Units=GPa)
#
#
# Indices 1 2 3 4 5 6 
#
# 1 47.0000 17.6518 22.2612 0.3704 -0.0002 0.0000
# 2 17.6518 47.0001 22.2616 -0.3705 -0.0001 0.0000
# 3 22.2612 22.2616 120.1894 -0.0004 -0.0011 -0.0001
# 4 0.3704 -0.3705 -0.0004 21.0407 -0.0001 -0.0001
# 5 -0.0002 -0.0001 -0.0011 -0.0001 21.0404 0.3705
# 6 0.0000 0.0000 -0.0001 -0.0001 0.3705 14.6742
#
#
#
# Elastic Compliance Matrix: (Units=1/GPa)
#
#
# Indices 1 2 3 4 5 6 
#
# 1 0.025909 -0.008180 -0.003284 -0.000600 0.000000 0.000000
# 2 -0.008180 0.025909 -0.003284 0.000600 0.000000 0.000000
# 3 -0.003284 -0.003284 0.009537 0.000000 0.000000 0.000000
# 4 -0.000600 0.000600 0.000000 0.047548 0.000000 0.000000
# 5 0.000000 0.000000 0.000000 0.000000 0.047549 -0.001200
# 6 0.000000 0.000000 0.000000 0.000000 -0.001200 0.068177
#
#
# Mechanical properties :
#
#
# Convention : Reuss Voigt Hill
#
# Bulk Modulus (GPa) = 31.38794 37.61541 34.50167
# Shear Modulus (GPa) = 18.88625 21.48537 20.18581
#
# Velocity S-wave (km/s) = 3.27344 3.49143 3.38419
# Velocity P-wave (km/s) = 5.66531 6.13149 5.90301
#
# Compressibility (1/GPa) = 0.03185937
#
# Stress axis : x y z
#
# Youngs Moduli (GPa) = 38.59700 38.59700 104.85900
#
# Poissons Ratio (x) = 0.31572 0.34432
# Poissons Ratio (y) = 0.31572 0.34433
# Poissons Ratio (z) = 0.12674 0.12674
#
# Static dielectric constant tensor:
#      x y z
#    x 1.623790 0.000000 0.000000 
#    y 0.000000 1.623790 0.000000 
#    z 0.000000 0.000000 1.677090 
# 
# From -- ./inp_files/4289.got.cif
#   From: 2010.05.17/outbox.cif.g08.bks.cpg/sg155_3_cif.got.tgz:4289.got - 2010.05.20 10:44:35.
