data_PCOD9576549
_publ_section_title
;
Structure prediction by ZEFSAII (Michael W. Deem and Ramdas Pophale) SiO2 
 PCOD9576549
Probable space group: P 32 2 1
;
_chemical_formula_sum "Si O2"
_cell_formula_units_Z 36
_cell_length_a 9.222948
_cell_length_b 9.222948
_cell_length_c 22.717183
_cell_angle_alpha 90.000000
_cell_angle_beta 90.000000
_cell_angle_gamma 120.000000
_cell_volume 1673.495806
_symmetry_space_group_name_H-M "P 32 2 1"
_symmetry_group_IT_number 154
_symmetry_cell_setting 'hexagonal'
loop_
_space_group_symop_operation_xyz
x,y,z
-y,x-y,2/3+z
-x+y,-x,1/3+z
x-y,-y,1/3-z
-x,-x+y,2/3-z
y,x,-z
loop_
_atom_site_type_symbol
_atom_site_label
_atom_site_fract_x
_atom_site_fract_y
_atom_site_fract_z
Si Si1 0.057527 0.220418 0.718130
Si Si2 0.792346 0.657349 0.879829
Si Si3 0.522013 0.000000 0.166667
Si Si4 0.481036 0.294120 0.196433
Si Si5 0.000000 0.005380 0.833334
Si Si6 0.000000 0.185489 0.333334
Si Si7 0.295016 0.295016 0.000000
Si Si8 0.864029 0.536107 0.208080
O O1 0.183164 0.403329 0.744104
O O2 0.998573 0.098675 0.775110
O O3 0.159822 0.157192 0.679117
O O4 0.885189 0.161171 0.684056
O O5 0.936249 0.605246 0.882349
O O6 0.631499 0.496948 0.857671
O O7 0.847590 0.815785 0.837991
O O8 0.750178 0.704903 0.942379
O O9 0.498853 0.159624 0.154824
O O10 0.662502 0.460778 0.204735
O O11 0.341933 0.334384 0.170095
O O12 0.343701 0.405344 0.059454
#
# Coordination Sequence:
#
# PCOD9576549 Si02
#       8
#     6   6   3   6   3   3   3   6
#     4  10  21  38  64  91 122 169 227 255 314 397
#     4   9  19  36  62  94 125 161 208 268 324 383
#     4   9  19  40  62  88 122 168 218 260 312 390
#     4  11  24  44  65  98 130 174 223 269 326 401
#     4   9  17  34  70  88 118 168 218 260 306 396
#     4   9  19  36  62  90 123 159 216 262 319 385
#     4  11  23  42  64  96 129 179 214 274 331 389
#     4  11  25  41  64  96 136 167 217 275 340 382
#
# _framework density 21.511852999999999
#
# number of rings (size 3 to 8) (size 9 to 14) (size 15 to 20)
#    0.000    2.000    0.000    3.000    7.000    0.000 
#   12.000    0.000    0.000    0.000    0.000    0.000 
#    0.000    0.000    0.000    0.000    0.000    0.000 
#
# Total GULP energy -200477.383801 kJ/mol
# GULP energy per Si atom -5568.816217 kJ/mol
# Density = 2.146289 g / cm^3
# Si number density = 21.511853 Si / 1000 Ang^3
#
#
#
# Elastic Constant Matrix: (Units=GPa)
#
#
# Indices 1 2 3 4 5 6 
#
# 1 100.1679 36.3150 12.7880 2.6086 0.0004 0.0000
# 2 36.3150 100.1679 12.7880 -2.6086 -0.0004 0.0000
# 3 12.7880 12.7880 32.6196 0.0000 0.0000 0.0000
# 4 2.6086 -2.6086 0.0000 15.3453 0.0000 -0.0004
# 5 0.0004 -0.0004 0.0000 0.0000 15.3453 2.6086
# 6 0.0000 0.0000 0.0000 -0.0004 2.6086 31.9264
#
#
#
# Elastic Compliance Matrix: (Units=1/GPa)
#
#
# Indices 1 2 3 4 5 6 
#
# 1 0.011895 -0.003987 -0.003100 -0.002700 0.000000 0.000000
# 2 -0.003987 0.011895 -0.003100 0.002700 0.000000 0.000000
# 3 -0.003100 -0.003100 0.033087 0.000000 0.000000 0.000000
# 4 -0.002700 0.002700 0.000000 0.066084 0.000000 0.000001
# 5 0.000000 0.000000 0.000000 0.000000 0.066084 -0.005400
# 6 0.000000 0.000000 0.000000 0.000001 -0.005400 0.031763
#
#
# Mechanical properties :
#
#
# Convention : Reuss Voigt Hill
#
# Bulk Modulus (GPa) = 27.39553 39.63748 33.51650
# Shear Modulus (GPa) = 19.73553 23.92771 21.83162
#
# Velocity S-wave (km/s) = 3.03219 3.33874 3.18915
# Velocity P-wave (km/s) = 5.00216 5.77311 5.40141
#
# Compressibility (1/GPa) = 0.03650231
#
# Stress axis : x y z
#
# Youngs Moduli (GPa) = 84.07080 84.07080 30.22319
#
# Poissons Ratio (x) = 0.33518 0.09370
# Poissons Ratio (y) = 0.33518 0.09370
# Poissons Ratio (z) = 0.26063 0.26063
#
# Static dielectric constant tensor:
#      x y z
#    x 1.854290 0.000000 0.000000 
#    y 0.000000 1.854290 0.000000 
#    z 0.000000 0.000000 1.798050 
# 
# From -- ./inp_files/3527.got.cif
#   From: 2010.05.17/outbox.cif.g08.bks.cpg/sg154_2_cif.got.tgz:3527.got - 2010.05.20 10:41:43.
