data_PCOD9576047
_publ_section_title
;
Structure prediction by ZEFSAII (Michael W. Deem and Ramdas Pophale) SiO2 
 PCOD9576047
Probable space group: P 31 2 1
;
_chemical_formula_sum "Si O2"
_cell_formula_units_Z 18
_cell_length_a 7.135566
_cell_length_b 7.135566
_cell_length_c 17.942047
_cell_angle_alpha 90.000000
_cell_angle_beta 90.000000
_cell_angle_gamma 120.000000
_cell_volume 791.151174
_symmetry_space_group_name_H-M "P 31 2 1"
_symmetry_group_IT_number 152
_symmetry_cell_setting 'hexagonal'
loop_
_space_group_symop_operation_xyz
x,y,z
-y,x-y,1/3+z
-x+y,-x,2/3+z
x-y,-y,2/3-z
-x,-x+y,1/3-z
y,x,-z
loop_
_atom_site_type_symbol
_atom_site_label
_atom_site_fract_x
_atom_site_fract_y
_atom_site_fract_z
Si Si1 0.354919 0.279353 0.243704
Si Si2 0.000000 0.311176 0.166667
Si Si3 0.000000 0.446355 0.666667
Si Si4 0.645596 0.195537 0.958854
O O1 0.210975 0.287972 0.178294
O O2 0.612785 0.445833 0.243015
O O3 0.283444 0.352922 0.318953
O O4 0.339792 0.051797 0.262348
O O5 0.034566 0.459964 0.095918
O O6 0.223308 0.672011 0.661425
#
# Coordination Sequence:
#
# PCOD9576047 Si02
#       4
#     6   3   3   6
#     4  10  22  44  66  95 136 181 220 289 334 405
#     4  12  22  40  72 102 130 190 232 268 362 406
#     4   8  22  44  60  98 130 170 218 280 334 386
#     4  10  22  44  67  96 136 176 226 283 334 409
#
# _framework density 22.751656000000001
#
# number of rings (size 3 to 8) (size 9 to 14) (size 15 to 20)
#    2.000    0.000    3.333    0.000    0.000    6.667 
#    6.000    1.667    0.000    0.000    0.000    0.000 
#    0.000    0.000    0.000    0.000    0.000    0.000 
#
# Total GULP energy -100231.849739 kJ/mol
# GULP energy per Si atom -5568.436097 kJ/mol
# Density = 2.269987 g / cm^3
# Si number density = 22.751656 Si / 1000 Ang^3
#
#
#
# Elastic Constant Matrix: (Units=GPa)
#
#
# Indices 1 2 3 4 5 6 
#
# 1 68.4477 -4.0696 8.7686 -3.7323 0.0001 0.0000
# 2 -4.0696 68.4477 8.7686 3.7323 -0.0001 0.0000
# 3 8.7686 8.7686 37.2415 0.0000 0.0000 0.0000
# 4 -3.7323 3.7323 0.0000 24.5246 0.0000 -0.0001
# 5 0.0001 -0.0001 0.0000 0.0000 24.5246 -3.7323
# 6 0.0000 0.0000 0.0000 -0.0001 -3.7323 36.2587
#
#
#
# Elastic Compliance Matrix: (Units=1/GPa)
#
#
# Indices 1 2 3 4 5 6 
#
# 1 0.015304 0.001294 -0.003908 0.002132 0.000000 0.000000
# 2 0.001294 0.015304 -0.003908 -0.002132 0.000000 0.000000
# 3 -0.003908 -0.003908 0.028692 0.000000 0.000000 0.000000
# 4 0.002132 -0.002132 0.000000 0.041424 0.000000 0.000000
# 5 0.000000 0.000000 0.000000 0.000000 0.041424 0.004264
# 6 0.000000 0.000000 0.000000 0.000000 0.004264 0.028019
#
#
# Mechanical properties :
#
#
# Convention : Reuss Voigt Hill
#
# Bulk Modulus (GPa) = 21.61893 22.34131 21.98012
# Shear Modulus (GPa) = 25.17267 27.77288 26.47278
#
# Velocity S-wave (km/s) = 3.32988 3.49764 3.41479
# Velocity P-wave (km/s) = 4.93021 5.11393 5.02291
#
# Compressibility (1/GPa) = 0.04625575
#
# Stress axis : x y z
#
# Youngs Moduli (GPa) = 65.34434 65.34434 34.85290
#
# Poissons Ratio (x) = -0.08457 0.13620
# Poissons Ratio (y) = -0.08457 0.13620
# Poissons Ratio (z) = 0.25536 0.25536
#
# Static dielectric constant tensor:
#      x y z
#    x 1.900220 0.000000 0.000000 
#    y 0.000000 1.900220 0.000000 
#    z 0.000000 0.000000 2.156070 
# 
# From -- ./inp_files/2209.got.cif
#   From: 2010.05.17/outbox.cif.g08.bks.cpg/sg152_2_cif.got.tgz:2209.got - 2010.05.20 10:36:06.
