data_PCOD9576136
_publ_section_title
;
Structure prediction by ZEFSAII (Michael W. Deem and Ramdas Pophale) SiO2 
 PCOD9576136
Probable space group: P 31 2 1
;
_chemical_formula_sum "Si O2"
_cell_formula_units_Z 42
_cell_length_a 9.397474
_cell_length_b 9.397474
_cell_length_c 27.602732
_cell_angle_alpha 90.000000
_cell_angle_beta 90.000000
_cell_angle_gamma 120.000000
_cell_volume 2111.081336
_symmetry_space_group_name_H-M "P 31 2 1"
_symmetry_group_IT_number 152
_symmetry_cell_setting 'hexagonal'
loop_
_space_group_symop_operation_xyz
x,y,z
-y,x-y,1/3+z
-x+y,-x,2/3+z
x-y,-y,2/3-z
-x,-x+y,1/3-z
y,x,-z
loop_
_atom_site_type_symbol
_atom_site_label
_atom_site_fract_x
_atom_site_fract_y
_atom_site_fract_z
Si Si1 0.182190 0.471609 0.687601
Si Si2 0.793097 0.975872 0.481064
Si Si3 0.297272 0.712533 0.175630
Si Si4 0.396725 0.053936 0.135812
Si Si5 0.630954 0.981080 0.582902
Si Si6 0.534709 0.144639 0.725762
Si Si7 0.792008 0.291469 0.250438
O O1 0.229566 0.363897 0.722128
O O2 0.318205 0.540538 0.645420
O O3 0.207673 0.627045 0.718626
O O4 0.000000 0.371246 0.666667
O O5 0.903779 0.903779 0.500000
O O6 0.693155 0.979705 0.528422
O O7 0.662532 0.849944 0.442808
O O8 0.907138 0.158736 0.460647
O O9 0.455623 0.688142 0.181081
O O10 0.181723 0.616839 0.220706
O O11 0.220340 0.623998 0.125149
O O12 0.346208 0.903163 0.172943
O O13 0.471727 0.004273 0.090602
O O14 0.573129 0.807503 0.607834
O O15 0.411283 0.952374 0.718958
#
# Coordination Sequence:
#
# PCOD9576136 Si02
#       7
#     6   6   6   6   6   6   6
#     4  12  29  46  69  98 141 189 236 278 348 438
#     4  12  23  41  70 108 137 168 226 299 349 398
#     4  11  21  38  72 103 130 175 234 289 340 409
#     4  11  21  36  67 102 138 165 223 283 349 388
#     4  11  23  45  66  98 142 180 224 285 342 411
#     4  11  25  43  71  96 143 183 225 285 360 410
#     4  12  22  47  69 102 134 180 234 288 344 421
#
# _framework density 19.895016999999999
#
# number of rings (size 3 to 8) (size 9 to 14) (size 15 to 20)
#    0.000    0.571    7.143    1.286    8.000    1.143 
#    0.000    0.714    0.000    0.000    0.000    0.000 
#    0.000    0.000    0.000    0.000    0.000    0.000 
#
# Total GULP energy -234763.564441 kJ/mol
# GULP energy per Si atom -5589.608677 kJ/mol
# Density = 1.984973 g / cm^3
# Si number density = 19.895017 Si / 1000 Ang^3
#
#
#
# Elastic Constant Matrix: (Units=GPa)
#
#
# Indices 1 2 3 4 5 6 
#
# 1 68.9032 19.1187 11.0980 -4.9659 0.0001 0.0000
# 2 19.1187 68.9032 11.0980 4.9659 -0.0001 0.0000
# 3 11.0980 11.0980 43.8643 0.0000 0.0000 0.0000
# 4 -4.9659 4.9659 0.0000 21.5045 0.0000 -0.0001
# 5 0.0001 -0.0001 0.0000 0.0000 21.5045 -4.9659
# 6 0.0000 0.0000 0.0000 -0.0001 -4.9659 24.8922
#
#
#
# Elastic Compliance Matrix: (Units=1/GPa)
#
#
# Indices 1 2 3 4 5 6 
#
# 1 0.016596 -0.004461 -0.003070 0.004862 0.000000 0.000000
# 2 -0.004461 0.016596 -0.003070 -0.004862 0.000000 0.000000
# 3 -0.003070 -0.003070 0.024351 0.000000 0.000000 0.000000
# 4 0.004862 -0.004862 0.000000 0.048748 0.000000 0.000000
# 5 0.000000 0.000000 0.000000 0.000000 0.048748 0.009725
# 6 0.000000 0.000000 0.000000 0.000000 0.009725 0.042113
#
#
# Mechanical properties :
#
#
# Convention : Reuss Voigt Hill
#
# Bulk Modulus (GPa) = 27.51773 29.36667 28.44220
# Shear Modulus (GPa) = 21.69503 22.93729 22.31616
#
# Velocity S-wave (km/s) = 3.30582 3.39915 3.35281
# Velocity P-wave (km/s) = 5.33224 5.49531 5.41439
#
# Compressibility (1/GPa) = 0.03634021
#
# Stress axis : x y z
#
# Youngs Moduli (GPa) = 60.25611 60.25611 41.06575
#
# Poissons Ratio (x) = 0.26879 0.12608
# Poissons Ratio (y) = 0.26879 0.12608
# Poissons Ratio (z) = 0.18500 0.18500
#
# Static dielectric constant tensor:
#      x y z
#    x 1.716320 0.000000 0.000000 
#    y 0.000000 1.716320 0.000000 
#    z 0.000000 0.000000 1.711800 
# 
# From -- ./inp_files/3747.got.cif
#   From: 2010.05.17/outbox.cif.g08.bks.cpg/sg152_2_cif.got.tgz:3747.got - 2010.05.20 10:36:06.
