data_PCOD9576394
_publ_section_title
;
Structure prediction by ZEFSAII (Michael W. Deem and Ramdas Pophale) SiO2 
 PCOD9576394
Probable space group: P 32 2 1
;
_chemical_formula_sum "Si O2"
_cell_formula_units_Z 42
_cell_length_a 8.379577
_cell_length_b 8.379577
_cell_length_c 30.193751
_cell_angle_alpha 90.000000
_cell_angle_beta 90.000000
_cell_angle_gamma 120.000000
_cell_volume 1836.081239
_symmetry_space_group_name_H-M "P 32 2 1"
_symmetry_group_IT_number 154
_symmetry_cell_setting 'hexagonal'
loop_
_space_group_symop_operation_xyz
x,y,z
-y,x-y,2/3+z
-x+y,-x,1/3+z
x-y,-y,1/3-z
-x,-x+y,2/3-z
y,x,-z
loop_
_atom_site_type_symbol
_atom_site_label
_atom_site_fract_x
_atom_site_fract_y
_atom_site_fract_z
Si Si1 0.494968 0.470206 0.552299
Si Si2 0.825487 0.034079 0.509535
Si Si3 0.102656 0.354366 0.006180
Si Si4 0.232701 0.738971 0.047372
Si Si5 0.300488 0.107101 0.423664
Si Si6 0.694248 0.141043 0.747115
Si Si7 0.857318 0.561202 0.086524
O O1 0.462082 0.462082 0.500000
O O2 0.667569 0.458497 0.571325
O O3 0.308504 0.324517 0.576815
O O4 0.522647 0.665577 0.567540
O O5 0.773004 0.099025 0.465226
O O6 0.008744 0.191861 0.532281
O O7 0.672452 0.993266 0.547045
O O8 0.865569 0.865569 0.500000
O O9 0.222470 0.559032 0.026579
O O10 0.011024 0.213732 0.046818
O O11 0.222547 0.344970 0.965832
O O12 0.918916 0.338034 0.982912
O O13 0.021829 0.690905 0.053528
O O14 0.500578 0.120952 0.425182
O O15 0.516365 0.162331 0.739984
#
# Coordination Sequence:
#
# PCOD9576394 Si02
#       7
#     6   6   6   6   6   6   6
#     4  10  19  35  58  88 118 154 204 256 310 368
#     4  12  23  39  59  87 122 159 201 258 327 381
#     4  10  19  35  56  86 119 158 205 247 314 378
#     4  10  18  33  61  90 121 158 207 266 312 381
#     4  10  23  37  58  85 119 158 198 256 309 381
#     4  10  21  36  60  85 118 160 203 255 309 383
#     4  10  21  39  62  89 114 155 208 258 316 376
#
# _framework density 22.874807000000001
#
# number of rings (size 3 to 8) (size 9 to 14) (size 15 to 20)
#    0.000    1.714    0.000    7.714    0.000    4.000 
#    0.000    2.857    0.000    1.714    0.000    0.000 
#    0.000    0.000    0.000    0.000    0.000    0.000 
#
# Total GULP energy -234644.906321 kJ/mol
# GULP energy per Si atom -5586.783484 kJ/mol
# Density = 2.282274 g / cm^3
# Si number density = 22.874807 Si / 1000 Ang^3
#
#
#
# Elastic Constant Matrix: (Units=GPa)
#
#
# Indices 1 2 3 4 5 6 
#
# 1 66.5571 16.8452 21.5271 -6.7384 0.0000 0.0000
# 2 16.8452 66.5571 21.5271 6.7384 0.0000 0.0000
# 3 21.5271 21.5271 120.9928 0.0000 0.0000 0.0000
# 4 -6.7384 6.7384 0.0000 41.6940 0.0000 0.0000
# 5 0.0000 0.0000 0.0000 0.0000 41.6940 -6.7384
# 6 0.0000 0.0000 0.0000 0.0000 -6.7384 24.8559
#
#
#
# Elastic Compliance Matrix: (Units=1/GPa)
#
#
# Indices 1 2 3 4 5 6 
#
# 1 0.017120 -0.003917 -0.002349 0.003400 0.000000 0.000000
# 2 -0.003917 0.017120 -0.002349 -0.003400 0.000000 0.000000
# 3 -0.002349 -0.002349 0.009101 0.000000 0.000000 0.000000
# 4 0.003400 -0.003400 0.000000 0.025083 0.000000 0.000000
# 5 0.000000 0.000000 0.000000 0.000000 0.025083 0.006800
# 6 0.000000 0.000000 0.000000 0.000000 0.006800 0.042075
#
#
# Mechanical properties :
#
#
# Convention : Reuss Voigt Hill
#
# Bulk Modulus (GPa) = 38.29933 41.54509 39.92221
# Shear Modulus (GPa) = 30.95641 34.59594 32.77617
#
# Velocity S-wave (km/s) = 3.68271 3.89318 3.78941
# Velocity P-wave (km/s) = 5.90445 6.19762 6.05281
#
# Compressibility (1/GPa) = 0.02611012
#
# Stress axis : x y z
#
# Youngs Moduli (GPa) = 58.41062 58.41062 109.87998
#
# Poissons Ratio (x) = 0.22882 0.25811
# Poissons Ratio (y) = 0.22882 0.25811
# Poissons Ratio (z) = 0.13721 0.13721
#
# Static dielectric constant tensor:
#      x y z
#    x 1.888100 0.000000 0.000000 
#    y 0.000000 1.888100 0.000000 
#    z 0.000000 0.000000 1.859520 
# 
# From -- ./inp_files/3785.got.cif
#   From: 2010.05.17/outbox.cif.g08.bks.cpg/sg154_2_cif.got.tgz:3785.got - 2010.05.20 10:41:43.
