data_PCOD9576540
_publ_section_title
;
Structure prediction by ZEFSAII (Michael W. Deem and Ramdas Pophale) SiO2 
 PCOD9576540
Probable space group: P 32 2 1
;
_chemical_formula_sum "Si O2"
_cell_formula_units_Z 33
_cell_length_a 15.976008
_cell_length_b 15.976008
_cell_length_c 7.502542
_cell_angle_alpha 90.000000
_cell_angle_beta 90.000000
_cell_angle_gamma 120.000000
_cell_volume 1658.347749
_symmetry_space_group_name_H-M "P 32 2 1"
_symmetry_group_IT_number 154
_symmetry_cell_setting 'hexagonal'
loop_
_space_group_symop_operation_xyz
x,y,z
-y,x-y,2/3+z
-x+y,-x,1/3+z
x-y,-y,1/3-z
-x,-x+y,2/3-z
y,x,-z
loop_
_atom_site_type_symbol
_atom_site_label
_atom_site_fract_x
_atom_site_fract_y
_atom_site_fract_z
Si Si1 0.270274 0.665539 0.379075
Si Si2 0.449265 0.380080 0.332959
Si Si3 0.405244 0.010301 0.883778
Si Si4 0.258868 0.803459 0.860498
Si Si5 0.306387 0.306387 0.000000
Si Si6 0.812023 0.196162 0.524724
O O1 0.292238 0.655981 0.174749
O O2 0.211944 0.556292 0.448688
O O3 0.216645 0.725758 0.414212
O O4 0.396652 0.396652 0.500000
O O5 0.539888 0.486005 0.290320
O O6 0.468704 0.292282 0.377073
O O7 0.379907 0.349456 0.163942
O O8 0.373977 0.088739 0.921850
O O9 0.408428 0.000000 0.666667
O O10 0.323481 0.906018 0.957403
O O11 0.203745 0.814714 0.689564
O O12 0.305077 0.210725 0.934862
#
# Coordination Sequence:
#
# PCOD9576540 Si02
#       6
#     6   6   6   6   3   6
#     4  10  21  34  53  83 118 162 207 247 299 364
#     4  12  24  40  64  93 130 171 216 262 323 386
#     4  10  22  41  64  91 132 170 215 266 321 383
#     4  10  22  38  60  91 125 164 216 263 310 386
#     4  12  24  40  60  86 122 168 212 268 324 384
#     4  10  22  39  59  88 122 169 213 261 319 372
#
# _framework density 19.899324
#
# number of rings (size 3 to 8) (size 9 to 14) (size 15 to 20)
#    0.000    1.455    2.727    2.182   10.182    1.455 
#    0.000    0.000    0.000    0.000    0.000    2.545 
#    2.727    0.000    0.000    0.000    0.000    0.000 
#
# Total GULP energy -184386.270625 kJ/mol
# GULP energy per Si atom -5587.462746 kJ/mol
# Density = 1.985403 g / cm^3
# Si number density = 19.899324 Si / 1000 Ang^3
#
#
#
# Elastic Constant Matrix: (Units=GPa)
#
#
# Indices 1 2 3 4 5 6 
#
# 1 124.1788 76.6959 31.4148 7.7582 0.0001 0.0000
# 2 76.6959 124.1788 31.4148 -7.7582 -0.0001 0.0000
# 3 31.4148 31.4148 83.6261 0.0000 0.0000 0.0000
# 4 7.7582 -7.7582 0.0000 2.4827 0.0000 -0.0001
# 5 0.0001 -0.0001 0.0000 0.0000 2.4827 7.7582
# 6 0.0000 0.0000 0.0000 -0.0001 7.7582 23.7414
#
#
#
# Elastic Compliance Matrix: (Units=1/GPa)
#
#
# Indices 1 2 3 4 5 6 
#
# 1 -0.495692 0.501333 -0.002119 3.115537 0.000035 -0.000001
# 2 0.501333 -0.495692 -0.002119 -3.115537 -0.000035 0.000001
# 3 -0.002119 -0.002119 0.013550 0.000000 0.000000 0.000000
# 4 3.115537 -3.115537 0.000000-19.068287 -0.000018 -0.000059
# 5 0.000035 -0.000035 0.000000 -0.000018-19.068266 6.231068
# 6 -0.000001 0.000001 0.000000 -0.000059 6.231068 -1.994048
#
#
# Mechanical properties :
#
#
# Convention : Reuss Voigt Hill
#
# Bulk Modulus (GPa) = 61.14046 67.89273 64.51659
# Shear Modulus (GPa) = -0.11877 18.57193 9.22658
#
# Velocity S-wave (km/s) = -0.24457 3.05830 2.15562
# Velocity P-wave (km/s) = 5.54183 6.83104 6.21993
#
# Compressibility (1/GPa) = 0.01635578
#
# Stress axis : x y z
#
# Youngs Moduli (GPa) = -2.01738 -2.01738 73.80020
#
# Poissons Ratio (x) = 1.01138 0.15639
# Poissons Ratio (y) = 1.01138 0.15639
# Poissons Ratio (z) = -0.00428 -0.00428
#
# Static dielectric constant tensor:
#      x y z
#    x 1.731900 0.000000 0.000000 
#    y 0.000000 1.731900 0.000000 
#    z 0.000000 0.000000 1.774220 
# 
# From -- ./inp_files/1135.got.cif
#   From: 2010.05.17/outbox.cif.g08.bks.cpg/sg154_1_cif.got.tgz:1135.got - 2010.05.20 10:41:43.
