data_PCOD9576240
_publ_section_title
;
Structure prediction by ZEFSAII (Michael W. Deem and Ramdas Pophale) SiO2 
 PCOD9576240
Probable space group: P 32 1 2
;
_chemical_formula_sum "Si O2"
_cell_formula_units_Z 39
_cell_length_a 8.787857
_cell_length_b 8.787857
_cell_length_c 30.711691
_cell_angle_alpha 90.000000
_cell_angle_beta 90.000000
_cell_angle_gamma 120.000000
_cell_volume 2053.999454
_symmetry_space_group_name_H-M "P 32 1 2"
_symmetry_group_IT_number 153
_symmetry_cell_setting 'hexagonal'
loop_
_space_group_symop_operation_xyz
x,y,z
-y,x-y,2/3+z
-x+y,-x,1/3+z
-y,-x,1/3-z
-x+y,y,2/3-z
x,x-y,-z
loop_
_atom_site_type_symbol
_atom_site_label
_atom_site_fract_x
_atom_site_fract_y
_atom_site_fract_z
Si Si1 0.024557 0.791192 0.895608
Si Si2 0.870200 0.057567 0.615972
Si Si3 0.522100 0.005758 0.385221
Si Si4 0.359975 0.844890 0.075212
Si Si5 0.201608 0.874695 0.534651
Si Si6 0.218678 0.437356 0.333334
Si Si7 0.802514 0.715328 0.065294
O O1 0.966847 0.626191 0.926523
O O2 0.115212 0.787988 0.850539
O O3 0.844956 0.789866 0.883731
O O4 0.161288 0.963866 0.921985
O O5 0.889502 0.110499 0.666667
O O6 0.682307 0.007510 0.595705
O O7 0.885666 0.881791 0.610829
O O8 0.489369 0.978737 0.333334
O O9 0.502239 0.831437 0.408656
O O10 0.717793 0.165115 0.394199
O O11 0.495023 0.856853 0.112203
O O12 0.446725 0.826972 0.031094
O O13 0.014936 0.732994 0.556163
O O14 0.271147 0.319286 0.304542
#
# Coordination Sequence:
#
# PCOD9576240 Si02
#       7
#     6   6   6   6   6   3   6
#     4  10  21  39  61  80 120 150 204 239 294 357
#     4  10  19  35  59  86 111 153 189 246 289 359
#     4  11  22  35  58  92 116 151 190 255 294 359
#     4  10  21  35  56  86 119 147 195 238 306 345
#     4   9  21  40  58  83 110 165 194 246 289 351
#     4  10  18  36  56  82 124 152 184 252 292 370
#     4   9  19  35  61  80 111 154 204 228 297 352
#
# _framework density 18.987347
#
# number of rings (size 3 to 8) (size 9 to 14) (size 15 to 20)
#    0.000    2.154    1.538    1.846    4.308    1.846 
#    2.769    3.077    0.000    0.000    0.000    0.000 
#    0.000    0.000    0.000    0.000    0.000    0.000 
#
# Total GULP energy -217520.550196 kJ/mol
# GULP energy per Si atom -5577.450005 kJ/mol
# Density = 1.894413 g / cm^3
# Si number density = 18.987347 Si / 1000 Ang^3
#
#
#
# Elastic Constant Matrix: (Units=GPa)
#
#
# Indices 1 2 3 4 5 6 
#
# 1 68.9531 36.1334 30.4369 0.0000 -7.3909 0.0000
# 2 36.1334 68.9531 30.4369 0.0000 7.3909 0.0000
# 3 30.4369 30.4369 109.1466 0.0000 0.0000 0.0000
# 4 0.0000 0.0000 0.0000 11.3404 0.0000 7.3909
# 5 -7.3909 7.3909 0.0000 0.0000 11.3404 0.0000
# 6 0.0000 0.0000 0.0000 7.3909 0.0000 16.4099
#
#
#
# Elastic Compliance Matrix: (Units=1/GPa)
#
#
# Indices 1 2 3 4 5 6 
#
# 1 0.027239 -0.015890 -0.003165 0.000000 0.028109 0.000000
# 2 -0.015890 0.027239 -0.003165 0.000000 -0.028109 0.000000
# 3 -0.003165 -0.003165 0.010927 0.000000 0.000000 0.000000
# 4 0.000000 0.000000 0.000000 0.124819 0.000000 -0.056218
# 5 0.028109 -0.028109 0.000000 0.000000 0.124819 0.000000
# 6 0.000000 0.000000 0.000000 -0.056218 0.000000 0.086259
#
#
# Mechanical properties :
#
#
# Convention : Reuss Voigt Hill
#
# Bulk Modulus (GPa) = 47.69592 49.00748 48.35170
# Shear Modulus (GPa) = 11.04409 17.82119 14.43264
#
# Velocity S-wave (km/s) = 2.41437 3.06695 2.76002
# Velocity P-wave (km/s) = 5.73991 6.19744 5.97306
#
# Compressibility (1/GPa) = 0.02096616
#
# Stress axis : x y z
#
# Youngs Moduli (GPa) = 36.71155 36.71155 91.51531
#
# Poissons Ratio (x) = 0.58335 0.28964
# Poissons Ratio (y) = 0.58335 0.28964
# Poissons Ratio (z) = 0.11619 0.11619
#
# Static dielectric constant tensor:
#      x y z
#    x 1.691560 0.000000 0.000000 
#    y 0.000000 1.691560 0.000000 
#    z 0.000000 0.000000 1.642890 
# 
# From -- ./inp_files/5091.got.cif
#   From: 2010.05.17/outbox.cif.g08.bks.cpg/sg153_3_cif.got.tgz:5091.got - 2010.05.20 10:38:56.
