data_PCOD9576660
_publ_section_title
;
Structure prediction by ZEFSAII (Michael W. Deem and Ramdas Pophale) SiO2 
 PCOD9576660
Probable space group: P 32 2 1
;
_chemical_formula_sum "Si O2"
_cell_formula_units_Z 30
_cell_length_a 8.747194
_cell_length_b 8.747194
_cell_length_c 21.147529
_cell_angle_alpha 90.000000
_cell_angle_beta 90.000000
_cell_angle_gamma 120.000000
_cell_volume 1401.289211
_symmetry_space_group_name_H-M "P 32 2 1"
_symmetry_group_IT_number 154
_symmetry_cell_setting 'hexagonal'
loop_
_space_group_symop_operation_xyz
x,y,z
-y,x-y,2/3+z
-x+y,-x,1/3+z
x-y,-y,1/3-z
-x,-x+y,2/3-z
y,x,-z
loop_
_atom_site_type_symbol
_atom_site_label
_atom_site_fract_x
_atom_site_fract_y
_atom_site_fract_z
Si Si1 0.213341 0.880741 0.036410
Si Si2 0.498592 0.035092 0.757163
Si Si3 0.273300 0.617143 0.511148
Si Si4 0.621420 0.621420 0.500000
Si Si5 0.238138 0.238138 0.000000
Si Si6 0.139628 0.656165 0.636948
O O1 0.236566 0.924641 0.110841
O O2 0.032552 0.704133 0.021980
O O3 0.376468 0.851102 0.020383
O O4 0.224239 0.047880 0.000285
O O5 0.547439 0.168845 0.817119
O O6 0.462320 0.150520 0.705456
O O7 0.362660 0.841593 0.783148
O O8 0.659134 0.018364 0.727359
O O9 0.432300 0.582615 0.524949
O O10 0.142644 0.566108 0.570457
#
# Coordination Sequence:
#
# PCOD9576660 Si02
#       6
#     6   6   6   3   3   6
#     4  12  25  47  73 102 149 187 249 297 377 439
#     4  10  24  43  70 105 141 194 243 300 371 426
#     4  10  23  45  71 101 144 190 238 307 358 447
#     4  12  24  44  70 104 136 194 238 304 376 430
#     4  12  26  44  70 108 144 190 250 304 356 446
#     4  10  25  47  70 104 141 195 235 303 367 450
#
# _framework density 21.408857999999999
#
# number of rings (size 3 to 8) (size 9 to 14) (size 15 to 20)
#    1.200    0.000    2.000    3.600    8.400    0.800 
#    3.600    0.000    0.000    0.000    0.000    0.000 
#    0.000    0.000    0.000    0.000    0.000    0.000 
#
# Total GULP energy -167167.282846 kJ/mol
# GULP energy per Si atom -5572.242762 kJ/mol
# Density = 2.136013 g / cm^3
# Si number density = 21.408858 Si / 1000 Ang^3
#
#
#
# Elastic Constant Matrix: (Units=GPa)
#
#
# Indices 1 2 3 4 5 6 
#
# 1 113.1588 46.7405 16.2398 4.9867 0.0000 0.0000
# 2 46.7405 113.1588 16.2398 -4.9867 0.0000 0.0000
# 3 16.2398 16.2398 42.5135 0.0000 0.0000 0.0000
# 4 4.9867 -4.9867 0.0000 30.8110 0.0000 0.0000
# 5 0.0000 0.0000 0.0000 0.0000 30.8110 4.9867
# 6 0.0000 0.0000 0.0000 0.0000 4.9867 33.2091
#
#
#
# Elastic Compliance Matrix: (Units=1/GPa)
#
#
# Indices 1 2 3 4 5 6 
#
# 1 0.011106 -0.004326 -0.002590 -0.002498 0.000000 0.000000
# 2 -0.004326 0.011106 -0.002590 0.002498 0.000000 0.000000
# 3 -0.002590 -0.002590 0.025501 0.000000 0.000000 0.000000
# 4 -0.002498 0.002498 0.000000 0.033264 0.000000 0.000000
# 5 0.000000 0.000000 0.000000 0.000000 0.033264 -0.004995
# 6 0.000000 0.000000 0.000000 0.000000 -0.004995 0.030862
#
#
# Mechanical properties :
#
#
# Convention : Reuss Voigt Hill
#
# Bulk Modulus (GPa) = 34.84202 47.47459 41.15830
# Shear Modulus (GPa) = 28.78850 31.60696 30.19773
#
# Velocity S-wave (km/s) = 3.67099 3.84650 3.75977
# Velocity P-wave (km/s) = 5.85476 6.47694 6.17369
#
# Compressibility (1/GPa) = 0.02870098
#
# Stress axis : x y z
#
# Youngs Moduli (GPa) = 90.04489 90.04489 39.21477
#
# Poissons Ratio (x) = 0.38949 0.10156
# Poissons Ratio (y) = 0.38949 0.10156
# Poissons Ratio (z) = 0.23321 0.23321
#
# Static dielectric constant tensor:
#      x y z
#    x 1.761980 0.000000 0.000000 
#    y 0.000000 1.761980 0.000000 
#    z 0.000000 0.000000 1.904370 
# 
# From -- ./inp_files/3099.got.cif
#   From: 2010.05.17/outbox.cif.g08.bks.cpg/sg154_2_cif.got.tgz:3099.got - 2010.05.20 10:41:43.
