data_PCOD9576867
_publ_section_title
;
Structure prediction by ZEFSAII (Michael W. Deem and Ramdas Pophale) SiO2 
 PCOD9576867
Probable space group: R 3 2
;
_chemical_formula_sum "Si O2"
_cell_formula_units_Z 48
_cell_length_a 13.630865
_cell_length_b 13.630865
_cell_length_c 13.874188
_cell_angle_alpha 90.000000
_cell_angle_beta 90.000000
_cell_angle_gamma 120.000000
_cell_volume 2232.466959
_symmetry_space_group_name_H-M "R 3 2"
_symmetry_group_IT_number 155
_symmetry_cell_setting 'hexagonal'
loop_
_space_group_symop_operation_xyz
x,y,z
-y,x-y,z
-x+y,-x,z
x-y,-y,-z
-x,-x+y,-z
y,x,-z
2/3+x,1/3+y,1/3+z
2/3-y,1/3+x-y,1/3+z
2/3-x+y,1/3-x,1/3+z
2/3+x-y,1/3-y,1/3-z
2/3-x,1/3-x+y,1/3-z
2/3+y,1/3+x,1/3-z
1/3+x,2/3+y,2/3+z
1/3-y,2/3+x-y,2/3+z
1/3-x+y,2/3-x,2/3+z
1/3+x-y,2/3-y,2/3-z
1/3-x,2/3-x+y,2/3-z
1/3+y,2/3+x,2/3-z
loop_
_atom_site_type_symbol
_atom_site_label
_atom_site_fract_x
_atom_site_fract_y
_atom_site_fract_z
Si Si1 0.316539 0.983206 0.833334
Si Si2 0.666668 0.333335 0.980576
Si Si3 0.808888 0.000000 0.000000
Si Si4 0.176431 0.410575 0.006031
Si Si5 0.666668 0.333334 0.459523
O O1 0.415438 0.020384 0.755816
O O2 0.293694 0.878636 0.903154
O O3 0.735785 0.466329 0.955795
O O4 0.666668 0.333334 0.095057
O O5 0.893993 0.010680 0.913829
O O6 0.684665 0.894389 0.987993
#
# Coordination Sequence:
#
# PCOD9576867 Si02
#       5
#     9   6   9  18   6
#     4  10  22  42  66  88 120 160 210 260 312 368
#     4  12  25  38  58  90 133 173 208 247 308 382
#     4  10  20  38  66  94 120 154 210 274 322 366
#     4  11  23  41  63  92 124 164 208 259 313 372
#     4  10  19  39  67  94 121 158 214 274 320 370
#
# _framework density 21.500879000000001
#
# number of rings (size 3 to 8) (size 9 to 14) (size 15 to 20)
#    0.000    1.500    0.000    9.000    0.000    4.500 
#    0.000    3.750    0.000    0.000    0.000    0.000 
#    0.000    0.000    0.000    0.000    0.000    0.000 
#
# Total GULP energy -89311.424713 kJ/mol
# GULP energy per Si atom -5581.964045 kJ/mol
# Density = 2.145194 g / cm^3
# Si number density = 21.500879 Si / 1000 Ang^3
#
#
#
# Elastic Constant Matrix: (Units=GPa)
#
#
# Indices 1 2 3 4 5 6 
#
# 1 130.3891 84.6775 12.6609 0.0585 0.0001 0.0000
# 2 84.6775 130.3929 12.6620 -0.0591 -0.0001 0.0000
# 3 12.6609 12.6620 92.4385 0.0004 0.0000 0.0000
# 4 0.0585 -0.0591 0.0004 7.3424 0.0000 -0.0001
# 5 0.0001 -0.0001 0.0000 0.0000 7.3429 0.0591
# 6 0.0000 0.0000 0.0000 -0.0001 0.0591 22.8565
#
#
#
# Elastic Compliance Matrix: (Units=1/GPa)
#
#
# Indices 1 2 3 4 5 6 
#
# 1 0.013301 -0.008575 -0.000647 -0.000175 0.000000 0.000000
# 2 -0.008575 0.013301 -0.000647 0.000175 0.000000 0.000000
# 3 -0.000647 -0.000647 0.010995 -0.000001 0.000000 0.000000
# 4 -0.000175 0.000175 -0.000001 0.136197 0.000000 0.000001
# 5 0.000000 0.000000 0.000000 0.000000 0.136189 -0.000352
# 6 0.000000 0.000000 0.000000 0.000001 -0.000352 0.043752
#
#
# Mechanical properties :
#
#
# Convention : Reuss Voigt Hill
#
# Bulk Modulus (GPa) = 55.99772 63.69127 59.84449
# Shear Modulus (GPa) = 13.17774 23.72304 18.45039
#
# Velocity S-wave (km/s) = 2.47835 3.32528 2.93255
# Velocity P-wave (km/s) = 5.85582 6.66560 6.27379
#
# Compressibility (1/GPa) = 0.01785787
#
# Stress axis : x y z
#
# Youngs Moduli (GPa) = 75.18208 75.18413 90.94769
#
# Poissons Ratio (x) = 0.64470 0.05886
# Poissons Ratio (y) = 0.64468 0.05888
# Poissons Ratio (z) = 0.04866 0.04868
#
# Static dielectric constant tensor:
#      x y z
#    x 1.819360 0.000000 0.000000 
#    y 0.000000 1.819350 0.000000 
#    z 0.000000 0.000000 1.814480 
# 
# From -- ./inp_files/4615.got.cif
#   From: 2010.05.17/outbox.cif.g08.bks.cpg/sg155_3_cif.got.tgz:4615.got - 2010.05.20 10:44:35.
