data_PCOD9576060
_publ_section_title
;
Structure prediction by ZEFSAII (Michael W. Deem and Ramdas Pophale) SiO2 
 PCOD9576060
Probable space group: P 31 2 1
;
_chemical_formula_sum "Si O2"
_cell_formula_units_Z 21
_cell_length_a 13.888014
_cell_length_b 13.888014
_cell_length_c 6.482856
_cell_angle_alpha 90.000000
_cell_angle_beta 90.000000
_cell_angle_gamma 120.000000
_cell_volume 1082.872433
_symmetry_space_group_name_H-M "P 31 2 1"
_symmetry_group_IT_number 152
_symmetry_cell_setting 'hexagonal'
loop_
_space_group_symop_operation_xyz
x,y,z
-y,x-y,1/3+z
-x+y,-x,2/3+z
x-y,-y,2/3-z
-x,-x+y,1/3-z
y,x,-z
loop_
_atom_site_type_symbol
_atom_site_label
_atom_site_fract_x
_atom_site_fract_y
_atom_site_fract_z
Si Si1 0.740390 0.740390 0.000000
Si Si2 0.418366 0.757471 0.148156
Si Si3 0.424082 0.107301 0.709688
Si Si4 0.669109 0.871005 0.278073
O O1 0.707629 0.642141 0.163407
O O2 0.746112 0.840691 0.134954
O O3 0.359567 0.741303 0.369772
O O4 0.550821 0.830106 0.166272
O O5 0.366952 0.814555 0.004949
O O6 0.406409 0.000000 0.833334
O O7 0.367083 0.160385 0.851157
O O8 0.730570 0.000000 0.333334
#
# Coordination Sequence:
#
# PCOD9576060 Si02
#       4
#     3   6   6   6
#     4  10  22  46  64  88 132 168 216 290 324 384
#     4  12  23  39  62 102 139 171 209 268 333 414
#     4  10  23  41  65  94 129 171 215 267 334 392
#     4  11  25  41  69  96 128 178 228 268 335 394
#
# _framework density 19.392863999999999
#
# number of rings (size 3 to 8) (size 9 to 14) (size 15 to 20)
#    0.000    1.143    5.714    0.000    2.000    3.429 
#    0.000    0.000   31.429    0.000    0.000    0.000 
#    0.000    0.000    0.000    0.000    0.000    0.000 
#
# Total GULP energy -117240.243080 kJ/mol
# GULP energy per Si atom -5582.868718 kJ/mol
# Density = 1.934873 g / cm^3
# Si number density = 19.392864 Si / 1000 Ang^3
#
#
#
# Elastic Constant Matrix: (Units=GPa)
#
#
# Indices 1 2 3 4 5 6 
#
# 1 117.2092 63.2066 42.9509 -4.3198 -0.0001 0.0000
# 2 63.2066 117.2092 42.9509 4.3198 0.0001 0.0000
# 3 42.9509 42.9509 98.2578 0.0000 0.0000 0.0000
# 4 -4.3198 4.3198 0.0000 30.6827 0.0000 0.0001
# 5 -0.0001 0.0001 0.0000 0.0000 30.6827 -4.3198
# 6 0.0000 0.0000 0.0000 0.0001 -4.3198 27.0013
#
#
#
# Elastic Compliance Matrix: (Units=1/GPa)
#
#
# Indices 1 2 3 4 5 6 
#
# 1 0.012972 -0.005972 -0.003060 0.002667 0.000000 0.000000
# 2 -0.005972 0.012972 -0.003060 -0.002667 0.000000 0.000000
# 3 -0.003060 -0.003060 0.012852 0.000000 0.000000 0.000000
# 4 0.002667 -0.002667 0.000000 0.033343 0.000000 0.000000
# 5 0.000000 0.000000 0.000000 0.000000 0.033343 0.005334
# 6 0.000000 0.000000 0.000000 0.000000 0.005334 0.037889
#
#
# Mechanical properties :
#
#
# Convention : Reuss Voigt Hill
#
# Bulk Modulus (GPa) = 68.43395 70.09925 69.26660
# Shear Modulus (GPa) = 28.99820 29.91119 29.45469
#
# Velocity S-wave (km/s) = 3.87111 3.93158 3.90146
# Velocity P-wave (km/s) = 7.43945 7.53891 7.48935
#
# Compressibility (1/GPa) = 0.01461263
#
# Stress axis : x y z
#
# Youngs Moduli (GPa) = 77.08943 77.08943 77.80742
#
# Poissons Ratio (x) = 0.46041 0.23807
# Poissons Ratio (y) = 0.46041 0.23807
# Poissons Ratio (z) = 0.23587 0.23587
#
# Static dielectric constant tensor:
#      x y z
#    x 1.651510 0.000000 0.000000 
#    y 0.000000 1.651510 0.000000 
#    z 0.000000 0.000000 1.712430 
# 
# From -- ./inp_files/134.got.cif
#   From: 2010.05.17/outbox.cif.g08.bks.cpg/sg152_1_cif.got.tgz:134.got - 2010.05.20 10:36:06.
