data_PCOD9576708
_publ_section_title
;
Structure prediction by ZEFSAII (Michael W. Deem and Ramdas Pophale) SiO2 
 PCOD9576708
Probable space group: P 32 2 1
;
_chemical_formula_sum "Si O2"
_cell_formula_units_Z 42
_cell_length_a 8.290792
_cell_length_b 8.290792
_cell_length_c 32.168625
_cell_angle_alpha 90.000000
_cell_angle_beta 90.000000
_cell_angle_gamma 120.000000
_cell_volume 1914.939992
_symmetry_space_group_name_H-M "P 32 2 1"
_symmetry_group_IT_number 154
_symmetry_cell_setting 'hexagonal'
loop_
_space_group_symop_operation_xyz
x,y,z
-y,x-y,2/3+z
-x+y,-x,1/3+z
x-y,-y,1/3-z
-x,-x+y,2/3-z
y,x,-z
loop_
_atom_site_type_symbol
_atom_site_label
_atom_site_fract_x
_atom_site_fract_y
_atom_site_fract_z
Si Si1 0.032343 0.329691 0.382067
Si Si2 0.405278 0.957542 0.381258
Si Si3 0.324348 0.027817 0.089487
Si Si4 0.611740 0.405081 0.643959
Si Si5 0.641266 0.057432 0.868969
Si Si6 0.796552 0.384289 0.449094
Si Si7 0.042099 0.963837 0.381635
O O1 0.254256 0.452441 0.385116
O O2 0.000000 0.346951 0.333334
O O3 0.933309 0.407021 0.411404
O O4 0.984665 0.119589 0.390910
O O5 0.354057 0.774497 0.354027
O O6 0.256257 0.023720 0.385739
O O7 0.579063 0.120090 0.356130
O O8 0.443337 0.902563 0.426128
O O9 0.528006 0.193670 0.102990
O O10 0.208730 0.129625 0.077964
O O11 0.321823 0.919843 0.047108
O O12 0.196978 0.861549 0.121664
O O13 0.541878 0.834131 0.873302
O O14 0.596406 0.101585 0.823811
O O15 0.000000 0.914498 0.333334
#
# Coordination Sequence:
#
# PCOD9576708 Si02
#       7
#     6   6   6   6   6   6   6
#     4  11  25  43  71 104 141 179 232 290 360 427
#     4  11  24  41  69 100 146 179 234 295 356 418
#     4  11  25  46  72 100 140 183 234 290 354 413
#     4  11  24  39  70 104 136 178 236 290 353 423
#     4  11  28  49  68 104 137 188 238 290 347 431
#     4  12  27  49  74  97 142 187 233 291 356 422
#     4  11  22  42  67 106 142 181 226 292 358 422
#
# _framework density 21.9328
#
# number of rings (size 3 to 8) (size 9 to 14) (size 15 to 20)
#    0.000    0.857    2.857    3.000   16.000    1.143 
#    0.000    0.714    0.000    0.000    0.000    0.000 
#    0.000    0.000    0.000    0.000    0.000    0.000 
#
# Total GULP energy -234517.182414 kJ/mol
# GULP energy per Si atom -5583.742438 kJ/mol
# Density = 2.188288 g / cm^3
# Si number density = 21.932800 Si / 1000 Ang^3
#
#
#
# Elastic Constant Matrix: (Units=GPa)
#
#
# Indices 1 2 3 4 5 6 
#
# 1 78.9663 22.3344 28.7505 -5.2784 0.0000 0.0000
# 2 22.3344 78.9663 28.7505 5.2784 0.0000 0.0000
# 3 28.7505 28.7505 78.3049 0.0000 0.0000 0.0000
# 4 -5.2784 5.2784 0.0000 27.0148 0.0000 0.0000
# 5 0.0000 0.0000 0.0000 0.0000 27.0148 -5.2784
# 6 0.0000 0.0000 0.0000 0.0000 -5.2784 28.3159
#
#
#
# Elastic Compliance Matrix: (Units=1/GPa)
#
#
# Indices 1 2 3 4 5 6 
#
# 1 0.015398 -0.002927 -0.004579 0.003581 0.000000 0.000000
# 2 -0.002927 0.015398 -0.004579 -0.003581 0.000000 0.000000
# 3 -0.004579 -0.004579 0.016133 0.000000 0.000000 0.000000
# 4 0.003581 -0.003581 0.000000 0.038416 0.000000 0.000000
# 5 0.000000 0.000000 0.000000 0.000000 0.038416 0.007161
# 6 0.000000 0.000000 0.000000 0.000000 0.007161 0.036651
#
#
# Mechanical properties :
#
#
# Convention : Reuss Voigt Hill
#
# Bulk Modulus (GPa) = 43.93832 43.98982 43.96407
# Shear Modulus (GPa) = 26.01899 26.89592 26.45745
#
# Velocity S-wave (km/s) = 3.44801 3.50564 3.47695
# Velocity P-wave (km/s) = 5.99403 6.04038 6.01725
#
# Compressibility (1/GPa) = 0.02275918
#
# Stress axis : x y z
#
# Youngs Moduli (GPa) = 64.94357 64.94357 61.98540
#
# Poissons Ratio (x) = 0.19011 0.28381
# Poissons Ratio (y) = 0.19011 0.28381
# Poissons Ratio (z) = 0.29736 0.29736
#
# Static dielectric constant tensor:
#      x y z
#    x 1.854200 0.000000 0.000000 
#    y 0.000000 1.854200 0.000000 
#    z 0.000000 0.000000 1.784820 
# 
# From -- ./inp_files/3797.got.cif
#   From: 2010.05.17/outbox.cif.g08.bks.cpg/sg154_2_cif.got.tgz:3797.got - 2010.05.20 10:41:43.
