data_PCOD9576322
_publ_section_title
;
Structure prediction by ZEFSAII (Michael W. Deem and Ramdas Pophale) SiO2 
 PCOD9576322
Probable space group: P 32 1 2
;
_chemical_formula_sum "Si O2"
_cell_formula_units_Z 21
_cell_length_a 7.527552
_cell_length_b 7.527552
_cell_length_c 18.310678
_cell_angle_alpha 90.000000
_cell_angle_beta 90.000000
_cell_angle_gamma 120.000000
_cell_volume 898.550698
_symmetry_space_group_name_H-M "P 32 1 2"
_symmetry_group_IT_number 153
_symmetry_cell_setting 'hexagonal'
loop_
_space_group_symop_operation_xyz
x,y,z
-y,x-y,2/3+z
-x+y,-x,1/3+z
-y,-x,1/3-z
-x+y,y,2/3-z
x,x-y,-z
loop_
_atom_site_type_symbol
_atom_site_label
_atom_site_fract_x
_atom_site_fract_y
_atom_site_fract_z
Si Si1 0.012644 0.339910 0.198598
Si Si2 0.043581 0.956420 0.666667
Si Si3 0.640265 0.701163 0.388433
Si Si4 0.005856 0.638604 0.435295
O O1 0.817275 0.938693 0.371537
O O2 0.023105 0.224633 0.271137
O O3 0.143369 0.307021 0.136431
O O4 0.780929 0.219072 0.166667
O O5 0.115243 0.534715 0.781847
O O6 0.792887 0.619887 0.412544
O O7 0.531801 0.621498 0.309992
O O8 0.976035 0.488018 0.500000
#
# Coordination Sequence:
#
# PCOD9576322 Si02
#       4
#     6   3   6   6
#     4  12  21  41  76  97 137 201 226 287 380 400
#     4  10  22  44  66 102 142 180 244 300 338 440
#     4  10  22  39  68 103 134 177 243 282 345 433
#     4  10  21  42  64  97 143 176 236 300 340 426
#
# _framework density 23.370971999999998
#
# number of rings (size 3 to 8) (size 9 to 14) (size 15 to 20)
#    0.000    1.714    5.714    2.571    0.000    0.000 
#    5.143    0.000    0.000    0.000    0.000    0.000 
#    0.000    0.000    0.000    0.000    0.000    0.000 
#
# Total GULP energy -116918.713572 kJ/mol
# GULP energy per Si atom -5567.557789 kJ/mol
# Density = 2.331778 g / cm^3
# Si number density = 23.370972 Si / 1000 Ang^3
#
#
#
# Elastic Constant Matrix: (Units=GPa)
#
#
# Indices 1 2 3 4 5 6 
#
# 1 64.2035 46.0281 48.8663 -0.0004 12.9382 0.0000
# 2 46.0281 64.2035 48.8663 0.0004 -12.9382 0.0000
# 3 48.8663 48.8663 107.8697 0.0000 0.0000 0.0000
# 4 -0.0004 0.0004 0.0000 30.8320 0.0000 -12.9382
# 5 12.9382 -12.9382 0.0000 0.0000 30.8320 -0.0004
# 6 0.0000 0.0000 0.0000 -12.9382 -0.0004 9.0877
#
#
#
# Elastic Compliance Matrix: (Units=1/GPa)
#
#
# Indices 1 2 3 4 5 6 
#
# 1 0.075916 -0.060755 -0.006868 0.000002 -0.057352 0.000000
# 2 -0.060755 0.075916 -0.006868 -0.000002 0.057352 0.000000
# 3 -0.006868 -0.006868 0.015493 0.000000 0.000000 0.000000
# 4 0.000002 -0.000002 0.000000 0.080567 0.000000 0.114704
# 5 -0.057352 0.057352 0.000000 0.000000 0.080567 0.000004
# 6 0.000000 0.000000 0.000000 0.114704 0.000004 0.273342
#
#
# Mechanical properties :
#
#
# Convention : Reuss Voigt Hill
#
# Bulk Modulus (GPa) = 54.51729 58.19981 56.35855
# Shear Modulus (GPa) = 6.60590 20.31808 13.46199
#
# Velocity S-wave (km/s) = 1.68306 2.95171 2.40263
# Velocity P-wave (km/s) = 5.21099 6.04760 5.64482
#
# Compressibility (1/GPa) = 0.01834280
#
# Stress axis : x y z
#
# Youngs Moduli (GPa) = 13.17242 13.17242 64.54426
#
# Poissons Ratio (x) = 0.80029 0.44331
# Poissons Ratio (y) = 0.80029 0.44331
# Poissons Ratio (z) = 0.09047 0.09047
#
# Static dielectric constant tensor:
#      x y z
#    x 1.949710 0.000000 0.000000 
#    y 0.000000 1.949710 0.000000 
#    z 0.000000 0.000000 1.775950 
# 
# From -- ./inp_files/3366.got.cif
#   From: 2010.05.17/outbox.cif.g08.bks.cpg/sg153_2_cif.got.tgz:3366.got - 2010.05.20 10:38:56.
