data_PCOD9576122
_publ_section_title
;
Structure prediction by ZEFSAII (Michael W. Deem and Ramdas Pophale) SiO2 
 PCOD9576122
Probable space group: P 31 2 1
;
_chemical_formula_sum "Si O2"
_cell_formula_units_Z 21
_cell_length_a 9.115071
_cell_length_b 9.115071
_cell_length_c 11.210336
_cell_angle_alpha 90.000000
_cell_angle_beta 90.000000
_cell_angle_gamma 120.000000
_cell_volume 806.620719
_symmetry_space_group_name_H-M "P 31 2 1"
_symmetry_group_IT_number 152
_symmetry_cell_setting 'hexagonal'
loop_
_space_group_symop_operation_xyz
x,y,z
-y,x-y,1/3+z
-x+y,-x,2/3+z
x-y,-y,2/3-z
-x,-x+y,1/3-z
y,x,-z
loop_
_atom_site_type_symbol
_atom_site_label
_atom_site_fract_x
_atom_site_fract_y
_atom_site_fract_z
Si Si1 0.772601 0.588256 0.986795
Si Si2 0.567596 0.323765 0.572079
Si Si3 0.027444 0.000000 0.333334
Si Si4 0.711238 0.714686 0.633219
O O1 0.728453 0.440598 0.893374
O O2 0.917558 0.779182 0.960420
O O3 0.606722 0.606722 0.000000
O O4 0.812884 0.532174 0.113799
O O5 0.643563 0.514016 0.621570
O O6 0.441288 0.186318 0.666090
O O7 0.841646 0.864040 0.280807
O O8 0.778494 0.778494 0.500000
#
# Coordination Sequence:
#
# PCOD9576122 Si02
#       4
#     6   6   3   6
#     4  10  27  50  82 112 162 207 264 336 401 485
#     4  12  26  51  79 115 158 205 276 324 413 479
#     4  10  28  48  78 110 164 206 270 322 414 468
#     4  12  28  48  79 113 153 212 267 334 399 484
#
# _framework density 26.034541999999998
#
# number of rings (size 3 to 8) (size 9 to 14) (size 15 to 20)
#    0.857    0.000    2.857    1.714   10.000    2.286 
#    0.000    0.000    0.000    0.000    0.000    0.000 
#    0.000    0.000    0.000    0.000    0.000    0.000 
#
# Total GULP energy -116999.242482 kJ/mol
# GULP energy per Si atom -5571.392499 kJ/mol
# Density = 2.597529 g / cm^3
# Si number density = 26.034542 Si / 1000 Ang^3
#
#
#
# Elastic Constant Matrix: (Units=GPa)
#
#
# Indices 1 2 3 4 5 6 
#
# 1 212.9393 80.6032 50.8842 3.0493 -0.0001 0.0000
# 2 80.6032 212.9393 50.8842 -3.0493 0.0001 0.0000
# 3 50.8842 50.8842 127.9618 0.0000 0.0000 0.0000
# 4 3.0493 -3.0493 0.0000 13.7584 0.0000 0.0001
# 5 -0.0001 0.0001 0.0000 0.0000 13.7584 3.0493
# 6 0.0000 0.0000 0.0000 0.0001 3.0493 66.1681
#
#
#
# Elastic Compliance Matrix: (Units=1/GPa)
#
#
# Indices 1 2 3 4 5 6 
#
# 1 0.005793 -0.001842 -0.001571 -0.001692 0.000000 0.000000
# 2 -0.001842 0.005793 -0.001571 0.001692 0.000000 0.000000
# 3 -0.001571 -0.001571 0.009064 0.000000 0.000000 0.000000
# 4 -0.001692 0.001692 0.000000 0.073433 0.000000 0.000000
# 5 0.000000 0.000000 0.000000 0.000000 0.073433 -0.003384
# 6 0.000000 0.000000 0.000000 0.000000 -0.003384 0.015269
#
#
# Mechanical properties :
#
#
# Convention : Reuss Voigt Hill
#
# Bulk Modulus (GPa) = 93.61402 102.06486 97.83944
# Shear Modulus (GPa) = 25.46946 43.50158 34.48552
#
# Velocity S-wave (km/s) = 3.13116 4.09212 3.64346
# Velocity P-wave (km/s) = 7.00771 7.84959 7.44056
#
# Compressibility (1/GPa) = 0.01068216
#
# Stress axis : x y z
#
# Youngs Moduli (GPa) = 172.62360 172.62360 110.32073
#
# Poissons Ratio (x) = 0.31789 0.17335
# Poissons Ratio (y) = 0.31789 0.17335
# Poissons Ratio (z) = 0.27124 0.27124
#
# Static dielectric constant tensor:
#      x y z
#    x 2.072870 0.000000 0.000000 
#    y 0.000000 2.072870 0.000000 
#    z 0.000000 0.000000 2.662500 
# 
# From -- ./inp_files/2294.got.cif
#   From: 2010.05.17/outbox.cif.g08.bks.cpg/sg152_2_cif.got.tgz:2294.got - 2010.05.20 10:36:06.
