data_PCOD9576478
_publ_section_title
;
Structure prediction by ZEFSAII (Michael W. Deem and Ramdas Pophale) SiO2 
 PCOD9576478
Probable space group: P 32 2 1
;
_chemical_formula_sum "Si O2"
_cell_formula_units_Z 33
_cell_length_a 8.096334
_cell_length_b 8.096334
_cell_length_c 25.746447
_cell_angle_alpha 90.000000
_cell_angle_beta 90.000000
_cell_angle_gamma 120.000000
_cell_volume 1461.587327
_symmetry_space_group_name_H-M "P 32 2 1"
_symmetry_group_IT_number 154
_symmetry_cell_setting 'hexagonal'
loop_
_space_group_symop_operation_xyz
x,y,z
-y,x-y,2/3+z
-x+y,-x,1/3+z
x-y,-y,1/3-z
-x,-x+y,2/3-z
y,x,-z
loop_
_atom_site_type_symbol
_atom_site_label
_atom_site_fract_x
_atom_site_fract_y
_atom_site_fract_z
Si Si1 0.921309 0.949623 0.249466
Si Si2 0.690586 0.357494 0.114508
Si Si3 0.821621 0.172948 0.933717
Si Si4 0.689342 0.000000 0.166667
Si Si5 0.292095 0.323903 0.841814
Si Si6 0.394798 0.954013 0.972859
O O1 0.969302 0.835677 0.206340
O O2 0.758275 0.779407 0.283932
O O3 0.123721 0.094717 0.275948
O O4 0.833388 0.055986 0.216101
O O5 0.673791 0.174815 0.143987
O O6 0.497326 0.361873 0.118683
O O7 0.853041 0.537936 0.145988
O O8 0.763764 0.363141 0.056363
O O9 0.814621 0.179365 0.871880
O O10 0.608899 0.100046 0.955098
O O11 0.946130 0.365933 0.965476
#
# Coordination Sequence:
#
# PCOD9576478 Si02
#       6
#     6   6   6   3   6   6
#     4  11  22  43  67  94 130 176 226 283 341 410
#     4  10  23  38  64  95 132 169 221 282 332 407
#     4  11  23  41  68  92 135 175 218 281 346 409
#     4  10  20  36  60  98 126 164 228 274 330 404
#     4  11  22  41  68  96 126 178 226 278 338 406
#     4  10  25  42  64  97 137 174 224 282 342 418
#
# _framework density 22.578192999999999
#
# number of rings (size 3 to 8) (size 9 to 14) (size 15 to 20)
#    0.000    1.455    1.818    3.818    7.636    1.455 
#    0.000    0.000    8.000    0.000    0.000    0.000 
#    0.000    0.000    0.000    0.000    0.000    0.000 
#
# Total GULP energy -184330.890145 kJ/mol
# GULP energy per Si atom -5585.784550 kJ/mol
# Density = 2.252680 g / cm^3
# Si number density = 22.578193 Si / 1000 Ang^3
#
#
#
# Elastic Constant Matrix: (Units=GPa)
#
#
# Indices 1 2 3 4 5 6 
#
# 1 51.7447 -4.9577 0.8325 2.1111 0.0000 0.0000
# 2 -4.9577 51.7447 0.8325 -2.1111 0.0000 0.0000
# 3 0.8325 0.8325 59.2249 0.0000 0.0000 0.0000
# 4 2.1111 -2.1111 0.0000 13.0378 0.0000 0.0000
# 5 0.0000 0.0000 0.0000 0.0000 13.0378 2.1111
# 6 0.0000 0.0000 0.0000 0.0000 2.1111 28.3512
#
#
#
# Elastic Compliance Matrix: (Units=1/GPa)
#
#
# Indices 1 2 3 4 5 6 
#
# 1 0.019618 0.001766 -0.000301 -0.002890 0.000000 0.000000
# 2 0.001766 0.019618 -0.000301 0.002890 0.000000 0.000000
# 3 -0.000301 -0.000301 0.016893 0.000000 0.000000 0.000000
# 4 -0.002890 0.002890 0.000000 0.077636 0.000000 0.000000
# 5 0.000000 0.000000 0.000000 0.000000 0.077636 -0.005781
# 6 0.000000 0.000000 0.000000 0.000000 -0.005781 0.035702
#
#
# Mechanical properties :
#
#
# Convention : Reuss Voigt Hill
#
# Bulk Modulus (GPa) = 17.10595 17.34766 17.22680
# Shear Modulus (GPa) = 18.92087 21.95251 20.43669
#
# Velocity S-wave (km/s) = 2.89799 3.12154 3.01184
# Velocity P-wave (km/s) = 4.33481 4.54885 4.44312
#
# Compressibility (1/GPa) = 0.05845919
#
# Stress axis : x y z
#
# Youngs Moduli (GPa) = 50.97449 50.97449 59.19523
#
# Poissons Ratio (x) = -0.09005 0.01779
# Poissons Ratio (y) = -0.09005 0.01779
# Poissons Ratio (z) = 0.01532 0.01532
#
# Static dielectric constant tensor:
#      x y z
#    x 1.861490 0.000000 0.000000 
#    y 0.000000 1.861490 0.000000 
#    z 0.000000 0.000000 1.839250 
# 
# From -- ./inp_files/3420.got.cif
#   From: 2010.05.17/outbox.cif.g08.bks.cpg/sg154_2_cif.got.tgz:3420.got - 2010.05.20 10:41:43.
