data_PCOD9576726
_publ_section_title
;
Structure prediction by ZEFSAII (Michael W. Deem and Ramdas Pophale) SiO2 
 PCOD9576726
Probable space group: P 32 2 1
;
_chemical_formula_sum "Si O2"
_cell_formula_units_Z 24
_cell_length_a 14.920833
_cell_length_b 14.920833
_cell_length_c 5.311841
_cell_angle_alpha 90.000000
_cell_angle_beta 90.000000
_cell_angle_gamma 120.000000
_cell_volume 1024.145916
_symmetry_space_group_name_H-M "P 32 2 1"
_symmetry_group_IT_number 154
_symmetry_cell_setting 'hexagonal'
loop_
_space_group_symop_operation_xyz
x,y,z
-y,x-y,2/3+z
-x+y,-x,1/3+z
x-y,-y,1/3-z
-x,-x+y,2/3-z
y,x,-z
loop_
_atom_site_type_symbol
_atom_site_label
_atom_site_fract_x
_atom_site_fract_y
_atom_site_fract_z
Si Si1 0.441835 0.722632 0.436715
Si Si2 0.938237 0.648340 0.595037
Si Si3 0.056397 0.228214 0.583460
Si Si4 0.387757 0.941730 0.911228
O O1 0.390496 0.647843 0.671110
O O2 0.544214 0.831740 0.470051
O O3 0.473697 0.654552 0.257095
O O4 0.904306 0.727711 0.704491
O O5 0.000000 0.686664 0.333334
O O6 0.000000 0.637752 0.833334
O O7 0.047976 0.332635 0.571135
O O8 0.000000 0.164896 0.333334
O O9 0.000000 0.167624 0.833334
O O10 0.454476 0.000000 0.666667
O O11 0.443702 0.000000 0.166667
#
# Coordination Sequence:
#
# PCOD9576726 Si02
#       4
#     6   6   6   6
#     4  11  28  47  68  99 146 190 244 310 371 438
#     4  11  25  46  73 106 148 193 243 301 366 438
#     4   9  17  35  67 100 133 172 222 280 345 417
#     4   9  20  40  67  95 123 169 226 283 348 423
#
# _framework density 23.434162000000001
#
# number of rings (size 3 to 8) (size 9 to 14) (size 15 to 20)
#    0.000    2.000    0.000    1.500    7.000    5.000 
#    0.000    0.000    0.000    7.500    0.000    0.000 
#    0.000    0.000    0.000    0.000    0.000    0.000 
#
# Total GULP energy -134166.523093 kJ/mol
# GULP energy per Si atom -5590.271796 kJ/mol
# Density = 2.338082 g / cm^3
# Si number density = 23.434162 Si / 1000 Ang^3
#
#
#
# Elastic Constant Matrix: (Units=GPa)
#
#
# Indices 1 2 3 4 5 6 
#
# 1 94.0436 91.0383 69.9007 -24.7771 0.0002 0.0000
# 2 91.0383 94.0436 69.9007 24.7771 -0.0002 0.0000
# 3 69.9007 69.9007 189.5009 0.0000 0.0000 0.0000
# 4 -24.7771 24.7771 0.0000 16.6493 0.0000 -0.0002
# 5 0.0002 -0.0002 0.0000 0.0000 16.6493 -24.7771
# 6 0.0000 0.0000 0.0000 -0.0002 -24.7771 1.5027
#
#
#
# Elastic Compliance Matrix: (Units=1/GPa)
#
#
# Indices 1 2 3 4 5 6 
#
# 1 -0.003323 0.010813 -0.002763 -0.021037 0.000000 0.000000
# 2 0.010813 -0.003323 -0.002763 0.021037 0.000000 0.000000
# 3 -0.002763 -0.002763 0.007315 0.000000 0.000000 0.000000
# 4 -0.021037 0.021037 0.000000 -0.002552 0.000000 0.000000
# 5 0.000000 0.000000 0.000000 0.000000 -0.002552 -0.042074
# 6 0.000000 0.000000 0.000000 0.000000 -0.042074 -0.028272
#
#
# Mechanical properties :
#
#
# Convention : Reuss Voigt Hill
#
# Bulk Modulus (GPa) = 88.93731 93.25192 91.09462
# Shear Modulus (GPa) = -126.47385 16.74347 -54.86519
#
# Velocity S-wave (km/s) = -7.35439 2.67589 -4.84389
# Velocity P-wave (km/s) = 5.83795 7.03042 2.76994
#
# Compressibility (1/GPa) = 0.01124388
#
# Stress axis : x y z
#
# Youngs Moduli (GPa) = -300.91848 -300.91848 136.70155
#
# Poissons Ratio (x) = 3.25384 0.37767
# Poissons Ratio (y) = 3.25384 0.37767
# Poissons Ratio (z) = -0.83137 -0.83137
#
# Static dielectric constant tensor:
#      x y z
#    x 1.780770 0.000000 0.000000 
#    y 0.000000 1.780770 0.000000 
#    z 0.000000 0.000000 1.868690 
# 
# From -- ./inp_files/160.got.cif
#   From: 2010.05.17/outbox.cif.g08.bks.cpg/sg154_1_cif.got.tgz:160.got - 2010.05.20 10:41:43.
