data_PCOD9576257
_publ_section_title
;
Structure prediction by ZEFSAII (Michael W. Deem and Ramdas Pophale) SiO2 
 PCOD9576257
Probable space group: P 32 1 2
;
_chemical_formula_sum "Si O2"
_cell_formula_units_Z 42
_cell_length_a 14.627876
_cell_length_b 14.627876
_cell_length_c 11.448362
_cell_angle_alpha 90.000000
_cell_angle_beta 90.000000
_cell_angle_gamma 120.000000
_cell_volume 2121.468197
_symmetry_space_group_name_H-M "P 32 1 2"
_symmetry_group_IT_number 153
_symmetry_cell_setting 'hexagonal'
loop_
_space_group_symop_operation_xyz
x,y,z
-y,x-y,2/3+z
-x+y,-x,1/3+z
-y,-x,1/3-z
-x+y,y,2/3-z
x,x-y,-z
loop_
_atom_site_type_symbol
_atom_site_label
_atom_site_fract_x
_atom_site_fract_y
_atom_site_fract_z
Si Si1 0.708909 0.956922 0.262310
Si Si2 0.835865 0.851061 0.274525
Si Si3 0.626373 0.461330 0.293551
Si Si4 0.509991 0.668586 0.581030
Si Si5 0.881478 0.307549 0.236194
Si Si6 0.851170 0.691745 0.101263
Si Si7 0.668770 0.651383 0.407520
O O1 0.784737 0.914728 0.217537
O O2 0.606681 0.867531 0.330210
O O3 0.672563 0.017226 0.172447
O O4 0.786450 0.045795 0.353286
O O5 0.843614 0.777434 0.177666
O O6 0.749052 0.772843 0.370705
O O7 0.953003 0.906005 0.333334
O O8 0.589081 0.410920 0.166667
O O9 0.725606 0.451211 0.333334
O O10 0.535576 0.405028 0.391828
O O11 0.644105 0.579713 0.293679
O O12 0.419786 0.580215 0.666667
O O13 0.475521 0.737761 0.500000
O O14 0.569776 0.632895 0.485909
O O15 0.777674 0.222327 0.166667
O O16 0.880378 0.249129 0.354441
O O17 0.876679 0.619070 0.184532
#
# Coordination Sequence:
#
# PCOD9576257 Si02
#       7
#     6   6   6   6   6   6   6
#     4  10  21  39  60  89 125 166 212 260 315 384
#     4  10  19  35  59  87 120 160 208 257 311 377
#     4  12  23  37  60  91 124 162 210 257 318 380
#     4  11  22  41  69  90 119 163 218 269 326 381
#     4  10  21  38  54  83 127 165 204 249 310 372
#     4   9  20  36  57  84 122 160 204 257 303 379
#     4  10  20  37  61  89 118 157 205 256 316 373
#
# _framework density 19.797609999999999
#
# number of rings (size 3 to 8) (size 9 to 14) (size 15 to 20)
#    0.000    1.714    1.429    4.286    0.000    0.571 
#    7.714    4.286    3.143    0.000    0.000    0.000 
#    0.000    0.000    0.000    0.000    0.000    0.000 
#
# Total GULP energy -234015.430304 kJ/mol
# GULP energy per Si atom -5571.795960 kJ/mol
# Density = 1.975255 g / cm^3
# Si number density = 19.797610 Si / 1000 Ang^3
#
#
#
# Elastic Constant Matrix: (Units=GPa)
#
#
# Indices 1 2 3 4 5 6 
#
# 1 79.0990 50.5093 28.1753 -0.0004 -0.0265 0.0000
# 2 50.5093 79.0990 28.1753 0.0004 0.0265 0.0000
# 3 28.1753 28.1753 74.1297 0.0000 0.0000 0.0000
# 4 -0.0004 0.0004 0.0000 20.2315 0.0000 0.0265
# 5 -0.0265 0.0265 0.0000 0.0000 20.2315 -0.0004
# 6 0.0000 0.0000 0.0000 0.0265 -0.0004 14.2948
#
#
#
# Elastic Compliance Matrix: (Units=1/GPa)
#
#
# Indices 1 2 3 4 5 6 
#
# 1 0.022110 -0.012867 -0.003513 0.000001 0.000046 0.000000
# 2 -0.012867 0.022110 -0.003513 -0.000001 -0.000046 0.000000
# 3 -0.003513 -0.003513 0.016160 0.000000 0.000000 0.000000
# 4 0.000001 -0.000001 0.000000 0.049428 0.000000 -0.000092
# 5 0.000046 -0.000046 0.000000 0.000000 0.049428 0.000002
# 6 0.000000 0.000000 0.000000 -0.000092 0.000002 0.069956
#
#
# Mechanical properties :
#
#
# Convention : Reuss Voigt Hill
#
# Bulk Modulus (GPa) = 48.55784 49.56083 49.05933
# Shear Modulus (GPa) = 18.12617 19.31609 18.72113
#
# Velocity S-wave (km/s) = 3.02913 3.12697 3.07844
# Velocity P-wave (km/s) = 6.06750 6.17457 6.12127
#
# Compressibility (1/GPa) = 0.02059400
#
# Stress axis : x y z
#
# Youngs Moduli (GPa) = 45.22763 45.22763 61.87976
#
# Poissons Ratio (x) = 0.58196 0.21739
# Poissons Ratio (y) = 0.58196 0.21739
# Poissons Ratio (z) = 0.15889 0.15889
#
# Static dielectric constant tensor:
#      x y z
#    x 1.747210 0.000000 0.000000 
#    y 0.000000 1.747210 0.000000 
#    z 0.000000 0.000000 1.730050 
# 
# From -- ./inp_files/2612.got.cif
#   From: 2010.05.17/outbox.cif.g08.bks.cpg/sg153_2_cif.got.tgz:2612.got - 2010.05.20 10:38:56.
