data_PCOD9576734
_publ_section_title
;
Structure prediction by ZEFSAII (Michael W. Deem and Ramdas Pophale) SiO2 
 PCOD9576734
Probable space group: P 32 2 1
;
_chemical_formula_sum "Si O2"
_cell_formula_units_Z 21
_cell_length_a 8.463712
_cell_length_b 8.463712
_cell_length_c 13.778022
_cell_angle_alpha 90.000000
_cell_angle_beta 90.000000
_cell_angle_gamma 120.000000
_cell_volume 854.750295
_symmetry_space_group_name_H-M "P 32 2 1"
_symmetry_group_IT_number 154
_symmetry_cell_setting 'hexagonal'
loop_
_space_group_symop_operation_xyz
x,y,z
-y,x-y,2/3+z
-x+y,-x,1/3+z
x-y,-y,1/3-z
-x,-x+y,2/3-z
y,x,-z
loop_
_atom_site_type_symbol
_atom_site_label
_atom_site_fract_x
_atom_site_fract_y
_atom_site_fract_z
Si Si1 0.329399 0.696940 0.016221
Si Si2 0.000000 0.895235 0.333334
Si Si3 0.208708 0.397567 0.865982
Si Si4 0.264409 0.291338 0.607068
O O1 0.210151 0.675118 0.113024
O O2 0.538822 0.855524 0.030242
O O3 0.286570 0.509002 0.967071
O O4 0.221450 0.746363 0.936997
O O5 0.011491 0.800079 0.233733
O O6 0.832571 0.931511 0.342943
O O7 0.000000 0.340884 0.833334
O O8 0.214373 0.214373 0.500000
#
# Coordination Sequence:
#
# PCOD9576734 Si02
#       4
#     6   3   6   6
#     4  12  23  49  77 106 154 200 256 313 395 448
#     4  12  28  50  74 110 162 198 266 314 394 462
#     4  12  25  50  75 112 155 205 251 328 382 463
#     4  12  25  47  74 110 147 203 254 321 383 466
#
# _framework density 24.568580999999998
#
# number of rings (size 3 to 8) (size 9 to 14) (size 15 to 20)
#    0.000    0.000    8.571    0.857    0.000    3.429 
#   10.286    0.000    0.000    0.000    0.000    0.000 
#    0.000    0.000    0.000    0.000    0.000    0.000 
#
# Total GULP energy -116927.603759 kJ/mol
# GULP energy per Si atom -5567.981131 kJ/mol
# Density = 2.451266 g / cm^3
# Si number density = 24.568581 Si / 1000 Ang^3
#
#
#
# Elastic Constant Matrix: (Units=GPa)
#
#
# Indices 1 2 3 4 5 6 
#
# 1 64.6118 41.2890 26.2041 -8.7598 0.0001 0.0000
# 2 41.2890 64.6118 26.2041 8.7598 -0.0001 0.0000
# 3 26.2041 26.2041 141.4539 0.0000 0.0000 0.0000
# 4 -8.7598 8.7598 0.0000 29.3399 0.0000 -0.0001
# 5 0.0001 -0.0001 0.0000 0.0000 29.3399 -8.7598
# 6 0.0000 0.0000 0.0000 -0.0001 -8.7598 11.6614
#
#
#
# Elastic Compliance Matrix: (Units=1/GPa)
#
#
# Indices 1 2 3 4 5 6 
#
# 1 0.032834 -0.022438 -0.001926 0.016502 0.000000 0.000000
# 2 -0.022438 0.032834 -0.001926 -0.016502 0.000000 0.000000
# 3 -0.001926 -0.001926 0.007783 0.000000 0.000000 0.000000
# 4 0.016502 -0.016502 0.000000 0.043937 0.000000 0.000000
# 5 0.000000 0.000000 0.000000 0.000000 0.043937 0.033004
# 6 0.000000 0.000000 0.000000 0.000000 0.033004 0.110545
#
#
# Mechanical properties :
#
#
# Convention : Reuss Voigt Hill
#
# Bulk Modulus (GPa) = 47.91247 50.89688 49.40467
# Shear Modulus (GPa) = 15.08715 25.86692 20.47704
#
# Velocity S-wave (km/s) = 2.48076 3.24828 2.89011
# Velocity P-wave (km/s) = 5.26777 5.90166 5.59370
#
# Compressibility (1/GPa) = 0.02087139
#
# Stress axis : x y z
#
# Youngs Moduli (GPa) = 30.45603 30.45603 128.48597
#
# Poissons Ratio (x) = 0.68338 0.24744
# Poissons Ratio (y) = 0.68338 0.24744
# Poissons Ratio (z) = 0.05865 0.05865
#
# Static dielectric constant tensor:
#      x y z
#    x 2.230390 0.000000 0.000000 
#    y 0.000000 2.230390 0.000000 
#    z 0.000000 0.000000 2.011500 
# 
# From -- ./inp_files/2271.got.cif
#   From: 2010.05.17/outbox.cif.g08.bks.cpg/sg154_2_cif.got.tgz:2271.got - 2010.05.20 10:41:43.
