data_PCOD9576292
_publ_section_title
;
Structure prediction by ZEFSAII (Michael W. Deem and Ramdas Pophale) SiO2 
 PCOD9576292
Probable space group: P 32 1 2
;
_chemical_formula_sum "Si O2"
_cell_formula_units_Z 39
_cell_length_a 9.455358
_cell_length_b 9.455358
_cell_length_c 25.287057
_cell_angle_alpha 90.000000
_cell_angle_beta 90.000000
_cell_angle_gamma 120.000000
_cell_volume 1957.874603
_symmetry_space_group_name_H-M "P 32 1 2"
_symmetry_group_IT_number 153
_symmetry_cell_setting 'hexagonal'
loop_
_space_group_symop_operation_xyz
x,y,z
-y,x-y,2/3+z
-x+y,-x,1/3+z
-y,-x,1/3-z
-x+y,y,2/3-z
x,x-y,-z
loop_
_atom_site_type_symbol
_atom_site_label
_atom_site_fract_x
_atom_site_fract_y
_atom_site_fract_z
Si Si1 0.928383 0.050832 0.883713
Si Si2 0.623927 0.116716 0.275227
Si Si3 0.360826 0.427753 0.808700
Si Si4 0.122262 0.202017 0.606293
Si Si5 0.790715 0.474051 0.227695
Si Si6 0.630317 0.673988 0.177855
Si Si7 0.834446 0.165555 0.666667
O O1 0.002232 0.004463 0.833334
O O2 0.008655 0.244547 0.879233
O O3 0.736199 0.973829 0.874348
O O4 0.992754 0.985620 0.930125
O O5 0.570691 0.141381 0.333334
O O6 0.692173 0.281403 0.239992
O O7 0.479139 0.971995 0.241126
O O8 0.755283 0.059527 0.284068
O O9 0.245668 0.491335 0.833334
O O10 0.467205 0.414942 0.856863
O O11 0.122234 0.307310 0.555347
O O12 0.021756 0.238799 0.649359
O O13 0.690808 0.551296 0.199751
O O14 0.832950 0.561727 0.284403
O O15 0.439760 0.560241 0.166667
#
# Coordination Sequence:
#
# PCOD9576292 Si02
#       7
#     6   6   6   6   6   6   3
#     4   8  16  34  59  89 113 155 207 247 291 371
#     4  12  26  40  58  96 132 164 208 269 323 374
#     4  10  21  38  67  93 123 168 210 259 313 389
#     4  10  23  37  60  84 123 162 201 260 310 376
#     4  10  20  39  64  90 123 163 211 255 310 384
#     4   9  17  34  62  90 116 152 203 254 306 371
#     4  10  20  40  64  90 116 166 214 258 320 364
#
# _framework density 19.919561999999999
#
# number of rings (size 3 to 8) (size 9 to 14) (size 15 to 20)
#    0.000    2.154    0.769    5.077    4.308    4.308 
#    0.000    0.000    0.000    0.000    0.000    0.000 
#    0.000    0.000    0.000    0.000    0.000    0.000 
#
# Total GULP energy -217409.393760 kJ/mol
# GULP energy per Si atom -5574.599840 kJ/mol
# Density = 1.987422 g / cm^3
# Si number density = 19.919562 Si / 1000 Ang^3
#
#
#
# Elastic Constant Matrix: (Units=GPa)
#
#
# Indices 1 2 3 4 5 6 
#
# 1 72.6131 44.8375 17.7174 -0.0004 4.6817 0.0000
# 2 44.8375 72.6131 17.7174 0.0004 -4.6817 0.0000
# 3 17.7174 17.7174 70.8905 0.0000 0.0000 0.0000
# 4 -0.0004 0.0004 0.0000 5.7449 0.0000 -4.6817
# 5 4.6817 -4.6817 0.0000 0.0000 5.7449 -0.0004
# 6 0.0000 0.0000 0.0000 -4.6817 -0.0004 13.8878
#
#
#
# Elastic Compliance Matrix: (Units=1/GPa)
#
#
# Indices 1 2 3 4 5 6 
#
# 1 0.029424 -0.020216 -0.002301 0.000003 -0.040453 0.000000
# 2 -0.020216 0.029424 -0.002301 -0.000003 0.040453 0.000000
# 3 -0.002301 -0.002301 0.015257 0.000000 0.000000 0.000000
# 4 0.000003 -0.000003 0.000000 0.240002 0.000000 0.080907
# 5 -0.040453 0.040453 0.000000 0.000000 0.240002 0.000006
# 6 0.000000 0.000000 0.000000 0.080907 0.000006 0.099280
#
#
# Mechanical properties :
#
#
# Convention : Reuss Voigt Hill
#
# Bulk Modulus (GPa) = 40.86979 41.85124 41.36052
# Shear Modulus (GPa) = 7.03056 14.13182 10.58119
#
# Velocity S-wave (km/s) = 1.88073 2.66643 2.30727
# Velocity P-wave (km/s) = 5.02774 5.52590 5.28269
#
# Compressibility (1/GPa) = 0.02446795
#
# Stress axis : x y z
#
# Youngs Moduli (GPa) = 33.98559 33.98559 65.54517
#
# Poissons Ratio (x) = 0.68704 0.15085
# Poissons Ratio (y) = 0.68704 0.15085
# Poissons Ratio (z) = 0.07822 0.07822
#
# Static dielectric constant tensor:
#      x y z
#    x 1.717870 0.000000 0.000000 
#    y 0.000000 1.717870 0.000000 
#    z 0.000000 0.000000 1.712790 
# 
# From -- ./inp_files/5098.got.cif
#   From: 2010.05.17/outbox.cif.g08.bks.cpg/sg153_3_cif.got.tgz:5098.got - 2010.05.20 10:38:56.
