data_PCOD9576852
_publ_section_title
;
Structure prediction by ZEFSAII (Michael W. Deem and Ramdas Pophale) SiO2 
 PCOD9576852
Probable space group: R 3 2
;
_chemical_formula_sum "Si O2"
_cell_formula_units_Z 81
_cell_length_a 17.833025
_cell_length_b 17.833025
_cell_length_c 17.692076
_cell_angle_alpha 90.000000
_cell_angle_beta 90.000000
_cell_angle_gamma 120.000000
_cell_volume 4872.585459
_symmetry_space_group_name_H-M "R 3 2"
_symmetry_group_IT_number 155
_symmetry_cell_setting 'hexagonal'
loop_
_space_group_symop_operation_xyz
x,y,z
-y,x-y,z
-x+y,-x,z
x-y,-y,-z
-x,-x+y,-z
y,x,-z
2/3+x,1/3+y,1/3+z
2/3-y,1/3+x-y,1/3+z
2/3-x+y,1/3-x,1/3+z
2/3+x-y,1/3-y,1/3-z
2/3-x,1/3-x+y,1/3-z
2/3+y,1/3+x,1/3-z
1/3+x,2/3+y,2/3+z
1/3-y,2/3+x-y,2/3+z
1/3-x+y,2/3-x,2/3+z
1/3+x-y,2/3-y,2/3-z
1/3-x,2/3-x+y,2/3-z
1/3+y,2/3+x,2/3-z
loop_
_atom_site_type_symbol
_atom_site_label
_atom_site_fract_x
_atom_site_fract_y
_atom_site_fract_z
Si Si1 0.388955 0.521633 0.876482
Si Si2 0.592815 0.033021 0.277041
Si Si3 0.690212 0.777955 0.956358
Si Si4 0.527183 0.719649 0.854018
Si Si5 0.000000 0.589591 0.000000
O O1 0.400163 0.473010 0.804388
O O2 0.446197 0.624058 0.862901
O O3 0.287926 0.493793 0.878543
O O4 0.418734 0.488818 0.949652
O O5 0.666667 0.102452 0.333334
O O6 0.503505 0.009174 0.316845
O O7 0.614391 0.955350 0.279343
O O8 0.604165 0.727891 0.906903
O O9 0.767212 0.837817 0.897605
O O10 0.716702 0.716702 0.000000
#
# Coordination Sequence:
#
# PCOD9576852 Si02
#       5
#    18  18  18  18   9
#     4  12  22  38  58  89 113 154 189 239 291 342
#     4  10  19  35  61  82 114 146 193 237 278 343
#     4  11  21  38  55  83 117 150 181 238 294 347
#     4  11  23  36  57  83 120 146 187 238 295 338
#     4  10  22  36  58  80 116 152 202 228 264 348
#
# _framework density 16.623619000000001
#
# number of rings (size 3 to 8) (size 9 to 14) (size 15 to 20)
#    0.667    0.444    6.667    1.111    4.667    0.000 
#    0.000    0.000    0.000    0.000    0.000    0.000 
#    0.000    0.000    0.000    0.000    0.000    0.000 
#
# Total GULP energy -150528.752759 kJ/mol
# GULP energy per Si atom -5575.138991 kJ/mol
# Density = 1.658578 g / cm^3
# Si number density = 16.623619 Si / 1000 Ang^3
#
#
#
# Elastic Constant Matrix: (Units=GPa)
#
#
# Indices 1 2 3 4 5 6 
#
# 1 61.8512 13.0005 23.2898 -4.1161 0.0000 0.0000
# 2 13.0005 61.8512 23.2898 4.1161 0.0000 0.0000
# 3 23.2898 23.2898 73.4780 0.0000 0.0000 0.0000
# 4 -4.1161 4.1161 0.0000 28.4697 0.0000 0.0000
# 5 0.0000 0.0000 0.0000 0.0000 28.4697 -4.1161
# 6 0.0000 0.0000 0.0000 0.0000 -4.1161 24.4253
#
#
#
# Elastic Compliance Matrix: (Units=1/GPa)
#
#
# Indices 1 2 3 4 5 6 
#
# 1 0.018812 -0.002170 -0.005275 0.003033 0.000000 0.000000
# 2 -0.002170 0.018812 -0.005275 -0.003033 0.000000 0.000000
# 3 -0.005275 -0.005275 0.016954 0.000000 0.000000 0.000000
# 4 0.003033 -0.003033 0.000000 0.036002 0.000000 0.000000
# 5 0.000000 0.000000 0.000000 0.000000 0.036002 0.006067
# 6 0.000000 0.000000 0.000000 0.000000 0.006067 0.041963
#
#
# Mechanical properties :
#
#
# Convention : Reuss Voigt Hill
#
# Bulk Modulus (GPa) = 34.31928 35.14896 34.73412
# Shear Modulus (GPa) = 24.54617 25.44627 24.99622
#
# Velocity S-wave (km/s) = 3.84680 3.91670 3.88191
# Velocity P-wave (km/s) = 6.35769 6.45321 6.40563
#
# Compressibility (1/GPa) = 0.02913814
#
# Stress axis : x y z
#
# Youngs Moduli (GPa) = 53.15742 53.15742 58.98486
#
# Poissons Ratio (x) = 0.11534 0.31115
# Poissons Ratio (y) = 0.11534 0.31115
# Poissons Ratio (z) = 0.28041 0.28041
#
# Static dielectric constant tensor:
#      x y z
#    x 1.550510 0.000000 0.000000 
#    y 0.000000 1.550510 0.000000 
#    z 0.000000 0.000000 1.550110 
# 
# From -- ./inp_files/6882.got.cif
#   From: 2010.05.17/outbox.cif.g08.bks.cpg/sg155_4_cif.got.tgz:6882.got - 2010.05.20 10:44:35.
