data_PCOD9576939
_publ_section_title
;
Structure prediction by ZEFSAII (Michael W. Deem and Ramdas Pophale) SiO2 
 PCOD9576939
Probable space group: R 3 2
;
_chemical_formula_sum "Si O2"
_cell_formula_units_Z 135
_cell_length_a 17.372974
_cell_length_b 17.372974
_cell_length_c 24.801722
_cell_angle_alpha 90.000000
_cell_angle_beta 90.000000
_cell_angle_gamma 120.000000
_cell_volume 6482.772875
_symmetry_space_group_name_H-M "R 3 2"
_symmetry_group_IT_number 155
_symmetry_cell_setting 'hexagonal'
loop_
_space_group_symop_operation_xyz
x,y,z
-y,x-y,z
-x+y,-x,z
x-y,-y,-z
-x,-x+y,-z
y,x,-z
2/3+x,1/3+y,1/3+z
2/3-y,1/3+x-y,1/3+z
2/3-x+y,1/3-x,1/3+z
2/3+x-y,1/3-y,1/3-z
2/3-x,1/3-x+y,1/3-z
2/3+y,1/3+x,1/3-z
1/3+x,2/3+y,2/3+z
1/3-y,2/3+x-y,2/3+z
1/3-x+y,2/3-x,2/3+z
1/3+x-y,2/3-y,2/3-z
1/3-x,2/3-x+y,2/3-z
1/3+y,2/3+x,2/3-z
loop_
_atom_site_type_symbol
_atom_site_label
_atom_site_fract_x
_atom_site_fract_y
_atom_site_fract_z
Si Si1 0.906424 0.102233 0.143129
Si Si2 0.090537 0.471747 0.940697
Si Si3 0.898651 0.599508 0.979657
Si Si4 0.160845 0.494178 0.166667
Si Si5 0.239086 0.753524 0.493772
Si Si6 0.303438 0.145132 0.252752
Si Si7 0.782158 0.867610 0.389662
Si Si8 0.799835 0.097449 0.471997
O O1 0.862715 0.111556 0.198640
O O2 0.858167 0.119451 0.093886
O O3 0.010015 0.175549 0.142561
O O4 0.894223 0.005639 0.149676
O O5 0.153241 0.553645 0.901716
O O6 0.094977 0.384347 0.925558
O O7 0.990364 0.454236 0.933517
O O8 0.128197 0.494946 0.000980
O O9 0.873155 0.501162 0.960659
O O10 0.887925 0.641438 0.924599
O O11 0.841751 0.603575 0.029065
O O12 0.000000 0.647929 0.000000
O O13 0.175507 0.542927 0.108045
O O14 0.172584 0.411415 0.148299
O O15 0.147915 0.753545 0.502211
O O16 0.762600 0.000000 0.500000
#
# Coordination Sequence:
#
# PCOD9576939 Si02
#       8
#    18  18  18   9  18  18  18  18
#     4  10  23  39  65  98 134 179 227 306 351 424
#     4  10  20  39  62  95 126 177 221 281 338 415
#     4  12  23  43  66 101 135 179 240 289 355 415
#     4  12  24  42  64  98 146 178 236 282 360 430
#     4  11  22  41  66  96 135 176 236 289 368 417
#     4  10  23  38  63  96 134 170 232 285 350 413
#     4  11  22  38  67  92 132 176 223 283 339 414
#     4  12  26  42  69 103 136 194 237 293 353 433
#
# _framework density 20.824421999999998
#
# number of rings (size 3 to 8) (size 9 to 14) (size 15 to 20)
#    0.000    1.067    4.000    2.667    5.600    0.000 
#    0.400    0.000    0.000    2.133    0.000    1.867 
#    0.000    0.000    0.000    0.000    0.000    0.000 
#
# Total GULP energy -250783.011896 kJ/mol
# GULP energy per Si atom -5572.955820 kJ/mol
# Density = 2.077703 g / cm^3
# Si number density = 20.824422 Si / 1000 Ang^3
#
#
#
# Elastic Constant Matrix: (Units=GPa)
#
#
# Indices 1 2 3 4 5 6 
#
# 1 67.2140 33.0086 32.0127 2.0585 0.0000 0.0000
# 2 33.0086 67.2140 32.0127 -2.0585 0.0000 0.0000
# 3 32.0127 32.0127 135.3340 0.0000 0.0000 0.0000
# 4 2.0585 -2.0585 0.0000 31.2882 0.0000 0.0000
# 5 0.0000 0.0000 0.0000 0.0000 31.2882 2.0585
# 6 0.0000 0.0000 0.0000 0.0000 2.0585 17.1027
#
#
#
# Elastic Compliance Matrix: (Units=1/GPa)
#
#
# Indices 1 2 3 4 5 6 
#
# 1 0.020611 -0.008857 -0.002780 -0.001939 0.000000 0.000000
# 2 -0.008857 0.020611 -0.002780 0.001939 0.000000 0.000000
# 3 -0.002780 -0.002780 0.008704 0.000000 0.000000 0.000000
# 4 -0.001939 0.001939 0.000000 0.032216 0.000000 0.000000
# 5 0.000000 0.000000 0.000000 0.000000 0.032216 -0.003878
# 6 0.000000 0.000000 0.000000 0.000000 -0.003878 0.058937
#
#
# Mechanical properties :
#
#
# Convention : Reuss Voigt Hill
#
# Bulk Modulus (GPa) = 47.41356 51.53668 49.47512
# Shear Modulus (GPa) = 23.90488 27.45101 25.67794
#
# Velocity S-wave (km/s) = 3.39178 3.63466 3.51532
# Velocity P-wave (km/s) = 6.17710 6.51277 6.34716
#
# Compressibility (1/GPa) = 0.02109101
#
# Stress axis : x y z
#
# Youngs Moduli (GPa) = 48.51727 48.51727 114.88320
#
# Poissons Ratio (x) = 0.42973 0.31942
# Poissons Ratio (y) = 0.42973 0.31942
# Poissons Ratio (z) = 0.13490 0.13490
#
# Static dielectric constant tensor:
#      x y z
#    x 1.771630 0.000000 0.000000 
#    y 0.000000 1.771630 0.000000 
#    z 0.000000 0.000000 1.761780 
# 
# From -- ./inp_files/7587.got.cif
#   From: 2010.05.17/outbox.cif.g08.bks.cpg/sg155_4_cif.got.tgz:7587.got - 2010.05.20 10:44:35.
