data_PCOD9576393
_publ_section_title
;
Structure prediction by ZEFSAII (Michael W. Deem and Ramdas Pophale) SiO2 
 PCOD9576393
Probable space group: P 32 2 1
;
_chemical_formula_sum "Si O2"
_cell_formula_units_Z 39
_cell_length_a 14.891072
_cell_length_b 14.891072
_cell_length_c 11.807989
_cell_angle_alpha 90.000000
_cell_angle_beta 90.000000
_cell_angle_gamma 120.000000
_cell_volume 2267.558492
_symmetry_space_group_name_H-M "P 32 2 1"
_symmetry_group_IT_number 154
_symmetry_cell_setting 'hexagonal'
loop_
_space_group_symop_operation_xyz
x,y,z
-y,x-y,2/3+z
-x+y,-x,1/3+z
x-y,-y,1/3-z
-x,-x+y,2/3-z
y,x,-z
loop_
_atom_site_type_symbol
_atom_site_label
_atom_site_fract_x
_atom_site_fract_y
_atom_site_fract_z
Si Si1 0.607910 0.769613 0.212028
Si Si2 0.489698 0.739810 0.646711
Si Si3 0.542936 0.995316 0.964070
Si Si4 0.103228 0.527462 0.406441
Si Si5 0.029022 0.355965 0.963093
Si Si6 0.309165 0.532180 0.739079
Si Si7 0.320910 0.320910 0.500000
O O1 0.548152 0.696998 0.104189
O O2 0.670266 0.723586 0.280054
O O3 0.515654 0.753832 0.296671
O O4 0.677609 0.893034 0.192622
O O5 0.463412 0.829404 0.672601
O O6 0.602511 0.751538 0.663657
O O7 0.403660 0.645665 0.718709
O O8 0.470314 0.714596 0.513360
O O9 0.635618 0.099775 0.909016
O O10 0.481368 0.919338 0.861832
O O11 0.459661 0.019747 0.023244
O O12 0.598613 0.967431 0.061835
O O13 0.000000 0.461353 0.333334
O O14 0.000000 0.316820 0.833334
#
# Coordination Sequence:
#
# PCOD9576393 Si02
#       7
#     6   6   6   6   6   6   3
#     4  10  22  36  56  81 112 151 197 248 285 345
#     4  11  21  32  51  78 116 155 189 228 288 357
#     4   9  19  34  53  74 110 148 186 233 278 344
#     4  11  22  36  52  82 124 148 184 235 297 354
#     4  10  18  33  54  78 110 149 195 240 282 339
#     4  10  19  32  50  76 106 151 192 225 273 340
#     4  10  20  38  60  80 110 154 206 236 292 344
#
# _framework density 17.199114999999999
#
# number of rings (size 3 to 8) (size 9 to 14) (size 15 to 20)
#    0.000    1.846    3.846    0.923    0.000    3.692 
#    0.000    0.000    0.000    0.000    0.000    1.077 
#    0.000    0.000    0.000    0.000    0.000    0.000 
#
# Total GULP energy -217189.783300 kJ/mol
# GULP energy per Si atom -5568.968803 kJ/mol
# Density = 1.715997 g / cm^3
# Si number density = 17.199115 Si / 1000 Ang^3
#
#
#
# Elastic Constant Matrix: (Units=GPa)
#
#
# Indices 1 2 3 4 5 6 
#
# 1 72.4463 39.4122 22.3580 1.3378 0.0000 0.0000
# 2 39.4122 72.4463 22.3580 -1.3378 0.0000 0.0000
# 3 22.3580 22.3580 58.1049 0.0000 0.0000 0.0000
# 4 1.3378 -1.3378 0.0000 20.2013 0.0000 0.0000
# 5 0.0000 0.0000 0.0000 0.0000 20.2013 1.3378
# 6 0.0000 0.0000 0.0000 0.0000 1.3378 16.5171
#
#
#
# Elastic Compliance Matrix: (Units=1/GPa)
#
#
# Indices 1 2 3 4 5 6 
#
# 1 0.020500 -0.009935 -0.004065 -0.002016 0.000000 0.000000
# 2 -0.009935 0.020500 -0.004065 0.002016 0.000000 0.000000
# 3 -0.004065 -0.004065 0.020339 0.000000 0.000000 0.000000
# 4 -0.002016 0.002016 0.000000 0.049769 0.000000 0.000000
# 5 0.000000 0.000000 0.000000 0.000000 0.049769 -0.004031
# 6 0.000000 0.000000 0.000000 0.000000 -0.004031 0.060870
#
#
# Mechanical properties :
#
#
# Convention : Reuss Voigt Hill
#
# Bulk Modulus (GPa) = 39.67049 41.25045 40.46047
# Shear Modulus (GPa) = 18.77727 19.30858 19.04292
#
# Velocity S-wave (km/s) = 3.30776 3.35423 3.33108
# Velocity P-wave (km/s) = 6.14035 6.24798 6.19440
#
# Compressibility (1/GPa) = 0.02520765
#
# Stress axis : x y z
#
# Youngs Moduli (GPa) = 48.78056 48.78056 49.16722
#
# Poissons Ratio (x) = 0.48463 0.19988
# Poissons Ratio (y) = 0.48463 0.19988
# Poissons Ratio (z) = 0.19831 0.19831
#
# Static dielectric constant tensor:
#      x y z
#    x 1.609280 0.000000 0.000000 
#    y 0.000000 1.609280 0.000000 
#    z 0.000000 0.000000 1.622940 
# 
# From -- ./inp_files/1671.got.cif
#   From: 2010.05.17/outbox.cif.g08.bks.cpg/sg154_1_cif.got.tgz:1671.got - 2010.05.20 10:41:43.
