data_PCOD9576615
_publ_section_title
;
Structure prediction by ZEFSAII (Michael W. Deem and Ramdas Pophale) SiO2 
 PCOD9576615
Probable space group: P 32 2 1
;
_chemical_formula_sum "Si O2"
_cell_formula_units_Z 18
_cell_length_a 9.508180
_cell_length_b 9.508180
_cell_length_c 6.980675
_cell_angle_alpha 90.000000
_cell_angle_beta 90.000000
_cell_angle_gamma 120.000000
_cell_volume 546.541117
_symmetry_space_group_name_H-M "P 32 2 1"
_symmetry_group_IT_number 154
_symmetry_cell_setting 'hexagonal'
loop_
_space_group_symop_operation_xyz
x,y,z
-y,x-y,2/3+z
-x+y,-x,1/3+z
x-y,-y,1/3-z
-x,-x+y,2/3-z
y,x,-z
loop_
_atom_site_type_symbol
_atom_site_label
_atom_site_fract_x
_atom_site_fract_y
_atom_site_fract_z
Si Si1 0.635247 0.119505 0.833493
Si Si2 0.092586 0.092586 0.500000
Si Si3 0.543683 0.729449 0.150940
Si Si4 0.000000 0.433403 0.833334
O O1 0.557964 0.217204 0.713500
O O2 0.633561 0.000000 0.666667
O O3 0.640751 0.144100 0.082433
O O4 0.435314 0.960715 0.914488
O O5 0.124714 0.269682 0.446309
O O6 0.969674 0.000000 0.666667
O O7 0.592200 0.755445 0.489106
#
# Coordination Sequence:
#
# PCOD9576615 Si02
#       4
#     6   3   6   3
#     4  10  24  45  71 104 150 206 265 345 427 519
#     4  12  26  46  78 116 156 210 274 348 430 520
#     4  11  25  46  71 108 152 204 272 344 434 525
#     4  10  22  42  66  98 142 190 250 324 406 508
#
# _framework density 32.934392000000003
#
# number of rings (size 3 to 8) (size 9 to 14) (size 15 to 20)
#    0.000    1.333    0.000    5.000    0.000   14.667 
#    0.000    6.667    0.000    0.000    0.000    0.000 
#    0.000    0.000    0.000    0.000    0.000    0.000 
#
# Total GULP energy -100582.988392 kJ/mol
# GULP energy per Si atom -5587.943800 kJ/mol
# Density = 3.285943 g / cm^3
# Si number density = 32.934392 Si / 1000 Ang^3
#
#
#
# Elastic Constant Matrix: (Units=GPa)
#
#
# Indices 1 2 3 4 5 6 
#
# 1 270.5346 120.1815 123.5213 8.2263 0.0001 0.0000
# 2 120.1815 270.5346 123.5213 -8.2263 -0.0001 0.0000
# 3 123.5213 123.5213 243.9716 0.0000 0.0000 0.0000
# 4 8.2263 -8.2263 0.0000 90.4331 0.0000 -0.0001
# 5 0.0001 -0.0001 0.0000 0.0000 90.4331 8.2263
# 6 0.0000 0.0000 0.0000 -0.0001 8.2263 75.1766
#
#
#
# Elastic Compliance Matrix: (Units=1/GPa)
#
#
# Indices 1 2 3 4 5 6 
#
# 1 0.005241 -0.001477 -0.001906 -0.000611 0.000000 0.000000
# 2 -0.001477 0.005241 -0.001906 0.000611 0.000000 0.000000
# 3 -0.001906 -0.001906 0.006029 0.000000 0.000000 0.000000
# 4 -0.000611 0.000611 0.000000 0.011169 0.000000 0.000000
# 5 0.000000 0.000000 0.000000 0.000000 0.011169 -0.001222
# 6 0.000000 0.000000 0.000000 0.000000 -0.001222 0.013436
#
#
# Mechanical properties :
#
#
# Convention : Reuss Voigt Hill
#
# Bulk Modulus (GPa) = 168.52048 168.83212 168.67630
# Shear Modulus (GPa) = 77.11264 79.06298 78.08781
#
# Velocity S-wave (km/s) = 4.84405 4.90493 4.87459
# Velocity P-wave (km/s) = 9.08659 9.13522 9.11094
#
# Compressibility (1/GPa) = 0.00593400
#
# Stress axis : x y z
#
# Youngs Moduli (GPa) = 190.79646 190.79646 165.87127
#
# Poissons Ratio (x) = 0.28175 0.31614
# Poissons Ratio (y) = 0.28175 0.31614
# Poissons Ratio (z) = 0.36365 0.36365
#
# Static dielectric constant tensor:
#      x y z
#    x 2.488860 0.000000 0.000000 
#    y 0.000000 2.488860 0.000000 
#    z 0.000000 0.000000 4.171340 
# 
# From -- ./inp_files/120.got.cif
#   From: 2010.05.17/outbox.cif.g08.bks.cpg/sg154_1_cif.got.tgz:120.got - 2010.05.20 10:41:43.
