data_PCOD9576158
_publ_section_title
;
Structure prediction by ZEFSAII (Michael W. Deem and Ramdas Pophale) SiO2 
 PCOD9576158
Probable space group: P 31 2 1
;
_chemical_formula_sum "Si O2"
_cell_formula_units_Z 42
_cell_length_a 8.514311
_cell_length_b 8.514311
_cell_length_c 29.127264
_cell_angle_alpha 90.000000
_cell_angle_beta 90.000000
_cell_angle_gamma 120.000000
_cell_volume 1828.644747
_symmetry_space_group_name_H-M "P 31 2 1"
_symmetry_group_IT_number 152
_symmetry_cell_setting 'hexagonal'
loop_
_space_group_symop_operation_xyz
x,y,z
-y,x-y,1/3+z
-x+y,-x,2/3+z
x-y,-y,2/3-z
-x,-x+y,1/3-z
y,x,-z
loop_
_atom_site_type_symbol
_atom_site_label
_atom_site_fract_x
_atom_site_fract_y
_atom_site_fract_z
Si Si1 0.239113 0.610902 0.941012
Si Si2 0.031664 0.599677 0.316669
Si Si3 0.984355 0.524267 0.576197
Si Si4 0.668129 0.000000 0.833334
Si Si5 0.000608 0.609352 0.864950
Si Si6 0.124660 0.000000 0.333334
Si Si7 0.994447 0.159295 0.568884
Si Si8 0.749688 0.415072 0.239665
O O1 0.389670 0.804715 0.961020
O O2 0.321835 0.479487 0.935513
O O3 0.180574 0.643342 0.890920
O O4 0.068146 0.533292 0.974734
O O5 0.114681 0.805951 0.333046
O O6 0.873515 0.549380 0.279365
O O7 0.986780 0.338161 0.584522
O O8 0.785435 0.485318 0.588791
O O9 0.002799 0.564467 0.521557
O O10 0.625176 0.137724 0.859695
O O11 0.827680 0.076392 0.795610
O O12 0.961399 0.773568 0.873279
O O13 0.842022 0.436704 0.891905
O O14 0.055210 0.000586 0.385312
#
# Coordination Sequence:
#
# PCOD9576158 Si02
#       8
#     6   6   6   3   6   3   6   6
#     4  12  25  47  70 106 145 187 245 294 369 438
#     4  12  27  45  76 101 144 196 239 309 359 449
#     4  11  24  42  74 102 145 187 244 294 358 443
#     4  12  22  44  70 110 152 180 250 296 380 436
#     4  11  24  45  72 107 141 187 238 299 363 441
#     4  12  22  46  68 100 138 194 248 282 374 434
#     4  11  23  43  73 102 138 198 232 302 363 444
#     4  11  25  43  74 105 139 193 239 296 365 437
#
# _framework density 22.967828999999998
#
# number of rings (size 3 to 8) (size 9 to 14) (size 15 to 20)
#    0.000    0.571    5.714    2.571    4.000    0.571 
#    2.571    2.857    0.000    0.857    0.000    0.000 
#    0.000    0.000    0.000    0.000    0.000    0.000 
#
# Total GULP energy -234750.605513 kJ/mol
# GULP energy per Si atom -5589.300131 kJ/mol
# Density = 2.291555 g / cm^3
# Si number density = 22.967829 Si / 1000 Ang^3
#
#
#
# Elastic Constant Matrix: (Units=GPa)
#
#
# Indices 1 2 3 4 5 6 
#
# 1 89.8674 45.5064 28.8110 3.0118 0.0003 0.0000
# 2 45.5064 89.8674 28.8110 -3.0118 -0.0003 0.0000
# 3 28.8110 28.8110 108.4515 0.0000 0.0000 0.0000
# 4 3.0118 -3.0118 0.0000 38.9072 0.0000 -0.0003
# 5 0.0003 -0.0003 0.0000 0.0000 38.9072 3.0118
# 6 0.0000 0.0000 0.0000 -0.0003 3.0118 22.1805
#
#
#
# Elastic Compliance Matrix: (Units=1/GPa)
#
#
# Indices 1 2 3 4 5 6 
#
# 1 0.015555 -0.007227 -0.002213 -0.001764 0.000000 0.000000
# 2 -0.007227 0.015555 -0.002213 0.001764 0.000000 0.000000
# 3 -0.002213 -0.002213 0.010396 0.000000 0.000000 0.000000
# 4 -0.001764 0.001764 0.000000 0.025975 0.000000 0.000000
# 5 0.000000 0.000000 0.000000 0.000000 0.025975 -0.003527
# 6 0.000000 0.000000 0.000000 0.000000 -0.003527 0.045564
#
#
# Mechanical properties :
#
#
# Convention : Reuss Voigt Hill
#
# Bulk Modulus (GPa) = 54.93478 54.93812 54.93645
# Shear Modulus (GPa) = 29.69260 32.33615 31.01438
#
# Velocity S-wave (km/s) = 3.59944 3.75626 3.67868
# Velocity P-wave (km/s) = 6.42220 6.54096 6.48185
#
# Compressibility (1/GPa) = 0.01820341
#
# Stress axis : x y z
#
# Youngs Moduli (GPa) = 64.28691 64.28691 96.18804
#
# Poissons Ratio (x) = 0.46457 0.21283
# Poissons Ratio (y) = 0.46457 0.21283
# Poissons Ratio (z) = 0.14224 0.14224
#
# Static dielectric constant tensor:
#      x y z
#    x 1.848510 0.000000 0.000000 
#    y 0.000000 1.848510 0.000000 
#    z 0.000000 0.000000 1.891190 
# 
# From -- ./inp_files/3765.got.cif
#   From: 2010.05.17/outbox.cif.g08.bks.cpg/sg152_2_cif.got.tgz:3765.got - 2010.05.20 10:36:06.
