data_PCOD9576864
_publ_section_title
;
Structure prediction by ZEFSAII (Michael W. Deem and Ramdas Pophale) SiO2 
 PCOD9576864
Probable space group: R 3 2
;
_chemical_formula_sum "Si O2"
_cell_formula_units_Z 69
_cell_length_a 15.059832
_cell_length_b 15.059832
_cell_length_c 18.521838
_cell_angle_alpha 90.000000
_cell_angle_beta 90.000000
_cell_angle_gamma 120.000000
_cell_volume 3637.935269
_symmetry_space_group_name_H-M "R 3 2"
_symmetry_group_IT_number 155
_symmetry_cell_setting 'hexagonal'
loop_
_space_group_symop_operation_xyz
x,y,z
-y,x-y,z
-x+y,-x,z
x-y,-y,-z
-x,-x+y,-z
y,x,-z
2/3+x,1/3+y,1/3+z
2/3-y,1/3+x-y,1/3+z
2/3-x+y,1/3-x,1/3+z
2/3+x-y,1/3-y,1/3-z
2/3-x,1/3-x+y,1/3-z
2/3+y,1/3+x,1/3-z
1/3+x,2/3+y,2/3+z
1/3-y,2/3+x-y,2/3+z
1/3-x+y,2/3-x,2/3+z
1/3+x-y,2/3-y,2/3-z
1/3-x,2/3-x+y,2/3-z
1/3+y,2/3+x,2/3-z
loop_
_atom_site_type_symbol
_atom_site_label
_atom_site_fract_x
_atom_site_fract_y
_atom_site_fract_z
Si Si1 0.544073 0.658008 0.901977
Si Si2 0.214549 0.959991 0.075409
Si Si3 0.333334 0.666668 0.082876
Si Si4 0.000000 0.543600 0.000000
Si Si5 0.420292 0.532455 0.310759
O O1 0.663261 0.691444 0.911756
O O2 0.506840 0.640460 0.819043
O O3 0.487822 0.550180 0.944399
O O4 0.541849 0.752329 0.942120
O O5 0.191290 0.845607 0.059728
O O6 0.192146 0.000000 0.000000
O O7 0.333334 0.666668 0.166667
O O8 0.449592 0.715310 0.057787
O O9 0.909648 0.560730 0.970250
#
# Coordination Sequence:
#
# PCOD9576864 Si02
#       5
#    18  18   6   9  18
#     4  10  19  38  61  84 126 169 205 262 334 392
#     4   9  19  37  61  80 112 168 222 253 314 393
#     4  12  24  33  60  90 130 164 193 249 342 396
#     4  12  22  36  60  98 130 160 218 272 334 402
#     4  11  22  38  58  93 126 164 212 264 328 394
#
# _framework density 18.966802999999999
#
# number of rings (size 3 to 8) (size 9 to 14) (size 15 to 20)
#    0.000    1.565    6.522    0.000    7.304    0.000 
#    0.000   10.435    0.000    0.000    0.000    0.000 
#   35.217    0.000    0.000    0.000    0.000    0.000 
#
# Total GULP energy -128066.858888 kJ/mol
# GULP energy per Si atom -5568.124299 kJ/mol
# Density = 1.892363 g / cm^3
# Si number density = 18.966803 Si / 1000 Ang^3
#
#
#
# Elastic Constant Matrix: (Units=GPa)
#
#
# Indices 1 2 3 4 5 6 
#
# 1 31.0314 3.3800 -2.3801 1.0775 -0.0004 0.0000
# 2 3.3800 31.0301 -2.3802 -1.0774 0.0003 0.0000
# 3 -2.3801 -2.3802 98.0986 -0.0001 0.0000 0.0001
# 4 1.0775 -1.0774 -0.0001 7.9273 0.0000 0.0003
# 5 -0.0004 0.0003 0.0000 0.0000 7.9276 1.0775
# 6 0.0000 0.0000 0.0001 0.0003 1.0775 13.8258
#
#
#
# Elastic Compliance Matrix: (Units=1/GPa)
#
#
# Indices 1 2 3 4 5 6 
#
# 1 0.032855 -0.003697 0.000707 -0.004968 0.000002 0.000000
# 2 -0.003697 0.032856 0.000708 0.004968 -0.000001 0.000000
# 3 0.000707 0.000708 0.010228 0.000000 0.000000 0.000000
# 4 -0.004968 0.004968 0.000000 0.127496 0.000000 -0.000003
# 5 0.000002 -0.000001 0.000000 0.000000 0.127492 -0.009936
# 6 0.000000 0.000000 0.000000 -0.000003 -0.009936 0.073103
#
#
# Mechanical properties :
#
#
# Convention : Reuss Voigt Hill
#
# Bulk Modulus (GPa) = 14.01046 17.48882 15.74964
# Shear Modulus (GPa) = 11.56373 16.70551 14.13462
#
# Velocity S-wave (km/s) = 2.47185 2.97101 2.73285
# Velocity P-wave (km/s) = 3.94330 4.58366 4.27549
#
# Compressibility (1/GPa) = 0.07137525
#
# Stress axis : x y z
#
# Youngs Moduli (GPa) = 30.43687 30.43560 97.76937
#
# Poissons Ratio (x) = 0.11252 -0.06917
# Poissons Ratio (y) = 0.11252 -0.06917
# Poissons Ratio (z) = -0.02153 -0.02153
#
# Static dielectric constant tensor:
#      x y z
#    x 1.651310 0.000000 0.000000 
#    y 0.000000 1.651320 -0.000010 
#    z 0.000000 -0.000010 1.699080 
# 
# From -- ./inp_files/5897.got.cif
#   From: 2010.05.17/outbox.cif.g08.bks.cpg/sg155_3_cif.got.tgz:5897.got - 2010.05.20 10:44:35.
