data_PCOD9576909
_publ_section_title
;
Structure prediction by ZEFSAII (Michael W. Deem and Ramdas Pophale) SiO2 
 PCOD9576909
Probable space group: R 3 2
;
_chemical_formula_sum "Si O2"
_cell_formula_units_Z 57
_cell_length_a 13.565464
_cell_length_b 13.565464
_cell_length_c 16.651998
_cell_angle_alpha 90.000000
_cell_angle_beta 90.000000
_cell_angle_gamma 120.000000
_cell_volume 2653.788380
_symmetry_space_group_name_H-M "R 3 2"
_symmetry_group_IT_number 155
_symmetry_cell_setting 'hexagonal'
loop_
_space_group_symop_operation_xyz
x,y,z
-y,x-y,z
-x+y,-x,z
x-y,-y,-z
-x,-x+y,-z
y,x,-z
2/3+x,1/3+y,1/3+z
2/3-y,1/3+x-y,1/3+z
2/3-x+y,1/3-x,1/3+z
2/3+x-y,1/3-y,1/3-z
2/3-x,1/3-x+y,1/3-z
2/3+y,1/3+x,1/3-z
1/3+x,2/3+y,2/3+z
1/3-y,2/3+x-y,2/3+z
1/3-x+y,2/3-x,2/3+z
1/3+x-y,2/3-y,2/3-z
1/3-x,2/3-x+y,2/3-z
1/3+y,2/3+x,2/3-z
loop_
_atom_site_type_symbol
_atom_site_label
_atom_site_fract_x
_atom_site_fract_y
_atom_site_fract_z
Si Si1 0.000000 0.000000 0.813989
Si Si2 0.417926 0.287367 0.504944
Si Si3 0.666668 0.333335 0.956562
Si Si4 0.333334 0.135197 0.666667
Si Si5 0.100959 0.510984 0.244964
O O1 0.116743 0.111624 0.838614
O O2 0.000000 0.000000 0.717534
O O3 0.386614 0.386614 0.500000
O O4 0.371981 0.220446 0.590441
O O5 0.344435 0.194842 0.436479
O O6 0.543556 0.302303 0.923596
O O7 0.437447 0.112111 0.684352
O O8 0.121156 0.454490 0.166667
#
# Coordination Sequence:
#
# PCOD9576909 Si02
#       5
#     6  18   6   9  18
#     4  12  27  46  67 100 145 189 226 287 358 426
#     4  11  25  43  68 100 144 185 234 291 357 416
#     4  12  19  40  72 102 127 175 241 296 337 397
#     4  10  20  40  70 112 134 182 236 300 348 408
#     4  10  20  36  66 102 138 172 229 291 348 401
#
# _framework density 21.478729000000001
#
# number of rings (size 3 to 8) (size 9 to 14) (size 15 to 20)
#    0.000    1.263    3.158    4.737    0.000    3.789 
#    0.000    0.000    0.000    1.895    0.000    0.000 
#    0.000    0.000    0.000    0.000    0.000    0.000 
#
# Total GULP energy -106198.547532 kJ/mol
# GULP energy per Si atom -5589.397239 kJ/mol
# Density = 2.142984 g / cm^3
# Si number density = 21.478729 Si / 1000 Ang^3
#
#
#
# Elastic Constant Matrix: (Units=GPa)
#
#
# Indices 1 2 3 4 5 6 
#
# 1 162.2984 96.4796 26.8561 -1.7199 0.0000 0.0000
# 2 96.4796 162.2993 26.8563 1.7196 0.0000 0.0000
# 3 26.8561 26.8563 43.7366 -0.0001 0.0000 0.0000
# 4 -1.7199 1.7196 -0.0001 25.7487 0.0000 0.0000
# 5 0.0000 0.0000 0.0000 0.0000 25.7481 -1.7202
# 6 0.0000 0.0000 0.0000 0.0000 -1.7202 32.9096
#
#
#
# Elastic Compliance Matrix: (Units=1/GPa)
#
#
# Indices 1 2 3 4 5 6 
#
# 1 0.009838 -0.005409 -0.002719 0.001018 0.000000 0.000000
# 2 -0.005409 0.009838 -0.002719 -0.001018 0.000000 0.000000
# 3 -0.002719 -0.002719 0.026204 0.000000 0.000000 0.000000
# 4 0.001018 -0.001018 0.000000 0.038973 0.000000 0.000000
# 5 0.000000 0.000000 0.000000 0.000000 0.038974 0.002037
# 6 0.000000 0.000000 0.000000 0.000000 0.002037 0.030493
#
#
# Mechanical properties :
#
#
# Convention : Reuss Voigt Hill
#
# Bulk Modulus (GPa) = 41.35039 74.30202 57.82621
# Shear Modulus (GPa) = 27.16284 31.42411 29.29347
#
# Velocity S-wave (km/s) = 3.56003 3.82911 3.69702
# Velocity P-wave (km/s) = 6.01598 7.36328 6.72346
#
# Compressibility (1/GPa) = 0.02418357
#
# Stress axis : x y z
#
# Youngs Moduli (GPa) = 101.65101 101.65150 38.16234
#
# Poissons Ratio (x) = 0.54981 0.10378
# Poissons Ratio (y) = 0.54981 0.10378
# Poissons Ratio (z) = 0.27643 0.27644
#
# Static dielectric constant tensor:
#      x y z
#    x 1.815430 0.000000 0.000000 
#    y 0.000000 1.815420 0.000000 
#    z 0.000000 0.000000 1.814070 
# 
# From -- ./inp_files/4760.got.cif
#   From: 2010.05.17/outbox.cif.g08.bks.cpg/sg155_3_cif.got.tgz:4760.got - 2010.05.20 10:44:35.
