data_PCOD9576631
_publ_section_title
;
Structure prediction by ZEFSAII (Michael W. Deem and Ramdas Pophale) SiO2 
 PCOD9576631
Probable space group: P 32 2 1
;
_chemical_formula_sum "Si O2"
_cell_formula_units_Z 15
_cell_length_a 9.976399
_cell_length_b 9.976399
_cell_length_c 6.609227
_cell_angle_alpha 90.000000
_cell_angle_beta 90.000000
_cell_angle_gamma 120.000000
_cell_volume 569.677308
_symmetry_space_group_name_H-M "P 32 2 1"
_symmetry_group_IT_number 154
_symmetry_cell_setting 'hexagonal'
loop_
_space_group_symop_operation_xyz
x,y,z
-y,x-y,2/3+z
-x+y,-x,1/3+z
x-y,-y,1/3-z
-x,-x+y,2/3-z
y,x,-z
loop_
_atom_site_type_symbol
_atom_site_label
_atom_site_fract_x
_atom_site_fract_y
_atom_site_fract_z
Si Si1 0.018850 0.191040 0.093855
Si Si2 0.761317 0.482578 0.160557
Si Si3 0.321884 0.321884 0.500000
O O1 0.127095 0.373066 0.077040
O O2 0.284532 0.162541 0.381297
O O3 0.000000 0.159480 0.333334
O O4 0.108929 0.108929 0.000000
O O5 0.766460 0.380420 0.341785
O O6 0.908282 0.554542 0.007243
#
# Coordination Sequence:
#
# PCOD9576631 Si02
#       3
#     6   6   3
#     4  10  22  44  76 114 153 201 263 326 384 454
#     4  11  27  49  78 118 166 212 258 325 406 483
#     4  10  24  46  76 114 152 204 266 322 388 458
#
# _framework density 26.330697000000001
#
# number of rings (size 3 to 8) (size 9 to 14) (size 15 to 20)
#    0.000    1.600    0.000    3.600    0.000   20.800 
#    0.000   16.000    0.000    0.000    0.000    0.000 
#    0.000    0.000    0.000    0.000    0.000    0.000 
#
# Total GULP energy -83960.389595 kJ/mol
# GULP energy per Si atom -5597.359306 kJ/mol
# Density = 2.627077 g / cm^3
# Si number density = 26.330697 Si / 1000 Ang^3
#
#
#
# Elastic Constant Matrix: (Units=GPa)
#
#
# Indices 1 2 3 4 5 6 
#
# 1 162.4502 68.7407 48.2985 -1.2516 -0.0001 0.0000
# 2 68.7407 162.4502 48.2985 1.2516 0.0001 0.0000
# 3 48.2985 48.2985 133.4984 0.0000 0.0000 0.0000
# 4 -1.2516 1.2516 0.0000 48.8082 0.0000 0.0001
# 5 -0.0001 0.0001 0.0000 0.0000 48.8082 -1.2516
# 6 0.0000 0.0000 0.0000 0.0001 -1.2516 46.8547
#
#
#
# Elastic Compliance Matrix: (Units=1/GPa)
#
#
# Indices 1 2 3 4 5 6 
#
# 1 0.007887 -0.002791 -0.001844 0.000274 0.000000 0.000000
# 2 -0.002791 0.007887 -0.001844 -0.000274 0.000000 0.000000
# 3 -0.001844 -0.001844 0.008825 0.000000 0.000000 0.000000
# 4 0.000274 -0.000274 0.000000 0.020502 0.000000 0.000000
# 5 0.000000 0.000000 0.000000 0.000000 0.020502 0.000548
# 6 0.000000 0.000000 0.000000 0.000000 0.000548 0.021357
#
#
# Mechanical properties :
#
#
# Convention : Reuss Voigt Hill
#
# Bulk Modulus (GPa) = 85.89726 87.67491 86.78608
# Shear Modulus (GPa) = 48.17008 48.43162 48.30085
#
# Velocity S-wave (km/s) = 4.28182 4.29343 4.28763
# Velocity P-wave (km/s) = 7.55901 7.61235 7.58573
#
# Compressibility (1/GPa) = 0.01164181
#
# Stress axis : x y z
#
# Youngs Moduli (GPa) = 126.78833 126.78833 113.31816
#
# Poissons Ratio (x) = 0.35392 0.20891
# Poissons Ratio (y) = 0.35392 0.20891
# Poissons Ratio (z) = 0.23375 0.23375
#
# Static dielectric constant tensor:
#      x y z
#    x 2.142900 0.000000 0.000000 
#    y 0.000000 2.142900 0.000000 
#    z 0.000000 0.000000 2.142600 
# 
# From -- ./inp_files/71.got.cif
#   From: 2010.05.17/outbox.cif.g08.bks.cpg/sg154_1_cif.got.tgz:71.got - 2010.05.20 10:41:43.
