data_PCOD9576390
_publ_section_title
;
Structure prediction by ZEFSAII (Michael W. Deem and Ramdas Pophale) SiO2 
 PCOD9576390
Probable space group: P 32 2 1
;
_chemical_formula_sum "Si O2"
_cell_formula_units_Z 45
_cell_length_a 14.549090
_cell_length_b 14.549090
_cell_length_c 14.421344
_cell_angle_alpha 90.000000
_cell_angle_beta 90.000000
_cell_angle_gamma 120.000000
_cell_volume 2643.674786
_symmetry_space_group_name_H-M "P 32 2 1"
_symmetry_group_IT_number 154
_symmetry_cell_setting 'hexagonal'
loop_
_space_group_symop_operation_xyz
x,y,z
-y,x-y,2/3+z
-x+y,-x,1/3+z
x-y,-y,1/3-z
-x,-x+y,2/3-z
y,x,-z
loop_
_atom_site_type_symbol
_atom_site_label
_atom_site_fract_x
_atom_site_fract_y
_atom_site_fract_z
Si Si1 0.324410 0.723394 0.426571
Si Si2 0.470993 0.373669 0.702688
Si Si3 0.444716 0.508478 0.847436
Si Si4 0.670757 0.000000 0.666667
Si Si5 0.628415 0.879411 0.151559
Si Si6 0.982786 0.312711 0.225042
Si Si7 0.266115 0.559662 0.583882
Si Si8 0.169933 0.799931 0.469514
O O1 0.406134 0.815092 0.495496
O O2 0.285401 0.614846 0.482779
O O3 0.371810 0.722354 0.328227
O O4 0.234810 0.754739 0.413880
O O5 0.433944 0.449492 0.750075
O O6 0.436032 0.331033 0.599597
O O7 0.598873 0.436709 0.714119
O O8 0.413452 0.269769 0.769559
O O9 0.569899 0.566922 0.874952
O O10 0.373249 0.426228 0.926121
O O11 0.696025 0.927582 0.734367
O O12 0.659664 0.789890 0.128891
O O13 0.547653 0.817993 0.236208
O O14 0.723739 0.000000 0.166667
O O15 0.000000 0.306515 0.333334
O O16 0.078024 0.317345 0.164201
#
# Coordination Sequence:
#
# PCOD9576390 Si02
#       8
#     6   6   6   3   6   6   6   6
#     4  10  20  31  51  80 110 152 179 221 283 359
#     4  10  19  34  52  83 110 147 184 239 288 351
#     4  10  19  31  55  83 116 144 189 226 295 348
#     4  10  18  32  54  86 112 142 178 244 294 352
#     4  12  24  37  57  79 115 161 205 239 296 353
#     4  11  20  36  57  82 112 151 194 250 289 345
#     4  11  20  34  53  77 120 151 190 236 290 351
#     4   9  20  32  56  81 110 140 188 234 294 344
#
# _framework density 17.02176
#
# number of rings (size 3 to 8) (size 9 to 14) (size 15 to 20)
#    0.000    1.600    4.667    1.600    0.000    0.000 
#    0.000    0.000    1.467    0.000    0.000    6.533 
#    0.000    0.000    0.000    0.000    0.000    0.000 
#
# Total GULP energy -250533.036940 kJ/mol
# GULP energy per Si atom -5567.400821 kJ/mol
# Density = 1.698302 g / cm^3
# Si number density = 17.021760 Si / 1000 Ang^3
#
#
#
# Elastic Constant Matrix: (Units=GPa)
#
#
# Indices 1 2 3 4 5 6 
#
# 1 54.5497 15.8031 12.2511 3.3435 0.0001 0.0000
# 2 15.8031 54.5497 12.2511 -3.3435 -0.0001 0.0000
# 3 12.2511 12.2511 62.5368 0.0000 0.0000 0.0000
# 4 3.3435 -3.3435 0.0000 19.0547 0.0000 -0.0001
# 5 0.0001 -0.0001 0.0000 0.0000 19.0547 3.3435
# 6 0.0000 0.0000 0.0000 -0.0001 3.3435 19.3733
#
#
#
# Elastic Compliance Matrix: (Units=1/GPa)
#
#
# Indices 1 2 3 4 5 6 
#
# 1 0.020935 -0.005680 -0.002988 -0.004670 0.000000 0.000000
# 2 -0.005680 0.020935 -0.002988 0.004670 0.000000 0.000000
# 3 -0.002988 -0.002988 0.017161 0.000000 0.000000 0.000000
# 4 -0.004670 0.004670 0.000000 0.054119 0.000000 0.000000
# 5 0.000000 0.000000 0.000000 0.000000 0.054119 -0.009340
# 6 0.000000 0.000000 0.000000 0.000000 -0.009340 0.053229
#
#
# Mechanical properties :
#
#
# Convention : Reuss Voigt Hill
#
# Bulk Modulus (GPa) = 27.99756 28.02741 28.01249
# Shear Modulus (GPa) = 19.55276 20.25195 19.90235
#
# Velocity S-wave (km/s) = 3.39291 3.45304 3.42311
# Velocity P-wave (km/s) = 5.64207 5.69205 5.66711
#
# Compressibility (1/GPa) = 0.03571740
#
# Stress axis : x y z
#
# Youngs Moduli (GPa) = 47.76739 47.76739 58.27005
#
# Poissons Ratio (x) = 0.27131 0.17414
# Poissons Ratio (y) = 0.27131 0.17414
# Poissons Ratio (z) = 0.14275 0.14275
#
# Static dielectric constant tensor:
#      x y z
#    x 1.602760 0.000000 0.000000 
#    y 0.000000 1.602760 0.000000 
#    z 0.000000 0.000000 1.577550 
# 
# From -- ./inp_files/2131.got.cif
#   From: 2010.05.17/outbox.cif.g08.bks.cpg/sg154_2_cif.got.tgz:2131.got - 2010.05.20 10:41:43.
