data_PCOD9576476
_publ_section_title
;
Structure prediction by ZEFSAII (Michael W. Deem and Ramdas Pophale) SiO2 
 PCOD9576476
Probable space group: P 32 2 1
;
_chemical_formula_sum "Si O2"
_cell_formula_units_Z 48
_cell_length_a 11.549204
_cell_length_b 11.549204
_cell_length_c 19.777795
_cell_angle_alpha 90.000000
_cell_angle_beta 90.000000
_cell_angle_gamma 120.000000
_cell_volume 2284.612812
_symmetry_space_group_name_H-M "P 32 2 1"
_symmetry_group_IT_number 154
_symmetry_cell_setting 'hexagonal'
loop_
_space_group_symop_operation_xyz
x,y,z
-y,x-y,2/3+z
-x+y,-x,1/3+z
x-y,-y,1/3-z
-x,-x+y,2/3-z
y,x,-z
loop_
_atom_site_type_symbol
_atom_site_label
_atom_site_fract_x
_atom_site_fract_y
_atom_site_fract_z
Si Si1 0.848986 0.046046 0.828055
Si Si2 0.380486 0.240735 0.026756
Si Si3 0.346745 0.223680 0.301012
Si Si4 0.310006 0.617166 0.766208
Si Si5 0.678951 0.561332 0.747381
Si Si6 0.609796 0.081074 0.305598
Si Si7 0.817977 0.390589 0.766298
Si Si8 0.233471 0.851037 0.453846
O O1 0.826727 0.108484 0.758059
O O2 0.833644 0.108421 0.897707
O O3 0.000000 0.072450 0.833334
O O4 0.724451 0.894992 0.827685
O O5 0.521566 0.257896 0.049993
O O6 0.365476 0.365476 0.000000
O O7 0.348769 0.156360 0.958279
O O8 0.506024 0.311329 0.283059
O O9 0.342252 0.120119 0.355485
O O10 0.303020 0.317951 0.339776
O O11 0.225894 0.675188 0.728655
O O12 0.211688 0.534004 0.827525
O O13 0.459512 0.716623 0.792281
O O14 0.547604 0.455707 0.708248
O O15 0.752333 0.484145 0.773489
O O16 0.641611 0.642726 0.799102
O O17 0.488211 0.969349 0.258800
#
# Coordination Sequence:
#
# PCOD9576476 Si02
#       8
#     6   6   6   6   6   6   6   6
#     4  11  24  38  64  92 120 165 215 263 304 388
#     4  10  20  37  60  89 125 153 200 261 317 366
#     4  10  20  37  61  92 120 159 210 265 316 375
#     4  11  22  35  61  90 126 157 208 265 313 383
#     4  10  20  36  62  82 126 160 204 258 307 382
#     4  10  20  36  58  90 126 157 206 261 326 371
#     4  11  21  36  61  93 120 165 209 261 316 374
#     4  11  22  41  57  90 126 165 204 257 331 368
#
# _framework density 21.010124999999999
#
# number of rings (size 3 to 8) (size 9 to 14) (size 15 to 20)
#    0.000    1.500    3.750    2.625    3.500    0.000 
#    0.000    2.500    0.000    0.000    0.000    0.000 
#    0.000    0.000    0.000    0.000    0.000    0.000 
#
# Total GULP energy -267391.909633 kJ/mol
# GULP energy per Si atom -5570.664784 kJ/mol
# Density = 2.096230 g / cm^3
# Si number density = 21.010125 Si / 1000 Ang^3
#
#
#
# Elastic Constant Matrix: (Units=GPa)
#
#
# Indices 1 2 3 4 5 6 
#
# 1 57.9166 26.2065 5.2737 9.2504 0.0000 0.0000
# 2 26.2065 57.9166 5.2737 -9.2504 0.0000 0.0000
# 3 5.2737 5.2737 46.8117 0.0000 0.0000 0.0000
# 4 9.2504 -9.2504 0.0000 12.3592 0.0000 0.0000
# 5 0.0000 0.0000 0.0000 0.0000 12.3592 9.2504
# 6 0.0000 0.0000 0.0000 0.0000 9.2504 15.8550
#
#
#
# Elastic Compliance Matrix: (Units=1/GPa)
#
#
# Indices 1 2 3 4 5 6 
#
# 1 0.034020 -0.021962 -0.001358 -0.041900 0.000000 0.000000
# 2 -0.021962 0.034020 -0.001358 0.041900 0.000000 0.000000
# 3 -0.001358 -0.001358 0.021668 0.000000 0.000000 0.000000
# 4 -0.041900 0.041900 0.000000 0.143633 0.000000 0.000000
# 5 0.000000 0.000000 0.000000 0.000000 0.143633 -0.083800
# 6 0.000000 0.000000 0.000000 0.000000 -0.083800 0.111963
#
#
# Mechanical properties :
#
#
# Convention : Reuss Voigt Hill
#
# Bulk Modulus (GPa) = 24.78315 26.23921 25.51118
# Shear Modulus (GPa) = 9.06218 16.50742 12.78480
#
# Velocity S-wave (km/s) = 2.07909 2.80606 2.46947
# Velocity P-wave (km/s) = 4.19344 4.79735 4.50552
#
# Compressibility (1/GPa) = 0.04034999
#
# Stress axis : x y z
#
# Youngs Moduli (GPa) = 29.39477 29.39477 46.15047
#
# Poissons Ratio (x) = 0.64557 0.06269
# Poissons Ratio (y) = 0.64557 0.06269
# Poissons Ratio (z) = 0.03993 0.03993
#
# Static dielectric constant tensor:
#      x y z
#    x 1.796950 0.000000 0.000000 
#    y 0.000000 1.796950 0.000000 
#    z 0.000000 0.000000 1.806720 
# 
# From -- ./inp_files/2878.got.cif
#   From: 2010.05.17/outbox.cif.g08.bks.cpg/sg154_2_cif.got.tgz:2878.got - 2010.05.20 10:41:43.
