data_PCOD9576157
_publ_section_title
;
Structure prediction by ZEFSAII (Michael W. Deem and Ramdas Pophale) SiO2 
 PCOD9576157
Probable space group: P 31 2 1
;
_chemical_formula_sum "Si O2"
_cell_formula_units_Z 42
_cell_length_a 17.009072
_cell_length_b 17.009072
_cell_length_c 8.117250
_cell_angle_alpha 90.000000
_cell_angle_beta 90.000000
_cell_angle_gamma 120.000000
_cell_volume 2033.765110
_symmetry_space_group_name_H-M "P 31 2 1"
_symmetry_group_IT_number 152
_symmetry_cell_setting 'hexagonal'
loop_
_space_group_symop_operation_xyz
x,y,z
-y,x-y,1/3+z
-x+y,-x,2/3+z
x-y,-y,2/3-z
-x,-x+y,1/3-z
y,x,-z
loop_
_atom_site_type_symbol
_atom_site_label
_atom_site_fract_x
_atom_site_fract_y
_atom_site_fract_z
Si Si1 0.059160 0.749549 0.510405
Si Si2 0.273066 0.446923 0.370394
Si Si3 0.779183 0.343890 0.766505
Si Si4 0.408543 0.174166 0.946839
Si Si5 0.000000 0.422787 0.166667
Si Si6 0.715173 0.000000 0.833334
Si Si7 0.510481 0.956341 0.153331
Si Si8 0.403324 0.644156 0.261029
O O1 0.165054 0.809483 0.569848
O O2 0.028358 0.772785 0.336983
O O3 0.034492 0.644034 0.483286
O O4 0.000000 0.747334 0.666667
O O5 0.215172 0.480646 0.473209
O O6 0.216540 0.389686 0.214239
O O7 0.296389 0.383112 0.472164
O O8 0.360412 0.542104 0.321537
O O9 0.848740 0.440227 0.840680
O O10 0.801338 0.347113 0.576185
O O11 0.678634 0.331618 0.772571
O O12 0.403164 0.079737 0.896700
O O13 0.517323 0.238648 0.965042
O O14 0.015534 0.487774 0.326915
O O15 0.508489 0.000000 0.333334
#
# Coordination Sequence:
#
# PCOD9576157 Si02
#       8
#     6   6   6   6   3   3   6   6
#     4  11  23  43  62  90 126 169 221 275 329 399
#     4  12  24  39  59  87 120 165 227 274 328 393
#     4  12  22  39  55  82 122 167 220 271 331 387
#     4  12  24  43  63  89 129 164 220 280 334 396
#     4  12  27  42  68  94 126 177 218 284 348 397
#     4  12  27  38  66  88 118 173 218 282 334 389
#     4  11  24  40  58  87 123 166 219 275 327 387
#     4  12  23  36  57  84 119 173 221 278 324 371
#
# _framework density 20.651353
#
# number of rings (size 3 to 8) (size 9 to 14) (size 15 to 20)
#    0.000    0.286    7.143    2.143    6.000    0.000 
#    0.000    0.000    0.000    0.000    0.000    0.000 
#    0.000    1.143    0.000    0.000    0.000    0.000 
#
# Total GULP energy -234322.956186 kJ/mol
# GULP energy per Si atom -5579.118004 kJ/mol
# Density = 2.060435 g / cm^3
# Si number density = 20.651353 Si / 1000 Ang^3
#
#
#
# Elastic Constant Matrix: (Units=GPa)
#
#
# Indices 1 2 3 4 5 6 
#
# 1 48.6835 8.4705 16.2337 -2.6623 0.0000 0.0000
# 2 8.4705 48.6835 16.2337 2.6623 0.0000 0.0000
# 3 16.2337 16.2337 132.4000 0.0000 0.0000 0.0000
# 4 -2.6623 2.6623 0.0000 30.7096 0.0000 0.0000
# 5 0.0000 0.0000 0.0000 0.0000 30.7096 -2.6623
# 6 0.0000 0.0000 0.0000 0.0000 -2.6623 20.1065
#
#
#
# Elastic Compliance Matrix: (Units=1/GPa)
#
#
# Indices 1 2 3 4 5 6 
#
# 1 0.021981 -0.003175 -0.002306 0.002181 0.000000 0.000000
# 2 -0.003175 0.021981 -0.002306 -0.002181 0.000000 0.000000
# 3 -0.002306 -0.002306 0.008118 0.000000 0.000000 0.000000
# 4 0.002181 -0.002181 0.000000 0.032941 0.000000 0.000000
# 5 0.000000 0.000000 0.000000 0.000000 0.032941 0.004362
# 6 0.000000 0.000000 0.000000 0.000000 0.004362 0.050313
#
#
# Mechanical properties :
#
#
# Convention : Reuss Voigt Hill
#
# Bulk Modulus (GPa) = 27.39143 34.62696 31.00919
# Shear Modulus (GPa) = 25.50776 28.89377 27.20077
#
# Velocity S-wave (km/s) = 3.51830 3.74454 3.63318
# Velocity P-wave (km/s) = 5.45867 5.95813 5.71386
#
# Compressibility (1/GPa) = 0.03650778
#
# Stress axis : x y z
#
# Youngs Moduli (GPa) = 45.49302 45.49302 123.17817
#
# Poissons Ratio (x) = 0.14444 0.28403
# Poissons Ratio (y) = 0.14444 0.28403
# Poissons Ratio (z) = 0.10490 0.10490
#
# Static dielectric constant tensor:
#      x y z
#    x 1.746380 0.000000 0.000000 
#    y 0.000000 1.746380 0.000000 
#    z 0.000000 0.000000 1.972700 
# 
# From -- ./inp_files/1312.got.cif
#   From: 2010.05.17/outbox.cif.g08.bks.cpg/sg152_1_cif.got.tgz:1312.got - 2010.05.20 10:36:06.
