data_PCOD9576560
_publ_section_title
;
Structure prediction by ZEFSAII (Michael W. Deem and Ramdas Pophale) SiO2 
 PCOD9576560
Probable space group: P 32 2 1
;
_chemical_formula_sum "Si O2"
_cell_formula_units_Z 36
_cell_length_a 7.681685
_cell_length_b 7.681685
_cell_length_c 25.296225
_cell_angle_alpha 90.000000
_cell_angle_beta 90.000000
_cell_angle_gamma 120.000000
_cell_volume 1292.704723
_symmetry_space_group_name_H-M "P 32 2 1"
_symmetry_group_IT_number 154
_symmetry_cell_setting 'hexagonal'
loop_
_space_group_symop_operation_xyz
x,y,z
-y,x-y,2/3+z
-x+y,-x,1/3+z
x-y,-y,1/3-z
-x,-x+y,2/3-z
y,x,-z
loop_
_atom_site_type_symbol
_atom_site_label
_atom_site_fract_x
_atom_site_fract_y
_atom_site_fract_z
Si Si1 0.790822 0.676573 0.122393
Si Si2 0.342041 0.629911 0.406235
Si Si3 0.880044 0.024757 0.051110
Si Si4 0.464703 0.279972 0.162675
Si Si5 0.454835 0.549263 0.297117
Si Si6 0.689598 0.028971 0.729096
O O1 0.772694 0.860370 0.097434
O O2 0.628066 0.520924 0.163860
O O3 0.007618 0.756025 0.150190
O O4 0.802804 0.540586 0.074410
O O5 0.369571 0.514862 0.357038
O O6 0.118589 0.585968 0.416759
O O7 0.449133 0.640924 0.461084
O O8 0.444444 0.859751 0.383504
O O9 0.846180 0.216306 0.041784
O O10 0.906939 0.906939 0.000000
O O11 0.109898 0.150640 0.070227
O O12 0.444596 0.223942 0.100814
O O13 0.647842 0.000000 0.666667
#
# Coordination Sequence:
#
# PCOD9576560 Si02
#       6
#     6   6   6   6   6   6
#     4  11  24  43  70  98 146 186 237 307 369 446
#     4  10  21  41  65  99 148 179 236 312 353 446
#     4  10  22  43  70 102 135 188 245 295 369 446
#     4  11  22  42  65 101 143 185 230 301 380 432
#     4  10  22  42  71 104 138 189 242 304 363 447
#     4  10  21  39  66  98 135 189 238 289 371 451
#
# _framework density 27.848590000000002
#
# number of rings (size 3 to 8) (size 9 to 14) (size 15 to 20)
#    0.000    1.667    1.667    3.000    0.000    4.000 
#    0.000    1.667    0.000    0.000    0.000    0.000 
#    0.000    0.000    0.000    0.000    0.000    0.000 
#
# Total GULP energy -201155.087273 kJ/mol
# GULP energy per Si atom -5587.641313 kJ/mol
# Density = 2.778521 g / cm^3
# Si number density = 27.848590 Si / 1000 Ang^3
#
#
#
# Elastic Constant Matrix: (Units=GPa)
#
#
# Indices 1 2 3 4 5 6 
#
# 1 69.0668 1.9242 23.8370 -1.8126 0.0000 0.0000
# 2 1.9242 69.0668 23.8370 1.8126 0.0000 0.0000
# 3 23.8370 23.8370 192.5900 0.0000 0.0000 0.0000
# 4 -1.8126 1.8126 0.0000 50.4105 0.0000 0.0000
# 5 0.0000 0.0000 0.0000 0.0000 50.4105 -1.8126
# 6 0.0000 0.0000 0.0000 0.0000 -1.8126 33.5713
#
#
#
# Elastic Compliance Matrix: (Units=1/GPa)
#
#
# Indices 1 2 3 4 5 6 
#
# 1 0.015143 0.000220 -0.001902 0.000537 0.000000 0.000000
# 2 0.000220 0.015143 -0.001902 -0.000537 0.000000 0.000000
# 3 -0.001902 -0.001902 0.005663 0.000000 0.000000 0.000000
# 4 0.000537 -0.000537 0.000000 0.019876 0.000000 0.000000
# 5 0.000000 0.000000 0.000000 0.000000 0.019876 0.001073
# 6 0.000000 0.000000 0.000000 0.000000 0.001073 0.029845
#
#
# Mechanical properties :
#
#
# Convention : Reuss Voigt Hill
#
# Bulk Modulus (GPa) = 34.74209 47.76889 41.25549
# Shear Modulus (GPa) = 40.88114 45.62013 43.25063
#
# Velocity S-wave (km/s) = 3.83558 4.05180 3.94517
# Velocity P-wave (km/s) = 5.66727 6.25138 5.96648
#
# Compressibility (1/GPa) = 0.02878353
#
# Stress axis : x y z
#
# Youngs Moduli (GPa) = 66.03726 66.03726 176.58220
#
# Poissons Ratio (x) = -0.01455 0.33578
# Poissons Ratio (y) = -0.01455 0.33578
# Poissons Ratio (z) = 0.12557 0.12557
#
# Static dielectric constant tensor:
#      x y z
#    x 2.241030 0.000000 0.000000 
#    y 0.000000 2.241030 0.000000 
#    z 0.000000 0.000000 2.248920 
# 
# From -- ./inp_files/3450.got.cif
#   From: 2010.05.17/outbox.cif.g08.bks.cpg/sg154_2_cif.got.tgz:3450.got - 2010.05.20 10:41:43.
