data_PCOD9576006
_publ_section_title
;
Structure prediction by ZEFSAII (Michael W. Deem and Ramdas Pophale) SiO2 
 PCOD9576006
Probable space group: P 31 2 1
;
_chemical_formula_sum "Si O2"
_cell_formula_units_Z 24
_cell_length_a 8.037939
_cell_length_b 8.037939
_cell_length_c 19.446284
_cell_angle_alpha 90.000000
_cell_angle_beta 90.000000
_cell_angle_gamma 120.000000
_cell_volume 1088.069578
_symmetry_space_group_name_H-M "P 31 2 1"
_symmetry_group_IT_number 152
_symmetry_cell_setting 'hexagonal'
loop_
_space_group_symop_operation_xyz
x,y,z
-y,x-y,1/3+z
-x+y,-x,2/3+z
x-y,-y,2/3-z
-x,-x+y,1/3-z
y,x,-z
loop_
_atom_site_type_symbol
_atom_site_label
_atom_site_fract_x
_atom_site_fract_y
_atom_site_fract_z
Si Si1 0.028770 0.867093 0.399121
Si Si2 0.933626 0.451332 0.393006
Si Si3 0.194771 0.351675 0.056787
Si Si4 0.255668 0.533375 0.808430
O O1 0.927807 0.643691 0.377527
O O2 0.188189 0.877548 0.451696
O O3 0.855831 0.901586 0.421587
O O4 0.125962 0.000000 0.333334
O O5 0.128516 0.540688 0.439639
O O6 0.922862 0.347119 0.322703
O O7 0.762430 0.307700 0.443485
O O8 0.327453 0.512205 0.110727
O O9 0.320330 0.320330 0.000000
#
# Coordination Sequence:
#
# PCOD9576006 Si02
#       4
#     6   6   6   6
#     4   9  22  40  62  90 127 169 222 272 338 401
#     4  10  22  41  62  96 130 170 229 272 347 404
#     4  11  21  40  67  91 131 180 219 280 347 404
#     4  10  22  39  67  92 132 171 223 282 336 416
#
# _framework density 22.057410000000001
#
# number of rings (size 3 to 8) (size 9 to 14) (size 15 to 20)
#    1.500    0.500    0.000    3.750    0.000    1.000 
#    4.500    0.000   11.000    0.000    0.000    0.000 
#    0.000    0.000    0.000    0.000    0.000    0.000 
#
# Total GULP energy -133764.451732 kJ/mol
# GULP energy per Si atom -5573.518822 kJ/mol
# Density = 2.200721 g / cm^3
# Si number density = 22.057410 Si / 1000 Ang^3
#
#
#
# Elastic Constant Matrix: (Units=GPa)
#
#
# Indices 1 2 3 4 5 6 
#
# 1 60.4587 35.5279 32.7993 16.5479 0.0002 0.0000
# 2 35.5279 60.4587 32.7993 -16.5479 -0.0002 0.0000
# 3 32.7993 32.7993 86.7441 0.0000 0.0000 0.0000
# 4 16.5479 -16.5479 0.0000 1.4759 0.0000 -0.0002
# 5 0.0002 -0.0002 0.0000 0.0000 1.4759 16.5479
# 6 0.0000 0.0000 0.0000 -0.0002 16.5479 12.4654
#
#
#
# Elastic Compliance Matrix: (Units=1/GPa)
#
#
# Indices 1 2 3 4 5 6 
#
# 1 0.005580 0.008469 -0.005312 0.032392 0.000000 0.000000
# 2 0.008469 0.005580 -0.005312 -0.032392 0.000000 0.000000
# 3 -0.005312 -0.005312 0.015545 0.000000 0.000000 0.000000
# 4 0.032392 -0.032392 0.000000 -0.048801 0.000000 -0.000001
# 5 0.000000 0.000000 0.000000 0.000000 -0.048801 0.064783
# 6 0.000000 0.000000 0.000000 -0.000001 0.064783 -0.005778
#
#
# Mechanical properties :
#
#
# Convention : Reuss Voigt Hill
#
# Bulk Modulus (GPa) = 44.65426 45.54606 45.10016
# Shear Modulus (GPa) = -77.04203 10.18579 -33.42812
#
# Velocity S-wave (km/s) = -5.91640 2.15125 -3.89717
# Velocity P-wave (km/s) = 5.13646 5.18307 0.49041
#
# Compressibility (1/GPa) = 0.02239428
#
# Stress axis : x y z
#
# Youngs Moduli (GPa) = 179.22223 179.22223 64.32867
#
# Poissons Ratio (x) = -1.51777 0.34171
# Poissons Ratio (y) = -1.51777 0.34171
# Poissons Ratio (z) = 0.95201 0.95201
#
# Static dielectric constant tensor:
#      x y z
#    x 1.833670 0.000000 0.000000 
#    y 0.000000 1.833670 0.000000 
#    z 0.000000 0.000000 1.766760 
# 
# From -- ./inp_files/2612.got.cif
#   From: 2010.05.17/outbox.cif.g08.bks.cpg/sg152_2_cif.got.tgz:2612.got - 2010.05.20 10:36:06.
