data_PCOD9576354
_publ_section_title
;
Structure prediction by ZEFSAII (Michael W. Deem and Ramdas Pophale) SiO2 
 PCOD9576354
Probable space group: P 32 1 2
;
_chemical_formula_sum "Si O2"
_cell_formula_units_Z 48
_cell_length_a 12.745411
_cell_length_b 12.745411
_cell_length_c 19.220443
_cell_angle_alpha 90.000000
_cell_angle_beta 90.000000
_cell_angle_gamma 120.000000
_cell_volume 2703.969037
_symmetry_space_group_name_H-M "P 32 1 2"
_symmetry_group_IT_number 153
_symmetry_cell_setting 'hexagonal'
loop_
_space_group_symop_operation_xyz
x,y,z
-y,x-y,2/3+z
-x+y,-x,1/3+z
-y,-x,1/3-z
-x+y,y,2/3-z
x,x-y,-z
loop_
_atom_site_type_symbol
_atom_site_label
_atom_site_fract_x
_atom_site_fract_y
_atom_site_fract_z
Si Si1 0.201519 0.000111 0.801982
Si Si2 0.474251 0.360485 0.983585
Si Si3 0.638211 0.139649 0.397809
Si Si4 0.477492 0.364125 0.229496
Si Si5 0.782357 0.985396 0.696359
Si Si6 0.961328 0.190705 0.970645
Si Si7 0.961016 0.764016 0.768582
Si Si8 0.501952 0.374352 0.480139
O O1 0.334602 0.030258 0.778828
O O2 0.187676 0.108677 0.766367
O O3 0.199016 0.993024 0.886162
O O4 0.096614 0.874625 0.771212
O O5 0.528921 0.404307 0.907423
O O6 0.484366 0.242183 0.000000
O O7 0.561231 0.469152 0.033950
O O8 0.334832 0.318553 0.000998
O O9 0.592528 0.185055 0.333334
O O10 0.748514 0.253981 0.435651
O O11 0.696209 0.059306 0.374557
O O12 0.524701 0.076071 0.449041
O O13 0.547855 0.452146 0.166667
O O14 0.767991 0.862136 0.665707
O O15 0.908725 0.091276 0.666667
O O16 0.868254 0.106335 0.030902
O O17 0.892661 0.785321 0.833334
O O18 0.945296 0.632837 0.782856
O O19 0.521792 0.260896 0.500000
#
# Coordination Sequence:
#
# PCOD9576354 Si02
#       8
#     6   6   6   6   6   6   6   6
#     4  11  23  39  61  86 118 157 201 248 296 356
#     4  11  22  37  59  88 126 153 193 241 298 364
#     4  11  22  36  57  88 120 152 196 239 299 358
#     4  11  20  35  57  88 118 154 192 239 299 355
#     4  11  24  39  58  87 120 159 195 246 305 351
#     4  11  24  38  60  90 118 158 199 248 297 358
#     4  11  21  38  63  88 120 154 201 247 299 351
#     4  11  22  36  60  90 119 158 191 242 301 356
#
# _framework density 17.751681000000001
#
# number of rings (size 3 to 8) (size 9 to 14) (size 15 to 20)
#    0.000    1.000    2.500    7.125    5.250    0.000 
#    0.000    0.000    0.000    3.000    0.000    0.000 
#    0.000    0.000    0.000    0.000    0.000    0.000 
#
# Total GULP energy -268071.717349 kJ/mol
# GULP energy per Si atom -5584.827445 kJ/mol
# Density = 1.771128 g / cm^3
# Si number density = 17.751681 Si / 1000 Ang^3
#
#
#
# Elastic Constant Matrix: (Units=GPa)
#
#
# Indices 1 2 3 4 5 6 
#
# 1 72.9699 76.5861 33.0163 0.0007 -3.6979 0.0000
# 2 76.5861 72.9699 33.0163 -0.0007 3.6979 0.0000
# 3 33.0163 33.0163 95.6286 0.0000 0.0000 0.0000
# 4 0.0007 -0.0007 0.0000 25.2522 0.0000 3.6979
# 5 -3.6979 3.6979 0.0000 0.0000 25.2522 0.0007
# 6 0.0000 0.0000 0.0000 3.6979 0.0007 -1.8081
#
#
#
# Elastic Compliance Matrix: (Units=1/GPa)
#
#
# Indices 1 2 3 4 5 6 
#
# 1 -0.102455 0.110344 -0.002724 0.000006 -0.031162 0.000000
# 2 0.110344 -0.102455 -0.002724 -0.000006 0.031162 0.000000
# 3 -0.002724 -0.002724 0.012338 0.000000 0.000000 0.000000
# 4 0.000006 -0.000006 0.000000 0.030474 0.000000 0.062324
# 5 -0.031162 0.031162 0.000000 0.000000 0.030474 0.000011
# 6 0.000000 0.000000 0.000000 0.062324 0.000011 -0.425600
#
#
# Mechanical properties :
#
#
# Convention : Reuss Voigt Hill
#
# Bulk Modulus (GPa) = 58.06851 58.53401 58.30126
# Shear Modulus (GPa) = -6.56790 16.33589 4.88400
#
# Velocity S-wave (km/s) = -1.92559 3.03684 1.66050
# Velocity P-wave (km/s) = 5.27624 6.73364 6.04899
#
# Compressibility (1/GPa) = 0.01722104
#
# Stress axis : x y z
#
# Youngs Moduli (GPa) = -9.76035 -9.76035 81.05106
#
# Poissons Ratio (x) = 1.07700 0.22076
# Poissons Ratio (y) = 1.07700 0.22076
# Poissons Ratio (z) = -0.02658 -0.02658
#
# Static dielectric constant tensor:
#      x y z
#    x 1.603530 0.000000 0.000000 
#    y 0.000000 1.603530 0.000000 
#    z 0.000000 0.000000 1.722010 
# 
# From -- ./inp_files/4056.got.cif
#   From: 2010.05.17/outbox.cif.g08.bks.cpg/sg153_3_cif.got.tgz:4056.got - 2010.05.20 10:38:56.
