data_PCOD9576818
_publ_section_title
;
Structure prediction by ZEFSAII (Michael W. Deem and Ramdas Pophale) SiO2 
 PCOD9576818
Probable space group: R 3 2
;
_chemical_formula_sum "Si O2"
_cell_formula_units_Z 69
_cell_length_a 14.585802
_cell_length_b 14.585802
_cell_length_c 16.795489
_cell_angle_alpha 90.000000
_cell_angle_beta 90.000000
_cell_angle_gamma 120.000000
_cell_volume 3094.453152
_symmetry_space_group_name_H-M "R 3 2"
_symmetry_group_IT_number 155
_symmetry_cell_setting 'hexagonal'
loop_
_space_group_symop_operation_xyz
x,y,z
-y,x-y,z
-x+y,-x,z
x-y,-y,-z
-x,-x+y,-z
y,x,-z
2/3+x,1/3+y,1/3+z
2/3-y,1/3+x-y,1/3+z
2/3-x+y,1/3-x,1/3+z
2/3+x-y,1/3-y,1/3-z
2/3-x,1/3-x+y,1/3-z
2/3+y,1/3+x,1/3-z
1/3+x,2/3+y,2/3+z
1/3-y,2/3+x-y,2/3+z
1/3-x+y,2/3-x,2/3+z
1/3+x-y,2/3-y,2/3-z
1/3-x,2/3-x+y,2/3-z
1/3+y,2/3+x,2/3-z
loop_
_atom_site_type_symbol
_atom_site_label
_atom_site_fract_x
_atom_site_fract_y
_atom_site_fract_z
Si Si1 0.558719 0.744168 0.736781
Si Si2 0.963021 0.600164 0.245164
Si Si3 0.168088 0.927195 0.625370
Si Si4 0.002191 0.335525 0.166667
Si Si5 0.333334 0.666668 0.265059
O O1 0.490736 0.666667 0.666667
O O2 0.531451 0.835170 0.752954
O O3 0.680718 0.800113 0.701497
O O4 0.568249 0.681386 0.811099
O O5 0.982569 0.666667 0.166667
O O6 0.988268 0.654934 0.333334
O O7 0.035110 0.547212 0.238007
O O8 0.271402 0.011251 0.576846
O O9 0.084192 0.966631 0.629505
O O10 0.333334 0.666668 0.166667
#
# Coordination Sequence:
#
# PCOD9576818 Si02
#       5
#    18  18  18   9   6
#     4   9  19  38  61  87 117 158 211 273 322 383
#     4  10  20  38  61  93 125 170 220 266 322 392
#     4  10  22  36  59  90 121 171 211 257 326 383
#     4  10  18  38  58  84 120 154 210 264 320 386
#     4  12  21  39  57  84 135 162 208 260 307 393
#
# _framework density 22.297961999999998
#
# number of rings (size 3 to 8) (size 9 to 14) (size 15 to 20)
#    0.000    2.087    2.609    0.783    0.000    0.000 
#    9.391    0.000    0.000   57.391    0.000    0.000 
#    0.000    0.000    0.000    0.000    0.000    0.000 
#
# Total GULP energy -128041.938708 kJ/mol
# GULP energy per Si atom -5567.040813 kJ/mol
# Density = 2.224721 g / cm^3
# Si number density = 22.297962 Si / 1000 Ang^3
#
#
#
# Elastic Constant Matrix: (Units=GPa)
#
#
# Indices 1 2 3 4 5 6 
#
# 1 103.8598 35.9533 7.7695 -9.2240 0.0004 0.0000
# 2 35.9533 103.8589 7.7698 9.2242 -0.0005 0.0000
# 3 7.7695 7.7698 64.5262 0.0001 0.0000 0.0000
# 4 -9.2240 9.2242 0.0001 24.4172 0.0000 -0.0004
# 5 0.0004 -0.0005 0.0000 0.0000 24.4172 -9.2240
# 6 0.0000 0.0000 0.0000 -0.0004 -9.2240 33.9525
#
#
#
# Elastic Compliance Matrix: (Units=1/GPa)
#
#
# Indices 1 2 3 4 5 6 
#
# 1 0.011830 -0.004581 -0.000873 0.006199 0.000000 0.000000
# 2 -0.004581 0.011830 -0.000873 -0.006199 0.000000 0.000000
# 3 -0.000873 -0.000873 0.015708 0.000000 0.000000 0.000000
# 4 0.006199 -0.006199 0.000000 0.045639 0.000000 0.000001
# 5 0.000000 0.000000 0.000000 0.000000 0.045639 0.012399
# 6 0.000000 0.000000 0.000000 0.000001 0.012399 0.032821
#
#
# Mechanical properties :
#
#
# Convention : Reuss Voigt Hill
#
# Bulk Modulus (GPa) = 37.43208 41.69223 39.56216
# Shear Modulus (GPa) = 27.02354 31.27421 29.14887
#
# Velocity S-wave (km/s) = 3.48505 3.74914 3.61951
# Velocity P-wave (km/s) = 5.74611 6.12207 5.93707
#
# Compressibility (1/GPa) = 0.02671505
#
# Stress axis : x y z
#
# Youngs Moduli (GPa) = 84.53173 84.53078 63.66266
#
# Poissons Ratio (x) = 0.38719 0.05557
# Poissons Ratio (y) = 0.38720 0.05557
# Poissons Ratio (z) = 0.07378 0.07379
#
# Static dielectric constant tensor:
#      x y z
#    x 1.891620 0.000000 0.000000 
#    y 0.000000 1.891610 0.000000 
#    z 0.000000 0.000000 1.888960 
# 
# From -- ./inp_files/5902.got.cif
#   From: 2010.05.17/outbox.cif.g08.bks.cpg/sg155_3_cif.got.tgz:5902.got - 2010.05.20 10:44:35.
