data_PCOD9576463
_publ_section_title
;
Structure prediction by ZEFSAII (Michael W. Deem and Ramdas Pophale) SiO2 
 PCOD9576463
Probable space group: P 32 2 1
;
_chemical_formula_sum "Si O2"
_cell_formula_units_Z 36
_cell_length_a 9.486249
_cell_length_b 9.486249
_cell_length_c 21.783543
_cell_angle_alpha 90.000000
_cell_angle_beta 90.000000
_cell_angle_gamma 120.000000
_cell_volume 1697.650122
_symmetry_space_group_name_H-M "P 32 2 1"
_symmetry_group_IT_number 154
_symmetry_cell_setting 'hexagonal'
loop_
_space_group_symop_operation_xyz
x,y,z
-y,x-y,2/3+z
-x+y,-x,1/3+z
x-y,-y,1/3-z
-x,-x+y,2/3-z
y,x,-z
loop_
_atom_site_type_symbol
_atom_site_label
_atom_site_fract_x
_atom_site_fract_y
_atom_site_fract_z
Si Si1 0.296075 0.929161 0.772949
Si Si2 0.387548 0.642850 0.908853
Si Si3 0.558164 0.286653 0.898706
Si Si4 0.017451 0.937984 0.935380
Si Si5 0.060676 0.407814 0.586897
Si Si6 0.951778 0.715397 0.405103
O O1 0.317183 0.783884 0.743762
O O2 0.333707 0.936633 0.845681
O O3 0.118534 0.904956 0.767655
O O4 0.435441 0.098869 0.744223
O O5 0.382482 0.655589 0.835040
O O6 0.367219 0.786842 0.937247
O O7 0.251281 0.458994 0.924313
O O8 0.390596 0.294071 0.892921
O O9 0.499804 0.118549 0.934624
O O10 0.180814 0.926810 0.943791
O O11 0.079981 0.118042 0.907491
O O12 0.938396 0.938396 0.000000
O O13 0.000000 0.740974 0.333334
#
# Coordination Sequence:
#
# PCOD9576463 Si02
#       6
#     6   6   6   6   6   6
#     4   9  17  31  54  78 102 137 179 220 267 329
#     4   9  17  32  56  81 105 137 179 225 274 336
#     4   8  16  31  54  81 104 135 179 219 271 339
#     4  10  20  34  50  74 107 144 181 220 270 327
#     4   9  17  33  54  76 106 138 171 223 280 327
#     4   9  18  33  54  78 111 151 185 225 283 342
#
# _framework density 21.205784999999999
#
# number of rings (size 3 to 8) (size 9 to 14) (size 15 to 20)
#    0.000    3.000    0.000    1.500    0.000    2.667 
#    0.000    6.667    0.000   20.000    0.000    0.000 
#    0.000    0.000    0.000    0.000    0.000    0.000 
#
# Total GULP energy -200678.236411 kJ/mol
# GULP energy per Si atom -5574.395456 kJ/mol
# Density = 2.115752 g / cm^3
# Si number density = 21.205785 Si / 1000 Ang^3
#
#
#
# Elastic Constant Matrix: (Units=GPa)
#
#
# Indices 1 2 3 4 5 6 
#
# 1 143.1863 68.4891 16.5887 1.8534 0.0006 0.0000
# 2 68.4891 143.1863 16.5887 -1.8534 -0.0006 0.0000
# 3 16.5887 16.5887 37.4326 0.0000 0.0000 0.0000
# 4 1.8534 -1.8534 0.0000 11.0115 0.0000 -0.0006
# 5 0.0006 -0.0006 0.0000 0.0000 11.0115 1.8534
# 6 0.0000 0.0000 0.0000 -0.0006 1.8534 37.3486
#
#
#
# Elastic Compliance Matrix: (Units=1/GPa)
#
#
# Indices 1 2 3 4 5 6 
#
# 1 0.009289 -0.004212 -0.002250 -0.002272 -0.000001 0.000000
# 2 -0.004212 0.009289 -0.002250 0.002272 0.000001 0.000000
# 3 -0.002250 -0.002250 0.028709 0.000000 0.000000 0.000000
# 4 -0.002272 0.002272 0.000000 0.091579 0.000000 0.000002
# 5 -0.000001 0.000001 0.000000 0.000000 0.091579 -0.004545
# 6 0.000000 0.000000 0.000000 0.000002 -0.004545 0.027000
#
#
# Mechanical properties :
#
#
# Convention : Reuss Voigt Hill
#
# Bulk Modulus (GPa) = 33.48623 58.57092 46.02857
# Shear Modulus (GPa) = 17.55482 26.68354 22.11918
#
# Velocity S-wave (km/s) = 2.88033 3.55112 3.23317
# Velocity P-wave (km/s) = 5.18528 6.67039 5.97416
#
# Compressibility (1/GPa) = 0.02986302
#
# Stress axis : x y z
#
# Youngs Moduli (GPa) = 107.65995 107.65995 34.83253
#
# Poissons Ratio (x) = 0.45343 0.07837
# Poissons Ratio (y) = 0.45343 0.07837
# Poissons Ratio (z) = 0.24222 0.24222
#
# Static dielectric constant tensor:
#      x y z
#    x 1.807910 0.000000 0.000000 
#    y 0.000000 1.807910 0.000000 
#    z 0.000000 0.000000 1.844530 
# 
# From -- ./inp_files/3628.got.cif
#   From: 2010.05.17/outbox.cif.g08.bks.cpg/sg154_2_cif.got.tgz:3628.got - 2010.05.20 10:41:43.
