data_PCOD9576536
_publ_section_title
;
Structure prediction by ZEFSAII (Michael W. Deem and Ramdas Pophale) SiO2 
 PCOD9576536
Probable space group: P 32 2 1
;
_chemical_formula_sum "Si O2"
_cell_formula_units_Z 30
_cell_length_a 11.560668
_cell_length_b 11.560668
_cell_length_c 10.560554
_cell_angle_alpha 90.000000
_cell_angle_beta 90.000000
_cell_angle_gamma 120.000000
_cell_volume 1222.315142
_symmetry_space_group_name_H-M "P 32 2 1"
_symmetry_group_IT_number 154
_symmetry_cell_setting 'hexagonal'
loop_
_space_group_symop_operation_xyz
x,y,z
-y,x-y,2/3+z
-x+y,-x,1/3+z
x-y,-y,1/3-z
-x,-x+y,2/3-z
y,x,-z
loop_
_atom_site_type_symbol
_atom_site_label
_atom_site_fract_x
_atom_site_fract_y
_atom_site_fract_z
Si Si1 0.000000 0.389850 0.333334
Si Si2 0.865361 0.403501 0.679935
Si Si3 0.418444 0.701839 0.085246
Si Si4 0.000000 0.831793 0.833334
Si Si5 0.082417 0.277550 0.095378
Si Si6 0.695596 0.070598 0.400512
O O1 0.123527 0.511008 0.403716
O O2 0.054850 0.337775 0.221786
O O3 0.734355 0.335020 0.597017
O O4 0.810264 0.435197 0.808537
O O5 0.622365 0.702685 0.654091
O O6 0.955801 0.544031 0.613059
O O7 0.483557 0.799730 0.965304
O O8 0.053649 0.777108 0.719043
O O9 0.878131 0.844932 0.770092
O O10 0.228694 0.303892 0.136130
#
# Coordination Sequence:
#
# PCOD9576536 Si02
#       6
#     3   6   6   3   6   6
#     4  10  20  44  76 100 138 200 248 286 390 466
#     4  12  26  43  71 109 146 180 248 317 376 446
#     4  11  23  45  71 108 144 186 242 311 371 458
#     4  12  20  46  72  98 144 194 256 292 378 476
#     4  11  24  41  73 103 136 198 246 305 377 462
#     4  11  23  45  71 102 141 192 239 310 381 454
#
# _framework density 24.543589000000001
#
# number of rings (size 3 to 8) (size 9 to 14) (size 15 to 20)
#    0.000    0.800    6.000    2.400    8.400    0.000 
#    0.000    4.000    0.000    0.000    0.000    0.000 
#    0.000    0.000    0.000    0.000    0.000    0.000 
#
# Total GULP energy -167262.082098 kJ/mol
# GULP energy per Si atom -5575.402737 kJ/mol
# Density = 2.448773 g / cm^3
# Si number density = 24.543589 Si / 1000 Ang^3
#
#
#
# Elastic Constant Matrix: (Units=GPa)
#
#
# Indices 1 2 3 4 5 6 
#
# 1 164.1636 21.1732 29.0591 -74.2966 0.0016 0.0000
# 2 21.1732 164.1636 29.0591 74.2966 -0.0016 0.0000
# 3 29.0591 29.0591 101.7451 0.0000 0.0000 0.0000
# 4 -74.2966 74.2966 0.0000 254.1586 0.0000 -0.0016
# 5 0.0016 -0.0016 0.0000 0.0000 254.1586 -74.2966
# 6 0.0000 0.0000 0.0000 -0.0016 -74.2966 71.4952
#
#
#
# Elastic Compliance Matrix: (Units=1/GPa)
#
#
# Indices 1 2 3 4 5 6 
#
# 1 0.007986 -0.002059 -0.001693 0.002936 0.000000 0.000000
# 2 -0.002059 0.007986 -0.001693 -0.002936 0.000000 0.000000
# 3 -0.001693 -0.001693 0.010795 0.000000 0.000000 0.000000
# 4 0.002936 -0.002936 0.000000 0.005651 0.000000 0.000000
# 5 0.000000 0.000000 0.000000 0.000000 0.005651 0.005873
# 6 0.000000 0.000000 0.000000 0.000000 0.005873 0.020090
#
#
# Mechanical properties :
#
#
# Convention : Reuss Voigt Hill
#
# Bulk Modulus (GPa) = 62.98182 65.40614 64.19398
# Shear Modulus (GPa) = 67.25818 139.34789 103.30304
#
# Velocity S-wave (km/s) = 5.24052 7.54314 6.49469
# Velocity P-wave (km/s) = 7.89521 10.12779 9.08037
#
# Compressibility (1/GPa) = 0.01587760
#
# Stress axis : x y z
#
# Youngs Moduli (GPa) = 125.22510 125.22510 92.63274
#
# Poissons Ratio (x) = 0.25787 0.15679
# Poissons Ratio (y) = 0.25787 0.15679
# Poissons Ratio (z) = 0.21196 0.21196
#
# Static dielectric constant tensor:
#      x y z
#    x 1.643320 0.000000 0.000000 
#    y 0.000000 1.643320 0.000000 
#    z 0.000000 0.000000 2.325060 
# 
# From -- ./inp_files/1925.got.cif
#   From: 2010.05.17/outbox.cif.g08.bks.cpg/sg154_1_cif.got.tgz:1925.got - 2010.05.20 10:41:43.
