data_PCOD9576045
_publ_section_title
;
Structure prediction by ZEFSAII (Michael W. Deem and Ramdas Pophale) SiO2 
 PCOD9576045
Probable space group: P 31 2 1
;
_chemical_formula_sum "Si O2"
_cell_formula_units_Z 15
_cell_length_a 7.592946
_cell_length_b 7.592946
_cell_length_c 11.920187
_cell_angle_alpha 90.000000
_cell_angle_beta 90.000000
_cell_angle_gamma 120.000000
_cell_volume 595.160805
_symmetry_space_group_name_H-M "P 31 2 1"
_symmetry_group_IT_number 152
_symmetry_cell_setting 'hexagonal'
loop_
_space_group_symop_operation_xyz
x,y,z
-y,x-y,1/3+z
-x+y,-x,2/3+z
x-y,-y,2/3-z
-x,-x+y,1/3-z
y,x,-z
loop_
_atom_site_type_symbol
_atom_site_label
_atom_site_fract_x
_atom_site_fract_y
_atom_site_fract_z
Si Si1 0.056004 0.056004 0.500000
Si Si2 0.585830 0.865498 0.500822
Si Si3 0.016409 0.357668 0.358403
O O1 0.112745 0.226275 0.407526
O O2 0.826831 0.008984 0.523155
O O3 0.513939 0.681480 0.590901
O O4 0.583059 0.778932 0.376729
O O5 0.472832 0.983789 0.538870
#
# Coordination Sequence:
#
# PCOD9576045 Si02
#       3
#     3   6   6
#     4  10  22  46  66  98 152 188 236 314 358 430
#     4  10  22  43  67 108 143 184 248 308 344 466
#     4  10  23  43  71 101 151 187 245 305 370 427
#
# _framework density 25.203271999999998
#
# number of rings (size 3 to 8) (size 9 to 14) (size 15 to 20)
#    0.000    2.400    0.000    4.800    5.600    3.200 
#    0.000   16.000    0.000    0.000    0.000    0.000 
#    0.000    0.000    0.000    0.000    0.000    0.000 
#
# Total GULP energy -83555.900171 kJ/mol
# GULP energy per Si atom -5570.393345 kJ/mol
# Density = 2.514591 g / cm^3
# Si number density = 25.203272 Si / 1000 Ang^3
#
#
#
# Elastic Constant Matrix: (Units=GPa)
#
#
# Indices 1 2 3 4 5 6 
#
# 1 56.6592 20.5182 30.9997 5.9888 0.0000 0.0000
# 2 20.5182 56.6592 30.9997 -5.9888 0.0000 0.0000
# 3 30.9997 30.9997 125.3500 0.0000 0.0000 0.0000
# 4 5.9888 -5.9888 0.0000 20.5907 0.0000 0.0000
# 5 0.0000 0.0000 0.0000 0.0000 20.5907 5.9888
# 6 0.0000 0.0000 0.0000 0.0000 5.9888 18.0705
#
#
#
# Elastic Compliance Matrix: (Units=1/GPa)
#
#
# Indices 1 2 3 4 5 6 
#
# 1 0.023395 -0.007226 -0.003999 -0.008906 0.000000 0.000000
# 2 -0.007226 0.023395 -0.003999 0.008906 0.000000 0.000000
# 3 -0.003999 -0.003999 0.009956 0.000000 0.000000 0.000000
# 4 -0.008906 0.008906 0.000000 0.053746 0.000000 0.000000
# 5 0.000000 0.000000 0.000000 0.000000 0.053746 -0.017812
# 6 0.000000 0.000000 0.000000 0.000000 -0.017812 0.061242
#
#
# Mechanical properties :
#
#
# Convention : Reuss Voigt Hill
#
# Bulk Modulus (GPa) = 38.02375 44.85597 41.43986
# Shear Modulus (GPa) = 18.88973 22.26042 20.57507
#
# Velocity S-wave (km/s) = 2.74066 2.97515 2.86031
# Velocity P-wave (km/s) = 5.01344 5.44411 5.23321
#
# Compressibility (1/GPa) = 0.02629935
#
# Stress axis : x y z
#
# Youngs Moduli (GPa) = 42.74366 42.74366 100.44689
#
# Poissons Ratio (x) = 0.30885 0.40167
# Poissons Ratio (y) = 0.30885 0.40167
# Poissons Ratio (z) = 0.17092 0.17092
#
# Static dielectric constant tensor:
#      x y z
#    x 2.081300 0.000000 0.000000 
#    y 0.000000 2.081300 0.000000 
#    z 0.000000 0.000000 2.119030 
# 
# From -- ./inp_files/1436.got.cif
#   From: 2010.05.17/outbox.cif.g08.bks.cpg/sg152_1_cif.got.tgz:1436.got - 2010.05.20 10:36:06.
