data_PCOD9576949
_publ_section_title
;
Structure prediction by ZEFSAII (Michael W. Deem and Ramdas Pophale) SiO2 
 PCOD9576949
Probable space group: R 3 2
;
_chemical_formula_sum "Si O2"
_cell_formula_units_Z 108
_cell_length_a 23.129092
_cell_length_b 23.129092
_cell_length_c 10.828575
_cell_angle_alpha 90.000000
_cell_angle_beta 90.000000
_cell_angle_gamma 120.000000
_cell_volume 5016.711284
_symmetry_space_group_name_H-M "R 3 2"
_symmetry_group_IT_number 155
_symmetry_cell_setting 'hexagonal'
loop_
_space_group_symop_operation_xyz
x,y,z
-y,x-y,z
-x+y,-x,z
x-y,-y,-z
-x,-x+y,-z
y,x,-z
2/3+x,1/3+y,1/3+z
2/3-y,1/3+x-y,1/3+z
2/3-x+y,1/3-x,1/3+z
2/3+x-y,1/3-y,1/3-z
2/3-x,1/3-x+y,1/3-z
2/3+y,1/3+x,1/3-z
1/3+x,2/3+y,2/3+z
1/3-y,2/3+x-y,2/3+z
1/3-x+y,2/3-x,2/3+z
1/3+x-y,2/3-y,2/3-z
1/3-x,2/3-x+y,2/3-z
1/3+y,2/3+x,2/3-z
loop_
_atom_site_type_symbol
_atom_site_label
_atom_site_fract_x
_atom_site_fract_y
_atom_site_fract_z
Si Si1 0.211994 0.272259 0.257550
Si Si2 0.598044 0.169021 0.904538
Si Si3 0.077241 0.843185 0.818069
Si Si4 0.830840 0.367903 0.656949
Si Si5 0.070901 0.372866 0.959842
Si Si6 0.983875 0.489355 0.296211
O O1 0.271057 0.333334 0.333334
O O2 0.156439 0.222481 0.354697
O O3 0.231197 0.224375 0.181837
O O4 0.182410 0.304808 0.164184
O O5 0.666667 0.214575 0.833334
O O6 0.545954 0.143819 0.791405
O O7 0.573137 0.208466 0.991328
O O8 0.076941 0.908277 0.766251
O O9 0.121021 0.831822 0.713245
O O10 0.116348 0.861381 0.946761
O O11 0.884590 0.347095 0.614259
O O12 0.060613 0.333334 0.833334
O O13 0.097282 0.334775 0.050138
O O14 0.000000 0.361560 0.000000
#
# Coordination Sequence:
#
# PCOD9576949 Si02
#       6
#    18  18  18  18  18  18
#     4  12  25  36  64  94 129 173 224 269 327 405
#     4  11  24  43  63  92 129 169 223 279 328 386
#     4  10  20  43  61  89 132 169 220 269 326 392
#     4  10  22  44  65  87 130 171 209 280 330 385
#     4  11  23  39  65  97 130 167 212 266 334 413
#     4  10  22  40  61  93 131 174 212 270 337 399
#
# _framework density 21.528047999999998
#
# number of rings (size 3 to 8) (size 9 to 14) (size 15 to 20)
#    0.000    1.333    5.000    2.500    4.667    3.333 
#    4.000    0.000    0.000    0.000    0.000    0.000 
#    0.000    0.000    0.000    0.000    0.000    0.000 
#
# Total GULP energy -201034.337838 kJ/mol
# GULP energy per Si atom -5584.287162 kJ/mol
# Density = 2.147905 g / cm^3
# Si number density = 21.528048 Si / 1000 Ang^3
#
#
#
# Elastic Constant Matrix: (Units=GPa)
#
#
# Indices 1 2 3 4 5 6 
#
# 1 66.6331 22.4237 15.7410 1.8177 -0.0005 0.0000
# 2 22.4237 66.6332 15.7415 -1.8178 0.0003 0.0000
# 3 15.7410 15.7415 38.8825 -0.0002 -0.0012 -0.0001
# 4 1.8177 -1.8178 -0.0002 27.1964 -0.0001 0.0002
# 5 -0.0005 0.0003 -0.0012 -0.0001 27.1958 1.8177
# 6 0.0000 0.0000 -0.0001 0.0002 1.8177 22.1047
#
#
#
# Elastic Compliance Matrix: (Units=1/GPa)
#
#
# Indices 1 2 3 4 5 6 
#
# 1 0.017924 -0.004820 -0.005305 -0.001520 0.000000 0.000000
# 2 -0.004820 0.017924 -0.005305 0.001520 -0.000001 0.000000
# 3 -0.005305 -0.005305 0.030014 0.000000 0.000001 0.000000
# 4 -0.001520 0.001520 0.000000 0.036973 0.000000 0.000000
# 5 0.000000 -0.000001 0.000001 0.000000 0.036974 -0.003040
# 6 0.000000 0.000000 0.000000 0.000000 -0.003040 0.045489
#
#
# Mechanical properties :
#
#
# Convention : Reuss Voigt Hill
#
# Bulk Modulus (GPa) = 28.56992 31.10682 29.83837
# Shear Modulus (GPa) = 21.94651 23.18222 22.56436
#
# Velocity S-wave (km/s) = 3.19633 3.28508 3.24101
# Velocity P-wave (km/s) = 5.18863 5.37306 5.28165
#
# Compressibility (1/GPa) = 0.03500184
#
# Stress axis : x y z
#
# Youngs Moduli (GPa) = 55.78997 55.78970 33.31784
#
# Poissons Ratio (x) = 0.26892 0.17675
# Poissons Ratio (y) = 0.26892 0.17676
# Poissons Ratio (z) = 0.29596 0.29598
#
# Static dielectric constant tensor:
#      x y z
#    x 1.834740 0.000000 0.000000 
#    y 0.000000 1.834740 0.000000 
#    z 0.000000 0.000000 1.803220 
# 
# From -- ./inp_files/4086.got.cif
#   From: 2010.05.17/outbox.cif.g08.bks.cpg/sg155_3_cif.got.tgz:4086.got - 2010.05.20 10:44:35.
