data_PCOD9576562
_publ_section_title
;
Structure prediction by ZEFSAII (Michael W. Deem and Ramdas Pophale) SiO2 
 PCOD9576562
Probable space group: P 32 2 1
;
_chemical_formula_sum "Si O2"
_cell_formula_units_Z 33
_cell_length_a 13.613622
_cell_length_b 13.613622
_cell_length_c 8.808472
_cell_angle_alpha 90.000000
_cell_angle_beta 90.000000
_cell_angle_gamma 120.000000
_cell_volume 1413.769425
_symmetry_space_group_name_H-M "P 32 2 1"
_symmetry_group_IT_number 154
_symmetry_cell_setting 'hexagonal'
loop_
_space_group_symop_operation_xyz
x,y,z
-y,x-y,2/3+z
-x+y,-x,1/3+z
x-y,-y,1/3-z
-x,-x+y,2/3-z
y,x,-z
loop_
_atom_site_type_symbol
_atom_site_label
_atom_site_fract_x
_atom_site_fract_y
_atom_site_fract_z
Si Si1 0.702372 0.694851 0.181031
Si Si2 0.482804 0.689543 0.790125
Si Si3 0.175895 0.529962 0.453842
Si Si4 0.755261 0.925401 0.323522
Si Si5 0.945911 0.945911 0.500000
Si Si6 0.357845 0.476758 0.579350
O O1 0.752429 0.616912 0.235573
O O2 0.564922 0.630097 0.205731
O O3 0.748453 0.808725 0.272965
O O4 0.720817 0.720817 0.000000
O O5 0.426727 0.765539 0.826552
O O6 0.418827 0.598156 0.660200
O O7 0.472339 0.621780 0.944002
O O8 0.265651 0.485113 0.471979
O O9 0.833858 0.956588 0.470394
O O10 0.630802 0.908313 0.352413
O O11 0.796570 0.000000 0.166667
O O12 0.991912 0.000000 0.666667
O O13 0.443257 0.443257 0.500000
#
# Coordination Sequence:
#
# PCOD9576562 Si02
#       6
#     6   6   6   6   3   6
#     4   9  22  40  65  96 132 179 233 285 348 419
#     4  11  21  38  65  94 133 179 220 280 345 418
#     4  10  21  40  61  94 135 175 222 284 349 405
#     4  10  23  45  69  99 139 182 235 287 354 419
#     4  12  26  46  76 106 144 188 232 298 360 422
#     4  10  23  41  66  94 134 184 232 288 351 420
#
# _framework density 23.341856
#
# number of rings (size 3 to 8) (size 9 to 14) (size 15 to 20)
#    0.000    1.818    2.727    0.000    5.091    1.455 
#    1.636    2.727    0.000    0.000    0.000    0.000 
#    0.000    0.000    0.000    0.000    0.000    0.000 
#
# Total GULP energy -183982.359231 kJ/mol
# GULP energy per Si atom -5575.223007 kJ/mol
# Density = 2.328873 g / cm^3
# Si number density = 23.341856 Si / 1000 Ang^3
#
#
#
# Elastic Constant Matrix: (Units=GPa)
#
#
# Indices 1 2 3 4 5 6 
#
# 1 67.1448 16.9531 2.3397 4.3363 0.0001 0.0000
# 2 16.9531 67.1448 2.3397 -4.3363 -0.0001 0.0000
# 3 2.3397 2.3397 51.5569 0.0000 0.0000 0.0000
# 4 4.3363 -4.3363 0.0000 16.9522 0.0000 -0.0001
# 5 0.0001 -0.0001 0.0000 0.0000 16.9522 4.3363
# 6 0.0000 0.0000 0.0000 -0.0001 4.3363 25.0958
#
#
#
# Elastic Compliance Matrix: (Units=1/GPa)
#
#
# Indices 1 2 3 4 5 6 
#
# 1 0.016383 -0.004462 -0.000541 -0.005332 0.000000 0.000000
# 2 -0.004462 0.016383 -0.000541 0.005332 0.000000 0.000000
# 3 -0.000541 -0.000541 0.019445 0.000000 0.000000 0.000000
# 4 -0.005332 0.005332 0.000000 0.061717 0.000000 0.000000
# 5 0.000000 0.000000 0.000000 0.000000 0.061717 -0.010664
# 6 0.000000 0.000000 0.000000 0.000000 -0.010664 0.041690
#
#
# Mechanical properties :
#
#
# Convention : Reuss Voigt Hill
#
# Bulk Modulus (GPa) = 24.31719 25.45686 24.88703
# Shear Modulus (GPa) = 20.64996 22.74763 21.69879
#
# Velocity S-wave (km/s) = 2.97758 3.12515 3.05226
# Velocity P-wave (km/s) = 4.71823 4.89407 4.80695
#
# Compressibility (1/GPa) = 0.04112317
#
# Stress axis : x y z
#
# Youngs Moduli (GPa) = 61.03901 61.03901 51.42673
#
# Poissons Ratio (x) = 0.27235 0.02782
# Poissons Ratio (y) = 0.27235 0.02782
# Poissons Ratio (z) = 0.03302 0.03302
#
# Static dielectric constant tensor:
#      x y z
#    x 2.019630 0.000000 0.000000 
#    y 0.000000 2.019630 0.000000 
#    z 0.000000 0.000000 1.990140 
# 
# From -- ./inp_files/1151.got.cif
#   From: 2010.05.17/outbox.cif.g08.bks.cpg/sg154_1_cif.got.tgz:1151.got - 2010.05.20 10:41:43.
