data_PCOD9576138
_publ_section_title
;
Structure prediction by ZEFSAII (Michael W. Deem and Ramdas Pophale) SiO2 
 PCOD9576138
Probable space group: P 31 2 1
;
_chemical_formula_sum "Si O2"
_cell_formula_units_Z 45
_cell_length_a 14.612916
_cell_length_b 14.612916
_cell_length_c 11.713856
_cell_angle_alpha 90.000000
_cell_angle_beta 90.000000
_cell_angle_gamma 120.000000
_cell_volume 2166.228614
_symmetry_space_group_name_H-M "P 31 2 1"
_symmetry_group_IT_number 152
_symmetry_cell_setting 'hexagonal'
loop_
_space_group_symop_operation_xyz
x,y,z
-y,x-y,1/3+z
-x+y,-x,2/3+z
x-y,-y,2/3-z
-x,-x+y,1/3-z
y,x,-z
loop_
_atom_site_type_symbol
_atom_site_label
_atom_site_fract_x
_atom_site_fract_y
_atom_site_fract_z
Si Si1 0.221658 0.268461 0.122595
Si Si2 0.260312 0.000000 0.833334
Si Si3 0.345835 0.760769 0.846027
Si Si4 0.110453 0.438158 0.632341
Si Si5 0.606770 0.430987 0.235530
Si Si6 0.511034 0.400312 0.849749
Si Si7 0.653177 0.567125 0.683359
Si Si8 0.394082 0.231065 0.198652
O O1 0.314844 0.391945 0.116217
O O2 0.280940 0.222541 0.199229
O O3 0.109504 0.255779 0.160065
O O4 0.216067 0.216067 0.000000
O O5 0.328346 0.005662 0.945802
O O6 0.393728 0.689988 0.801577
O O7 0.225578 0.672879 0.869762
O O8 0.344254 0.835827 0.748416
O O9 0.396125 0.824606 0.961774
O O10 0.116675 0.460210 0.499998
O O11 0.116945 0.536043 0.706398
O O12 0.200457 0.419390 0.679444
O O13 0.000000 0.339753 0.666667
O O14 0.492975 0.348403 0.181694
O O15 0.544832 0.490899 0.752808
O O16 0.750444 0.596633 0.771838
#
# Coordination Sequence:
#
# PCOD9576138 Si02
#       8
#     6   3   6   6   6   6   6   6
#     4  12  24  46  71  99 134 189 244 296 350 423
#     4  12  26  42  70 102 142 174 248 306 350 412
#     4  12  19  35  63  99 144 179 217 263 342 429
#     4  11  23  38  61  97 127 176 230 271 338 415
#     4  12  20  36  63  97 142 184 213 265 338 426
#     4  11  21  39  66  97 141 173 223 279 343 430
#     4  11  23  40  64 107 137 178 219 295 356 418
#     4  11  22  40  67  92 135 170 232 281 342 421
#
# _framework density 20.773429
#
# number of rings (size 3 to 8) (size 9 to 14) (size 15 to 20)
#    0.000    0.533    8.000    2.800    0.000    3.200 
#    0.000    0.667    0.000    0.000    0.000    0.000 
#    0.000    0.000    0.000    0.000    0.000    0.000 
#
# Total GULP energy -251142.489164 kJ/mol
# GULP energy per Si atom -5580.944204 kJ/mol
# Density = 2.072615 g / cm^3
# Si number density = 20.773429 Si / 1000 Ang^3
#
#
#
# Elastic Constant Matrix: (Units=GPa)
#
#
# Indices 1 2 3 4 5 6 
#
# 1 97.4114 25.2464 35.8947 4.6183 0.0000 0.0000
# 2 25.2464 97.4114 35.8947 -4.6183 0.0000 0.0000
# 3 35.8947 35.8947 94.2499 0.0000 0.0000 0.0000
# 4 4.6183 -4.6183 0.0000 32.2463 0.0000 0.0000
# 5 0.0000 0.0000 0.0000 0.0000 32.2463 4.6183
# 6 0.0000 0.0000 0.0000 0.0000 4.6183 36.0825
#
#
#
# Elastic Compliance Matrix: (Units=1/GPa)
#
#
# Indices 1 2 3 4 5 6 
#
# 1 0.012304 -0.001812 -0.003996 -0.002022 0.000000 0.000000
# 2 -0.001812 0.012304 -0.003996 0.002022 0.000000 0.000000
# 3 -0.003996 -0.003996 0.013653 0.000000 0.000000 0.000000
# 4 -0.002022 0.002022 0.000000 0.031590 0.000000 0.000000
# 5 0.000000 0.000000 0.000000 0.000000 0.031590 -0.004043
# 6 0.000000 0.000000 0.000000 0.000000 -0.004043 0.028232
#
#
# Mechanical properties :
#
#
# Convention : Reuss Voigt Hill
#
# Bulk Modulus (GPa) = 53.60837 53.68270 53.64554
# Shear Modulus (GPa) = 32.15473 32.91746 32.53610
#
# Velocity S-wave (km/s) = 3.93858 3.98502 3.96186
# Velocity P-wave (km/s) = 6.82242 6.86090 6.84169
#
# Compressibility (1/GPa) = 0.01865380
#
# Stress axis : x y z
#
# Youngs Moduli (GPa) = 81.27706 81.27706 73.24135
#
# Poissons Ratio (x) = 0.14730 0.29264
# Poissons Ratio (y) = 0.14730 0.29264
# Poissons Ratio (z) = 0.32475 0.32475
#
# Static dielectric constant tensor:
#      x y z
#    x 1.823730 0.000000 0.000000 
#    y 0.000000 1.823730 0.000000 
#    z 0.000000 0.000000 1.794210 
# 
# From -- ./inp_files/1876.got.cif
#   From: 2010.05.17/outbox.cif.g08.bks.cpg/sg152_1_cif.got.tgz:1876.got - 2010.05.20 10:36:06.
