data_PCOD9576493
_publ_section_title
;
Structure prediction by ZEFSAII (Michael W. Deem and Ramdas Pophale) SiO2 
 PCOD9576493
Probable space group: P 32 2 1
;
_chemical_formula_sum "Si O2"
_cell_formula_units_Z 36
_cell_length_a 9.033897
_cell_length_b 9.033897
_cell_length_c 25.196051
_cell_angle_alpha 90.000000
_cell_angle_beta 90.000000
_cell_angle_gamma 120.000000
_cell_volume 1780.792753
_symmetry_space_group_name_H-M "P 32 2 1"
_symmetry_group_IT_number 154
_symmetry_cell_setting 'hexagonal'
loop_
_space_group_symop_operation_xyz
x,y,z
-y,x-y,2/3+z
-x+y,-x,1/3+z
x-y,-y,1/3-z
-x,-x+y,2/3-z
y,x,-z
loop_
_atom_site_type_symbol
_atom_site_label
_atom_site_fract_x
_atom_site_fract_y
_atom_site_fract_z
Si Si1 0.175273 0.176304 0.562260
Si Si2 0.103645 0.620816 0.049111
Si Si3 0.322530 0.540933 0.436369
Si Si4 0.475073 0.109327 0.063260
Si Si5 0.521271 0.189149 0.445023
Si Si6 0.870981 0.897325 0.382528
O O1 0.207540 0.207540 0.500000
O O2 0.350918 0.201263 0.587108
O O3 0.144220 0.332487 0.576798
O O4 0.021400 0.988726 0.571492
O O5 0.292134 0.664889 0.068423
O O6 0.099042 0.795382 0.040702
O O7 0.967302 0.511389 0.094426
O O8 0.061129 0.515534 0.994551
O O9 0.504091 0.542003 0.437462
O O10 0.241090 0.545379 0.492923
O O11 0.637144 0.285193 0.080900
O O12 0.298903 0.107581 0.061103
O O13 0.000000 0.968036 0.333334
#
# Coordination Sequence:
#
# PCOD9576493 Si02
#       6
#     6   6   6   6   6   6
#     4   9  19  37  60  83 114 150 191 246 303 364
#     4  11  22  37  61  87 120 161 203 250 312 385
#     4   9  20  38  60  85 119 160 198 243 312 383
#     4  10  20  38  60  82 115 162 205 248 307 376
#     4  10  20  38  61  86 118 159 200 250 310 377
#     4  11  22  36  57  85 114 150 200 253 307 369
#
# _framework density 20.215716
#
# number of rings (size 3 to 8) (size 9 to 14) (size 15 to 20)
#    0.000    2.000    0.000    6.500    0.000    5.333 
#    0.000    5.833    0.000    0.000    0.000    0.000 
#    0.000    0.000    0.000    0.000    0.000    0.000 
#
# Total GULP energy -200701.741052 kJ/mol
# GULP energy per Si atom -5575.048363 kJ/mol
# Density = 2.016970 g / cm^3
# Si number density = 20.215716 Si / 1000 Ang^3
#
#
#
# Elastic Constant Matrix: (Units=GPa)
#
#
# Indices 1 2 3 4 5 6 
#
# 1 95.1037 33.1727 12.6788 1.8949 0.0002 0.0000
# 2 33.1727 95.1037 12.6788 -1.8949 -0.0002 0.0000
# 3 12.6788 12.6788 47.8959 0.0000 0.0000 0.0000
# 4 1.8949 -1.8949 0.0000 18.5396 0.0000 -0.0002
# 5 0.0002 -0.0002 0.0000 0.0000 18.5396 1.8949
# 6 0.0000 0.0000 0.0000 -0.0002 1.8949 30.9655
#
#
#
# Elastic Compliance Matrix: (Units=1/GPa)
#
#
# Indices 1 2 3 4 5 6 
#
# 1 0.012237 -0.004011 -0.002178 -0.001661 0.000000 0.000000
# 2 -0.004011 0.012237 -0.002178 0.001661 0.000000 0.000000
# 3 -0.002178 -0.002178 0.022031 0.000000 0.000000 0.000000
# 4 -0.001661 0.001661 0.000000 0.054278 0.000000 0.000000
# 5 0.000000 0.000000 0.000000 0.000000 0.054278 -0.003321
# 6 0.000000 0.000000 0.000000 0.000000 -0.003321 0.032497
#
#
# Mechanical properties :
#
#
# Convention : Reuss Voigt Hill
#
# Bulk Modulus (GPa) = 33.58700 39.46265 36.52482
# Shear Modulus (GPa) = 23.34085 25.58050 24.46068
#
# Velocity S-wave (km/s) = 3.40161 3.56107 3.48225
# Velocity P-wave (km/s) = 5.66377 6.03916 5.85448
#
# Compressibility (1/GPa) = 0.02977343
#
# Stress axis : x y z
#
# Youngs Moduli (GPa) = 81.71688 81.71688 45.38957
#
# Poissons Ratio (x) = 0.32779 0.09884
# Poissons Ratio (y) = 0.32779 0.09884
# Poissons Ratio (z) = 0.17794 0.17794
#
# Static dielectric constant tensor:
#      x y z
#    x 1.746890 0.000000 0.000000 
#    y 0.000000 1.746890 0.000000 
#    z 0.000000 0.000000 1.803830 
# 
# From -- ./inp_files/3616.got.cif
#   From: 2010.05.17/outbox.cif.g08.bks.cpg/sg154_2_cif.got.tgz:3616.got - 2010.05.20 10:41:43.
