data_PCOD9576066
_publ_section_title
;
Structure prediction by ZEFSAII (Michael W. Deem and Ramdas Pophale) SiO2 
 PCOD9576066
Probable space group: P 31 2 1
;
_chemical_formula_sum "Si O2"
_cell_formula_units_Z 42
_cell_length_a 12.230484
_cell_length_b 12.230484
_cell_length_c 17.756964
_cell_angle_alpha 90.000000
_cell_angle_beta 90.000000
_cell_angle_gamma 120.000000
_cell_volume 2300.311410
_symmetry_space_group_name_H-M "P 31 2 1"
_symmetry_group_IT_number 152
_symmetry_cell_setting 'hexagonal'
loop_
_space_group_symop_operation_xyz
x,y,z
-y,x-y,1/3+z
-x+y,-x,2/3+z
x-y,-y,2/3-z
-x,-x+y,1/3-z
y,x,-z
loop_
_atom_site_type_symbol
_atom_site_label
_atom_site_fract_x
_atom_site_fract_y
_atom_site_fract_z
Si Si1 0.564089 0.128902 0.806436
Si Si2 0.313748 0.513243 0.677469
Si Si3 0.765117 0.229828 0.935946
Si Si4 0.487649 0.569669 0.931709
Si Si5 0.373981 0.276740 0.171179
Si Si6 0.662976 0.621693 0.795758
Si Si7 0.524261 0.848886 0.565818
O O1 0.601143 0.108610 0.722646
O O2 0.676430 0.159139 0.864985
O O3 0.537323 0.244572 0.799757
O O4 0.443938 0.000000 0.833334
O O5 0.397825 0.648313 0.716350
O O6 0.197271 0.507933 0.635132
O O7 0.271729 0.412166 0.742860
O O8 0.912831 0.287654 0.915785
O O9 0.723704 0.156934 0.015401
O O10 0.370713 0.498414 0.876083
O O11 0.610312 0.611182 0.880578
O O12 0.481337 0.481337 0.000000
O O13 0.329573 0.141409 0.133803
O O14 0.303352 0.357777 0.180278
O O15 0.578648 0.475431 0.767112
#
# Coordination Sequence:
#
# PCOD9576066 Si02
#       7
#     6   6   6   6   6   6   6
#     4  11  23  36  57  90 121 162 201 247 309 376
#     4  11  18  34  56  86 124 149 195 253 307 367
#     4  11  21  36  59  90 124 157 201 256 319 364
#     4  11  21  34  57  88 121 165 204 252 309 370
#     4  11  21  37  56  87 126 164 199 249 311 367
#     4  11  21  39  61  91 127 161 203 257 311 371
#     4  10  23  37  58  89 125 165 196 258 313 372
#
# _framework density 18.258396999999999
#
# number of rings (size 3 to 8) (size 9 to 14) (size 15 to 20)
#    0.000    1.143    5.714    3.429    4.000    0.000 
#    0.000    0.000    0.000    0.857    0.000    0.000 
#    0.000    0.000    0.000    0.000    0.000    0.000 
#
# Total GULP energy -234165.944138 kJ/mol
# GULP energy per Si atom -5575.379622 kJ/mol
# Density = 1.821684 g / cm^3
# Si number density = 18.258397 Si / 1000 Ang^3
#
#
#
# Elastic Constant Matrix: (Units=GPa)
#
#
# Indices 1 2 3 4 5 6 
#
# 1 73.0493 31.5769 24.4190 0.0402 0.0000 0.0000
# 2 31.5769 73.0493 24.4190 -0.0402 0.0000 0.0000
# 3 24.4190 24.4190 90.7824 0.0000 0.0000 0.0000
# 4 0.0402 -0.0402 0.0000 35.1670 0.0000 0.0000
# 5 0.0000 0.0000 0.0000 0.0000 35.1670 0.0402
# 6 0.0000 0.0000 0.0000 0.0000 0.0402 20.7362
#
#
#
# Elastic Compliance Matrix: (Units=1/GPa)
#
#
# Indices 1 2 3 4 5 6 
#
# 1 0.017521 -0.006591 -0.002940 -0.000028 0.000000 0.000000
# 2 -0.006591 0.017521 -0.002940 0.000028 0.000000 0.000000
# 3 -0.002940 -0.002940 0.012597 0.000000 0.000000 0.000000
# 4 -0.000028 0.000028 0.000000 0.028436 0.000000 0.000000
# 5 0.000000 0.000000 0.000000 0.000000 0.028436 -0.000055
# 6 0.000000 0.000000 0.000000 0.000000 -0.000055 0.048225
#
#
# Mechanical properties :
#
#
# Convention : Reuss Voigt Hill
#
# Bulk Modulus (GPa) = 44.05827 44.19010 44.12418
# Shear Modulus (GPa) = 26.99135 28.64510 27.81822
#
# Velocity S-wave (km/s) = 3.84903 3.96520 3.90755
# Velocity P-wave (km/s) = 6.62844 6.72450 6.67664
#
# Compressibility (1/GPa) = 0.02269722
#
# Stress axis : x y z
#
# Youngs Moduli (GPa) = 57.07323 57.07323 79.38387
#
# Poissons Ratio (x) = 0.37618 0.23339
# Poissons Ratio (y) = 0.37618 0.23339
# Poissons Ratio (z) = 0.16780 0.16780
#
# Static dielectric constant tensor:
#      x y z
#    x 1.652480 0.000000 0.000000 
#    y 0.000000 1.652480 0.000000 
#    z 0.000000 0.000000 1.662270 
# 
# From -- ./inp_files/2458.got.cif
#   From: 2010.05.17/outbox.cif.g08.bks.cpg/sg152_2_cif.got.tgz:2458.got - 2010.05.20 10:36:06.
