data_PCOD9576061
_publ_section_title
;
Structure prediction by ZEFSAII (Michael W. Deem and Ramdas Pophale) SiO2 
 PCOD9576061
Probable space group: P 31 2 1
;
_chemical_formula_sum "Si O2"
_cell_formula_units_Z 18
_cell_length_a 8.965496
_cell_length_b 8.965496
_cell_length_c 8.839257
_cell_angle_alpha 90.000000
_cell_angle_beta 90.000000
_cell_angle_gamma 120.000000
_cell_volume 615.311504
_symmetry_space_group_name_H-M "P 31 2 1"
_symmetry_group_IT_number 152
_symmetry_cell_setting 'hexagonal'
loop_
_space_group_symop_operation_xyz
x,y,z
-y,x-y,1/3+z
-x+y,-x,2/3+z
x-y,-y,2/3-z
-x,-x+y,1/3-z
y,x,-z
loop_
_atom_site_type_symbol
_atom_site_label
_atom_site_fract_x
_atom_site_fract_y
_atom_site_fract_z
Si Si1 0.252553 0.490879 0.723050
Si Si2 0.187336 0.912185 0.117391
Si Si3 0.385419 0.283313 0.855960
O O1 0.564904 0.794022 0.882388
O O2 0.401521 0.454012 0.776433
O O3 0.233450 0.658079 0.746726
O O4 0.681467 0.821165 0.608073
O O5 0.337351 0.088108 0.188303
O O6 0.263279 0.263279 0.000000
O O7 0.000000 0.881866 0.166667
#
# Coordination Sequence:
#
# PCOD9576061 Si02
#       3
#     6   6   6
#     4  10  22  46  68 106 147 193 251 305 388 455
#     4   9  20  44  70  97 142 198 244 310 375 458
#     4  11  23  43  70 111 146 191 252 313 377 455
#
# _framework density 29.253474000000001
#
# number of rings (size 3 to 8) (size 9 to 14) (size 15 to 20)
#    0.000    2.000    3.333    0.000    0.000    4.000 
#   30.000    0.000    0.000    0.000    0.000    0.000 
#    0.000    0.000    0.000    0.000    0.000    0.000 
#
# Total GULP energy -100631.397440 kJ/mol
# GULP energy per Si atom -5590.633191 kJ/mol
# Density = 2.918689 g / cm^3
# Si number density = 29.253474 Si / 1000 Ang^3
#
#
#
# Elastic Constant Matrix: (Units=GPa)
#
#
# Indices 1 2 3 4 5 6 
#
# 1 95.6761 26.8253 55.1153 17.1736 0.0000 0.0000
# 2 26.8253 95.6761 55.1153 -17.1736 0.0000 0.0000
# 3 55.1153 55.1153 241.5896 0.0000 0.0000 0.0000
# 4 17.1736 -17.1736 0.0000 48.5730 0.0000 0.0000
# 5 0.0000 0.0000 0.0000 0.0000 48.5730 17.1736
# 6 0.0000 0.0000 0.0000 0.0000 17.1736 34.4254
#
#
#
# Elastic Compliance Matrix: (Units=1/GPa)
#
#
# Indices 1 2 3 4 5 6 
#
# 1 0.013953 -0.003681 -0.002343 -0.006235 0.000000 0.000000
# 2 -0.003681 0.013953 -0.002343 0.006235 0.000000 0.000000
# 3 -0.002343 -0.002343 0.005208 0.000000 0.000000 0.000000
# 4 -0.006235 0.006235 0.000000 0.024996 0.000000 0.000000
# 5 0.000000 0.000000 0.000000 0.000000 0.024996 -0.012470
# 6 0.000000 0.000000 0.000000 0.000000 -0.012470 0.035269
#
#
# Mechanical properties :
#
#
# Convention : Reuss Voigt Hill
#
# Bulk Modulus (GPa) = 61.05526 78.56152 69.80839
# Shear Modulus (GPa) = 35.56882 46.04001 40.80441
#
# Velocity S-wave (km/s) = 3.49073 3.97146 3.73883
# Velocity P-wave (km/s) = 6.09618 6.92414 6.52331
#
# Compressibility (1/GPa) = 0.01637861
#
# Stress axis : x y z
#
# Youngs Moduli (GPa) = 71.66825 71.66825 191.99504
#
# Poissons Ratio (x) = 0.26384 0.44992
# Poissons Ratio (y) = 0.26384 0.44992
# Poissons Ratio (z) = 0.16795 0.16795
#
# Static dielectric constant tensor:
#      x y z
#    x 2.347150 0.000000 0.000000 
#    y 0.000000 2.347150 0.000000 
#    z 0.000000 0.000000 2.404680 
# 
# From -- ./inp_files/1440.got.cif
#   From: 2010.05.17/outbox.cif.g08.bks.cpg/sg152_1_cif.got.tgz:1440.got - 2010.05.20 10:36:06.
