data_PCOD9576090
_publ_section_title
;
Structure prediction by ZEFSAII (Michael W. Deem and Ramdas Pophale) SiO2 
 PCOD9576090
Probable space group: P 31 2 1
;
_chemical_formula_sum "Si O2"
_cell_formula_units_Z 45
_cell_length_a 14.214764
_cell_length_b 14.214764
_cell_length_c 11.492615
_cell_angle_alpha 90.000000
_cell_angle_beta 90.000000
_cell_angle_gamma 120.000000
_cell_volume 2011.077455
_symmetry_space_group_name_H-M "P 31 2 1"
_symmetry_group_IT_number 152
_symmetry_cell_setting 'hexagonal'
loop_
_space_group_symop_operation_xyz
x,y,z
-y,x-y,1/3+z
-x+y,-x,2/3+z
x-y,-y,2/3-z
-x,-x+y,1/3-z
y,x,-z
loop_
_atom_site_type_symbol
_atom_site_label
_atom_site_fract_x
_atom_site_fract_y
_atom_site_fract_z
Si Si1 0.688234 0.982997 0.191678
Si Si2 0.536556 0.079841 0.227280
Si Si3 0.266447 0.992487 0.956240
Si Si4 0.672688 0.363502 0.604917
Si Si5 0.533283 0.149422 0.720677
Si Si6 0.174083 0.438470 0.908475
Si Si7 0.811301 0.064797 0.947137
Si Si8 0.602778 0.000000 0.833334
O O1 0.604879 0.852255 0.182499
O O2 0.721717 0.000000 0.333334
O O3 0.624979 0.051238 0.175790
O O4 0.770206 0.015504 0.079148
O O5 0.594599 0.203839 0.269155
O O6 0.437140 0.072178 0.154456
O O7 0.489266 0.000000 0.333334
O O8 0.319822 0.915988 0.943067
O O9 0.219633 0.000000 0.833334
O O10 0.169438 0.928273 0.043848
O O11 0.355517 0.113783 0.987513
O O12 0.588592 0.235949 0.617323
O O13 0.644566 0.416958 0.498590
O O14 0.678929 0.438575 0.713105
O O15 0.570079 0.060788 0.738933
O O16 0.816322 0.000000 0.833334
O O17 0.713321 0.083072 0.900415
#
# Coordination Sequence:
#
# PCOD9576090 Si02
#       8
#     6   6   6   6   6   6   6   3
#     4  11  23  46  71  95 145 195 249 308 368 450
#     4  11  25  41  63  97 145 191 244 301 372 438
#     4  12  24  42  71 104 142 191 254 302 369 457
#     4  12  23  40  64 101 144 191 241 294 359 450
#     4  12  24  39  66 103 150 194 249 295 365 459
#     4  12  25  40  69 103 136 194 243 302 363 446
#     4  10  26  45  71 100 146 190 243 308 391 427
#     4  10  24  42  62 104 150 202 230 314 376 432
#
# _framework density 22.376066000000002
#
# number of rings (size 3 to 8) (size 9 to 14) (size 15 to 20)
#    0.400    0.267    6.000    2.400    5.600    3.200 
#    0.000    0.000    0.000    4.000    0.000    0.000 
#    0.000    0.000    0.000    0.000    0.000    0.000 
#
# Total GULP energy -250740.837515 kJ/mol
# GULP energy per Si atom -5572.018611 kJ/mol
# Density = 2.232514 g / cm^3
# Si number density = 22.376066 Si / 1000 Ang^3
#
#
#
# Elastic Constant Matrix: (Units=GPa)
#
#
# Indices 1 2 3 4 5 6 
#
# 1 61.2882 10.7718 11.3229 3.7359 0.0001 0.0000
# 2 10.7718 61.2882 11.3229 -3.7359 -0.0001 0.0000
# 3 11.3229 11.3229 75.8845 0.0000 0.0000 0.0000
# 4 3.7359 -3.7359 0.0000 23.6967 0.0000 -0.0001
# 5 0.0001 -0.0001 0.0000 0.0000 23.6967 3.7359
# 6 0.0000 0.0000 0.0000 -0.0001 3.7359 25.2582
#
#
#
# Elastic Compliance Matrix: (Units=1/GPa)
#
#
# Indices 1 2 3 4 5 6 
#
# 1 0.017414 -0.002854 -0.002173 -0.003195 0.000000 0.000000
# 2 -0.002854 0.017414 -0.002173 0.003195 0.000000 0.000000
# 3 -0.002173 -0.002173 0.013826 0.000000 0.000000 0.000000
# 4 -0.003195 0.003195 0.000000 0.043207 0.000000 0.000000
# 5 0.000000 0.000000 0.000000 0.000000 0.043207 -0.006391
# 6 0.000000 0.000000 0.000000 0.000000 -0.006391 0.040536
#
#
# Mechanical properties :
#
#
# Convention : Reuss Voigt Hill
#
# Bulk Modulus (GPa) = 29.19178 29.47736 29.33457
# Shear Modulus (GPa) = 24.82339 25.53320 25.17829
#
# Velocity S-wave (km/s) = 3.33434 3.38167 3.35809
# Velocity P-wave (km/s) = 5.28186 5.33384 5.30791
#
# Compressibility (1/GPa) = 0.03425622
#
# Stress axis : x y z
#
# Youngs Moduli (GPa) = 57.42462 57.42462 72.32612
#
# Poissons Ratio (x) = 0.16389 0.15713
# Poissons Ratio (y) = 0.16389 0.15713
# Poissons Ratio (z) = 0.12476 0.12476
#
# Static dielectric constant tensor:
#      x y z
#    x 1.859560 0.000000 0.000000 
#    y 0.000000 1.859560 0.000000 
#    z 0.000000 0.000000 2.120690 
# 
# From -- ./inp_files/1889.got.cif
#   From: 2010.05.17/outbox.cif.g08.bks.cpg/sg152_1_cif.got.tgz:1889.got - 2010.05.20 10:36:06.
