data_PCOD9576426
_publ_section_title
;
Structure prediction by ZEFSAII (Michael W. Deem and Ramdas Pophale) SiO2 
 PCOD9576426
Probable space group: P 32 2 1
;
_chemical_formula_sum "Si O2"
_cell_formula_units_Z 36
_cell_length_a 8.325233
_cell_length_b 8.325233
_cell_length_c 27.578568
_cell_angle_alpha 90.000000
_cell_angle_beta 90.000000
_cell_angle_gamma 120.000000
_cell_volume 1655.370219
_symmetry_space_group_name_H-M "P 32 2 1"
_symmetry_group_IT_number 154
_symmetry_cell_setting 'hexagonal'
loop_
_space_group_symop_operation_xyz
x,y,z
-y,x-y,2/3+z
-x+y,-x,1/3+z
x-y,-y,1/3-z
-x,-x+y,2/3-z
y,x,-z
loop_
_atom_site_type_symbol
_atom_site_label
_atom_site_fract_x
_atom_site_fract_y
_atom_site_fract_z
Si Si1 0.971624 0.814069 0.041333
Si Si2 0.754372 0.357171 0.722986
Si Si3 0.308254 0.075602 0.446424
Si Si4 0.362080 0.506016 0.360969
Si Si5 0.696290 0.780842 0.110205
Si Si6 0.230981 0.249916 0.942129
O O1 0.826975 0.716864 0.084285
O O2 0.880118 0.880118 0.000000
O O3 0.984875 0.662309 0.009833
O O4 0.136213 0.005569 0.061123
O O5 0.719703 0.500503 0.753981
O O6 0.653952 0.346913 0.672342
O O7 0.692941 0.151940 0.742944
O O8 0.978208 0.452388 0.717178
O O9 0.186748 0.179687 0.446179
O O10 0.349717 0.056954 0.502276
O O11 0.177486 0.883215 0.417655
O O12 0.216159 0.457225 0.404736
O O13 0.267078 0.267078 0.000000
#
# Coordination Sequence:
#
# PCOD9576426 Si02
#       6
#     6   6   6   6   6   6
#     4   8  15  31  55  79 108 149 201 248 303 368
#     4  11  21  34  57  86 121 160 206 263 318 380
#     4   9  18  35  56  83 120 152 203 267 322 375
#     4  10  19  33  55  85 115 159 211 258 310 380
#     4   8  16  33  57  80 111 157 198 261 322 373
#     4  10  19  34  57  86 114 156 204 258 315 378
#
# _framework density 21.747398
#
# number of rings (size 3 to 8) (size 9 to 14) (size 15 to 20)
#    0.000    2.667    0.000    5.000    0.000    2.000 
#    0.000   15.000   11.000    0.000    0.000    0.000 
#    0.000    0.000    0.000    0.000    0.000    0.000 
#
# Total GULP energy -200417.300705 kJ/mol
# GULP energy per Si atom -5567.147242 kJ/mol
# Density = 2.169790 g / cm^3
# Si number density = 21.747398 Si / 1000 Ang^3
#
#
#
# Elastic Constant Matrix: (Units=GPa)
#
#
# Indices 1 2 3 4 5 6 
#
# 1 74.3177 36.6776 45.4657 3.6461 0.0000 0.0000
# 2 36.6776 74.3177 45.4657 -3.6461 0.0000 0.0000
# 3 45.4657 45.4657 163.5465 0.0000 0.0000 0.0000
# 4 3.6461 -3.6461 0.0000 13.5931 0.0000 0.0000
# 5 0.0000 0.0000 0.0000 0.0000 13.5931 3.6461
# 6 0.0000 0.0000 0.0000 0.0000 3.6461 18.8200
#
#
#
# Elastic Compliance Matrix: (Units=1/GPa)
#
#
# Indices 1 2 3 4 5 6 
#
# 1 0.019845 -0.008179 -0.003243 -0.007517 0.000000 0.000000
# 2 -0.008179 0.019845 -0.003243 0.007517 0.000000 0.000000
# 3 -0.003243 -0.003243 0.007918 0.000000 0.000000 0.000000
# 4 -0.007517 0.007517 0.000000 0.077599 0.000000 0.000000
# 5 0.000000 0.000000 0.000000 0.000000 0.077599 -0.015034
# 6 0.000000 0.000000 0.000000 0.000000 -0.015034 0.056047
#
#
# Mechanical properties :
#
#
# Convention : Reuss Voigt Hill
#
# Bulk Modulus (GPa) = 54.71207 63.04443 58.87825
# Shear Modulus (GPa) = 16.99085 21.50611 19.24848
#
# Velocity S-wave (km/s) = 2.79817 3.14810 2.97828
# Velocity P-wave (km/s) = 5.97096 6.50126 6.24174
#
# Compressibility (1/GPa) = 0.01827750
#
# Stress axis : x y z
#
# Youngs Moduli (GPa) = 50.39042 50.39042 126.29923
#
# Poissons Ratio (x) = 0.41213 0.40962
# Poissons Ratio (y) = 0.41213 0.40962
# Poissons Ratio (z) = 0.16343 0.16343
#
# Static dielectric constant tensor:
#      x y z
#    x 1.864150 0.000000 0.000000 
#    y 0.000000 1.864150 0.000000 
#    z 0.000000 0.000000 1.806250 
# 
# From -- ./inp_files/3436.got.cif
#   From: 2010.05.17/outbox.cif.g08.bks.cpg/sg154_2_cif.got.tgz:3436.got - 2010.05.20 10:41:43.
