data_PCOD9576544
_publ_section_title
;
Structure prediction by ZEFSAII (Michael W. Deem and Ramdas Pophale) SiO2 
 PCOD9576544
Probable space group: P 32 2 1
;
_chemical_formula_sum "Si O2"
_cell_formula_units_Z 33
_cell_length_a 8.786094
_cell_length_b 8.786094
_cell_length_c 27.001926
_cell_angle_alpha 90.000000
_cell_angle_beta 90.000000
_cell_angle_gamma 120.000000
_cell_volume 1805.165668
_symmetry_space_group_name_H-M "P 32 2 1"
_symmetry_group_IT_number 154
_symmetry_cell_setting 'hexagonal'
loop_
_space_group_symop_operation_xyz
x,y,z
-y,x-y,2/3+z
-x+y,-x,1/3+z
x-y,-y,1/3-z
-x,-x+y,2/3-z
y,x,-z
loop_
_atom_site_type_symbol
_atom_site_label
_atom_site_fract_x
_atom_site_fract_y
_atom_site_fract_z
Si Si1 0.540255 0.540255 0.500000
Si Si2 0.169195 0.308095 0.957968
Si Si3 0.358299 0.487825 0.601922
Si Si4 0.099446 0.663936 0.190671
Si Si5 0.681514 0.177143 0.437748
Si Si6 0.788738 0.980472 0.981565
O O1 0.435720 0.457283 0.550808
O O2 0.557714 0.731476 0.497836
O O3 0.157909 0.486526 0.958397
O O4 0.249899 0.308262 0.904374
O O5 0.286579 0.286579 0.000000
O O6 0.972618 0.147013 0.964418
O O7 0.206090 0.528518 0.585376
O O8 0.291367 0.331543 0.640609
O O9 0.167409 0.538459 0.212789
O O10 0.944233 0.563750 0.152550
O O11 0.746402 0.092597 0.396750
O O12 0.835018 0.835018 0.000000
#
# Coordination Sequence:
#
# PCOD9576544 Si02
#       6
#     3   6   6   6   6   6
#     4   8  18  38  58  76 108 148 180 216 276 332
#     4   9  20  39  58  79 111 150 185 221 277 336
#     4  10  21  38  58  81 112 147 184 228 276 328
#     4  10  21  37  57  81 109 143 182 224 273 326
#     4  10  22  37  57  84 110 142 185 230 274 325
#     4  11  23  37  56  84 113 145 185 228 277 330
#
# _framework density 18.280868999999999
#
# number of rings (size 3 to 8) (size 9 to 14) (size 15 to 20)
#    0.000    2.545    0.000    3.273    0.000   10.182 
#    0.000    0.000    0.000    0.000    0.000    0.000 
#    0.000    0.000    0.000    0.000    0.000    0.000 
#
# Total GULP energy -184148.146266 kJ/mol
# GULP energy per Si atom -5580.246857 kJ/mol
# Density = 1.823926 g / cm^3
# Si number density = 18.280869 Si / 1000 Ang^3
#
#
#
# Elastic Constant Matrix: (Units=GPa)
#
#
# Indices 1 2 3 4 5 6 
#
# 1 66.4380 54.7206 80.2269 -4.5271 0.0000 0.0000
# 2 54.7206 66.4380 80.2269 4.5271 0.0000 0.0000
# 3 80.2269 80.2269 153.5710 0.0000 0.0000 0.0000
# 4 -4.5271 4.5271 0.0000 4.5143 0.0000 0.0000
# 5 0.0000 0.0000 0.0000 0.0000 4.5143 -4.5271
# 6 0.0000 0.0000 0.0000 0.0000 -4.5271 5.8587
#
#
#
# Elastic Compliance Matrix: (Units=1/GPa)
#
#
# Indices 1 2 3 4 5 6 
#
# 1 0.202966 -0.176182 -0.013992 0.380224 0.000000 0.000000
# 2 -0.176182 0.202966 -0.013992 -0.380224 0.000000 0.000000
# 3 -0.013992 -0.013992 0.021131 0.000000 0.000000 0.000000
# 4 0.380224 -0.380224 0.000000 0.984123 0.000000 0.000000
# 5 0.000000 0.000000 0.000000 0.000000 0.984123 0.760447
# 6 0.000000 0.000000 0.000000 0.000000 0.760447 0.758296
#
#
# Mechanical properties :
#
#
# Convention : Reuss Voigt Hill
#
# Bulk Modulus (GPa) = 53.39017 79.64395 66.51706
# Shear Modulus (GPa) = 1.40127 7.72897 4.56512
#
# Velocity S-wave (km/s) = 0.87646 2.05842 1.58197
# Velocity P-wave (km/s) = 5.50392 7.02217 6.30888
#
# Compressibility (1/GPa) = 0.01873004
#
# Stress axis : x y z
#
# Youngs Moduli (GPa) = 4.92694 4.92694 47.32420
#
# Poissons Ratio (x) = 0.86804 0.66216
# Poissons Ratio (y) = 0.86804 0.66216
# Poissons Ratio (z) = 0.06894 0.06894
#
# Static dielectric constant tensor:
#      x y z
#    x 1.624270 0.000000 0.000000 
#    y 0.000000 1.624270 0.000000 
#    z 0.000000 0.000000 1.616960 
# 
# From -- ./inp_files/3425.got.cif
#   From: 2010.05.17/outbox.cif.g08.bks.cpg/sg154_2_cif.got.tgz:3425.got - 2010.05.20 10:41:43.
