data_PCOD9576160
_publ_section_title
;
Structure prediction by ZEFSAII (Michael W. Deem and Ramdas Pophale) SiO2 
 PCOD9576160
Probable space group: P 31 2 1
;
_chemical_formula_sum "Si O2"
_cell_formula_units_Z 24
_cell_length_a 15.454001
_cell_length_b 15.454001
_cell_length_c 5.062204
_cell_angle_alpha 90.000000
_cell_angle_beta 90.000000
_cell_angle_gamma 120.000000
_cell_volume 1047.013174
_symmetry_space_group_name_H-M "P 31 2 1"
_symmetry_group_IT_number 152
_symmetry_cell_setting 'hexagonal'
loop_
_space_group_symop_operation_xyz
x,y,z
-y,x-y,1/3+z
-x+y,-x,2/3+z
x-y,-y,2/3-z
-x,-x+y,1/3-z
y,x,-z
loop_
_atom_site_type_symbol
_atom_site_label
_atom_site_fract_x
_atom_site_fract_y
_atom_site_fract_z
Si Si1 0.933123 0.420052 0.916076
Si Si2 0.348856 0.234349 0.925577
Si Si3 0.306712 0.105119 0.446807
Si Si4 0.765434 0.426070 0.632264
O O1 0.915030 0.308092 0.893401
O O2 0.830687 0.419313 0.871840
O O3 0.000000 0.477754 0.666667
O O4 0.000000 0.473802 0.166667
O O5 0.345347 0.176101 0.192383
O O6 0.464675 0.292450 0.841431
O O7 0.307005 0.307005 0.000000
O O8 0.285714 0.159115 0.689202
O O9 0.219556 0.000000 0.333334
O O10 0.743114 0.338643 0.426354
#
# Coordination Sequence:
#
# PCOD9576160 Si02
#       4
#     6   6   6   6
#     4  11  24  43  69 100 140 191 251 302 354 433
#     4  12  26  46  72 111 152 192 248 316 376 435
#     4  11  23  47  75 103 138 190 250 304 372 448
#     4  12  27  44  69 105 158 204 254 297 362 445
#
# _framework density 22.922348
#
# number of rings (size 3 to 8) (size 9 to 14) (size 15 to 20)
#    0.000    0.500    2.500    6.750    3.500    2.000 
#    0.000    0.000    0.000    7.500    0.000    0.000 
#    0.000    0.000    0.000    0.000    0.000    0.000 
#
# Total GULP energy -134504.943513 kJ/mol
# GULP energy per Si atom -5604.372646 kJ/mol
# Density = 2.287018 g / cm^3
# Si number density = 22.922348 Si / 1000 Ang^3
#
#
#
# Elastic Constant Matrix: (Units=GPa)
#
#
# Indices 1 2 3 4 5 6 
#
# 1 100.6256 53.7719 33.1405 2.7816 0.0001 0.0000
# 2 53.7719 100.6256 33.1405 -2.7816 -0.0001 0.0000
# 3 33.1405 33.1405 132.7488 0.0000 0.0000 0.0000
# 4 2.7816 -2.7816 0.0000 39.1404 0.0000 -0.0001
# 5 0.0001 -0.0001 0.0000 0.0000 39.1404 2.7816
# 6 0.0000 0.0000 0.0000 -0.0001 2.7816 23.4269
#
#
#
# Elastic Compliance Matrix: (Units=1/GPa)
#
#
# Indices 1 2 3 4 5 6 
#
# 1 0.014389 -0.007135 -0.001811 -0.001530 0.000000 0.000000
# 2 -0.007135 0.014389 -0.001811 0.001530 0.000000 0.000000
# 3 -0.001811 -0.001811 0.008437 0.000000 0.000000 0.000000
# 4 -0.001530 0.001530 0.000000 0.025767 0.000000 0.000000
# 5 0.000000 0.000000 0.000000 0.000000 0.025767 -0.003059
# 6 0.000000 0.000000 0.000000 0.000000 -0.003059 0.043049
#
#
# Mechanical properties :
#
#
# Convention : Reuss Voigt Hill
#
# Bulk Modulus (GPa) = 63.68737 63.78951 63.73844
# Shear Modulus (GPa) = 31.53643 34.60466 33.07054
#
# Velocity S-wave (km/s) = 3.71319 3.88963 3.80244
# Velocity P-wave (km/s) = 6.79912 6.93262 6.86620
#
# Compressibility (1/GPa) = 0.01570170
#
# Stress axis : x y z
#
# Youngs Moduli (GPa) = 69.49539 69.49539 118.52198
#
# Poissons Ratio (x) = 0.49586 0.21464
# Poissons Ratio (y) = 0.49586 0.21464
# Poissons Ratio (z) = 0.12586 0.12586
#
# Static dielectric constant tensor:
#      x y z
#    x 1.803010 0.000000 0.000000 
#    y 0.000000 1.803010 0.000000 
#    z 0.000000 0.000000 1.833140 
# 
# From -- ./inp_files/163.got.cif
#   From: 2010.05.17/outbox.cif.g08.bks.cpg/sg152_1_cif.got.tgz:163.got - 2010.05.20 10:36:06.
