data_PCOD9576728
_publ_section_title
;
Structure prediction by ZEFSAII (Michael W. Deem and Ramdas Pophale) SiO2 
 PCOD9576728
Probable space group: P 32 2 1
;
_chemical_formula_sum "Si O2"
_cell_formula_units_Z 30
_cell_length_a 7.149190
_cell_length_b 7.149190
_cell_length_c 24.587291
_cell_angle_alpha 90.000000
_cell_angle_beta 90.000000
_cell_angle_gamma 120.000000
_cell_volume 1088.315943
_symmetry_space_group_name_H-M "P 32 2 1"
_symmetry_group_IT_number 154
_symmetry_cell_setting 'hexagonal'
loop_
_space_group_symop_operation_xyz
x,y,z
-y,x-y,2/3+z
-x+y,-x,1/3+z
x-y,-y,1/3-z
-x,-x+y,2/3-z
y,x,-z
loop_
_atom_site_type_symbol
_atom_site_label
_atom_site_fract_x
_atom_site_fract_y
_atom_site_fract_z
Si Si1 0.044246 0.228890 0.572011
Si Si2 0.212608 0.706998 0.739838
Si Si3 0.672402 0.204221 0.380825
Si Si4 0.506261 0.466418 0.146320
Si Si5 0.257849 0.108510 0.239007
O O1 0.262406 0.213696 0.575777
O O2 0.085968 0.412642 0.615914
O O3 0.010393 0.338544 0.518391
O O4 0.897139 0.024714 0.757675
O O5 0.299248 0.750794 0.678534
O O6 0.069222 0.451158 0.746342
O O7 0.420582 0.816954 0.778470
O O8 0.781439 0.356027 0.433535
O O9 0.738073 0.020586 0.386039
O O10 0.355201 0.258602 0.184007
#
# Coordination Sequence:
#
# PCOD9576728 Si02
#       5
#     6   6   6   6   6
#     4  11  26  51  80 114 159 219 277 337 424 506
#     4  12  25  46  80 115 160 215 271 345 422 498
#     4  11  25  49  77 115 163 213 270 348 421 492
#     4  11  25  51  78 121 164 215 280 344 418 508
#     4  11  25  49  81 108 160 214 277 334 413 507
#
# _framework density 27.565524
#
# number of rings (size 3 to 8) (size 9 to 14) (size 15 to 20)
#    0.000    0.800    2.000    4.800    0.000    2.400 
#   25.200    0.000    0.000    2.400    0.000    0.000 
#    0.000    0.000    0.000    0.000    0.000    0.000 
#
# Total GULP energy -167972.137013 kJ/mol
# GULP energy per Si atom -5599.071234 kJ/mol
# Density = 2.750278 g / cm^3
# Si number density = 27.565524 Si / 1000 Ang^3
#
#
#
# Elastic Constant Matrix: (Units=GPa)
#
#
# Indices 1 2 3 4 5 6 
#
# 1 134.9646 25.0268 24.4226 2.8012 0.0000 0.0000
# 2 25.0268 134.9646 24.4226 -2.8012 0.0000 0.0000
# 3 24.4226 24.4226 128.7327 0.0000 0.0000 0.0000
# 4 2.8012 -2.8012 0.0000 22.0633 0.0000 0.0000
# 5 0.0000 0.0000 0.0000 0.0000 22.0633 2.8012
# 6 0.0000 0.0000 0.0000 0.0000 2.8012 54.9689
#
#
#
# Elastic Compliance Matrix: (Units=1/GPa)
#
#
# Indices 1 2 3 4 5 6 
#
# 1 0.007895 -0.001260 -0.001259 -0.001162 0.000000 0.000000
# 2 -0.001260 0.007895 -0.001259 0.001162 0.000000 0.000000
# 3 -0.001259 -0.001259 0.008246 0.000000 0.000000 0.000000
# 4 -0.001162 0.001162 0.000000 0.045619 0.000000 0.000000
# 5 0.000000 0.000000 0.000000 0.000000 0.045619 -0.002325
# 6 0.000000 0.000000 0.000000 0.000000 -0.002325 0.018311
#
#
# Mechanical properties :
#
#
# Convention : Reuss Voigt Hill
#
# Bulk Modulus (GPa) = 60.67931 60.71178 60.69554
# Shear Modulus (GPa) = 34.09866 41.47176 37.78521
#
# Velocity S-wave (km/s) = 3.52092 3.88297 3.70637
# Velocity P-wave (km/s) = 6.21206 6.49428 6.35474
#
# Compressibility (1/GPa) = 0.01648008
#
# Stress axis : x y z
#
# Youngs Moduli (GPa) = 126.66322 126.66322 121.27651
#
# Poissons Ratio (x) = 0.15964 0.15265
# Poissons Ratio (y) = 0.15964 0.15265
# Poissons Ratio (z) = 0.15943 0.15943
#
# Static dielectric constant tensor:
#      x y z
#    x 2.175010 0.000000 0.000000 
#    y 0.000000 2.175010 0.000000 
#    z 0.000000 0.000000 2.191490 
# 
# From -- ./inp_files/3032.got.cif
#   From: 2010.05.17/outbox.cif.g08.bks.cpg/sg154_2_cif.got.tgz:3032.got - 2010.05.20 10:41:43.
