data_PCOD9576646
_publ_section_title
;
Structure prediction by ZEFSAII (Michael W. Deem and Ramdas Pophale) SiO2 
 PCOD9576646
Probable space group: P 32 2 1
;
_chemical_formula_sum "Si O2"
_cell_formula_units_Z 45
_cell_length_a 11.979089
_cell_length_b 11.979089
_cell_length_c 16.632410
_cell_angle_alpha 90.000000
_cell_angle_beta 90.000000
_cell_angle_gamma 120.000000
_cell_volume 2066.966305
_symmetry_space_group_name_H-M "P 32 2 1"
_symmetry_group_IT_number 154
_symmetry_cell_setting 'hexagonal'
loop_
_space_group_symop_operation_xyz
x,y,z
-y,x-y,2/3+z
-x+y,-x,1/3+z
x-y,-y,1/3-z
-x,-x+y,2/3-z
y,x,-z
loop_
_atom_site_type_symbol
_atom_site_label
_atom_site_fract_x
_atom_site_fract_y
_atom_site_fract_z
Si Si1 0.246373 0.991392 0.919614
Si Si2 0.051416 0.492807 0.661050
Si Si3 0.667348 0.400519 0.535695
Si Si4 0.929475 0.591665 0.449643
Si Si5 0.339158 0.941553 0.583723
Si Si6 0.896348 0.583981 0.762760
Si Si7 0.809673 0.000000 0.666667
Si Si8 0.324306 0.500101 0.189581
O O1 0.307156 0.020554 0.828943
O O2 0.160081 0.835963 0.926262
O O3 0.174860 0.069408 0.947207
O O4 0.363667 0.023395 0.981538
O O5 0.169530 0.544797 0.723549
O O6 0.109101 0.546498 0.573961
O O7 0.962652 0.550299 0.689913
O O8 0.802424 0.512619 0.502144
O O9 0.554621 0.352238 0.468785
O O10 0.680697 0.273143 0.545648
O O11 0.970160 0.486228 0.422855
O O12 0.914021 0.678955 0.384193
O O13 0.059732 0.694097 0.494071
O O14 0.260021 0.787427 0.585533
O O15 0.324948 0.000000 0.666667
O O16 0.000000 0.654286 0.833334
#
# Coordination Sequence:
#
# PCOD9576646 Si02
#       8
#     6   6   6   6   6   6   3   6
#     4  12  25  47  69 104 144 193 243 294 370 436
#     4  11  24  40  73 100 137 183 236 302 357 428
#     4  10  23  41  65 101 144 181 233 298 361 425
#     4  11  22  41  66 105 145 188 234 293 367 436
#     4  11  24  40  67 102 144 184 237 297 356 429
#     4  10  23  44  66  98 135 183 242 297 354 428
#     4  12  26  46  70  98 154 194 244 300 358 448
#     4  11  23  37  65 107 139 180 235 289 367 426
#
# _framework density 21.771035999999999
#
# number of rings (size 3 to 8) (size 9 to 14) (size 15 to 20)
#    0.000    1.067    4.667    0.800    7.467    0.000 
#    0.000    2.667    0.000    0.000    0.000    0.000 
#    0.000    0.000    0.000    0.000    0.000    0.000 
#
# Total GULP energy -251089.231587 kJ/mol
# GULP energy per Si atom -5579.760702 kJ/mol
# Density = 2.172148 g / cm^3
# Si number density = 21.771036 Si / 1000 Ang^3
#
#
#
# Elastic Constant Matrix: (Units=GPa)
#
#
# Indices 1 2 3 4 5 6 
#
# 1 108.2533 43.9962 41.3384 2.5645 -0.0005 0.0000
# 2 43.9962 108.2533 41.3384 -2.5645 0.0005 0.0000
# 3 41.3384 41.3384 88.6966 0.0000 0.0000 0.0000
# 4 2.5645 -2.5645 0.0000 22.2375 0.0000 0.0005
# 5 -0.0005 0.0005 0.0000 0.0000 22.2375 2.5645
# 6 0.0000 0.0000 0.0000 0.0005 2.5645 32.1285
#
#
#
# Elastic Compliance Matrix: (Units=1/GPa)
#
#
# Indices 1 2 3 4 5 6 
#
# 1 0.012250 -0.003457 -0.004098 -0.001811 0.000000 0.000000
# 2 -0.003457 0.012250 -0.004098 0.001811 0.000000 0.000000
# 3 -0.004098 -0.004098 0.015095 0.000000 0.000000 0.000000
# 4 -0.001811 0.001811 0.000000 0.045387 0.000000 -0.000001
# 5 0.000000 0.000000 0.000000 0.000000 0.045387 -0.003623
# 6 0.000000 0.000000 0.000000 -0.000001 -0.003623 0.031414
#
#
# Mechanical properties :
#
#
# Convention : Reuss Voigt Hill
#
# Bulk Modulus (GPa) = 61.39353 62.06103 61.72728
# Shear Modulus (GPa) = 26.24394 27.22271 26.73333
#
# Velocity S-wave (km/s) = 3.47573 3.53995 3.50799
# Velocity P-wave (km/s) = 6.66096 6.72878 6.69496
#
# Compressibility (1/GPa) = 0.01628836
#
# Stress axis : x y z
#
# Youngs Moduli (GPa) = 81.62984 81.62984 66.24847
#
# Poissons Ratio (x) = 0.28217 0.27152
# Poissons Ratio (y) = 0.28217 0.27152
# Poissons Ratio (z) = 0.33456 0.33456
#
# Static dielectric constant tensor:
#      x y z
#    x 1.871970 0.000000 0.000000 
#    y 0.000000 1.871970 0.000000 
#    z 0.000000 0.000000 1.841720 
# 
# From -- ./inp_files/2497.got.cif
#   From: 2010.05.17/outbox.cif.g08.bks.cpg/sg154_2_cif.got.tgz:2497.got - 2010.05.20 10:41:43.
