data_PCOD9576336
_publ_section_title
;
Structure prediction by ZEFSAII (Michael W. Deem and Ramdas Pophale) SiO2 
 PCOD9576336
Probable space group: P 32 1 2
;
_chemical_formula_sum "Si O2"
_cell_formula_units_Z 42
_cell_length_a 8.141514
_cell_length_b 8.141514
_cell_length_c 32.812907
_cell_angle_alpha 90.000000
_cell_angle_beta 90.000000
_cell_angle_gamma 120.000000
_cell_volume 1883.587013
_symmetry_space_group_name_H-M "P 32 1 2"
_symmetry_group_IT_number 153
_symmetry_cell_setting 'hexagonal'
loop_
_space_group_symop_operation_xyz
x,y,z
-y,x-y,2/3+z
-x+y,-x,1/3+z
-y,-x,1/3-z
-x+y,y,2/3-z
x,x-y,-z
loop_
_atom_site_type_symbol
_atom_site_label
_atom_site_fract_x
_atom_site_fract_y
_atom_site_fract_z
Si Si1 0.729373 0.627804 0.148156
Si Si2 0.760273 0.845944 0.790082
Si Si3 0.496818 0.933569 0.500192
Si Si4 0.240073 0.257932 0.035958
Si Si5 0.850561 0.729465 0.991285
Si Si6 0.647600 0.155778 0.935363
Si Si7 0.875891 0.550192 0.757658
O O1 0.527846 0.472155 0.166667
O O2 0.812375 0.822380 0.172528
O O3 0.694410 0.639951 0.100826
O O4 0.869934 0.543938 0.152286
O O5 0.546360 0.684644 0.803772
O O6 0.805921 0.978019 0.749785
O O7 0.839482 0.704027 0.781352
O O8 0.560172 0.780086 0.500000
O O9 0.459496 0.972699 0.546466
O O10 0.447734 0.430489 0.043538
O O11 0.062949 0.277415 0.021684
O O12 0.259345 0.129673 0.000000
O O13 0.704071 0.630354 0.954544
O O14 0.798745 0.594046 0.029643
O O15 0.854247 0.927124 0.000000
O O16 0.645178 0.339058 0.916535
#
# Coordination Sequence:
#
# PCOD9576336 Si02
#       7
#     6   6   6   6   6   6   6
#     4  12  23  46  74 108 143 188 246 300 380 438
#     4  11  23  43  73 102 146 189 243 309 365 444
#     4  12  26  44  67 112 150 189 244 304 374 452
#     4  10  22  43  70 100 135 189 243 294 363 428
#     4  10  25  44  66 105 136 185 250 300 358 438
#     4  12  23  47  75  99 144 193 244 300 368 445
#     4  11  23  46  72  98 141 195 240 298 372 434
#
# _framework density 22.297882000000001
#
# number of rings (size 3 to 8) (size 9 to 14) (size 15 to 20)
#    0.000    0.857    4.286    2.143    2.000    1.143 
#   15.429    2.857    0.000    0.000    0.000    0.000 
#    0.000    0.000    0.000    0.000    0.000    0.000 
#
# Total GULP energy -234277.906417 kJ/mol
# GULP energy per Si atom -5578.045391 kJ/mol
# Density = 2.224713 g / cm^3
# Si number density = 22.297882 Si / 1000 Ang^3
#
#
#
# Elastic Constant Matrix: (Units=GPa)
#
#
# Indices 1 2 3 4 5 6 
#
# 1 60.7115 34.8606 45.8740 -0.0001 9.6991 0.0000
# 2 34.8606 60.7115 45.8740 0.0001 -9.6991 0.0000
# 3 45.8740 45.8740 164.9055 0.0000 0.0000 0.0000
# 4 -0.0001 0.0001 0.0000 36.7520 0.0000 -9.6991
# 5 9.6991 -9.6991 0.0000 0.0000 36.7520 -0.0001
# 6 0.0000 0.0000 0.0000 -9.6991 -0.0001 12.9254
#
#
#
# Elastic Compliance Matrix: (Units=1/GPa)
#
#
# Indices 1 2 3 4 5 6 
#
# 1 0.031256 -0.016980 -0.003971 0.000000 -0.012730 0.000000
# 2 -0.016980 0.031256 -0.003971 0.000000 0.012730 0.000000
# 3 -0.003971 -0.003971 0.008274 0.000000 0.000000 0.000000
# 4 0.000000 0.000000 0.000000 0.033928 0.000000 0.025460
# 5 -0.012730 0.012730 0.000000 0.000000 0.033928 0.000000
# 6 0.000000 0.000000 0.000000 0.025460 0.000000 0.096471
#
#
# Mechanical properties :
#
#
# Convention : Reuss Voigt Hill
#
# Bulk Modulus (GPa) = 47.75581 59.94954 53.85267
# Shear Modulus (GPa) = 17.12692 27.93386 22.53039
#
# Velocity S-wave (km/s) = 2.77446 3.54327 3.18217
# Velocity P-wave (km/s) = 5.63269 6.60937 6.14048
#
# Compressibility (1/GPa) = 0.02093986
#
# Stress axis : x y z
#
# Youngs Moduli (GPa) = 31.99419 31.99419 120.86694
#
# Poissons Ratio (x) = 0.54326 0.47999
# Poissons Ratio (y) = 0.54326 0.47999
# Poissons Ratio (z) = 0.12706 0.12706
#
# Static dielectric constant tensor:
#      x y z
#    x 1.840650 0.000000 0.000000 
#    y 0.000000 1.840650 0.000000 
#    z 0.000000 0.000000 1.867540 
# 
# From -- ./inp_files/5152.got.cif
#   From: 2010.05.17/outbox.cif.g08.bks.cpg/sg153_3_cif.got.tgz:5152.got - 2010.05.20 10:38:56.
