data_PCOD9576345
_publ_section_title
;
Structure prediction by ZEFSAII (Michael W. Deem and Ramdas Pophale) SiO2 
 PCOD9576345
Probable space group: P 32 1 2
;
_chemical_formula_sum "Si O2"
_cell_formula_units_Z 30
_cell_length_a 7.181795
_cell_length_b 7.181795
_cell_length_c 27.422685
_cell_angle_alpha 90.000000
_cell_angle_beta 90.000000
_cell_angle_gamma 120.000000
_cell_volume 1224.916868
_symmetry_space_group_name_H-M "P 32 1 2"
_symmetry_group_IT_number 153
_symmetry_cell_setting 'hexagonal'
loop_
_space_group_symop_operation_xyz
x,y,z
-y,x-y,2/3+z
-x+y,-x,1/3+z
-y,-x,1/3-z
-x+y,y,2/3-z
x,x-y,-z
loop_
_atom_site_type_symbol
_atom_site_label
_atom_site_fract_x
_atom_site_fract_y
_atom_site_fract_z
Si Si1 0.439670 0.279968 0.925021
Si Si2 0.311132 0.345913 0.732924
Si Si3 0.656220 0.829416 0.241132
Si Si4 0.795808 0.704567 0.973883
Si Si5 0.861669 0.708742 0.506059
O O1 0.618843 0.474282 0.954544
O O2 0.468587 0.295085 0.866327
O O3 0.226046 0.294204 0.932482
O O4 0.365742 0.335236 0.064057
O O5 0.458665 0.594804 0.747654
O O6 0.335479 0.270406 0.680259
O O7 0.358069 0.205446 0.772209
O O8 0.686783 0.780965 0.184710
O O9 0.863872 0.046111 0.261082
O O10 0.727475 0.863738 0.000000
O O11 0.833577 0.916789 0.500000
#
# Coordination Sequence:
#
# PCOD9576345 Si02
#       5
#     6   6   6   6   6
#     4   9  23  47  70 107 153 199 257 326 391 472
#     4  11  22  46  75 109 149 207 263 325 397 468
#     4  10  23  46  72 101 156 196 258 327 387 476
#     4  12  23  45  75 115 155 210 261 324 404 468
#     4   8  18  43  75  99 144 203 247 321 396 458
#
# _framework density 24.491461000000001
#
# number of rings (size 3 to 8) (size 9 to 14) (size 15 to 20)
#    1.200    0.800    2.000    0.600    0.000    4.800 
#   14.400    0.000    0.000    0.000    0.000    0.000 
#    0.000    0.000    0.000    0.000    0.000    0.000 
#
# Total GULP energy -167483.581986 kJ/mol
# GULP energy per Si atom -5582.786066 kJ/mol
# Density = 2.443572 g / cm^3
# Si number density = 24.491461 Si / 1000 Ang^3
#
#
#
# Elastic Constant Matrix: (Units=GPa)
#
#
# Indices 1 2 3 4 5 6 
#
# 1 126.3692 36.4318 34.0316 0.0000 -10.6574 0.0000
# 2 36.4318 126.3692 34.0316 0.0000 10.6574 0.0000
# 3 34.0316 34.0316 94.9686 0.0000 0.0000 0.0000
# 4 0.0000 0.0000 0.0000 35.4001 0.0000 10.6574
# 5 -10.6574 10.6574 0.0000 0.0000 35.4001 0.0000
# 6 0.0000 0.0000 0.0000 10.6574 0.0000 44.9687
#
#
#
# Elastic Compliance Matrix: (Units=1/GPa)
#
#
# Indices 1 2 3 4 5 6 
#
# 1 0.009599 -0.002374 -0.002589 0.000000 0.003605 0.000000
# 2 -0.002374 0.009599 -0.002589 0.000000 -0.003605 0.000000
# 3 -0.002589 -0.002589 0.012385 0.000000 0.000000 0.000000
# 4 0.000000 0.000000 0.000000 0.030419 0.000000 -0.007209
# 5 0.003605 -0.003605 0.000000 0.000000 0.030419 0.000000
# 6 0.000000 0.000000 0.000000 -0.007209 0.000000 0.023946
#
#
# Mechanical properties :
#
#
# Convention : Reuss Voigt Hill
#
# Bulk Modulus (GPa) = 60.68311 61.85520 61.26915
# Shear Modulus (GPa) = 36.50579 39.36790 37.93685
#
# Velocity S-wave (km/s) = 3.86495 4.01361 3.93998
# Velocity P-wave (km/s) = 6.68941 6.84027 6.76526
#
# Compressibility (1/GPa) = 0.01647905
#
# Stress axis : x y z
#
# Youngs Moduli (GPa) = 104.17754 104.17754 80.74080
#
# Poissons Ratio (x) = 0.24733 0.20904
# Poissons Ratio (y) = 0.24733 0.20904
# Poissons Ratio (z) = 0.26972 0.26972
#
# Static dielectric constant tensor:
#      x y z
#    x 1.973180 0.000000 0.000000 
#    y 0.000000 1.973180 0.000000 
#    z 0.000000 0.000000 2.037080 
# 
# From -- ./inp_files/4221.got.cif
#   From: 2010.05.17/outbox.cif.g08.bks.cpg/sg153_3_cif.got.tgz:4221.got - 2010.05.20 10:38:56.
