data_PCOD9576923
_publ_section_title
;
Structure prediction by ZEFSAII (Michael W. Deem and Ramdas Pophale) SiO2 
 PCOD9576923
Probable space group: R 3 2
;
_chemical_formula_sum "Si O2"
_cell_formula_units_Z 108
_cell_length_a 21.286357
_cell_length_b 21.286357
_cell_length_c 13.570237
_cell_angle_alpha 90.000000
_cell_angle_beta 90.000000
_cell_angle_gamma 120.000000
_cell_volume 5325.013920
_symmetry_space_group_name_H-M "R 3 2"
_symmetry_group_IT_number 155
_symmetry_cell_setting 'hexagonal'
loop_
_space_group_symop_operation_xyz
x,y,z
-y,x-y,z
-x+y,-x,z
x-y,-y,-z
-x,-x+y,-z
y,x,-z
2/3+x,1/3+y,1/3+z
2/3-y,1/3+x-y,1/3+z
2/3-x+y,1/3-x,1/3+z
2/3+x-y,1/3-y,1/3-z
2/3-x,1/3-x+y,1/3-z
2/3+y,1/3+x,1/3-z
1/3+x,2/3+y,2/3+z
1/3-y,2/3+x-y,2/3+z
1/3-x+y,2/3-x,2/3+z
1/3+x-y,2/3-y,2/3-z
1/3-x,2/3-x+y,2/3-z
1/3+y,2/3+x,2/3-z
loop_
_atom_site_type_symbol
_atom_site_label
_atom_site_fract_x
_atom_site_fract_y
_atom_site_fract_z
Si Si1 0.518217 0.519541 0.284962
Si Si2 0.412323 0.894585 0.877836
Si Si3 0.750276 0.582426 0.200816
Si Si4 0.849616 0.515517 0.450178
Si Si5 0.721263 0.039327 0.409997
Si Si6 0.922383 0.346478 0.950501
O O1 0.537628 0.511668 0.171955
O O2 0.571431 0.501868 0.348170
O O3 0.435937 0.459779 0.304695
O O4 0.532571 0.597545 0.313841
O O5 0.332331 0.865228 0.831797
O O6 0.451918 0.850582 0.843926
O O7 0.400122 0.900782 0.994346
O O8 0.789246 0.666667 0.166667
O O9 0.796028 0.543144 0.175305
O O10 0.831069 0.497736 0.333334
O O11 0.917135 0.598380 0.449022
O O12 0.666667 0.981370 0.333334
O O13 0.734371 0.000000 0.500000
O O14 0.919728 0.333334 0.833334
O O15 0.000000 0.368448 0.000000
#
# Coordination Sequence:
#
# PCOD9576923 Si02
#       6
#    18  18  18  18  18  18
#     4  11  22  37  56  97 126 165 218 267 335 406
#     4  11  23  39  63  91 130 173 209 278 342 401
#     4  12  21  37  68  92 126 171 219 268 330 419
#     4  10  21  38  59  93 131 165 215 268 329 406
#     4  10  20  38  58  84 122 165 211 266 321 392
#     4  12  24  40  62  92 131 168 213 274 345 411
#
# _framework density 20.281637
#
# number of rings (size 3 to 8) (size 9 to 14) (size 15 to 20)
#    0.000    1.000    8.333    2.000    0.000    0.000 
#    7.000    0.000    0.000    0.000    0.000    0.000 
#    0.000    0.000    0.000    0.000    0.000    0.000 
#
# Total GULP energy -200693.323490 kJ/mol
# GULP energy per Si atom -5574.814541 kJ/mol
# Density = 2.023548 g / cm^3
# Si number density = 20.281637 Si / 1000 Ang^3
#
#
#
# Elastic Constant Matrix: (Units=GPa)
#
#
# Indices 1 2 3 4 5 6 
#
# 1 64.5452 22.1415 23.4222 3.9298 -0.0002 0.0000
# 2 22.1415 64.5452 23.4222 -3.9298 0.0002 0.0000
# 3 23.4222 23.4222 125.9373 0.0000 0.0000 0.0000
# 4 3.9298 -3.9298 0.0000 24.4289 0.0000 0.0002
# 5 -0.0002 0.0002 0.0000 0.0000 24.4289 3.9298
# 6 0.0000 0.0000 0.0000 0.0002 3.9298 21.2018
#
#
#
# Elastic Compliance Matrix: (Units=1/GPa)
#
#
# Indices 1 2 3 4 5 6 
#
# 1 0.018566 -0.005741 -0.002385 -0.003910 0.000000 0.000000
# 2 -0.005741 0.018566 -0.002385 0.003910 0.000000 0.000000
# 3 -0.002385 -0.002385 0.008828 0.000000 0.000000 0.000000
# 4 -0.003910 0.003910 0.000000 0.042193 0.000000 0.000000
# 5 0.000000 0.000000 0.000000 0.000000 0.042193 -0.007821
# 6 0.000000 0.000000 0.000000 0.000000 -0.007821 0.048615
#
#
# Mechanical properties :
#
#
# Convention : Reuss Voigt Hill
#
# Bulk Modulus (GPa) = 40.10207 43.66664 41.88435
# Shear Modulus (GPa) = 24.00411 26.41469 25.20940
#
# Velocity S-wave (km/s) = 3.44399 3.61279 3.52940
# Velocity P-wave (km/s) = 5.96911 6.24338 6.10779
#
# Compressibility (1/GPa) = 0.02493637
#
# Stress axis : x y z
#
# Youngs Moduli (GPa) = 53.86134 53.86134 113.28023
#
# Poissons Ratio (x) = 0.30924 0.27019
# Poissons Ratio (y) = 0.30924 0.27019
# Poissons Ratio (z) = 0.12847 0.12847
#
# Static dielectric constant tensor:
#      x y z
#    x 1.719580 0.000000 0.000000 
#    y 0.000000 1.719580 0.000000 
#    z 0.000000 0.000000 1.951820 
# 
# From -- ./inp_files/5125.got.cif
#   From: 2010.05.17/outbox.cif.g08.bks.cpg/sg155_3_cif.got.tgz:5125.got - 2010.05.20 10:44:35.
