data_PCOD9576044
_publ_section_title
;
Structure prediction by ZEFSAII (Michael W. Deem and Ramdas Pophale) SiO2 
 PCOD9576044
Probable space group: P 31 2 1
;
_chemical_formula_sum "Si O2"
_cell_formula_units_Z 24
_cell_length_a 6.981675
_cell_length_b 6.981675
_cell_length_c 26.136234
_cell_angle_alpha 90.000000
_cell_angle_beta 90.000000
_cell_angle_gamma 120.000000
_cell_volume 1103.298171
_symmetry_space_group_name_H-M "P 31 2 1"
_symmetry_group_IT_number 152
_symmetry_cell_setting 'hexagonal'
loop_
_space_group_symop_operation_xyz
x,y,z
-y,x-y,1/3+z
-x+y,-x,2/3+z
x-y,-y,2/3-z
-x,-x+y,1/3-z
y,x,-z
loop_
_atom_site_type_symbol
_atom_site_label
_atom_site_fract_x
_atom_site_fract_y
_atom_site_fract_z
Si Si1 0.261487 0.554021 0.707586
Si Si2 0.000000 0.781899 0.666667
Si Si3 0.519428 0.746394 0.927811
Si Si4 0.000000 0.769934 0.166667
Si Si5 0.961054 0.287451 0.423365
O O1 0.319080 0.495220 0.651701
O O2 0.466558 0.620733 0.743868
O O3 0.179463 0.729035 0.693571
O O4 0.036882 0.357087 0.731369
O O5 0.873406 0.828331 0.711154
O O6 0.607198 0.916256 0.881663
O O7 0.728878 0.452838 0.753497
O O8 0.201692 0.991776 0.143598
#
# Coordination Sequence:
#
# PCOD9576044 Si02
#       5
#     6   3   6   3   6
#     4   8  18  43  70  83 124 168 211 264 299 368
#     4   8  20  42  66  94 118 160 220 256 304 384
#     4   9  23  43  62  97 127 163 216 264 307 383
#     4  12  26  38  64 102 128 168 210 254 342 378
#     4  10  22  43  65  90 133 161 210 269 306 379
#
# _framework density 21.752958
#
# number of rings (size 3 to 8) (size 9 to 14) (size 15 to 20)
#    0.000    3.500    0.000    0.000   10.500    2.000 
#    0.000    6.250    0.000    0.000    0.000    0.000 
#    0.000    0.000    0.000    0.000    0.000    0.000 
#
# Total GULP energy -133897.412214 kJ/mol
# GULP energy per Si atom -5579.058842 kJ/mol
# Density = 2.170345 g / cm^3
# Si number density = 21.752958 Si / 1000 Ang^3
#
#
#
# Elastic Constant Matrix: (Units=GPa)
#
#
# Indices 1 2 3 4 5 6 
#
# 1 72.7440 27.9836 25.8497 2.8362 -0.0002 0.0000
# 2 27.9836 72.7440 25.8497 -2.8362 0.0002 0.0000
# 3 25.8497 25.8497 92.8954 0.0000 0.0000 0.0000
# 4 2.8362 -2.8362 0.0000 23.1635 0.0000 0.0002
# 5 -0.0002 0.0002 0.0000 0.0000 23.1635 2.8362
# 6 0.0000 0.0000 0.0000 0.0002 2.8362 22.3802
#
#
#
# Elastic Compliance Matrix: (Units=1/GPa)
#
#
# Indices 1 2 3 4 5 6 
#
# 1 0.017138 -0.005556 -0.003223 -0.002779 0.000000 0.000000
# 2 -0.005556 0.017138 -0.003223 0.002779 0.000000 0.000000
# 3 -0.003223 -0.003223 0.012558 0.000000 0.000000 0.000000
# 4 -0.002779 0.002779 0.000000 0.043852 0.000000 0.000000
# 5 0.000000 0.000000 0.000000 0.000000 0.043852 -0.005557
# 6 0.000000 0.000000 0.000000 0.000000 -0.005557 0.045387
#
#
# Mechanical properties :
#
#
# Convention : Reuss Voigt Hill
#
# Bulk Modulus (GPa) = 43.80044 44.19439 43.99742
# Shear Modulus (GPa) = 23.63655 24.32149 23.97902
#
# Velocity S-wave (km/s) = 3.29992 3.34739 3.32374
# Velocity P-wave (km/s) = 5.89054 5.94144 5.91604
#
# Compressibility (1/GPa) = 0.02283082
#
# Stress axis : x y z
#
# Youngs Moduli (GPa) = 58.35121 58.35121 79.62783
#
# Poissons Ratio (x) = 0.32418 0.25663
# Poissons Ratio (y) = 0.32418 0.25663
# Poissons Ratio (z) = 0.18806 0.18806
#
# Static dielectric constant tensor:
#      x y z
#    x 1.824440 0.000000 0.000000 
#    y 0.000000 1.824440 0.000000 
#    z 0.000000 0.000000 1.806140 
# 
# From -- ./inp_files/2946.got.cif
#   From: 2010.05.17/outbox.cif.g08.bks.cpg/sg152_2_cif.got.tgz:2946.got - 2010.05.20 10:36:06.
