data_PCOD9576308
_publ_section_title
;
Structure prediction by ZEFSAII (Michael W. Deem and Ramdas Pophale) SiO2 
 PCOD9576308
Probable space group: P 32 1 2
;
_chemical_formula_sum "Si O2"
_cell_formula_units_Z 36
_cell_length_a 8.387865
_cell_length_b 8.387865
_cell_length_c 27.967912
_cell_angle_alpha 90.000000
_cell_angle_beta 90.000000
_cell_angle_gamma 120.000000
_cell_volume 1704.093972
_symmetry_space_group_name_H-M "P 32 1 2"
_symmetry_group_IT_number 153
_symmetry_cell_setting 'hexagonal'
loop_
_space_group_symop_operation_xyz
x,y,z
-y,x-y,2/3+z
-x+y,-x,1/3+z
-y,-x,1/3-z
-x+y,y,2/3-z
x,x-y,-z
loop_
_atom_site_type_symbol
_atom_site_label
_atom_site_fract_x
_atom_site_fract_y
_atom_site_fract_z
Si Si1 0.401374 0.354069 0.231146
Si Si2 0.277498 0.041193 0.869552
Si Si3 0.744151 0.813894 0.948179
Si Si4 0.831187 0.845592 0.379743
Si Si5 0.617361 0.566779 0.617200
Si Si6 0.738214 0.092609 0.216146
O O1 0.574631 0.549474 0.220764
O O2 0.330042 0.222772 0.184627
O O3 0.229839 0.377850 0.244892
O O4 0.436255 0.240849 0.271884
O O5 0.259892 0.179381 0.905438
O O6 0.086600 0.845974 0.872138
O O7 0.779927 0.659370 0.925210
O O8 0.674380 0.837190 0.000000
O O9 0.952064 0.988387 0.947841
O O10 0.667625 0.889818 0.375336
O O11 0.882358 0.764715 0.333334
O O12 0.533266 0.466734 0.666667
O O13 0.484257 0.460190 0.572823
O O14 0.791715 0.208286 0.166667
#
# Coordination Sequence:
#
# PCOD9576308 Si02
#       6
#     6   6   6   6   6   6
#     4  10  21  38  61  87 122 160 208 262 308 376
#     4  10  21  39  60  88 121 164 209 255 315 381
#     4   9  17  35  61  86 117 165 209 245 311 382
#     4   9  19  38  65  88 118 164 212 255 317 386
#     4  11  23  39  62  91 123 163 217 268 320 384
#     4  11  21  37  62  91 126 165 206 260 322 386
#
# _framework density 21.125594
#
# number of rings (size 3 to 8) (size 9 to 14) (size 15 to 20)
#    0.000    2.000    1.667    4.000    2.333    0.667 
#    0.000    7.500    0.000    0.000    0.000    0.000 
#    0.000    0.000    0.000    0.000    0.000    0.000 
#
# Total GULP energy -200590.862637 kJ/mol
# GULP energy per Si atom -5571.968407 kJ/mol
# Density = 2.107751 g / cm^3
# Si number density = 21.125594 Si / 1000 Ang^3
#
#
#
# Elastic Constant Matrix: (Units=GPa)
#
#
# Indices 1 2 3 4 5 6 
#
# 1 52.8171 18.0731 42.3821 -0.0001 -5.4327 0.0000
# 2 18.0731 52.8171 42.3821 0.0001 5.4327 0.0000
# 3 42.3821 42.3821 136.4669 0.0000 0.0000 0.0000
# 4 -0.0001 0.0001 0.0000 22.7975 0.0000 5.4327
# 5 -5.4327 5.4327 0.0000 0.0000 22.7975 -0.0001
# 6 0.0000 0.0000 0.0000 5.4327 -0.0001 17.3720
#
#
#
# Elastic Compliance Matrix: (Units=1/GPa)
#
#
# Indices 1 2 3 4 5 6 
#
# 1 0.026769 -0.004330 -0.006969 0.000000 0.007411 0.000000
# 2 -0.004330 0.026769 -0.006969 0.000000 -0.007411 0.000000
# 3 -0.006969 -0.006969 0.011656 0.000000 0.000000 0.000000
# 4 0.000000 0.000000 0.000000 0.047397 0.000000 -0.014822
# 5 0.007411 -0.007411 0.000000 0.000000 0.047397 0.000000
# 6 0.000000 0.000000 0.000000 -0.014822 0.000000 0.062199
#
#
# Mechanical properties :
#
#
# Convention : Reuss Voigt Hill
#
# Bulk Modulus (GPa) = 34.89290 49.75284 42.32287
# Shear Modulus (GPa) = 18.63751 21.87768 20.25759
#
# Velocity S-wave (km/s) = 2.97345 3.22157 3.09999
# Velocity P-wave (km/s) = 5.32365 6.11883 5.73504
#
# Compressibility (1/GPa) = 0.02865912
#
# Stress axis : x y z
#
# Youngs Moduli (GPa) = 37.35622 37.35622 85.79021
#
# Poissons Ratio (x) = 0.16176 0.59786
# Poissons Ratio (y) = 0.16176 0.59786
# Poissons Ratio (z) = 0.26033 0.26033
#
# Static dielectric constant tensor:
#      x y z
#    x 1.778380 0.000000 0.000000 
#    y 0.000000 1.778380 0.000000 
#    z 0.000000 0.000000 1.842900 
# 
# From -- ./inp_files/4736.got.cif
#   From: 2010.05.17/outbox.cif.g08.bks.cpg/sg153_3_cif.got.tgz:4736.got - 2010.05.20 10:38:56.
