data_PCOD9576400
_publ_section_title
;
Structure prediction by ZEFSAII (Michael W. Deem and Ramdas Pophale) SiO2 
 PCOD9576400
Probable space group: P 32 2 1
;
_chemical_formula_sum "Si O2"
_cell_formula_units_Z 24
_cell_length_a 11.951421
_cell_length_b 11.951421
_cell_length_c 10.462944
_cell_angle_alpha 90.000000
_cell_angle_beta 90.000000
_cell_angle_gamma 120.000000
_cell_volume 1294.266239
_symmetry_space_group_name_H-M "P 32 2 1"
_symmetry_group_IT_number 154
_symmetry_cell_setting 'hexagonal'
loop_
_space_group_symop_operation_xyz
x,y,z
-y,x-y,2/3+z
-x+y,-x,1/3+z
x-y,-y,1/3-z
-x,-x+y,2/3-z
y,x,-z
loop_
_atom_site_type_symbol
_atom_site_label
_atom_site_fract_x
_atom_site_fract_y
_atom_site_fract_z
Si Si1 0.365029 0.254131 0.895717
Si Si2 0.966761 0.367787 0.540254
Si Si3 0.614504 0.060131 0.300392
Si Si4 0.802905 0.345040 0.292312
O O1 0.322502 0.104549 0.908026
O O2 0.355680 0.299233 0.752037
O O3 0.519973 0.333950 0.923418
O O4 0.299081 0.299081 0.000000
O O5 0.873986 0.370613 0.428684
O O6 0.984689 0.466330 0.652350
O O7 0.105619 0.429019 0.473132
O O8 0.666739 0.214248 0.288447
O O9 0.622207 0.000000 0.166667
#
# Coordination Sequence:
#
# PCOD9576400 Si02
#       4
#     6   6   6   6
#     4  10  18  36  56  79 114 155 185 232 294 355
#     4   9  18  32  52  79 109 151 188 221 294 345
#     4  10  20  33  51  84 112 144 189 239 283 337
#     4   9  17  35  52  77 118 149 183 231 291 340
#
# _framework density 18.543326
#
# number of rings (size 3 to 8) (size 9 to 14) (size 15 to 20)
#    0.000    2.500    5.000    0.000    0.000    6.000 
#    9.000    0.000    0.000    0.000   13.000    0.000 
#    0.000    0.000    0.000    0.000    0.000    0.000 
#
# Total GULP energy -133621.239445 kJ/mol
# GULP energy per Si atom -5567.551644 kJ/mol
# Density = 1.850112 g / cm^3
# Si number density = 18.543326 Si / 1000 Ang^3
#
#
#
# Elastic Constant Matrix: (Units=GPa)
#
#
# Indices 1 2 3 4 5 6 
#
# 1 63.2997 13.0866 30.3255 -0.4696 0.0000 0.0000
# 2 13.0866 63.2997 30.3255 0.4696 0.0000 0.0000
# 3 30.3255 30.3255 94.4998 0.0000 0.0000 0.0000
# 4 -0.4696 0.4696 0.0000 14.3915 0.0000 0.0000
# 5 0.0000 0.0000 0.0000 0.0000 14.3915 -0.4696
# 6 0.0000 0.0000 0.0000 0.0000 -0.4696 25.1065
#
#
#
# Elastic Compliance Matrix: (Units=1/GPa)
#
#
# Indices 1 2 3 4 5 6 
#
# 1 0.018747 -0.001180 -0.005638 0.000650 0.000000 0.000000
# 2 -0.001180 0.018747 -0.005638 -0.000650 0.000000 0.000000
# 3 -0.005638 -0.005638 0.014200 0.000000 0.000000 0.000000
# 4 0.000650 -0.000650 0.000000 0.069528 0.000000 0.000000
# 5 0.000000 0.000000 0.000000 0.000000 0.069528 0.001301
# 6 0.000000 0.000000 0.000000 0.000000 0.001301 0.039855
#
#
# Mechanical properties :
#
#
# Convention : Reuss Voigt Hill
#
# Bulk Modulus (GPa) = 37.33392 40.95272 39.14332
# Shear Modulus (GPa) = 18.90760 20.60200 19.75480
#
# Velocity S-wave (km/s) = 3.19665 3.33681 3.26748
# Velocity P-wave (km/s) = 5.81393 6.08100 5.94897
#
# Compressibility (1/GPa) = 0.02678530
#
# Stress axis : x y z
#
# Youngs Moduli (GPa) = 53.34059 53.34059 70.42119
#
# Poissons Ratio (x) = 0.06293 0.39700
# Poissons Ratio (y) = 0.06293 0.39700
# Poissons Ratio (z) = 0.30071 0.30071
#
# Static dielectric constant tensor:
#      x y z
#    x 1.664650 0.000000 0.000000 
#    y 0.000000 1.664650 0.000000 
#    z 0.000000 0.000000 1.695250 
# 
# From -- ./inp_files/1557.got.cif
#   From: 2010.05.17/outbox.cif.g08.bks.cpg/sg154_1_cif.got.tgz:1557.got - 2010.05.20 10:41:43.
