data_PCOD9576619
_publ_section_title
;
Structure prediction by ZEFSAII (Michael W. Deem and Ramdas Pophale) SiO2 
 PCOD9576619
Probable space group: P 32 2 1
;
_chemical_formula_sum "Si O2"
_cell_formula_units_Z 21
_cell_length_a 6.992537
_cell_length_b 6.992537
_cell_length_c 20.242011
_cell_angle_alpha 90.000000
_cell_angle_beta 90.000000
_cell_angle_gamma 120.000000
_cell_volume 857.144089
_symmetry_space_group_name_H-M "P 32 2 1"
_symmetry_group_IT_number 154
_symmetry_cell_setting 'hexagonal'
loop_
_space_group_symop_operation_xyz
x,y,z
-y,x-y,2/3+z
-x+y,-x,1/3+z
x-y,-y,1/3-z
-x,-x+y,2/3-z
y,x,-z
loop_
_atom_site_type_symbol
_atom_site_label
_atom_site_fract_x
_atom_site_fract_y
_atom_site_fract_z
Si Si1 0.480550 0.684309 0.749087
Si Si2 0.422511 0.440694 0.615477
Si Si3 0.192537 0.000000 0.666667
Si Si4 0.577049 0.142290 0.771451
O O1 0.506324 0.568970 0.684867
O O2 0.223739 0.625234 0.743955
O O3 0.405266 0.616729 0.569504
O O4 0.504110 0.598037 0.819961
O O5 0.200537 0.206961 0.630057
O O6 0.385147 0.114752 0.721861
O O7 0.624813 0.949070 0.749242
#
# Coordination Sequence:
#
# PCOD9576619 Si02
#       4
#     6   6   3   6
#     4  11  24  41  75  98 148 189 243 308 384 447
#     4  11  21  44  66 105 137 188 245 298 374 455
#     4  10  22  42  68  98 144 186 232 306 364 438
#     4  11  21  43  68 101 142 194 231 312 375 440
#
# _framework density 24.499963999999999
#
# number of rings (size 3 to 8) (size 9 to 14) (size 15 to 20)
#    0.000    1.143    5.714    2.571    0.000    0.000 
#    5.143    0.000    6.286    0.000    0.000    0.000 
#    0.000    0.000    0.000    0.000    0.000    0.000 
#
# Total GULP energy -117508.754567 kJ/mol
# GULP energy per Si atom -5595.654979 kJ/mol
# Density = 2.444420 g / cm^3
# Si number density = 24.499964 Si / 1000 Ang^3
#
#
#
# Elastic Constant Matrix: (Units=GPa)
#
#
# Indices 1 2 3 4 5 6 
#
# 1 96.3937 40.6106 4.1750 0.0213 0.0005 0.0000
# 2 40.6106 96.3937 4.1750 -0.0213 -0.0005 0.0000
# 3 4.1750 4.1750 144.9877 0.0000 0.0000 0.0000
# 4 0.0213 -0.0213 0.0000 31.9639 0.0000 -0.0005
# 5 0.0005 -0.0005 0.0000 0.0000 31.9639 0.0213
# 6 0.0000 0.0000 0.0000 -0.0005 0.0213 27.8915
#
#
#
# Elastic Compliance Matrix: (Units=1/GPa)
#
#
# Indices 1 2 3 4 5 6 
#
# 1 0.012619 -0.005307 -0.000211 -0.000012 0.000000 0.000000
# 2 -0.005307 0.012619 -0.000211 0.000012 0.000000 0.000000
# 3 -0.000211 -0.000211 0.006909 0.000000 0.000000 0.000000
# 4 -0.000012 0.000012 0.000000 0.031285 0.000000 0.000001
# 5 0.000000 0.000000 0.000000 0.000000 0.031285 -0.000024
# 6 0.000000 0.000000 0.000000 0.000001 -0.000024 0.035853
#
#
# Mechanical properties :
#
#
# Convention : Reuss Voigt Hill
#
# Bulk Modulus (GPa) = 48.33064 48.41071 48.37067
# Shear Modulus (GPa) = 33.57385 37.61816 35.59600
#
# Velocity S-wave (km/s) = 3.70586 3.92272 3.81583
# Velocity P-wave (km/s) = 6.17097 6.34975 6.26100
#
# Compressibility (1/GPa) = 0.02069081
#
# Stress axis : x y z
#
# Youngs Moduli (GPa) = 79.24408 79.24408 144.73325
#
# Poissons Ratio (x) = 0.42058 0.03047
# Poissons Ratio (y) = 0.42058 0.03047
# Poissons Ratio (z) = 0.01668 0.01668
#
# Static dielectric constant tensor:
#      x y z
#    x 2.003770 0.000000 0.000000 
#    y 0.000000 2.003770 0.000000 
#    z 0.000000 0.000000 1.900280 
# 
# From -- ./inp_files/1526.got.cif
#   From: 2010.05.17/outbox.cif.g08.bks.cpg/sg154_1_cif.got.tgz:1526.got - 2010.05.20 10:41:43.
