data_PCOD9576353
_publ_section_title
;
Structure prediction by ZEFSAII (Michael W. Deem and Ramdas Pophale) SiO2 
 PCOD9576353
Probable space group: P 32 1 2
;
_chemical_formula_sum "Si O2"
_cell_formula_units_Z 39
_cell_length_a 11.514449
_cell_length_b 11.514449
_cell_length_c 18.371758
_cell_angle_alpha 90.000000
_cell_angle_beta 90.000000
_cell_angle_gamma 120.000000
_cell_volume 2109.442389
_symmetry_space_group_name_H-M "P 32 1 2"
_symmetry_group_IT_number 153
_symmetry_cell_setting 'hexagonal'
loop_
_space_group_symop_operation_xyz
x,y,z
-y,x-y,2/3+z
-x+y,-x,1/3+z
-y,-x,1/3-z
-x+y,y,2/3-z
x,x-y,-z
loop_
_atom_site_type_symbol
_atom_site_label
_atom_site_fract_x
_atom_site_fract_y
_atom_site_fract_z
Si Si1 0.508732 0.397390 0.242612
Si Si2 0.753730 0.975869 0.869208
Si Si3 0.763139 0.929683 0.262611
Si Si4 0.738146 0.730170 0.496724
Si Si5 0.689680 0.031882 0.661481
Si Si6 0.044284 0.088568 0.333334
Si Si7 0.891668 0.313636 0.976968
O O1 0.587732 0.412269 0.166667
O O2 0.365936 0.376252 0.214824
O O3 0.591184 0.526529 0.292736
O O4 0.471183 0.262629 0.287874
O O5 0.862976 0.111600 0.828232
O O6 0.737177 0.852311 0.821355
O O7 0.819372 0.983868 0.946841
O O8 0.692190 0.789194 0.306395
O O9 0.726258 0.037763 0.292847
O O10 0.919752 0.996663 0.282207
O O11 0.749566 0.874783 0.500000
O O12 0.661270 0.652838 0.424394
O O13 0.674947 0.649310 0.570465
O O14 0.837619 0.162382 0.666667
O O15 0.899290 0.449645 0.000000
#
# Coordination Sequence:
#
# PCOD9576353 Si02
#       7
#     6   6   6   6   6   3   6
#     4  11  22  42  64  94 131 171 213 272 325 397
#     4  11  22  37  63  99 132 162 206 274 346 390
#     4  12  20  38  68  93 128 166 212 277 333 387
#     4  11  19  37  64  92 120 161 214 266 313 386
#     4  12  20  34  67  97 120 159 217 270 327 383
#     4  12  20  38  62 100 132 158 216 274 338 392
#     4  11  25  42  61  91 136 172 213 264 322 398
#
# _framework density 18.488298
#
# number of rings (size 3 to 8) (size 9 to 14) (size 15 to 20)
#    0.000    0.615    8.462    2.769    0.000    0.000 
#    2.769    1.538    5.077    0.000    0.000    0.000 
#    0.000    0.000    0.000    0.000    0.000    0.000 
#
# Total GULP energy -217665.554700 kJ/mol
# GULP energy per Si atom -5581.168069 kJ/mol
# Density = 1.844622 g / cm^3
# Si number density = 18.488298 Si / 1000 Ang^3
#
#
#
# Elastic Constant Matrix: (Units=GPa)
#
#
# Indices 1 2 3 4 5 6 
#
# 1 79.8059 32.4471 19.9243 0.0000 1.4908 0.0000
# 2 32.4471 79.8059 19.9243 0.0000 -1.4908 0.0000
# 3 19.9243 19.9243 82.7292 0.0000 0.0000 0.0000
# 4 0.0000 0.0000 0.0000 31.1438 0.0000 -1.4908
# 5 1.4908 -1.4908 0.0000 0.0000 31.1438 0.0000
# 6 0.0000 0.0000 0.0000 -1.4908 0.0000 23.6794
#
#
#
# Elastic Compliance Matrix: (Units=1/GPa)
#
#
# Indices 1 2 3 4 5 6 
#
# 1 0.015460 -0.005719 -0.002346 0.000000 -0.001014 0.000000
# 2 -0.005719 0.015460 -0.002346 0.000000 0.001014 0.000000
# 3 -0.002346 -0.002346 0.013218 0.000000 0.000000 0.000000
# 4 0.000000 0.000000 0.000000 0.032206 0.000000 0.002028
# 5 -0.001014 0.001014 0.000000 0.000000 0.032206 0.000000
# 6 0.000000 0.000000 0.000000 0.002028 0.000000 0.042358
#
#
# Mechanical properties :
#
#
# Convention : Reuss Voigt Hill
#
# Bulk Modulus (GPa) = 42.88905 42.99247 42.94076
# Shear Modulus (GPa) = 27.85464 28.52974 28.19219
#
# Velocity S-wave (km/s) = 3.88572 3.93252 3.90919
# Velocity P-wave (km/s) = 6.58635 6.62752 6.60697
#
# Compressibility (1/GPa) = 0.02331597
#
# Stress axis : x y z
#
# Youngs Moduli (GPa) = 64.68196 64.68196 75.65633
#
# Poissons Ratio (x) = 0.36992 0.17749
# Poissons Ratio (y) = 0.36992 0.17749
# Poissons Ratio (z) = 0.15175 0.15175
#
# Static dielectric constant tensor:
#      x y z
#    x 1.643050 0.000000 0.000000 
#    y 0.000000 1.643050 0.000000 
#    z 0.000000 0.000000 1.683130 
# 
# From -- ./inp_files/3544.got.cif
#   From: 2010.05.17/outbox.cif.g08.bks.cpg/sg153_2_cif.got.tgz:3544.got - 2010.05.20 10:38:56.
