data_PCOD9576361
_publ_section_title
;
Structure prediction by ZEFSAII (Michael W. Deem and Ramdas Pophale) SiO2 
 PCOD9576361
Probable space group: P 32 1 2
;
_chemical_formula_sum "Si O2"
_cell_formula_units_Z 45
_cell_length_a 11.843612
_cell_length_b 11.843612
_cell_length_c 17.590221
_cell_angle_alpha 90.000000
_cell_angle_beta 90.000000
_cell_angle_gamma 120.000000
_cell_volume 2136.831466
_symmetry_space_group_name_H-M "P 32 1 2"
_symmetry_group_IT_number 153
_symmetry_cell_setting 'hexagonal'
loop_
_space_group_symop_operation_xyz
x,y,z
-y,x-y,2/3+z
-x+y,-x,1/3+z
-y,-x,1/3-z
-x+y,y,2/3-z
x,x-y,-z
loop_
_atom_site_type_symbol
_atom_site_label
_atom_site_fract_x
_atom_site_fract_y
_atom_site_fract_z
Si Si1 0.919242 0.462872 0.318535
Si Si2 0.603554 0.808142 0.822738
Si Si3 0.421375 0.808449 0.951859
Si Si4 0.337825 0.072306 0.442994
Si Si5 0.835552 0.671103 0.333334
Si Si6 0.830447 0.186580 0.951250
Si Si7 0.621548 0.426706 0.515153
Si Si8 0.950571 0.110017 0.517367
O O1 0.886007 0.569461 0.354058
O O2 0.864035 0.319638 0.356007
O O3 0.870451 0.451989 0.233134
O O4 0.072217 0.523615 0.324376
O O5 0.542484 0.816560 0.903305
O O6 0.501131 0.816140 0.766853
O O7 0.619641 0.682985 0.808624
O O8 0.753249 0.915531 0.803830
O O9 0.355916 0.677958 0.000000
O O10 0.286117 0.143059 0.500000
O O11 0.294779 0.078197 0.357845
O O12 0.493131 0.167527 0.440043
O O13 0.900458 0.762926 0.258549
O O14 0.861985 0.309812 0.899763
O O15 0.854312 0.097497 0.893295
O O16 0.701702 0.350851 0.500000
O O17 0.959766 0.979883 0.500000
#
# Coordination Sequence:
#
# PCOD9576361 Si02
#       8
#     6   6   6   6   3   6   6   6
#     4  12  22  43  73 106 148 193 241 310 365 448
#     4  11  25  48  70 100 142 190 245 299 374 450
#     4  11  25  44  74 102 136 193 248 298 369 449
#     4  11  24  43  67 104 145 186 243 309 369 438
#     4  12  26  46  76 108 156 188 246 318 370 446
#     4  12  25  42  71 107 145 195 241 303 374 447
#     4  11  22  39  64 105 142 182 239 295 370 432
#     4  12  28  48  71 105 145 196 250 304 380 454
#
# _framework density 21.059218999999999
#
# number of rings (size 3 to 8) (size 9 to 14) (size 15 to 20)
#    0.000    0.533    6.667    2.400    1.867    1.067 
#    1.200    0.000    0.000    0.000    0.000    0.000 
#    0.000    0.000    0.000    0.000    0.000    0.000 
#
# Total GULP energy -250928.446020 kJ/mol
# GULP energy per Si atom -5576.187689 kJ/mol
# Density = 2.101129 g / cm^3
# Si number density = 21.059219 Si / 1000 Ang^3
#
#
#
# Elastic Constant Matrix: (Units=GPa)
#
#
# Indices 1 2 3 4 5 6 
#
# 1 99.8844 39.8924 37.5366 0.0000 2.2729 0.0000
# 2 39.8924 99.8844 37.5366 0.0000 -2.2729 0.0000
# 3 37.5366 37.5366 122.3490 0.0000 0.0000 0.0000
# 4 0.0000 0.0000 0.0000 26.2718 0.0000 -2.2729
# 5 2.2729 -2.2729 0.0000 0.0000 26.2718 0.0000
# 6 0.0000 0.0000 0.0000 -2.2729 0.0000 29.9960
#
#
#
# Elastic Compliance Matrix: (Units=1/GPa)
#
#
# Indices 1 2 3 4 5 6 
#
# 1 0.012672 -0.004107 -0.002628 0.000000 -0.001452 0.000000
# 2 -0.004107 0.012672 -0.002628 0.000000 0.001452 0.000000
# 3 -0.002628 -0.002628 0.009786 0.000000 0.000000 0.000000
# 4 0.000000 0.000000 0.000000 0.038315 0.000000 0.002903
# 5 -0.001452 0.001452 0.000000 0.000000 0.038315 0.000000
# 6 0.000000 0.000000 0.000000 0.002903 0.000000 0.033558
#
#
# Mechanical properties :
#
#
# Convention : Reuss Voigt Hill
#
# Bulk Modulus (GPa) = 60.95532 61.33879 61.14705
# Shear Modulus (GPa) = 29.49654 30.31806 29.90730
#
# Velocity S-wave (km/s) = 3.74658 3.79840 3.77258
# Velocity P-wave (km/s) = 6.90821 6.95896 6.93363
#
# Compressibility (1/GPa) = 0.01640546
#
# Stress axis : x y z
#
# Youngs Moduli (GPa) = 78.91229 78.91229 102.18829
#
# Poissons Ratio (x) = 0.32406 0.26855
# Poissons Ratio (y) = 0.32406 0.26855
# Poissons Ratio (z) = 0.20738 0.20738
#
# Static dielectric constant tensor:
#      x y z
#    x 1.836090 0.000000 0.000000 
#    y 0.000000 1.836090 0.000000 
#    z 0.000000 0.000000 1.802460 
# 
# From -- ./inp_files/3646.got.cif
#   From: 2010.05.17/outbox.cif.g08.bks.cpg/sg153_2_cif.got.tgz:3646.got - 2010.05.20 10:38:56.
