data_PCOD9576677
_publ_section_title
;
Structure prediction by ZEFSAII (Michael W. Deem and Ramdas Pophale) SiO2 
 PCOD9576677
Probable space group: P 32 2 1
;
_chemical_formula_sum "Si O2"
_cell_formula_units_Z 21
_cell_length_a 14.697217
_cell_length_b 14.697217
_cell_length_c 5.299727
_cell_angle_alpha 90.000000
_cell_angle_beta 90.000000
_cell_angle_gamma 120.000000
_cell_volume 991.412393
_symmetry_space_group_name_H-M "P 32 2 1"
_symmetry_group_IT_number 154
_symmetry_cell_setting 'hexagonal'
loop_
_space_group_symop_operation_xyz
x,y,z
-y,x-y,2/3+z
-x+y,-x,1/3+z
x-y,-y,1/3-z
-x,-x+y,2/3-z
y,x,-z
loop_
_atom_site_type_symbol
_atom_site_label
_atom_site_fract_x
_atom_site_fract_y
_atom_site_fract_z
Si Si1 0.094845 0.502592 0.518553
Si Si2 0.293982 0.000000 0.166667
Si Si3 0.339497 0.218729 0.045238
Si Si4 0.479975 0.287930 0.550362
O O1 0.130035 0.586038 0.747319
O O2 0.212757 0.532212 0.425238
O O3 0.000000 0.491333 0.333334
O O4 0.045366 0.384821 0.622944
O O5 0.281760 0.094220 0.065494
O O6 0.413683 0.262889 0.292768
O O7 0.260971 0.260971 0.000000
O O8 0.410011 0.253591 0.798652
#
# Coordination Sequence:
#
# PCOD9576677 Si02
#       4
#     6   3   6   6
#     4  11  24  45  67 100 146 182 239 288 357 428
#     4  10  24  44  70  96 140 186 222 304 352 414
#     4  11  24  44  69 101 135 179 241 285 355 426
#     4  11  26  41  70 101 138 191 228 290 354 422
#
# _framework density 21.181902000000001
#
# number of rings (size 3 to 8) (size 9 to 14) (size 15 to 20)
#    0.000    1.143    2.857    1.714    8.000    4.571 
#    0.000    0.000   12.571    0.000    0.000    0.000 
#    0.000    0.000    0.000    0.000    0.000    0.000 
#
# Total GULP energy -117119.387346 kJ/mol
# GULP energy per Si atom -5577.113683 kJ/mol
# Density = 2.113369 g / cm^3
# Si number density = 21.181902 Si / 1000 Ang^3
#
#
#
# Elastic Constant Matrix: (Units=GPa)
#
#
# Indices 1 2 3 4 5 6 
#
# 1 88.7285 61.7744 38.6730 -9.4583 0.0000 0.0000
# 2 61.7744 88.7285 38.6730 9.4583 0.0000 0.0000
# 3 38.6730 38.6730 116.9020 0.0000 0.0000 0.0000
# 4 -9.4583 9.4583 0.0000 27.5432 0.0000 0.0000
# 5 0.0000 0.0000 0.0000 0.0000 27.5432 -9.4583
# 6 0.0000 0.0000 0.0000 0.0000 -9.4583 13.4771
#
#
#
# Elastic Compliance Matrix: (Units=1/GPa)
#
#
# Indices 1 2 3 4 5 6 
#
# 1 0.028443 -0.020437 -0.002648 0.016785 0.000000 0.000000
# 2 -0.020437 0.028443 -0.002648 -0.016785 0.000000 0.000000
# 3 -0.002648 -0.002648 0.010306 0.000000 0.000000 0.000000
# 4 0.016785 -0.016785 0.000000 0.047835 0.000000 0.000000
# 5 0.000000 0.000000 0.000000 0.000000 0.047835 0.033571
# 6 0.000000 0.000000 0.000000 0.000000 0.033571 0.097760
#
#
# Mechanical properties :
#
#
# Convention : Reuss Voigt Hill
#
# Bulk Modulus (GPa) = 63.59731 63.62221 63.60976
# Shear Modulus (GPa) = 15.75639 24.06193 19.90916
#
# Velocity S-wave (km/s) = 2.73034 3.37407 3.06913
# Velocity P-wave (km/s) = 6.32687 6.72907 6.53107
#
# Compressibility (1/GPa) = 0.01572393
#
# Stress axis : x y z
#
# Youngs Moduli (GPa) = 35.15826 35.15826 97.02725
#
# Poissons Ratio (x) = 0.71854 0.25696
# Poissons Ratio (y) = 0.71854 0.25696
# Poissons Ratio (z) = 0.09311 0.09311
#
# Static dielectric constant tensor:
#      x y z
#    x 1.819530 0.000000 0.000000 
#    y 0.000000 1.819530 0.000000 
#    z 0.000000 0.000000 1.769040 
# 
# From -- ./inp_files/150.got.cif
#   From: 2010.05.17/outbox.cif.g08.bks.cpg/sg154_1_cif.got.tgz:150.got - 2010.05.20 10:41:43.
