data_PCOD9576966
_publ_section_title
;
Structure prediction by ZEFSAII (Michael W. Deem and Ramdas Pophale) SiO2 
 PCOD9576966
Probable space group: R 3 2
;
_chemical_formula_sum "Si O2"
_cell_formula_units_Z 126
_cell_length_a 16.746251
_cell_length_b 16.746251
_cell_length_c 21.308113
_cell_angle_alpha 90.000000
_cell_angle_beta 90.000000
_cell_angle_gamma 120.000000
_cell_volume 5175.005498
_symmetry_space_group_name_H-M "R 3 2"
_symmetry_group_IT_number 155
_symmetry_cell_setting 'hexagonal'
loop_
_space_group_symop_operation_xyz
x,y,z
-y,x-y,z
-x+y,-x,z
x-y,-y,-z
-x,-x+y,-z
y,x,-z
2/3+x,1/3+y,1/3+z
2/3-y,1/3+x-y,1/3+z
2/3-x+y,1/3-x,1/3+z
2/3+x-y,1/3-y,1/3-z
2/3-x,1/3-x+y,1/3-z
2/3+y,1/3+x,1/3-z
1/3+x,2/3+y,2/3+z
1/3-y,2/3+x-y,2/3+z
1/3-x+y,2/3-x,2/3+z
1/3+x-y,2/3-y,2/3-z
1/3-x,2/3-x+y,2/3-z
1/3+y,2/3+x,2/3-z
loop_
_atom_site_type_symbol
_atom_site_label
_atom_site_fract_x
_atom_site_fract_y
_atom_site_fract_z
Si Si1 0.523216 0.150218 0.589765
Si Si2 0.390679 0.331336 0.224572
Si Si3 0.633149 0.666427 0.739607
Si Si4 0.994851 0.810758 0.418501
Si Si5 0.111635 0.547152 0.828004
Si Si6 0.568171 0.878583 0.385483
Si Si7 0.161080 0.982777 0.396863
O O1 0.525454 0.208578 0.530286
O O2 0.620871 0.159509 0.599845
O O3 0.497685 0.184378 0.653889
O O4 0.438655 0.044928 0.579440
O O5 0.333334 0.266778 0.166667
O O6 0.381504 0.423447 0.220917
O O7 0.497928 0.369376 0.217774
O O8 0.322737 0.274331 0.279379
O O9 0.604376 0.666667 0.666667
O O10 0.546852 0.611799 0.786797
O O11 0.683620 0.605845 0.741456
O O12 0.044808 0.805272 0.354308
O O13 0.908990 0.825703 0.409336
O O14 0.080117 0.907340 0.440870
O O15 0.064435 0.569831 0.889943
#
# Coordination Sequence:
#
# PCOD9576966 Si02
#       7
#    18  18  18  18  18  18  18
#     4  10  22  40  64  93 118 161 217 267 313 360
#     4  10  23  37  60  92 129 165 208 251 315 382
#     4  10  22  38  62  91 127 168 210 250 312 382
#     4  11  20  40  62  94 130 167 206 256 311 377
#     4  11  21  41  61  91 127 163 201 269 311 371
#     4  10  23  40  67  93 119 160 218 267 320 368
#     4  10  21  36  64  96 127 165 208 252 309 375
#
# _framework density 24.347798999999998
#
# number of rings (size 3 to 8) (size 9 to 14) (size 15 to 20)
#    0.000    1.714    2.857    1.143    4.000    4.571 
#    0.857    0.714    0.000    0.000    0.000    2.000 
#    0.000    0.000    0.000    0.000    0.000    0.000 
#
# Total GULP energy -233974.418132 kJ/mol
# GULP energy per Si atom -5570.819479 kJ/mol
# Density = 2.429238 g / cm^3
# Si number density = 24.347799 Si / 1000 Ang^3
#
#
#
# Elastic Constant Matrix: (Units=GPa)
#
#
# Indices 1 2 3 4 5 6 
#
# 1 50.2170 -0.5341 16.0906 -7.4425 -0.0001 0.0000
# 2 -0.5341 50.2170 16.0906 7.4425 0.0001 0.0000
# 3 16.0906 16.0906 101.1804 0.0000 0.0000 0.0000
# 4 -7.4425 7.4425 0.0000 26.4834 0.0000 0.0001
# 5 -0.0001 0.0001 0.0000 0.0000 26.4834 -7.4425
# 6 0.0000 0.0000 0.0000 0.0001 -7.4425 25.3755
#
#
#
# Elastic Compliance Matrix: (Units=1/GPa)
#
#
# Indices 1 2 3 4 5 6 
#
# 1 0.021957 0.000483 -0.003568 0.006035 0.000000 0.000000
# 2 0.000483 0.021957 -0.003568 -0.006035 0.000000 0.000000
# 3 -0.003568 -0.003568 0.011018 0.000000 0.000000 0.000000
# 4 0.006035 -0.006035 0.000000 0.041151 0.000000 0.000000
# 5 0.000000 0.000000 0.000000 0.000000 0.041151 0.012069
# 6 0.000000 0.000000 0.000000 0.000000 0.012069 0.042948
#
#
# Mechanical properties :
#
#
# Convention : Reuss Voigt Hill
#
# Bulk Modulus (GPa) = 24.02540 29.43429 26.72985
# Shear Modulus (GPa) = 24.11207 26.99961 25.55584
#
# Velocity S-wave (km/s) = 3.15035 3.33365 3.24329
# Velocity P-wave (km/s) = 4.80853 5.18970 5.00274
#
# Compressibility (1/GPa) = 0.04162261
#
# Stress axis : x y z
#
# Youngs Moduli (GPa) = 45.54457 45.54457 90.75803
#
# Poissons Ratio (x) = -0.02198 0.32387
# Poissons Ratio (y) = -0.02198 0.32387
# Poissons Ratio (z) = 0.16252 0.16252
#
# Static dielectric constant tensor:
#      x y z
#    x 1.987530 0.000000 0.000000 
#    y 0.000000 1.987530 0.000000 
#    z 0.000000 0.000000 2.089670 
# 
# From -- ./inp_files/7554.got.cif
#   From: 2010.05.17/outbox.cif.g08.bks.cpg/sg155_4_cif.got.tgz:7554.got - 2010.05.20 10:44:35.
