data_PCOD9576863
_publ_section_title
;
Structure prediction by ZEFSAII (Michael W. Deem and Ramdas Pophale) SiO2 
 PCOD9576863
Probable space group: R 3 2
;
_chemical_formula_sum "Si O2"
_cell_formula_units_Z 81
_cell_length_a 17.515370
_cell_length_b 17.515370
_cell_length_c 14.486941
_cell_angle_alpha 90.000000
_cell_angle_beta 90.000000
_cell_angle_gamma 120.000000
_cell_volume 3848.982663
_symmetry_space_group_name_H-M "R 3 2"
_symmetry_group_IT_number 155
_symmetry_cell_setting 'hexagonal'
loop_
_space_group_symop_operation_xyz
x,y,z
-y,x-y,z
-x+y,-x,z
x-y,-y,-z
-x,-x+y,-z
y,x,-z
2/3+x,1/3+y,1/3+z
2/3-y,1/3+x-y,1/3+z
2/3-x+y,1/3-x,1/3+z
2/3+x-y,1/3-y,1/3-z
2/3-x,1/3-x+y,1/3-z
2/3+y,1/3+x,1/3-z
1/3+x,2/3+y,2/3+z
1/3-y,2/3+x-y,2/3+z
1/3-x+y,2/3-x,2/3+z
1/3+x-y,2/3-y,2/3-z
1/3-x,2/3-x+y,2/3-z
1/3+y,2/3+x,2/3-z
loop_
_atom_site_type_symbol
_atom_site_label
_atom_site_fract_x
_atom_site_fract_y
_atom_site_fract_z
Si Si1 0.520783 0.082956 0.836330
Si Si2 0.590433 0.683041 0.555797
Si Si3 0.892244 0.472341 0.498884
Si Si4 0.593314 0.926647 0.666667
Si Si5 0.135557 0.672303 0.026727
O O1 0.461376 0.128043 0.833334
O O2 0.574035 0.090772 0.930823
O O3 0.596132 0.140226 0.762512
O O4 0.452641 0.982586 0.803854
O O5 0.637075 0.637075 0.500000
O O6 0.590193 0.666667 0.666667
O O7 0.489554 0.629718 0.520681
O O8 0.882987 0.523573 0.413928
O O9 0.855378 0.494280 0.590119
O O10 0.000000 0.520849 0.500000
O O11 0.690951 0.952840 0.633006
#
# Coordination Sequence:
#
# PCOD9576863 Si02
#       5
#    18  18  18   9  18
#     4  10  22  40  61  93 130 169 223 275 335 411
#     4  10  19  37  59  93 134 173 211 276 351 399
#     4   9  19  36  59  90 133 164 208 279 339 387
#     4  10  20  38  62  94 128 160 220 276 326 404
#     4  10  22  40  61  92 128 169 222 281 332 393
#
# _framework density 21.044521
#
# number of rings (size 3 to 8) (size 9 to 14) (size 15 to 20)
#    0.000    2.222    0.000    4.000    9.333    0.000 
#   17.333    0.000    0.000    0.000    0.000    0.000 
#   30.000    0.000    0.000    0.000    0.000    0.000 
#
# Total GULP energy -150345.252085 kJ/mol
# GULP energy per Si atom -5568.342670 kJ/mol
# Density = 2.099662 g / cm^3
# Si number density = 21.044521 Si / 1000 Ang^3
#
#
#
# Elastic Constant Matrix: (Units=GPa)
#
#
# Indices 1 2 3 4 5 6 
#
# 1 109.9055 32.2300 71.4082 -11.7781 -0.0024 0.0000
# 2 32.2300 109.9055 71.4082 11.7781 0.0024 0.0000
# 3 71.4082 71.4082 170.7109 0.0000 0.0000 0.0000
# 4 -11.7781 11.7781 0.0000 75.9015 0.0000 0.0024
# 5 -0.0024 0.0024 0.0000 0.0000 75.9015 -11.7781
# 6 0.0000 0.0000 0.0000 0.0024 -11.7781 38.8378
#
#
#
# Elastic Compliance Matrix: (Units=1/GPa)
#
#
# Indices 1 2 3 4 5 6 
#
# 1 0.012823 -0.000687 -0.005077 0.002096 0.000000 0.000000
# 2 -0.000687 0.012823 -0.005077 -0.002096 0.000000 0.000000
# 3 -0.005077 -0.005077 0.010105 0.000000 0.000000 0.000000
# 4 0.002096 -0.002096 0.000000 0.013826 0.000000 -0.000001
# 5 0.000000 0.000000 0.000000 0.000000 0.013826 0.004193
# 6 0.000000 0.000000 0.000000 -0.000001 0.004193 0.027020
#
#
# Mechanical properties :
#
#
# Convention : Reuss Voigt Hill
#
# Bulk Modulus (GPa) = 71.06659 82.29053 76.67856
# Shear Modulus (GPa) = 42.81085 52.49319 47.65202
#
# Velocity S-wave (km/s) = 4.51521 4.99980 4.76367
# Velocity P-wave (km/s) = 7.81190 8.51579 8.17143
#
# Compressibility (1/GPa) = 0.01407131
#
# Stress axis : x y z
#
# Youngs Moduli (GPa) = 77.98364 77.98364 98.96064
#
# Poissons Ratio (x) = 0.05355 0.50240
# Poissons Ratio (y) = 0.05355 0.50240
# Poissons Ratio (z) = 0.39590 0.39590
#
# Static dielectric constant tensor:
#      x y z
#    x 0.925170 0.000000 0.000000 
#    y 0.000000 0.925170 0.000000 
#    z 0.000000 0.000000 1.795540 
# 
# From -- ./inp_files/4938.got.cif
#   From: 2010.05.17/outbox.cif.g08.bks.cpg/sg155_3_cif.got.tgz:4938.got - 2010.05.20 10:44:35.
