data_PCOD9576681
_publ_section_title
;
Structure prediction by ZEFSAII (Michael W. Deem and Ramdas Pophale) SiO2 
 PCOD9576681
Probable space group: P 32 2 1
;
_chemical_formula_sum "Si O2"
_cell_formula_units_Z 30
_cell_length_a 8.751175
_cell_length_b 8.751175
_cell_length_c 18.615138
_cell_angle_alpha 90.000000
_cell_angle_beta 90.000000
_cell_angle_gamma 120.000000
_cell_volume 1234.609542
_symmetry_space_group_name_H-M "P 32 2 1"
_symmetry_group_IT_number 154
_symmetry_cell_setting 'hexagonal'
loop_
_space_group_symop_operation_xyz
x,y,z
-y,x-y,2/3+z
-x+y,-x,1/3+z
x-y,-y,1/3-z
-x,-x+y,2/3-z
y,x,-z
loop_
_atom_site_type_symbol
_atom_site_label
_atom_site_fract_x
_atom_site_fract_y
_atom_site_fract_z
Si Si1 0.356912 0.300236 0.158269
Si Si2 0.981016 0.311781 0.493870
Si Si3 0.000000 0.218425 0.333334
Si Si4 0.155646 0.821337 0.018905
Si Si5 0.510638 0.632569 0.621378
Si Si6 0.364648 0.364648 0.500000
O O1 0.513739 0.491254 0.181384
O O2 0.181394 0.310990 0.143498
O O3 0.310422 0.176604 0.228192
O O4 0.438465 0.240366 0.094178
O O5 0.968005 0.295695 0.406190
O O6 0.173305 0.341386 0.510551
O O7 0.174390 0.201354 0.344103
O O8 0.321401 0.004627 0.996571
O O9 0.201708 0.669955 0.998499
O O10 0.481073 0.473727 0.567718
#
# Coordination Sequence:
#
# PCOD9576681 Si02
#       6
#     6   6   3   6   6   3
#     4  11  26  47  72 105 147 186 245 296 365 431
#     4  11  26  45  73 104 143 191 234 298 355 433
#     4  10  24  46  70  98 142 184 240 284 362 428
#     4  11  26  45  72 104 140 189 238 297 361 437
#     4  12  26  47  73 102 146 186 240 299 361 432
#     4  12  24  44  74  98 142 190 230 290 362 420
#
# _framework density 24.299178999999999
#
# number of rings (size 3 to 8) (size 9 to 14) (size 15 to 20)
#    0.000    0.800    4.000    1.200   14.000    0.000 
#    0.000    0.000    0.000    0.000    0.000    0.000 
#    0.000    0.000    0.000    0.000    0.000    0.000 
#
# Total GULP energy -167927.506694 kJ/mol
# GULP energy per Si atom -5597.583556 kJ/mol
# Density = 2.424387 g / cm^3
# Si number density = 24.299179 Si / 1000 Ang^3
#
#
#
# Elastic Constant Matrix: (Units=GPa)
#
#
# Indices 1 2 3 4 5 6 
#
# 1 122.7377 49.6404 11.7464 -0.8882 -0.0001 0.0000
# 2 49.6404 122.7377 11.7464 0.8882 0.0001 0.0000
# 3 11.7464 11.7464 67.3530 0.0000 0.0000 0.0000
# 4 -0.8882 0.8882 0.0000 45.9410 0.0000 0.0001
# 5 -0.0001 0.0001 0.0000 0.0000 45.9410 -0.8882
# 6 0.0000 0.0000 0.0000 0.0001 -0.8882 36.5487
#
#
#
# Elastic Compliance Matrix: (Units=1/GPa)
#
#
# Indices 1 2 3 4 5 6 
#
# 1 0.009815 -0.003872 -0.001036 0.000265 0.000000 0.000000
# 2 -0.003872 0.009815 -0.001036 -0.000265 0.000000 0.000000
# 3 -0.001036 -0.001036 0.015209 0.000000 0.000000 0.000000
# 4 0.000265 -0.000265 0.000000 0.021777 0.000000 0.000000
# 5 0.000000 0.000000 0.000000 0.000000 0.021777 0.000529
# 6 0.000000 0.000000 0.000000 0.000000 0.000529 0.027374
#
#
# Mechanical properties :
#
#
# Convention : Reuss Voigt Hill
#
# Bulk Modulus (GPa) = 43.57667 51.01054 47.29360
# Shear Modulus (GPa) = 39.90253 41.66580 40.78417
#
# Velocity S-wave (km/s) = 4.05672 4.14539 4.10129
# Velocity P-wave (km/s) = 6.31783 6.62952 6.47555
#
# Compressibility (1/GPa) = 0.02294806
#
# Stress axis : x y z
#
# Youngs Moduli (GPa) = 101.88869 101.88869 65.75208
#
# Poissons Ratio (x) = 0.39453 0.06814
# Poissons Ratio (y) = 0.39453 0.06814
# Poissons Ratio (z) = 0.10559 0.10559
#
# Static dielectric constant tensor:
#      x y z
#    x 1.890910 0.000000 0.000000 
#    y 0.000000 1.890910 0.000000 
#    z 0.000000 0.000000 2.030380 
# 
# From -- ./inp_files/3122.got.cif
#   From: 2010.05.17/outbox.cif.g08.bks.cpg/sg154_2_cif.got.tgz:3122.got - 2010.05.20 10:41:43.
