data_PCOD9576314
_publ_section_title
;
Structure prediction by ZEFSAII (Michael W. Deem and Ramdas Pophale) SiO2 
 PCOD9576314
Probable space group: P 32 1 2
;
_chemical_formula_sum "Si O2"
_cell_formula_units_Z 30
_cell_length_a 9.210777
_cell_length_b 9.210777
_cell_length_c 18.483431
_cell_angle_alpha 90.000000
_cell_angle_beta 90.000000
_cell_angle_gamma 120.000000
_cell_volume 1358.018724
_symmetry_space_group_name_H-M "P 32 1 2"
_symmetry_group_IT_number 153
_symmetry_cell_setting 'hexagonal'
loop_
_space_group_symop_operation_xyz
x,y,z
-y,x-y,2/3+z
-x+y,-x,1/3+z
-y,-x,1/3-z
-x+y,y,2/3-z
x,x-y,-z
loop_
_atom_site_type_symbol
_atom_site_label
_atom_site_fract_x
_atom_site_fract_y
_atom_site_fract_z
Si Si1 0.642156 0.699712 0.800784
Si Si2 0.886808 0.464976 0.325876
Si Si3 0.004415 0.650078 0.172486
Si Si4 0.961793 0.634258 0.471082
Si Si5 0.824290 0.059831 0.042389
O O1 0.493786 0.508264 0.792977
O O2 0.763210 0.748231 0.730730
O O3 0.741245 0.729961 0.877165
O O4 0.590947 0.840563 0.813077
O O5 0.685947 0.371894 0.333334
O O6 0.942033 0.607376 0.385556
O O7 0.937532 0.323885 0.336537
O O8 0.959836 0.559702 0.250838
O O9 0.180356 0.819645 0.166667
O O10 0.854808 0.692755 0.162240
O O11 0.897900 0.448950 0.500000
O O12 0.866841 0.933421 0.000000
#
# Coordination Sequence:
#
# PCOD9576314 Si02
#       5
#     6   6   6   6   6
#     4  10  23  41  64  95 132 170 221 268 328 394
#     4   9  21  41  63  92 129 173 216 265 332 399
#     4  10  23  42  69  97 133 170 223 278 326 391
#     4  11  23  41  67  93 134 177 214 265 340 395
#     4  10  21  39  65  94 131 168 217 271 325 383
#
# _framework density 22.091006
#
# number of rings (size 3 to 8) (size 9 to 14) (size 15 to 20)
#    0.000    2.000    0.000    1.800   11.200    4.000 
#    3.600    0.000    0.000    0.000    0.000    0.000 
#    0.000    0.000    0.000    0.000    0.000    0.000 
#
# Total GULP energy -167062.179452 kJ/mol
# GULP energy per Si atom -5568.739315 kJ/mol
# Density = 2.204073 g / cm^3
# Si number density = 22.091006 Si / 1000 Ang^3
#
#
#
# Elastic Constant Matrix: (Units=GPa)
#
#
# Indices 1 2 3 4 5 6 
#
# 1 95.4730 43.4879 24.1608 0.0001 -11.3999 0.0000
# 2 43.4879 95.4730 24.1608 -0.0001 11.3999 0.0000
# 3 24.1608 24.1608 37.1322 0.0000 0.0000 0.0000
# 4 0.0001 -0.0001 0.0000 0.6393 0.0000 11.3999
# 5 -11.3999 11.3999 0.0000 0.0000 0.6393 0.0001
# 6 0.0000 0.0000 0.0000 11.3999 0.0001 25.9925
#
#
#
# Elastic Compliance Matrix: (Units=1/GPa)
#
#
# Indices 1 2 3 4 5 6 
#
# 1 0.003240 0.006060 -0.006052 0.000001 -0.050290 0.000000
# 2 0.006060 0.003240 -0.006052 -0.000001 0.050290 0.000000
# 3 -0.006052 -0.006052 0.034806 0.000000 0.000000 0.000000
# 4 0.000001 -0.000001 0.000000 -0.229331 0.000000 0.100581
# 5 -0.050290 0.050290 0.000000 0.000000 -0.229331 0.000001
# 6 0.000000 0.000000 0.000000 0.100581 0.000001 -0.005640
#
#
# Mechanical properties :
#
#
# Convention : Reuss Voigt Hill
#
# Bulk Modulus (GPa) = 34.24566 45.74412 39.99489
# Shear Modulus (GPa) = -12.46273 14.53881 1.03804
#
# Velocity S-wave (km/s) = -2.37777 2.56819 0.68623
# Velocity P-wave (km/s) = 2.82796 5.43564 4.33264
#
# Compressibility (1/GPa) = 0.02920078
#
# Stress axis : x y z
#
# Youngs Moduli (GPa) = 308.62329 308.62329 28.73062
#
# Poissons Ratio (x) = -1.87039 0.17387
# Poissons Ratio (y) = -1.87039 0.17387
# Poissons Ratio (z) = 1.86768 1.86768
#
# Static dielectric constant tensor:
#      x y z
#    x 1.863070 0.000000 0.000000 
#    y 0.000000 1.863070 0.000000 
#    z 0.000000 0.000000 1.905880 
# 
# From -- ./inp_files/4261.got.cif
#   From: 2010.05.17/outbox.cif.g08.bks.cpg/sg153_3_cif.got.tgz:4261.got - 2010.05.20 10:38:56.
