data_PCOD9576079
_publ_section_title
;
Structure prediction by ZEFSAII (Michael W. Deem and Ramdas Pophale) SiO2 
 PCOD9576079
Probable space group: P 31 2 1
;
_chemical_formula_sum "Si O2"
_cell_formula_units_Z 18
_cell_length_a 10.368325
_cell_length_b 10.368325
_cell_length_c 7.744976
_cell_angle_alpha 90.000000
_cell_angle_beta 90.000000
_cell_angle_gamma 120.000000
_cell_volume 721.054202
_symmetry_space_group_name_H-M "P 31 2 1"
_symmetry_group_IT_number 152
_symmetry_cell_setting 'hexagonal'
loop_
_space_group_symop_operation_xyz
x,y,z
-y,x-y,1/3+z
-x+y,-x,2/3+z
x-y,-y,2/3-z
-x,-x+y,1/3-z
y,x,-z
loop_
_atom_site_type_symbol
_atom_site_label
_atom_site_fract_x
_atom_site_fract_y
_atom_site_fract_z
Si Si1 0.000000 0.431316 0.166667
Si Si2 0.112972 0.285908 0.939276
Si Si3 0.767858 0.448855 0.949907
Si Si4 0.892395 0.000000 0.833334
O O1 0.073189 0.552123 0.314672
O O2 0.878916 0.275713 0.247334
O O3 0.185819 0.390615 0.775372
O O4 0.203696 0.203696 0.000000
O O5 0.937562 0.161809 0.910861
O O6 0.722430 0.343821 0.779632
O O7 0.000000 0.059699 0.666667
#
# Coordination Sequence:
#
# PCOD9576079 Si02
#       4
#     3   6   6   3
#     4  12  29  51  78 116 158 207 269 328 400 478
#     4  11  26  49  81 113 158 200 269 331 405 474
#     4  12  29  53  80 114 157 214 269 321 402 491
#     4  10  23  45  70 114 148 185 243 324 400 454
#
# _framework density 24.963450999999999
#
# number of rings (size 3 to 8) (size 9 to 14) (size 15 to 20)
#    0.000    0.667    3.333    4.000   14.000    1.333 
#    0.000    0.000    0.000    0.000    0.000    0.000 
#    0.000    0.000    0.000    0.000    0.000    0.000 
#
# Total GULP energy -100343.343461 kJ/mol
# GULP energy per Si atom -5574.630192 kJ/mol
# Density = 2.490663 g / cm^3
# Si number density = 24.963451 Si / 1000 Ang^3
#
#
#
# Elastic Constant Matrix: (Units=GPa)
#
#
# Indices 1 2 3 4 5 6 
#
# 1 94.1193 42.0830 38.7508 -3.7730 0.0000 0.0000
# 2 42.0830 94.1193 38.7508 3.7730 0.0000 0.0000
# 3 38.7508 38.7508 156.6140 0.0000 0.0000 0.0000
# 4 -3.7730 3.7730 0.0000 47.1321 0.0000 0.0000
# 5 0.0000 0.0000 0.0000 0.0000 47.1321 -3.7730
# 6 0.0000 0.0000 0.0000 0.0000 -3.7730 26.0182
#
#
#
# Elastic Compliance Matrix: (Units=1/GPa)
#
#
# Indices 1 2 3 4 5 6 
#
# 1 0.013994 -0.005449 -0.002114 0.001556 0.000000 0.000000
# 2 -0.005449 0.013994 -0.002114 -0.001556 0.000000 0.000000
# 3 -0.002114 -0.002114 0.007431 0.000000 0.000000 0.000000
# 4 0.001556 -0.001556 0.000000 0.021466 0.000000 0.000000
# 5 0.000000 0.000000 0.000000 0.000000 0.021466 0.003113
# 6 0.000000 0.000000 0.000000 0.000000 0.003113 0.038886
#
#
# Mechanical properties :
#
#
# Convention : Reuss Voigt Hill
#
# Bulk Modulus (GPa) = 62.24951 64.89132 63.57042
# Shear Modulus (GPa) = 35.22417 39.07433 37.14925
#
# Velocity S-wave (km/s) = 3.76044 3.96063 3.86183
# Velocity P-wave (km/s) = 6.62155 6.85321 6.73837
#
# Compressibility (1/GPa) = 0.01606438
#
# Stress axis : x y z
#
# Youngs Moduli (GPa) = 71.45883 71.45883 134.56414
#
# Poissons Ratio (x) = 0.38938 0.28451
# Poissons Ratio (y) = 0.38938 0.28451
# Poissons Ratio (z) = 0.15109 0.15109
#
# Static dielectric constant tensor:
#      x y z
#    x 2.014810 0.000000 0.000000 
#    y 0.000000 2.014810 0.000000 
#    z 0.000000 0.000000 2.532780 
# 
# From -- ./inp_files/718.got.cif
#   From: 2010.05.17/outbox.cif.g08.bks.cpg/sg152_1_cif.got.tgz:718.got - 2010.05.20 10:36:06.
