data_PCOD9576380
_publ_section_title
;
Structure prediction by ZEFSAII (Michael W. Deem and Ramdas Pophale) SiO2 
 PCOD9576380
Probable space group: P 32 2 1
;
_chemical_formula_sum "Si O2"
_cell_formula_units_Z 36
_cell_length_a 17.307181
_cell_length_b 17.307181
_cell_length_c 8.523102
_cell_angle_alpha 90.000000
_cell_angle_beta 90.000000
_cell_angle_gamma 120.000000
_cell_volume 2210.960526
_symmetry_space_group_name_H-M "P 32 2 1"
_symmetry_group_IT_number 154
_symmetry_cell_setting 'hexagonal'
loop_
_space_group_symop_operation_xyz
x,y,z
-y,x-y,2/3+z
-x+y,-x,1/3+z
x-y,-y,1/3-z
-x,-x+y,2/3-z
y,x,-z
loop_
_atom_site_type_symbol
_atom_site_label
_atom_site_fract_x
_atom_site_fract_y
_atom_site_fract_z
Si Si1 0.902437 0.489675 0.689720
Si Si2 0.441197 0.199261 0.829401
Si Si3 0.373353 0.026908 0.998861
Si Si4 0.715489 0.346150 0.617951
Si Si5 0.907777 0.384737 0.237367
Si Si6 0.628405 0.087512 0.385322
O O1 0.937831 0.418110 0.687145
O O2 0.806210 0.441799 0.611762
O O3 0.979994 0.577101 0.605283
O O4 0.894391 0.512041 0.869658
O O5 0.525731 0.251346 0.943402
O O6 0.478288 0.166008 0.684086
O O7 0.413867 0.269915 0.771786
O O8 0.370461 0.107578 0.912475
O O9 0.328686 0.000000 0.166667
O O10 0.339044 0.939479 0.892230
O O11 0.661930 0.334806 0.456573
O O12 0.882644 0.451663 0.153796
O O13 0.000000 0.444974 0.333334
#
# Coordination Sequence:
#
# PCOD9576380 Si02
#       6
#     6   6   6   6   6   6
#     4   9  18  31  49  62  89 133 153 196 277 316
#     4  10  20  27  45  72  85 113 163 212 258 295
#     4   9  15  32  48  62  83 123 158 193 262 322
#     4  11  22  35  47  70  96 122 167 223 274 291
#     4   9  17  30  50  65  87 123 160 203 262 307
#     4  10  17  31  45  64  91 120 158 201 257 318
#
# _framework density 16.282516000000001
#
# number of rings (size 3 to 8) (size 9 to 14) (size 15 to 20)
#    0.000    2.333    3.333    3.000    0.000    1.333 
#    0.000    0.000    0.000    0.000    0.000    0.000 
#    0.000    0.000    0.000    0.000    0.000    0.000 
#
# Total GULP energy -200612.980649 kJ/mol
# GULP energy per Si atom -5572.582796 kJ/mol
# Density = 1.624546 g / cm^3
# Si number density = 16.282516 Si / 1000 Ang^3
#
#
#
# Elastic Constant Matrix: (Units=GPa)
#
#
# Indices 1 2 3 4 5 6 
#
# 1 57.4719 22.3206 22.5185 -1.2193 0.0000 0.0000
# 2 22.3206 57.4719 22.5185 1.2193 0.0000 0.0000
# 3 22.5185 22.5185 87.0445 0.0000 0.0000 0.0000
# 4 -1.2193 1.2193 0.0000 13.7368 0.0000 0.0000
# 5 0.0000 0.0000 0.0000 0.0000 13.7368 -1.2193
# 6 0.0000 0.0000 0.0000 0.0000 -1.2193 17.5756
#
#
#
# Elastic Compliance Matrix: (Units=1/GPa)
#
#
# Indices 1 2 3 4 5 6 
#
# 1 0.021650 -0.006975 -0.003797 0.002541 0.000000 0.000000
# 2 -0.006975 0.021650 -0.003797 -0.002541 0.000000 0.000000
# 3 -0.003797 -0.003797 0.013453 0.000000 0.000000 0.000000
# 4 0.002541 -0.002541 0.000000 0.073248 0.000000 0.000000
# 5 0.000000 0.000000 0.000000 0.000000 0.073248 0.005082
# 6 0.000000 0.000000 0.000000 0.000000 0.005082 0.057249
#
#
# Mechanical properties :
#
#
# Convention : Reuss Voigt Hill
#
# Bulk Modulus (GPa) = 36.20916 37.41149 36.81033
# Shear Modulus (GPa) = 16.73133 17.98521 17.35827
#
# Velocity S-wave (km/s) = 3.20904 3.32712 3.26861
# Velocity P-wave (km/s) = 6.00141 6.14703 6.07466
#
# Compressibility (1/GPa) = 0.02761732
#
# Stress axis : x y z
#
# Youngs Moduli (GPa) = 46.18925 46.18925 74.33444
#
# Poissons Ratio (x) = 0.32216 0.28221
# Poissons Ratio (y) = 0.32216 0.28221
# Poissons Ratio (z) = 0.17536 0.17536
#
# Static dielectric constant tensor:
#      x y z
#    x 1.564060 0.000000 0.000000 
#    y 0.000000 1.564060 0.000000 
#    z 0.000000 0.000000 1.623600 
# 
# From -- ./inp_files/1221.got.cif
#   From: 2010.05.17/outbox.cif.g08.bks.cpg/sg154_1_cif.got.tgz:1221.got - 2010.05.20 10:41:43.
