data_PCOD9576667
_publ_section_title
;
Structure prediction by ZEFSAII (Michael W. Deem and Ramdas Pophale) SiO2 
 PCOD9576667
Probable space group: P 32 2 1
;
_chemical_formula_sum "Si O2"
_cell_formula_units_Z 42
_cell_length_a 8.821574
_cell_length_b 8.821574
_cell_length_c 30.272278
_cell_angle_alpha 90.000000
_cell_angle_beta 90.000000
_cell_angle_gamma 120.000000
_cell_volume 2040.177238
_symmetry_space_group_name_H-M "P 32 2 1"
_symmetry_group_IT_number 154
_symmetry_cell_setting 'hexagonal'
loop_
_space_group_symop_operation_xyz
x,y,z
-y,x-y,2/3+z
-x+y,-x,1/3+z
x-y,-y,1/3-z
-x,-x+y,2/3-z
y,x,-z
loop_
_atom_site_type_symbol
_atom_site_label
_atom_site_fract_x
_atom_site_fract_y
_atom_site_fract_z
Si Si1 0.760990 0.386851 0.650322
Si Si2 0.385766 0.098736 0.387033
Si Si3 0.487970 0.487970 0.500000
Si Si4 0.391600 0.640206 0.192955
Si Si5 0.008101 0.865312 0.259432
Si Si6 0.330446 0.384874 0.848790
Si Si7 0.604073 0.000000 0.666667
Si Si8 0.234601 0.858040 0.093105
O O1 0.788626 0.517658 0.690295
O O2 0.938819 0.384682 0.639347
O O3 0.720023 0.468978 0.607695
O O4 0.613586 0.186224 0.660930
O O5 0.181461 0.027006 0.398983
O O6 0.508395 0.143760 0.430107
O O7 0.308198 0.481751 0.504345
O O8 0.584118 0.595462 0.455546
O O9 0.204772 0.631060 0.200348
O O10 0.369204 0.500583 0.156708
O O11 0.025573 0.804980 0.210604
O O12 0.018480 0.725131 0.291505
O O13 0.189582 0.046825 0.264950
O O14 0.261090 0.373224 0.799182
#
# Coordination Sequence:
#
# PCOD9576667 Si02
#       8
#     6   6   3   6   6   6   3   6
#     4  11  24  43  68  95 132 176 230 283 335 416
#     4  11  25  43  67  96 135 179 229 282 344 408
#     4  10  24  38  66  96 138 176 214 274 342 404
#     4  11  22  43  61 103 129 180 225 278 338 405
#     4  11  21  42  68  96 130 181 223 274 349 411
#     4  11  22  39  71  95 143 171 227 280 339 413
#     4  10  24  40  68  98 122 186 224 282 338 412
#     4  11  20  42  67  99 131 180 222 275 344 407
#
# _framework density 20.586447
#
# number of rings (size 3 to 8) (size 9 to 14) (size 15 to 20)
#    0.000    1.143    4.286    3.429    8.000    0.000 
#    5.143    1.429    0.000    0.000    0.000    0.000 
#    0.000    0.000    0.000    0.000    0.000    0.000 
#
# Total GULP energy -234333.274011 kJ/mol
# GULP energy per Si atom -5579.363667 kJ/mol
# Density = 2.053959 g / cm^3
# Si number density = 20.586447 Si / 1000 Ang^3
#
#
#
# Elastic Constant Matrix: (Units=GPa)
#
#
# Indices 1 2 3 4 5 6 
#
# 1 94.7330 39.5604 20.9387 4.3328 0.0003 0.0000
# 2 39.5604 94.7330 20.9387 -4.3328 -0.0003 0.0000
# 3 20.9387 20.9387 63.0902 0.0000 0.0000 0.0000
# 4 4.3328 -4.3328 0.0000 34.3401 0.0000 -0.0003
# 5 0.0003 -0.0003 0.0000 0.0000 34.3401 4.3328
# 6 0.0000 0.0000 0.0000 -0.0003 4.3328 27.5863
#
#
#
# Elastic Compliance Matrix: (Units=1/GPa)
#
#
# Indices 1 2 3 4 5 6 
#
# 1 0.013399 -0.005093 -0.002757 -0.002333 0.000000 0.000000
# 2 -0.005093 0.013399 -0.002757 0.002333 0.000000 0.000000
# 3 -0.002757 -0.002757 0.017680 0.000000 0.000000 0.000000
# 4 -0.002333 0.002333 0.000000 0.029709 0.000000 0.000000
# 5 0.000000 0.000000 0.000000 0.000000 0.029709 -0.004666
# 6 0.000000 0.000000 0.000000 0.000000 -0.004666 0.036983
#
#
# Mechanical properties :
#
#
# Convention : Reuss Voigt Hill
#
# Bulk Modulus (GPa) = 42.98200 46.15906 44.57053
# Shear Modulus (GPa) = 29.43846 30.66119 30.04982
#
# Velocity S-wave (km/s) = 3.78563 3.86344 3.82473
# Velocity P-wave (km/s) = 6.32709 6.50940 6.41889
#
# Compressibility (1/GPa) = 0.02326555
#
# Stress axis : x y z
#
# Youngs Moduli (GPa) = 74.63416 74.63416 56.56079
#
# Poissons Ratio (x) = 0.38009 0.15592
# Poissons Ratio (y) = 0.38009 0.15592
# Poissons Ratio (z) = 0.20574 0.20574
#
# Static dielectric constant tensor:
#      x y z
#    x 1.775650 0.000000 0.000000 
#    y 0.000000 1.775650 0.000000 
#    z 0.000000 0.000000 1.779790 
# 
# From -- ./inp_files/3823.got.cif
#   From: 2010.05.17/outbox.cif.g08.bks.cpg/sg154_2_cif.got.tgz:3823.got - 2010.05.20 10:41:43.
