data_PCOD9576287
_publ_section_title
;
Structure prediction by ZEFSAII (Michael W. Deem and Ramdas Pophale) SiO2 
 PCOD9576287
Probable space group: P 32 1 2
;
_chemical_formula_sum "Si O2"
_cell_formula_units_Z 33
_cell_length_a 8.346962
_cell_length_b 8.346962
_cell_length_c 27.373954
_cell_angle_alpha 90.000000
_cell_angle_beta 90.000000
_cell_angle_gamma 120.000000
_cell_volume 1651.676682
_symmetry_space_group_name_H-M "P 32 1 2"
_symmetry_group_IT_number 153
_symmetry_cell_setting 'hexagonal'
loop_
_space_group_symop_operation_xyz
x,y,z
-y,x-y,2/3+z
-x+y,-x,1/3+z
-y,-x,1/3-z
-x+y,y,2/3-z
x,x-y,-z
loop_
_atom_site_type_symbol
_atom_site_label
_atom_site_fract_x
_atom_site_fract_y
_atom_site_fract_z
Si Si1 0.123304 0.246607 0.833334
Si Si2 0.129539 0.470541 0.566789
Si Si3 0.016799 0.300414 0.290947
Si Si4 0.246861 0.963019 0.797416
Si Si5 0.519741 0.690950 0.406610
Si Si6 0.090916 0.858832 0.985968
O O1 0.110457 0.367165 0.789764
O O2 0.206422 0.125164 0.810816
O O3 0.134671 0.382640 0.514912
O O4 0.995292 0.558101 0.560337
O O5 0.326369 0.645708 0.581168
O O6 0.086502 0.322570 0.608714
O O7 0.166451 0.332902 0.333334
O O8 0.091395 0.259638 0.240810
O O9 0.022205 0.491993 0.281890
O O10 0.827176 0.117673 0.304154
O O11 0.632709 0.840171 0.365292
O O12 0.081831 0.040916 0.000000
#
# Coordination Sequence:
#
# PCOD9576287 Si02
#       6
#     3   6   6   6   6   6
#     4  12  22  38  64  94 122 158 204 254 308 362
#     4  10  21  40  62  87 118 159 203 250 306 366
#     4  10  20  38  61  85 116 161 202 236 297 372
#     4  10  20  37  62  86 117 158 199 241 298 369
#     4  11  22  38  61  89 121 157 201 251 302 365
#     4  11  22  38  62  89 118 158 205 252 305 365
#
# _framework density 19.979696000000001
#
# number of rings (size 3 to 8) (size 9 to 14) (size 15 to 20)
#    0.000    1.455    0.000    9.273    0.000    0.000 
#    0.000    7.273    0.000    9.818    0.000    0.000 
#    0.000    0.000    0.000    0.000    0.000    0.000 
#
# Total GULP energy -184297.759498 kJ/mol
# GULP energy per Si atom -5584.780591 kJ/mol
# Density = 1.993422 g / cm^3
# Si number density = 19.979696 Si / 1000 Ang^3
#
#
#
# Elastic Constant Matrix: (Units=GPa)
#
#
# Indices 1 2 3 4 5 6 
#
# 1 83.2354 63.4835 38.8860 -0.0003 2.4439 0.0000
# 2 63.4835 83.2354 38.8860 0.0003 -2.4439 0.0000
# 3 38.8860 38.8860 108.7888 0.0000 0.0000 0.0000
# 4 -0.0003 0.0003 0.0000 41.6113 0.0000 -2.4439
# 5 2.4439 -2.4439 0.0000 0.0000 41.6113 -0.0003
# 6 0.0000 0.0000 0.0000 -2.4439 -0.0003 9.8759
#
#
#
# Elastic Compliance Matrix: (Units=1/GPa)
#
#
# Indices 1 2 3 4 5 6 
#
# 1 0.029892 -0.021483 -0.003006 0.000000 -0.003017 0.000000
# 2 -0.021483 0.029892 -0.003006 0.000000 0.003017 0.000000
# 3 -0.003006 -0.003006 0.011341 0.000000 0.000000 0.000000
# 4 0.000000 0.000000 0.000000 0.024386 0.000000 0.006035
# 5 -0.003017 0.003017 0.000000 0.000000 0.024386 0.000001
# 6 0.000000 0.000000 0.000000 0.006035 0.000001 0.102749
#
#
# Mechanical properties :
#
#
# Convention : Reuss Voigt Hill
#
# Bulk Modulus (GPa) = 61.97351 61.97449 61.97400
# Shear Modulus (GPa) = 17.66696 27.55331 22.61013
#
# Velocity S-wave (km/s) = 2.97685 3.71761 3.36766
# Velocity P-wave (km/s) = 6.54989 7.03659 6.79760
#
# Compressibility (1/GPa) = 0.01613593
#
# Stress axis : x y z
#
# Youngs Moduli (GPa) = 33.45391 33.45391 88.17634
#
# Poissons Ratio (x) = 0.71868 0.26504
# Poissons Ratio (y) = 0.71868 0.26504
# Poissons Ratio (z) = 0.10055 0.10055
#
# Static dielectric constant tensor:
#      x y z
#    x 1.720210 0.000000 0.000000 
#    y 0.000000 1.720210 0.000000 
#    z 0.000000 0.000000 1.707230 
# 
# From -- ./inp_files/4702.got.cif
#   From: 2010.05.17/outbox.cif.g08.bks.cpg/sg153_3_cif.got.tgz:4702.got - 2010.05.20 10:38:56.
