data_PCOD9576302
_publ_section_title
;
Structure prediction by ZEFSAII (Michael W. Deem and Ramdas Pophale) SiO2 
 PCOD9576302
Probable space group: P 32 1 2
;
_chemical_formula_sum "Si O2"
_cell_formula_units_Z 30
_cell_length_a 16.648958
_cell_length_b 16.648958
_cell_length_c 6.134365
_cell_angle_alpha 90.000000
_cell_angle_beta 90.000000
_cell_angle_gamma 120.000000
_cell_volume 1472.564615
_symmetry_space_group_name_H-M "P 32 1 2"
_symmetry_group_IT_number 153
_symmetry_cell_setting 'hexagonal'
loop_
_space_group_symop_operation_xyz
x,y,z
-y,x-y,2/3+z
-x+y,-x,1/3+z
-y,-x,1/3-z
-x+y,y,2/3-z
x,x-y,-z
loop_
_atom_site_type_symbol
_atom_site_label
_atom_site_fract_x
_atom_site_fract_y
_atom_site_fract_z
Si Si1 0.671233 0.590803 0.492837
Si Si2 0.952368 0.047633 0.666667
Si Si3 0.980552 0.747551 0.520667
Si Si4 0.093286 0.467949 0.120238
Si Si5 0.812041 0.624081 0.833334
Si Si6 0.512845 0.487156 0.166667
Si Si7 0.187652 0.375304 0.333334
O O1 0.739895 0.681676 0.356409
O O2 0.605552 0.615660 0.635268
O O3 0.733612 0.567771 0.652286
O O4 0.601558 0.515310 0.319664
O O5 0.862381 0.022690 0.807702
O O6 0.933637 0.966819 0.500000
O O7 0.910289 0.689732 0.714843
O O8 0.086286 0.776094 0.564822
O O9 0.168852 0.437875 0.165459
O O10 0.041582 0.468969 0.343487
O O11 0.131671 0.565836 0.000000
#
# Coordination Sequence:
#
# PCOD9576302 Si02
#       7
#     6   3   6   6   3   3   3
#     4  11  21  41  65  95 136 178 227 301 343 415
#     4  12  29  42  58  88 146 208 250 297 330 386
#     4  12  26  40  64  94 141 191 247 288 345 405
#     4  10  23  41  68  94 134 174 243 294 350 422
#     4  12  22  42  58 102 140 181 228 301 334 418
#     4  10  20  44  64  96 124 175 222 307 352 420
#     4  12  23  42  68  96 130 204 230 289 354 420
#
# _framework density 20.372620000000001
#
# number of rings (size 3 to 8) (size 9 to 14) (size 15 to 20)
#    0.000    0.800    6.000    0.600    7.000    0.000 
#    0.000    0.000    2.200    0.000    0.000    0.000 
#    0.000  504.000    0.000    0.000    0.000    0.000 
#
# Total GULP energy -167735.164883 kJ/mol
# GULP energy per Si atom -5591.172163 kJ/mol
# Density = 2.032625 g / cm^3
# Si number density = 20.372620 Si / 1000 Ang^3
#
#
#
# Elastic Constant Matrix: (Units=GPa)
#
#
# Indices 1 2 3 4 5 6 
#
# 1 108.9869 45.3144 43.3490 0.0002 -2.6033 0.0000
# 2 45.3144 108.9869 43.3490 -0.0002 2.6033 0.0000
# 3 43.3490 43.3490 106.2323 0.0000 0.0000 0.0000
# 4 0.0002 -0.0002 0.0000 18.2609 0.0000 2.6033
# 5 -2.6033 2.6033 0.0000 0.0000 18.2609 0.0002
# 6 0.0000 0.0000 0.0000 2.6033 0.0002 31.8363
#
#
#
# Elastic Compliance Matrix: (Units=1/GPa)
#
#
# Indices 1 2 3 4 5 6 
#
# 1 0.012150 -0.003741 -0.003431 0.000000 0.002265 0.000000
# 2 -0.003741 0.012150 -0.003431 0.000000 -0.002265 0.000000
# 3 -0.003431 -0.003431 0.012214 0.000000 0.000000 0.000000
# 4 0.000000 0.000000 0.000000 0.055408 0.000000 -0.004531
# 5 0.002265 -0.002265 0.000000 0.000000 0.055408 0.000000
# 6 0.000000 0.000000 0.000000 -0.004531 0.000000 0.031781
#
#
# Mechanical properties :
#
#
# Convention : Reuss Voigt Hill
#
# Bulk Modulus (GPa) = 65.33339 65.35899 65.34619
# Shear Modulus (GPa) = 24.34055 26.48453 25.41254
#
# Velocity S-wave (km/s) = 3.46029 3.60947 3.53567
# Velocity P-wave (km/s) = 6.93568 7.03722 6.98663
#
# Compressibility (1/GPa) = 0.01530611
#
# Stress axis : x y z
#
# Youngs Moduli (GPa) = 82.30661 82.30661 81.87548
#
# Poissons Ratio (x) = 0.30790 0.28094
# Poissons Ratio (y) = 0.30790 0.28094
# Poissons Ratio (z) = 0.28242 0.28242
#
# Static dielectric constant tensor:
#      x y z
#    x 1.725940 0.000000 0.000000 
#    y 0.000000 1.725940 0.000000 
#    z 0.000000 0.000000 1.766130 
# 
# From -- ./inp_files/565.got.cif
#   From: 2010.05.17/outbox.cif.g08.bks.cpg/sg153_1_cif.got.tgz:565.got - 2010.05.20 10:38:56.
