data_PCOD9576434
_publ_section_title
;
Structure prediction by ZEFSAII (Michael W. Deem and Ramdas Pophale) SiO2 
 PCOD9576434
Probable space group: P 32 2 1
;
_chemical_formula_sum "Si O2"
_cell_formula_units_Z 45
_cell_length_a 11.944829
_cell_length_b 11.944829
_cell_length_c 17.587339
_cell_angle_alpha 90.000000
_cell_angle_beta 90.000000
_cell_angle_gamma 120.000000
_cell_volume 2173.154684
_symmetry_space_group_name_H-M "P 32 2 1"
_symmetry_group_IT_number 154
_symmetry_cell_setting 'hexagonal'
loop_
_space_group_symop_operation_xyz
x,y,z
-y,x-y,2/3+z
-x+y,-x,1/3+z
x-y,-y,1/3-z
-x,-x+y,2/3-z
y,x,-z
loop_
_atom_site_type_symbol
_atom_site_label
_atom_site_fract_x
_atom_site_fract_y
_atom_site_fract_z
Si Si1 0.652868 0.820856 0.890397
Si Si2 0.555808 0.912284 0.026375
Si Si3 0.365168 0.929832 0.930896
Si Si4 0.675664 0.043439 0.583865
Si Si5 0.237353 0.578806 0.451217
Si Si6 0.150035 0.577570 0.164263
Si Si7 0.000000 0.129211 0.333334
Si Si8 0.173795 0.244385 0.580922
O O1 0.680776 0.884923 0.807174
O O2 0.527817 0.679525 0.887575
O O3 0.611997 0.902356 0.944891
O O4 0.770519 0.817227 0.930009
O O5 0.523961 0.783922 0.073200
O O6 0.677385 0.032250 0.066093
O O7 0.421171 0.907360 0.009077
O O8 0.354890 0.830437 0.865336
O O9 0.224080 0.913858 0.925633
O O10 0.483854 0.066204 0.904150
O O11 0.621393 0.144252 0.591127
O O12 0.694148 0.000000 0.666667
O O13 0.564482 0.920623 0.538409
O O14 0.373381 0.706035 0.468456
O O15 0.124840 0.124600 0.360935
O O16 0.187794 0.187794 0.500000
#
# Coordination Sequence:
#
# PCOD9576434 Si02
#       8
#     6   6   6   6   6   6   3   6
#     4  10  20  36  58  95 122 156 228 270 322 392
#     4  11  21  37  58  94 126 166 210 275 332 398
#     4  11  22  38  59  94 130 162 216 272 323 408
#     4  10  20  33  56  88 127 165 202 264 339 392
#     4  10  21  35  57  88 122 161 209 264 329 392
#     4  10  19  35  56  89 129 163 206 263 329 398
#     4  10  24  38  72  92 120 178 232 292 312 382
#     4  11  23  42  67  96 127 174 229 278 335 399
#
# _framework density 20.707224
#
# number of rings (size 3 to 8) (size 9 to 14) (size 15 to 20)
#    0.000    1.600    5.333    1.600    8.400    0.000 
#    0.000    0.000   13.200    0.800    0.000    0.000 
#    0.000    0.000    0.000    0.000    0.000    0.000 
#
# Total GULP energy -251026.955685 kJ/mol
# GULP energy per Si atom -5578.376793 kJ/mol
# Density = 2.066009 g / cm^3
# Si number density = 20.707224 Si / 1000 Ang^3
#
#
#
# Elastic Constant Matrix: (Units=GPa)
#
#
# Indices 1 2 3 4 5 6 
#
# 1 66.6295 16.4720 22.8657 -1.0375 -0.0001 0.0000
# 2 16.4720 66.6295 22.8657 1.0375 0.0001 0.0000
# 3 22.8657 22.8657 66.9656 0.0000 0.0000 0.0000
# 4 -1.0375 1.0375 0.0000 22.9926 0.0000 0.0001
# 5 -0.0001 0.0001 0.0000 0.0000 22.9926 -1.0375
# 6 0.0000 0.0000 0.0000 0.0001 -1.0375 25.0787
#
#
#
# Elastic Compliance Matrix: (Units=1/GPa)
#
#
# Indices 1 2 3 4 5 6 
#
# 1 0.017396 -0.002578 -0.005060 0.000901 0.000000 0.000000
# 2 -0.002578 0.017396 -0.005060 -0.000901 0.000000 0.000000
# 3 -0.005060 -0.005060 0.018388 0.000000 0.000000 0.000000
# 4 0.000901 -0.000901 0.000000 0.043574 0.000000 0.000000
# 5 0.000000 0.000000 0.000000 0.000000 0.043574 0.001803
# 6 0.000000 0.000000 0.000000 0.000000 0.001803 0.039949
#
#
# Mechanical properties :
#
#
# Convention : Reuss Voigt Hill
#
# Bulk Modulus (GPa) = 35.98999 36.07014 36.03006
# Shear Modulus (GPa) = 23.26298 23.41420 23.33859
#
# Velocity S-wave (km/s) = 3.35539 3.36628 3.36084
# Velocity P-wave (km/s) = 5.69470 5.70666 5.70069
#
# Compressibility (1/GPa) = 0.02778550
#
# Stress axis : x y z
#
# Youngs Moduli (GPa) = 57.48395 57.48395 54.38238
#
# Poissons Ratio (x) = 0.14821 0.27515
# Poissons Ratio (y) = 0.14821 0.27515
# Poissons Ratio (z) = 0.29085 0.29085
#
# Static dielectric constant tensor:
#      x y z
#    x 1.784880 0.000000 0.000000 
#    y 0.000000 1.784880 0.000000 
#    z 0.000000 0.000000 1.781630 
# 
# From -- ./inp_files/2514.got.cif
#   From: 2010.05.17/outbox.cif.g08.bks.cpg/sg154_2_cif.got.tgz:2514.got - 2010.05.20 10:41:43.
