data_PCOD9576120
_publ_section_title
;
Structure prediction by ZEFSAII (Michael W. Deem and Ramdas Pophale) SiO2 
 PCOD9576120
Probable space group: P 31 2 1
;
_chemical_formula_sum "Si O2"
_cell_formula_units_Z 33
_cell_length_a 14.689067
_cell_length_b 14.689067
_cell_length_c 8.863406
_cell_angle_alpha 90.000000
_cell_angle_beta 90.000000
_cell_angle_gamma 120.000000
_cell_volume 1656.226383
_symmetry_space_group_name_H-M "P 31 2 1"
_symmetry_group_IT_number 152
_symmetry_cell_setting 'hexagonal'
loop_
_space_group_symop_operation_xyz
x,y,z
-y,x-y,1/3+z
-x+y,-x,2/3+z
x-y,-y,2/3-z
-x,-x+y,1/3-z
y,x,-z
loop_
_atom_site_type_symbol
_atom_site_label
_atom_site_fract_x
_atom_site_fract_y
_atom_site_fract_z
Si Si1 0.235584 0.538827 0.680504
Si Si2 0.410354 0.041650 0.495266
Si Si3 0.000000 0.941703 0.666667
Si Si4 0.477792 0.905208 0.919991
Si Si5 0.511456 0.218965 0.986992
Si Si6 0.789522 0.719763 0.648494
O O1 0.165886 0.470035 0.541264
O O2 0.330694 0.514277 0.679899
O O3 0.263879 0.659805 0.669273
O O4 0.180205 0.506186 0.842399
O O5 0.475808 0.034280 0.632964
O O6 0.421871 0.000000 0.333334
O O7 0.290796 0.991683 0.548055
O O8 0.898356 0.825421 0.674716
O O9 0.989259 0.989259 0.500000
O O10 0.384118 0.836824 0.802119
O O11 0.576491 0.000000 0.833334
O O12 0.388737 0.180845 0.956556
O O13 0.737281 0.737281 0.500000
#
# Coordination Sequence:
#
# PCOD9576120 Si02
#       6
#     6   6   3   6   6   6
#     4  12  25  37  63  99 130 178 224 267 339 408
#     4  12  22  40  67  93 131 177 220 265 341 404
#     4  10  26  48  74 100 128 174 224 288 350 408
#     4  12  22  41  62  92 136 180 220 271 332 397
#     4  12  21  40  63  91 138 170 216 276 330 408
#     4  11  23  45  70  95 129 173 225 272 343 404
#
# _framework density 19.924814000000001
#
# number of rings (size 3 to 8) (size 9 to 14) (size 15 to 20)
#    0.000    0.364    9.091    0.000    1.273    0.000 
#    1.636    4.545    0.000    0.000    0.000    0.000 
#    0.000    0.000    0.000    0.000    0.000    0.000 
#
# Total GULP energy -183738.836629 kJ/mol
# GULP energy per Si atom -5567.843534 kJ/mol
# Density = 1.987946 g / cm^3
# Si number density = 19.924814 Si / 1000 Ang^3
#
#
#
# Elastic Constant Matrix: (Units=GPa)
#
#
# Indices 1 2 3 4 5 6 
#
# 1 80.9057 32.3464 10.6435 2.7976 -0.0001 0.0000
# 2 32.3464 80.9057 10.6435 -2.7976 0.0001 0.0000
# 3 10.6435 10.6435 90.7415 0.0000 0.0000 0.0000
# 4 2.7976 -2.7976 0.0000 37.8899 0.0000 0.0001
# 5 -0.0001 0.0001 0.0000 0.0000 37.8899 2.7976
# 6 0.0000 0.0000 0.0000 0.0001 2.7976 24.2796
#
#
#
# Elastic Compliance Matrix: (Units=1/GPa)
#
#
# Indices 1 2 3 4 5 6 
#
# 1 0.014899 -0.005871 -0.001059 -0.001534 0.000000 0.000000
# 2 -0.005871 0.014899 -0.001059 0.001534 0.000000 0.000000
# 3 -0.001059 -0.001059 0.011269 0.000000 0.000000 0.000000
# 4 -0.001534 0.001534 0.000000 0.026619 0.000000 0.000000
# 5 0.000000 0.000000 0.000000 0.000000 0.026619 -0.003067
# 6 0.000000 0.000000 0.000000 0.000000 -0.003067 0.041540
#
#
# Mechanical properties :
#
#
# Convention : Reuss Voigt Hill
#
# Bulk Modulus (GPa) = 39.85587 39.97998 39.91792
# Shear Modulus (GPa) = 31.21368 33.27318 32.24343
#
# Velocity S-wave (km/s) = 3.96229 4.09092 4.02712
# Velocity P-wave (km/s) = 6.40153 6.51331 6.45766
#
# Compressibility (1/GPa) = 0.02509041
#
# Stress axis : x y z
#
# Youngs Moduli (GPa) = 67.11635 67.11635 88.74095
#
# Poissons Ratio (x) = 0.39401 0.09398
# Poissons Ratio (y) = 0.39401 0.09398
# Poissons Ratio (z) = 0.07108 0.07108
#
# Static dielectric constant tensor:
#      x y z
#    x 1.776740 0.000000 0.000000 
#    y 0.000000 1.776740 0.000000 
#    z 0.000000 0.000000 1.768850 
# 
# From -- ./inp_files/1142.got.cif
#   From: 2010.05.17/outbox.cif.g08.bks.cpg/sg152_1_cif.got.tgz:1142.got - 2010.05.20 10:36:06.
