data_PCOD9576475
_publ_section_title
;
Structure prediction by ZEFSAII (Michael W. Deem and Ramdas Pophale) SiO2 
 PCOD9576475
Probable space group: P 32 2 1
;
_chemical_formula_sum "Si O2"
_cell_formula_units_Z 42
_cell_length_a 14.108592
_cell_length_b 14.108592
_cell_length_c 12.991968
_cell_angle_alpha 90.000000
_cell_angle_beta 90.000000
_cell_angle_gamma 120.000000
_cell_volume 2239.612707
_symmetry_space_group_name_H-M "P 32 2 1"
_symmetry_group_IT_number 154
_symmetry_cell_setting 'hexagonal'
loop_
_space_group_symop_operation_xyz
x,y,z
-y,x-y,2/3+z
-x+y,-x,1/3+z
x-y,-y,1/3-z
-x,-x+y,2/3-z
y,x,-z
loop_
_atom_site_type_symbol
_atom_site_label
_atom_site_fract_x
_atom_site_fract_y
_atom_site_fract_z
Si Si1 0.886481 0.144253 0.300770
Si Si2 0.258089 0.764654 0.792358
Si Si3 0.955934 0.508106 0.218322
Si Si4 0.000000 0.859175 0.333334
Si Si5 0.673878 0.348233 0.698130
Si Si6 0.360416 0.833918 0.468098
Si Si7 0.866246 0.670383 0.184110
Si Si8 0.037667 0.037667 0.500000
O O1 0.808494 0.176499 0.237435
O O2 0.830880 0.093023 0.410786
O O3 0.926020 0.073135 0.235160
O O4 0.000000 0.251781 0.333334
O O5 0.247557 0.669097 0.715356
O O6 0.263856 0.726411 0.907577
O O7 0.381390 0.864521 0.777335
O O8 0.055114 0.529030 0.144298
O O9 0.000000 0.541124 0.333334
O O10 0.905165 0.581703 0.184715
O O11 0.906581 0.742314 0.288026
O O12 0.000609 0.933284 0.239043
O O13 0.607700 0.251011 0.779513
O O14 0.765769 0.336660 0.636557
O O15 0.264547 0.861345 0.487163
#
# Coordination Sequence:
#
# PCOD9576475 Si02
#       8
#     6   6   6   3   6   6   6   3
#     4  12  23  41  66  91 119 170 225 269 325 390
#     4  11  20  37  62  92 127 169 212 264 321 399
#     4  12  20  34  61  95 125 161 215 262 316 390
#     4  12  24  44  66  90 130 160 222 278 338 374
#     4  10  20  36  58  89 134 165 200 260 333 376
#     4  11  21  38  61  93 131 167 209 262 324 386
#     4  12  22  38  67  98 122 168 218 267 320 405
#     4  12  26  46  66  88 128 172 220 288 332 380
#
# _framework density 18.753242
#
# number of rings (size 3 to 8) (size 9 to 14) (size 15 to 20)
#    0.000    0.571    8.571    1.286    0.000    1.143 
#    0.000    0.000    0.000    2.571    0.000    0.000 
#    0.000    0.000    0.000    0.000    0.000    0.000 
#
# Total GULP energy -234113.514666 kJ/mol
# GULP energy per Si atom -5574.131302 kJ/mol
# Density = 1.871056 g / cm^3
# Si number density = 18.753242 Si / 1000 Ang^3
#
#
#
# Elastic Constant Matrix: (Units=GPa)
#
#
# Indices 1 2 3 4 5 6 
#
# 1 71.8294 23.1126 31.5753 -6.8718 0.0002 0.0000
# 2 23.1126 71.8294 31.5753 6.8718 -0.0002 0.0000
# 3 31.5753 31.5753 82.5571 0.0000 0.0000 0.0000
# 4 -6.8718 6.8718 0.0000 37.6093 0.0000 -0.0002
# 5 0.0002 -0.0002 0.0000 0.0000 37.6093 -6.8718
# 6 0.0000 0.0000 0.0000 -0.0002 -6.8718 24.3584
#
#
#
# Elastic Compliance Matrix: (Units=1/GPa)
#
#
# Indices 1 2 3 4 5 6 
#
# 1 0.017884 -0.003758 -0.005403 0.003954 0.000000 0.000000
# 2 -0.003758 0.017884 -0.005403 -0.003954 0.000000 0.000000
# 3 -0.005403 -0.005403 0.016246 0.000000 0.000000 0.000000
# 4 0.003954 -0.003954 0.000000 0.028034 0.000000 0.000000
# 5 0.000000 0.000000 0.000000 0.000000 0.028034 0.007909
# 6 0.000000 0.000000 0.000000 0.000000 0.007909 0.043285
#
#
# Mechanical properties :
#
#
# Convention : Reuss Voigt Hill
#
# Bulk Modulus (GPa) = 43.69284 44.30469 43.99876
# Shear Modulus (GPa) = 26.57819 29.24559 27.91189
#
# Velocity S-wave (km/s) = 3.76873 3.95333 3.86213
# Velocity P-wave (km/s) = 6.50286 6.67194 6.58794
#
# Compressibility (1/GPa) = 0.02288705
#
# Stress axis : x y z
#
# Youngs Moduli (GPa) = 55.91460 55.91460 61.55485
#
# Poissons Ratio (x) = 0.21012 0.33257
# Poissons Ratio (y) = 0.21012 0.33257
# Poissons Ratio (z) = 0.30210 0.30210
#
# Static dielectric constant tensor:
#      x y z
#    x 1.657240 0.000000 0.000000 
#    y 0.000000 1.657240 0.000000 
#    z 0.000000 0.000000 1.700260 
# 
# From -- ./inp_files/1773.got.cif
#   From: 2010.05.17/outbox.cif.g08.bks.cpg/sg154_1_cif.got.tgz:1773.got - 2010.05.20 10:41:43.
