data_PCOD9576106
_publ_section_title
;
Structure prediction by ZEFSAII (Michael W. Deem and Ramdas Pophale) SiO2 
 PCOD9576106
Probable space group: P 31 2 1
;
_chemical_formula_sum "Si O2"
_cell_formula_units_Z 30
_cell_length_a 8.733094
_cell_length_b 8.733094
_cell_length_c 18.991232
_cell_angle_alpha 90.000000
_cell_angle_beta 90.000000
_cell_angle_gamma 120.000000
_cell_volume 1254.353773
_symmetry_space_group_name_H-M "P 31 2 1"
_symmetry_group_IT_number 152
_symmetry_cell_setting 'hexagonal'
loop_
_space_group_symop_operation_xyz
x,y,z
-y,x-y,1/3+z
-x+y,-x,2/3+z
x-y,-y,2/3-z
-x,-x+y,1/3-z
y,x,-z
loop_
_atom_site_type_symbol
_atom_site_label
_atom_site_fract_x
_atom_site_fract_y
_atom_site_fract_z
Si Si1 0.330531 0.029331 0.676545
Si Si2 0.462048 0.667948 0.842678
Si Si3 0.415247 0.000000 0.833334
Si Si4 0.934788 0.934788 0.000000
Si Si5 0.348650 0.640125 0.000820
Si Si6 0.371968 0.125187 0.219787
O O1 0.516940 0.189290 0.650125
O O2 0.166494 0.043172 0.648125
O O3 0.339608 0.040335 0.762788
O O4 0.310748 0.841262 0.659634
O O5 0.438553 0.830431 0.816458
O O6 0.448510 0.682830 0.926874
O O7 0.648825 0.680901 0.831807
O O8 0.311877 0.472222 0.819693
O O9 0.793310 0.866227 0.063393
O O10 0.468303 0.623750 0.060770
#
# Coordination Sequence:
#
# PCOD9576106 Si02
#       6
#     6   6   3   3   6   6
#     4  11  26  45  75 106 145 196 241 306 368 446
#     4  11  26  44  75 102 142 191 242 304 367 439
#     4  10  24  48  72 102 138 192 252 292 368 442
#     4  12  28  46  72 110 148 188 250 304 370 438
#     4  11  24  47  74  99 147 193 241 299 375 435
#     4  12  26  48  71 107 150 189 248 307 373 443
#
# _framework density 23.916696999999999
#
# number of rings (size 3 to 8) (size 9 to 14) (size 15 to 20)
#    0.000    0.800    4.000    1.200   14.000    0.000 
#    0.000    0.000    0.000    0.000    0.000    0.000 
#    0.000    0.000    0.000    0.000    0.000    0.000 
#
# Total GULP energy -167930.327027 kJ/mol
# GULP energy per Si atom -5597.677568 kJ/mol
# Density = 2.386226 g / cm^3
# Si number density = 23.916697 Si / 1000 Ang^3
#
#
#
# Elastic Constant Matrix: (Units=GPa)
#
#
# Indices 1 2 3 4 5 6 
#
# 1 127.8811 60.2532 3.8509 -12.4252 0.0000 0.0000
# 2 60.2532 127.8811 3.8509 12.4252 0.0000 0.0000
# 3 3.8509 3.8509 56.5242 0.0000 0.0000 0.0000
# 4 -12.4252 12.4252 0.0000 23.5660 0.0000 0.0000
# 5 0.0000 0.0000 0.0000 0.0000 23.5660 -12.4252
# 6 0.0000 0.0000 0.0000 0.0000 -12.4252 33.8140
#
#
#
# Elastic Compliance Matrix: (Units=1/GPa)
#
#
# Indices 1 2 3 4 5 6 
#
# 1 0.011835 -0.006505 -0.000363 0.009670 0.000000 0.000000
# 2 -0.006505 0.011835 -0.000363 -0.009670 0.000000 0.000000
# 3 -0.000363 -0.000363 0.017741 0.000000 0.000000 0.000000
# 4 0.009670 -0.009670 0.000000 0.052631 0.000000 0.000000
# 5 0.000000 0.000000 0.000000 0.000000 0.052631 0.019340
# 6 0.000000 0.000000 0.000000 0.000000 0.019340 0.036680
#
#
# Mechanical properties :
#
#
# Convention : Reuss Voigt Hill
#
# Bulk Modulus (GPa) = 37.10727 49.79961 43.45344
# Shear Modulus (GPa) = 24.17811 32.47796 28.32803
#
# Velocity S-wave (km/s) = 3.18296 3.68905 3.44531
# Velocity P-wave (km/s) = 5.39048 6.24602 5.83395
#
# Compressibility (1/GPa) = 0.02694889
#
# Stress axis : x y z
#
# Youngs Moduli (GPa) = 84.49416 84.49416 56.36654
#
# Poissons Ratio (x) = 0.54963 0.02047
# Poissons Ratio (y) = 0.54963 0.02047
# Poissons Ratio (z) = 0.03068 0.03068
#
# Static dielectric constant tensor:
#      x y z
#    x 1.889770 0.000000 0.000000 
#    y 0.000000 1.889770 0.000000 
#    z 0.000000 0.000000 1.985160 
# 
# From -- ./inp_files/3050.got.cif
#   From: 2010.05.17/outbox.cif.g08.bks.cpg/sg152_2_cif.got.tgz:3050.got - 2010.05.20 10:36:06.
