data_PCOD9576089
_publ_section_title
;
Structure prediction by ZEFSAII (Michael W. Deem and Ramdas Pophale) SiO2 
 PCOD9576089
Probable space group: P 31 2 1
;
_chemical_formula_sum "Si O2"
_cell_formula_units_Z 18
_cell_length_a 10.187174
_cell_length_b 10.187174
_cell_length_c 7.320041
_cell_angle_alpha 90.000000
_cell_angle_beta 90.000000
_cell_angle_gamma 120.000000
_cell_volume 657.887437
_symmetry_space_group_name_H-M "P 31 2 1"
_symmetry_group_IT_number 152
_symmetry_cell_setting 'hexagonal'
loop_
_space_group_symop_operation_xyz
x,y,z
-y,x-y,1/3+z
-x+y,-x,2/3+z
x-y,-y,2/3-z
-x,-x+y,1/3-z
y,x,-z
loop_
_atom_site_type_symbol
_atom_site_label
_atom_site_fract_x
_atom_site_fract_y
_atom_site_fract_z
Si Si1 0.148734 0.243596 0.743699
Si Si2 0.834840 0.210361 0.202791
Si Si3 0.749770 0.322176 0.727816
O O1 0.294062 0.222715 0.728302
O O2 0.171927 0.397458 0.649849
O O3 0.000000 0.103959 0.666667
O O4 0.120551 0.269003 0.951787
O O5 0.681476 0.203709 0.283423
O O6 0.000000 0.360168 0.166667
O O7 0.766751 0.357948 0.944235
#
# Coordination Sequence:
#
# PCOD9576089 Si02
#       3
#     6   6   6
#     4  10  24  41  69  91 138 179 219 281 360 396
#     4  10  24  43  65 103 132 172 240 283 333 433
#     4  10  24  43  69  98 136 176 228 283 347 421
#
# _framework density 27.360305
#
# number of rings (size 3 to 8) (size 9 to 14) (size 15 to 20)
#    0.000    2.000    0.000    0.000   18.667    2.667 
#    0.000    0.000    0.000    0.000    0.000    0.000 
#    0.000    0.000    0.000    0.000    0.000    0.000 
#
# Total GULP energy -100313.858359 kJ/mol
# GULP energy per Si atom -5572.992131 kJ/mol
# Density = 2.729803 g / cm^3
# Si number density = 27.360305 Si / 1000 Ang^3
#
#
#
# Elastic Constant Matrix: (Units=GPa)
#
#
# Indices 1 2 3 4 5 6 
#
# 1 124.4824 54.9655 -14.3204 -1.8246 -0.0001 0.0000
# 2 54.9655 124.4824 -14.3204 1.8246 0.0001 0.0000
# 3 -14.3204 -14.3204 67.0096 0.0000 0.0000 0.0000
# 4 -1.8246 1.8246 0.0000 24.9677 0.0000 0.0001
# 5 -0.0001 0.0001 0.0000 0.0000 24.9677 -1.8246
# 6 0.0000 0.0000 0.0000 0.0001 -1.8246 34.7584
#
#
#
# Elastic Compliance Matrix: (Units=1/GPa)
#
#
# Indices 1 2 3 4 5 6 
#
# 1 0.010105 -0.004335 0.001233 0.001055 0.000000 0.000000
# 2 -0.004335 0.010105 0.001233 -0.001055 0.000000 0.000000
# 3 0.001233 0.001233 0.015450 0.000000 0.000000 0.000000
# 4 0.001055 -0.001055 0.000000 0.040206 0.000000 0.000000
# 5 0.000000 0.000000 0.000000 0.000000 0.040206 0.002111
# 6 0.000000 0.000000 0.000000 0.000000 0.002111 0.028881
#
#
# Mechanical properties :
#
#
# Convention : Reuss Voigt Hill
#
# Bulk Modulus (GPa) = 31.32739 40.95820 36.14280
# Shear Modulus (GPa) = 31.38099 36.24875 33.81487
#
# Velocity S-wave (km/s) = 3.39034 3.64382 3.51936
# Velocity P-wave (km/s) = 5.17694 5.71889 5.45465
#
# Compressibility (1/GPa) = 0.03192095
#
# Stress axis : x y z
#
# Youngs Moduli (GPa) = 98.96172 98.96172 64.72402
#
# Poissons Ratio (x) = 0.42905 -0.07980
# Poissons Ratio (y) = 0.42905 -0.07980
# Poissons Ratio (z) = -0.12202 -0.12202
#
# Static dielectric constant tensor:
#      x y z
#    x 2.286630 0.000000 0.000000 
#    y 0.000000 2.286630 0.000000 
#    z 0.000000 0.000000 2.076800 
# 
# From -- ./inp_files/772.got.cif
#   From: 2010.05.17/outbox.cif.g08.bks.cpg/sg152_1_cif.got.tgz:772.got - 2010.05.20 10:36:06.
