data_PCOD9576076
_publ_section_title
;
Structure prediction by ZEFSAII (Michael W. Deem and Ramdas Pophale) SiO2 
 PCOD9576076
Probable space group: P 31 2 1
;
_chemical_formula_sum "Si O2"
_cell_formula_units_Z 42
_cell_length_a 9.308693
_cell_length_b 9.308693
_cell_length_c 29.144344
_cell_angle_alpha 90.000000
_cell_angle_beta 90.000000
_cell_angle_gamma 120.000000
_cell_volume 2187.068226
_symmetry_space_group_name_H-M "P 31 2 1"
_symmetry_group_IT_number 152
_symmetry_cell_setting 'hexagonal'
loop_
_space_group_symop_operation_xyz
x,y,z
-y,x-y,1/3+z
-x+y,-x,2/3+z
x-y,-y,2/3-z
-x,-x+y,1/3-z
y,x,-z
loop_
_atom_site_type_symbol
_atom_site_label
_atom_site_fract_x
_atom_site_fract_y
_atom_site_fract_z
Si Si1 0.853530 0.874763 0.261730
Si Si2 0.877011 0.789275 0.362879
Si Si3 0.332923 0.845605 0.544969
Si Si4 0.373467 0.319971 0.552711
Si Si5 0.212318 0.649050 0.449952
Si Si6 0.212198 0.582792 0.276316
Si Si7 0.235806 0.822672 0.355076
O O1 0.807809 0.811840 0.314265
O O2 0.692909 0.804836 0.229962
O O3 0.951797 0.787705 0.241439
O O4 0.967205 0.071403 0.267756
O O5 0.761679 0.605966 0.380170
O O6 0.059708 0.817171 0.353498
O O7 0.282884 0.759138 0.495523
O O8 0.339391 0.718999 0.580700
O O9 0.512621 0.015425 0.545330
O O10 0.338374 0.338374 0.500000
O O11 0.529635 0.290623 0.556630
O O12 0.408997 0.481844 0.579901
O O13 0.252644 0.772175 0.406849
O O14 0.232007 0.681753 0.322808
O O15 0.368693 0.000000 0.333334
#
# Coordination Sequence:
#
# PCOD9576076 Si02
#       7
#     6   6   6   6   6   6   6
#     4  10  23  43  68  95 131 175 227 281 335 414
#     4  11  22  43  68  98 131 172 231 282 343 404
#     4  11  25  45  67 100 142 176 228 284 345 404
#     4  11  22  43  70  98 133 182 223 274 344 420
#     4  11  26  43  68 103 139 179 227 287 341 412
#     4  12  24  43  70  99 134 181 223 282 349 396
#     4  12  25  44  72  98 136 182 234 281 342 418
#
# _framework density 19.203790000000001
#
# number of rings (size 3 to 8) (size 9 to 14) (size 15 to 20)
#    0.000    0.857    5.714    1.714    2.000    3.429 
#    2.571    0.000    0.000    0.000    0.000    0.000 
#    0.000    0.000    0.000    0.000    0.000    0.000 
#
# Total GULP energy -234749.711245 kJ/mol
# GULP energy per Si atom -5589.278839 kJ/mol
# Density = 1.916008 g / cm^3
# Si number density = 19.203790 Si / 1000 Ang^3
#
#
#
# Elastic Constant Matrix: (Units=GPa)
#
#
# Indices 1 2 3 4 5 6 
#
# 1 97.8690 34.3856 33.7451 -16.7967 0.0001 0.0000
# 2 34.3856 97.8690 33.7451 16.7967 -0.0001 0.0000
# 3 33.7451 33.7451 92.4468 0.0000 0.0000 0.0000
# 4 -16.7967 16.7967 0.0000 47.0572 0.0000 -0.0001
# 5 0.0001 -0.0001 0.0000 0.0000 47.0572 -16.7967
# 6 0.0000 0.0000 0.0000 -0.0001 -16.7967 31.7417
#
#
#
# Elastic Compliance Matrix: (Units=1/GPa)
#
#
# Indices 1 2 3 4 5 6 
#
# 1 0.014356 -0.005064 -0.003392 0.006932 0.000000 0.000000
# 2 -0.005064 0.014356 -0.003392 -0.006932 0.000000 0.000000
# 3 -0.003392 -0.003392 0.013293 0.000000 0.000000 0.000000
# 4 0.006932 -0.006932 0.000000 0.026199 0.000000 0.000000
# 5 0.000000 0.000000 0.000000 0.000000 0.026199 0.013864
# 6 0.000000 0.000000 0.000000 0.000000 0.013864 0.038841
#
#
# Mechanical properties :
#
#
# Convention : Reuss Voigt Hill
#
# Bulk Modulus (GPa) = 54.61473 54.65957 54.63715
# Shear Modulus (GPa) = 30.66661 37.59181 34.12921
#
# Velocity S-wave (km/s) = 4.00046 4.42919 4.22027
# Velocity P-wave (km/s) = 7.05971 7.39470 7.22915
#
# Compressibility (1/GPa) = 0.01831008
#
# Stress axis : x y z
#
# Youngs Moduli (GPa) = 69.65642 69.65642 75.22650
#
# Poissons Ratio (x) = 0.35275 0.25515
# Poissons Ratio (y) = 0.35275 0.25515
# Poissons Ratio (z) = 0.23626 0.23626
#
# Static dielectric constant tensor:
#      x y z
#    x 1.650040 0.000000 0.000000 
#    y 0.000000 1.650040 0.000000 
#    z 0.000000 0.000000 1.682660 
# 
# From -- ./inp_files/3703.got.cif
#   From: 2010.05.17/outbox.cif.g08.bks.cpg/sg152_2_cif.got.tgz:3703.got - 2010.05.20 10:36:06.
