data_PCOD9576213
_publ_section_title
;
Structure prediction by ZEFSAII (Michael W. Deem and Ramdas Pophale) SiO2 
 PCOD9576213
Probable space group: P 31 2 1
;
_chemical_formula_sum "Si O2"
_cell_formula_units_Z 24
_cell_length_a 13.925914
_cell_length_b 13.925914
_cell_length_c 6.952959
_cell_angle_alpha 90.000000
_cell_angle_beta 90.000000
_cell_angle_gamma 120.000000
_cell_volume 1167.744197
_symmetry_space_group_name_H-M "P 31 2 1"
_symmetry_group_IT_number 152
_symmetry_cell_setting 'hexagonal'
loop_
_space_group_symop_operation_xyz
x,y,z
-y,x-y,1/3+z
-x+y,-x,2/3+z
x-y,-y,2/3-z
-x,-x+y,1/3-z
y,x,-z
loop_
_atom_site_type_symbol
_atom_site_label
_atom_site_fract_x
_atom_site_fract_y
_atom_site_fract_z
Si Si1 0.646314 0.092915 0.076032
Si Si2 0.448025 0.147611 0.633921
Si Si3 0.327947 0.905608 0.595392
Si Si4 0.675302 0.151275 0.531171
O O1 0.739504 0.184904 0.939816
O O2 0.531414 0.086664 0.033195
O O3 0.661314 0.129498 0.299947
O O4 0.620813 0.967528 0.059152
O O5 0.574288 0.170720 0.600575
O O6 0.363683 0.030568 0.535204
O O7 0.402987 0.121675 0.855118
O O8 0.253455 0.801252 0.457996
#
# Coordination Sequence:
#
# PCOD9576213 Si02
#       4
#     6   6   6   6
#     4   9  18  30  45  69  98 134 166 201 246 298
#     4   9  18  30  46  68  99 132 166 201 248 295
#     4   9  18  30  45  69  98 134 166 201 246 298
#     4   9  18  30  46  68  99 132 166 201 248 295
#
# _framework density 20.552447000000001
#
# number of rings (size 3 to 8) (size 9 to 14) (size 15 to 20)
#    0.000    3.000    0.000    0.000    7.000    0.000 
#    0.000    0.000    0.000    0.000    0.000    0.000 
#    0.000  200.000    0.000    0.000    0.000    0.000 
#
# Total GULP energy -133638.740308 kJ/mol
# GULP energy per Si atom -5568.280846 kJ/mol
# Density = 2.050567 g / cm^3
# Si number density = 20.552447 Si / 1000 Ang^3
#
#
#
# Elastic Constant Matrix: (Units=GPa)
#
#
# Indices 1 2 3 4 5 6 
#
# 1 117.0466 52.7300 17.2219 0.5635 0.0000 0.0000
# 2 52.7300 117.0466 17.2219 -0.5635 0.0000 0.0000
# 3 17.2219 17.2219 71.5867 0.0000 0.0000 0.0000
# 4 0.5635 -0.5635 0.0000 35.6963 0.0000 0.0000
# 5 0.0000 0.0000 0.0000 0.0000 35.6963 0.5635
# 6 0.0000 0.0000 0.0000 0.0000 0.5635 32.1583
#
#
#
# Elastic Compliance Matrix: (Units=1/GPa)
#
#
# Indices 1 2 3 4 5 6 
#
# 1 0.010872 -0.004680 -0.001490 -0.000246 0.000000 0.000000
# 2 -0.004680 0.010872 -0.001490 0.000246 0.000000 0.000000
# 3 -0.001490 -0.001490 0.014686 0.000000 0.000000 0.000000
# 4 -0.000246 0.000246 0.000000 0.028022 0.000000 0.000000
# 5 0.000000 0.000000 0.000000 0.000000 0.028022 -0.000491
# 6 0.000000 0.000000 0.000000 0.000000 -0.000491 0.031105
#
#
# Mechanical properties :
#
#
# Convention : Reuss Voigt Hill
#
# Bulk Modulus (GPa) = 47.36724 53.33639 50.35182
# Shear Modulus (GPa) = 34.26179 35.27726 34.76952
#
# Velocity S-wave (km/s) = 4.08737 4.14750 4.11755
# Velocity P-wave (km/s) = 6.73591 6.99596 6.86716
#
# Compressibility (1/GPa) = 0.02111164
#
# Stress axis : x y z
#
# Youngs Moduli (GPa) = 91.97631 91.97631 68.09281
#
# Poissons Ratio (x) = 0.43045 0.10144
# Poissons Ratio (y) = 0.43045 0.10144
# Poissons Ratio (z) = 0.13702 0.13702
#
# Static dielectric constant tensor:
#      x y z
#    x 1.764200 0.000000 0.000000 
#    y 0.000000 1.764200 0.000000 
#    z 0.000000 0.000000 1.988360 
# 
# From -- ./inp_files/954.got.cif
#   From: 2010.05.17/outbox.cif.g08.bks.cpg/sg152_1_cif.got.tgz:954.got - 2010.05.20 10:36:06.
