data_PCOD9576229
_publ_section_title
;
Structure prediction by ZEFSAII (Michael W. Deem and Ramdas Pophale) SiO2 
 PCOD9576229
Probable space group: P 32 1 2
;
_chemical_formula_sum "Si O2"
_cell_formula_units_Z 42
_cell_length_a 21.543138
_cell_length_b 21.543138
_cell_length_c 5.533189
_cell_angle_alpha 90.000000
_cell_angle_beta 90.000000
_cell_angle_gamma 120.000000
_cell_volume 2223.945107
_symmetry_space_group_name_H-M "P 32 1 2"
_symmetry_group_IT_number 153
_symmetry_cell_setting 'hexagonal'
loop_
_space_group_symop_operation_xyz
x,y,z
-y,x-y,2/3+z
-x+y,-x,1/3+z
-y,-x,1/3-z
-x+y,y,2/3-z
x,x-y,-z
loop_
_atom_site_type_symbol
_atom_site_label
_atom_site_fract_x
_atom_site_fract_y
_atom_site_fract_z
Si Si1 0.583034 0.021701 0.208306
Si Si2 0.959273 0.576340 0.377464
Si Si3 0.131070 0.432629 0.592270
Si Si4 0.921156 0.695744 0.367611
Si Si5 0.147660 0.640586 0.908642
Si Si6 0.158388 0.298361 0.578745
Si Si7 0.283942 0.007560 0.458719
O O1 0.580559 0.049334 0.472144
O O2 0.525411 0.937692 0.205050
O O3 0.661505 0.027404 0.215419
O O4 0.588584 0.056534 0.953200
O O5 0.914794 0.617660 0.366934
O O6 0.044467 0.640729 0.396494
O O7 0.164718 0.484891 0.355853
O O8 0.145243 0.365854 0.575951
O O9 0.158621 0.470051 0.853466
O O10 0.845987 0.691974 0.333334
O O11 0.961185 0.728425 0.624531
O O12 0.965357 0.732883 0.123377
O O13 0.177840 0.588920 0.000000
O O14 0.127235 0.254469 0.333334
O O15 0.240345 0.318559 0.557580
O O16 0.130318 0.260636 0.833334
#
# Coordination Sequence:
#
# PCOD9576229 Si02
#       7
#     6   6   6   6   6   6   6
#     4   8  14  25  38  54  78 106 137 170 212 260
#     4   8  14  25  38  54  78 106 137 170 212 260
#     4  10  19  30  43  64  89 119 150 183 234 286
#     4  10  18  29  43  60  85 119 150 178 218 272
#     4  10  18  29  43  60  85 119 150 178 218 272
#     4  12  20  30  48  68  92 126 156 190 240 306
#     4  10  19  30  43  64  89 119 150 183 234 286
#
# _framework density 18.885358
#
# number of rings (size 3 to 8) (size 9 to 14) (size 15 to 20)
#    0.000    2.286    0.000    7.714    0.000    0.000 
#    0.000    0.000    0.000    0.000    0.000    0.000 
#    0.000    0.000    0.000  411.429    0.000    0.000 
#
# Total GULP energy -233824.335014 kJ/mol
# GULP energy per Si atom -5567.246072 kJ/mol
# Density = 1.884237 g / cm^3
# Si number density = 18.885358 Si / 1000 Ang^3
#
#
#
# Elastic Constant Matrix: (Units=GPa)
#
#
# Indices 1 2 3 4 5 6 
#
# 1 49.8349 27.4969 30.3881 0.0001 0.7682 0.0000
# 2 27.4969 49.8349 30.3881 -0.0001 -0.7682 0.0000
# 3 30.3881 30.3881 209.0060 0.0000 0.0000 0.0000
# 4 0.0001 -0.0001 0.0000 18.7805 0.0000 -0.7682
# 5 0.7682 -0.7682 0.0000 0.0000 18.7805 0.0001
# 6 0.0000 0.0000 0.0000 -0.7682 0.0001 11.1690
#
#
#
# Elastic Compliance Matrix: (Units=1/GPa)
#
#
# Indices 1 2 3 4 5 6 
#
# 1 0.029746 -0.015147 -0.002123 0.000000 -0.001836 0.000000
# 2 -0.015147 0.029746 -0.002123 0.000000 0.001836 0.000000
# 3 -0.002123 -0.002123 0.005402 0.000000 0.000000 0.000000
# 4 0.000000 0.000000 0.000000 0.053397 0.000000 0.003673
# 5 -0.001836 0.001836 0.000000 0.000000 0.053397 0.000000
# 6 0.000000 0.000000 0.000000 0.003673 0.000000 0.089786
#
#
# Mechanical properties :
#
#
# Convention : Reuss Voigt Hill
#
# Bulk Modulus (GPa) = 38.29928 53.91358 46.10643
# Shear Modulus (GPa) = 16.18323 24.43952 20.31137
#
# Velocity S-wave (km/s) = 2.93049 3.60126 3.28305
# Velocity P-wave (km/s) = 5.63687 6.77509 6.23202
#
# Compressibility (1/GPa) = 0.02611015
#
# Stress axis : x y z
#
# Youngs Moduli (GPa) = 33.61761 33.61761 185.12347
#
# Poissons Ratio (x) = 0.50920 0.39296
# Poissons Ratio (y) = 0.50920 0.39296
# Poissons Ratio (z) = 0.07136 0.07136
#
# Static dielectric constant tensor:
#      x y z
#    x 1.676560 0.000000 0.000000 
#    y 0.000000 1.676560 0.000000 
#    z 0.000000 0.000000 1.847230 
# 
# From -- ./inp_files/803.got.cif
#   From: 2010.05.17/outbox.cif.g08.bks.cpg/sg153_1_cif.got.tgz:803.got - 2010.05.20 10:38:56.
