data_PCOD9576937
_publ_section_title
;
Structure prediction by ZEFSAII (Michael W. Deem and Ramdas Pophale) SiO2 
 PCOD9576937
Probable space group: R 3 2
;
_chemical_formula_sum "Si O2"
_cell_formula_units_Z 93
_cell_length_a 14.973430
_cell_length_b 14.973430
_cell_length_c 24.424408
_cell_angle_alpha 90.000000
_cell_angle_beta 90.000000
_cell_angle_gamma 120.000000
_cell_volume 4742.390053
_symmetry_space_group_name_H-M "R 3 2"
_symmetry_group_IT_number 155
_symmetry_cell_setting 'hexagonal'
loop_
_space_group_symop_operation_xyz
x,y,z
-y,x-y,z
-x+y,-x,z
x-y,-y,-z
-x,-x+y,-z
y,x,-z
2/3+x,1/3+y,1/3+z
2/3-y,1/3+x-y,1/3+z
2/3-x+y,1/3-x,1/3+z
2/3+x-y,1/3-y,1/3-z
2/3-x,1/3-x+y,1/3-z
2/3+y,1/3+x,1/3-z
1/3+x,2/3+y,2/3+z
1/3-y,2/3+x-y,2/3+z
1/3-x+y,2/3-x,2/3+z
1/3+x-y,2/3-y,2/3-z
1/3-x,2/3-x+y,2/3-z
1/3+y,2/3+x,2/3-z
loop_
_atom_site_type_symbol
_atom_site_label
_atom_site_fract_x
_atom_site_fract_y
_atom_site_fract_z
Si Si1 0.000000 0.000000 0.215924
Si Si2 0.750894 0.540504 0.285490
Si Si3 0.293084 0.976043 0.106498
Si Si4 0.027824 0.190773 0.283791
Si Si5 0.943740 0.491600 0.694088
Si Si6 0.000000 0.000000 0.086867
Si Si7 0.751410 0.084744 0.666667
O O1 0.009233 0.105241 0.239055
O O2 0.000000 0.000000 0.151023
O O3 0.666667 0.512300 0.333334
O O4 0.705894 0.565332 0.231332
O O5 0.846760 0.638858 0.311231
O O6 0.757499 0.440293 0.270816
O O7 0.333334 0.973544 0.166667
O O8 0.220748 0.866230 0.077505
O O9 0.393523 0.049520 0.069937
O O10 0.145907 0.250746 0.302194
O O11 0.945073 0.130603 0.332313
O O12 0.930018 0.588963 0.707019
#
# Coordination Sequence:
#
# PCOD9576937 Si02
#       7
#     6  18  18  18  18   6   9
#     4  12  24  37  61  93 127 160 210 276 331 389
#     4   9  20  35  56  85 118 166 207 244 305 393
#     4  10  20  39  62  86 123 161 203 258 325 376
#     4  11  21  41  63  89 116 167 214 257 320 394
#     4  10  22  38  64  88 118 163 214 261 314 388
#     4  12  22  34  57  90 129 166 202 255 322 395
#     4  12  22  38  68  92 116 158 228 268 312 384
#
# _framework density 19.610365999999999
#
# number of rings (size 3 to 8) (size 9 to 14) (size 15 to 20)
#    0.000    1.548    3.871    2.903    5.419    0.000 
#    0.000    0.968    0.000    0.000    0.000    0.000 
#    0.000    0.000    0.000    0.000    0.000    0.000 
#
# Total GULP energy -172718.684207 kJ/mol
# GULP energy per Si atom -5571.570458 kJ/mol
# Density = 1.956573 g / cm^3
# Si number density = 19.610366 Si / 1000 Ang^3
#
#
#
# Elastic Constant Matrix: (Units=GPa)
#
#
# Indices 1 2 3 4 5 6 
#
# 1 83.1536 32.8777 21.6634 0.2996 0.0002 0.0000
# 2 32.8777 83.1536 21.6634 -0.2996 -0.0002 0.0000
# 3 21.6634 21.6634 81.4056 0.0000 0.0000 0.0000
# 4 0.2996 -0.2996 0.0000 20.3014 0.0000 -0.0002
# 5 0.0002 -0.0002 0.0000 0.0000 20.3014 0.2996
# 6 0.0000 0.0000 0.0000 -0.0002 0.2996 25.1379
#
#
#
# Elastic Compliance Matrix: (Units=1/GPa)
#
#
# Indices 1 2 3 4 5 6 
#
# 1 0.014732 -0.005162 -0.002547 -0.000294 0.000000 0.000000
# 2 -0.005162 0.014732 -0.002547 0.000294 0.000000 0.000000
# 3 -0.002547 -0.002547 0.013640 0.000000 0.000000 0.000000
# 4 -0.000294 0.000294 0.000000 0.049266 0.000000 0.000000
# 5 0.000000 0.000000 0.000000 0.000000 0.049266 -0.000587
# 6 0.000000 0.000000 0.000000 0.000000 -0.000587 0.039787
#
#
# Mechanical properties :
#
#
# Convention : Reuss Voigt Hill
#
# Bulk Modulus (GPa) = 44.26371 44.45799 44.36085
# Shear Modulus (GPa) = 23.87048 24.58205 24.22626
#
# Velocity S-wave (km/s) = 3.49268 3.54435 3.51861
# Velocity P-wave (km/s) = 6.23584 6.28250 6.25921
#
# Compressibility (1/GPa) = 0.02259187
#
# Stress axis : x y z
#
# Youngs Moduli (GPa) = 67.88173 67.88173 73.31631
#
# Poissons Ratio (x) = 0.35042 0.18670
# Poissons Ratio (y) = 0.35042 0.18670
# Poissons Ratio (z) = 0.17286 0.17286
#
# Static dielectric constant tensor:
#      x y z
#    x 1.759780 0.000000 0.000000 
#    y 0.000000 1.759780 0.000000 
#    z 0.000000 0.000000 1.661680 
# 
# From -- ./inp_files/7927.got.cif
#   From: 2010.05.17/outbox.cif.g08.bks.cpg/sg155_4_cif.got.tgz:7927.got - 2010.05.20 10:44:35.
