data_PCOD9576365
_publ_section_title
;
Structure prediction by ZEFSAII (Michael W. Deem and Ramdas Pophale) SiO2 
 PCOD9576365
Probable space group: P 32 1 2
;
_chemical_formula_sum "Si O2"
_cell_formula_units_Z 36
_cell_length_a 9.298962
_cell_length_b 9.298962
_cell_length_c 21.625458
_cell_angle_alpha 90.000000
_cell_angle_beta 90.000000
_cell_angle_gamma 120.000000
_cell_volume 1619.440110
_symmetry_space_group_name_H-M "P 32 1 2"
_symmetry_group_IT_number 153
_symmetry_cell_setting 'hexagonal'
loop_
_space_group_symop_operation_xyz
x,y,z
-y,x-y,2/3+z
-x+y,-x,1/3+z
-y,-x,1/3-z
-x+y,y,2/3-z
x,x-y,-z
loop_
_atom_site_type_symbol
_atom_site_label
_atom_site_fract_x
_atom_site_fract_y
_atom_site_fract_z
Si Si1 0.351434 0.477500 0.407940
Si Si2 0.828891 0.018118 0.733639
Si Si3 0.664740 0.988871 0.513121
Si Si4 0.469064 0.946354 0.726693
Si Si5 0.740566 0.307236 0.899286
Si Si6 0.851478 0.167562 0.091902
O O1 0.507407 0.527607 0.452593
O O2 0.199456 0.504899 0.426951
O O3 0.436814 0.559863 0.343225
O O4 0.274953 0.283342 0.397880
O O5 0.641603 0.969905 0.748741
O O6 0.816971 0.840701 0.738369
O O7 0.896543 0.103458 0.666667
O O8 0.940067 0.165880 0.781476
O O9 0.600591 0.800296 0.500000
O O10 0.696379 0.094869 0.452155
O O11 0.509675 0.137559 0.729991
O O12 0.645311 0.290622 0.833334
O O13 0.799055 0.492559 0.925026
O O14 0.843643 0.156358 0.166667
#
# Coordination Sequence:
#
# PCOD9576365 Si02
#       6
#     6   6   6   6   6   6
#     4  11  25  47  68 100 139 182 230 289 340 416
#     4  12  26  45  70  99 140 180 228 288 346 414
#     4  12  26  43  70 105 140 177 231 288 344 411
#     4  11  26  45  71  97 137 185 234 277 352 414
#     4  11  23  45  71 100 132 183 230 278 346 414
#     4  11  25  44  68 101 137 171 229 282 340 413
#
# _framework density 22.229904999999999
#
# number of rings (size 3 to 8) (size 9 to 14) (size 15 to 20)
#    0.000    0.667    6.667    0.500    9.333    0.667 
#    0.000    0.000    0.000    0.000    0.000    0.000 
#    0.000    0.000    0.000    0.000    0.000    0.000 
#
# Total GULP energy -200839.267959 kJ/mol
# GULP energy per Si atom -5578.868554 kJ/mol
# Density = 2.217931 g / cm^3
# Si number density = 22.229905 Si / 1000 Ang^3
#
#
#
# Elastic Constant Matrix: (Units=GPa)
#
#
# Indices 1 2 3 4 5 6 
#
# 1 128.9111 6.9816 -3.1230 0.0007 -22.7113 0.0000
# 2 6.9816 128.9111 -3.1230 -0.0007 22.7113 0.0000
# 3 -3.1230 -3.1230 7.2843 0.0000 0.0000 0.0000
# 4 0.0007 -0.0007 0.0000 29.7988 0.0000 22.7113
# 5 -22.7113 22.7113 0.0000 0.0000 29.7988 0.0007
# 6 0.0000 0.0000 0.0000 22.7113 0.0007 60.9647
#
#
#
# Elastic Compliance Matrix: (Units=1/GPa)
#
#
# Indices 1 2 3 4 5 6 
#
# 1 0.009480 -0.001973 0.003218 0.000000 0.008729 0.000000
# 2 -0.001973 0.009480 0.003218 0.000000 -0.008729 0.000000
# 3 0.003218 0.003218 0.140040 0.000000 0.000000 0.000000
# 4 0.000000 0.000000 0.000000 0.046864 0.000000 -0.017458
# 5 0.008729 -0.008729 0.000000 0.000000 0.046864 -0.000001
# 6 0.000000 0.000000 0.000000 -0.017458 -0.000001 0.022907
#
#
# Mechanical properties :
#
#
# Convention : Reuss Voigt Hill
#
# Bulk Modulus (GPa) = 5.95498 29.61976 17.78737
# Shear Modulus (GPa) = 15.49499 41.73721 28.61610
#
# Velocity S-wave (km/s) = 2.64300 4.33774 3.59176
# Velocity P-wave (km/s) = 3.46390 6.20010 5.02194
#
# Compressibility (1/GPa) = 0.16792666
#
# Stress axis : x y z
#
# Youngs Moduli (GPa) = 105.48492 105.48492 7.14081
#
# Poissons Ratio (x) = 0.20816 -0.02298
# Poissons Ratio (y) = 0.20816 -0.02298
# Poissons Ratio (z) = -0.33948 -0.33948
#
# Static dielectric constant tensor:
#      x y z
#    x 1.878310 0.000000 0.000000 
#    y 0.000000 1.878310 0.000000 
#    z 0.000000 0.000000 1.783950 
# 
# From -- ./inp_files/4692.got.cif
#   From: 2010.05.17/outbox.cif.g08.bks.cpg/sg153_3_cif.got.tgz:4692.got - 2010.05.20 10:38:56.
