data_PCOD9576554
_publ_section_title
;
Structure prediction by ZEFSAII (Michael W. Deem and Ramdas Pophale) SiO2 
 PCOD9576554
Probable space group: P 32 2 1
;
_chemical_formula_sum "Si O2"
_cell_formula_units_Z 36
_cell_length_a 9.042771
_cell_length_b 9.042771
_cell_length_c 24.099684
_cell_angle_alpha 90.000000
_cell_angle_beta 90.000000
_cell_angle_gamma 120.000000
_cell_volume 1706.652281
_symmetry_space_group_name_H-M "P 32 2 1"
_symmetry_group_IT_number 154
_symmetry_cell_setting 'hexagonal'
loop_
_space_group_symop_operation_xyz
x,y,z
-y,x-y,2/3+z
-x+y,-x,1/3+z
x-y,-y,1/3-z
-x,-x+y,2/3-z
y,x,-z
loop_
_atom_site_type_symbol
_atom_site_label
_atom_site_fract_x
_atom_site_fract_y
_atom_site_fract_z
Si Si1 0.637456 0.865748 0.712046
Si Si2 0.366152 0.053653 0.458512
Si Si3 0.396720 0.811066 0.171153
Si Si4 0.566229 0.917466 0.959976
Si Si5 0.720993 0.281282 0.954391
Si Si6 0.404734 0.896058 0.569431
O O1 0.728148 0.793995 0.752891
O O2 0.466996 0.699044 0.689035
O O3 0.759888 0.000000 0.666667
O O4 0.551177 0.962773 0.742548
O O5 0.429320 0.248303 0.474505
O O6 0.527938 0.064696 0.425680
O O7 0.347414 0.959381 0.516065
O O8 0.332512 0.730428 0.110064
O O9 0.256742 0.689886 0.215085
O O10 0.428217 0.000000 0.166667
O O11 0.579344 0.750749 0.946256
O O12 0.727404 0.107380 0.964056
O O13 0.441676 0.863910 0.012672
#
# Coordination Sequence:
#
# PCOD9576554 Si02
#       6
#     6   6   6   6   6   6
#     4  11  20  36  65  95 125 163 217 259 320 389
#     4  10  21  39  62  89 123 166 210 259 313 378
#     4  11  24  39  64  94 126 165 212 270 325 378
#     4  10  22  35  62  93 125 162 209 265 308 390
#     4  11  22  39  60  97 126 163 208 263 327 382
#     4  11  19  39  66  93 116 167 215 258 305 385
#
# _framework density 21.093927000000001
#
# number of rings (size 3 to 8) (size 9 to 14) (size 15 to 20)
#    0.000    1.333    6.667    1.000    4.667    0.000 
#    0.000    0.833    7.333    1.000    0.000    0.000 
#    0.000    0.000    0.000    0.000    0.000    0.000 
#
# Total GULP energy -200777.028972 kJ/mol
# GULP energy per Si atom -5577.139694 kJ/mol
# Density = 2.104592 g / cm^3
# Si number density = 21.093927 Si / 1000 Ang^3
#
#
#
# Elastic Constant Matrix: (Units=GPa)
#
#
# Indices 1 2 3 4 5 6 
#
# 1 53.7161 9.5080 9.6265 0.5460 -0.0001 0.0000
# 2 9.5080 53.7161 9.6265 -0.5460 0.0001 0.0000
# 3 9.6265 9.6265 58.1716 0.0000 0.0000 0.0000
# 4 0.5460 -0.5460 0.0000 20.8393 0.0000 0.0001
# 5 -0.0001 0.0001 0.0000 0.0000 20.8393 0.5460
# 6 0.0000 0.0000 0.0000 0.0001 0.5460 22.1041
#
#
#
# Elastic Compliance Matrix: (Units=1/GPa)
#
#
# Indices 1 2 3 4 5 6 
#
# 1 0.019646 -0.002989 -0.002756 -0.000593 0.000000 0.000000
# 2 -0.002989 0.019646 -0.002756 0.000593 0.000000 0.000000
# 3 -0.002756 -0.002756 0.018103 0.000000 0.000000 0.000000
# 4 -0.000593 0.000593 0.000000 0.048017 0.000000 0.000000
# 5 0.000000 0.000000 0.000000 0.000000 0.048017 -0.001186
# 6 0.000000 0.000000 0.000000 0.000000 -0.001186 0.045270
#
#
# Mechanical properties :
#
#
# Convention : Reuss Voigt Hill
#
# Bulk Modulus (GPa) = 24.75883 24.79178 24.77530
# Shear Modulus (GPa) = 21.81828 21.87939 21.84883
#
# Velocity S-wave (km/s) = 3.21960 3.22411 3.22186
# Velocity P-wave (km/s) = 5.05807 5.06344 5.06075
#
# Compressibility (1/GPa) = 0.04038964
#
# Stress axis : x y z
#
# Youngs Moduli (GPa) = 50.90222 50.90222 55.24009
#
# Poissons Ratio (x) = 0.15217 0.15226
# Poissons Ratio (y) = 0.15217 0.15226
# Poissons Ratio (z) = 0.14030 0.14030
#
# Static dielectric constant tensor:
#      x y z
#    x 1.799800 0.000000 0.000000 
#    y 0.000000 1.799800 0.000000 
#    z 0.000000 0.000000 1.782340 
# 
# From -- ./inp_files/3612.got.cif
#   From: 2010.05.17/outbox.cif.g08.bks.cpg/sg154_2_cif.got.tgz:3612.got - 2010.05.20 10:41:43.
