data_PCOD9576131
_publ_section_title
;
Structure prediction by ZEFSAII (Michael W. Deem and Ramdas Pophale) SiO2 
 PCOD9576131
Probable space group: P 31 2 1
;
_chemical_formula_sum "Si O2"
_cell_formula_units_Z 36
_cell_length_a 8.720811
_cell_length_b 8.720811
_cell_length_c 23.628675
_cell_angle_alpha 90.000000
_cell_angle_beta 90.000000
_cell_angle_gamma 120.000000
_cell_volume 1556.265713
_symmetry_space_group_name_H-M "P 31 2 1"
_symmetry_group_IT_number 152
_symmetry_cell_setting 'hexagonal'
loop_
_space_group_symop_operation_xyz
x,y,z
-y,x-y,1/3+z
-x+y,-x,2/3+z
x-y,-y,2/3-z
-x,-x+y,1/3-z
y,x,-z
loop_
_atom_site_type_symbol
_atom_site_label
_atom_site_fract_x
_atom_site_fract_y
_atom_site_fract_z
Si Si1 0.524845 0.112709 0.609390
Si Si2 0.281432 0.955955 0.171960
Si Si3 0.666417 0.843185 0.631657
Si Si4 0.814822 0.435496 0.562080
Si Si5 0.584377 0.167003 0.795145
Si Si6 0.105522 0.159714 0.112120
O O1 0.464774 0.067776 0.544124
O O2 0.608680 0.993591 0.630435
O O3 0.357984 0.099086 0.642967
O O4 0.668110 0.323174 0.608789
O O5 0.411338 0.074674 0.221401
O O6 0.180024 0.038486 0.138195
O O7 0.172600 0.770633 0.204801
O O8 0.515912 0.679350 0.594404
O O9 0.857132 0.901049 0.603416
O O10 0.724135 0.400130 0.500457
O O11 0.916176 0.646438 0.570552
O O12 0.470130 0.000000 0.833334
O O13 0.000000 0.169337 0.166667
#
# Coordination Sequence:
#
# PCOD9576131 Si02
#       6
#     6   6   6   6   6   6
#     4  11  26  41  68  95 132 178 219 278 335 411
#     4  11  24  39  68  99 123 169 232 276 322 400
#     4  12  23  44  65  96 137 178 218 272 351 399
#     4  11  20  41  66  97 122 168 225 267 324 397
#     4  11  21  39  65  91 126 168 217 267 326 396
#     4  12  21  40  68  96 131 174 220 279 335 399
#
# _framework density 23.132294999999999
#
# number of rings (size 3 to 8) (size 9 to 14) (size 15 to 20)
#    0.000    0.667    5.000    4.500    2.333    0.667 
#    0.000    0.833    3.667    0.000    0.000    0.000 
#    0.000    0.000    0.000    0.000    0.000    0.000 
#
# Total GULP energy -200704.392159 kJ/mol
# GULP energy per Si atom -5575.122004 kJ/mol
# Density = 2.307964 g / cm^3
# Si number density = 23.132295 Si / 1000 Ang^3
#
#
#
# Elastic Constant Matrix: (Units=GPa)
#
#
# Indices 1 2 3 4 5 6 
#
# 1 96.6050 32.6470 -13.0667 3.7541 -0.0001 0.0000
# 2 32.6470 96.6050 -13.0667 -3.7541 0.0001 0.0000
# 3 -13.0667 -13.0667 24.0826 0.0000 0.0000 0.0000
# 4 3.7541 -3.7541 0.0000 22.5706 0.0000 0.0001
# 5 -0.0001 0.0001 0.0000 0.0000 22.5706 3.7541
# 6 0.0000 0.0000 0.0000 0.0001 3.7541 31.9790
#
#
#
# Elastic Compliance Matrix: (Units=1/GPa)
#
#
# Indices 1 2 3 4 5 6 
#
# 1 0.012318 -0.003628 0.004715 -0.002652 0.000000 0.000000
# 2 -0.003628 0.012318 0.004715 0.002652 0.000000 0.000000
# 3 0.004715 0.004715 0.046641 0.000000 0.000000 0.000000
# 4 -0.002652 0.002652 0.000000 0.045188 0.000000 0.000000
# 5 0.000000 0.000000 0.000000 0.000000 0.045188 -0.005305
# 6 0.000000 0.000000 0.000000 0.000000 -0.005305 0.031893
#
#
# Mechanical properties :
#
#
# Convention : Reuss Voigt Hill
#
# Bulk Modulus (GPa) = 12.06544 25.59106 18.82825
# Shear Modulus (GPa) = 23.85846 29.47596 26.66721
#
# Velocity S-wave (km/s) = 3.21501 3.57351 3.39899
# Velocity P-wave (km/s) = 4.35992 5.30223 4.85399
#
# Compressibility (1/GPa) = 0.08288137
#
# Stress axis : x y z
#
# Youngs Moduli (GPa) = 81.17937 81.17937 21.44059
#
# Poissons Ratio (x) = 0.29454 -0.10110
# Poissons Ratio (y) = 0.29454 -0.10110
# Poissons Ratio (z) = -0.38277 -0.38277
#
# Static dielectric constant tensor:
#      x y z
#    x 1.924150 0.000000 0.000000 
#    y 0.000000 1.924150 0.000000 
#    z 0.000000 0.000000 1.827140 
# 
# From -- ./inp_files/3420.got.cif
#   From: 2010.05.17/outbox.cif.g08.bks.cpg/sg152_2_cif.got.tgz:3420.got - 2010.05.20 10:36:06.
