data_PCOD9576093
_publ_section_title
;
Structure prediction by ZEFSAII (Michael W. Deem and Ramdas Pophale) SiO2 
 PCOD9576093
Probable space group: P 31 2 1
;
_chemical_formula_sum "Si O2"
_cell_formula_units_Z 39
_cell_length_a 8.582432
_cell_length_b 8.582432
_cell_length_c 28.832801
_cell_angle_alpha 90.000000
_cell_angle_beta 90.000000
_cell_angle_gamma 120.000000
_cell_volume 1839.239174
_symmetry_space_group_name_H-M "P 31 2 1"
_symmetry_group_IT_number 152
_symmetry_cell_setting 'hexagonal'
loop_
_space_group_symop_operation_xyz
x,y,z
-y,x-y,1/3+z
-x+y,-x,2/3+z
x-y,-y,2/3-z
-x,-x+y,1/3-z
y,x,-z
loop_
_atom_site_type_symbol
_atom_site_label
_atom_site_fract_x
_atom_site_fract_y
_atom_site_fract_z
Si Si1 0.762416 0.114321 0.009814
Si Si2 0.535500 0.000000 0.833334
Si Si3 0.035561 0.000000 0.833334
Si Si4 0.054693 0.361520 0.497953
Si Si5 0.060458 0.315101 0.087794
Si Si6 0.878768 0.411042 0.583082
Si Si7 0.000000 0.272797 0.666667
Si Si8 0.921078 0.413738 0.933427
O O1 0.922209 0.225591 0.046094
O O2 0.574367 0.064945 0.034439
O O3 0.809620 0.235656 0.964244
O O4 0.747906 0.923618 0.999064
O O5 0.551021 0.820996 0.833529
O O6 0.426114 0.991142 0.787306
O O7 0.844334 0.828007 0.844769
O O8 0.117330 0.956350 0.788908
O O9 0.999480 0.373715 0.445540
O O10 0.977208 0.447016 0.533857
O O11 0.266060 0.436417 0.071947
O O12 0.691823 0.221701 0.581922
O O13 0.994444 0.381428 0.621978
#
# Coordination Sequence:
#
# PCOD9576093 Si02
#       8
#     6   3   3   6   6   6   3   6
#     4  11  26  46  71  98 145 183 239 288 356 422
#     4  10  24  42  74  96 142 178 228 282 358 410
#     4  10  24  42  66 104 138 180 222 298 340 426
#     4  11  25  43  71 100 141 181 235 287 354 413
#     4  11  24  45  70 101 138 180 233 289 352 423
#     4  11  25  44  69 103 138 181 240 283 350 422
#     4  10  26  48  70 100 144 186 232 300 348 424
#     4  11  25  45  70 101 137 191 233 290 349 419
#
# _framework density 21.204422000000001
#
# number of rings (size 3 to 8) (size 9 to 14) (size 15 to 20)
#    0.000    1.231    1.538    2.769   12.923    1.846 
#    5.538    0.000    0.000    0.000    0.000    0.000 
#    0.000    0.000    0.000    0.000    0.000    0.000 
#
# Total GULP energy -218303.778121 kJ/mol
# GULP energy per Si atom -5597.532772 kJ/mol
# Density = 2.115616 g / cm^3
# Si number density = 21.204422 Si / 1000 Ang^3
#
#
#
# Elastic Constant Matrix: (Units=GPa)
#
#
# Indices 1 2 3 4 5 6 
#
# 1 67.1375 45.7115 44.6878 3.6565 0.0004 0.0000
# 2 45.7115 67.1375 44.6878 -3.6565 -0.0004 0.0000
# 3 44.6878 44.6878 120.5084 0.0000 0.0000 0.0000
# 4 3.6565 -3.6565 0.0000 14.3836 0.0000 -0.0004
# 5 0.0004 -0.0004 0.0000 0.0000 14.3836 3.6565
# 6 0.0000 0.0000 0.0000 -0.0004 3.6565 10.7130
#
#
#
# Elastic Compliance Matrix: (Units=1/GPa)
#
#
# Indices 1 2 3 4 5 6 
#
# 1 0.031826 -0.019280 -0.004652 -0.012992 -0.000002 0.000000
# 2 -0.019280 0.031826 -0.004652 0.012992 0.000002 0.000000
# 3 -0.004652 -0.004652 0.011749 0.000000 0.000000 0.000000
# 4 -0.012992 0.012992 0.000000 0.076129 0.000000 0.000003
# 5 -0.000002 0.000002 0.000000 0.000000 0.076129 -0.025984
# 6 0.000000 0.000000 0.000000 0.000003 -0.025984 0.102213
#
#
# Mechanical properties :
#
#
# Convention : Reuss Voigt Hill
#
# Bulk Modulus (GPa) = 54.85124 58.32861 56.58993
# Shear Modulus (GPa) = 12.71874 15.87579 14.29727
#
# Velocity S-wave (km/s) = 2.45177 2.73921 2.59947
# Velocity P-wave (km/s) = 5.82571 6.12959 5.97958
#
# Compressibility (1/GPa) = 0.01823113
#
# Stress axis : x y z
#
# Youngs Moduli (GPa) = 31.42050 31.42050 85.11609
#
# Poissons Ratio (x) = 0.60580 0.39600
# Poissons Ratio (y) = 0.60580 0.39600
# Poissons Ratio (z) = 0.14618 0.14618
#
# Static dielectric constant tensor:
#      x y z
#    x 1.764260 0.000000 0.000000 
#    y 0.000000 1.764260 0.000000 
#    z 0.000000 0.000000 1.751410 
# 
# From -- ./inp_files/3687.got.cif
#   From: 2010.05.17/outbox.cif.g08.bks.cpg/sg152_2_cif.got.tgz:3687.got - 2010.05.20 10:36:06.
