data_PCOD9576203
_publ_section_title
;
Structure prediction by ZEFSAII (Michael W. Deem and Ramdas Pophale) SiO2 
 PCOD9576203
Probable space group: P 31 2 1
;
_chemical_formula_sum "Si O2"
_cell_formula_units_Z 15
_cell_length_a 8.546789
_cell_length_b 8.546789
_cell_length_c 8.631075
_cell_angle_alpha 90.000000
_cell_angle_beta 90.000000
_cell_angle_gamma 120.000000
_cell_volume 546.011119
_symmetry_space_group_name_H-M "P 31 2 1"
_symmetry_group_IT_number 152
_symmetry_cell_setting 'hexagonal'
loop_
_space_group_symop_operation_xyz
x,y,z
-y,x-y,1/3+z
-x+y,-x,2/3+z
x-y,-y,2/3-z
-x,-x+y,1/3-z
y,x,-z
loop_
_atom_site_type_symbol
_atom_site_label
_atom_site_fract_x
_atom_site_fract_y
_atom_site_fract_z
Si Si1 0.000000 0.099321 0.166667
Si Si2 0.317902 0.447298 0.292476
Si Si3 0.163914 0.537767 0.545240
O O1 0.170625 0.301142 0.177349
O O2 0.985378 0.000000 0.333334
O O3 0.226021 0.412691 0.459418
O O4 0.383839 0.659374 0.260668
O O5 0.486576 0.421413 0.262671
O O6 0.000000 0.437534 0.666667
#
# Coordination Sequence:
#
# PCOD9576203 Si02
#       3
#     3   6   6
#     4  12  32  58  92 138 190 242 326 412 504 592
#     4  12  28  53  90 126 185 247 313 401 482 590
#     4  12  27  53  88 131 180 243 327 394 483 576
#
# _framework density 27.471965999999998
#
# number of rings (size 3 to 8) (size 9 to 14) (size 15 to 20)
#    0.000    0.000    4.000    3.600    5.600    4.800 
#    0.000    0.000    0.000    0.000    0.000    0.000 
#    0.000    0.000    0.000    0.000    0.000    0.000 
#
# Total GULP energy -83944.168567 kJ/mol
# GULP energy per Si atom -5596.277904 kJ/mol
# Density = 2.740944 g / cm^3
# Si number density = 27.471966 Si / 1000 Ang^3
#
#
#
# Elastic Constant Matrix: (Units=GPa)
#
#
# Indices 1 2 3 4 5 6 
#
# 1 174.3822 78.4289 59.5231 1.4107 0.0000 0.0000
# 2 78.4289 174.3822 59.5231 -1.4107 0.0000 0.0000
# 3 59.5231 59.5231 187.1680 0.0000 0.0000 0.0000
# 4 1.4107 -1.4107 0.0000 64.1862 0.0000 0.0000
# 5 0.0000 0.0000 0.0000 0.0000 64.1862 1.4107
# 6 0.0000 0.0000 0.0000 0.0000 1.4107 47.9766
#
#
#
# Elastic Compliance Matrix: (Units=1/GPa)
#
#
# Indices 1 2 3 4 5 6 
#
# 1 0.007540 -0.002888 -0.001479 -0.000229 0.000000 0.000000
# 2 -0.002888 0.007540 -0.001479 0.000229 0.000000 0.000000
# 3 -0.001479 -0.001479 0.006284 0.000000 0.000000 0.000000
# 4 -0.000229 0.000229 0.000000 0.015590 0.000000 0.000000
# 5 0.000000 0.000000 0.000000 0.000000 0.015590 -0.000458
# 6 0.000000 0.000000 0.000000 0.000000 -0.000458 0.020857
#
#
# Mechanical properties :
#
#
# Convention : Reuss Voigt Hill
#
# Bulk Modulus (GPa) = 103.41002 103.43141 103.42072
# Shear Modulus (GPa) = 56.61320 57.83361 57.22340
#
# Velocity S-wave (km/s) = 4.54449 4.59321 4.56891
# Velocity P-wave (km/s) = 8.07838 8.11552 8.09697
#
# Compressibility (1/GPa) = 0.00967024
#
# Stress axis : x y z
#
# Youngs Moduli (GPa) = 132.61997 132.61997 159.13915
#
# Poissons Ratio (x) = 0.38303 0.23545
# Poissons Ratio (y) = 0.38303 0.23545
# Poissons Ratio (z) = 0.19621 0.19621
#
# Static dielectric constant tensor:
#      x y z
#    x 2.237430 0.000000 0.000000 
#    y 0.000000 2.237430 0.000000 
#    z 0.000000 0.000000 2.370720 
# 
# From -- ./inp_files/674.got.cif
#   From: 2010.05.17/outbox.cif.g08.bks.cpg/sg152_1_cif.got.tgz:674.got - 2010.05.20 10:36:06.
