data_PCOD9576906
_publ_section_title
;
Structure prediction by ZEFSAII (Michael W. Deem and Ramdas Pophale) SiO2 
 PCOD9576906
Probable space group: R 3 2
;
_chemical_formula_sum "Si O2"
_cell_formula_units_Z 105
_cell_length_a 24.918172
_cell_length_b 24.918172
_cell_length_c 11.543878
_cell_angle_alpha 90.000000
_cell_angle_beta 90.000000
_cell_angle_gamma 120.000000
_cell_volume 6207.471275
_symmetry_space_group_name_H-M "R 3 2"
_symmetry_group_IT_number 155
_symmetry_cell_setting 'hexagonal'
loop_
_space_group_symop_operation_xyz
x,y,z
-y,x-y,z
-x+y,-x,z
x-y,-y,-z
-x,-x+y,-z
y,x,-z
2/3+x,1/3+y,1/3+z
2/3-y,1/3+x-y,1/3+z
2/3-x+y,1/3-x,1/3+z
2/3+x-y,1/3-y,1/3-z
2/3-x,1/3-x+y,1/3-z
2/3+y,1/3+x,1/3-z
1/3+x,2/3+y,2/3+z
1/3-y,2/3+x-y,2/3+z
1/3-x+y,2/3-x,2/3+z
1/3+x-y,2/3-y,2/3-z
1/3-x,2/3-x+y,2/3-z
1/3+y,2/3+x,2/3-z
loop_
_atom_site_type_symbol
_atom_site_label
_atom_site_fract_x
_atom_site_fract_y
_atom_site_fract_z
Si Si1 0.511198 0.511198 0.000000
Si Si2 0.000000 0.000000 0.135025
Si Si3 0.628805 0.499751 0.566368
Si Si4 0.666667 0.438833 0.833334
Si Si5 0.099250 0.365700 0.108451
Si Si6 0.252204 0.698654 0.956136
Si Si7 0.763204 0.763204 0.000000
Si Si8 0.138433 0.565253 0.000026
O O1 0.552316 0.535617 0.882506
O O2 0.450802 0.518789 0.982819
O O3 0.986147 0.935020 0.186177
O O4 0.000000 0.000000 0.000000
O O5 0.607185 0.532235 0.662768
O O6 0.584977 0.426729 0.586262
O O7 0.631259 0.520335 0.434477
O O8 0.700366 0.516410 0.590466
O O9 0.634971 0.389287 0.730326
O O10 0.723304 0.504343 0.789294
O O11 0.065626 0.398959 0.166667
O O12 0.049235 0.299207 0.061812
O O13 0.187560 0.637684 0.982948
#
# Coordination Sequence:
#
# PCOD9576906 Si02
#       8
#     9   6  18   9  18  18   9  18
#     4  12  21  36  56  78 122 152 196 245 312 348
#     4  12  24  34  53  79 123 174 199 236 292 357
#     4  11  23  37  56  86 118 157 202 242 289 364
#     4  10  20  36  62  86 114 142 198 254 312 348
#     4  12  21  36  57  87 116 156 190 246 298 360
#     4  11  23  37  58  85 120 157 200 242 300 352
#     4  12  23  38  58  84 118 160 200 237 302 354
#     4  11  21  36  54  87 116 155 191 247 302 358
#
# _framework density 16.915101
#
# number of rings (size 3 to 8) (size 9 to 14) (size 15 to 20)
#    0.000    0.686    6.857    4.629    2.400    0.000 
#    0.000    0.000    0.000    0.000    0.000    9.600 
#    0.000    0.000    0.000    0.000    0.000    0.000 
#
# Total GULP energy -194965.888997 kJ/mol
# GULP energy per Si atom -5570.453971 kJ/mol
# Density = 1.687660 g / cm^3
# Si number density = 16.915101 Si / 1000 Ang^3
#
#
#
# Elastic Constant Matrix: (Units=GPa)
#
#
# Indices 1 2 3 4 5 6 
#
# 1 93.5603 28.3268 33.7163 -16.3489 -0.0010 0.0002
# 2 28.3268 93.5604 33.7167 16.3488 0.0004 -0.0001
# 3 33.7163 33.7167 111.1524 0.0000 -0.0015 0.0004
# 4 -16.3489 16.3488 0.0000 65.5066 0.0001 0.0002
# 5 -0.0010 0.0004 -0.0015 0.0001 65.5063 -16.3489
# 6 0.0002 -0.0001 0.0004 0.0002 -16.3489 32.6168
#
#
#
# Elastic Compliance Matrix: (Units=1/GPa)
#
#
# Indices 1 2 3 4 5 6 
#
# 1 0.013690 -0.003831 -0.002990 0.004373 0.000000 0.000000
# 2 -0.003831 0.013690 -0.002991 -0.004373 0.000000 0.000000
# 3 -0.002990 -0.002991 0.010811 0.000000 0.000000 0.000000
# 4 0.004373 -0.004373 0.000000 0.017448 0.000000 0.000000
# 5 0.000000 0.000000 0.000000 0.000000 0.017448 0.008746
# 6 0.000000 0.000000 0.000000 0.000000 0.008746 0.035043
#
#
# Mechanical properties :
#
#
# Convention : Reuss Voigt Hill
#
# Bulk Modulus (GPa) = 53.86072 54.42142 54.14107
# Shear Modulus (GPa) = 37.32893 46.22683 41.77788
#
# Velocity S-wave (km/s) = 4.70280 5.23336 4.97516
# Velocity P-wave (km/s) = 7.83577 8.29220 8.06721
#
# Compressibility (1/GPa) = 0.01856641
#
# Stress axis : x y z
#
# Youngs Moduli (GPa) = 73.04551 73.04539 92.49908
#
# Poissons Ratio (x) = 0.27986 0.27662
# Poissons Ratio (y) = 0.27986 0.27662
# Poissons Ratio (z) = 0.21844 0.21845
#
# Static dielectric constant tensor:
#      x y z
#    x 1.597420 0.000000 0.000000 
#    y 0.000000 1.597420 0.000000 
#    z 0.000000 0.000000 1.635300 
# 
# From -- ./inp_files/4213.got.cif
#   From: 2010.05.17/outbox.cif.g08.bks.cpg/sg155_3_cif.got.tgz:4213.got - 2010.05.20 10:44:35.
