data_PCOD9576064
_publ_section_title
;
Structure prediction by ZEFSAII (Michael W. Deem and Ramdas Pophale) SiO2 
 PCOD9576064
Probable space group: P 31 2 1
;
_chemical_formula_sum "Si O2"
_cell_formula_units_Z 21
_cell_length_a 9.022582
_cell_length_b 9.022582
_cell_length_c 14.509424
_cell_angle_alpha 90.000000
_cell_angle_beta 90.000000
_cell_angle_gamma 120.000000
_cell_volume 1022.921906
_symmetry_space_group_name_H-M "P 31 2 1"
_symmetry_group_IT_number 152
_symmetry_cell_setting 'hexagonal'
loop_
_space_group_symop_operation_xyz
x,y,z
-y,x-y,1/3+z
-x+y,-x,2/3+z
x-y,-y,2/3-z
-x,-x+y,1/3-z
y,x,-z
loop_
_atom_site_type_symbol
_atom_site_label
_atom_site_fract_x
_atom_site_fract_y
_atom_site_fract_z
Si Si1 0.729153 0.686251 0.654688
Si Si2 0.077827 0.000000 0.333334
Si Si3 0.000000 0.522260 0.166667
Si Si4 0.625766 0.719660 0.852943
Si Si5 0.573067 0.000000 0.333334
O O1 0.568334 0.595977 0.587956
O O2 0.676048 0.656972 0.761399
O O3 0.849674 0.606549 0.633760
O O4 0.841921 0.891197 0.642371
O O5 0.160667 0.954047 0.247848
O O6 0.835963 0.545733 0.177413
O O7 0.500016 0.563882 0.917870
#
# Coordination Sequence:
#
# PCOD9576064 Si02
#       5
#     6   3   3   6   3
#     4  11  26  44  69  98 135 177 224 278 335 396
#     4  10  22  48  72  96 124 186 228 272 334 402
#     4  12  28  40  68 102 136 180 220 280 332 400
#     4  11  25  47  69 100 136 174 226 281 331 396
#     4  10  28  42  72  98 132 178 224 276 336 402
#
# _framework density 20.529427999999999
#
# number of rings (size 3 to 8) (size 9 to 14) (size 15 to 20)
#    0.000    1.143    2.857    0.000   16.000    2.286 
#    0.000    0.000    0.000    0.000    0.000    0.000 
#    0.000    0.000    0.000    0.000    0.000    0.000 
#
# Total GULP energy -117530.548467 kJ/mol
# GULP energy per Si atom -5596.692784 kJ/mol
# Density = 2.048270 g / cm^3
# Si number density = 20.529428 Si / 1000 Ang^3
#
#
#
# Elastic Constant Matrix: (Units=GPa)
#
#
# Indices 1 2 3 4 5 6 
#
# 1 -939.0550 1038.2417 28.3541 275.2392 -0.0005 0.0000
# 2 1038.2417 -939.0550 28.3541 -275.2392 0.0005 0.0000
# 3 28.3541 28.3541 92.2619 0.0000 0.0000 0.0000
# 4 275.2392 -275.2392 0.0000 -41.7951 0.0000 0.0005
# 5 -0.0005 0.0005 0.0000 0.0000 -41.7951 275.2392
# 6 0.0000 0.0000 0.0000 0.0005 275.2392 -988.6484
#
#
#
# Elastic Compliance Matrix: (Units=1/GPa)
#
#
# Indices 1 2 3 4 5 6 
#
# 1 0.006419 0.005812 -0.003759 0.003996 0.000000 0.000000
# 2 0.005812 0.006419 -0.003759 -0.003996 0.000000 0.000000
# 3 -0.003759 -0.003759 0.013149 0.000000 0.000000 0.000000
# 4 0.003996 -0.003996 0.000000 0.028710 0.000000 0.000000
# 5 0.000000 0.000000 0.000000 0.000000 0.028710 0.007993
# 6 0.000000 0.000000 0.000000 0.000000 0.007993 0.001214
#
#
# Mechanical properties :
#
#
# Convention : Reuss Voigt Hill
#
# Bulk Modulus (GPa) = 44.29537 44.89461 44.59499
# Shear Modulus (GPa) = 52.32491 -406.50091 -177.08800
#
# Velocity S-wave (km/s) = 5.05402 -14.08683 -9.29773
# Velocity P-wave (km/s) = 7.46196 15.57784 9.66924
#
# Compressibility (1/GPa) = 0.02257572
#
# Stress axis : x y z
#
# Youngs Moduli (GPa) = 155.78852 155.78852 76.05097
#
# Poissons Ratio (x) = -0.90546 0.28587
# Poissons Ratio (y) = -0.90546 0.28587
# Poissons Ratio (z) = 0.58559 0.58559
#
# Static dielectric constant tensor:
#      x y z
#    x 1.908520 0.000000 0.000000 
#    y 0.000000 1.908520 0.000000 
#    z 0.000000 0.000000 1.702090 
# 
# From -- ./inp_files/2278.got.cif
#   From: 2010.05.17/outbox.cif.g08.bks.cpg/sg152_2_cif.got.tgz:2278.got - 2010.05.20 10:36:06.
