data_PCOD9576230
_publ_section_title
;
Structure prediction by ZEFSAII (Michael W. Deem and Ramdas Pophale) SiO2 
 PCOD9576230
Probable space group: P 32 1 2
;
_chemical_formula_sum "Si O2"
_cell_formula_units_Z 42
_cell_length_a 14.550531
_cell_length_b 14.550531
_cell_length_c 10.728193
_cell_angle_alpha 90.000000
_cell_angle_beta 90.000000
_cell_angle_gamma 120.000000
_cell_volume 1967.047714
_symmetry_space_group_name_H-M "P 32 1 2"
_symmetry_group_IT_number 153
_symmetry_cell_setting 'hexagonal'
loop_
_space_group_symop_operation_xyz
x,y,z
-y,x-y,2/3+z
-x+y,-x,1/3+z
-y,-x,1/3-z
-x+y,y,2/3-z
x,x-y,-z
loop_
_atom_site_type_symbol
_atom_site_label
_atom_site_fract_x
_atom_site_fract_y
_atom_site_fract_z
Si Si1 0.663162 0.866306 0.711319
Si Si2 0.454213 0.330198 0.954705
Si Si3 0.000454 0.795458 0.615032
Si Si4 0.816630 0.042135 0.549566
Si Si5 0.427609 0.916512 0.967432
Si Si6 0.622170 0.657754 0.851076
Si Si7 0.526190 0.357407 0.553866
O O1 0.715372 0.945399 0.830800
O O2 0.554874 0.858931 0.661988
O O3 0.633784 0.753510 0.767286
O O4 0.755769 0.923221 0.608056
O O5 0.347197 0.278688 0.872233
O O6 0.559849 0.404380 0.883400
O O7 0.459129 0.229565 0.000000
O O8 0.447789 0.411267 0.050450
O O9 0.089320 0.910681 0.666667
O O10 0.986509 0.709414 0.719871
O O11 0.896354 0.798789 0.566945
O O12 0.889493 0.110508 0.666667
O O13 0.437320 0.874640 0.833334
O O14 0.514477 0.920053 0.064534
O O15 0.626098 0.572858 0.759580
O O16 0.607548 0.392453 0.666667
O O17 0.485869 0.242935 0.500000
#
# Coordination Sequence:
#
# PCOD9576230 Si02
#       7
#     6   6   6   6   6   6   6
#     4   9  17  33  54  85 127 168 215 261 325 386
#     4   9  19  32  52  84 122 156 201 253 309 388
#     4   9  16  28  53  90 124 161 212 267 322 387
#     4   8  15  28  52  86 123 162 204 255 320 381
#     4  10  18  29  53  86 123 165 209 263 316 375
#     4  10  21  35  58  85 126 171 215 269 326 388
#     4  11  25  40  57  85 123 166 208 256 323 397
#
# _framework density 21.351794999999999
#
# number of rings (size 3 to 8) (size 9 to 14) (size 15 to 20)
#    0.000    2.571    1.429    1.286    2.000    1.714 
#    0.000    0.000    3.143    6.857    0.000   17.000 
#    0.000    0.000    1.429    0.000    0.000    0.000 
#
# Total GULP energy -233836.237311 kJ/mol
# GULP energy per Si atom -5567.529460 kJ/mol
# Density = 2.130320 g / cm^3
# Si number density = 21.351795 Si / 1000 Ang^3
#
#
#
# Elastic Constant Matrix: (Units=GPa)
#
#
# Indices 1 2 3 4 5 6 
#
# 1 92.2343 60.6088 43.3103 -0.0015 5.8317 0.0000
# 2 60.6088 92.2343 43.3103 0.0015 -5.8317 0.0000
# 3 43.3103 43.3103 42.8472 0.0000 0.0000 0.0000
# 4 -0.0015 0.0015 0.0000 24.9503 0.0000 -5.8317
# 5 5.8317 -5.8317 0.0000 0.0000 24.9503 -0.0015
# 6 0.0000 0.0000 0.0000 -5.8317 -0.0015 15.8127
#
#
#
# Elastic Compliance Matrix: (Units=1/GPa)
#
#
# Indices 1 2 3 4 5 6 
#
# 1 0.024960 -0.009643 -0.015483 0.000002 -0.008088 0.000000
# 2 -0.009643 0.024960 -0.015483 -0.000002 0.008088 0.000000
# 3 -0.015483 -0.015483 0.054639 0.000000 0.000000 0.000000
# 4 0.000002 -0.000002 0.000000 0.043861 0.000000 0.016176
# 5 -0.008088 0.008088 0.000000 0.000000 0.043861 0.000004
# 6 0.000000 0.000000 0.000000 0.016176 0.000004 0.069206
#
#
# Mechanical properties :
#
#
# Convention : Reuss Voigt Hill
#
# Bulk Modulus (GPa) = 42.84063 57.97496 50.40780
# Shear Modulus (GPa) = 14.26603 18.48174 16.37388
#
# Velocity S-wave (km/s) = 2.58765 2.94527 2.77223
# Velocity P-wave (km/s) = 5.38847 6.22715 5.82293
#
# Compressibility (1/GPa) = 0.02334233
#
# Stress axis : x y z
#
# Youngs Moduli (GPa) = 40.06409 40.06409 18.30199
#
# Poissons Ratio (x) = 0.38633 0.28336
# Poissons Ratio (y) = 0.38633 0.28336
# Poissons Ratio (z) = 0.62030 0.62030
#
# Static dielectric constant tensor:
#      x y z
#    x 1.930610 0.000000 0.000000 
#    y 0.000000 1.930610 0.000000 
#    z 0.000000 0.000000 1.775570 
# 
# From -- ./inp_files/2606.got.cif
#   From: 2010.05.17/outbox.cif.g08.bks.cpg/sg153_2_cif.got.tgz:2606.got - 2010.05.20 10:38:56.
