data_PCOD9576335
_publ_section_title
;
Structure prediction by ZEFSAII (Michael W. Deem and Ramdas Pophale) SiO2 
 PCOD9576335
Probable space group: P 32 1 2
;
_chemical_formula_sum "Si O2"
_cell_formula_units_Z 42
_cell_length_a 8.529042
_cell_length_b 8.529042
_cell_length_c 30.288253
_cell_angle_alpha 90.000000
_cell_angle_beta 90.000000
_cell_angle_gamma 120.000000
_cell_volume 1908.118587
_symmetry_space_group_name_H-M "P 32 1 2"
_symmetry_group_IT_number 153
_symmetry_cell_setting 'hexagonal'
loop_
_space_group_symop_operation_xyz
x,y,z
-y,x-y,2/3+z
-x+y,-x,1/3+z
-y,-x,1/3-z
-x+y,y,2/3-z
x,x-y,-z
loop_
_atom_site_type_symbol
_atom_site_label
_atom_site_fract_x
_atom_site_fract_y
_atom_site_fract_z
Si Si1 0.820803 0.017817 0.831446
Si Si2 0.711769 0.162421 0.234640
Si Si3 0.530266 0.232991 0.703080
Si Si4 0.487627 0.056539 0.154860
Si Si5 0.604982 0.926253 0.738036
Si Si6 0.467915 0.742544 0.876556
Si Si7 0.847783 0.812428 0.688619
O O1 0.730982 0.974071 0.782088
O O2 0.000610 0.001220 0.833334
O O3 0.877793 0.229572 0.837718
O O4 0.681990 0.885836 0.869380
O O5 0.567109 0.164062 0.267342
O O6 0.847240 0.125133 0.263478
O O7 0.804295 0.357287 0.211154
O O8 0.599050 0.029916 0.194909
O O9 0.686719 0.313281 0.666667
O O10 0.563576 0.087453 0.727938
O O11 0.344173 0.175894 0.678339
O O12 0.404291 0.871740 0.128142
O O13 0.402916 0.769365 0.749471
O O14 0.694932 0.867720 0.699429
O O15 0.397228 0.794455 0.833334
O O16 0.013905 0.986096 0.666667
#
# Coordination Sequence:
#
# PCOD9576335 Si02
#       7
#     6   6   6   6   6   6   6
#     4  11  24  39  68 110 147 185 225 282 367 450
#     4  10  22  41  69 100 136 180 226 286 350 429
#     4  10  22  45  69  92 134 183 236 283 348 414
#     4  11  22  40  69 106 142 177 224 282 370 428
#     4  11  23  44  68  97 139 184 234 293 353 421
#     4  10  23  39  64 100 143 182 221 283 356 427
#     4  11  26  44  70 101 132 188 245 298 347 413
#
# _framework density 22.011209000000001
#
# number of rings (size 3 to 8) (size 9 to 14) (size 15 to 20)
#    0.000    1.429    1.429    3.429   10.000    1.143 
#    0.000    5.000    0.000    0.000    0.000    0.000 
#    0.000    0.000    0.000    0.000    0.000    0.000 
#
# Total GULP energy -234056.289861 kJ/mol
# GULP energy per Si atom -5572.768806 kJ/mol
# Density = 2.196111 g / cm^3
# Si number density = 22.011209 Si / 1000 Ang^3
#
#
#
# Elastic Constant Matrix: (Units=GPa)
#
#
# Indices 1 2 3 4 5 6 
#
# 1 90.0202 46.4439 28.7557 -0.0007 0.7397 0.0000
# 2 46.4439 90.0202 28.7557 0.0007 -0.7397 0.0000
# 3 28.7557 28.7557 66.4037 0.0000 0.0000 0.0000
# 4 -0.0007 0.0007 0.0000 31.5122 0.0000 -0.7397
# 5 0.7397 -0.7397 0.0000 0.0000 31.5122 -0.0007
# 6 0.0000 0.0000 0.0000 -0.7397 -0.0007 21.7881
#
#
#
# Elastic Compliance Matrix: (Units=1/GPa)
#
#
# Indices 1 2 3 4 5 6 
#
# 1 0.015965 -0.007001 -0.003882 0.000000 -0.000539 0.000000
# 2 -0.007001 0.015965 -0.003882 0.000000 0.000539 0.000000
# 3 -0.003882 -0.003882 0.018421 0.000000 0.000000 0.000000
# 4 0.000000 0.000000 0.000000 0.031759 0.000000 0.001078
# 5 -0.000539 0.000539 0.000000 0.000000 0.031759 0.000001
# 6 0.000000 0.000000 0.000000 0.001078 0.000001 0.045933
#
#
# Mechanical properties :
#
#
# Convention : Reuss Voigt Hill
#
# Bulk Modulus (GPa) = 48.02596 50.48386 49.25491
# Shear Modulus (GPa) = 25.47465 26.46173 25.96819
#
# Velocity S-wave (km/s) = 3.40567 3.47103 3.43851
# Velocity P-wave (km/s) = 6.10991 6.24895 6.17982
#
# Compressibility (1/GPa) = 0.02082207
#
# Stress axis : x y z
#
# Youngs Moduli (GPa) = 62.63615 62.63615 54.28482
#
# Poissons Ratio (x) = 0.43854 0.21072
# Poissons Ratio (y) = 0.43854 0.21072
# Poissons Ratio (z) = 0.24314 0.24314
#
# Static dielectric constant tensor:
#      x y z
#    x 1.876940 0.000000 0.000000 
#    y 0.000000 1.876940 0.000000 
#    z 0.000000 0.000000 1.889060 
# 
# From -- ./inp_files/5179.got.cif
#   From: 2010.05.17/outbox.cif.g08.bks.cpg/sg153_3_cif.got.tgz:5179.got - 2010.05.20 10:38:56.
