data_PCOD9576029
_publ_section_title
;
Structure prediction by ZEFSAII (Michael W. Deem and Ramdas Pophale) SiO2 
 PCOD9576029
Probable space group: P 31 2 1
;
_chemical_formula_sum "Si O2"
_cell_formula_units_Z 24
_cell_length_a 13.575204
_cell_length_b 13.575204
_cell_length_c 7.091990
_cell_angle_alpha 90.000000
_cell_angle_beta 90.000000
_cell_angle_gamma 120.000000
_cell_volume 1131.856777
_symmetry_space_group_name_H-M "P 31 2 1"
_symmetry_group_IT_number 152
_symmetry_cell_setting 'hexagonal'
loop_
_space_group_symop_operation_xyz
x,y,z
-y,x-y,1/3+z
-x+y,-x,2/3+z
x-y,-y,2/3-z
-x,-x+y,1/3-z
y,x,-z
loop_
_atom_site_type_symbol
_atom_site_label
_atom_site_fract_x
_atom_site_fract_y
_atom_site_fract_z
Si Si1 0.404573 0.636546 0.679389
Si Si2 0.904347 0.129704 0.824348
Si Si3 0.092814 0.708902 0.434838
Si Si4 0.196898 0.364283 0.171683
O O1 0.389795 0.694620 0.864964
O O2 0.385571 0.514372 0.740759
O O3 0.520845 0.723903 0.575706
O O4 0.792534 0.127283 0.741632
O O5 0.000000 0.194706 0.666667
O O6 0.877331 0.000000 0.833334
O O7 0.904341 0.168795 0.038524
O O8 0.158145 0.793322 0.611377
O O9 0.042934 0.692999 0.879929
#
# Coordination Sequence:
#
# PCOD9576029 Si02
#       4
#     6   6   6   6
#     4  12  22  38  63  95 131 172 225 271 329 402
#     4  10  22  44  66  93 127 166 214 269 330 398
#     4  10  22  42  64  90 132 174 215 271 340 392
#     4  10  22  42  64  90 131 174 214 274 330 395
#
# _framework density 21.204097000000001
#
# number of rings (size 3 to 8) (size 9 to 14) (size 15 to 20)
#    0.000    1.500    5.000    0.000    0.000    1.000 
#   18.000    2.500    0.000    0.000    0.000    0.000 
#    0.000    0.000    0.000    0.000    0.000    0.000 
#
# Total GULP energy -133794.693287 kJ/mol
# GULP energy per Si atom -5574.778887 kJ/mol
# Density = 2.115584 g / cm^3
# Si number density = 21.204097 Si / 1000 Ang^3
#
#
#
# Elastic Constant Matrix: (Units=GPa)
#
#
# Indices 1 2 3 4 5 6 
#
# 1 67.0785 43.2620 39.1074 4.2586 0.0001 0.0000
# 2 43.2620 67.0785 39.1074 -4.2586 -0.0001 0.0000
# 3 39.1074 39.1074 135.4030 0.0000 0.0000 0.0000
# 4 4.2586 -4.2586 0.0000 40.1624 0.0000 -0.0001
# 5 0.0001 -0.0001 0.0000 0.0000 40.1624 4.2586
# 6 0.0000 0.0000 0.0000 -0.0001 4.2586 11.9082
#
#
#
# Elastic Compliance Matrix: (Units=1/GPa)
#
#
# Indices 1 2 3 4 5 6 
#
# 1 0.027519 -0.016123 -0.003291 -0.004628 0.000000 0.000000
# 2 -0.016123 0.027519 -0.003291 0.004628 0.000000 0.000000
# 3 -0.003291 -0.003291 0.009287 0.000000 0.000000 0.000000
# 4 -0.004628 0.004628 0.000000 0.025880 0.000000 0.000000
# 5 0.000000 0.000000 0.000000 0.000000 0.025880 -0.009255
# 6 0.000000 0.000000 0.000000 0.000000 -0.009255 0.087286
#
#
# Mechanical properties :
#
#
# Convention : Reuss Voigt Hill
#
# Bulk Modulus (GPa) = 52.87389 56.94596 54.90993
# Shear Modulus (GPa) = 19.60107 28.31882 23.95994
#
# Velocity S-wave (km/s) = 3.04369 3.65846 3.36515
# Velocity P-wave (km/s) = 6.11080 6.69031 6.40711
#
# Compressibility (1/GPa) = 0.01891293
#
# Stress axis : x y z
#
# Youngs Moduli (GPa) = 36.33805 36.33805 107.68176
#
# Poissons Ratio (x) = 0.58589 0.35442
# Poissons Ratio (y) = 0.58589 0.35442
# Poissons Ratio (z) = 0.11960 0.11960
#
# Static dielectric constant tensor:
#      x y z
#    x 1.749330 0.000000 0.000000 
#    y 0.000000 1.749330 0.000000 
#    z 0.000000 0.000000 1.694580 
# 
# From -- ./inp_files/158.got.cif
#   From: 2010.05.17/outbox.cif.g08.bks.cpg/sg152_1_cif.got.tgz:158.got - 2010.05.20 10:36:06.
