data_PCOD9576847
_publ_section_title
;
Structure prediction by ZEFSAII (Michael W. Deem and Ramdas Pophale) SiO2 
 PCOD9576847
Probable space group: R 3 2
;
_chemical_formula_sum "Si O2"
_cell_formula_units_Z 72
_cell_length_a 22.945817
_cell_length_b 22.945817
_cell_length_c 8.836511
_cell_angle_alpha 90.000000
_cell_angle_beta 90.000000
_cell_angle_gamma 120.000000
_cell_volume 4029.197032
_symmetry_space_group_name_H-M "R 3 2"
_symmetry_group_IT_number 155
_symmetry_cell_setting 'hexagonal'
loop_
_space_group_symop_operation_xyz
x,y,z
-y,x-y,z
-x+y,-x,z
x-y,-y,-z
-x,-x+y,-z
y,x,-z
2/3+x,1/3+y,1/3+z
2/3-y,1/3+x-y,1/3+z
2/3-x+y,1/3-x,1/3+z
2/3+x-y,1/3-y,1/3-z
2/3-x,1/3-x+y,1/3-z
2/3+y,1/3+x,1/3-z
1/3+x,2/3+y,2/3+z
1/3-y,2/3+x-y,2/3+z
1/3-x+y,2/3-x,2/3+z
1/3+x-y,2/3-y,2/3-z
1/3-x,2/3-x+y,2/3-z
1/3+y,2/3+x,2/3-z
loop_
_atom_site_type_symbol
_atom_site_label
_atom_site_fract_x
_atom_site_fract_y
_atom_site_fract_z
Si Si1 0.997337 0.871963 0.319783
Si Si2 0.604730 0.076672 0.447984
Si Si3 0.938132 0.196469 0.109246
Si Si4 0.670112 0.453794 0.517574
O O1 0.966154 0.797114 0.251828
O O2 0.949836 0.900432 0.259251
O O3 0.000000 0.872380 0.500000
O O4 0.069384 0.922709 0.246971
O O5 0.666667 0.102074 0.333334
O O6 0.539968 0.080260 0.383149
O O7 0.576027 0.000000 0.500000
O O8 0.906697 0.240030 0.166667
O O9 0.973732 0.169281 0.224389
O O10 0.000000 0.240914 0.000000
O O11 0.666667 0.446342 0.333334
#
# Coordination Sequence:
#
# PCOD9576847 Si02
#       4
#    18  18  18  18
#     4  11  21  34  54  87 120 144 178 231 282 333
#     4  10  21  38  59  80 107 146 190 229 275 336
#     4   9  18  34  55  78 102 135 179 222 262 316
#     4  10  19  34  57  81 112 151 182 216 274 343
#
# _framework density 17.869565999999999
#
# number of rings (size 3 to 8) (size 9 to 14) (size 15 to 20)
#    0.000    2.000    0.000    6.500    0.000    1.000 
#    0.000    7.500    0.000    3.500    0.000    0.000 
#    0.000    0.000    0.000    0.000    0.000    0.000 
#
# Total GULP energy -133651.403812 kJ/mol
# GULP energy per Si atom -5568.808492 kJ/mol
# Density = 1.782889 g / cm^3
# Si number density = 17.869566 Si / 1000 Ang^3
#
#
#
# Elastic Constant Matrix: (Units=GPa)
#
#
# Indices 1 2 3 4 5 6 
#
# 1 148.3411 77.8572 55.5838 2.9277 -0.0023 -0.0004
# 2 77.8572 148.3439 55.5874 -2.9275 -0.0003 -0.0001
# 3 55.5838 55.5874 121.8150 -0.0014 -0.0043 -0.0004
# 4 2.9277 -2.9275 -0.0014 13.6712 0.0001 0.0002
# 5 -0.0023 -0.0003 -0.0043 0.0001 13.6693 2.9271
# 6 -0.0004 -0.0001 -0.0004 0.0002 2.9271 35.2433
#
#
#
# Elastic Compliance Matrix: (Units=1/GPa)
#
#
# Indices 1 2 3 4 5 6 
#
# 1 0.010072 -0.004373 -0.002600 -0.003093 0.000001 0.000000
# 2 -0.004373 0.010072 -0.002601 0.003093 -0.000001 0.000000
# 3 -0.002600 -0.002601 0.010582 0.000001 0.000003 0.000000
# 4 -0.003093 0.003093 0.000001 0.074471 -0.000001 0.000000
# 5 0.000001 -0.000001 0.000003 -0.000001 0.074481 -0.006186
# 6 0.000000 0.000000 0.000000 0.000000 -0.006186 0.028888
#
#
# Mechanical properties :
#
#
# Convention : Reuss Voigt Hill
#
# Bulk Modulus (GPa) = 86.36810 88.50635 87.43723
# Shear Modulus (GPa) = 21.59146 27.81487 24.70316
#
# Velocity S-wave (km/s) = 3.47980 3.94959 3.72212
# Velocity P-wave (km/s) = 8.03634 8.39260 8.21640
#
# Compressibility (1/GPa) = 0.01157835
#
# Stress axis : x y z
#
# Youngs Moduli (GPa) = 99.28878 99.28890 94.49612
#
# Poissons Ratio (x) = 0.43416 0.24572
# Poissons Ratio (y) = 0.43416 0.24575
# Poissons Ratio (z) = 0.25818 0.25822
#
# Static dielectric constant tensor:
#      x y z
#    x 1.642720 0.000000 0.000000 
#    y 0.000000 1.642720 0.000000 
#    z 0.000000 0.000000 1.600290 
# 
# From -- ./inp_files/2404.got.cif
#   From: 2010.05.17/outbox.cif.g08.bks.cpg/sg155_2_cif.got.tgz:2404.got - 2010.05.20 10:44:35.
