data_PCOD9576441
_publ_section_title
;
Structure prediction by ZEFSAII (Michael W. Deem and Ramdas Pophale) SiO2 
 PCOD9576441
Probable space group: P 32 2 1
;
_chemical_formula_sum "Si O2"
_cell_formula_units_Z 42
_cell_length_a 15.340509
_cell_length_b 15.340509
_cell_length_c 9.134972
_cell_angle_alpha 90.000000
_cell_angle_beta 90.000000
_cell_angle_gamma 120.000000
_cell_volume 1861.732978
_symmetry_space_group_name_H-M "P 32 2 1"
_symmetry_group_IT_number 154
_symmetry_cell_setting 'hexagonal'
loop_
_space_group_symop_operation_xyz
x,y,z
-y,x-y,2/3+z
-x+y,-x,1/3+z
x-y,-y,1/3-z
-x,-x+y,2/3-z
y,x,-z
loop_
_atom_site_type_symbol
_atom_site_label
_atom_site_fract_x
_atom_site_fract_y
_atom_site_fract_z
Si Si1 0.519733 0.550365 0.168793
Si Si2 0.772218 0.468891 0.166255
Si Si3 0.958254 0.248512 0.101424
Si Si4 0.261645 0.571195 0.859878
Si Si5 0.685516 0.840569 0.923195
Si Si6 0.260409 0.206994 0.356784
Si Si7 0.640045 0.130462 0.023335
O O1 0.413439 0.545631 0.159097
O O2 0.603506 0.649973 0.250521
O O3 0.506501 0.451133 0.250789
O O4 0.554582 0.554582 0.000000
O O5 0.739821 0.489096 0.325213
O O6 0.675602 0.366753 0.113706
O O7 0.799599 0.566938 0.074631
O O8 0.903442 0.199448 0.256561
O O9 0.893711 0.157732 0.989764
O O10 0.073709 0.281682 0.127962
O O11 0.284830 0.517170 0.730453
O O12 0.170419 0.594382 0.850773
O O13 0.745433 0.961388 0.910678
O O14 0.192927 0.192927 0.500000
O O15 0.374571 0.292428 0.396051
#
# Coordination Sequence:
#
# PCOD9576441 Si02
#       7
#     6   6   6   6   6   6   6
#     4  12  20  35  60  89 117 160 204 246 296 367
#     4  11  20  35  57  86 122 154 204 241 293 356
#     4  10  20  36  60  90 114 153 205 254 302 361
#     4  10  22  34  57  82 121 164 191 239 288 366
#     4  10  19  36  62  89 114 150 202 255 301 353
#     4  10  22  39  60  91 118 149 200 256 310 356
#     4  11  22  39  53  89 122 159 196 237 306 360
#
# _framework density 22.559626000000002
#
# number of rings (size 3 to 8) (size 9 to 14) (size 15 to 20)
#    0.000    1.429    4.286    3.429    0.000    3.429 
#    2.571    0.000    0.000    0.000   78.000    0.000 
#    0.000    0.000    0.000    0.000    0.000    0.000 
#
# Total GULP energy -234758.351477 kJ/mol
# GULP energy per Si atom -5589.484559 kJ/mol
# Density = 2.250828 g / cm^3
# Si number density = 22.559626 Si / 1000 Ang^3
#
#
#
# Elastic Constant Matrix: (Units=GPa)
#
#
# Indices 1 2 3 4 5 6 
#
# 1 117.9836 37.0806 1.6242 -4.8020 0.0000 0.0000
# 2 37.0806 117.9836 1.6242 4.8020 0.0000 0.0000
# 3 1.6242 1.6242 17.4790 0.0000 0.0000 0.0000
# 4 -4.8020 4.8020 0.0000 19.3791 0.0000 0.0000
# 5 0.0000 0.0000 0.0000 0.0000 19.3791 -4.8020
# 6 0.0000 0.0000 0.0000 0.0000 -4.8020 40.4515
#
#
#
# Elastic Compliance Matrix: (Units=1/GPa)
#
#
# Indices 1 2 3 4 5 6 
#
# 1 0.009598 -0.003137 -0.000600 0.003156 0.000000 0.000000
# 2 -0.003137 0.009598 -0.000600 -0.003156 0.000000 0.000000
# 3 -0.000600 -0.000600 0.057323 0.000000 0.000000 0.000000
# 4 0.003156 -0.003156 0.000000 0.053166 0.000000 0.000000
# 5 0.000000 0.000000 0.000000 0.000000 0.053166 0.006311
# 6 0.000000 0.000000 0.000000 0.000000 0.006311 0.025470
#
#
# Mechanical properties :
#
#
# Convention : Reuss Voigt Hill
#
# Bulk Modulus (GPa) = 14.73957 37.12270 25.93114
# Shear Modulus (GPa) = 20.86708 30.04976 25.45842
#
# Velocity S-wave (km/s) = 3.04464 3.65364 3.36295
# Velocity P-wave (km/s) = 4.34828 5.85575 5.15739
#
# Compressibility (1/GPa) = 0.06784456
#
# Stress axis : x y z
#
# Youngs Moduli (GPa) = 104.18508 104.18508 17.44492
#
# Poissons Ratio (x) = 0.32681 0.01047
# Poissons Ratio (y) = 0.32681 0.01047
# Poissons Ratio (z) = 0.06256 0.06256
#
# Static dielectric constant tensor:
#      x y z
#    x 1.844100 0.000000 0.000000 
#    y 0.000000 1.844100 0.000000 
#    z 0.000000 0.000000 1.924360 
# 
# From -- ./inp_files/1742.got.cif
#   From: 2010.05.17/outbox.cif.g08.bks.cpg/sg154_1_cif.got.tgz:1742.got - 2010.05.20 10:41:43.
