data_PCOD9576254
_publ_section_title
;
Structure prediction by ZEFSAII (Michael W. Deem and Ramdas Pophale) SiO2 
 PCOD9576254
Probable space group: P 32 1 2
;
_chemical_formula_sum "Si O2"
_cell_formula_units_Z 30
_cell_length_a 7.392771
_cell_length_b 7.392771
_cell_length_c 25.915858
_cell_angle_alpha 90.000000
_cell_angle_beta 90.000000
_cell_angle_gamma 120.000000
_cell_volume 1226.621946
_symmetry_space_group_name_H-M "P 32 1 2"
_symmetry_group_IT_number 153
_symmetry_cell_setting 'hexagonal'
loop_
_space_group_symop_operation_xyz
x,y,z
-y,x-y,2/3+z
-x+y,-x,1/3+z
-y,-x,1/3-z
-x+y,y,2/3-z
x,x-y,-z
loop_
_atom_site_type_symbol
_atom_site_label
_atom_site_fract_x
_atom_site_fract_y
_atom_site_fract_z
Si Si1 0.911337 0.864764 0.714811
Si Si2 0.264030 0.963430 0.788310
Si Si3 0.986938 0.477063 0.085228
Si Si4 0.653388 0.306775 0.833334
Si Si5 0.851236 0.336623 0.354299
Si Si6 0.299202 0.700799 0.166667
O O1 0.670927 0.742510 0.731388
O O2 0.950504 0.679627 0.691739
O O3 0.064133 0.959503 0.763564
O O4 0.977986 0.022015 0.666667
O O5 0.212387 0.746511 0.813124
O O6 0.403738 0.144126 0.829651
O O7 0.420129 0.008359 0.738805
O O8 0.779812 0.325318 0.119333
O O9 0.888959 0.555421 0.042099
O O10 0.151534 0.668519 0.119016
O O11 0.721793 0.443585 0.333334
#
# Coordination Sequence:
#
# PCOD9576254 Si02
#       6
#     6   6   6   3   6   3
#     4   9  17  34  58  80 104 146 192 239 289 337
#     4   9  18  33  53  80 111 141 189 238 286 350
#     4  10  19  34  55  79 116 154 190 237 290 349
#     4   9  18  34  54  79 112 148 182 231 294 349
#     4   8  16  33  55  75 101 143 187 229 283 341
#     4  11  22  34  50  83 118 150 192 237 282 343
#
# _framework density 24.457415999999998
#
# number of rings (size 3 to 8) (size 9 to 14) (size 15 to 20)
#    0.000    2.800    0.000    1.200    0.000    0.000 
#    0.000   28.000    0.000    0.000    0.000    0.000 
#    0.000    0.000    0.000    0.000    0.000    0.000 
#
# Total GULP energy -167108.306402 kJ/mol
# GULP energy per Si atom -5570.276880 kJ/mol
# Density = 2.440175 g / cm^3
# Si number density = 24.457416 Si / 1000 Ang^3
#
#
#
# Elastic Constant Matrix: (Units=GPa)
#
#
# Indices 1 2 3 4 5 6 
#
# 1 54.5571 24.1283 9.3713 -0.0003 -0.9097 0.0000
# 2 24.1283 54.5571 9.3713 0.0003 0.9097 0.0000
# 3 9.3713 9.3713 66.5492 0.0000 0.0000 0.0000
# 4 -0.0003 0.0003 0.0000 21.8279 0.0000 0.9097
# 5 -0.9097 0.9097 0.0000 0.0000 21.8279 -0.0003
# 6 0.0000 0.0000 0.0000 0.9097 -0.0003 15.2144
#
#
#
# Elastic Compliance Matrix: (Units=1/GPa)
#
#
# Indices 1 2 3 4 5 6 
#
# 1 0.023048 -0.009898 -0.001852 0.000000 0.001373 0.000000
# 2 -0.009898 0.023048 -0.001852 0.000000 -0.001373 0.000000
# 3 -0.001852 -0.001852 0.015548 0.000000 0.000000 0.000000
# 4 0.000000 0.000000 0.000000 0.045927 0.000000 -0.002746
# 5 0.001373 -0.001373 0.000000 0.000000 0.045927 0.000001
# 6 0.000000 0.000000 0.000000 -0.002746 0.000001 0.065891
#
#
# Mechanical properties :
#
#
# Convention : Reuss Voigt Hill
#
# Bulk Modulus (GPa) = 29.03527 29.04501 29.04014
# Shear Modulus (GPa) = 19.37438 20.62688 20.00063
#
# Velocity S-wave (km/s) = 2.81760 2.90725 2.86278
# Velocity P-wave (km/s) = 4.74159 4.81363 4.77775
#
# Compressibility (1/GPa) = 0.03444087
#
# Stress axis : x y z
#
# Youngs Moduli (GPa) = 43.38802 43.38802 64.31700
#
# Poissons Ratio (x) = 0.42945 0.11910
# Poissons Ratio (y) = 0.42945 0.11910
# Poissons Ratio (z) = 0.08034 0.08034
#
# Static dielectric constant tensor:
#      x y z
#    x 1.998240 0.000000 0.000000 
#    y 0.000000 1.998240 0.000000 
#    z 0.000000 0.000000 2.246690 
# 
# From -- ./inp_files/4687.got.cif
#   From: 2010.05.17/outbox.cif.g08.bks.cpg/sg153_3_cif.got.tgz:4687.got - 2010.05.20 10:38:56.
