data_PCOD9576338
_publ_section_title
;
Structure prediction by ZEFSAII (Michael W. Deem and Ramdas Pophale) SiO2 
 PCOD9576338
Probable space group: P 32 1 2
;
_chemical_formula_sum "Si O2"
_cell_formula_units_Z 42
_cell_length_a 8.524156
_cell_length_b 8.524156
_cell_length_c 31.262234
_cell_angle_alpha 90.000000
_cell_angle_beta 90.000000
_cell_angle_gamma 120.000000
_cell_volume 1967.222212
_symmetry_space_group_name_H-M "P 32 1 2"
_symmetry_group_IT_number 153
_symmetry_cell_setting 'hexagonal'
loop_
_space_group_symop_operation_xyz
x,y,z
-y,x-y,2/3+z
-x+y,-x,1/3+z
-y,-x,1/3-z
-x+y,y,2/3-z
x,x-y,-z
loop_
_atom_site_type_symbol
_atom_site_label
_atom_site_fract_x
_atom_site_fract_y
_atom_site_fract_z
Si Si1 0.980824 0.369289 0.675191
Si Si2 0.931289 0.675082 0.642632
Si Si3 0.120639 0.912944 0.560185
Si Si4 0.924369 0.469075 0.234057
Si Si5 0.297033 0.061351 0.177045
Si Si6 0.544210 0.121609 0.258765
Si Si7 0.189054 0.219496 0.618241
O O1 0.769798 0.230203 0.666667
O O2 0.022161 0.560077 0.656987
O O3 0.010933 0.401031 0.726194
O O4 0.074315 0.281219 0.647024
O O5 0.722707 0.553346 0.628853
O O6 0.908773 0.773743 0.683648
O O7 0.033845 0.781060 0.600534
O O8 0.978667 0.806397 0.522135
O O9 0.330452 0.964571 0.554177
O O10 0.114628 0.094039 0.575601
O O11 0.881231 0.567789 0.196180
O O12 0.733797 0.302816 0.249503
O O13 0.414042 0.067073 0.217985
O O14 0.140365 0.859636 0.166667
O O15 0.602563 0.977211 0.271968
#
# Coordination Sequence:
#
# PCOD9576338 Si02
#       7
#     6   6   6   6   6   6   6
#     4  12  23  38  70 105 138 176 230 287 350 442
#     4  11  20  42  64 104 137 174 220 286 361 428
#     4  10  24  44  70  93 144 182 231 295 349 423
#     4  11  24  46  67 100 134 188 233 283 359 422
#     4  11  27  44  67  98 133 183 245 290 347 418
#     4  10  22  45  69  92 138 181 224 291 344 423
#     4  11  23  39  70 104 138 179 231 279 369 420
#
# _framework density 21.349902
#
# number of rings (size 3 to 8) (size 9 to 14) (size 15 to 20)
#    0.000    1.143    4.286    2.143    6.000    3.429 
#    2.571    2.857    0.000    0.000    0.000    0.000 
#    0.000    0.000    0.000    0.000    0.000    0.000 
#
# Total GULP energy -234442.915738 kJ/mol
# GULP energy per Si atom -5581.974184 kJ/mol
# Density = 2.130131 g / cm^3
# Si number density = 21.349902 Si / 1000 Ang^3
#
#
#
# Elastic Constant Matrix: (Units=GPa)
#
#
# Indices 1 2 3 4 5 6 
#
# 1 72.7102 20.4712 32.9078 -0.0001 -7.9321 0.0000
# 2 20.4712 72.7102 32.9078 0.0001 7.9321 0.0000
# 3 32.9078 32.9078 105.5187 0.0000 0.0000 0.0000
# 4 -0.0001 0.0001 0.0000 39.9898 0.0000 7.9321
# 5 -7.9321 7.9321 0.0000 0.0000 39.9898 -0.0001
# 6 0.0000 0.0000 0.0000 7.9321 -0.0001 26.1195
#
#
#
# Elastic Compliance Matrix: (Units=1/GPa)
#
#
# Indices 1 2 3 4 5 6 
#
# 1 0.017067 -0.003303 -0.004292 0.000000 0.004040 0.000000
# 2 -0.003303 0.017067 -0.004292 0.000000 -0.004040 0.000000
# 3 -0.004292 -0.004292 0.012154 0.000000 0.000000 0.000000
# 4 0.000000 0.000000 0.000000 0.026609 0.000000 -0.008081
# 5 0.004040 -0.004040 0.000000 0.000000 0.026609 0.000000
# 6 0.000000 0.000000 0.000000 -0.008081 0.000000 0.040740
#
#
# Mechanical properties :
#
#
# Convention : Reuss Voigt Hill
#
# Bulk Modulus (GPa) = 44.42110 47.05695 45.73903
# Shear Modulus (GPa) = 29.15019 32.19666 30.67343
#
# Velocity S-wave (km/s) = 3.69908 3.88757 3.79450
# Velocity P-wave (km/s) = 6.25265 6.49920 6.37712
#
# Compressibility (1/GPa) = 0.02251182
#
# Stress axis : x y z
#
# Youngs Moduli (GPa) = 58.59375 58.59375 82.27543
#
# Poissons Ratio (x) = 0.19354 0.35316
# Poissons Ratio (y) = 0.19354 0.35316
# Poissons Ratio (z) = 0.25151 0.25151
#
# Static dielectric constant tensor:
#      x y z
#    x 1.802340 0.000000 0.000000 
#    y 0.000000 1.802340 0.000000 
#    z 0.000000 0.000000 1.818210 
# 
# From -- ./inp_files/5168.got.cif
#   From: 2010.05.17/outbox.cif.g08.bks.cpg/sg153_3_cif.got.tgz:5168.got - 2010.05.20 10:38:56.
