data_PCOD9576375
_publ_section_title
;
Structure prediction by ZEFSAII (Michael W. Deem and Ramdas Pophale) SiO2 
 PCOD9576375
Probable space group: P 32 1 2
;
_chemical_formula_sum "Si O2"
_cell_formula_units_Z 45
_cell_length_a 15.000000
_cell_length_b 15.000000
_cell_length_c 12.000000
_cell_angle_alpha 90.000000
_cell_angle_beta 90.000000
_cell_angle_gamma 120.000000
_cell_volume 2338.268590
_symmetry_space_group_name_H-M "P 32 1 2"
_symmetry_group_IT_number 153
_symmetry_cell_setting 'hexagonal'
loop_
_space_group_symop_operation_xyz
x,y,z
-y,x-y,2/3+z
-x+y,-x,1/3+z
-y,-x,1/3-z
-x+y,y,2/3-z
x,x-y,-z
loop_
_atom_site_type_symbol
_atom_site_label
_atom_site_fract_x
_atom_site_fract_y
_atom_site_fract_z
Si Si1 0.727613 0.084979 0.021956
Si Si2 0.484027 0.820057 0.912180
Si Si3 0.021500 0.837781 0.841068
Si Si4 0.703460 0.744276 0.185553
Si Si5 0.729968 0.664309 0.647859
Si Si6 0.726371 0.085083 0.608736
Si Si7 0.026477 0.513239 0.000000
Si Si8 0.500868 0.513661 0.914599
O O1 0.821111 0.199278 0.031795
O O2 0.711600 0.049856 0.893563
O O3 0.762003 0.010281 0.079472
O O4 0.623270 0.061909 0.079753
O O5 0.385720 0.771439 0.833334
O O6 0.588797 0.867268 0.840755
O O7 0.485821 0.742911 0.000000
O O8 0.479029 0.908898 0.983989
O O9 0.138374 0.924154 0.825399
O O10 0.936716 0.873432 0.833334
O O11 0.005436 0.771140 0.953801
O O12 0.721841 0.724177 0.311146
O O13 0.755770 0.681520 0.517001
O O14 0.610952 0.579208 0.661853
O O15 0.806766 0.193235 0.666667
O O16 0.607809 0.056635 0.600912
O O17 0.070704 0.538150 0.872540
#
# Coordination Sequence:
#
# PCOD9576375 Si02
#       8
#     6   6   6   6   6   6   3   6
#     4  10  19  37  64  87 121 158 206 252 308 364
#     4  11  23  42  65  97 125 166 218 265 317 384
#     4  10  21  38  62  94 116 159 215 259 309 367
#     4  11  21  39  66  87 124 165 211 256 320 374
#     4  10  21  37  59  88 126 158 202 251 306 373
#     4  11  22  40  60  89 127 169 203 248 323 381
#     4  10  20  36  60  90 122 158 202 244 312 368
#     4  10  21  39  64  90 122 165 205 258 311 380
#
# _framework density 19.245009
#
# number of rings (size 3 to 8) (size 9 to 14) (size 15 to 20)
#    0.000    1.600    4.000    2.000    0.000    0.533 
#    2.400    2.667    0.000    0.000    0.000    0.000 
#    0.000    0.000    0.000    0.000    0.000    0.000 
#
# Total GULP energy -250765.755866 kJ/mol
# GULP energy per Si atom -5572.572353 kJ/mol
# Density = 1.920121 g / cm^3
# Si number density = 19.245009 Si / 1000 Ang^3
#
#
#
# Elastic Constant Matrix: (Units=GPa)
#
#
# Indices 1 2 3 4 5 6 
#
# 1 59.8456 22.2899 14.3819 0.0001 1.4068 0.0000
# 2 22.2899 59.8456 14.3819 -0.0001 -1.4068 0.0000
# 3 14.3819 14.3819 110.6683 0.0000 0.0000 0.0000
# 4 0.0001 -0.0001 0.0000 22.9435 0.0000 -1.4068
# 5 1.4068 -1.4068 0.0000 0.0000 22.9435 0.0001
# 6 0.0000 0.0000 0.0000 -1.4068 0.0001 18.7778
#
#
#
# Elastic Compliance Matrix: (Units=1/GPa)
#
#
# Indices 1 2 3 4 5 6 
#
# 1 0.019753 -0.006997 -0.001658 0.000000 -0.001640 0.000000
# 2 -0.006997 0.019753 -0.001658 0.000000 0.001640 0.000000
# 3 -0.001658 -0.001658 0.009467 0.000000 0.000000 0.000000
# 4 0.000000 0.000000 0.000000 0.043786 0.000000 0.003280
# 5 -0.001640 0.001640 0.000000 0.000000 0.043786 0.000000
# 6 0.000000 0.000000 0.000000 0.003280 0.000000 0.053500
#
#
# Mechanical properties :
#
#
# Convention : Reuss Voigt Hill
#
# Bulk Modulus (GPa) = 35.27672 36.94075 36.10874
# Shear Modulus (GPa) = 22.71495 24.88670 23.80082
#
# Velocity S-wave (km/s) = 3.43928 3.59994 3.52053
# Velocity P-wave (km/s) = 5.84309 6.04285 5.94381
#
# Compressibility (1/GPa) = 0.02834731
#
# Stress axis : x y z
#
# Youngs Moduli (GPa) = 50.62583 50.62583 105.63185
#
# Poissons Ratio (x) = 0.35424 0.17510
# Poissons Ratio (y) = 0.35424 0.17510
# Poissons Ratio (z) = 0.08392 0.08392
#
# Static dielectric constant tensor:
#      x y z
#    x 1.664510 0.000000 0.000000 
#    y 0.000000 1.664510 0.000000 
#    z 0.000000 0.000000 1.771300 
# 
# From -- ./inp_files/2659.got.cif
#   From: 2010.05.17/outbox.ucp.g08.bks.cvg/sg153_2_cif.got.tgz:2659.got - 2010.06.11 15:13:23.
