data_PCOD9576272
_publ_section_title
;
Structure prediction by ZEFSAII (Michael W. Deem and Ramdas Pophale) SiO2 
 PCOD9576272
Probable space group: P 32 1 2
;
_chemical_formula_sum "Si O2"
_cell_formula_units_Z 27
_cell_length_a 14.329765
_cell_length_b 14.329765
_cell_length_c 8.063998
_cell_angle_alpha 90.000000
_cell_angle_beta 90.000000
_cell_angle_gamma 120.000000
_cell_volume 1434.033113
_symmetry_space_group_name_H-M "P 32 1 2"
_symmetry_group_IT_number 153
_symmetry_cell_setting 'hexagonal'
loop_
_space_group_symop_operation_xyz
x,y,z
-y,x-y,2/3+z
-x+y,-x,1/3+z
-y,-x,1/3-z
-x+y,y,2/3-z
x,x-y,-z
loop_
_atom_site_type_symbol
_atom_site_label
_atom_site_fract_x
_atom_site_fract_y
_atom_site_fract_z
Si Si1 0.157421 0.718709 0.332460
Si Si2 0.395364 0.089860 0.940251
Si Si3 0.697637 0.302364 0.166667
Si Si4 0.480469 0.398932 0.415512
Si Si5 0.156147 0.633679 0.831271
O O1 0.208624 0.791377 0.166667
O O2 0.238350 0.773954 0.485888
O O3 0.161833 0.608274 0.303036
O O4 0.036250 0.695332 0.362991
O O5 0.426967 0.101497 0.746087
O O6 0.378262 0.189131 0.000000
O O7 0.496296 0.088965 0.028626
O O8 0.674952 0.349903 0.333334
O O9 0.657805 0.179247 0.205896
O O10 0.400669 0.432352 0.495335
O O11 0.183017 0.591509 0.000000
#
# Coordination Sequence:
#
# PCOD9576272 Si02
#       5
#     6   6   3   6   6
#     4   9  19  36  53  80 111 153 188 241 297 360
#     4  10  20  36  54  79 113 152 194 235 296 358
#     4  12  22  34  56  82 116 158 194 234 292 354
#     4  10  20  33  52  81 113 145 187 240 285 357
#     4   9  18  35  49  77 113 144 185 230 292 355
#
# _framework density 18.828016000000002
#
# number of rings (size 3 to 8) (size 9 to 14) (size 15 to 20)
#    0.000    2.222    0.000    4.000    0.000    4.444 
#   44.000    0.000    0.000    0.000    8.667    0.000 
#    0.000    0.000    0.000    0.000    0.000    0.000 
#
# Total GULP energy -150346.531080 kJ/mol
# GULP energy per Si atom -5568.390040 kJ/mol
# Density = 1.878516 g / cm^3
# Si number density = 18.828016 Si / 1000 Ang^3
#
#
#
# Elastic Constant Matrix: (Units=GPa)
#
#
# Indices 1 2 3 4 5 6 
#
# 1 114.1604 66.4776 20.9381 0.0000 -1.4093 0.0000
# 2 66.4776 114.1604 20.9381 0.0000 1.4093 0.0000
# 3 20.9381 20.9381 48.7453 0.0000 0.0000 0.0000
# 4 0.0000 0.0000 0.0000 24.8338 0.0000 1.4093
# 5 -1.4093 1.4093 0.0000 0.0000 24.8338 0.0000
# 6 0.0000 0.0000 0.0000 1.4093 0.0000 23.8414
#
#
#
# Elastic Compliance Matrix: (Units=1/GPa)
#
#
# Indices 1 2 3 4 5 6 
#
# 1 0.013595 -0.007447 -0.002641 0.000000 0.001194 0.000000
# 2 -0.007447 0.013595 -0.002641 0.000000 -0.001194 0.000000
# 3 -0.002641 -0.002641 0.022784 0.000000 0.000000 0.000000
# 4 0.000000 0.000000 0.000000 0.040403 0.000000 -0.002388
# 5 0.001194 -0.001194 0.000000 0.000000 0.040403 0.000000
# 6 0.000000 0.000000 0.000000 -0.002388 0.000000 0.042085
#
#
# Mechanical properties :
#
#
# Convention : Reuss Voigt Hill
#
# Bulk Modulus (GPa) = 40.78915 54.86372 47.82644
# Shear Modulus (GPa) = 24.21358 25.94929 25.08144
#
# Velocity S-wave (km/s) = 3.59003 3.71648 3.65380
# Velocity P-wave (km/s) = 6.23663 6.90065 6.57702
#
# Compressibility (1/GPa) = 0.02451632
#
# Stress axis : x y z
#
# Youngs Moduli (GPa) = 73.55475 73.55475 43.89135
#
# Poissons Ratio (x) = 0.54777 0.11591
# Poissons Ratio (y) = 0.54777 0.11591
# Poissons Ratio (z) = 0.19425 0.19425
#
# Static dielectric constant tensor:
#      x y z
#    x 1.701790 0.000000 0.000000 
#    y 0.000000 1.701790 0.000000 
#    z 0.000000 0.000000 1.818380 
# 
# From -- ./inp_files/1547.got.cif
#   From: 2010.05.17/outbox.cif.g08.bks.cpg/sg153_1_cif.got.tgz:1547.got - 2010.05.20 10:38:56.
