data_PCOD9576534
_publ_section_title
;
Structure prediction by ZEFSAII (Michael W. Deem and Ramdas Pophale) SiO2 
 PCOD9576534
Probable space group: P 32 2 1
;
_chemical_formula_sum "Si O2"
_cell_formula_units_Z 36
_cell_length_a 7.853517
_cell_length_b 7.853517
_cell_length_c 25.713206
_cell_angle_alpha 90.000000
_cell_angle_beta 90.000000
_cell_angle_gamma 120.000000
_cell_volume 1373.457538
_symmetry_space_group_name_H-M "P 32 2 1"
_symmetry_group_IT_number 154
_symmetry_cell_setting 'hexagonal'
loop_
_space_group_symop_operation_xyz
x,y,z
-y,x-y,2/3+z
-x+y,-x,1/3+z
x-y,-y,1/3-z
-x,-x+y,2/3-z
y,x,-z
loop_
_atom_site_type_symbol
_atom_site_label
_atom_site_fract_x
_atom_site_fract_y
_atom_site_fract_z
Si Si1 0.000000 0.563599 0.333334
Si Si2 0.249362 0.079156 0.923616
Si Si3 0.000000 0.846019 0.833334
Si Si4 0.887030 0.741546 0.648131
Si Si5 0.415391 0.394636 0.222747
Si Si6 0.280756 0.688080 0.834477
Si Si7 0.443173 0.633343 0.619637
O O1 0.924750 0.633667 0.283025
O O2 0.799751 0.395205 0.357889
O O3 0.124144 0.024552 0.871766
O O4 0.411651 0.011910 0.915783
O O5 0.082513 0.949892 0.966251
O O6 0.838743 0.627966 0.854823
O O7 0.005698 0.749850 0.596619
O O8 0.672139 0.701967 0.629344
O O9 0.868188 0.550066 0.677062
O O10 0.350556 0.493619 0.178109
O O11 0.518400 0.278424 0.199649
O O12 0.200249 0.603377 0.892135
#
# Coordination Sequence:
#
# PCOD9576534 Si02
#       7
#     3   6   3   6   6   6   6
#     4  10  22  40  64  98 126 166 208 270 324 374
#     4  10  22  41  63  91 128 165 205 269 315 380
#     4  10  20  44  66  86 128 170 212 260 324 378
#     4  11  19  40  68  90 116 168 211 263 307 385
#     4  11  23  39  65  92 129 165 214 264 320 375
#     4  11  24  41  61  95 126 168 213 265 318 390
#     4  11  21  40  67  92 126 161 217 258 321 383
#
# _framework density 26.211224000000001
#
# number of rings (size 3 to 8) (size 9 to 14) (size 15 to 20)
#    0.000    1.333    6.667    1.000    2.333    0.000 
#   12.000    0.833    0.000    2.000    0.000    0.000 
#    0.000    0.000    0.000    0.000    0.000    0.000 
#
# Total GULP energy -200982.932323 kJ/mol
# GULP energy per Si atom -5582.859231 kJ/mol
# Density = 2.615157 g / cm^3
# Si number density = 26.211224 Si / 1000 Ang^3
#
#
#
# Elastic Constant Matrix: (Units=GPa)
#
#
# Indices 1 2 3 4 5 6 
#
# 1 34.7855 -4.6855 18.5349 12.9288 -0.0007 0.0000
# 2 -4.6855 34.7855 18.5349 -12.9288 0.0007 0.0000
# 3 18.5349 18.5349 85.0348 0.0000 0.0000 0.0000
# 4 12.9288 -12.9288 0.0000 38.7669 0.0000 0.0007
# 5 -0.0007 0.0007 0.0000 0.0000 38.7669 12.9288
# 6 0.0000 0.0000 0.0000 0.0007 12.9288 19.7355
#
#
#
# Elastic Compliance Matrix: (Units=1/GPa)
#
#
# Indices 1 2 3 4 5 6 
#
# 1 0.038915 0.006498 -0.009899 -0.010811 0.000001 0.000000
# 2 0.006498 0.038915 -0.009899 0.010811 -0.000001 0.000000
# 3 -0.009899 -0.009899 0.016075 0.000000 0.000000 0.000000
# 4 -0.010811 0.010811 0.000000 0.033006 0.000000 -0.000001
# 5 0.000001 -0.000001 0.000000 0.000000 0.033006 -0.021623
# 6 0.000000 0.000000 0.000000 -0.000001 -0.021623 0.064835
#
#
# Mechanical properties :
#
#
# Convention : Reuss Voigt Hill
#
# Bulk Modulus (GPa) = 14.85727 24.37491 19.61609
# Shear Modulus (GPa) = 18.26228 27.60196 22.93212
#
# Velocity S-wave (km/s) = 2.64244 3.24861 2.96107
# Velocity P-wave (km/s) = 3.87176 4.83641 4.38072
#
# Compressibility (1/GPa) = 0.06730711
#
# Stress axis : x y z
#
# Youngs Moduli (GPa) = 25.69675 25.69675 62.20819
#
# Poissons Ratio (x) = -0.16697 0.61578
# Poissons Ratio (y) = -0.16697 0.61578
# Poissons Ratio (z) = 0.25436 0.25436
#
# Static dielectric constant tensor:
#      x y z
#    x 2.183130 0.000000 0.000000 
#    y 0.000000 2.183130 0.000000 
#    z 0.000000 0.000000 2.069890 
# 
# From -- ./inp_files/3501.got.cif
#   From: 2010.05.17/outbox.cif.g08.bks.cpg/sg154_2_cif.got.tgz:3501.got - 2010.05.20 10:41:43.
