data_PCOD9576262
_publ_section_title
;
Structure prediction by ZEFSAII (Michael W. Deem and Ramdas Pophale) SiO2 
 PCOD9576262
Probable space group: P 32 1 2
;
_chemical_formula_sum "Si O2"
_cell_formula_units_Z 24
_cell_length_a 15.555952
_cell_length_b 15.555952
_cell_length_c 5.298455
_cell_angle_alpha 90.000000
_cell_angle_beta 90.000000
_cell_angle_gamma 120.000000
_cell_volume 1110.383682
_symmetry_space_group_name_H-M "P 32 1 2"
_symmetry_group_IT_number 153
_symmetry_cell_setting 'hexagonal'
loop_
_space_group_symop_operation_xyz
x,y,z
-y,x-y,2/3+z
-x+y,-x,1/3+z
-y,-x,1/3-z
-x+y,y,2/3-z
x,x-y,-z
loop_
_atom_site_type_symbol
_atom_site_label
_atom_site_fract_x
_atom_site_fract_y
_atom_site_fract_z
Si Si1 0.929031 0.125044 0.420433
Si Si2 0.437244 0.977751 0.094421
Si Si3 0.113774 0.331441 0.577627
Si Si4 0.419781 0.163977 0.248619
O O1 0.930642 0.069359 0.666667
O O2 0.821805 0.121720 0.416787
O O3 0.016026 0.237437 0.456998
O O4 0.927961 0.072040 0.166667
O O5 0.466853 0.933707 0.333334
O O6 0.441890 0.075427 0.216885
O O7 0.499715 0.999430 0.833334
O O8 0.324592 0.910510 0.006155
O O9 0.184470 0.368939 0.333334
O O10 0.150677 0.301353 0.833334
O O11 0.457783 0.228892 0.500000
O O12 0.459179 0.229590 0.000000
#
# Coordination Sequence:
#
# PCOD9576262 Si02
#       4
#     6   6   6   6
#     4  10  19  36  67  95 134 172 226 270 347 393
#     4  12  25  42  68 108 140 185 241 295 341 427
#     4  12  25  42  68 108 140 185 241 295 341 427
#     4  10  19  36  67  95 134 172 226 270 347 393
#
# _framework density 21.614149000000001
#
# number of rings (size 3 to 8) (size 9 to 14) (size 15 to 20)
#    0.000    1.000    5.000    4.500    7.000    0.000 
#    0.000    0.000    0.000   22.500    0.000    0.000 
#    0.000    0.000    0.000    0.000    0.000    0.000 
#
# Total GULP energy -133962.133442 kJ/mol
# GULP energy per Si atom -5581.755560 kJ/mol
# Density = 2.156495 g / cm^3
# Si number density = 21.614149 Si / 1000 Ang^3
#
#
#
# Elastic Constant Matrix: (Units=GPa)
#
#
# Indices 1 2 3 4 5 6 
#
# 1 74.7146 44.8963 57.3987 0.0003 -6.0658 0.0000
# 2 44.8963 74.7146 57.3987 -0.0003 6.0658 0.0000
# 3 57.3987 57.3987 258.7606 0.0000 0.0000 0.0000
# 4 0.0003 -0.0003 0.0000 22.4786 0.0000 6.0658
# 5 -6.0658 6.0658 0.0000 0.0000 22.4786 0.0003
# 6 0.0000 0.0000 0.0000 6.0658 0.0003 14.9091
#
#
#
# Elastic Compliance Matrix: (Units=1/GPa)
#
#
# Indices 1 2 3 4 5 6 
#
# 1 0.024147 -0.013525 -0.002356 0.000000 0.010166 0.000000
# 2 -0.013525 0.024147 -0.002356 0.000000 -0.010166 0.000000
# 3 -0.002356 -0.002356 0.004910 0.000000 0.000000 0.000000
# 4 0.000000 0.000000 0.000000 0.049973 0.000000 -0.020332
# 5 0.010166 -0.010166 0.000000 0.000000 0.049973 -0.000001
# 6 0.000000 0.000000 0.000000 -0.020332 -0.000001 0.075345
#
#
# Mechanical properties :
#
#
# Convention : Reuss Voigt Hill
#
# Bulk Modulus (GPa) = 59.77702 80.84192 70.30947
# Shear Modulus (GPa) = 18.48107 28.53968 23.51038
#
# Velocity S-wave (km/s) = 2.92729 3.63770 3.30165
# Velocity P-wave (km/s) = 6.25634 7.42478 6.86546
#
# Compressibility (1/GPa) = 0.01672884
#
# Stress axis : x y z
#
# Youngs Moduli (GPa) = 41.41279 41.41279 203.67177
#
# Poissons Ratio (x) = 0.56012 0.47988
# Poissons Ratio (y) = 0.56012 0.47988
# Poissons Ratio (z) = 0.09757 0.09757
#
# Static dielectric constant tensor:
#      x y z
#    x 1.851150 0.000000 0.000000 
#    y 0.000000 1.851150 0.000000 
#    z 0.000000 0.000000 2.231280 
# 
# From -- ./inp_files/177.got.cif
#   From: 2010.05.17/outbox.cif.g08.bks.cpg/sg153_1_cif.got.tgz:177.got - 2010.05.20 10:38:56.
