data_PCOD9576283
_publ_section_title
;
Structure prediction by ZEFSAII (Michael W. Deem and Ramdas Pophale) SiO2 
 PCOD9576283
Probable space group: P 32 1 2
;
_chemical_formula_sum "Si O2"
_cell_formula_units_Z 21
_cell_length_a 15.859286
_cell_length_b 15.859286
_cell_length_c 5.083103
_cell_angle_alpha 90.000000
_cell_angle_beta 90.000000
_cell_angle_gamma 120.000000
_cell_volume 1107.201853
_symmetry_space_group_name_H-M "P 32 1 2"
_symmetry_group_IT_number 153
_symmetry_cell_setting 'hexagonal'
loop_
_space_group_symop_operation_xyz
x,y,z
-y,x-y,2/3+z
-x+y,-x,1/3+z
-y,-x,1/3-z
-x+y,y,2/3-z
x,x-y,-z
loop_
_atom_site_type_symbol
_atom_site_label
_atom_site_fract_x
_atom_site_fract_y
_atom_site_fract_z
Si Si1 0.032627 0.416908 0.008364
Si Si2 0.922173 0.725464 0.079762
Si Si3 0.153817 0.675796 0.499163
Si Si4 0.056934 0.943066 0.166667
O O1 0.122343 0.446081 0.802190
O O2 0.954576 0.309506 0.920426
O O3 0.007531 0.503766 0.000000
O O4 0.061045 0.416241 0.311848
O O5 0.860360 0.720719 0.333334
O O6 0.016842 0.835233 0.050172
O O7 0.855549 0.711098 0.833334
O O8 0.235422 0.764579 0.666667
O O9 0.179919 0.589960 0.500000
O O10 0.963950 0.927900 0.333334
#
# Coordination Sequence:
#
# PCOD9576283 Si02
#       4
#     6   6   6   3
#     4  10  22  40  58  85 118 155 202 257 295 362
#     4  11  23  38  61  87 117 162 200 242 315 366
#     4  10  21  35  55  83 116 155 198 241 296 348
#     4  10  20  36  52  84 128 154 198 244 290 360
#
# _framework density 18.966729999999998
#
# number of rings (size 3 to 8) (size 9 to 14) (size 15 to 20)
#    0.000    1.714    1.429    2.571    4.000    3.429 
#    0.000    0.000    0.000    1.714    0.000    0.000 
#    0.000    0.000    0.000    0.000    0.000    0.000 
#
# Total GULP energy -116922.463005 kJ/mol
# GULP energy per Si atom -5567.736334 kJ/mol
# Density = 1.892356 g / cm^3
# Si number density = 18.966730 Si / 1000 Ang^3
#
#
#
# Elastic Constant Matrix: (Units=GPa)
#
#
# Indices 1 2 3 4 5 6 
#
# 1 79.8700 76.2544 27.9955 0.0007 8.2425 0.0000
# 2 76.2544 79.8700 27.9955 -0.0007 -8.2425 0.0000
# 3 27.9955 27.9955 105.2280 0.0000 0.0000 0.0000
# 4 0.0007 -0.0007 0.0000 10.8298 0.0000 -8.2425
# 5 8.2425 -8.2425 0.0000 0.0000 10.8298 0.0007
# 6 0.0000 0.0000 0.0000 -8.2425 0.0007 1.8078
#
#
#
# Elastic Compliance Matrix: (Units=1/GPa)
#
#
# Indices 1 2 3 4 5 6 
#
# 1 -0.052444 0.059525 -0.001884 0.000007 0.085219 0.000000
# 2 0.059525 -0.052444 -0.001884 -0.000007 -0.085219 0.000000
# 3 -0.001884 -0.001884 0.010506 0.000000 0.000000 0.000000
# 4 0.000007 -0.000007 0.000000 -0.037382 0.000000 -0.170438
# 5 0.085219 -0.085219 0.000000 0.000000 -0.037382 0.000015
# 6 0.000000 0.000000 0.000000 -0.170438 0.000015 -0.223938
#
#
# Mechanical properties :
#
#
# Convention : Reuss Voigt Hill
#
# Bulk Modulus (GPa) = 58.37099 58.82875 58.59987
# Shear Modulus (GPa) = -10.02229 13.54165 1.75968
#
# Velocity S-wave (km/s) = -2.30122 2.67492 0.96425
# Velocity P-wave (km/s) = 4.87662 6.37373 5.67476
#
# Compressibility (1/GPa) = 0.01713180
#
# Stress axis : x y z
#
# Youngs Moduli (GPa) = -19.06794 -19.06794 95.18796
#
# Poissons Ratio (x) = 1.13502 0.17932
# Poissons Ratio (y) = 1.13502 0.17932
# Poissons Ratio (z) = -0.03592 -0.03592
#
# Static dielectric constant tensor:
#      x y z
#    x 1.682190 0.000000 0.000000 
#    y 0.000000 1.682190 0.000000 
#    z 0.000000 0.000000 1.664760 
# 
# From -- ./inp_files/158.got.cif
#   From: 2010.05.17/outbox.cif.g08.bks.cpg/sg153_1_cif.got.tgz:158.got - 2010.05.20 10:38:56.
