data_PCOD9576248
_publ_section_title
;
Structure prediction by ZEFSAII (Michael W. Deem and Ramdas Pophale) SiO2 
 PCOD9576248
Probable space group: P 32 1 2
;
_chemical_formula_sum "Si O2"
_cell_formula_units_Z 36
_cell_length_a 15.819581
_cell_length_b 15.819581
_cell_length_c 10.228809
_cell_angle_alpha 90.000000
_cell_angle_beta 90.000000
_cell_angle_gamma 120.000000
_cell_volume 2216.897706
_symmetry_space_group_name_H-M "P 32 1 2"
_symmetry_group_IT_number 153
_symmetry_cell_setting 'hexagonal'
loop_
_space_group_symop_operation_xyz
x,y,z
-y,x-y,2/3+z
-x+y,-x,1/3+z
-y,-x,1/3-z
-x+y,y,2/3-z
x,x-y,-z
loop_
_atom_site_type_symbol
_atom_site_label
_atom_site_fract_x
_atom_site_fract_y
_atom_site_fract_z
Si Si1 0.803902 0.992241 0.181178
Si Si2 0.638953 0.475969 0.544483
Si Si3 0.747855 0.048437 0.429350
Si Si4 0.188338 0.992240 0.985490
Si Si5 0.837018 0.361048 0.377817
Si Si6 0.951563 0.252145 0.403984
O O1 0.818427 0.909214 0.250001
O O2 0.734616 0.007063 0.283655
O O3 0.909704 0.090297 0.166667
O O4 0.758178 0.980439 0.037515
O O5 0.566978 0.433023 0.666667
O O6 0.673804 0.589730 0.526539
O O7 0.587638 0.412361 0.416667
O O8 0.734886 0.469770 0.583332
O O9 0.758177 0.980439 0.537514
O O10 0.852603 0.147397 0.416667
O O11 0.272446 0.007062 0.883012
O O12 0.180592 0.090296 0.000000
O O13 0.866048 0.433024 0.500000
O O14 0.915926 0.326196 0.359873
#
# Coordination Sequence:
#
# PCOD9576248 Si02
#       6
#     6   6   6   6   6   6
#     4  10  19  31  47  66  89 121 157 190 221 264
#     4  11  20  31  47  67  91 123 160 193 222 263
#     4   9  19  32  44  63  92 120 149 189 235 263
#     4  10  19  31  47  66  89 121 157 190 221 264
#     4  11  20  31  47  67  91 123 160 193 222 263
#     4   9  19  32  44  63  92 120 149 189 235 263
#
# _framework density 16.238909
#
# number of rings (size 3 to 8) (size 9 to 14) (size 15 to 20)
#    0.000    2.000    0.000    5.000    0.000    9.333 
#    0.000    0.000    0.000    0.000    0.000    0.000 
#    0.000    0.000    0.000  126.000    0.000    0.000 
#
# Total GULP energy -200550.202845 kJ/mol
# GULP energy per Si atom -5570.838968 kJ/mol
# Density = 1.620195 g / cm^3
# Si number density = 16.238909 Si / 1000 Ang^3
#
#
#
# Elastic Constant Matrix: (Units=GPa)
#
#
# Indices 1 2 3 4 5 6 
#
# 1 66.0055 30.9339 36.4025 0.0000 -6.0535 0.0000
# 2 30.9339 66.0055 36.4025 0.0000 6.0535 0.0000
# 3 36.4025 36.4025 120.6280 0.0000 0.0000 0.0000
# 4 0.0000 0.0000 0.0000 22.7454 0.0000 6.0535
# 5 -6.0535 6.0535 0.0000 0.0000 22.7454 0.0000
# 6 0.0000 0.0000 0.0000 6.0535 0.0000 17.5358
#
#
#
# Elastic Compliance Matrix: (Units=1/GPa)
#
#
# Indices 1 2 3 4 5 6 
#
# 1 0.022368 -0.009029 -0.004025 0.000000 0.008356 0.000000
# 2 -0.009029 0.022368 -0.004025 0.000000 -0.008356 0.000000
# 3 -0.004025 -0.004025 0.010719 0.000000 0.000000 0.000000
# 4 0.000000 0.000000 0.000000 0.048413 0.000000 -0.016713
# 5 0.008356 -0.008356 0.000000 0.000000 0.048413 0.000000
# 6 0.000000 0.000000 0.000000 -0.016713 0.000000 0.062795
#
#
# Mechanical properties :
#
#
# Convention : Reuss Voigt Hill
#
# Bulk Modulus (GPa) = 46.95745 51.12407 49.04076
# Shear Modulus (GPa) = 19.50565 22.53200 21.01882
#
# Velocity S-wave (km/s) = 3.46955 3.72900 3.60161
# Velocity P-wave (km/s) = 6.71042 7.07753 6.89642
#
# Compressibility (1/GPa) = 0.02129587
#
# Stress axis : x y z
#
# Youngs Moduli (GPa) = 44.70611 44.70611 93.28845
#
# Poissons Ratio (x) = 0.40367 0.37552
# Poissons Ratio (y) = 0.40367 0.37552
# Poissons Ratio (z) = 0.17996 0.17996
#
# Static dielectric constant tensor:
#      x y z
#    x 1.560420 0.000000 0.000000 
#    y 0.000000 1.560420 0.000000 
#    z 0.000000 0.000000 1.568150 
# 
# From -- ./inp_files/1792.got.cif
#   From: 2010.05.17/outbox.cif.g08.bks.cpg/sg153_1_cif.got.tgz:1792.got - 2010.05.20 10:38:56.
