data_PCOD9576749
_publ_section_title
;
Structure prediction by ZEFSAII (Michael W. Deem and Ramdas Pophale) SiO2 
 PCOD9576749
Probable space group: P 32 2 1
;
_chemical_formula_sum "Si O2"
_cell_formula_units_Z 45
_cell_length_a 12.000000
_cell_length_b 12.000000
_cell_length_c 18.000000
_cell_angle_alpha 90.000000
_cell_angle_beta 90.000000
_cell_angle_gamma 120.000000
_cell_volume 2244.737847
_symmetry_space_group_name_H-M "P 32 2 1"
_symmetry_group_IT_number 154
_symmetry_cell_setting 'hexagonal'
loop_
_space_group_symop_operation_xyz
x,y,z
-y,x-y,2/3+z
-x+y,-x,1/3+z
x-y,-y,1/3-z
-x,-x+y,2/3-z
y,x,-z
loop_
_atom_site_type_symbol
_atom_site_label
_atom_site_fract_x
_atom_site_fract_y
_atom_site_fract_z
Si Si1 0.902008 0.173529 0.569836
Si Si2 0.962207 0.000000 0.666667
Si Si3 0.623346 0.445391 0.220100
Si Si4 0.466433 0.110785 0.721317
Si Si5 0.657631 0.852044 0.189529
Si Si6 0.920010 0.774535 0.081381
Si Si7 0.590085 0.964411 0.324096
Si Si8 0.233408 0.684670 0.732886
O O1 0.823822 0.248312 0.579595
O O2 0.833488 0.071518 0.503044
O O3 0.932351 0.108002 0.637636
O O4 0.046559 0.275207 0.543625
O O5 0.076767 0.053868 0.727392
O O6 0.598013 0.474467 0.136118
O O7 0.513208 0.419831 0.278171
O O8 0.638200 0.320032 0.225793
O O9 0.323121 0.091675 0.731972
O O10 0.546190 0.243542 0.676182
O O11 0.454404 0.000000 0.666667
O O12 0.580884 0.869009 0.258381
O O13 0.564570 0.782922 0.120688
O O14 0.761076 0.000000 0.166667
O O15 0.988080 0.716352 0.029950
O O16 0.585996 0.085741 0.288174
#
# Coordination Sequence:
#
# PCOD9576749 Si02
#       8
#     6   3   6   6   6   6   6   6
#     4  11  24  37  64  95 136 171 216 277 344 406
#     4  12  20  38  64  96 134 172 214 286 340 404
#     4  11  26  42  61  99 135 182 224 275 340 418
#     4  10  21  39  64  94 125 172 219 281 331 394
#     4  10  20  40  70 102 122 169 231 285 328 391
#     4  10  20  37  63  97 126 164 221 280 333 396
#     4  10  23  41  68  95 133 174 231 278 336 405
#     4  10  23  40  67  95 128 172 224 278 328 398
#
# _framework density 20.046883999999999
#
# number of rings (size 3 to 8) (size 9 to 14) (size 15 to 20)
#    0.000    1.600    2.000    2.800    5.600    5.333 
#    3.600    0.000    0.000    3.200    0.000    0.000 
#    0.000    0.000    0.000    0.000    0.000    0.000 
#
# Total GULP energy -251186.666998 kJ/mol
# GULP energy per Si atom -5581.925933 kJ/mol
# Density = 2.000126 g / cm^3
# Si number density = 20.046884 Si / 1000 Ang^3
#
#
#
# Elastic Constant Matrix: (Units=GPa)
#
#
# Indices 1 2 3 4 5 6 
#
# 1 47.4161 18.9462 17.5319 -3.1722 0.0000 0.0000
# 2 18.9462 47.4161 17.5319 3.1722 0.0000 0.0000
# 3 17.5319 17.5319 84.7311 0.0000 0.0000 0.0000
# 4 -3.1722 3.1722 0.0000 33.4930 0.0000 0.0000
# 5 0.0000 0.0000 0.0000 0.0000 33.4930 -3.1722
# 6 0.0000 0.0000 0.0000 0.0000 -3.1722 14.2350
#
#
#
# Elastic Compliance Matrix: (Units=1/GPa)
#
#
# Indices 1 2 3 4 5 6 
#
# 1 0.026400 -0.009482 -0.003501 0.003398 0.000000 0.000000
# 2 -0.009482 0.026400 -0.003501 -0.003398 0.000000 0.000000
# 3 -0.003501 -0.003501 0.013251 0.000000 0.000000 0.000000
# 4 0.003398 -0.003398 0.000000 0.030501 0.000000 0.000000
# 5 0.000000 0.000000 0.000000 0.000000 0.030501 0.006797
# 6 0.000000 0.000000 0.000000 0.000000 0.006797 0.071764
#
#
# Mechanical properties :
#
#
# Convention : Reuss Voigt Hill
#
# Bulk Modulus (GPa) = 30.22516 31.95370 31.08943
# Shear Modulus (GPa) = 20.59210 24.61439 22.60324
#
# Velocity S-wave (km/s) = 3.20847 3.50786 3.36150
# Velocity P-wave (km/s) = 5.36988 5.69042 5.53247
#
# Compressibility (1/GPa) = 0.03308502
#
# Stress axis : x y z
#
# Youngs Moduli (GPa) = 37.87838 37.87838 75.46779
#
# Poissons Ratio (x) = 0.35916 0.26419
# Poissons Ratio (y) = 0.35916 0.26419
# Poissons Ratio (z) = 0.13260 0.13260
#
# Static dielectric constant tensor:
#      x y z
#    x 1.713150 0.000000 0.000000 
#    y 0.000000 1.713150 0.000000 
#    z 0.000000 0.000000 1.740430 
# 
# From -- ./inp_files/2491.got.cif
#   From: 2010.05.17/outbox.ucp.g08.bks.cvg/sg154_2_cif.got.tgz:2491.got - 2010.06.11 15:13:38.
