data_PCOD9576139
_publ_section_title
;
Structure prediction by ZEFSAII (Michael W. Deem and Ramdas Pophale) SiO2 
 PCOD9576139
Probable space group: P 31 2 1
;
_chemical_formula_sum "Si O2"
_cell_formula_units_Z 48
_cell_length_a 14.698726
_cell_length_b 14.698726
_cell_length_c 11.652195
_cell_angle_alpha 90.000000
_cell_angle_beta 90.000000
_cell_angle_gamma 120.000000
_cell_volume 2180.207173
_symmetry_space_group_name_H-M "P 31 2 1"
_symmetry_group_IT_number 152
_symmetry_cell_setting 'hexagonal'
loop_
_space_group_symop_operation_xyz
x,y,z
-y,x-y,1/3+z
-x+y,-x,2/3+z
x-y,-y,2/3-z
-x,-x+y,1/3-z
y,x,-z
loop_
_atom_site_type_symbol
_atom_site_label
_atom_site_fract_x
_atom_site_fract_y
_atom_site_fract_z
Si Si1 0.867065 0.877658 0.823400
Si Si2 0.964439 0.289611 0.786278
Si Si3 0.180607 0.105474 0.762771
Si Si4 0.534239 0.350659 0.303980
Si Si5 0.760595 0.508367 0.222631
Si Si6 0.639695 0.905193 0.418260
Si Si7 0.067771 0.583061 0.941326
Si Si8 0.732376 0.558089 0.770116
O O1 0.764376 0.829749 0.902500
O O2 0.822694 0.880557 0.696231
O O3 0.951162 0.843961 0.867969
O O4 0.940019 0.000000 0.833334
O O5 0.870369 0.281426 0.860436
O O6 0.000000 0.353543 0.666667
O O7 0.071262 0.334094 0.858490
O O8 0.293217 0.186218 0.814061
O O9 0.134779 0.000000 0.833334
O O10 0.658363 0.412029 0.278953
O O11 0.516682 0.302518 0.430048
O O12 0.484233 0.427676 0.303583
O O13 0.481333 0.259372 0.206691
O O14 0.862503 0.539855 0.301992
O O15 0.559286 0.930166 0.482560
O O16 0.579102 0.802835 0.341097
O O17 0.713962 0.000000 0.333334
O O18 0.126880 0.516479 0.927930
#
# Coordination Sequence:
#
# PCOD9576139 Si02
#       8
#     6   6   6   6   6   6   6   6
#     4  11  23  38  65 103 144 192 242 304 375 456
#     4  12  24  46  72 105 149 200 259 320 388 468
#     4  11  21  40  64 100 145 192 244 299 374 449
#     4  12  27  52  80 112 157 206 267 329 402 484
#     4  12  28  50  78 112 155 204 258 330 404 466
#     4  12  26  46  76 106 147 198 254 314 385 460
#     4  12  29  50  78 118 155 205 264 330 399 479
#     4  12  27  48  77 112 149 201 263 325 388 474
#
# _framework density 22.016255999999998
#
# number of rings (size 3 to 8) (size 9 to 14) (size 15 to 20)
#    0.000    0.250    3.750    6.375    5.250    2.500 
#    0.000    0.000    0.000    0.000    0.000    0.000 
#    0.000    0.000    0.000    0.000    0.000    0.000 
#
# Total GULP energy -267739.621405 kJ/mol
# GULP energy per Si atom -5577.908779 kJ/mol
# Density = 2.196615 g / cm^3
# Si number density = 22.016256 Si / 1000 Ang^3
#
#
#
# Elastic Constant Matrix: (Units=GPa)
#
#
# Indices 1 2 3 4 5 6 
#
# 1 80.3069 16.5934 19.8691 1.1551 0.0000 0.0000
# 2 16.5934 80.3069 19.8691 -1.1551 0.0000 0.0000
# 3 19.8691 19.8691 118.3924 0.0000 0.0000 0.0000
# 4 1.1551 -1.1551 0.0000 29.6425 0.0000 0.0000
# 5 0.0000 0.0000 0.0000 0.0000 29.6425 1.1551
# 6 0.0000 0.0000 0.0000 0.0000 1.1551 31.8568
#
#
#
# Elastic Compliance Matrix: (Units=1/GPa)
#
#
# Indices 1 2 3 4 5 6 
#
# 1 0.013400 -0.002317 -0.001860 -0.000612 0.000000 0.000000
# 2 -0.002317 0.013400 -0.001860 0.000612 0.000000 0.000000
# 3 -0.001860 -0.001860 0.009071 0.000000 0.000000 0.000000
# 4 -0.000612 0.000612 0.000000 0.033783 0.000000 0.000000
# 5 0.000000 0.000000 0.000000 0.000000 0.033783 -0.001225
# 6 0.000000 0.000000 0.000000 0.000000 -0.001225 0.031435
#
#
# Mechanical properties :
#
#
# Convention : Reuss Voigt Hill
#
# Bulk Modulus (GPa) = 42.02334 43.51883 42.77108
# Shear Modulus (GPa) = 32.28334 33.07332 32.67833
#
# Velocity S-wave (km/s) = 3.83344 3.88006 3.85682
# Velocity P-wave (km/s) = 6.22274 6.31528 6.26918
#
# Compressibility (1/GPa) = 0.02379630
#
# Stress axis : x y z
#
# Youngs Moduli (GPa) = 74.62662 74.62662 110.24418
#
# Poissons Ratio (x) = 0.17294 0.20505
# Poissons Ratio (y) = 0.17294 0.20505
# Poissons Ratio (z) = 0.13880 0.13880
#
# Static dielectric constant tensor:
#      x y z
#    x 1.881710 0.000000 0.000000 
#    y 0.000000 1.881710 0.000000 
#    z 0.000000 0.000000 1.700720 
# 
# From -- ./inp_files/1865.got.cif
#   From: 2010.05.17/outbox.cif.g08.bks.cpg/sg152_1_cif.got.tgz:1865.got - 2010.05.20 10:36:06.
