data_PCOD9576842
_publ_section_title
;
Structure prediction by ZEFSAII (Michael W. Deem and Ramdas Pophale) SiO2 
 PCOD9576842
Probable space group: R 3 2
;
_chemical_formula_sum "Si O2"
_cell_formula_units_Z 126
_cell_length_a 26.940785
_cell_length_b 26.940785
_cell_length_c 12.567686
_cell_angle_alpha 90.000000
_cell_angle_beta 90.000000
_cell_angle_gamma 120.000000
_cell_volume 7899.624448
_symmetry_space_group_name_H-M "R 3 2"
_symmetry_group_IT_number 155
_symmetry_cell_setting 'hexagonal'
loop_
_space_group_symop_operation_xyz
x,y,z
-y,x-y,z
-x+y,-x,z
x-y,-y,-z
-x,-x+y,-z
y,x,-z
2/3+x,1/3+y,1/3+z
2/3-y,1/3+x-y,1/3+z
2/3-x+y,1/3-x,1/3+z
2/3+x-y,1/3-y,1/3-z
2/3-x,1/3-x+y,1/3-z
2/3+y,1/3+x,1/3-z
1/3+x,2/3+y,2/3+z
1/3-y,2/3+x-y,2/3+z
1/3-x+y,2/3-x,2/3+z
1/3+x-y,2/3-y,2/3-z
1/3-x,2/3-x+y,2/3-z
1/3+y,2/3+x,2/3-z
loop_
_atom_site_type_symbol
_atom_site_label
_atom_site_fract_x
_atom_site_fract_y
_atom_site_fract_z
Si Si1 0.994282 0.148739 0.627656
Si Si2 0.146464 0.607795 0.977126
Si Si3 0.719245 0.878249 0.491558
Si Si4 0.122201 0.198326 0.693560
Si Si5 0.616225 0.714517 0.251098
Si Si6 0.602617 0.868869 0.790068
Si Si7 0.265683 0.198665 0.872316
O O1 0.939753 0.092025 0.670863
O O2 0.978460 0.199010 0.639807
O O3 0.000000 0.143892 0.500000
O O4 0.054037 0.165907 0.681880
O O5 0.186130 0.675440 0.991295
O O6 0.115358 0.594531 0.862814
O O7 0.095552 0.583147 0.064670
O O8 0.753239 0.900556 0.601957
O O9 0.707027 0.813732 0.470598
O O10 0.661099 0.880650 0.495214
O O11 0.146916 0.228479 0.806264
O O12 0.608507 0.666667 0.166667
O O13 0.666667 0.730736 0.333334
O O14 0.666667 0.896033 0.833334
O O15 0.598466 0.855091 0.665093
O O16 0.580965 0.914800 0.807469
#
# Coordination Sequence:
#
# PCOD9576842 Si02
#       7
#    18  18  18  18  18  18  18
#     4  10  19  36  54  79 112 141 175 225 283 329
#     4  10  21  34  55  82 111 143 188 222 271 337
#     4  11  18  33  57  79 108 144 183 219 276 332
#     4  11  20  35  57  81 111 148 179 228 281 332
#     4  10  19  34  54  75 104 140 178 224 272 323
#     4  10  21  37  53  79 116 151 180 226 268 324
#     4  10  21  36  54  79 112 154 186 218 267 327
#
# _framework density 15.950125999999999
#
# number of rings (size 3 to 8) (size 9 to 14) (size 15 to 20)
#    0.000    1.714    5.714    2.571    0.000    1.143 
#    3.429    2.857    0.000    0.000    0.000    0.000 
#    0.000    0.000    0.000    0.000    0.000    0.000 
#
# Total GULP energy -234271.083120 kJ/mol
# GULP energy per Si atom -5577.882931 kJ/mol
# Density = 1.591382 g / cm^3
# Si number density = 15.950126 Si / 1000 Ang^3
#
#
#
# Elastic Constant Matrix: (Units=GPa)
#
#
# Indices 1 2 3 4 5 6 
#
# 1 102.2791 64.7448 45.4058 0.9979 -0.0003 0.0000
# 2 64.7448 102.2790 45.4058 -0.9979 0.0002 0.0000
# 3 45.4058 45.4058 78.3890 -0.0002 -0.0003 -0.0001
# 4 0.9979 -0.9979 -0.0002 23.7882 -0.0001 0.0003
# 5 -0.0003 0.0002 -0.0003 -0.0001 23.7880 0.9978
# 6 0.0000 0.0000 -0.0001 0.0003 0.9978 18.7671
#
#
#
# Elastic Compliance Matrix: (Units=1/GPa)
#
#
# Indices 1 2 3 4 5 6 
#
# 1 0.017721 -0.008981 -0.005062 -0.001120 0.000000 0.000000
# 2 -0.008981 0.017721 -0.005062 0.001120 0.000000 0.000000
# 3 -0.005062 -0.005062 0.018621 0.000000 0.000000 0.000000
# 4 -0.001120 0.001120 0.000000 0.042132 0.000000 -0.000001
# 5 0.000000 0.000000 0.000000 0.000000 0.042132 -0.002240
# 6 0.000000 0.000000 0.000000 -0.000001 -0.002240 0.053404
#
#
# Mechanical properties :
#
#
# Convention : Reuss Voigt Hill
#
# Bulk Modulus (GPa) = 63.08584 66.00666 64.54625
# Shear Modulus (GPa) = 21.25619 21.76136 21.50877
#
# Velocity S-wave (km/s) = 3.65453 3.69770 3.67618
# Velocity P-wave (km/s) = 7.57927 7.72681 7.65340
#
# Compressibility (1/GPa) = 0.01585142
#
# Stress axis : x y z
#
# Youngs Moduli (GPa) = 56.43114 56.43104 53.70164
#
# Poissons Ratio (x) = 0.50682 0.27185
# Poissons Ratio (y) = 0.50682 0.27185
# Poissons Ratio (z) = 0.28567 0.28567
#
# Static dielectric constant tensor:
#      x y z
#    x 1.523980 0.000000 0.000000 
#    y 0.000000 1.523980 0.000000 
#    z 0.000000 0.000000 1.531690 
# 
# From -- ./inp_files/4225.got.cif
#   From: 2010.05.17/outbox.cif.g08.bks.cpg/sg155_3_cif.got.tgz:4225.got - 2010.05.20 10:44:35.
