data_PCOD9576849
_publ_section_title
;
Structure prediction by ZEFSAII (Michael W. Deem and Ramdas Pophale) SiO2 
 PCOD9576849
Probable space group: R 3 2
;
_chemical_formula_sum "Si O2"
_cell_formula_units_Z 81
_cell_length_a 24.824506
_cell_length_b 24.824506
_cell_length_c 9.041640
_cell_angle_alpha 90.000000
_cell_angle_beta 90.000000
_cell_angle_gamma 120.000000
_cell_volume 4825.463921
_symmetry_space_group_name_H-M "R 3 2"
_symmetry_group_IT_number 155
_symmetry_cell_setting 'hexagonal'
loop_
_space_group_symop_operation_xyz
x,y,z
-y,x-y,z
-x+y,-x,z
x-y,-y,-z
-x,-x+y,-z
y,x,-z
2/3+x,1/3+y,1/3+z
2/3-y,1/3+x-y,1/3+z
2/3-x+y,1/3-x,1/3+z
2/3+x-y,1/3-y,1/3-z
2/3-x,1/3-x+y,1/3-z
2/3+y,1/3+x,1/3-z
1/3+x,2/3+y,2/3+z
1/3-y,2/3+x-y,2/3+z
1/3-x+y,2/3-x,2/3+z
1/3+x-y,2/3-y,2/3-z
1/3-x,2/3-x+y,2/3-z
1/3+y,2/3+x,2/3-z
loop_
_atom_site_type_symbol
_atom_site_label
_atom_site_fract_x
_atom_site_fract_y
_atom_site_fract_z
Si Si1 0.666667 0.696593 0.333334
Si Si2 0.233567 0.399646 0.424723
Si Si3 0.684377 0.072890 0.998803
Si Si4 0.678178 0.838068 0.673891
Si Si5 0.728234 0.564621 0.772638
O O1 0.667575 0.667575 0.500000
O O2 0.607206 0.706801 0.318587
O O3 0.199766 0.333334 0.333334
O O4 0.303762 0.414556 0.437580
O O5 0.197425 0.384165 0.577893
O O6 0.220827 0.445690 0.328341
O O7 0.666667 0.082358 0.833334
O O8 0.755234 0.123102 0.025046
O O9 0.665428 0.000000 0.000000
O O10 0.666667 0.808032 0.833334
O O11 0.726936 0.829231 0.577141
O O12 0.666667 0.506143 0.833334
#
# Coordination Sequence:
#
# PCOD9576849 Si02
#       5
#     9  18  18  18  18
#     4  10  20  34  52  70  88 126 182 226 270 314
#     4   9  17  32  44  66  98 127 164 209 246 310
#     4  11  17  29  51  72 105 141 168 196 263 328
#     4  11  21  31  48  76 105 132 180 220 256 329
#     4  10  19  35  48  62  96 134 173 222 267 291
#
# _framework density 16.785951000000001
#
# number of rings (size 3 to 8) (size 9 to 14) (size 15 to 20)
#    0.000    1.778   10.000    0.667    0.000    3.556 
#    0.000    0.000    0.000    0.000    0.000    0.000 
#    8.889    0.000    0.000    0.000    4.444    0.000 
#
# Total GULP energy -150302.397783 kJ/mol
# GULP energy per Si atom -5566.755473 kJ/mol
# Density = 1.674775 g / cm^3
# Si number density = 16.785951 Si / 1000 Ang^3
#
#
#
# Elastic Constant Matrix: (Units=GPa)
#
#
# Indices 1 2 3 4 5 6 
#
# 1 61.9963 21.4454 13.2059 -9.1903 0.0048 0.0008
# 2 21.4454 61.9947 13.1908 9.1893 0.0014 -0.0001
# 3 13.2059 13.1908 105.5244 0.0006 -0.0137 0.0001
# 4 -9.1903 9.1893 0.0006 16.8585 0.0017 0.0009
# 5 0.0048 0.0014 -0.0137 0.0017 16.8483 -9.1891
# 6 0.0008 -0.0001 0.0001 0.0009 -9.1891 20.2767
#
#
#
# Elastic Compliance Matrix: (Units=1/GPa)
#
#
# Indices 1 2 3 4 5 6 
#
# 1 0.022617 -0.010138 -0.001563 0.017855 -0.000013 -0.000007
# 2 -0.010138 0.022615 -0.001558 -0.017853 0.000003 0.000003
# 3 -0.001563 -0.001558 0.009867 -0.000003 0.000011 0.000005
# 4 0.017855 -0.017853 -0.000003 0.078782 -0.000018 -0.000012
# 5 -0.000013 0.000003 0.000011 -0.000018 0.078840 0.035729
# 6 -0.000007 0.000003 0.000005 -0.000012 0.035729 0.065510
#
#
# Mechanical properties :
#
#
# Convention : Reuss Voigt Hill
#
# Bulk Modulus (GPa) = 34.98878 36.13329 35.56103
# Shear Modulus (GPa) = 15.90963 22.90827 19.40895
#
# Velocity S-wave (km/s) = 3.08197 3.69823 3.40407
# Velocity P-wave (km/s) = 5.79258 6.30940 6.05651
#
# Compressibility (1/GPa) = 0.02858059
#
# Stress axis : x y z
#
# Youngs Moduli (GPa) = 44.21541 44.21820 101.34912
#
# Poissons Ratio (x) = 0.44827 0.15843
# Poissons Ratio (y) = 0.44824 0.15792
# Poissons Ratio (z) = 0.06912 0.06890
#
# Static dielectric constant tensor:
#      x y z
#    x 1.589580 0.000000 0.000080 
#    y 0.000000 1.589580 0.000360 
#    z 0.000080 0.000360 2.879500 
# 
# From -- ./inp_files/2665.got.cif
#   From: 2010.05.17/outbox.cif.g08.bks.cpg/sg155_2_cif.got.tgz:2665.got - 2010.05.20 10:44:35.
