data_PCOD9576825
_publ_section_title
;
Structure prediction by ZEFSAII (Michael W. Deem and Ramdas Pophale) SiO2 
 PCOD9576825
Probable space group: R 3 2
;
_chemical_formula_sum "Si O2"
_cell_formula_units_Z 123
_cell_length_a 30.272468
_cell_length_b 30.272468
_cell_length_c 10.213885
_cell_angle_alpha 90.000000
_cell_angle_beta 90.000000
_cell_angle_gamma 120.000000
_cell_volume 8106.198850
_symmetry_space_group_name_H-M "R 3 2"
_symmetry_group_IT_number 155
_symmetry_cell_setting 'hexagonal'
loop_
_space_group_symop_operation_xyz
x,y,z
-y,x-y,z
-x+y,-x,z
x-y,-y,-z
-x,-x+y,-z
y,x,-z
2/3+x,1/3+y,1/3+z
2/3-y,1/3+x-y,1/3+z
2/3-x+y,1/3-x,1/3+z
2/3+x-y,1/3-y,1/3-z
2/3-x,1/3-x+y,1/3-z
2/3+y,1/3+x,1/3-z
1/3+x,2/3+y,2/3+z
1/3-y,2/3+x-y,2/3+z
1/3-x+y,2/3-x,2/3+z
1/3+x-y,2/3-y,2/3-z
1/3-x,2/3-x+y,2/3-z
1/3+y,2/3+x,2/3-z
loop_
_atom_site_type_symbol
_atom_site_label
_atom_site_fract_x
_atom_site_fract_y
_atom_site_fract_z
Si Si1 0.333334 0.028854 0.666667
Si Si2 0.154859 0.554107 0.910088
Si Si3 0.918335 0.249417 0.404173
Si Si4 0.161874 0.436598 0.169880
Si Si5 0.433031 0.770336 0.007228
Si Si6 0.666668 0.333334 0.676558
Si Si7 0.223007 0.501308 0.931709
Si Si8 0.166739 0.938842 0.983364
O O1 0.342965 0.065655 0.544764
O O2 0.284326 0.972033 0.669150
O O3 0.199487 0.538737 0.910643
O O4 0.128501 0.540122 0.768997
O O5 0.113592 0.517685 0.018352
O O6 0.180155 0.612587 0.954393
O O7 0.908720 0.193574 0.437545
O O8 0.871630 0.250378 0.335339
O O9 0.115547 0.448881 0.166667
O O10 0.204044 0.478051 0.075199
O O11 0.438982 0.772315 0.166667
O O12 0.377880 0.722119 0.972054
O O13 0.471806 0.755646 0.938618
O O14 0.666668 0.333334 0.833334
O O15 0.195895 0.458276 0.820510
O O16 0.202366 0.000000 0.000000
#
# Coordination Sequence:
#
# PCOD9576825 Si02
#       8
#     9  18  18  18  18   6  18  18
#     4  10  20  28  46  74  88 136 192 216 240 274
#     4  10  20  33  49  69  95 126 160 211 250 292
#     4  11  20  32  47  66  99 135 178 220 242 284
#     4  10  19  31  48  70  94 123 170 215 245 275
#     4  11  18  32  52  72  92 119 163 212 246 289
#     4   9  18  24  45  76  86 112 159 199 242 283
#     4  10  21  32  47  72  96 125 164 205 253 299
#     4  10  22  34  45  65 101 133 165 204 253 294
#
# _framework density 15.173574
#
# number of rings (size 3 to 8) (size 9 to 14) (size 15 to 20)
#    0.000    1.756    5.122    0.878    4.098    1.171 
#    0.000    0.000    0.000    0.000    0.000    0.000 
#    0.000    0.000    0.000   13.171    0.000    0.000 
#
# Total GULP energy -228488.178852 kJ/mol
# GULP energy per Si atom -5572.882411 kJ/mol
# Density = 1.513904 g / cm^3
# Si number density = 15.173574 Si / 1000 Ang^3
#
#
#
# Elastic Constant Matrix: (Units=GPa)
#
#
# Indices 1 2 3 4 5 6 
#
# 1 55.2343 19.2006 -0.9877 -5.1639 -0.0078 -0.0066
# 2 19.2006 55.2297 -1.0081 5.1591 -0.0091 -0.0064
# 3 -0.9877 -1.0081 38.4433 -0.0149 -0.0016 -0.0199
# 4 -5.1639 5.1591 -0.0149 16.0790 -0.0037 0.0006
# 5 -0.0078 -0.0091 -0.0016 -0.0037 16.0483 -5.1734
# 6 -0.0066 -0.0064 -0.0199 0.0006 -5.1734 18.0017
#
#
#
# Elastic Compliance Matrix: (Units=1/GPa)
#
#
# Indices 1 2 3 4 5 6 
#
# 1 0.022004 -0.008560 0.000345 0.009814 0.000011 0.000008
# 2 -0.008560 0.022005 0.000353 -0.009809 0.000009 0.000008
# 3 0.000345 0.000353 0.026031 0.000021 0.000014 0.000033
# 4 0.009814 -0.009809 0.000021 0.068492 0.000016 0.000002
# 5 0.000011 0.000009 0.000014 0.000016 0.068674 0.019736
# 6 0.000008 0.000008 0.000033 0.000002 0.019736 0.061222
#
#
# Mechanical properties :
#
#
# Convention : Reuss Voigt Hill
#
# Bulk Modulus (GPa) = 18.41108 20.36855 19.38982
# Shear Modulus (GPa) = 16.54219 18.80595 17.67407
#
# Velocity S-wave (km/s) = 3.30540 3.52431 3.41661
# Velocity P-wave (km/s) = 5.16987 5.47849 5.32642
#
# Compressibility (1/GPa) = 0.05431511
#
# Stress axis : x y z
#
# Youngs Moduli (GPa) = 45.44615 45.44447 38.41647
#
# Poissons Ratio (x) = 0.38901 -0.01324
# Poissons Ratio (y) = 0.38903 -0.01357
# Poissons Ratio (z) = -0.01566 -0.01606
#
# Static dielectric constant tensor:
#      x y z
#    x 1.513220 0.000000 -0.000010 
#    y 0.000000 1.513220 0.000000 
#    z -0.000010 0.000000 1.522460 
# 
# From -- ./inp_files/4283.got.cif
#   From: 2010.05.17/outbox.cif.g08.bks.cpg/sg155_3_cif.got.tgz:4283.got - 2010.05.20 10:44:35.
