data_PCOD9576839
_publ_section_title
;
Structure prediction by ZEFSAII (Michael W. Deem and Ramdas Pophale) SiO2 
 PCOD9576839
Probable space group: R 3 2
;
_chemical_formula_sum "Si O2"
_cell_formula_units_Z 108
_cell_length_a 24.156790
_cell_length_b 24.156790
_cell_length_c 12.614514
_cell_angle_alpha 90.000000
_cell_angle_beta 90.000000
_cell_angle_gamma 120.000000
_cell_volume 6374.991391
_symmetry_space_group_name_H-M "R 3 2"
_symmetry_group_IT_number 155
_symmetry_cell_setting 'hexagonal'
loop_
_space_group_symop_operation_xyz
x,y,z
-y,x-y,z
-x+y,-x,z
x-y,-y,-z
-x,-x+y,-z
y,x,-z
2/3+x,1/3+y,1/3+z
2/3-y,1/3+x-y,1/3+z
2/3-x+y,1/3-x,1/3+z
2/3+x-y,1/3-y,1/3-z
2/3-x,1/3-x+y,1/3-z
2/3+y,1/3+x,1/3-z
1/3+x,2/3+y,2/3+z
1/3-y,2/3+x-y,2/3+z
1/3-x+y,2/3-x,2/3+z
1/3+x-y,2/3-y,2/3-z
1/3-x,2/3-x+y,2/3-z
1/3+y,2/3+x,2/3-z
loop_
_atom_site_type_symbol
_atom_site_label
_atom_site_fract_x
_atom_site_fract_y
_atom_site_fract_z
Si Si1 0.749579 0.920186 0.614358
Si Si2 0.494294 0.263309 0.318906
Si Si3 0.146023 0.064912 0.238974
Si Si4 0.919474 0.073474 0.774048
Si Si5 0.259059 0.187031 0.632300
Si Si6 0.731734 0.099502 0.279068
O O1 0.795160 0.903090 0.682661
O O2 0.749907 0.912632 0.488686
O O3 0.677180 0.882935 0.653466
O O4 0.771168 0.994650 0.637693
O O5 0.556307 0.333334 0.333334
O O6 0.502977 0.229732 0.216941
O O7 0.487517 0.238976 0.438371
O O8 0.436679 0.273803 0.277713
O O9 0.108187 0.104749 0.233406
O O10 0.105866 0.991163 0.271146
O O11 0.872887 0.089564 0.707304
O O12 0.333334 0.227435 0.666667
O O13 0.742046 0.075380 0.166667
O O14 0.666667 0.046214 0.333334
#
# Coordination Sequence:
#
# PCOD9576839 Si02
#       6
#    18  18  18  18  18  18
#     4  10  21  33  50  75 107 138 172 214 257 316
#     4   9  18  32  48  75 107 134 173 212 259 314
#     4  10  19  34  50  76 103 134 179 221 264 310
#     4  10  20  33  54  74 103 143 177 224 268 319
#     4  10  21  35  51  74 106 140 175 211 262 327
#     4  11  21  31  50  79 110 145 171 209 261 326
#
# _framework density 16.941198
#
# number of rings (size 3 to 8) (size 9 to 14) (size 15 to 20)
#    0.000    2.000    1.667    2.333    7.000    0.667 
#    0.000    1.667    0.000    2.000    0.000    9.333 
#    0.000    0.000    0.000    0.000    0.000    0.000 
#
# Total GULP energy -200414.492934 kJ/mol
# GULP energy per Si atom -5567.069248 kJ/mol
# Density = 1.690264 g / cm^3
# Si number density = 16.941198 Si / 1000 Ang^3
#
#
#
# Elastic Constant Matrix: (Units=GPa)
#
#
# Indices 1 2 3 4 5 6 
#
# 1 64.3266 19.7150 34.1474 -3.0581 0.0000 0.0000
# 2 19.7150 64.3266 34.1474 3.0581 0.0000 0.0000
# 3 34.1474 34.1474 104.6899 0.0000 0.0001 0.0000
# 4 -3.0581 3.0581 0.0000 16.1060 0.0000 0.0001
# 5 0.0000 0.0000 0.0001 0.0000 16.1061 -3.0581
# 6 0.0000 0.0000 0.0000 0.0001 -3.0581 22.3058
#
#
#
# Elastic Compliance Matrix: (Units=1/GPa)
#
#
# Indices 1 2 3 4 5 6 
#
# 1 0.019603 -0.003412 -0.005281 0.004370 0.000000 0.000000
# 2 -0.003412 0.019603 -0.005281 -0.004370 0.000000 0.000000
# 3 -0.005281 -0.005281 0.012997 0.000000 0.000000 0.000000
# 4 0.004370 -0.004370 0.000000 0.063748 0.000000 0.000000
# 5 0.000000 0.000000 0.000000 0.000000 0.063748 0.008740
# 6 0.000000 0.000000 0.000000 0.000000 0.008740 0.046030
#
#
# Mechanical properties :
#
#
# Convention : Reuss Voigt Hill
#
# Bulk Modulus (GPa) = 41.23024 45.48473 43.35749
# Shear Modulus (GPa) = 19.10145 20.59246 19.84696
#
# Velocity S-wave (km/s) = 3.36149 3.49022 3.42646
# Velocity P-wave (km/s) = 6.28142 6.56880 6.42672
#
# Compressibility (1/GPa) = 0.02425404
#
# Stress axis : x y z
#
# Youngs Moduli (GPa) = 51.01376 51.01377 76.94070
#
# Poissons Ratio (x) = 0.17407 0.40632
# Poissons Ratio (y) = 0.17407 0.40632
# Poissons Ratio (z) = 0.26940 0.26940
#
# Static dielectric constant tensor:
#      x y z
#    x 1.571360 0.000000 0.000000 
#    y 0.000000 1.571360 0.000000 
#    z 0.000000 0.000000 1.629700 
# 
# From -- ./inp_files/4078.got.cif
#   From: 2010.05.17/outbox.cif.g08.bks.cpg/sg155_3_cif.got.tgz:4078.got - 2010.05.20 10:44:35.
