data_PCOD9576195
_publ_section_title
;
Structure prediction by ZEFSAII (Michael W. Deem and Ramdas Pophale) SiO2 
 PCOD9576195
Probable space group: P 31 2 1
;
_chemical_formula_sum "Si O2"
_cell_formula_units_Z 24
_cell_length_a 14.347206
_cell_length_b 14.347206
_cell_length_c 5.383542
_cell_angle_alpha 90.000000
_cell_angle_beta 90.000000
_cell_angle_gamma 120.000000
_cell_volume 959.695383
_symmetry_space_group_name_H-M "P 31 2 1"
_symmetry_group_IT_number 152
_symmetry_cell_setting 'hexagonal'
loop_
_space_group_symop_operation_xyz
x,y,z
-y,x-y,1/3+z
-x+y,-x,2/3+z
x-y,-y,2/3-z
-x,-x+y,1/3-z
y,x,-z
loop_
_atom_site_type_symbol
_atom_site_label
_atom_site_fract_x
_atom_site_fract_y
_atom_site_fract_z
Si Si1 0.164732 0.000000 0.333334
Si Si2 0.000000 0.629399 0.166667
Si Si3 0.657401 0.821620 0.667306
Si Si4 0.225195 0.564076 0.467806
Si Si5 0.512559 0.000000 0.333334
Si Si6 0.000000 0.822170 0.666667
O O1 0.257309 0.051207 0.544477
O O2 0.143519 0.089933 0.214811
O O3 0.897386 0.643948 0.131830
O O4 0.985142 0.561893 0.412094
O O5 0.537063 0.728499 0.617393
O O6 0.714436 0.901708 0.441500
O O7 0.327165 0.590544 0.643201
O O8 0.115249 0.520629 0.624380
#
# Coordination Sequence:
#
# PCOD9576195 Si02
#       6
#     3   3   6   6   3   3
#     4  12  27  47  77 117 164 222 285 353 419 515
#     4  12  24  52  80 112 164 214 272 346 414 498
#     4  12  26  48  78 116 160 222 273 353 421 510
#     4  12  28  53  84 122 165 218 282 353 427 509
#     4  12  28  54  86 122 168 222 280 348 432 504
#     4  12  27  51  77 115 170 222 289 349 435 505
#
# _framework density 25.007933999999999
#
# number of rings (size 3 to 8) (size 9 to 14) (size 15 to 20)
#    0.000    0.000    5.000    3.750    0.000    7.000 
#    4.500    0.000    0.000    1.500    0.000    0.000 
#    0.000    0.000    0.000    0.000    0.000    0.000 
#
# Total GULP energy -134416.824182 kJ/mol
# GULP energy per Si atom -5600.701008 kJ/mol
# Density = 2.495101 g / cm^3
# Si number density = 25.007934 Si / 1000 Ang^3
#
#
#
# Elastic Constant Matrix: (Units=GPa)
#
#
# Indices 1 2 3 4 5 6 
#
# 1 139.5013 57.7402 48.9314 -2.5076 0.0000 0.0000
# 2 57.7402 139.5013 48.9314 2.5076 0.0000 0.0000
# 3 48.9314 48.9314 127.3913 0.0000 0.0000 0.0000
# 4 -2.5076 2.5076 0.0000 31.0594 0.0000 0.0000
# 5 0.0000 0.0000 0.0000 0.0000 31.0594 -2.5076
# 6 0.0000 0.0000 0.0000 0.0000 -2.5076 40.8806
#
#
#
# Elastic Compliance Matrix: (Units=1/GPa)
#
#
# Indices 1 2 3 4 5 6 
#
# 1 0.009278 -0.003014 -0.002406 0.000992 0.000000 0.000000
# 2 -0.003014 0.009278 -0.002406 -0.000992 0.000000 0.000000
# 3 -0.002406 -0.002406 0.009698 0.000000 0.000000 0.000000
# 4 0.000992 -0.000992 0.000000 0.032357 0.000000 0.000000
# 5 0.000000 0.000000 0.000000 0.000000 0.032357 0.001985
# 6 0.000000 0.000000 0.000000 0.000000 0.001985 0.024583
#
#
# Mechanical properties :
#
#
# Convention : Reuss Voigt Hill
#
# Bulk Modulus (GPa) = 79.35391 79.73332 79.54361
# Shear Modulus (GPa) = 36.38960 37.31926 36.85443
#
# Velocity S-wave (km/s) = 3.81874 3.86722 3.84306
# Velocity P-wave (km/s) = 7.15850 7.20367 7.18112
#
# Compressibility (1/GPa) = 0.01260177
#
# Stress axis : x y z
#
# Youngs Moduli (GPa) = 107.78630 107.78630 103.11364
#
# Poissons Ratio (x) = 0.32487 0.24808
# Poissons Ratio (y) = 0.32487 0.24808
# Poissons Ratio (z) = 0.25932 0.25932
#
# Static dielectric constant tensor:
#      x y z
#    x 2.020380 0.000000 0.000000 
#    y 0.000000 2.020380 0.000000 
#    z 0.000000 0.000000 1.956080 
# 
# From -- ./inp_files/271.got.cif
#   From: 2010.05.17/outbox.cif.g08.bks.cpg/sg152_1_cif.got.tgz:271.got - 2010.05.20 10:36:06.
