data_PCOD9576543
_publ_section_title
;
Structure prediction by ZEFSAII (Michael W. Deem and Ramdas Pophale) SiO2 
 PCOD9576543
Probable space group: P 32 2 1
;
_chemical_formula_sum "Si O2"
_cell_formula_units_Z 42
_cell_length_a 11.272029
_cell_length_b 11.272029
_cell_length_c 21.430277
_cell_angle_alpha 90.000000
_cell_angle_beta 90.000000
_cell_angle_gamma 120.000000
_cell_volume 2358.102133
_symmetry_space_group_name_H-M "P 32 2 1"
_symmetry_group_IT_number 154
_symmetry_cell_setting 'hexagonal'
loop_
_space_group_symop_operation_xyz
x,y,z
-y,x-y,2/3+z
-x+y,-x,1/3+z
x-y,-y,1/3-z
-x,-x+y,2/3-z
y,x,-z
loop_
_atom_site_type_symbol
_atom_site_label
_atom_site_fract_x
_atom_site_fract_y
_atom_site_fract_z
Si Si1 0.272561 0.167574 0.371317
Si Si2 0.433164 0.728870 0.107705
Si Si3 0.645597 0.209467 0.986962
Si Si4 0.639047 0.651116 0.900098
Si Si5 0.991617 0.392419 0.086912
Si Si6 0.148557 0.000000 0.666667
Si Si7 0.680041 0.000000 0.166667
Si Si8 0.293338 0.685270 0.570103
O O1 0.404428 0.285925 0.336090
O O2 0.307563 0.047714 0.378630
O O3 0.134759 0.136579 0.338147
O O4 0.273014 0.216811 0.442083
O O5 0.349001 0.742220 0.050974
O O6 0.514275 0.649657 0.086386
O O7 0.330936 0.647973 0.164274
O O8 0.544087 0.873784 0.137382
O O9 0.517025 0.122212 0.943583
O O10 0.618225 0.261550 0.052292
O O11 0.641164 0.652979 0.824673
O O12 0.509425 0.669293 0.917743
O O13 0.764564 0.768836 0.939083
O O14 0.863137 0.421457 0.086371
#
# Coordination Sequence:
#
# PCOD9576543 Si02
#       8
#     6   6   6   6   6   3   3   6
#     4  11  23  38  63  90 116 158 207 248 305 361
#     4  11  22  36  62  89 120 160 201 247 307 360
#     4  11  22  38  60  89 122 155 196 260 301 366
#     4  11  20  37  60  88 119 154 202 254 300 356
#     4  10  21  39  60  84 125 159 192 252 316 360
#     4  12  22  36  62  86 118 158 208 254 284 382
#     4  12  20  42  60  90 116 164 202 250 290 370
#     4  10  21  36  58  91 115 156 205 247 302 364
#
# _framework density 17.810932000000001
#
# number of rings (size 3 to 8) (size 9 to 14) (size 15 to 20)
#    0.000    1.143    7.143    1.714    4.000    0.000 
#    0.000    1.429    0.000    6.000    0.000    0.000 
#    0.000    0.000    0.000    0.000    0.000    0.000 
#
# Total GULP energy -234123.256650 kJ/mol
# GULP energy per Si atom -5574.363254 kJ/mol
# Density = 1.777039 g / cm^3
# Si number density = 17.810932 Si / 1000 Ang^3
#
#
#
# Elastic Constant Matrix: (Units=GPa)
#
#
# Indices 1 2 3 4 5 6 
#
# 1 85.2327 43.6553 36.8987 2.7542 -0.0002 0.0000
# 2 43.6553 85.2327 36.8987 -2.7542 0.0002 0.0000
# 3 36.8987 36.8987 89.9854 0.0000 0.0000 0.0000
# 4 2.7542 -2.7542 0.0000 21.1102 0.0000 0.0002
# 5 -0.0002 0.0002 0.0000 0.0000 21.1102 2.7542
# 6 0.0000 0.0000 0.0000 0.0002 2.7542 20.7887
#
#
#
# Elastic Compliance Matrix: (Units=1/GPa)
#
#
# Indices 1 2 3 4 5 6 
#
# 1 0.017307 -0.007168 -0.004158 -0.003193 0.000000 0.000000
# 2 -0.007168 0.017307 -0.004158 0.003193 0.000000 0.000000
# 3 -0.004158 -0.004158 0.014523 0.000000 0.000000 0.000000
# 4 -0.003193 0.003193 0.000000 0.048204 0.000000 0.000000
# 5 0.000000 0.000000 0.000000 0.000000 0.048204 -0.006386
# 6 0.000000 0.000000 0.000000 0.000000 -0.006386 0.048949
#
#
# Mechanical properties :
#
#
# Convention : Reuss Voigt Hill
#
# Bulk Modulus (GPa) = 55.03405 55.03958 55.03682
# Shear Modulus (GPa) = 21.59683 22.13504 21.86594
#
# Velocity S-wave (km/s) = 3.48596 3.52913 3.50761
# Velocity P-wave (km/s) = 6.86795 6.89750 6.88274
#
# Compressibility (1/GPa) = 0.01817057
#
# Stress axis : x y z
#
# Youngs Moduli (GPa) = 57.78043 57.78043 68.85828
#
# Poissons Ratio (x) = 0.41415 0.28629
# Poissons Ratio (y) = 0.41415 0.28629
# Poissons Ratio (z) = 0.24023 0.24023
#
# Static dielectric constant tensor:
#      x y z
#    x 1.619270 0.000000 0.000000 
#    y 0.000000 1.619270 0.000000 
#    z 0.000000 0.000000 1.620870 
# 
# From -- ./inp_files/2853.got.cif
#   From: 2010.05.17/outbox.cif.g08.bks.cpg/sg154_2_cif.got.tgz:2853.got - 2010.05.20 10:41:43.
