data_PCOD9576752
_publ_section_title
;
Structure prediction by ZEFSAII (Michael W. Deem and Ramdas Pophale) SiO2 
 PCOD9576752
Probable space group: P 32 2 1
;
_chemical_formula_sum "Si O2"
_cell_formula_units_Z 42
_cell_length_a 9.000000
_cell_length_b 9.000000
_cell_length_c 30.000000
_cell_angle_alpha 90.000000
_cell_angle_beta 90.000000
_cell_angle_gamma 120.000000
_cell_volume 2104.441731
_symmetry_space_group_name_H-M "P 32 2 1"
_symmetry_group_IT_number 154
_symmetry_cell_setting 'hexagonal'
loop_
_space_group_symop_operation_xyz
x,y,z
-y,x-y,2/3+z
-x+y,-x,1/3+z
x-y,-y,1/3-z
-x,-x+y,2/3-z
y,x,-z
loop_
_atom_site_type_symbol
_atom_site_label
_atom_site_fract_x
_atom_site_fract_y
_atom_site_fract_z
Si Si1 0.315461 0.127337 0.783289
Si Si2 0.820272 0.660837 0.219452
Si Si3 0.280217 0.134693 0.631377
Si Si4 0.448118 0.986889 0.052299
Si Si5 0.503304 0.801713 0.553883
Si Si6 0.705252 0.178998 0.882098
Si Si7 0.214643 0.030789 0.981759
O O1 0.273190 0.084446 0.836291
O O2 0.510154 0.168716 0.775906
O O3 0.317848 0.307679 0.778139
O O4 0.195064 0.976688 0.748301
O O5 0.657455 0.467826 0.221737
O O6 0.800222 0.754794 0.262206
O O7 0.008212 0.679786 0.226481
O O8 0.431956 0.332723 0.623175
O O9 0.139830 0.172108 0.654207
O O10 0.290544 0.000000 0.666667
O O11 0.297867 0.847882 0.083153
O O12 0.516541 0.166089 0.080165
O O13 0.363030 0.016912 0.008021
O O14 0.520841 0.760468 0.502262
O O15 0.184163 0.184163 0.000000
#
# Coordination Sequence:
#
# PCOD9576752 Si02
#       7
#     6   6   6   6   6   6   6
#     4  10  23  45  69  98 140 175 224 282 341 409
#     4  10  22  42  70  98 135 182 226 277 340 407
#     4  11  27  46  65  98 135 176 230 278 346 408
#     4  12  25  43  70  97 138 178 225 288 334 407
#     4  10  22  43  68 105 130 179 226 278 338 409
#     4  10  22  42  70  98 143 174 223 278 344 400
#     4  11  24  44  66  98 134 176 228 277 339 411
#
# _framework density 19.957787
#
# number of rings (size 3 to 8) (size 9 to 14) (size 15 to 20)
#    0.000    1.429    1.429    3.000    6.000    1.714 
#    5.143    0.000    0.000    0.000    0.000    0.000 
#    0.000    0.000    0.000    0.000    0.000    0.000 
#
# Total GULP energy -234274.034039 kJ/mol
# GULP energy per Si atom -5577.953191 kJ/mol
# Density = 1.991236 g / cm^3
# Si number density = 19.957787 Si / 1000 Ang^3
#
#
#
# Elastic Constant Matrix: (Units=GPa)
#
#
# Indices 1 2 3 4 5 6 
#
# 1 95.3082 32.9013 41.9346 -1.9928 0.0000 0.0000
# 2 32.9013 95.3082 41.9346 1.9928 0.0000 0.0000
# 3 41.9346 41.9346 112.9931 0.0000 0.0000 0.0000
# 4 -1.9928 1.9928 0.0000 37.9472 0.0000 0.0000
# 5 0.0000 0.0000 0.0000 0.0000 37.9472 -1.9928
# 6 0.0000 0.0000 0.0000 0.0000 -1.9928 31.2034
#
#
#
# Elastic Compliance Matrix: (Units=1/GPa)
#
#
# Indices 1 2 3 4 5 6 
#
# 1 0.013189 -0.002889 -0.003823 0.000844 0.000000 0.000000
# 2 -0.002889 0.013189 -0.003823 -0.000844 0.000000 0.000000
# 3 -0.003823 -0.003823 0.011688 0.000000 0.000000 0.000000
# 4 0.000844 -0.000844 0.000000 0.026441 0.000000 0.000000
# 5 0.000000 0.000000 0.000000 0.000000 0.026441 0.001689
# 6 0.000000 0.000000 0.000000 0.000000 0.001689 0.032156
#
#
# Mechanical properties :
#
#
# Convention : Reuss Voigt Hill
#
# Bulk Modulus (GPa) = 58.83259 59.68338 59.25798
# Shear Modulus (GPa) = 33.36943 33.87548 33.62245
#
# Velocity S-wave (km/s) = 4.09345 4.12437 4.10894
# Velocity P-wave (km/s) = 7.20307 7.25605 7.22961
#
# Compressibility (1/GPa) = 0.01699738
#
# Stress axis : x y z
#
# Youngs Moduli (GPa) = 75.82014 75.82014 85.56125
#
# Poissons Ratio (x) = 0.21902 0.32708
# Poissons Ratio (y) = 0.21902 0.32708
# Poissons Ratio (z) = 0.28984 0.28984
#
# Static dielectric constant tensor:
#      x y z
#    x 1.722480 0.000000 0.000000 
#    y 0.000000 1.722480 0.000000 
#    z 0.000000 0.000000 1.731180 
# 
# From -- ./inp_files/3806.got.cif
#   From: 2010.05.17/outbox.ucp.g08.bks.cvg/sg154_2_cif.got.tgz:3806.got - 2010.06.11 15:13:38.
