data_PCOD9576626
_publ_section_title
;
Structure prediction by ZEFSAII (Michael W. Deem and Ramdas Pophale) SiO2 
 PCOD9576626
Probable space group: P 32 2 1
;
_chemical_formula_sum "Si O2"
_cell_formula_units_Z 33
_cell_length_a 11.749159
_cell_length_b 11.749159
_cell_length_c 11.384775
_cell_angle_alpha 90.000000
_cell_angle_beta 90.000000
_cell_angle_gamma 120.000000
_cell_volume 1361.032970
_symmetry_space_group_name_H-M "P 32 2 1"
_symmetry_group_IT_number 154
_symmetry_cell_setting 'hexagonal'
loop_
_space_group_symop_operation_xyz
x,y,z
-y,x-y,2/3+z
-x+y,-x,1/3+z
x-y,-y,1/3-z
-x,-x+y,2/3-z
y,x,-z
loop_
_atom_site_type_symbol
_atom_site_label
_atom_site_fract_x
_atom_site_fract_y
_atom_site_fract_z
Si Si1 0.591533 0.466791 0.855405
Si Si2 0.000000 0.744728 0.833334
Si Si3 0.729371 0.019019 0.537366
Si Si4 0.736062 0.607582 0.439869
Si Si5 0.838512 0.460921 0.927560
Si Si6 0.019489 0.266175 0.143541
O O1 0.444800 0.360013 0.886115
O O2 0.691675 0.433840 0.919418
O O3 0.598934 0.455390 0.713962
O O4 0.641864 0.618748 0.877566
O O5 0.065590 0.684586 0.744001
O O6 0.875162 0.760381 0.793284
O O7 0.863373 0.111966 0.468117
O O8 0.775906 0.000000 0.666667
O O9 0.626407 0.869717 0.504839
O O10 0.722206 0.722206 0.500000
O O11 0.613441 0.471695 0.483483
O O12 0.737371 0.643309 0.304009
#
# Coordination Sequence:
#
# PCOD9576626 Si02
#       6
#     6   3   6   6   6   6
#     4  11  25  42  69 100 138 181 229 296 345 413
#     4  10  22  44  66 100 138 176 234 286 352 416
#     4  10  26  42  67  98 135 182 227 286 352 409
#     4  11  22  42  69  97 129 179 231 275 340 414
#     4  11  24  41  70 101 134 183 234 288 350 415
#     4  10  23  44  65  98 136 174 230 287 341 415
#
# _framework density 24.246290999999999
#
# number of rings (size 3 to 8) (size 9 to 14) (size 15 to 20)
#    0.000    1.455    2.727    0.000   11.455    0.000 
#    0.000    2.727    0.000    0.000    0.000    0.000 
#    0.000    0.000    0.000    0.000    0.000    0.000 
#
# Total GULP energy -184136.887829 kJ/mol
# GULP energy per Si atom -5579.905692 kJ/mol
# Density = 2.419111 g / cm^3
# Si number density = 24.246291 Si / 1000 Ang^3
#
#
#
# Elastic Constant Matrix: (Units=GPa)
#
#
# Indices 1 2 3 4 5 6 
#
# 1 149.1483 100.2873 19.3924 0.4860 0.0001 0.0000
# 2 100.2873 149.1483 19.3924 -0.4860 -0.0001 0.0000
# 3 19.3924 19.3924 71.3319 0.0000 0.0000 0.0000
# 4 0.4860 -0.4860 0.0000 17.7721 0.0000 -0.0001
# 5 0.0001 -0.0001 0.0000 0.0000 17.7721 0.4860
# 6 0.0000 0.0000 0.0000 -0.0001 0.4860 24.4305
#
#
#
# Elastic Compliance Matrix: (Units=1/GPa)
#
#
# Indices 1 2 3 4 5 6 
#
# 1 0.012332 -0.008146 -0.001138 -0.000560 0.000000 0.000000
# 2 -0.008146 0.012332 -0.001138 0.000560 0.000000 0.000000
# 3 -0.001138 -0.001138 0.014638 0.000000 0.000000 0.000000
# 4 -0.000560 0.000560 0.000000 0.056298 0.000000 0.000000
# 5 0.000000 0.000000 0.000000 0.000000 0.056298 -0.001120
# 6 0.000000 0.000000 0.000000 0.000000 -0.001120 0.040955
#
#
# Mechanical properties :
#
#
# Convention : Reuss Voigt Hill
#
# Bulk Modulus (GPa) = 54.17793 71.97472 63.07633
# Shear Modulus (GPa) = 22.74290 27.36538 25.05414
#
# Velocity S-wave (km/s) = 3.06599 3.36317 3.21801
# Velocity P-wave (km/s) = 5.90992 6.69556 6.31497
#
# Compressibility (1/GPa) = 0.01845770
#
# Stress axis : x y z
#
# Youngs Moduli (GPa) = 81.09194 81.09194 68.31653
#
# Poissons Ratio (x) = 0.66055 0.07775
# Poissons Ratio (y) = 0.66055 0.07775
# Poissons Ratio (z) = 0.09228 0.09228
#
# Static dielectric constant tensor:
#      x y z
#    x 1.982130 0.000000 0.000000 
#    y 0.000000 1.982130 0.000000 
#    z 0.000000 0.000000 2.008360 
# 
# From -- ./inp_files/1996.got.cif
#   From: 2010.05.17/outbox.cif.g08.bks.cpg/sg154_1_cif.got.tgz:1996.got - 2010.05.20 10:41:43.
