data_PCOD9576445
_publ_section_title
;
Structure prediction by ZEFSAII (Michael W. Deem and Ramdas Pophale) SiO2 
 PCOD9576445
Probable space group: P 32 2 1
;
_chemical_formula_sum "Si O2"
_cell_formula_units_Z 42
_cell_length_a 9.391045
_cell_length_b 9.391045
_cell_length_c 29.944119
_cell_angle_alpha 90.000000
_cell_angle_beta 90.000000
_cell_angle_gamma 120.000000
_cell_volume 2287.020276
_symmetry_space_group_name_H-M "P 32 2 1"
_symmetry_group_IT_number 154
_symmetry_cell_setting 'hexagonal'
loop_
_space_group_symop_operation_xyz
x,y,z
-y,x-y,2/3+z
-x+y,-x,1/3+z
x-y,-y,1/3-z
-x,-x+y,2/3-z
y,x,-z
loop_
_atom_site_type_symbol
_atom_site_label
_atom_site_fract_x
_atom_site_fract_y
_atom_site_fract_z
Si Si1 0.585212 0.181544 0.790697
Si Si2 0.669809 0.205984 0.234878
Si Si3 0.061356 0.836591 0.883240
Si Si4 0.080423 0.581442 0.381530
Si Si5 0.871347 0.008612 0.614093
Si Si6 0.293036 0.962225 0.216683
Si Si7 0.518225 0.118927 0.482165
O O1 0.783468 0.280150 0.787432
O O2 0.519825 0.309540 0.790003
O O3 0.514053 0.054586 0.750093
O O4 0.522212 0.063220 0.833976
O O5 0.751180 0.332216 0.275846
O O6 0.761606 0.318722 0.191847
O O7 0.718281 0.064182 0.233561
O O8 0.474266 0.107768 0.229140
O O9 0.245708 0.869879 0.877104
O O10 0.000000 0.848976 0.833334
O O11 0.069509 0.965201 0.918775
O O12 0.000000 0.521921 0.333334
O O13 0.094884 0.758594 0.389620
O O14 0.770449 0.833899 0.589059
O O15 0.900100 0.000000 0.666667
O O16 0.253369 0.000000 0.166667
#
# Coordination Sequence:
#
# PCOD9576445 Si02
#       7
#     6   6   6   6   6   6   6
#     4  10  20  34  59  84 116 146 187 239 291 343
#     4  10  19  37  59  83 112 147 190 242 288 338
#     4  10  20  37  60  84 116 151 189 240 296 339
#     4   9  21  40  60  78 117 156 192 231 290 356
#     4  10  23  40  55  82 118 152 189 240 293 350
#     4  11  19  36  61  85 110 148 196 243 285 345
#     4  10  20  34  56  88 116 144 188 241 295 340
#
# _framework density 18.364508000000001
#
# number of rings (size 3 to 8) (size 9 to 14) (size 15 to 20)
#    0.000    2.000    2.857    0.857    6.000    0.571 
#    5.143    0.000    0.000    0.000    0.000    0.000 
#    0.000    0.000    0.000    0.000    0.000    0.000 
#
# Total GULP energy -234202.321337 kJ/mol
# GULP energy per Si atom -5576.245746 kJ/mol
# Density = 1.832271 g / cm^3
# Si number density = 18.364508 Si / 1000 Ang^3
#
#
#
# Elastic Constant Matrix: (Units=GPa)
#
#
# Indices 1 2 3 4 5 6 
#
# 1 72.2681 27.5138 39.5609 -4.7817 0.0000 0.0000
# 2 27.5138 72.2681 39.5609 4.7817 0.0000 0.0000
# 3 39.5609 39.5609 86.3823 0.0000 0.0000 0.0000
# 4 -4.7817 4.7817 0.0000 20.2346 0.0000 0.0000
# 5 0.0000 0.0000 0.0000 0.0000 20.2346 -4.7817
# 6 0.0000 0.0000 0.0000 0.0000 -4.7817 22.3771
#
#
#
# Elastic Compliance Matrix: (Units=1/GPa)
#
#
# Indices 1 2 3 4 5 6 
#
# 1 0.019635 -0.003898 -0.007207 0.005561 0.000000 0.000000
# 2 -0.003898 0.019635 -0.007207 -0.005561 0.000000 0.000000
# 3 -0.007207 -0.007207 0.018178 0.000000 0.000000 0.000000
# 4 0.005561 -0.005561 0.000000 0.052049 0.000000 0.000000
# 5 0.000000 0.000000 0.000000 0.000000 0.052049 0.011122
# 6 0.000000 0.000000 0.000000 0.000000 0.011122 0.047065
#
#
# Mechanical properties :
#
#
# Convention : Reuss Voigt Hill
#
# Bulk Modulus (GPa) = 48.02382 49.35442 48.68912
# Shear Modulus (GPa) = 19.82760 20.85479 20.34120
#
# Velocity S-wave (km/s) = 3.28940 3.37353 3.33173
# Velocity P-wave (km/s) = 6.37448 6.48903 6.43201
#
# Compressibility (1/GPa) = 0.02082300
#
# Stress axis : x y z
#
# Youngs Moduli (GPa) = 50.93058 50.93058 55.01256
#
# Poissons Ratio (x) = 0.19853 0.39647
# Poissons Ratio (y) = 0.19853 0.39647
# Poissons Ratio (z) = 0.36705 0.36705
#
# Static dielectric constant tensor:
#      x y z
#    x 1.644890 0.000000 0.000000 
#    y 0.000000 1.644890 0.000000 
#    z 0.000000 0.000000 1.640890 
# 
# From -- ./inp_files/3757.got.cif
#   From: 2010.05.17/outbox.cif.g08.bks.cpg/sg154_2_cif.got.tgz:3757.got - 2010.05.20 10:41:43.
