data_PCOD9576326
_publ_section_title
;
Structure prediction by ZEFSAII (Michael W. Deem and Ramdas Pophale) SiO2 
 PCOD9576326
Probable space group: P 32 1 2
;
_chemical_formula_sum "Si O2"
_cell_formula_units_Z 21
_cell_length_a 14.497360
_cell_length_b 14.497360
_cell_length_c 4.927207
_cell_angle_alpha 90.000000
_cell_angle_beta 90.000000
_cell_angle_gamma 120.000000
_cell_volume 896.828264
_symmetry_space_group_name_H-M "P 32 1 2"
_symmetry_group_IT_number 153
_symmetry_cell_setting 'hexagonal'
loop_
_space_group_symop_operation_xyz
x,y,z
-y,x-y,2/3+z
-x+y,-x,1/3+z
-y,-x,1/3-z
-x+y,y,2/3-z
x,x-y,-z
loop_
_atom_site_type_symbol
_atom_site_label
_atom_site_fract_x
_atom_site_fract_y
_atom_site_fract_z
Si Si1 0.174036 0.825965 0.666667
Si Si2 0.993248 0.822869 0.044598
Si Si3 0.348331 0.349617 0.025755
Si Si4 0.473527 0.128761 0.469716
O O1 0.080233 0.808990 0.870838
O O2 0.120677 0.719016 0.482458
O O3 0.903990 0.807980 0.833334
O O4 0.059031 0.940970 0.166667
O O5 0.967978 0.741408 0.293843
O O6 0.437203 0.364709 0.240747
O O7 0.408689 0.377394 0.740541
O O8 0.590225 0.180449 0.333334
O O9 0.444878 0.222439 0.500000
#
# Coordination Sequence:
#
# PCOD9576326 Si02
#       4
#     3   6   6   6
#     4  10  22  38  64  96 132 178 234 266 348 416
#     4  10  22  37  59  89 135 183 233 275 332 402
#     4  11  23  42  66  95 134 177 227 289 349 429
#     4  12  27  44  70  99 137 183 243 305 364 425
#
# _framework density 23.415854
#
# number of rings (size 3 to 8) (size 9 to 14) (size 15 to 20)
#    0.000    1.143    2.857    2.571    4.000    6.857 
#    0.000    4.286    0.000    0.000    0.000    0.000 
#   21.429    0.000    0.000    0.000    0.000    0.000 
#
# Total GULP energy -117044.970433 kJ/mol
# GULP energy per Si atom -5573.570021 kJ/mol
# Density = 2.336256 g / cm^3
# Si number density = 23.415854 Si / 1000 Ang^3
#
#
#
# Elastic Constant Matrix: (Units=GPa)
#
#
# Indices 1 2 3 4 5 6 
#
# 1 57.6422 45.9479 34.9606 0.0000 -4.9635 0.0000
# 2 45.9479 57.6422 34.9606 0.0000 4.9635 0.0000
# 3 34.9606 34.9606 160.3277 0.0000 0.0000 0.0000
# 4 0.0000 0.0000 0.0000 41.2464 0.0000 4.9635
# 5 -4.9635 4.9635 0.0000 0.0000 41.2464 0.0000
# 6 0.0000 0.0000 0.0000 4.9635 0.0000 5.8472
#
#
#
# Elastic Compliance Matrix: (Units=1/GPa)
#
#
# Indices 1 2 3 4 5 6 
#
# 1 0.053280 -0.041960 -0.002468 0.000000 0.011461 0.000000
# 2 -0.041960 0.053280 -0.002468 0.000000 -0.011461 0.000000
# 3 -0.002468 -0.002468 0.007314 0.000000 0.000000 0.000000
# 4 0.000000 0.000000 0.000000 0.027003 0.000000 -0.022922
# 5 0.011461 -0.011461 0.000000 0.000000 0.027003 0.000000
# 6 0.000000 0.000000 0.000000 -0.022922 0.000000 0.190480
#
#
# Mechanical properties :
#
#
# Convention : Reuss Voigt Hill
#
# Bulk Modulus (GPa) = 49.80212 56.37225 53.08718
# Shear Modulus (GPa) = 10.89693 28.31753 19.60723
#
# Velocity S-wave (km/s) = 2.15957 3.48132 2.89684
# Velocity P-wave (km/s) = 5.24720 6.34713 5.82319
#
# Compressibility (1/GPa) = 0.02007947
#
# Stress axis : x y z
#
# Youngs Moduli (GPa) = 18.76890 18.76890 136.72998
#
# Poissons Ratio (x) = 0.78755 0.33749
# Poissons Ratio (y) = 0.78755 0.33749
# Poissons Ratio (z) = 0.04633 0.04633
#
# Static dielectric constant tensor:
#      x y z
#    x 1.997020 0.000000 0.000000 
#    y 0.000000 1.997020 0.000000 
#    z 0.000000 0.000000 1.927890 
# 
# From -- ./inp_files/186.got.cif
#   From: 2010.05.17/outbox.cif.g08.bks.cpg/sg153_1_cif.got.tgz:186.got - 2010.05.20 10:38:56.
