data_PCOD9576098
_publ_section_title
;
Structure prediction by ZEFSAII (Michael W. Deem and Ramdas Pophale) SiO2 
 PCOD9576098
Probable space group: P 31 2 1
;
_chemical_formula_sum "Si O2"
_cell_formula_units_Z 30
_cell_length_a 17.810472
_cell_length_b 17.810472
_cell_length_c 4.917211
_cell_angle_alpha 90.000000
_cell_angle_beta 90.000000
_cell_angle_gamma 120.000000
_cell_volume 1350.828871
_symmetry_space_group_name_H-M "P 31 2 1"
_symmetry_group_IT_number 152
_symmetry_cell_setting 'hexagonal'
loop_
_space_group_symop_operation_xyz
x,y,z
-y,x-y,1/3+z
-x+y,-x,2/3+z
x-y,-y,2/3-z
-x,-x+y,1/3-z
y,x,-z
loop_
_atom_site_type_symbol
_atom_site_label
_atom_site_fract_x
_atom_site_fract_y
_atom_site_fract_z
Si Si1 0.175980 0.634233 0.836741
Si Si2 0.271747 0.756952 0.360633
Si Si3 0.367423 0.367423 0.000000
Si Si4 0.098756 0.235643 0.142906
Si Si5 0.000000 0.915822 0.166667
Si Si6 0.125939 0.798520 0.315046
O O1 0.239740 0.686262 0.593029
O O2 0.174157 0.544107 0.781418
O O3 0.080306 0.624171 0.796812
O O4 0.230198 0.694576 0.093306
O O5 0.214795 0.802501 0.387390
O O6 0.292556 0.340707 0.768028
O O7 0.100228 0.155418 0.279570
O O8 0.173392 0.310726 0.332833
O O9 0.000000 0.216035 0.166667
O O10 0.129066 0.252014 0.833508
O O11 0.064201 0.000000 0.333334
#
# Coordination Sequence:
#
# PCOD9576098 Si02
#       6
#     6   6   3   6   3   6
#     4  11  23  42  70 104 136 181 231 286 351 420
#     4  11  23  42  70 100 137 174 222 281 345 416
#     4  10  24  44  70 104 134 184 242 296 344 418
#     4  12  25  43  64  94 129 179 220 277 341 406
#     4  12  24  40  62  92 124 164 234 284 328 374
#     4  11  24  43  67  96 137 177 229 280 346 414
#
# _framework density 22.208584999999999
#
# number of rings (size 3 to 8) (size 9 to 14) (size 15 to 20)
#    0.000    0.800    1.000    7.800    0.000    6.400 
#    3.600    0.000    0.000    0.000    0.000    0.000 
#    0.000    0.000    0.000    0.000    0.000    0.000 
#
# Total GULP energy -167291.125236 kJ/mol
# GULP energy per Si atom -5576.370841 kJ/mol
# Density = 2.215804 g / cm^3
# Si number density = 22.208585 Si / 1000 Ang^3
#
#
#
# Elastic Constant Matrix: (Units=GPa)
#
#
# Indices 1 2 3 4 5 6 
#
# 1 115.9287 48.3772 12.2423 8.4699 0.0000 0.0000
# 2 48.3772 115.9287 12.2423 -8.4699 0.0000 0.0000
# 3 12.2423 12.2423 129.0373 0.0000 0.0000 0.0000
# 4 8.4699 -8.4699 0.0000 21.1364 0.0000 0.0000
# 5 0.0000 0.0000 0.0000 0.0000 21.1364 8.4699
# 6 0.0000 0.0000 0.0000 0.0000 8.4699 33.7758
#
#
#
# Elastic Compliance Matrix: (Units=1/GPa)
#
#
# Indices 1 2 3 4 5 6 
#
# 1 0.011315 -0.005142 -0.000586 -0.006595 0.000000 0.000000
# 2 -0.005142 0.011315 -0.000586 0.006595 0.000000 0.000000
# 3 -0.000586 -0.000586 0.007861 0.000000 0.000000 0.000000
# 4 -0.006595 0.006595 0.000000 0.052597 0.000000 0.000000
# 5 0.000000 0.000000 0.000000 0.000000 0.052597 -0.013190
# 6 0.000000 0.000000 0.000000 0.000000 -0.013190 0.032915
#
#
# Mechanical properties :
#
#
# Convention : Reuss Voigt Hill
#
# Bulk Modulus (GPa) = 55.97538 56.29092 56.13315
# Shear Modulus (GPa) = 26.71196 34.41192 30.56194
#
# Velocity S-wave (km/s) = 3.47187 3.94062 3.71365
# Velocity P-wave (km/s) = 6.42891 6.79015 6.61200
#
# Compressibility (1/GPa) = 0.01786500
#
# Stress axis : x y z
#
# Youngs Moduli (GPa) = 88.37519 88.37519 127.21297
#
# Poissons Ratio (x) = 0.45442 0.07451
# Poissons Ratio (y) = 0.45442 0.07451
# Poissons Ratio (z) = 0.05176 0.05176
#
# Static dielectric constant tensor:
#      x y z
#    x 1.815990 0.000000 0.000000 
#    y 0.000000 1.815990 0.000000 
#    z 0.000000 0.000000 1.829920 
# 
# From -- ./inp_files/374.got.cif
#   From: 2010.05.17/outbox.cif.g08.bks.cpg/sg152_1_cif.got.tgz:374.got - 2010.05.20 10:36:06.
