data_PCOD9576721
_publ_section_title
;
Structure prediction by ZEFSAII (Michael W. Deem and Ramdas Pophale) SiO2 
 PCOD9576721
Probable space group: P 32 2 1
;
_chemical_formula_sum "Si O2"
_cell_formula_units_Z 33
_cell_length_a 11.525558
_cell_length_b 11.525558
_cell_length_c 13.916178
_cell_angle_alpha 90.000000
_cell_angle_beta 90.000000
_cell_angle_gamma 120.000000
_cell_volume 1600.938054
_symmetry_space_group_name_H-M "P 32 2 1"
_symmetry_group_IT_number 154
_symmetry_cell_setting 'hexagonal'
loop_
_space_group_symop_operation_xyz
x,y,z
-y,x-y,2/3+z
-x+y,-x,1/3+z
x-y,-y,1/3-z
-x,-x+y,2/3-z
y,x,-z
loop_
_atom_site_type_symbol
_atom_site_label
_atom_site_fract_x
_atom_site_fract_y
_atom_site_fract_z
Si Si1 0.675288 0.219609 0.046491
Si Si2 0.934619 0.934619 0.500000
Si Si3 0.215755 0.916451 0.018851
Si Si4 0.425953 0.780613 0.776523
Si Si5 0.618967 0.618967 0.000000
Si Si6 0.811134 0.703442 0.181934
Si Si7 0.564922 0.564922 0.500000
O O1 0.745157 0.340808 0.124494
O O2 0.551803 0.098788 0.098799
O O3 0.770112 0.156450 0.024294
O O4 0.627204 0.273227 0.955647
O O5 0.840413 0.872583 0.406182
O O6 0.070614 0.929428 0.485041
O O7 0.309005 0.911276 0.100925
O O8 0.301558 0.020527 0.936682
O O9 0.403679 0.886261 0.715469
O O10 0.584398 0.843406 0.798807
O O11 0.668021 0.730466 0.917216
#
# Coordination Sequence:
#
# PCOD9576721 Si02
#       7
#     6   3   6   6   3   6   3
#     4  12  24  44  72 108 145 183 245 302 371 434
#     4  11  30  47  72 104 148 201 243 296 372 448
#     4  11  25  45  69 106 143 187 244 293 362 441
#     4  12  26  45  74 108 146 189 238 313 369 433
#     4  12  28  44  74 112 142 188 246 298 376 432
#     4  12  27  48  73 104 151 191 245 300 370 447
#     4  11  24  41  72 108 140 189 239 298 372 440
#
# _framework density 20.612912999999999
#
# number of rings (size 3 to 8) (size 9 to 14) (size 15 to 20)
#    0.000    0.364    7.273    0.545    5.091    5.091 
#    0.000    0.000    0.000    0.000    0.000    0.000 
#    0.000    0.000    0.000    0.000    0.000    0.000 
#
# Total GULP energy -184241.580707 kJ/mol
# GULP energy per Si atom -5583.078203 kJ/mol
# Density = 2.056600 g / cm^3
# Si number density = 20.612913 Si / 1000 Ang^3
#
#
#
# Elastic Constant Matrix: (Units=GPa)
#
#
# Indices 1 2 3 4 5 6 
#
# 1 84.4224 34.9718 18.4556 5.1311 0.0000 0.0000
# 2 34.9718 84.4224 18.4556 -5.1311 0.0000 0.0000
# 3 18.4556 18.4556 96.1752 0.0000 0.0000 0.0000
# 4 5.1311 -5.1311 0.0000 40.0350 0.0000 0.0000
# 5 0.0000 0.0000 0.0000 0.0000 40.0350 5.1311
# 6 0.0000 0.0000 0.0000 0.0000 5.1311 24.7253
#
#
#
# Elastic Compliance Matrix: (Units=1/GPa)
#
#
# Indices 1 2 3 4 5 6 
#
# 1 0.014839 -0.005935 -0.001709 -0.002663 0.000000 0.000000
# 2 -0.005935 0.014839 -0.001709 0.002663 0.000000 0.000000
# 3 -0.001709 -0.001709 0.011053 0.000000 0.000000 0.000000
# 4 -0.002663 0.002663 0.000000 0.025661 0.000000 0.000000
# 5 0.000000 0.000000 0.000000 0.000000 0.025661 -0.005325
# 6 0.000000 0.000000 0.000000 0.000000 -0.005325 0.041550
#
#
# Mechanical properties :
#
#
# Convention : Reuss Voigt Hill
#
# Bulk Modulus (GPa) = 45.39949 45.42068 45.41009
# Shear Modulus (GPa) = 31.31841 33.83486 32.57663
#
# Velocity S-wave (km/s) = 3.90212 4.05586 3.97974
# Velocity P-wave (km/s) = 6.50958 6.63448 6.57233
#
# Compressibility (1/GPa) = 0.02202668
#
# Stress axis : x y z
#
# Youngs Moduli (GPa) = 67.38862 67.38862 90.46956
#
# Poissons Ratio (x) = 0.39998 0.15458
# Poissons Ratio (y) = 0.39998 0.15458
# Poissons Ratio (z) = 0.11514 0.11514
#
# Static dielectric constant tensor:
#      x y z
#    x 1.739040 0.000000 0.000000 
#    y 0.000000 1.739040 0.000000 
#    z 0.000000 0.000000 1.890910 
# 
# From -- ./inp_files/2023.got.cif
#   From: 2010.05.17/outbox.cif.g08.bks.cpg/sg154_2_cif.got.tgz:2023.got - 2010.05.20 10:41:43.
