data_PCOD9576407
_publ_section_title
;
Structure prediction by ZEFSAII (Michael W. Deem and Ramdas Pophale) SiO2 
 PCOD9576407
Probable space group: P 32 2 1
;
_chemical_formula_sum "Si O2"
_cell_formula_units_Z 42
_cell_length_a 8.553363
_cell_length_b 8.553363
_cell_length_c 27.767250
_cell_angle_alpha 90.000000
_cell_angle_beta 90.000000
_cell_angle_gamma 120.000000
_cell_volume 1759.289495
_symmetry_space_group_name_H-M "P 32 2 1"
_symmetry_group_IT_number 154
_symmetry_cell_setting 'hexagonal'
loop_
_space_group_symop_operation_xyz
x,y,z
-y,x-y,2/3+z
-x+y,-x,1/3+z
x-y,-y,1/3-z
-x,-x+y,2/3-z
y,x,-z
loop_
_atom_site_type_symbol
_atom_site_label
_atom_site_fract_x
_atom_site_fract_y
_atom_site_fract_z
Si Si1 0.502503 0.625629 0.194820
Si Si2 0.282355 0.621578 0.715252
Si Si3 0.772824 0.244108 0.382232
Si Si4 0.047313 0.634518 0.916547
Si Si5 0.158188 0.239239 0.680517
Si Si6 0.624077 0.830023 0.611983
Si Si7 0.155359 0.751898 0.442966
O O1 0.351259 0.526175 0.237040
O O2 0.566614 0.834949 0.203634
O O3 0.406265 0.524926 0.146480
O O4 0.683605 0.617368 0.201974
O O5 0.209173 0.648656 0.664709
O O6 0.249296 0.422000 0.712574
O O7 0.488844 0.756560 0.726607
O O8 0.163012 0.654474 0.754128
O O9 0.881761 0.463630 0.381197
O O10 0.863900 0.121143 0.370680
O O11 0.122513 0.504258 0.934819
O O12 0.077190 0.779018 0.958593
O O13 0.945894 0.166861 0.687306
O O14 0.738819 0.966505 0.569177
#
# Coordination Sequence:
#
# PCOD9576407 Si02
#       7
#     6   6   6   6   6   6   6
#     4  11  22  41  66  90 137 180 231 276 357 412
#     4  10  20  38  68  98 125 173 226 276 359 404
#     4  10  20  39  68  97 133 174 231 291 333 439
#     4   9  20  39  69  93 131 172 225 278 336 427
#     4  10  18  39  68 100 129 178 219 285 349 417
#     4  10  22  38  64  99 134 168 232 269 354 417
#     4  12  26  42  65  98 134 185 222 294 346 428
#
# _framework density 23.873270999999999
#
# number of rings (size 3 to 8) (size 9 to 14) (size 15 to 20)
#    0.000    1.714    4.286    1.714    2.000    1.143 
#    2.571    0.714    3.143    0.000    0.000    0.000 
#    0.000    0.000    0.000    0.000    0.000    0.000 
#
# Total GULP energy -234096.978442 kJ/mol
# GULP energy per Si atom -5573.737582 kJ/mol
# Density = 2.381893 g / cm^3
# Si number density = 23.873271 Si / 1000 Ang^3
#
#
#
# Elastic Constant Matrix: (Units=GPa)
#
#
# Indices 1 2 3 4 5 6 
#
# 1 90.3405 57.9108 21.2733 -1.7531 0.0000 0.0000
# 2 57.9108 90.3405 21.2733 1.7531 0.0000 0.0000
# 3 21.2733 21.2733 65.0570 0.0000 0.0000 0.0000
# 4 -1.7531 1.7531 0.0000 35.3053 0.0000 0.0000
# 5 0.0000 0.0000 0.0000 0.0000 35.3053 -1.7531
# 6 0.0000 0.0000 0.0000 0.0000 -1.7531 16.2148
#
#
#
# Elastic Compliance Matrix: (Units=1/GPa)
#
#
# Indices 1 2 3 4 5 6 
#
# 1 0.019223 -0.011779 -0.002434 0.001539 0.000000 0.000000
# 2 -0.011779 0.019223 -0.002434 -0.001539 0.000000 0.000000
# 3 -0.002434 -0.002434 0.016963 0.000000 0.000000 0.000000
# 4 0.001539 -0.001539 0.000000 0.028477 0.000000 0.000000
# 5 0.000000 0.000000 0.000000 0.000000 0.028477 0.003079
# 6 0.000000 0.000000 0.000000 0.000000 0.003079 0.062005
#
#
# Mechanical properties :
#
#
# Convention : Reuss Voigt Hill
#
# Bulk Modulus (GPa) = 45.21957 49.62810 47.42384
# Shear Modulus (GPa) = 23.25204 27.05046 25.15125
#
# Velocity S-wave (km/s) = 3.12425 3.36979 3.24934
# Velocity P-wave (km/s) = 5.65661 5.99782 5.82971
#
# Compressibility (1/GPa) = 0.02211432
#
# Stress axis : x y z
#
# Youngs Moduli (GPa) = 52.02068 52.02068 58.95181
#
# Poissons Ratio (x) = 0.61277 0.14349
# Poissons Ratio (y) = 0.61277 0.14349
# Poissons Ratio (z) = 0.12662 0.12662
#
# Static dielectric constant tensor:
#      x y z
#    x 1.934480 0.000000 0.000000 
#    y 0.000000 1.934480 0.000000 
#    z 0.000000 0.000000 1.900050 
# 
# From -- ./inp_files/3774.got.cif
#   From: 2010.05.17/outbox.cif.g08.bks.cpg/sg154_2_cif.got.tgz:3774.got - 2010.05.20 10:41:43.
