data_PCOD9576819
_publ_section_title
;
Structure prediction by ZEFSAII (Michael W. Deem and Ramdas Pophale) SiO2 
 PCOD9576819
Probable space group: R 3 2
;
_chemical_formula_sum "Si O2"
_cell_formula_units_Z 126
_cell_length_a 23.703534
_cell_length_b 23.703534
_cell_length_c 15.089445
_cell_angle_alpha 90.000000
_cell_angle_beta 90.000000
_cell_angle_gamma 120.000000
_cell_volume 7342.265744
_symmetry_space_group_name_H-M "R 3 2"
_symmetry_group_IT_number 155
_symmetry_cell_setting 'hexagonal'
loop_
_space_group_symop_operation_xyz
x,y,z
-y,x-y,z
-x+y,-x,z
x-y,-y,-z
-x,-x+y,-z
y,x,-z
2/3+x,1/3+y,1/3+z
2/3-y,1/3+x-y,1/3+z
2/3-x+y,1/3-x,1/3+z
2/3+x-y,1/3-y,1/3-z
2/3-x,1/3-x+y,1/3-z
2/3+y,1/3+x,1/3-z
1/3+x,2/3+y,2/3+z
1/3-y,2/3+x-y,2/3+z
1/3-x+y,2/3-x,2/3+z
1/3+x-y,2/3-y,2/3-z
1/3-x,2/3-x+y,2/3-z
1/3+y,2/3+x,2/3-z
loop_
_atom_site_type_symbol
_atom_site_label
_atom_site_fract_x
_atom_site_fract_y
_atom_site_fract_z
Si Si1 0.150703 0.075096 0.862488
Si Si2 0.591419 0.057584 0.933852
Si Si3 0.589098 0.085189 0.334120
Si Si4 0.407957 0.817697 0.316696
Si Si5 0.182474 0.590771 0.529286
Si Si6 0.074762 0.149870 0.350482
Si Si7 0.721811 0.922626 0.603142
O O1 0.215327 0.123276 0.916210
O O2 0.099513 0.099651 0.883179
O O3 0.159689 0.079655 0.756343
O O4 0.120790 0.000079 0.888792
O O5 0.667575 0.089605 0.961079
O O6 0.584072 0.034498 0.832751
O O7 0.575299 0.115640 0.939742
O O8 0.548534 0.000000 0.000000
O O9 0.666667 0.111843 0.333334
O O10 0.574507 0.117101 0.418888
O O11 0.551213 0.007723 0.327459
O O12 0.412028 0.825988 0.423423
O O13 0.333216 0.787377 0.289588
O O14 0.432769 0.766833 0.295499
O O15 0.459781 0.887129 0.277344
#
# Coordination Sequence:
#
# PCOD9576819 Si02
#       7
#    18  18  18  18  18  18  18
#     4   9  16  28  46  72 101 130 164 196 233 285
#     4  10  20  35  53  71  94 128 165 203 244 287
#     4  10  19  30  45  69  99 133 168 201 237 281
#     4   9  18  32  50  76 102 126 156 196 245 296
#     4   9  17  28  47  72 102 134 162 196 239 285
#     4   9  17  31  52  74  99 127 155 193 244 295
#     4  10  21  34  49  72  99 126 163 205 244 290
#
# _framework density 17.160914999999999
#
# number of rings (size 3 to 8) (size 9 to 14) (size 15 to 20)
#    0.000    2.571    0.000    2.286    0.000    4.571 
#    0.000    1.429    0.000    3.429    0.000    6.000 
#    0.000    0.000    0.000    0.000    0.000    0.000 
#
# Total GULP energy -234315.120338 kJ/mol
# GULP energy per Si atom -5578.931437 kJ/mol
# Density = 1.712186 g / cm^3
# Si number density = 17.160915 Si / 1000 Ang^3
#
#
#
# Elastic Constant Matrix: (Units=GPa)
#
#
# Indices 1 2 3 4 5 6 
#
# 1 92.9242 49.2751 18.8204 -0.9736 0.0001 0.0000
# 2 49.2751 92.9242 18.8204 0.9736 -0.0001 0.0000
# 3 18.8204 18.8204 30.0778 0.0000 0.0000 0.0000
# 4 -0.9736 0.9736 0.0000 20.3591 0.0000 -0.0001
# 5 0.0001 -0.0001 0.0000 0.0000 20.3591 -0.9736
# 6 0.0000 0.0000 0.0000 -0.0001 -0.9736 21.8245
#
#
#
# Elastic Compliance Matrix: (Units=1/GPa)
#
#
# Indices 1 2 3 4 5 6 
#
# 1 0.015694 -0.007265 -0.005274 0.001098 0.000000 0.000000
# 2 -0.007265 0.015694 -0.005274 -0.001098 0.000000 0.000000
# 3 -0.005274 -0.005274 0.039847 0.000000 0.000000 0.000000
# 4 0.001098 -0.001098 0.000000 0.049223 0.000000 0.000000
# 5 0.000000 0.000000 0.000000 0.000000 0.049223 0.002196
# 6 0.000000 0.000000 0.000000 0.000000 0.002196 0.045918
#
#
# Mechanical properties :
#
#
# Convention : Reuss Voigt Hill
#
# Bulk Modulus (GPa) = 28.08323 43.30645 35.69484
# Shear Modulus (GPa) = 19.00461 21.10923 20.05692
#
# Velocity S-wave (km/s) = 3.33143 3.51105 3.42242
# Velocity P-wave (km/s) = 5.58552 6.45964 6.03842
#
# Compressibility (1/GPa) = 0.03560844
#
# Stress axis : x y z
#
# Youngs Moduli (GPa) = 63.71991 63.71991 25.09597
#
# Poissons Ratio (x) = 0.46294 0.13235
# Poissons Ratio (y) = 0.46294 0.13235
# Poissons Ratio (z) = 0.33605 0.33605
#
# Static dielectric constant tensor:
#      x y z
#    x 1.558010 0.000000 0.000000 
#    y 0.000000 1.558010 0.000000 
#    z 0.000000 0.000000 1.620100 
# 
# From -- ./inp_files/6274.got.cif
#   From: 2010.05.17/outbox.cif.g08.bks.cpg/sg155_4_cif.got.tgz:6274.got - 2010.05.20 10:44:35.
