data_PCOD9576894
_publ_section_title
;
Structure prediction by ZEFSAII (Michael W. Deem and Ramdas Pophale) SiO2 
 PCOD9576894
Probable space group: R 3 2
;
_chemical_formula_sum "Si O2"
_cell_formula_units_Z 108
_cell_length_a 20.744772
_cell_length_b 20.744772
_cell_length_c 14.801516
_cell_angle_alpha 90.000000
_cell_angle_beta 90.000000
_cell_angle_gamma 120.000000
_cell_volume 5516.379840
_symmetry_space_group_name_H-M "R 3 2"
_symmetry_group_IT_number 155
_symmetry_cell_setting 'hexagonal'
loop_
_space_group_symop_operation_xyz
x,y,z
-y,x-y,z
-x+y,-x,z
x-y,-y,-z
-x,-x+y,-z
y,x,-z
2/3+x,1/3+y,1/3+z
2/3-y,1/3+x-y,1/3+z
2/3-x+y,1/3-x,1/3+z
2/3+x-y,1/3-y,1/3-z
2/3-x,1/3-x+y,1/3-z
2/3+y,1/3+x,1/3-z
1/3+x,2/3+y,2/3+z
1/3-y,2/3+x-y,2/3+z
1/3-x+y,2/3-x,2/3+z
1/3+x-y,2/3-y,2/3-z
1/3-x,2/3-x+y,2/3-z
1/3+y,2/3+x,2/3-z
loop_
_atom_site_type_symbol
_atom_site_label
_atom_site_fract_x
_atom_site_fract_y
_atom_site_fract_z
Si Si1 0.830612 0.414603 0.314285
Si Si2 0.399683 0.914611 0.519250
Si Si3 0.742886 0.841052 0.186385
Si Si4 0.252204 0.406251 0.145779
Si Si5 0.835055 0.424679 0.649112
Si Si6 0.743240 0.500883 0.692086
O O1 0.760242 0.333334 0.333334
O O2 0.811341 0.478008 0.333334
O O3 0.891289 0.413764 0.382204
O O4 0.858359 0.424127 0.212275
O O5 0.314862 0.898107 0.504610
O O6 0.412889 0.864016 0.446591
O O7 0.455406 0.000000 0.500000
O O8 0.670105 0.846349 0.164641
O O9 0.764849 0.861097 0.290245
O O10 0.333334 0.414577 0.166667
O O11 0.250088 0.431316 0.043746
O O12 0.251562 0.466955 0.213869
O O13 0.775188 0.451802 0.647197
O O14 0.798272 0.345127 0.698545
#
# Coordination Sequence:
#
# PCOD9576894 Si02
#       6
#    18  18  18  18  18  18
#     4  10  20  36  58  82 109 140 181 230 278 330
#     4  10  21  36  56  81 111 145 181 226 276 330
#     4  10  21  37  55  79 109 143 183 222 269 328
#     4  10  21  37  55  78 110 144 181 222 267 326
#     4  10  20  35  56  80 107 137 175 224 272 320
#     4  10  20  35  56  80 106 137 176 222 270 322
#
# _framework density 19.578057000000001
#
# number of rings (size 3 to 8) (size 9 to 14) (size 15 to 20)
#    0.000    2.000    0.000    3.500    0.000    1.333 
#    0.000   16.667    0.000    0.000    0.000    0.000 
#    0.000    0.000    0.000    0.000    0.000    0.000 
#
# Total GULP energy -200753.297109 kJ/mol
# GULP energy per Si atom -5576.480475 kJ/mol
# Density = 1.953350 g / cm^3
# Si number density = 19.578057 Si / 1000 Ang^3
#
#
#
# Elastic Constant Matrix: (Units=GPa)
#
#
# Indices 1 2 3 4 5 6 
#
# 1 60.2240 27.0352 -3.8364 2.3925 -0.0001 0.0000
# 2 27.0352 60.2240 -3.8364 -2.3925 0.0001 0.0000
# 3 -3.8364 -3.8364 61.9828 0.0000 0.0000 0.0000
# 4 2.3925 -2.3925 0.0000 14.3779 0.0000 0.0001
# 5 -0.0001 0.0001 0.0000 0.0000 14.3779 2.3925
# 6 0.0000 0.0000 0.0000 0.0001 2.3925 16.5944
#
#
#
# Elastic Compliance Matrix: (Units=1/GPa)
#
#
# Indices 1 2 3 4 5 6 
#
# 1 0.021197 -0.009674 0.000713 -0.005137 0.000000 0.000000
# 2 -0.009674 0.021197 0.000713 0.005137 0.000000 0.000000
# 3 0.000713 0.000713 0.016222 0.000000 0.000000 0.000000
# 4 -0.005137 0.005137 0.000000 0.071261 0.000000 0.000000
# 5 0.000000 0.000000 0.000000 0.000000 0.071261 -0.010274
# 6 0.000000 0.000000 0.000000 0.000000 -0.010274 0.061743
#
#
# Mechanical properties :
#
#
# Convention : Reuss Voigt Hill
#
# Bulk Modulus (GPa) = 23.74154 24.57282 24.15718
# Shear Modulus (GPa) = 17.04067 19.94127 18.49097
#
# Velocity S-wave (km/s) = 2.95345 3.19494 3.07656
# Velocity P-wave (km/s) = 4.87682 5.11748 4.99860
#
# Compressibility (1/GPa) = 0.04212027
#
# Stress axis : x y z
#
# Youngs Moduli (GPa) = 47.17637 47.17637 61.64550
#
# Poissons Ratio (x) = 0.45639 -0.04397
# Poissons Ratio (y) = 0.45639 -0.04397
# Poissons Ratio (z) = -0.03365 -0.03365
#
# Static dielectric constant tensor:
#      x y z
#    x 1.686740 0.000000 0.000000 
#    y 0.000000 1.686740 0.000000 
#    z 0.000000 0.000000 1.674010 
# 
# From -- ./inp_files/5130.got.cif
#   From: 2010.05.17/outbox.cif.g08.bks.cpg/sg155_3_cif.got.tgz:5130.got - 2010.05.20 10:44:35.
