data_PCOD9576612
_publ_section_title
;
Structure prediction by ZEFSAII (Michael W. Deem and Ramdas Pophale) SiO2 
 PCOD9576612
Probable space group: P 32 2 1
;
_chemical_formula_sum "Si O2"
_cell_formula_units_Z 42
_cell_length_a 9.195243
_cell_length_b 9.195243
_cell_length_c 26.210939
_cell_angle_alpha 90.000000
_cell_angle_beta 90.000000
_cell_angle_gamma 120.000000
_cell_volume 1919.285723
_symmetry_space_group_name_H-M "P 32 2 1"
_symmetry_group_IT_number 154
_symmetry_cell_setting 'hexagonal'
loop_
_space_group_symop_operation_xyz
x,y,z
-y,x-y,2/3+z
-x+y,-x,1/3+z
x-y,-y,1/3-z
-x,-x+y,2/3-z
y,x,-z
loop_
_atom_site_type_symbol
_atom_site_label
_atom_site_fract_x
_atom_site_fract_y
_atom_site_fract_z
Si Si1 0.463668 0.645781 0.676893
Si Si2 0.156996 0.274345 0.088582
Si Si3 0.824849 0.035654 0.225905
Si Si4 0.850963 0.204668 0.865276
Si Si5 0.453670 0.892321 0.048933
Si Si6 0.516552 0.293671 0.100204
Si Si7 0.172495 0.353903 0.203569
O O1 0.622430 0.791006 0.705262
O O2 0.303729 0.634894 0.704047
O O3 0.497712 0.490745 0.671367
O O4 0.446360 0.670545 0.617159
O O5 0.332044 0.272935 0.091547
O O6 0.157183 0.362576 0.142102
O O7 0.974511 0.106108 0.088326
O O8 0.687829 0.059740 0.256843
O O9 0.000214 0.206916 0.225862
O O10 0.771026 0.000000 0.166667
O O11 0.918584 0.326152 0.913590
O O12 0.787634 0.287115 0.822740
O O13 0.000000 0.197990 0.833334
O O14 0.706987 0.016124 0.878038
O O15 0.674622 0.477778 0.105868
#
# Coordination Sequence:
#
# PCOD9576612 Si02
#       7
#     6   6   6   6   6   6   6
#     4  12  26  42  63  94 144 181 225 288 359 431
#     4  10  22  45  67  99 135 182 228 289 352 422
#     4  10  22  43  71  97 131 175 235 290 346 419
#     4  11  22  45  72  99 134 185 238 296 350 421
#     4  12  26  43  66 100 139 183 233 286 360 425
#     4  11  23  42  68 100 135 181 231 286 351 422
#     4  10  22  41  73 100 129 173 238 290 344 423
#
# _framework density 21.883140999999998
#
# number of rings (size 3 to 8) (size 9 to 14) (size 15 to 20)
#    0.000    1.143    1.429    5.571    2.000    1.143 
#    5.143    0.000    0.000    0.000    0.000    0.000 
#    0.000    0.000    0.000    0.000    0.000    0.000 
#
# Total GULP energy -234344.397749 kJ/mol
# GULP energy per Si atom -5579.628518 kJ/mol
# Density = 2.183333 g / cm^3
# Si number density = 21.883141 Si / 1000 Ang^3
#
#
#
# Elastic Constant Matrix: (Units=GPa)
#
#
# Indices 1 2 3 4 5 6 
#
# 1 78.5916 21.9776 18.5885 -4.2924 -0.0001 0.0000
# 2 21.9776 78.5916 18.5885 4.2924 0.0001 0.0000
# 3 18.5885 18.5885 38.7939 0.0000 0.0000 0.0000
# 4 -4.2924 4.2924 0.0000 30.3735 0.0000 0.0001
# 5 -0.0001 0.0001 0.0000 0.0000 30.3735 -4.2924
# 6 0.0000 0.0000 0.0000 0.0001 -4.2924 28.3070
#
#
#
# Elastic Compliance Matrix: (Units=1/GPa)
#
#
# Indices 1 2 3 4 5 6 
#
# 1 0.015067 -0.002983 -0.005790 0.002551 0.000000 0.000000
# 2 -0.002983 0.015067 -0.005790 -0.002551 0.000000 0.000000
# 3 -0.005790 -0.005790 0.031326 0.000000 0.000000 0.000000
# 4 0.002551 -0.002551 0.000000 0.033644 0.000000 0.000000
# 5 0.000000 0.000000 0.000000 0.000000 0.033644 0.005102
# 6 0.000000 0.000000 0.000000 0.000000 0.005102 0.036101
#
#
# Mechanical properties :
#
#
# Convention : Reuss Voigt Hill
#
# Bulk Modulus (GPa) = 30.92788 34.92071 32.92430
# Shear Modulus (GPa) = 24.41951 26.93227 25.67589
#
# Velocity S-wave (km/s) = 3.34414 3.51198 3.42909
# Velocity P-wave (km/s) = 5.39212 5.69542 5.54584
#
# Compressibility (1/GPa) = 0.03233328
#
# Stress axis : x y z
#
# Youngs Moduli (GPa) = 66.36998 66.36998 31.92228
#
# Poissons Ratio (x) = 0.19800 0.18483
# Poissons Ratio (y) = 0.19800 0.18483
# Poissons Ratio (z) = 0.38429 0.38429
#
# Static dielectric constant tensor:
#      x y z
#    x 1.845850 0.000000 0.000000 
#    y 0.000000 1.845850 0.000000 
#    z 0.000000 0.000000 1.807290 
# 
# From -- ./inp_files/3792.got.cif
#   From: 2010.05.17/outbox.cif.g08.bks.cpg/sg154_2_cif.got.tgz:3792.got - 2010.05.20 10:41:43.
