data_PCOD9576848
_publ_section_title
;
Structure prediction by ZEFSAII (Michael W. Deem and Ramdas Pophale) SiO2 
 PCOD9576848
Probable space group: R 3 2
;
_chemical_formula_sum "Si O2"
_cell_formula_units_Z 126
_cell_length_a 17.743368
_cell_length_b 17.743368
_cell_length_c 21.108896
_cell_angle_alpha 90.000000
_cell_angle_beta 90.000000
_cell_angle_gamma 120.000000
_cell_volume 5755.304046
_symmetry_space_group_name_H-M "R 3 2"
_symmetry_group_IT_number 155
_symmetry_cell_setting 'hexagonal'
loop_
_space_group_symop_operation_xyz
x,y,z
-y,x-y,z
-x+y,-x,z
x-y,-y,-z
-x,-x+y,-z
y,x,-z
2/3+x,1/3+y,1/3+z
2/3-y,1/3+x-y,1/3+z
2/3-x+y,1/3-x,1/3+z
2/3+x-y,1/3-y,1/3-z
2/3-x,1/3-x+y,1/3-z
2/3+y,1/3+x,1/3-z
1/3+x,2/3+y,2/3+z
1/3-y,2/3+x-y,2/3+z
1/3-x+y,2/3-x,2/3+z
1/3+x-y,2/3-y,2/3-z
1/3-x,2/3-x+y,2/3-z
1/3+y,2/3+x,2/3-z
loop_
_atom_site_type_symbol
_atom_site_label
_atom_site_fract_x
_atom_site_fract_y
_atom_site_fract_z
Si Si1 0.494579 0.399356 0.486146
Si Si2 0.292410 0.134953 0.379441
Si Si3 0.081272 0.320973 0.178517
Si Si4 0.903366 0.098336 0.025855
Si Si5 0.393262 0.906271 0.031697
Si Si6 0.015846 0.654211 0.262283
Si Si7 0.889157 0.482733 0.082950
O O1 0.479664 0.479664 0.500000
O O2 0.568231 0.425428 0.434743
O O3 0.401723 0.334968 0.449329
O O4 0.504597 0.349787 0.546508
O O5 0.334156 0.121498 0.442636
O O6 0.370794 0.181760 0.329243
O O7 0.262029 0.201989 0.401383
O O8 0.217561 0.042239 0.356413
O O9 0.996021 0.329354 0.166667
O O10 0.142740 0.400670 0.227197
O O11 0.081150 0.238797 0.210622
O O12 0.000000 0.148048 0.000000
O O13 0.853040 0.000000 0.000000
O O14 0.448219 0.874846 0.989095
O O15 0.420229 0.000000 0.000000
O O16 0.983049 0.649716 0.333334
O O17 0.068274 0.756392 0.248329
#
# Coordination Sequence:
#
# PCOD9576848 Si02
#       7
#    18  18  18  18  18  18  18
#     4  10  20  37  61  89 122 155 209 273 321 388
#     4  11  19  34  57  86 127 163 205 266 315 385
#     4   9  17  30  51  81 121 155 195 245 308 382
#     4  12  23  41  61  88 124 171 221 268 326 382
#     4   9  19  34  51  87 128 161 203 251 326 382
#     4  11  18  32  60  86 124 153 203 261 315 368
#     4  10  19  34  57  88 127 159 200 261 322 374
#
# _framework density 21.892848000000001
#
# number of rings (size 3 to 8) (size 9 to 14) (size 15 to 20)
#    0.000    1.714    4.286    1.857    0.000    0.000 
#    0.000    6.429    0.000    0.000    0.000    0.000 
#  142.857    0.000    0.000    0.000    0.000    0.000 
#
# Total GULP energy -234173.262162 kJ/mol
# GULP energy per Si atom -5575.553861 kJ/mol
# Density = 2.184302 g / cm^3
# Si number density = 21.892848 Si / 1000 Ang^3
#
#
#
# Elastic Constant Matrix: (Units=GPa)
#
#
# Indices 1 2 3 4 5 6 
#
# 1 55.8985 18.9138 6.5155 -5.1067 -0.0001 0.0000
# 2 18.9138 55.8985 6.5155 5.1067 0.0001 0.0000
# 3 6.5155 6.5155 78.8652 0.0000 0.0000 0.0000
# 4 -5.1067 5.1067 0.0000 26.3886 0.0000 0.0001
# 5 -0.0001 0.0001 0.0000 0.0000 26.3886 -5.1067
# 6 0.0000 0.0000 0.0000 0.0001 -5.1067 18.4923
#
#
#
# Elastic Compliance Matrix: (Units=1/GPa)
#
#
# Indices 1 2 3 4 5 6 
#
# 1 0.021063 -0.007501 -0.001120 0.005528 0.000000 0.000000
# 2 -0.007501 0.021063 -0.001120 -0.005528 0.000000 0.000000
# 3 -0.001120 -0.001120 0.012865 0.000000 0.000000 0.000000
# 4 0.005528 -0.005528 0.000000 0.040035 0.000000 0.000000
# 5 0.000000 0.000000 0.000000 0.000000 0.040035 0.011056
# 6 0.000000 0.000000 0.000000 0.000000 0.011056 0.057130
#
#
# Mechanical properties :
#
#
# Convention : Reuss Voigt Hill
#
# Bulk Modulus (GPa) = 28.16331 28.28352 28.22341
# Shear Modulus (GPa) = 22.37029 24.83506 23.60268
#
# Velocity S-wave (km/s) = 3.20004 3.37173 3.28701
# Velocity P-wave (km/s) = 5.15226 5.30143 5.22738
#
# Compressibility (1/GPa) = 0.03550719
#
# Stress axis : x y z
#
# Youngs Moduli (GPa) = 47.47580 47.47580 77.73028
#
# Poissons Ratio (x) = 0.35614 0.08709
# Poissons Ratio (y) = 0.35614 0.08709
# Poissons Ratio (z) = 0.05319 0.05319
#
# Static dielectric constant tensor:
#      x y z
#    x 1.842050 0.000000 0.000000 
#    y 0.000000 1.842050 0.000000 
#    z 0.000000 0.000000 1.844290 
# 
# From -- ./inp_files/7553.got.cif
#   From: 2010.05.17/outbox.cif.g08.bks.cpg/sg155_4_cif.got.tgz:7553.got - 2010.05.20 10:44:35.
