data_PCOD9576498
_publ_section_title
;
Structure prediction by ZEFSAII (Michael W. Deem and Ramdas Pophale) SiO2 
 PCOD9576498
Probable space group: P 32 2 1
;
_chemical_formula_sum "Si O2"
_cell_formula_units_Z 48
_cell_length_a 11.837378
_cell_length_b 11.837378
_cell_length_c 19.356312
_cell_angle_alpha 90.000000
_cell_angle_beta 90.000000
_cell_angle_gamma 120.000000
_cell_volume 2348.898646
_symmetry_space_group_name_H-M "P 32 2 1"
_symmetry_group_IT_number 154
_symmetry_cell_setting 'hexagonal'
loop_
_space_group_symop_operation_xyz
x,y,z
-y,x-y,2/3+z
-x+y,-x,1/3+z
x-y,-y,1/3-z
-x,-x+y,2/3-z
y,x,-z
loop_
_atom_site_type_symbol
_atom_site_label
_atom_site_fract_x
_atom_site_fract_y
_atom_site_fract_z
Si Si1 0.615747 0.966502 0.515227
Si Si2 0.501370 0.854840 0.941010
Si Si3 0.713400 0.654144 0.724854
Si Si4 0.523065 0.618578 0.937381
Si Si5 0.991568 0.757911 0.971132
Si Si6 0.129900 0.251483 0.958731
Si Si7 0.989858 0.203311 0.204504
Si Si8 0.881451 0.066084 0.887856
O O1 0.664528 0.099114 0.469928
O O2 0.666681 0.893649 0.463513
O O3 0.470099 0.923482 0.537405
O O4 0.669671 0.940150 0.587616
O O5 0.395926 0.900347 0.948993
O O6 0.452436 0.702304 0.951831
O O7 0.612771 0.926104 0.998899
O O8 0.688689 0.753173 0.676493
O O9 0.733910 0.701638 0.803278
O O10 0.855656 0.673461 0.708980
O O11 0.672690 0.727587 0.922175
O O12 0.533783 0.533783 0.000000
O O13 0.910328 0.771091 0.908220
O O14 0.999147 0.846562 0.035837
O O15 0.141259 0.141259 0.000000
O O16 0.024906 0.185452 0.897920
O O17 0.084894 0.149483 0.180391
#
# Coordination Sequence:
#
# PCOD9576498 Si02
#       8
#     6   6   6   6   6   6   6   6
#     4  11  23  39  62  96 131 172 223 269 336 418
#     4  11  24  44  65  90 135 178 222 283 339 413
#     4  11  25  40  63 100 134 172 220 280 352 400
#     4  12  23  42  69  96 128 175 229 277 333 405
#     4  10  21  39  64  96 125 165 224 276 337 396
#     4  11  23  39  63  98 136 173 221 282 347 407
#     4  12  19  39  69  97 127 166 221 282 333 398
#     4  10  20  38  63  94 130 165 214 284 342 388
#
# _framework density 20.435109000000001
#
# number of rings (size 3 to 8) (size 9 to 14) (size 15 to 20)
#    0.000    1.000    5.000    3.750    0.000    2.000 
#    0.000    7.500    0.000    6.000    0.000    0.000 
#    0.000    0.000    0.000    0.000    0.000    0.000 
#
# Total GULP energy -267241.665326 kJ/mol
# GULP energy per Si atom -5567.534694 kJ/mol
# Density = 2.038860 g / cm^3
# Si number density = 20.435109 Si / 1000 Ang^3
#
#
#
# Elastic Constant Matrix: (Units=GPa)
#
#
# Indices 1 2 3 4 5 6 
#
# 1 103.8464 38.5638 27.2046 -2.3689 0.0000 0.0000
# 2 38.5638 103.8464 27.2046 2.3689 0.0000 0.0000
# 3 27.2046 27.2046 66.6068 0.0000 0.0000 0.0000
# 4 -2.3689 2.3689 0.0000 36.0116 0.0000 0.0000
# 5 0.0000 0.0000 0.0000 0.0000 36.0116 -2.3689
# 6 0.0000 0.0000 0.0000 0.0000 -2.3689 32.6413
#
#
#
# Elastic Compliance Matrix: (Units=1/GPa)
#
#
# Indices 1 2 3 4 5 6 
#
# 1 0.011856 -0.003536 -0.003398 0.001012 0.000000 0.000000
# 2 -0.003536 0.011856 -0.003398 -0.001012 0.000000 0.000000
# 3 -0.003398 -0.003398 0.017789 0.000000 0.000000 0.000000
# 4 0.001012 -0.001012 0.000000 0.027902 0.000000 0.000000
# 5 0.000000 0.000000 0.000000 0.000000 0.027902 0.002025
# 6 0.000000 0.000000 0.000000 0.000000 0.002025 0.030783
#
#
# Mechanical properties :
#
#
# Convention : Reuss Voigt Hill
#
# Bulk Modulus (GPa) = 47.99188 51.13839 49.56513
# Shear Modulus (GPa) = 32.11335 33.02133 32.56734
#
# Velocity S-wave (km/s) = 3.96849 4.02420 3.99644
# Velocity P-wave (km/s) = 6.67342 6.83164 6.75300
#
# Compressibility (1/GPa) = 0.02083686
#
# Stress axis : x y z
#
# Youngs Moduli (GPa) = 84.34608 84.34608 56.21299
#
# Poissons Ratio (x) = 0.29821 0.19103
# Poissons Ratio (y) = 0.29821 0.19103
# Poissons Ratio (z) = 0.28664 0.28664
#
# Static dielectric constant tensor:
#      x y z
#    x 1.769040 0.000000 0.000000 
#    y 0.000000 1.769040 0.000000 
#    z 0.000000 0.000000 1.916510 
# 
# From -- ./inp_files/2883.got.cif
#   From: 2010.05.17/outbox.cif.g08.bks.cpg/sg154_2_cif.got.tgz:2883.got - 2010.05.20 10:41:43.
