data_PCOD9576887
_publ_section_title
;
Structure prediction by ZEFSAII (Michael W. Deem and Ramdas Pophale) SiO2 
 PCOD9576887
Probable space group: R 3 2
;
_chemical_formula_sum "Si O2"
_cell_formula_units_Z 126
_cell_length_a 20.889496
_cell_length_b 20.889496
_cell_length_c 15.344916
_cell_angle_alpha 90.000000
_cell_angle_beta 90.000000
_cell_angle_gamma 120.000000
_cell_volume 5798.972789
_symmetry_space_group_name_H-M "R 3 2"
_symmetry_group_IT_number 155
_symmetry_cell_setting 'hexagonal'
loop_
_space_group_symop_operation_xyz
x,y,z
-y,x-y,z
-x+y,-x,z
x-y,-y,-z
-x,-x+y,-z
y,x,-z
2/3+x,1/3+y,1/3+z
2/3-y,1/3+x-y,1/3+z
2/3-x+y,1/3-x,1/3+z
2/3+x-y,1/3-y,1/3-z
2/3-x,1/3-x+y,1/3-z
2/3+y,1/3+x,1/3-z
1/3+x,2/3+y,2/3+z
1/3-y,2/3+x-y,2/3+z
1/3-x+y,2/3-x,2/3+z
1/3+x-y,2/3-y,2/3-z
1/3-x,2/3-x+y,2/3-z
1/3+y,2/3+x,2/3-z
loop_
_atom_site_type_symbol
_atom_site_label
_atom_site_fract_x
_atom_site_fract_y
_atom_site_fract_z
Si Si1 0.252375 0.833108 0.030456
Si Si2 0.414261 0.916473 0.983507
Si Si3 0.552351 0.067849 0.314703
Si Si4 0.710989 0.488867 0.484637
Si Si5 0.896038 0.046427 0.223764
Si Si6 0.913502 0.586502 0.196504
Si Si7 0.834130 0.417284 0.857267
O O1 0.334458 0.900814 0.017161
O O2 0.192882 0.855644 0.000810
O O3 0.238315 0.806650 0.129955
O O4 0.250511 0.763653 0.977705
O O5 0.426595 0.859877 0.043106
O O6 0.403331 0.890952 0.883877
O O7 0.475794 0.000000 0.000000
O O8 0.556374 0.141660 0.274569
O O9 0.592655 0.048794 0.237299
O O10 0.604167 0.079892 0.397255
O O11 0.622714 0.439214 0.489385
O O12 0.742951 0.439634 0.530139
O O13 0.809741 0.019280 0.213317
O O14 0.971623 0.666667 0.166667
O O15 0.771265 0.333334 0.833334
O O16 0.805710 0.472377 0.833334
#
# Coordination Sequence:
#
# PCOD9576887 Si02
#       7
#    18  18  18  18  18  18  18
#     4  10  20  36  57  82 115 156 200 240 300 366
#     4  10  21  38  56  83 122 160 197 255 306 362
#     4  10  21  37  59  86 117 155 200 245 298 362
#     4  10  21  37  59  87 117 156 199 250 307 368
#     4  10  20  37  59  84 117 152 196 247 304 358
#     4  10  20  38  60  84 120 155 196 251 296 355
#     4  10  20  34  57  84 115 150 193 245 299 360
#
# _framework density 21.727986000000001
#
# number of rings (size 3 to 8) (size 9 to 14) (size 15 to 20)
#    0.000    2.000    1.429    2.143    0.000    1.143 
#    2.571    5.714    0.000    1.714    0.000    0.000 
#    0.000    0.000    0.000    0.000    0.000    0.000 
#
# Total GULP energy -234102.645716 kJ/mol
# GULP energy per Si atom -5573.872517 kJ/mol
# Density = 2.167853 g / cm^3
# Si number density = 21.727986 Si / 1000 Ang^3
#
#
#
# Elastic Constant Matrix: (Units=GPa)
#
#
# Indices 1 2 3 4 5 6 
#
# 1 65.0707 15.6802 -4.9795 0.7465 -0.0003 0.0000
# 2 15.6802 65.0707 -4.9795 -0.7465 0.0003 0.0000
# 3 -4.9795 -4.9795 50.1535 0.0000 0.0000 0.0000
# 4 0.7465 -0.7465 0.0000 19.1397 0.0000 0.0003
# 5 -0.0003 0.0003 0.0000 0.0000 19.1397 0.7465
# 6 0.0000 0.0000 0.0000 0.0003 0.7465 24.6953
#
#
#
# Elastic Compliance Matrix: (Units=1/GPa)
#
#
# Indices 1 2 3 4 5 6 
#
# 1 0.016404 -0.003867 0.001245 -0.000791 0.000000 0.000000
# 2 -0.003867 0.016404 0.001245 0.000791 0.000000 0.000000
# 3 0.001245 0.001245 0.020186 0.000000 0.000000 0.000000
# 4 -0.000791 0.000791 0.000000 0.052309 0.000000 -0.000001
# 5 0.000000 0.000000 0.000000 0.000000 0.052309 -0.001581
# 6 0.000000 0.000000 0.000000 -0.000001 -0.001581 0.040541
#
#
# Mechanical properties :
#
#
# Convention : Reuss Voigt Hill
#
# Bulk Modulus (GPa) = 19.90461 21.30413 20.60437
# Shear Modulus (GPa) = 22.97221 24.23319 23.60270
#
# Velocity S-wave (km/s) = 3.25509 3.34323 3.29945
# Velocity P-wave (km/s) = 4.82785 4.97284 4.90088
#
# Compressibility (1/GPa) = 0.05023962
#
# Stress axis : x y z
#
# Youngs Moduli (GPa) = 60.96077 60.96077 49.53935
#
# Poissons Ratio (x) = 0.23572 -0.06167
# Poissons Ratio (y) = 0.23572 -0.06167
# Poissons Ratio (z) = -0.07588 -0.07588
#
# Static dielectric constant tensor:
#      x y z
#    x 1.789060 0.000000 0.000000 
#    y 0.000000 1.789060 0.000000 
#    z 0.000000 0.000000 1.842600 
# 
# From -- ./inp_files/6263.got.cif
#   From: 2010.05.17/outbox.cif.g08.bks.cpg/sg155_4_cif.got.tgz:6263.got - 2010.05.20 10:44:35.
