data_PCOD9576236
_publ_section_title
;
Structure prediction by ZEFSAII (Michael W. Deem and Ramdas Pophale) SiO2 
 PCOD9576236
Probable space group: P 32 1 2
;
_chemical_formula_sum "Si O2"
_cell_formula_units_Z 39
_cell_length_a 9.199610
_cell_length_b 9.199610
_cell_length_c 20.593961
_cell_angle_alpha 90.000000
_cell_angle_beta 90.000000
_cell_angle_gamma 120.000000
_cell_volume 1509.417396
_symmetry_space_group_name_H-M "P 32 1 2"
_symmetry_group_IT_number 153
_symmetry_cell_setting 'hexagonal'
loop_
_space_group_symop_operation_xyz
x,y,z
-y,x-y,2/3+z
-x+y,-x,1/3+z
-y,-x,1/3-z
-x+y,y,2/3-z
x,x-y,-z
loop_
_atom_site_type_symbol
_atom_site_label
_atom_site_fract_x
_atom_site_fract_y
_atom_site_fract_z
Si Si1 0.480941 0.990937 0.245494
Si Si2 0.992593 0.985186 0.833334
Si Si3 0.631284 0.286092 0.575877
Si Si4 0.534767 0.745765 0.852770
Si Si5 0.764514 0.054459 0.756934
Si Si6 0.209235 0.276160 0.676066
Si Si7 0.262023 0.014367 0.613614
O O1 0.539615 0.183033 0.263211
O O2 0.594650 0.946483 0.292066
O O3 0.283275 0.898570 0.259244
O O4 0.536911 0.952757 0.176962
O O5 0.937641 0.098702 0.792734
O O6 0.871795 0.851183 0.887580
O O7 0.610456 0.305228 0.500000
O O8 0.460936 0.139387 0.606701
O O9 0.793509 0.268960 0.585311
O O10 0.351174 0.702347 0.833334
O O11 0.642602 0.914727 0.810007
O O12 0.595925 0.766381 0.927564
O O13 0.746237 0.958784 0.689355
O O14 0.209619 0.099437 0.671639
#
# Coordination Sequence:
#
# PCOD9576236 Si02
#       7
#     6   3   6   6   6   6   6
#     4   9  17  31  52  72 107 139 186 220 278 322
#     4   8  14  32  50  72  96 142 166 218 258 330
#     4  11  17  29  49  81 102 131 174 235 261 311
#     4  10  18  32  49  77 104 143 178 233 262 323
#     4   9  18  29  51  77 107 129 183 220 274 319
#     4   8  16  32  52  73  99 148 178 219 268 343
#     4   9  15  30  52  70 100 134 180 212 266 317
#
# _framework density 25.837785
#
# number of rings (size 3 to 8) (size 9 to 14) (size 15 to 20)
#    0.000    2.769    2.308    2.308    0.000    0.000 
#    4.154    0.000    0.000    0.000    0.000    2.154 
#    0.000    0.000    0.000    0.000    0.000    0.000 
#
# Total GULP energy -217327.084441 kJ/mol
# GULP energy per Si atom -5572.489345 kJ/mol
# Density = 2.577898 g / cm^3
# Si number density = 25.837785 Si / 1000 Ang^3
#
#
#
# Elastic Constant Matrix: (Units=GPa)
#
#
# Indices 1 2 3 4 5 6 
#
# 1 141.9439 60.0731 13.4206 0.0000 5.7106 0.0000
# 2 60.0731 141.9439 13.4206 0.0000 -5.7106 0.0000
# 3 13.4206 13.4206 53.5275 0.0000 0.0000 0.0000
# 4 0.0000 0.0000 0.0000 14.9446 0.0000 -5.7106
# 5 5.7106 -5.7106 0.0000 0.0000 14.9446 0.0000
# 6 0.0000 0.0000 0.0000 -5.7106 0.0000 40.9354
#
#
#
# Elastic Compliance Matrix: (Units=1/GPa)
#
#
# Indices 1 2 3 4 5 6 
#
# 1 0.009011 -0.003891 -0.001284 0.000000 -0.004930 0.000000
# 2 -0.003891 0.009011 -0.001284 0.000000 0.004930 0.000000
# 3 -0.001284 -0.001284 0.019326 0.000000 0.000000 0.000000
# 4 0.000000 0.000000 0.000000 0.070682 0.000000 0.009860
# 5 -0.004930 0.004930 0.000000 0.000000 0.070682 0.000000
# 6 0.000000 0.000000 0.000000 0.009860 0.000000 0.025804
#
#
# Mechanical properties :
#
#
# Convention : Reuss Voigt Hill
#
# Bulk Modulus (GPa) = 40.93053 56.80486 48.86770
# Shear Modulus (GPa) = 22.16538 30.86497 26.51518
#
# Velocity S-wave (km/s) = 2.93211 3.46000 3.20694
# Velocity P-wave (km/s) = 5.22865 6.16401 5.71550
#
# Compressibility (1/GPa) = 0.02443164
#
# Stress axis : x y z
#
# Youngs Moduli (GPa) = 110.97052 110.97052 51.74433
#
# Poissons Ratio (x) = 0.43176 0.06643
# Poissons Ratio (y) = 0.43176 0.06643
# Poissons Ratio (z) = 0.14247 0.14247
#
# Static dielectric constant tensor:
#      x y z
#    x 2.246820 0.000000 0.000000 
#    y 0.000000 2.246820 0.000000 
#    z 0.000000 0.000000 2.133420 
# 
# From -- ./inp_files/5086.got.cif
#   From: 2010.05.17/outbox.cif.g08.bks.cpg/sg153_3_cif.got.tgz:5086.got - 2010.05.20 10:38:56.
