data_PCOD9576037
_publ_section_title
;
Structure prediction by ZEFSAII (Michael W. Deem and Ramdas Pophale) SiO2 
 PCOD9576037
Probable space group: P 31 2 1
;
_chemical_formula_sum "Si O2"
_cell_formula_units_Z 27
_cell_length_a 14.714212
_cell_length_b 14.714212
_cell_length_c 7.261347
_cell_angle_alpha 90.000000
_cell_angle_beta 90.000000
_cell_angle_gamma 120.000000
_cell_volume 1361.513151
_symmetry_space_group_name_H-M "P 31 2 1"
_symmetry_group_IT_number 152
_symmetry_cell_setting 'hexagonal'
loop_
_space_group_symop_operation_xyz
x,y,z
-y,x-y,1/3+z
-x+y,-x,2/3+z
x-y,-y,2/3-z
-x,-x+y,1/3-z
y,x,-z
loop_
_atom_site_type_symbol
_atom_site_label
_atom_site_fract_x
_atom_site_fract_y
_atom_site_fract_z
Si Si1 0.628092 0.884699 0.304350
Si Si2 0.822021 0.720699 0.379919
Si Si3 0.612599 0.358435 0.931852
Si Si4 0.000000 0.919167 0.166667
Si Si5 0.605433 0.733141 0.976288
O O1 0.706213 0.886646 0.458828
O O2 0.510196 0.806727 0.365754
O O3 0.643828 0.834390 0.114701
O O4 0.644551 0.000000 0.333334
O O5 0.742708 0.742708 0.500000
O O6 0.902510 0.815167 0.250471
O O7 0.766837 0.624661 0.237656
O O8 0.646415 0.343422 0.732340
O O9 0.660576 0.481890 0.978476
O O10 0.041472 0.000000 0.333334
O O11 0.671762 0.671762 0.000000
#
# Coordination Sequence:
#
# PCOD9576037 Si02
#       5
#     6   6   6   3   6
#     4  11  24  41  63  93 128 166 211 261 318 375
#     4  12  24  38  61  89 125 165 211 255 306 370
#     4  10  22  42  68  92 124 161 212 269 323 382
#     4  12  26  40  60  90 128 178 216 250 302 370
#     4  11  22  41  64  93 127 167 209 259 319 377
#
# _framework density 19.830877999999998
#
# number of rings (size 3 to 8) (size 9 to 14) (size 15 to 20)
#    0.000    0.889    3.333    4.000    3.111    0.000 
#    0.000    0.000    0.000    0.000    0.000    0.000 
#    0.000    0.000    0.000    0.000    0.000    0.000 
#
# Total GULP energy -150542.146874 kJ/mol
# GULP energy per Si atom -5575.635069 kJ/mol
# Density = 1.978574 g / cm^3
# Si number density = 19.830878 Si / 1000 Ang^3
#
#
#
# Elastic Constant Matrix: (Units=GPa)
#
#
# Indices 1 2 3 4 5 6 
#
# 1 50.4606 -5.1292 8.2693 -3.1849 0.0000 0.0000
# 2 -5.1292 50.4606 8.2693 3.1849 0.0000 0.0000
# 3 8.2693 8.2693 87.7767 0.0000 0.0000 0.0000
# 4 -3.1849 3.1849 0.0000 34.1973 0.0000 0.0000
# 5 0.0000 0.0000 0.0000 0.0000 34.1973 -3.1849
# 6 0.0000 0.0000 0.0000 0.0000 -3.1849 27.7949
#
#
#
# Elastic Compliance Matrix: (Units=1/GPa)
#
#
# Indices 1 2 3 4 5 6 
#
# 1 0.020514 0.002331 -0.002152 0.001693 0.000000 0.000000
# 2 0.002331 0.020514 -0.002152 -0.001693 0.000000 0.000000
# 3 -0.002152 -0.002152 0.011798 0.000000 0.000000 0.000000
# 4 0.001693 -0.001693 0.000000 0.029558 0.000000 0.000000
# 5 0.000000 0.000000 0.000000 0.000000 0.029558 0.003387
# 6 0.000000 0.000000 0.000000 0.000000 0.003387 0.036366
#
#
# Mechanical properties :
#
#
# Convention : Reuss Voigt Hill
#
# Bulk Modulus (GPa) = 20.45859 23.50186 21.98023
# Shear Modulus (GPa) = 29.66535 31.05711 30.36123
#
# Velocity S-wave (km/s) = 3.87191 3.96169 3.91705
# Velocity P-wave (km/s) = 5.50707 5.72744 5.61833
#
# Compressibility (1/GPa) = 0.04887922
#
# Stress axis : x y z
#
# Youngs Moduli (GPa) = 48.74728 48.74728 84.75975
#
# Poissons Ratio (x) = -0.11363 0.18242
# Poissons Ratio (y) = -0.11363 0.18242
# Poissons Ratio (z) = 0.10491 0.10491
#
# Static dielectric constant tensor:
#      x y z
#    x 1.705160 0.000000 0.000000 
#    y 0.000000 1.705160 0.000000 
#    z 0.000000 0.000000 1.593190 
# 
# From -- ./inp_files/1028.got.cif
#   From: 2010.05.17/outbox.cif.g08.bks.cpg/sg152_1_cif.got.tgz:1028.got - 2010.05.20 10:36:06.
