data_PCOD9576252
_publ_section_title
;
Structure prediction by ZEFSAII (Michael W. Deem and Ramdas Pophale) SiO2 
 PCOD9576252
Probable space group: P 32 1 2
;
_chemical_formula_sum "Si O2"
_cell_formula_units_Z 30
_cell_length_a 17.618879
_cell_length_b 17.618879
_cell_length_c 5.342021
_cell_angle_alpha 90.000000
_cell_angle_beta 90.000000
_cell_angle_gamma 120.000000
_cell_volume 1436.126740
_symmetry_space_group_name_H-M "P 32 1 2"
_symmetry_group_IT_number 153
_symmetry_cell_setting 'hexagonal'
loop_
_space_group_symop_operation_xyz
x,y,z
-y,x-y,2/3+z
-x+y,-x,1/3+z
-y,-x,1/3-z
-x+y,y,2/3-z
x,x-y,-z
loop_
_atom_site_type_symbol
_atom_site_label
_atom_site_fract_x
_atom_site_fract_y
_atom_site_fract_z
Si Si1 0.598041 0.108047 0.584422
Si Si2 0.909732 0.253341 0.892344
Si Si3 0.104725 0.505346 0.749695
Si Si4 0.951787 0.226628 0.393061
Si Si5 0.735707 0.867854 0.000000
Si Si6 0.192208 0.807793 0.166667
O O1 0.565360 0.130719 0.333334
O O2 0.700022 0.142033 0.539527
O O3 0.553675 0.001837 0.594705
O O4 0.568102 0.136203 0.833334
O O5 0.975191 0.269021 0.666595
O O6 0.850500 0.148488 0.920041
O O7 0.950865 0.286692 0.165766
O O8 0.131107 0.565554 0.500000
O O9 0.149715 0.445983 0.780811
O O10 0.125631 0.562816 0.000000
O O11 0.027202 0.205231 0.334406
O O12 0.675138 0.829652 0.751591
#
# Coordination Sequence:
#
# PCOD9576252 Si02
#       6
#     6   6   6   6   3   3
#     4  10  19  32  55  82 115 148 191 254 301 368
#     4  10  20  37  56  85 121 161 199 252 333 378
#     4  10  21  37  53  78 111 150 200 247 299 353
#     4  10  21  35  58  85 121 159 205 256 310 380
#     4  12  22  36  60  90 116 158 216 266 300 352
#     4  12  24  38  60  84 116 164 210 250 302 366
#
# _framework density 20.889520000000001
#
# number of rings (size 3 to 8) (size 9 to 14) (size 15 to 20)
#    0.000    1.600    0.000    6.000    0.000    3.200 
#    1.800    0.000    0.000    9.600    0.000    0.000 
#  120.000    0.000    0.000    0.000    0.000    0.000 
#
# Total GULP energy -167223.170337 kJ/mol
# GULP energy per Si atom -5574.105678 kJ/mol
# Density = 2.084197 g / cm^3
# Si number density = 20.889520 Si / 1000 Ang^3
#
#
#
# Elastic Constant Matrix: (Units=GPa)
#
#
# Indices 1 2 3 4 5 6 
#
# 1 91.5036 48.0412 38.3132 0.0004 0.8405 0.0000
# 2 48.0412 91.5036 38.3132 -0.0004 -0.8405 0.0000
# 3 38.3132 38.3132 201.9794 0.0000 0.0000 0.0000
# 4 0.0004 -0.0004 0.0000 -5.2975 0.0000 -0.8405
# 5 0.8405 -0.8405 0.0000 0.0000 -5.2975 0.0004
# 6 0.0000 0.0000 0.0000 -0.8405 0.0004 21.7312
#
#
#
# Elastic Compliance Matrix: (Units=1/GPa)
#
#
# Indices 1 2 3 4 5 6 
#
# 1 0.015434 -0.007434 -0.001517 0.000002 0.003628 0.000000
# 2 -0.007434 0.015434 -0.001517 -0.000002 -0.003628 0.000000
# 3 -0.001517 -0.001517 0.005527 0.000000 0.000000 0.000000
# 4 0.000002 -0.000002 0.000000 -0.187618 0.000000 -0.007256
# 5 0.003628 -0.003628 0.000000 0.000000 -0.187618 0.000003
# 6 0.000000 0.000000 0.000000 -0.007256 0.000003 0.045736
#
#
# Mechanical properties :
#
#
# Convention : Reuss Voigt Hill
#
# Bulk Modulus (GPa) = 64.70037 70.48019 67.59028
# Shear Modulus (GPa) = -18.72557 19.58184 0.42813
#
# Velocity S-wave (km/s) = -2.99726 3.06502 0.45321
# Velocity P-wave (km/s) = 4.36598 6.80724 5.71841
#
# Compressibility (1/GPa) = 0.01545586
#
# Stress axis : x y z
#
# Youngs Moduli (GPa) = 64.79314 64.79314 180.94098
#
# Poissons Ratio (x) = 0.48170 0.27456
# Poissons Ratio (y) = 0.48170 0.27456
# Poissons Ratio (z) = 0.09832 0.09832
#
# Static dielectric constant tensor:
#      x y z
#    x 1.837280 0.000000 0.000000 
#    y 0.000000 1.837280 0.000000 
#    z 0.000000 0.000000 1.826070 
# 
# From -- ./inp_files/493.got.cif
#   From: 2010.05.17/outbox.cif.g08.bks.cpg/sg153_1_cif.got.tgz:493.got - 2010.05.20 10:38:56.
