data_PCOD9576876
_publ_section_title
;
Structure prediction by ZEFSAII (Michael W. Deem and Ramdas Pophale) SiO2 
 PCOD9576876
Probable space group: R 3 2
;
_chemical_formula_sum "Si O2"
_cell_formula_units_Z 54
_cell_length_a 21.825366
_cell_length_b 21.825366
_cell_length_c 5.475754
_cell_angle_alpha 90.000000
_cell_angle_beta 90.000000
_cell_angle_gamma 120.000000
_cell_volume 2258.903256
_symmetry_space_group_name_H-M "R 3 2"
_symmetry_group_IT_number 155
_symmetry_cell_setting 'hexagonal'
loop_
_space_group_symop_operation_xyz
x,y,z
-y,x-y,z
-x+y,-x,z
x-y,-y,-z
-x,-x+y,-z
y,x,-z
2/3+x,1/3+y,1/3+z
2/3-y,1/3+x-y,1/3+z
2/3-x+y,1/3-x,1/3+z
2/3+x-y,1/3-y,1/3-z
2/3-x,1/3-x+y,1/3-z
2/3+y,1/3+x,1/3-z
1/3+x,2/3+y,2/3+z
1/3-y,2/3+x-y,2/3+z
1/3-x+y,2/3-x,2/3+z
1/3+x-y,2/3-y,2/3-z
1/3-x,2/3-x+y,2/3-z
1/3+y,2/3+x,2/3-z
loop_
_atom_site_type_symbol
_atom_site_label
_atom_site_fract_x
_atom_site_fract_y
_atom_site_fract_z
Si Si1 0.666667 0.783324 0.333334
Si Si2 0.576790 0.666667 0.666667
Si Si3 0.929150 0.122118 0.404579
Si Si4 0.449360 0.374997 0.582935
O O1 0.646642 0.729560 0.554334
O O2 0.740453 0.853239 0.403344
O O3 0.516763 0.632277 0.462219
O O4 0.862343 0.056660 0.283445
O O5 0.000000 0.123714 0.500000
O O6 0.445054 0.445054 0.500000
O O7 0.418928 0.333334 0.333334
O O8 0.408603 0.333334 0.833334
#
# Coordination Sequence:
#
# PCOD9576876 Si02
#       4
#     9   9  18  18
#     4  10  20  33  52  88 128 172 214 271 348 420
#     4  10  20  33  54  86 126 172 214 275 336 434
#     4  10  24  40  65  94 138 179 234 296 370 438
#     4  12  27  46  72 107 147 198 251 308 367 439
#
# _framework density 23.905408000000001
#
# number of rings (size 3 to 8) (size 9 to 14) (size 15 to 20)
#    0.000    1.333    0.000    5.000   14.000   13.333 
#    0.000    0.000    0.000    0.667    4.333    0.000 
#    0.000    0.000    0.000    0.000    0.000    0.000 
#
# Total GULP energy -100284.665879 kJ/mol
# GULP energy per Si atom -5571.370327 kJ/mol
# Density = 2.385100 g / cm^3
# Si number density = 23.905408 Si / 1000 Ang^3
#
#
#
# Elastic Constant Matrix: (Units=GPa)
#
#
# Indices 1 2 3 4 5 6 
#
# 1 49.9511 -4.6691 4.9695 4.0751 0.3995 -0.1091
# 2 -4.6691 49.6446 4.8833 -4.2946 0.1817 -0.0096
# 3 4.9695 4.8833 95.5544 0.0730 0.2742 -0.0833
# 4 4.0751 -4.2946 0.0730 18.8352 -0.0135 0.0813
# 5 0.3995 0.1817 0.2742 -0.0135 18.9980 4.1088
# 6 -0.1091 -0.0096 -0.0833 0.0813 4.1088 27.3026
#
#
#
# Elastic Compliance Matrix: (Units=1/GPa)
#
#
# Indices 1 2 3 4 5 6 
#
# 1 0.020630 0.001703 -0.001155 -0.004072 -0.000472 0.000163
# 2 0.001703 0.020796 -0.001154 0.004377 -0.000222 0.000031
# 3 -0.001155 -0.001154 0.010585 -0.000054 -0.000128 0.000047
# 4 -0.004072 0.004377 -0.000054 0.054972 0.000126 -0.000198
# 5 -0.000472 -0.000222 -0.000128 0.000126 0.054423 -0.008193
# 6 0.000163 0.000031 0.000047 -0.000198 -0.008193 0.037861
#
#
# Mechanical properties :
#
#
# Convention : Reuss Voigt Hill
#
# Bulk Modulus (GPa) = 19.68534 22.83528 21.26031
# Shear Modulus (GPa) = 22.99776 25.69158 24.34467
#
# Velocity S-wave (km/s) = 3.10503 3.28185 3.19466
# Velocity P-wave (km/s) = 4.59429 4.89222 4.74559
#
# Compressibility (1/GPa) = 0.05079923
#
# Stress axis : x y z
#
# Youngs Moduli (GPa) = 48.47302 48.08524 94.47551
#
# Poissons Ratio (x) = -0.08191 0.10915
# Poissons Ratio (y) = -0.08257 0.10903
# Poissons Ratio (z) = 0.05600 0.05549
#
# Static dielectric constant tensor:
#      x y z
#    x 2.012980 -0.000430 -0.000020 
#    y -0.000430 2.012950 -0.000260 
#    z -0.000020 -0.000260 2.013200 
# 
# From -- ./inp_files/627.got.cif
#   From: 2010.05.17/outbox.cif.g08.bks.cpg/sg155_1_cif.got.tgz:627.got - 2010.05.20 10:44:35.
