data_PCOD9576083
_publ_section_title
;
Structure prediction by ZEFSAII (Michael W. Deem and Ramdas Pophale) SiO2 
 PCOD9576083
Probable space group: P 31 2 1
;
_chemical_formula_sum "Si O2"
_cell_formula_units_Z 45
_cell_length_a 11.871397
_cell_length_b 11.871397
_cell_length_c 14.772104
_cell_angle_alpha 90.000000
_cell_angle_beta 90.000000
_cell_angle_gamma 120.000000
_cell_volume 1802.920786
_symmetry_space_group_name_H-M "P 31 2 1"
_symmetry_group_IT_number 152
_symmetry_cell_setting 'hexagonal'
loop_
_space_group_symop_operation_xyz
x,y,z
-y,x-y,1/3+z
-x+y,-x,2/3+z
x-y,-y,2/3-z
-x,-x+y,1/3-z
y,x,-z
loop_
_atom_site_type_symbol
_atom_site_label
_atom_site_fract_x
_atom_site_fract_y
_atom_site_fract_z
Si Si1 0.482003 0.529180 0.767614
Si Si2 0.006012 0.186341 0.924149
Si Si3 0.578934 0.467288 0.432386
Si Si4 0.063515 0.000000 0.333334
Si Si5 0.048855 0.776527 0.453264
Si Si6 0.775587 0.379886 0.370112
Si Si7 0.237553 0.438671 0.466444
Si Si8 0.782961 0.137330 0.281323
O O1 0.517868 0.588027 0.667412
O O2 0.333997 0.417036 0.764261
O O3 0.576089 0.470155 0.774199
O O4 0.502211 0.647674 0.828949
O O5 0.116876 0.272504 0.853044
O O6 0.867536 0.165578 0.899940
O O7 0.070443 0.257626 0.017741
O O8 0.993713 0.046771 0.924362
O O9 0.570303 0.570303 0.500000
O O10 0.678982 0.411945 0.428307
O O11 0.448181 0.331137 0.453378
O O12 0.058012 0.870274 0.371274
O O13 0.912955 0.690556 0.510821
O O14 0.811249 0.478254 0.283398
O O15 0.746457 0.244796 0.319421
O O16 0.689181 0.000000 0.333334
#
# Coordination Sequence:
#
# PCOD9576083 Si02
#       8
#     6   6   6   3   6   6   6   6
#     4  11  25  46  69 114 142 201 267 307 403 479
#     4  11  23  45  71 102 152 195 259 325 396 471
#     4  11  26  46  71 107 150 198 252 313 399 466
#     4  12  24  44  72 112 148 204 250 322 396 476
#     4  11  26  43  73 108 152 200 260 325 394 478
#     4  11  24  48  74 106 149 194 258 327 380 481
#     4  11  25  44  75 100 148 200 248 331 387 480
#     4  10  23  47  73 110 148 198 255 323 393 475
#
# _framework density 24.959499999999998
#
# number of rings (size 3 to 8) (size 9 to 14) (size 15 to 20)
#    0.000    1.067    4.667    1.200    7.467    0.000 
#    2.400    1.333    0.000    0.000    0.000    0.000 
#    0.000    0.000    0.000    0.000    0.000    0.000 
#
# Total GULP energy -250872.188229 kJ/mol
# GULP energy per Si atom -5574.937516 kJ/mol
# Density = 2.490269 g / cm^3
# Si number density = 24.959500 Si / 1000 Ang^3
#
#
#
# Elastic Constant Matrix: (Units=GPa)
#
#
# Indices 1 2 3 4 5 6 
#
# 1 128.3659 27.0799 4.0695 4.1009 -0.0001 0.0000
# 2 27.0799 128.3659 4.0695 -4.1009 0.0001 0.0000
# 3 4.0695 4.0695 47.2191 0.0000 0.0000 0.0000
# 4 4.1009 -4.1009 0.0000 20.4536 0.0000 0.0001
# 5 -0.0001 0.0001 0.0000 0.0000 20.4536 4.1009
# 6 0.0000 0.0000 0.0000 0.0001 4.1009 50.6430
#
#
#
# Elastic Compliance Matrix: (Units=1/GPa)
#
#
# Indices 1 2 3 4 5 6 
#
# 1 0.008249 -0.001787 -0.000557 -0.002012 0.000000 0.000000
# 2 -0.001787 0.008249 -0.000557 0.002012 0.000000 0.000000
# 3 -0.000557 -0.000557 0.021274 0.000000 0.000000 0.000000
# 4 -0.002012 0.002012 0.000000 0.049698 0.000000 0.000000
# 5 0.000000 0.000000 0.000000 0.000000 0.049698 -0.004024
# 6 0.000000 0.000000 0.000000 0.000000 -0.004024 0.020072
#
#
# Mechanical properties :
#
#
# Convention : Reuss Voigt Hill
#
# Bulk Modulus (GPa) = 31.27868 41.59872 36.43870
# Shear Modulus (GPa) = 28.78553 36.22551 32.50552
#
# Velocity S-wave (km/s) = 3.39970 3.81382 3.61270
# Velocity P-wave (km/s) = 5.28863 6.00802 5.65976
#
# Compressibility (1/GPa) = 0.03197066
#
# Stress axis : x y z
#
# Youngs Moduli (GPa) = 121.22501 121.22501 47.00607
#
# Poissons Ratio (x) = 0.21661 0.02618
# Poissons Ratio (y) = 0.21661 0.02618
# Poissons Ratio (z) = 0.06751 0.06751
#
# Static dielectric constant tensor:
#      x y z
#    x 2.066400 0.000000 0.000000 
#    y 0.000000 2.066400 0.000000 
#    z 0.000000 0.000000 2.073980 
# 
# From -- ./inp_files/2512.got.cif
#   From: 2010.05.17/outbox.cif.g08.bks.cpg/sg152_2_cif.got.tgz:2512.got - 2010.05.20 10:36:06.
