data_PCOD9576069
_publ_section_title
;
Structure prediction by ZEFSAII (Michael W. Deem and Ramdas Pophale) SiO2 
 PCOD9576069
Probable space group: P 31 2 1
;
_chemical_formula_sum "Si O2"
_cell_formula_units_Z 36
_cell_length_a 12.248847
_cell_length_b 12.248847
_cell_length_c 14.137288
_cell_angle_alpha 90.000000
_cell_angle_beta 90.000000
_cell_angle_gamma 120.000000
_cell_volume 1836.906948
_symmetry_space_group_name_H-M "P 31 2 1"
_symmetry_group_IT_number 152
_symmetry_cell_setting 'hexagonal'
loop_
_space_group_symop_operation_xyz
x,y,z
-y,x-y,1/3+z
-x+y,-x,2/3+z
x-y,-y,2/3-z
-x,-x+y,1/3-z
y,x,-z
loop_
_atom_site_type_symbol
_atom_site_label
_atom_site_fract_x
_atom_site_fract_y
_atom_site_fract_z
Si Si1 0.056098 0.056098 0.500000
Si Si2 0.122840 0.389085 0.014594
Si Si3 0.275485 0.534250 0.549498
Si Si4 0.352856 0.977005 0.472520
Si Si5 0.624031 0.384133 0.923854
Si Si6 0.857950 0.000000 0.333334
Si Si7 0.000000 0.185805 0.666667
Si Si8 0.519245 0.519245 0.500000
O O1 0.030305 0.941184 0.569977
O O2 0.075026 0.154001 0.585847
O O3 0.257143 0.509818 0.035387
O O4 0.141183 0.268844 0.027262
O O5 0.028304 0.410791 0.081219
O O6 0.072088 0.378272 0.909565
O O7 0.285184 0.557870 0.660841
O O8 0.315351 0.665919 0.497024
O O9 0.380984 0.500974 0.516752
O O10 0.128674 0.434377 0.529025
O O11 0.423523 0.904535 0.436088
O O12 0.232887 0.927949 0.402296
#
# Coordination Sequence:
#
# PCOD9576069 Si02
#       8
#     3   6   6   6   6   3   3   3
#     4  10  23  41  58  94 134 172 219 265 344 398
#     4  11  24  43  68  99 134 173 226 277 350 408
#     4  11  23  42  67  93 133 177 225 278 343 403
#     4  12  23  42  68  99 129 176 233 282 329 428
#     4  11  23  41  65  96 133 169 221 289 338 404
#     4  11  22  39  68  94 132 181 214 281 330 420
#     4  11  22  41  64  90 134 173 218 281 330 402
#     4  10  25  47  64  96 140 180 219 285 350 414
#
# _framework density 19.598163
#
# number of rings (size 3 to 8) (size 9 to 14) (size 15 to 20)
#    0.000    1.000    5.000    1.500    2.333    0.667 
#    0.000    0.000    0.000    0.000    0.000    0.000 
#    0.000    0.000    0.000    0.000    0.000    0.000 
#
# Total GULP energy -200483.507697 kJ/mol
# GULP energy per Si atom -5568.986325 kJ/mol
# Density = 1.955356 g / cm^3
# Si number density = 19.598163 Si / 1000 Ang^3
#
#
#
# Elastic Constant Matrix: (Units=GPa)
#
#
# Indices 1 2 3 4 5 6 
#
# 1 99.8150 49.7310 47.2195 -0.9666 0.0000 0.0000
# 2 49.7310 99.8150 47.2195 0.9666 0.0000 0.0000
# 3 47.2195 47.2195 145.3211 0.0000 0.0000 0.0000
# 4 -0.9666 0.9666 0.0000 28.9601 0.0000 0.0000
# 5 0.0000 0.0000 0.0000 0.0000 28.9601 -0.9666
# 6 0.0000 0.0000 0.0000 0.0000 -0.9666 25.0420
#
#
#
# Elastic Compliance Matrix: (Units=1/GPa)
#
#
# Indices 1 2 3 4 5 6 
#
# 1 0.014203 -0.005789 -0.002734 0.000667 0.000000 0.000000
# 2 -0.005789 0.014203 -0.002734 -0.000667 0.000000 0.000000
# 3 -0.002734 -0.002734 0.008658 0.000000 0.000000 0.000000
# 4 0.000667 -0.000667 0.000000 0.034575 0.000000 0.000000
# 5 0.000000 0.000000 0.000000 0.000000 0.034575 0.001335
# 6 0.000000 0.000000 0.000000 0.000000 0.001335 0.039984
#
#
# Mechanical properties :
#
#
# Convention : Reuss Voigt Hill
#
# Bulk Modulus (GPa) = 68.73108 70.36566 69.54837
# Shear Modulus (GPa) = 28.80827 29.97783 29.39305
#
# Velocity S-wave (km/s) = 3.83815 3.91528 3.87691
# Velocity P-wave (km/s) = 7.40190 7.51142 7.45686
#
# Compressibility (1/GPa) = 0.01454946
#
# Stress axis : x y z
#
# Youngs Moduli (GPa) = 70.40888 70.40888 115.50178
#
# Poissons Ratio (x) = 0.40763 0.31575
# Poissons Ratio (y) = 0.40763 0.31575
# Poissons Ratio (z) = 0.19248 0.19248
#
# Static dielectric constant tensor:
#      x y z
#    x 1.716580 0.000000 0.000000 
#    y 0.000000 1.716580 0.000000 
#    z 0.000000 0.000000 1.702480 
# 
# From -- ./inp_files/2082.got.cif
#   From: 2010.05.17/outbox.cif.g08.bks.cpg/sg152_2_cif.got.tgz:2082.got - 2010.05.20 10:36:06.
