data_PCOD9576473
_publ_section_title
;
Structure prediction by ZEFSAII (Michael W. Deem and Ramdas Pophale) SiO2 
 PCOD9576473
Probable space group: P 32 2 1
;
_chemical_formula_sum "Si O2"
_cell_formula_units_Z 36
_cell_length_a 11.156724
_cell_length_b 11.156724
_cell_length_c 15.230645
_cell_angle_alpha 90.000000
_cell_angle_beta 90.000000
_cell_angle_gamma 120.000000
_cell_volume 1641.807768
_symmetry_space_group_name_H-M "P 32 2 1"
_symmetry_group_IT_number 154
_symmetry_cell_setting 'hexagonal'
loop_
_space_group_symop_operation_xyz
x,y,z
-y,x-y,2/3+z
-x+y,-x,1/3+z
x-y,-y,1/3-z
-x,-x+y,2/3-z
y,x,-z
loop_
_atom_site_type_symbol
_atom_site_label
_atom_site_fract_x
_atom_site_fract_y
_atom_site_fract_z
Si Si1 0.855467 0.781047 0.242641
Si Si2 0.134804 0.845119 0.773789
Si Si3 0.000000 0.632896 0.333334
Si Si4 0.330606 0.584429 0.902330
Si Si5 0.668722 0.651575 0.405867
Si Si6 0.951214 0.951214 0.000000
Si Si7 0.764540 0.401133 0.935603
O O1 0.772866 0.778330 0.155678
O O2 0.920812 0.683978 0.265241
O O3 0.748575 0.745128 0.323464
O O4 0.975147 0.940583 0.255765
O O5 0.076940 0.873665 0.683516
O O6 0.215467 0.762915 0.761699
O O7 0.000000 0.752991 0.833334
O O8 0.900754 0.502289 0.393095
O O9 0.338448 0.621653 0.799972
O O10 0.169323 0.480289 0.924054
O O11 0.377266 0.713804 0.965128
O O12 0.724299 0.724299 0.500000
O O13 0.507666 0.601332 0.402284
#
# Coordination Sequence:
#
# PCOD9576473 Si02
#       7
#     6   6   3   6   6   3   6
#     4   9  18  36  62  82 117 156 200 254 314 365
#     4  10  20  36  57  89 121 151 202 251 308 374
#     4   9  20  41  56  86 120 157 206 259 294 378
#     4  10  22  41  60  87 122 161 208 254 309 369
#     4   9  19  36  61  83 109 153 205 248 294 370
#     4   9  20  33  54  90 118 147 190 267 314 352
#     4  11  22  40  61  88 125 164 204 259 311 380
#
# _framework density 21.927047999999999
#
# number of rings (size 3 to 8) (size 9 to 14) (size 15 to 20)
#    0.000    2.333    0.000    2.500    0.000    8.000 
#   15.000    0.000    0.000    0.000    0.000    0.000 
#    0.000    0.000    0.000    0.000    0.000    0.000 
#
# Total GULP energy -200630.332158 kJ/mol
# GULP energy per Si atom -5573.064782 kJ/mol
# Density = 2.187714 g / cm^3
# Si number density = 21.927048 Si / 1000 Ang^3
#
#
#
# Elastic Constant Matrix: (Units=GPa)
#
#
# Indices 1 2 3 4 5 6 
#
# 1 39.5317 -3.9368 -1.6836 0.2386 0.0001 0.0000
# 2 -3.9368 39.5317 -1.6836 -0.2386 -0.0001 0.0000
# 3 -1.6836 -1.6836 44.0000 0.0000 0.0000 0.0000
# 4 0.2386 -0.2386 0.0000 24.3481 0.0000 -0.0001
# 5 0.0001 -0.0001 0.0000 0.0000 24.3481 0.2386
# 6 0.0000 0.0000 0.0000 -0.0001 0.2386 21.7343
#
#
#
# Elastic Compliance Matrix: (Units=1/GPa)
#
#
# Indices 1 2 3 4 5 6 
#
# 1 0.025602 0.002594 0.001079 -0.000225 0.000000 0.000000
# 2 0.002594 0.025602 0.001079 0.000225 0.000000 0.000000
# 3 0.001079 0.001079 0.022810 0.000000 0.000000 0.000000
# 4 -0.000225 0.000225 0.000000 0.041075 0.000000 0.000000
# 5 0.000000 0.000000 0.000000 0.000000 0.041075 -0.000451
# 6 0.000000 0.000000 0.000000 0.000000 -0.000451 0.046015
#
#
# Mechanical properties :
#
#
# Convention : Reuss Voigt Hill
#
# Bulk Modulus (GPa) = 11.97357 12.05060 12.01208
# Shear Modulus (GPa) = 22.67424 22.77727 22.72576
#
# Velocity S-wave (km/s) = 3.21919 3.22650 3.22285
# Velocity P-wave (km/s) = 4.39205 4.40319 4.39763
#
# Compressibility (1/GPa) = 0.08351731
#
# Stress axis : x y z
#
# Youngs Moduli (GPa) = 39.05976 39.05976 43.84077
#
# Poissons Ratio (x) = -0.10133 -0.04730
# Poissons Ratio (y) = -0.10133 -0.04730
# Poissons Ratio (z) = -0.04214 -0.04214
#
# Static dielectric constant tensor:
#      x y z
#    x 1.817460 0.000000 0.000000 
#    y 0.000000 1.817460 0.000000 
#    z 0.000000 0.000000 1.852090 
# 
# From -- ./inp_files/2038.got.cif
#   From: 2010.05.17/outbox.cif.g08.bks.cpg/sg154_2_cif.got.tgz:2038.got - 2010.05.20 10:41:43.
