data_PCOD9576563
_publ_section_title
;
Structure prediction by ZEFSAII (Michael W. Deem and Ramdas Pophale) SiO2 
 PCOD9576563
Probable space group: P 32 2 1
;
_chemical_formula_sum "Si O2"
_cell_formula_units_Z 45
_cell_length_a 11.642527
_cell_length_b 11.642527
_cell_length_c 19.895285
_cell_angle_alpha 90.000000
_cell_angle_beta 90.000000
_cell_angle_gamma 120.000000
_cell_volume 2335.475437
_symmetry_space_group_name_H-M "P 32 2 1"
_symmetry_group_IT_number 154
_symmetry_cell_setting 'hexagonal'
loop_
_space_group_symop_operation_xyz
x,y,z
-y,x-y,2/3+z
-x+y,-x,1/3+z
x-y,-y,1/3-z
-x,-x+y,2/3-z
y,x,-z
loop_
_atom_site_type_symbol
_atom_site_label
_atom_site_fract_x
_atom_site_fract_y
_atom_site_fract_z
Si Si1 0.147392 0.736196 0.321938
Si Si2 0.240150 0.041931 0.443113
Si Si3 0.303743 0.631670 0.254220
Si Si4 0.528052 0.848756 0.171763
Si Si5 0.000000 0.052431 0.833334
Si Si6 0.492413 0.191877 0.879306
Si Si7 0.222531 0.968097 0.048345
Si Si8 0.763205 0.326054 0.940061
O O1 0.175154 0.638568 0.277524
O O2 0.193841 0.728323 0.396706
O O3 0.000000 0.703017 0.333334
O O4 0.225853 0.881588 0.290131
O O5 0.303927 0.947355 0.453893
O O6 0.092881 0.975033 0.475527
O O7 0.343834 0.181531 0.476619
O O8 0.230927 0.061057 0.362586
O O9 0.412891 0.773565 0.225545
O O10 0.259309 0.527487 0.193734
O O11 0.382499 0.625907 0.318512
O O12 0.451314 0.784624 0.103453
O O13 0.571905 0.000000 0.166667
O O14 0.962313 0.118005 0.896038
O O15 0.626180 0.202666 0.910524
O O16 0.281398 0.872448 0.065420
#
# Coordination Sequence:
#
# PCOD9576563 Si02
#       8
#     6   6   6   6   3   6   6   6
#     4  10  21  40  64  90 130 173 211 266 327 382
#     4  11  23  48  62  94 137 175 210 280 335 388
#     4  10  21  40  62  96 130 163 221 265 326 395
#     4  11  22  41  66  89 135 171 216 271 329 387
#     4  12  26  42  68  96 122 176 228 260 336 402
#     4   9  22  40  63  93 127 168 214 266 333 386
#     4  11  23  43  67  95 131 169 224 273 322 396
#     4  10  22  41  63 102 121 172 219 271 328 386
#
# _framework density 19.268025999999999
#
# number of rings (size 3 to 8) (size 9 to 14) (size 15 to 20)
#    0.000    1.600    2.000    2.800    4.667    3.200 
#    7.200    0.000    0.000    0.000    0.000    0.000 
#    0.000    0.000    0.000    0.000    0.000    0.000 
#
# Total GULP energy -250670.308804 kJ/mol
# GULP energy per Si atom -5570.451307 kJ/mol
# Density = 1.922417 g / cm^3
# Si number density = 19.268026 Si / 1000 Ang^3
#
#
#
# Elastic Constant Matrix: (Units=GPa)
#
#
# Indices 1 2 3 4 5 6 
#
# 1 70.5011 35.0352 42.5112 -2.6625 0.0000 0.0000
# 2 35.0352 70.5011 42.5112 2.6625 0.0000 0.0000
# 3 42.5112 42.5112 126.4929 0.0000 0.0000 0.0000
# 4 -2.6625 2.6625 0.0000 23.3543 0.0000 0.0000
# 5 0.0000 0.0000 0.0000 0.0000 23.3543 -2.6625
# 6 0.0000 0.0000 0.0000 0.0000 -2.6625 17.7330
#
#
#
# Elastic Compliance Matrix: (Units=1/GPa)
#
#
# Indices 1 2 3 4 5 6 
#
# 1 0.020840 -0.007847 -0.004367 0.003270 0.000000 0.000000
# 2 -0.007847 0.020840 -0.004367 -0.003270 0.000000 0.000000
# 3 -0.004367 -0.004367 0.010841 0.000000 0.000000 0.000000
# 4 0.003270 -0.003270 0.000000 0.043564 0.000000 0.000000
# 5 0.000000 0.000000 0.000000 0.000000 0.043564 0.006541
# 6 0.000000 0.000000 0.000000 0.000000 0.006541 0.057374
#
#
# Mechanical properties :
#
#
# Convention : Reuss Voigt Hill
#
# Bulk Modulus (GPa) = 51.65177 56.40114 54.02645
# Shear Modulus (GPa) = 21.12929 22.71748 21.92339
#
# Velocity S-wave (km/s) = 3.31509 3.43742 3.37681
# Velocity P-wave (km/s) = 6.44346 6.71490 6.58058
#
# Compressibility (1/GPa) = 0.01936042
#
# Stress axis : x y z
#
# Youngs Moduli (GPa) = 47.98409 47.98409 92.24487
#
# Poissons Ratio (x) = 0.37652 0.40281
# Poissons Ratio (y) = 0.37652 0.40281
# Poissons Ratio (z) = 0.20954 0.20954
#
# Static dielectric constant tensor:
#      x y z
#    x 1.637500 0.000000 0.000000 
#    y 0.000000 1.637500 0.000000 
#    z 0.000000 0.000000 1.709650 
# 
# From -- ./inp_files/2516.got.cif
#   From: 2010.05.17/outbox.cif.g08.bks.cpg/sg154_2_cif.got.tgz:2516.got - 2010.05.20 10:41:43.
