data_PCOD9576296
_publ_section_title
;
Structure prediction by ZEFSAII (Michael W. Deem and Ramdas Pophale) SiO2 
 PCOD9576296
Probable space group: P 32 1 2
;
_chemical_formula_sum "Si O2"
_cell_formula_units_Z 24
_cell_length_a 7.238354
_cell_length_b 7.238354
_cell_length_c 24.746602
_cell_angle_alpha 90.000000
_cell_angle_beta 90.000000
_cell_angle_gamma 120.000000
_cell_volume 1122.860600
_symmetry_space_group_name_H-M "P 32 1 2"
_symmetry_group_IT_number 153
_symmetry_cell_setting 'hexagonal'
loop_
_space_group_symop_operation_xyz
x,y,z
-y,x-y,2/3+z
-x+y,-x,1/3+z
-y,-x,1/3-z
-x+y,y,2/3-z
x,x-y,-z
loop_
_atom_site_type_symbol
_atom_site_label
_atom_site_fract_x
_atom_site_fract_y
_atom_site_fract_z
Si Si1 0.949121 0.754061 0.006312
Si Si2 0.344438 0.688876 0.333334
Si Si3 0.141806 0.190371 0.890990
Si Si4 0.569969 0.540430 0.927592
Si Si5 0.226339 0.113170 0.500000
O O1 0.154157 0.745018 0.985908
O O2 0.972930 0.756975 0.071388
O O3 0.744231 0.580986 0.973673
O O4 0.964401 0.982201 0.000000
O O5 0.211298 0.541108 0.283752
O O6 0.147739 0.295477 0.833334
O O7 0.371050 0.304877 0.919158
O O8 0.059814 0.944986 0.875494
O O9 0.686829 0.631550 0.870972
#
# Coordination Sequence:
#
# PCOD9576296 Si02
#       5
#     6   3   6   6   3
#     4  11  20  43  67  94 131 166 220 272 327 393
#     4  10  24  40  66  98 128 166 222 276 320 406
#     4   9  21  40  64  97 132 165 221 275 319 402
#     4  11  21  42  71  91 131 184 211 268 350 375
#     4  10  20  40  64  90 138 164 216 278 308 400
#
# _framework density 21.373977
#
# number of rings (size 3 to 8) (size 9 to 14) (size 15 to 20)
#    0.750    1.000    3.750    0.000    0.000    4.000 
#    9.000    5.000    0.000    0.000    0.000    0.000 
#    0.000    0.000    0.000    0.000    0.000    0.000 
#
# Total GULP energy -133641.557218 kJ/mol
# GULP energy per Si atom -5568.398217 kJ/mol
# Density = 2.132533 g / cm^3
# Si number density = 21.373977 Si / 1000 Ang^3
#
#
#
# Elastic Constant Matrix: (Units=GPa)
#
#
# Indices 1 2 3 4 5 6 
#
# 1 79.3350 21.6182 20.2927 0.0004 -2.4424 0.0000
# 2 21.6182 79.3350 20.2927 -0.0004 2.4424 0.0000
# 3 20.2927 20.2927 91.7155 0.0000 0.0000 0.0000
# 4 0.0004 -0.0004 0.0000 26.0696 0.0000 2.4424
# 5 -2.4424 2.4424 0.0000 0.0000 26.0696 0.0004
# 6 0.0000 0.0000 0.0000 2.4424 0.0004 28.8584
#
#
#
# Elastic Compliance Matrix: (Units=1/GPa)
#
#
# Indices 1 2 3 4 5 6 
#
# 1 0.014169 -0.003296 -0.002406 0.000000 0.001636 0.000000
# 2 -0.003296 0.014169 -0.002406 0.000000 -0.001636 0.000000
# 3 -0.002406 -0.002406 0.011968 0.000000 0.000000 0.000000
# 4 0.000000 0.000000 0.000000 0.038665 0.000000 -0.003272
# 5 0.001636 -0.001636 0.000000 0.000000 0.038665 0.000000
# 6 0.000000 0.000000 0.000000 -0.003272 0.000000 0.034929
#
#
# Mechanical properties :
#
#
# Convention : Reuss Voigt Hill
#
# Bulk Modulus (GPa) = 41.51000 41.64364 41.57682
# Shear Modulus (GPa) = 28.27904 28.74498 28.51201
#
# Velocity S-wave (km/s) = 3.64133 3.67121 3.65630
# Velocity P-wave (km/s) = 6.09443 6.12340 6.10893
#
# Compressibility (1/GPa) = 0.02409058
#
# Stress axis : x y z
#
# Youngs Moduli (GPa) = 70.57873 70.57873 83.55738
#
# Poissons Ratio (x) = 0.23262 0.20101
# Poissons Ratio (y) = 0.23262 0.20101
# Poissons Ratio (z) = 0.16979 0.16979
#
# Static dielectric constant tensor:
#      x y z
#    x 1.789740 0.000000 0.000000 
#    y 0.000000 1.789740 0.000000 
#    z 0.000000 0.000000 1.859840 
# 
# From -- ./inp_files/4174.got.cif
#   From: 2010.05.17/outbox.cif.g08.bks.cpg/sg153_3_cif.got.tgz:4174.got - 2010.05.20 10:38:56.
