data_PCOD9576097
_publ_section_title
;
Structure prediction by ZEFSAII (Michael W. Deem and Ramdas Pophale) SiO2 
 PCOD9576097
Probable space group: P 31 2 1
;
_chemical_formula_sum "Si O2"
_cell_formula_units_Z 21
_cell_length_a 14.450683
_cell_length_b 14.450683
_cell_length_c 5.070451
_cell_angle_alpha 90.000000
_cell_angle_beta 90.000000
_cell_angle_gamma 120.000000
_cell_volume 916.967557
_symmetry_space_group_name_H-M "P 31 2 1"
_symmetry_group_IT_number 152
_symmetry_cell_setting 'hexagonal'
loop_
_space_group_symop_operation_xyz
x,y,z
-y,x-y,1/3+z
-x+y,-x,2/3+z
x-y,-y,2/3-z
-x,-x+y,1/3-z
y,x,-z
loop_
_atom_site_type_symbol
_atom_site_label
_atom_site_fract_x
_atom_site_fract_y
_atom_site_fract_z
Si Si1 0.784656 0.262918 0.746633
Si Si2 0.759144 0.883162 0.967749
Si Si3 0.304725 0.304725 0.000000
Si Si4 0.163884 0.646001 0.773252
O O1 0.855680 0.208634 0.817988
O O2 0.849354 0.380957 0.622604
O O3 0.703355 0.197143 0.510855
O O4 0.714304 0.251516 0.005075
O O5 0.815697 0.000000 0.833334
O O6 0.840165 0.840165 0.000000
O O7 0.720812 0.909491 0.240225
O O8 0.348255 0.407221 0.192619
#
# Coordination Sequence:
#
# PCOD9576097 Si02
#       4
#     6   6   3   6
#     4  11  23  42  70 107 135 186 230 288 360 449
#     4  11  25  45  68  99 141 188 253 299 361 430
#     4  10  24  44  66  96 144 184 226 314 352 426
#     4  11  22  41  69  99 145 174 232 282 368 422
#
# _framework density 22.901572000000002
#
# number of rings (size 3 to 8) (size 9 to 14) (size 15 to 20)
#    0.000    1.143    2.857    3.429    4.000    0.000 
#    0.000    0.000    0.000    0.000    0.000    0.000 
#    0.000    0.000    0.000    0.000    0.000    0.000 
#
# Total GULP energy -117031.042933 kJ/mol
# GULP energy per Si atom -5572.906806 kJ/mol
# Density = 2.284945 g / cm^3
# Si number density = 22.901572 Si / 1000 Ang^3
#
#
#
# Elastic Constant Matrix: (Units=GPa)
#
#
# Indices 1 2 3 4 5 6 
#
# 1 155.1767 63.0954 19.4257 4.4032 0.0000 0.0000
# 2 63.0954 155.1767 19.4257 -4.4032 0.0000 0.0000
# 3 19.4257 19.4257 78.2162 0.0000 0.0000 0.0000
# 4 4.4032 -4.4032 0.0000 28.4820 0.0000 0.0000
# 5 0.0000 0.0000 0.0000 0.0000 28.4820 4.4032
# 6 0.0000 0.0000 0.0000 0.0000 4.4032 46.0407
#
#
#
# Elastic Compliance Matrix: (Units=1/GPa)
#
#
# Indices 1 2 3 4 5 6 
#
# 1 0.007908 -0.003115 -0.001190 -0.001704 0.000000 0.000000
# 2 -0.003115 0.007908 -0.001190 0.001704 0.000000 0.000000
# 3 -0.001190 -0.001190 0.013376 0.000000 0.000000 0.000000
# 4 -0.001704 0.001704 0.000000 0.035637 0.000000 0.000000
# 5 0.000000 0.000000 0.000000 0.000000 0.035637 -0.003408
# 6 0.000000 0.000000 0.000000 0.000000 -0.003408 0.022046
#
#
# Mechanical properties :
#
#
# Convention : Reuss Voigt Hill
#
# Bulk Modulus (GPa) = 54.94140 65.82922 60.38531
# Shear Modulus (GPa) = 35.82414 39.70912 37.76663
#
# Velocity S-wave (km/s) = 3.95937 4.16853 4.06530
# Velocity P-wave (km/s) = 6.70406 7.20942 6.96133
#
# Compressibility (1/GPa) = 0.01820121
#
# Stress axis : x y z
#
# Youngs Moduli (GPa) = 126.45200 126.45200 74.75850
#
# Poissons Ratio (x) = 0.39387 0.08900
# Poissons Ratio (y) = 0.39387 0.08900
# Poissons Ratio (z) = 0.15054 0.15054
#
# Static dielectric constant tensor:
#      x y z
#    x 1.923190 0.000000 0.000000 
#    y 0.000000 1.923190 0.000000 
#    z 0.000000 0.000000 1.967170 
# 
# From -- ./inp_files/171.got.cif
#   From: 2010.05.17/outbox.cif.g08.bks.cpg/sg152_1_cif.got.tgz:171.got - 2010.05.20 10:36:06.
