data_PCOD9576711
_publ_section_title
;
Structure prediction by ZEFSAII (Michael W. Deem and Ramdas Pophale) SiO2 
 PCOD9576711
Probable space group: P 32 2 1
;
_chemical_formula_sum "Si O2"
_cell_formula_units_Z 30
_cell_length_a 8.316984
_cell_length_b 8.316984
_cell_length_c 22.378226
_cell_angle_alpha 90.000000
_cell_angle_beta 90.000000
_cell_angle_gamma 120.000000
_cell_volume 1340.565441
_symmetry_space_group_name_H-M "P 32 2 1"
_symmetry_group_IT_number 154
_symmetry_cell_setting 'hexagonal'
loop_
_space_group_symop_operation_xyz
x,y,z
-y,x-y,2/3+z
-x+y,-x,1/3+z
x-y,-y,1/3-z
-x,-x+y,2/3-z
y,x,-z
loop_
_atom_site_type_symbol
_atom_site_label
_atom_site_fract_x
_atom_site_fract_y
_atom_site_fract_z
Si Si1 0.607045 0.789180 0.963293
Si Si2 0.122111 0.747819 0.274809
Si Si3 0.010077 0.538621 0.734536
Si Si4 0.874951 0.679872 0.161753
Si Si5 0.523782 0.736219 0.175725
O O1 0.437108 0.584162 0.942802
O O2 0.715757 0.923241 0.908057
O O3 0.743775 0.743775 0.000000
O O4 0.539997 0.891322 0.008580
O O5 0.000000 0.723344 0.333334
O O6 0.023752 0.759960 0.214344
O O7 0.322475 0.929939 0.276169
O O8 0.148332 0.643651 0.789617
O O9 0.829141 0.541415 0.759922
O O10 0.709324 0.724541 0.168739
O O11 0.806250 0.462228 0.164368
#
# Coordination Sequence:
#
# PCOD9576711 Si02
#       5
#     6   6   6   6   6
#     4  11  22  45  75 107 146 200 245 303 387 456
#     4  11  25  43  74 111 145 195 256 305 376 458
#     4  11  24  46  68 106 151 195 241 314 381 450
#     4  12  22  47  77 109 140 199 256 308 376 470
#     4  11  23  44  75 104 146 191 250 307 386 443
#
# _framework density 22.378613999999999
#
# number of rings (size 3 to 8) (size 9 to 14) (size 15 to 20)
#    0.000    0.800    6.000    1.200    2.800    0.000 
#    7.200   11.000    0.000    0.000    0.000    0.000 
#    0.000    0.000    0.000    0.000    0.000    0.000 
#
# Total GULP energy -167566.228542 kJ/mol
# GULP energy per Si atom -5585.540951 kJ/mol
# Density = 2.232768 g / cm^3
# Si number density = 22.378614 Si / 1000 Ang^3
#
#
#
# Elastic Constant Matrix: (Units=GPa)
#
#
# Indices 1 2 3 4 5 6 
#
# 1 101.7650 54.2066 72.1189 -12.3026 0.0000 0.0000
# 2 54.2066 101.7650 72.1189 12.3026 0.0000 0.0000
# 3 72.1189 72.1189 190.3958 0.0000 0.0000 0.0000
# 4 -12.3026 12.3026 0.0000 23.7662 0.0000 0.0000
# 5 0.0000 0.0000 0.0000 0.0000 23.7662 -12.3026
# 6 0.0000 0.0000 0.0000 0.0000 -12.3026 23.7792
#
#
#
# Elastic Compliance Matrix: (Units=1/GPa)
#
#
# Indices 1 2 3 4 5 6 
#
# 1 0.019293 -0.009425 -0.003738 0.014866 0.000000 0.000000
# 2 -0.009425 0.019293 -0.003738 -0.014866 0.000000 0.000000
# 3 -0.003738 -0.003738 0.008084 0.000000 0.000000 0.000000
# 4 0.014866 -0.014866 0.000000 0.057467 0.000000 0.000000
# 5 0.000000 0.000000 0.000000 0.000000 0.057467 0.029732
# 6 0.000000 0.000000 0.000000 0.000000 0.029732 0.057436
#
#
# Mechanical properties :
#
#
# Convention : Reuss Voigt Hill
#
# Bulk Modulus (GPa) = 77.70855 87.86828 82.78841
# Shear Modulus (GPa) = 19.44536 27.29441 23.36988
#
# Velocity S-wave (km/s) = 2.95095 3.49616 3.23506
# Velocity P-wave (km/s) = 6.81254 7.45970 7.14345
#
# Compressibility (1/GPa) = 0.01286860
#
# Stress axis : x y z
#
# Youngs Moduli (GPa) = 51.83232 51.83232 123.70251
#
# Poissons Ratio (x) = 0.48851 0.46238
# Poissons Ratio (y) = 0.48851 0.46238
# Poissons Ratio (z) = 0.19374 0.19374
#
# Static dielectric constant tensor:
#      x y z
#    x 1.822260 0.000000 0.000000 
#    y 0.000000 1.822260 0.000000 
#    z 0.000000 0.000000 1.846330 
# 
# From -- ./inp_files/3050.got.cif
#   From: 2010.05.17/outbox.cif.g08.bks.cpg/sg154_2_cif.got.tgz:3050.got - 2010.05.20 10:41:43.
