data_PCOD9576397
_publ_section_title
;
Structure prediction by ZEFSAII (Michael W. Deem and Ramdas Pophale) SiO2 
 PCOD9576397
Probable space group: P 32 2 1
;
_chemical_formula_sum "Si O2"
_cell_formula_units_Z 42
_cell_length_a 9.470351
_cell_length_b 9.470351
_cell_length_c 27.990404
_cell_angle_alpha 90.000000
_cell_angle_beta 90.000000
_cell_angle_gamma 120.000000
_cell_volume 2174.062123
_symmetry_space_group_name_H-M "P 32 2 1"
_symmetry_group_IT_number 154
_symmetry_cell_setting 'hexagonal'
loop_
_space_group_symop_operation_xyz
x,y,z
-y,x-y,2/3+z
-x+y,-x,1/3+z
x-y,-y,1/3-z
-x,-x+y,2/3-z
y,x,-z
loop_
_atom_site_type_symbol
_atom_site_label
_atom_site_fract_x
_atom_site_fract_y
_atom_site_fract_z
Si Si1 0.084896 0.690968 0.784551
Si Si2 0.230809 0.593037 0.647738
Si Si3 0.139277 0.290585 0.714025
Si Si4 0.129937 0.840897 0.688767
Si Si5 0.542605 0.969924 0.892555
Si Si6 0.627099 0.281506 0.836899
Si Si7 0.846657 0.321981 0.749384
O O1 0.112315 0.826097 0.745544
O O2 0.248604 0.688434 0.798899
O O3 0.000000 0.698977 0.833334
O O4 0.963409 0.513964 0.761592
O O5 0.210506 0.460301 0.685691
O O6 0.167255 0.700668 0.673263
O O7 0.413668 0.684344 0.626717
O O8 0.111164 0.522294 0.601944
O O9 0.152109 0.178103 0.673311
O O10 0.274160 0.318265 0.753649
O O11 0.965891 0.252836 0.735393
O O12 0.278020 0.000000 0.666667
O O13 0.538117 0.119801 0.868123
O O14 0.494212 0.820833 0.856663
O O15 0.735845 0.253783 0.796788
#
# Coordination Sequence:
#
# PCOD9576397 Si02
#       7
#     6   6   6   6   6   6   6
#     4  10  19  35  60  84 115 160 202 239 300 376
#     4  10  19  36  63  89 113 158 213 242 293 368
#     4  11  19  37  62  85 117 156 209 247 297 367
#     4  11  23  38  61  91 126 153 197 266 314 352
#     4  10  21  35  57  93 119 157 199 253 301 360
#     4  10  21  35  58  86 125 154 200 250 306 367
#     4  10  18  34  61  88 108 158 209 245 284 369
#
# _framework density 19.318674000000001
#
# number of rings (size 3 to 8) (size 9 to 14) (size 15 to 20)
#    0.000    1.714    4.286    0.857    0.000    3.429 
#    0.000    2.143    6.286    0.000    0.000    0.000 
#    0.000    0.000    0.000    0.000    0.000    0.000 
#
# Total GULP energy -234248.060153 kJ/mol
# GULP energy per Si atom -5577.334766 kJ/mol
# Density = 1.927470 g / cm^3
# Si number density = 19.318674 Si / 1000 Ang^3
#
#
#
# Elastic Constant Matrix: (Units=GPa)
#
#
# Indices 1 2 3 4 5 6 
#
# 1 79.4368 18.7114 37.8186 13.4315 0.0018 0.0000
# 2 18.7114 79.4368 37.8186 -13.4315 -0.0018 0.0000
# 3 37.8186 37.8186 106.6470 0.0000 0.0000 0.0000
# 4 13.4315 -13.4315 0.0000 8.3063 0.0000 -0.0018
# 5 0.0018 -0.0018 0.0000 0.0000 8.3063 13.4315
# 6 0.0000 0.0000 0.0000 -0.0018 13.4315 30.3627
#
#
#
# Elastic Compliance Matrix: (Units=1/GPa)
#
#
# Indices 1 2 3 4 5 6 
#
# 1 0.035933 -0.021913 -0.004972 -0.093538 -0.000012 0.000000
# 2 -0.021913 0.035933 -0.004972 0.093538 0.000012 0.000000
# 3 -0.004972 -0.004972 0.012903 0.000000 0.000000 0.000000
# 4 -0.093538 0.093538 0.000000 0.422898 0.000000 0.000025
# 5 -0.000012 0.000012 0.000000 0.000000 0.422898 -0.187077
# 6 0.000000 0.000000 0.000000 0.000025 -0.187077 0.115692
#
#
# Mechanical properties :
#
#
# Convention : Reuss Voigt Hill
#
# Bulk Modulus (GPa) = 47.49218 50.46866 48.98042
# Shear Modulus (GPa) = 4.47632 20.80652 12.64142
#
# Velocity S-wave (km/s) = 1.52385 3.28535 2.56083
# Velocity P-wave (km/s) = 5.26622 6.36965 5.84403
#
# Compressibility (1/GPa) = 0.02105610
#
# Stress axis : x y z
#
# Youngs Moduli (GPa) = 27.82957 27.82957 77.50232
#
# Poissons Ratio (x) = 0.60983 0.38532
# Poissons Ratio (y) = 0.60983 0.38532
# Poissons Ratio (z) = 0.13836 0.13836
#
# Static dielectric constant tensor:
#      x y z
#    x 1.628160 0.000000 0.000000 
#    y 0.000000 1.628160 0.000000 
#    z 0.000000 0.000000 1.716550 
# 
# From -- ./inp_files/3802.got.cif
#   From: 2010.05.17/outbox.cif.g08.bks.cpg/sg154_2_cif.got.tgz:3802.got - 2010.05.20 10:41:43.
