data_PCOD9576770
_publ_section_title
;
Structure prediction by ZEFSAII (Michael W. Deem and Ramdas Pophale) SiO2 
 PCOD9576770
Probable space group: R 3 2
;
_chemical_formula_sum "Si O2"
_cell_formula_units_Z 81
_cell_length_a 16.502124
_cell_length_b 16.502124
_cell_length_c 15.442585
_cell_angle_alpha 90.000000
_cell_angle_beta 90.000000
_cell_angle_gamma 120.000000
_cell_volume 3641.919353
_symmetry_space_group_name_H-M "R 3 2"
_symmetry_group_IT_number 155
_symmetry_cell_setting 'hexagonal'
loop_
_space_group_symop_operation_xyz
x,y,z
-y,x-y,z
-x+y,-x,z
x-y,-y,-z
-x,-x+y,-z
y,x,-z
2/3+x,1/3+y,1/3+z
2/3-y,1/3+x-y,1/3+z
2/3-x+y,1/3-x,1/3+z
2/3+x-y,1/3-y,1/3-z
2/3-x,1/3-x+y,1/3-z
2/3+y,1/3+x,1/3-z
1/3+x,2/3+y,2/3+z
1/3-y,2/3+x-y,2/3+z
1/3-x+y,2/3-x,2/3+z
1/3+x-y,2/3-y,2/3-z
1/3-x,2/3-x+y,2/3-z
1/3+y,2/3+x,2/3-z
loop_
_atom_site_type_symbol
_atom_site_label
_atom_site_fract_x
_atom_site_fract_y
_atom_site_fract_z
Si Si1 0.570378 0.801160 0.503781
Si Si2 0.258862 0.202428 0.290305
Si Si3 0.459454 0.333334 0.333334
Si Si4 0.589493 0.112459 0.890963
Si Si5 0.440439 0.108498 0.645757
O O1 0.526409 0.853692 0.450241
O O2 0.532927 0.794237 0.601326
O O3 0.683296 0.866865 0.496677
O O4 0.553646 0.712527 0.446326
O O5 0.367380 0.273693 0.274438
O O6 0.221231 0.236816 0.370754
O O7 0.253601 0.105199 0.310873
O O8 0.666667 0.195498 0.833334
O O9 0.517145 0.129961 0.944351
O O10 0.333334 0.028912 0.666667
#
# Coordination Sequence:
#
# PCOD9576770 Si02
#       5
#    18  18   9  18  18
#     4  10  20  39  62  93 125 161 217 270 302 386
#     4  11  19  36  63  92 121 165 212 254 318 380
#     4  12  20  36  70  92 110 170 230 260 298 384
#     4  10  17  36  63  94 125 160 205 263 321 394
#     4   9  22  39  58  91 139 165 197 275 344 374
#
# _framework density 22.241019999999999
#
# number of rings (size 3 to 8) (size 9 to 14) (size 15 to 20)
#    0.000    1.778    4.444    2.000    0.000    0.889 
#   10.667    5.556    0.000    0.000    0.000    0.000 
#    1.111    0.000    0.000    0.000    0.000    0.000 
#
# Total GULP energy -150703.487879 kJ/mol
# GULP energy per Si atom -5581.610662 kJ/mol
# Density = 2.219040 g / cm^3
# Si number density = 22.241020 Si / 1000 Ang^3
#
#
#
# Elastic Constant Matrix: (Units=GPa)
#
#
# Indices 1 2 3 4 5 6 
#
# 1 73.5897 34.9586 -1.2492 1.5088 -0.0001 0.0000
# 2 34.9586 73.5897 -1.2492 -1.5088 0.0001 0.0000
# 3 -1.2492 -1.2492 71.6749 0.0000 0.0000 0.0000
# 4 1.5088 -1.5088 0.0000 15.4124 0.0000 0.0001
# 5 -0.0001 0.0001 0.0000 0.0000 15.4124 1.5088
# 6 0.0000 0.0000 0.0000 0.0001 1.5088 19.3155
#
#
#
# Elastic Compliance Matrix: (Units=1/GPa)
#
#
# Indices 1 2 3 4 5 6 
#
# 1 0.017651 -0.008435 0.000161 -0.002554 0.000000 0.000000
# 2 -0.008435 0.017651 0.000161 0.002554 0.000000 0.000000
# 3 0.000161 0.000161 0.013957 0.000000 0.000000 0.000000
# 4 -0.002554 0.002554 0.000000 0.065383 0.000000 0.000000
# 5 0.000000 0.000000 0.000000 0.000000 0.065383 -0.005107
# 6 0.000000 0.000000 0.000000 0.000000 -0.005107 0.052171
#
#
# Mechanical properties :
#
#
# Convention : Reuss Voigt Hill
#
# Bulk Modulus (GPa) = 30.27335 31.53053 30.90194
# Shear Modulus (GPa) = 19.27281 22.45433 20.86357
#
# Velocity S-wave (km/s) = 2.94690 3.18085 3.06611
# Velocity P-wave (km/s) = 5.02196 5.26288 5.14383
#
# Compressibility (1/GPa) = 0.03303235
#
# Stress axis : x y z
#
# Youngs Moduli (GPa) = 56.65474 56.65474 71.64613
#
# Poissons Ratio (x) = 0.47786 -0.01151
# Poissons Ratio (y) = 0.47786 -0.01151
# Poissons Ratio (z) = -0.00910 -0.00910
#
# Static dielectric constant tensor:
#      x y z
#    x 1.791720 0.000000 0.000000 
#    y 0.000000 1.791720 0.000000 
#    z 0.000000 0.000000 1.924950 
# 
# From -- ./inp_files/6052.got.cif
#   From: 2010.05.17/outbox.cif.g08.bks.cpg/sg155_4_cif.got.tgz:6052.got - 2010.05.20 10:44:35.
