data_PCOD9576946
_publ_section_title
;
Structure prediction by ZEFSAII (Michael W. Deem and Ramdas Pophale) SiO2 
 PCOD9576946
Probable space group: R 3 2
;
_chemical_formula_sum "Si O2"
_cell_formula_units_Z 63
_cell_length_a 20.742390
_cell_length_b 20.742390
_cell_length_c 8.018968
_cell_angle_alpha 90.000000
_cell_angle_beta 90.000000
_cell_angle_gamma 120.000000
_cell_volume 2987.904438
_symmetry_space_group_name_H-M "R 3 2"
_symmetry_group_IT_number 155
_symmetry_cell_setting 'hexagonal'
loop_
_space_group_symop_operation_xyz
x,y,z
-y,x-y,z
-x+y,-x,z
x-y,-y,-z
-x,-x+y,-z
y,x,-z
2/3+x,1/3+y,1/3+z
2/3-y,1/3+x-y,1/3+z
2/3-x+y,1/3-x,1/3+z
2/3+x-y,1/3-y,1/3-z
2/3-x,1/3-x+y,1/3-z
2/3+y,1/3+x,1/3-z
1/3+x,2/3+y,2/3+z
1/3-y,2/3+x-y,2/3+z
1/3-x+y,2/3-x,2/3+z
1/3+x-y,2/3-y,2/3-z
1/3-x,2/3-x+y,2/3-z
1/3+y,2/3+x,2/3-z
loop_
_atom_site_type_symbol
_atom_site_label
_atom_site_fract_x
_atom_site_fract_y
_atom_site_fract_z
Si Si1 0.230378 0.563711 0.666667
Si Si2 0.728182 0.174632 0.466554
Si Si3 0.123129 0.082017 0.334064
Si Si4 0.531392 0.666667 0.166667
Si Si5 0.807231 0.666667 0.666667
O O1 0.229944 0.490000 0.601505
O O2 0.245697 0.616207 0.504345
O O3 0.666667 0.120383 0.333334
O O4 0.676740 0.175113 0.617406
O O5 0.794125 0.162408 0.528196
O O6 0.077554 0.077554 0.500000
O O7 0.176110 0.049731 0.384407
O O8 0.601768 0.728208 0.266850
#
# Coordination Sequence:
#
# PCOD9576946 Si02
#       5
#     9  18  18   9   9
#     4  10  20  41  66 118 149 188 248 322 396 467
#     4  10  23  43  73 103 154 189 259 319 384 488
#     4  11  20  43  70 109 149 193 249 326 390 473
#     4  12  26  46  76 108 152 202 258 324 404 488
#     4  12  24  49  72 114 155 202 260 324 412 479
#
# _framework density 21.085013
#
# number of rings (size 3 to 8) (size 9 to 14) (size 15 to 20)
#    0.000    1.143    5.714    0.000    0.000    1.143 
#   47.143    0.000   12.571    0.000    0.000    0.000 
#    0.000    0.000    0.000    0.000    0.000    0.000 
#
# Total GULP energy -117007.489660 kJ/mol
# GULP energy per Si atom -5571.785222 kJ/mol
# Density = 2.103702 g / cm^3
# Si number density = 21.085013 Si / 1000 Ang^3
#
#
#
# Elastic Constant Matrix: (Units=GPa)
#
#
# Indices 1 2 3 4 5 6 
#
# 1 105.2499 47.2086 40.1761 -5.5334 0.0001 0.0005
# 2 47.2086 105.2488 40.1740 5.5340 -0.0008 0.0006
# 3 40.1761 40.1740 142.7170 -0.0004 0.0004 0.0006
# 4 -5.5334 5.5340 -0.0004 14.2682 -0.0008 0.0016
# 5 0.0001 -0.0008 0.0004 -0.0008 14.2689 -5.5335
# 6 0.0005 0.0006 0.0006 0.0016 -5.5335 29.0200
#
#
#
# Elastic Compliance Matrix: (Units=1/GPa)
#
#
# Indices 1 2 3 4 5 6 
#
# 1 0.013153 -0.005452 -0.002168 0.007215 0.000000 -0.000001
# 2 -0.005452 0.013154 -0.002168 -0.007216 0.000001 0.000000
# 3 -0.002168 -0.002168 0.008228 0.000000 0.000000 0.000000
# 4 0.007215 -0.007216 0.000000 0.075683 0.000003 -0.000004
# 5 0.000000 0.000001 0.000000 0.000003 0.075679 0.014430
# 6 -0.000001 0.000000 0.000000 -0.000004 0.014430 0.037211
#
#
# Mechanical properties :
#
#
# Convention : Reuss Voigt Hill
#
# Bulk Modulus (GPa) = 66.85000 67.59256 67.22128
# Shear Modulus (GPa) = 20.18828 26.55524 23.37176
#
# Velocity S-wave (km/s) = 3.09766 3.55270 3.33296
# Velocity P-wave (km/s) = 6.67591 6.99683 6.83826
#
# Compressibility (1/GPa) = 0.01495886
#
# Stress axis : x y z
#
# Youngs Moduli (GPa) = 76.02565 76.02514 121.54352
#
# Poissons Ratio (x) = 0.41446 0.26353
# Poissons Ratio (y) = 0.41447 0.26350
# Poissons Ratio (z) = 0.16484 0.16482
#
# Static dielectric constant tensor:
#      x y z
#    x 1.789750 0.000000 0.000010 
#    y 0.000000 1.789760 0.000000 
#    z 0.000010 0.000000 1.831990 
# 
# From -- ./inp_files/2077.got.cif
#   From: 2010.05.17/outbox.cif.g08.bks.cpg/sg155_2_cif.got.tgz:2077.got - 2010.05.20 10:44:35.
