data_PCOD9576811
_publ_section_title
;
Structure prediction by ZEFSAII (Michael W. Deem and Ramdas Pophale) SiO2 
 PCOD9576811
Probable space group: R 3 2
;
_chemical_formula_sum "Si O2"
_cell_formula_units_Z 72
_cell_length_a 12.313755
_cell_length_b 12.313755
_cell_length_c 20.145957
_cell_angle_alpha 90.000000
_cell_angle_beta 90.000000
_cell_angle_gamma 120.000000
_cell_volume 2645.449961
_symmetry_space_group_name_H-M "R 3 2"
_symmetry_group_IT_number 155
_symmetry_cell_setting 'hexagonal'
loop_
_space_group_symop_operation_xyz
x,y,z
-y,x-y,z
-x+y,-x,z
x-y,-y,-z
-x,-x+y,-z
y,x,-z
2/3+x,1/3+y,1/3+z
2/3-y,1/3+x-y,1/3+z
2/3-x+y,1/3-x,1/3+z
2/3+x-y,1/3-y,1/3-z
2/3-x,1/3-x+y,1/3-z
2/3+y,1/3+x,1/3-z
1/3+x,2/3+y,2/3+z
1/3-y,2/3+x-y,2/3+z
1/3-x+y,2/3-x,2/3+z
1/3+x-y,2/3-y,2/3-z
1/3-x,2/3-x+y,2/3-z
1/3+y,2/3+x,2/3-z
loop_
_atom_site_type_symbol
_atom_site_label
_atom_site_fract_x
_atom_site_fract_y
_atom_site_fract_z
Si Si1 0.653798 0.527647 0.148653
Si Si2 0.667269 0.516696 0.002599
Si Si3 0.161480 0.726853 0.230749
Si Si4 0.837796 0.587705 0.394386
O O1 0.763271 0.666667 0.166667
O O2 0.690989 0.492810 0.078435
O O3 0.531234 0.535057 0.128009
O O4 0.597144 0.442642 0.214701
O O5 0.570990 0.570990 0.000000
O O6 0.576434 0.394944 0.959309
O O7 0.786133 0.633743 0.968289
O O8 0.184661 0.666667 0.166667
O O9 0.011408 0.646643 0.244963
O O10 0.839761 0.506428 0.333334
#
# Coordination Sequence:
#
# PCOD9576811 Si02
#       4
#    18  18  18  18
#     4  10  18  36  61  89 125 175 221 263 340 414
#     4  10  19  37  61  86 130 176 217 268 339 427
#     4   9  19  34  58  87 129 165 213 277 337 399
#     4  11  21  36  62 100 127 172 222 285 338 400
#
# _framework density 27.216543000000001
#
# number of rings (size 3 to 8) (size 9 to 14) (size 15 to 20)
#    0.000    2.000    5.000    2.250    0.000    0.000 
#    1.500    7.500    0.000    0.500    0.000    0.000 
#    0.000    0.000    0.000    0.000    0.000    0.000 
#
# Total GULP energy -133982.925951 kJ/mol
# GULP energy per Si atom -5582.621915 kJ/mol
# Density = 2.715460 g / cm^3
# Si number density = 27.216543 Si / 1000 Ang^3
#
#
#
# Elastic Constant Matrix: (Units=GPa)
#
#
# Indices 1 2 3 4 5 6 
#
# 1 45.2260 1.3124 23.3582 -2.4440 0.0001 0.0000
# 2 1.3124 45.2260 23.3582 2.4440 -0.0001 0.0000
# 3 23.3582 23.3582 260.2258 0.0000 0.0000 0.0000
# 4 -2.4440 2.4440 0.0000 30.8640 0.0000 -0.0001
# 5 0.0001 -0.0001 0.0000 0.0000 30.8640 -2.4440
# 6 0.0000 0.0000 0.0000 -0.0001 -2.4440 21.9568
#
#
#
# Elastic Compliance Matrix: (Units=1/GPa)
#
#
# Indices 1 2 3 4 5 6 
#
# 1 0.023295 0.000320 -0.002120 0.001819 0.000000 0.000000
# 2 0.000320 0.023295 -0.002120 -0.001819 0.000000 0.000000
# 3 -0.002120 -0.002120 0.004223 0.000000 0.000000 0.000000
# 4 0.001819 -0.001819 0.000000 0.032688 0.000000 0.000000
# 5 0.000000 0.000000 0.000000 0.000000 0.032688 0.003638
# 6 0.000000 0.000000 0.000000 0.000000 0.003638 0.045949
#
#
# Mechanical properties :
#
#
# Convention : Reuss Voigt Hill
#
# Bulk Modulus (GPa) = 23.26916 49.63729 36.45323
# Shear Modulus (GPa) = 27.12936 36.91356 32.02146
#
# Velocity S-wave (km/s) = 3.16063 3.68678 3.43380
# Velocity P-wave (km/s) = 4.67843 6.03329 5.39853
#
# Compressibility (1/GPa) = 0.04297533
#
# Stress axis : x y z
#
# Youngs Moduli (GPa) = 42.92764 42.92764 236.77820
#
# Poissons Ratio (x) = -0.01376 0.50191
# Poissons Ratio (y) = -0.01376 0.50191
# Poissons Ratio (z) = 0.09100 0.09100
#
# Static dielectric constant tensor:
#      x y z
#    x 2.231950 0.000000 0.000000 
#    y 0.000000 2.231950 0.000000 
#    z 0.000000 0.000000 2.394220 
# 
# From -- ./inp_files/5889.got.cif
#   From: 2010.05.17/outbox.cif.g08.bks.cpg/sg155_3_cif.got.tgz:5889.got - 2010.05.20 10:44:35.
