data_PCOD9576790
_publ_section_title
;
Structure prediction by ZEFSAII (Michael W. Deem and Ramdas Pophale) SiO2 
 PCOD9576790
Probable space group: R 3 2
;
_chemical_formula_sum "Si O2"
_cell_formula_units_Z 72
_cell_length_a 29.129125
_cell_length_b 29.129125
_cell_length_c 5.054162
_cell_angle_alpha 90.000000
_cell_angle_beta 90.000000
_cell_angle_gamma 120.000000
_cell_volume 3713.938161
_symmetry_space_group_name_H-M "R 3 2"
_symmetry_group_IT_number 155
_symmetry_cell_setting 'hexagonal'
loop_
_space_group_symop_operation_xyz
x,y,z
-y,x-y,z
-x+y,-x,z
x-y,-y,-z
-x,-x+y,-z
y,x,-z
2/3+x,1/3+y,1/3+z
2/3-y,1/3+x-y,1/3+z
2/3-x+y,1/3-x,1/3+z
2/3+x-y,1/3-y,1/3-z
2/3-x,1/3-x+y,1/3-z
2/3+y,1/3+x,1/3-z
1/3+x,2/3+y,2/3+z
1/3-y,2/3+x-y,2/3+z
1/3-x+y,2/3-x,2/3+z
1/3+x-y,2/3-y,2/3-z
1/3-x,2/3-x+y,2/3-z
1/3+y,2/3+x,2/3-z
loop_
_atom_site_type_symbol
_atom_site_label
_atom_site_fract_x
_atom_site_fract_y
_atom_site_fract_z
Si Si1 0.483196 0.608541 0.571425
Si Si2 0.240877 0.366589 0.087565
Si Si3 0.092966 0.279323 0.424462
Si Si4 0.632345 0.152770 0.598837
O O1 0.498309 0.666667 0.666667
O O2 0.521128 0.611044 0.329367
O O3 0.423161 0.572949 0.468932
O O4 0.493014 0.581549 0.828568
O O5 0.243230 0.333334 0.333334
O O6 0.186498 0.368494 0.123214
O O7 0.236432 0.333334 0.833334
O O8 0.282725 0.427663 0.040504
O O9 0.094927 0.333334 0.333334
O O10 0.666667 0.166409 0.333334
O O11 0.666667 0.192410 0.833334
#
# Coordination Sequence:
#
# PCOD9576790 Si02
#       4
#    18  18  18  18
#     4  11  22  36  56  85 117 150 195 248 294 339
#     4  10  18  32  54  81 107 134 174 225 280 340
#     4  10  18  33  56  82 108 138 180 228 284 349
#     4  11  21  35  56  84 114 150 197 243 287 338
#
# _framework density 19.386431000000002
#
# number of rings (size 3 to 8) (size 9 to 14) (size 15 to 20)
#    0.000    1.500    0.000   12.000    0.000    0.000 
#    0.000    0.000    0.000   15.500    0.000    8.750 
#    0.000    0.000    0.000    0.000    0.000    0.000 
#
# Total GULP energy -133884.022736 kJ/mol
# GULP energy per Si atom -5578.500947 kJ/mol
# Density = 1.934231 g / cm^3
# Si number density = 19.386431 Si / 1000 Ang^3
#
#
#
# Elastic Constant Matrix: (Units=GPa)
#
#
# Indices 1 2 3 4 5 6 
#
# 1 86.6664 46.0065 45.3682 8.8084 -0.2680 -0.0405
# 2 46.0065 87.0870 45.4608 -9.1665 0.7355 0.6418
# 3 45.3682 45.4608 172.4650 -0.1409 0.6394 0.4378
# 4 8.8084 -9.1665 -0.1409 37.8614 -0.7985 -0.3786
# 5 -0.2680 0.7355 0.6394 -0.7985 38.1185 8.9756
# 6 -0.0405 0.6418 0.4378 -0.3786 8.9756 20.5528
#
#
#
# Elastic Compliance Matrix: (Units=1/GPa)
#
#
# Indices 1 2 3 4 5 6 
#
# 1 0.018281 -0.009074 -0.002423 -0.006454 0.000167 0.000179
# 2 -0.009074 0.018223 -0.002410 0.006507 -0.000157 -0.000347
# 3 -0.002423 -0.002410 0.007071 0.000005 -0.000078 -0.000046
# 4 -0.006454 0.006507 0.000005 0.029499 0.000412 0.000147
# 5 0.000167 -0.000157 -0.000078 0.000412 0.029253 -0.012760
# 6 0.000179 -0.000347 -0.000046 0.000147 -0.012760 0.054243
#
#
# Mechanical properties :
#
#
# Convention : Reuss Voigt Hill
#
# Bulk Modulus (GPa) = 63.44922 68.87659 66.16290
# Shear Modulus (GPa) = 26.36599 33.26540 29.81569
#
# Velocity S-wave (km/s) = 3.69185 4.14685 3.92595
# Velocity P-wave (km/s) = 7.13952 7.65074 7.39955
#
# Compressibility (1/GPa) = 0.01576064
#
# Stress axis : x y z
#
# Youngs Moduli (GPa) = 54.70275 54.87475 141.41617
#
# Poissons Ratio (x) = 0.49795 0.34269
# Poissons Ratio (y) = 0.49639 0.34077
# Poissons Ratio (z) = 0.13256 0.13223
#
# Static dielectric constant tensor:
#      x y z
#    x 1.699100 0.000920 -0.000330 
#    y 0.000920 1.698720 0.001440 
#    z -0.000330 0.001440 1.699060 
# 
# From -- ./inp_files/909.got.cif
#   From: 2010.05.17/outbox.cif.g08.bks.cpg/sg155_1_cif.got.tgz:909.got - 2010.05.20 10:44:35.
