data_PCOD9576809
_publ_section_title
;
Structure prediction by ZEFSAII (Michael W. Deem and Ramdas Pophale) SiO2 
 PCOD9576809
Probable space group: R 3 2
;
_chemical_formula_sum "Si O2"
_cell_formula_units_Z 135
_cell_length_a 16.267006
_cell_length_b 16.267006
_cell_length_c 28.696185
_cell_angle_alpha 90.000000
_cell_angle_beta 90.000000
_cell_angle_gamma 120.000000
_cell_volume 6576.124836
_symmetry_space_group_name_H-M "R 3 2"
_symmetry_group_IT_number 155
_symmetry_cell_setting 'hexagonal'
loop_
_space_group_symop_operation_xyz
x,y,z
-y,x-y,z
-x+y,-x,z
x-y,-y,-z
-x,-x+y,-z
y,x,-z
2/3+x,1/3+y,1/3+z
2/3-y,1/3+x-y,1/3+z
2/3-x+y,1/3-x,1/3+z
2/3+x-y,1/3-y,1/3-z
2/3-x,1/3-x+y,1/3-z
2/3+y,1/3+x,1/3-z
1/3+x,2/3+y,2/3+z
1/3-y,2/3+x-y,2/3+z
1/3-x+y,2/3-x,2/3+z
1/3+x-y,2/3-y,2/3-z
1/3-x,2/3-x+y,2/3-z
1/3+y,2/3+x,2/3-z
loop_
_atom_site_type_symbol
_atom_site_label
_atom_site_fract_x
_atom_site_fract_y
_atom_site_fract_z
Si Si1 0.670482 0.544890 0.078138
Si Si2 0.620383 0.126570 0.441031
Si Si3 0.703097 0.879642 0.044749
Si Si4 0.433894 0.388547 0.927460
Si Si5 0.000000 0.469233 0.000000
Si Si6 0.426167 0.082525 0.228644
Si Si7 0.479920 0.926004 0.849074
Si Si8 0.200052 0.280801 0.720630
O O1 0.617013 0.549567 0.032912
O O2 0.709443 0.647380 0.103690
O O3 0.596802 0.463724 0.111531
O O4 0.760190 0.536659 0.062920
O O5 0.697777 0.164900 0.398605
O O6 0.531628 0.144475 0.439923
O O7 0.683287 0.155059 0.487290
O O8 0.570014 0.014034 0.432716
O O9 0.619171 0.893396 0.068988
O O10 0.712143 0.790034 0.059529
O O11 0.678987 0.875365 0.990377
O O12 0.449890 0.434606 0.876154
O O13 0.360391 0.416385 0.951598
O O14 0.519449 0.448995 0.962546
O O15 0.468913 0.047768 0.187488
#
# Coordination Sequence:
#
# PCOD9576809 Si02
#       8
#    18  18  18  18   9  18  18  18
#     4  10  21  35  59  88 114 154 189 243 301 347
#     4   9  20  35  52  80 115 155 189 236 276 338
#     4  10  19  36  59  86 113 154 198 243 294 346
#     4  10  19  35  59  84 109 152 196 243 283 348
#     4  10  18  36  58  88 112 136 194 252 286 332
#     4  10  21  37  54  85 119 155 197 239 291 353
#     4  10  22  36  54  82 121 154 198 238 288 343
#     4  10  19  35  60  84 110 152 197 233 288 349
#
# _framework density 20.528805999999999
#
# number of rings (size 3 to 8) (size 9 to 14) (size 15 to 20)
#    0.000    2.133    1.333    2.400    1.867    6.400 
#    8.800    0.000    0.000    0.000    0.000    0.000 
#    0.000    0.267   23.733    0.000    0.000    0.000 
#
# Total GULP energy -250587.521828 kJ/mol
# GULP energy per Si atom -5568.611596 kJ/mol
# Density = 2.048208 g / cm^3
# Si number density = 20.528806 Si / 1000 Ang^3
#
#
#
# Elastic Constant Matrix: (Units=GPa)
#
#
# Indices 1 2 3 4 5 6 
#
# 1 51.8019 14.5330 29.6447 -0.3026 0.0000 0.0000
# 2 14.5330 51.8019 29.6447 0.3026 0.0000 0.0000
# 3 29.6447 29.6447 106.1618 0.0000 0.0000 0.0000
# 4 -0.3026 0.3026 0.0000 21.8214 0.0000 0.0000
# 5 0.0000 0.0000 0.0000 0.0000 21.8214 -0.3026
# 6 0.0000 0.0000 0.0000 0.0000 -0.3026 18.6345
#
#
#
# Elastic Compliance Matrix: (Units=1/GPa)
#
#
# Indices 1 2 3 4 5 6 
#
# 1 0.023463 -0.003375 -0.005610 0.000372 0.000000 0.000000
# 2 -0.003375 0.023463 -0.005610 -0.000372 0.000000 0.000000
# 3 -0.005610 -0.005610 0.012552 0.000000 0.000000 0.000000
# 4 0.000372 -0.000372 0.000000 0.045837 0.000000 0.000000
# 5 0.000000 0.000000 0.000000 0.000000 0.045837 0.000744
# 6 0.000000 0.000000 0.000000 0.000000 0.000744 0.053676
#
#
# Mechanical properties :
#
#
# Convention : Reuss Voigt Hill
#
# Bulk Modulus (GPa) = 33.01239 39.71227 36.36233
# Shear Modulus (GPa) = 20.48221 21.51833 21.00027
#
# Velocity S-wave (km/s) = 3.16211 3.24111 3.20185
# Velocity P-wave (km/s) = 5.42659 5.77867 5.60539
#
# Compressibility (1/GPa) = 0.03029166
#
# Stress axis : x y z
#
# Youngs Moduli (GPa) = 42.61947 42.61947 79.66570
#
# Poissons Ratio (x) = 0.14382 0.44689
# Poissons Ratio (y) = 0.14382 0.44689
# Poissons Ratio (z) = 0.23908 0.23908
#
# Static dielectric constant tensor:
#      x y z
#    x 1.788630 0.000000 0.000000 
#    y 0.000000 1.788630 0.000000 
#    z 0.000000 0.000000 1.806920 
# 
# From -- ./inp_files/8024.got.cif
#   From: 2010.05.17/outbox.cif.g08.bks.cpg/sg155_5_cif.got.tgz:8024.got - 2010.05.20 10:44:35.
