data_PCOD9576693
_publ_section_title
;
Structure prediction by ZEFSAII (Michael W. Deem and Ramdas Pophale) SiO2 
 PCOD9576693
Probable space group: P 32 2 1
;
_chemical_formula_sum "Si O2"
_cell_formula_units_Z 18
_cell_length_a 9.207996
_cell_length_b 9.207996
_cell_length_c 8.274729
_cell_angle_alpha 90.000000
_cell_angle_beta 90.000000
_cell_angle_gamma 120.000000
_cell_volume 607.595649
_symmetry_space_group_name_H-M "P 32 2 1"
_symmetry_group_IT_number 154
_symmetry_cell_setting 'hexagonal'
loop_
_space_group_symop_operation_xyz
x,y,z
-y,x-y,2/3+z
-x+y,-x,1/3+z
x-y,-y,1/3-z
-x,-x+y,2/3-z
y,x,-z
loop_
_atom_site_type_symbol
_atom_site_label
_atom_site_fract_x
_atom_site_fract_y
_atom_site_fract_z
Si Si1 0.000000 0.428628 0.333334
Si Si2 0.590700 0.212113 0.040265
Si Si3 0.291057 0.342821 0.268590
Si Si4 0.224276 0.000000 0.166667
O O1 0.693217 0.376303 0.539978
O O2 0.844933 0.241785 0.358820
O O3 0.474793 0.432149 0.858869
O O4 0.671306 0.094768 0.053183
O O5 0.386438 0.091860 0.043835
O O6 0.195217 0.152667 0.207617
#
# Coordination Sequence:
#
# PCOD9576693 Si02
#       4
#     3   6   6   3
#     4  12  32  62 102 138 198 266 348 428 534 638
#     4  10  25  56 101 150 206 272 345 428 522 624
#     4  11  30  61  97 141 196 272 334 430 524 631
#     4  10  26  58  94 144 206 254 344 416 522 618
#
# _framework density 29.624966000000001
#
# number of rings (size 3 to 8) (size 9 to 14) (size 15 to 20)
#    0.000    1.333    0.000    0.000   14.000    6.667 
#    0.000    0.000    7.333    0.000    0.000    0.000 
#    0.000    0.000    0.000    0.000    0.000    0.000 
#
# Total GULP energy -100459.738569 kJ/mol
# GULP energy per Si atom -5581.096587 kJ/mol
# Density = 2.955754 g / cm^3
# Si number density = 29.624966 Si / 1000 Ang^3
#
#
#
# Elastic Constant Matrix: (Units=GPa)
#
#
# Indices 1 2 3 4 5 6 
#
# 1 304.0815 147.6213 98.1663 2.0056 0.0002 0.0000
# 2 147.6213 304.0815 98.1663 -2.0056 -0.0002 0.0000
# 3 98.1663 98.1663 172.8755 0.0000 0.0000 0.0000
# 4 2.0056 -2.0056 0.0000 38.3966 0.0000 -0.0002
# 5 0.0002 -0.0002 0.0000 0.0000 38.3966 2.0056
# 6 0.0000 0.0000 0.0000 -0.0002 2.0056 78.2301
#
#
#
# Elastic Compliance Matrix: (Units=1/GPa)
#
#
# Indices 1 2 3 4 5 6 
#
# 1 0.004670 -0.001730 -0.001669 -0.000334 0.000000 0.000000
# 2 -0.001730 0.004670 -0.001669 0.000334 0.000000 0.000000
# 3 -0.001669 -0.001669 0.007680 0.000000 0.000000 0.000000
# 4 -0.000334 0.000334 0.000000 0.026079 0.000000 0.000000
# 5 0.000000 0.000000 0.000000 0.000000 0.026079 -0.000669
# 6 0.000000 0.000000 0.000000 0.000000 -0.000669 0.012800
#
#
# Mechanical properties :
#
#
# Convention : Reuss Voigt Hill
#
# Bulk Modulus (GPa) = 145.29835 163.21626 154.25731
# Shear Modulus (GPa) = 52.96157 60.14365 56.55261
#
# Velocity S-wave (km/s) = 4.23275 4.51063 4.37389
# Velocity P-wave (km/s) = 8.54638 9.07422 8.81425
#
# Compressibility (1/GPa) = 0.00688239
#
# Stress axis : x y z
#
# Youngs Moduli (GPa) = 214.14933 214.14933 130.20753
#
# Poissons Ratio (x) = 0.37055 0.21733
# Poissons Ratio (y) = 0.37055 0.21733
# Poissons Ratio (z) = 0.35743 0.35743
#
# Static dielectric constant tensor:
#      x y z
#    x 2.453590 0.000000 0.000000 
#    y 0.000000 2.453590 0.000000 
#    z 0.000000 0.000000 2.446380 
# 
# From -- ./inp_files/1477.got.cif
#   From: 2010.05.17/outbox.cif.g08.bks.cpg/sg154_1_cif.got.tgz:1477.got - 2010.05.20 10:41:43.
