data_PCOD9576995
_publ_section_title
;
Structure prediction by ZEFSAII (Michael W. Deem and Ramdas Pophale) SiO2 
 PCOD9576995
Probable space group: R 3 2
;
_chemical_formula_sum "Si O2"
_cell_formula_units_Z 108
_cell_length_a 16.749648
_cell_length_b 16.749648
_cell_length_c 22.304555
_cell_angle_alpha 90.000000
_cell_angle_beta 90.000000
_cell_angle_gamma 120.000000
_cell_volume 5419.204800
_symmetry_space_group_name_H-M "R 3 2"
_symmetry_group_IT_number 155
_symmetry_cell_setting 'hexagonal'
loop_
_space_group_symop_operation_xyz
x,y,z
-y,x-y,z
-x+y,-x,z
x-y,-y,-z
-x,-x+y,-z
y,x,-z
2/3+x,1/3+y,1/3+z
2/3-y,1/3+x-y,1/3+z
2/3-x+y,1/3-x,1/3+z
2/3+x-y,1/3-y,1/3-z
2/3-x,1/3-x+y,1/3-z
2/3+y,1/3+x,1/3-z
1/3+x,2/3+y,2/3+z
1/3-y,2/3+x-y,2/3+z
1/3-x+y,2/3-x,2/3+z
1/3+x-y,2/3-y,2/3-z
1/3-x,2/3-x+y,2/3-z
1/3+y,2/3+x,2/3-z
loop_
_atom_site_type_symbol
_atom_site_label
_atom_site_fract_x
_atom_site_fract_y
_atom_site_fract_z
Si Si1 0.548997 0.729352 0.504025
Si Si2 0.764388 0.094810 0.067234
Si Si3 0.390059 0.936274 0.106293
Si Si4 0.020135 0.758101 0.430407
Si Si5 0.805567 0.526269 0.167968
Si Si6 0.200644 0.843135 0.053556
O O1 0.622509 0.727221 0.458019
O O2 0.510411 0.793835 0.480531
O O3 0.457542 0.633367 0.514158
O O4 0.608857 0.771858 0.564613
O O5 0.767300 0.167579 0.114962
O O6 0.809531 0.044780 0.103019
O O7 0.656539 0.016815 0.062727
O O8 0.822976 0.147646 0.009360
O O9 0.333334 0.882666 0.166667
O O10 0.476173 0.921278 0.093308
O O11 0.311815 0.900767 0.055336
O O12 0.000000 0.726530 0.500000
O O13 0.928326 0.757659 0.409505
#
# Coordination Sequence:
#
# PCOD9576995 Si02
#       6
#    18  18  18  18  18  18
#     4  11  22  42  66  95 129 174 221 285 340 409
#     4  11  22  42  65  95 125 183 224 272 340 422
#     4  10  21  39  64  97 134 171 222 276 337 403
#     4  12  18  42  72  94 127 187 225 271 340 417
#     4  11  23  41  67  90 128 175 227 268 352 410
#     4  11  24  40  65  99 137 167 229 285 332 411
#
# _framework density 19.929122
#
# number of rings (size 3 to 8) (size 9 to 14) (size 15 to 20)
#    0.000    1.000    8.333    0.833    7.000    0.667 
#    4.000    0.833    0.000    2.000    0.000    0.000 
#    0.000    0.000    0.000    0.000    0.000    0.000 
#
# Total GULP energy -200754.020586 kJ/mol
# GULP energy per Si atom -5576.500572 kJ/mol
# Density = 1.988376 g / cm^3
# Si number density = 19.929122 Si / 1000 Ang^3
#
#
#
# Elastic Constant Matrix: (Units=GPa)
#
#
# Indices 1 2 3 4 5 6 
#
# 1 98.1663 39.9175 18.5872 0.2452 -0.0001 0.0000
# 2 39.9175 98.1663 18.5872 -0.2452 0.0001 0.0000
# 3 18.5872 18.5872 55.2750 0.0000 0.0000 0.0000
# 4 0.2452 -0.2452 0.0000 16.6359 0.0000 0.0001
# 5 -0.0001 0.0001 0.0000 0.0000 16.6359 0.2452
# 6 0.0000 0.0000 0.0000 0.0001 0.2452 29.1244
#
#
#
# Elastic Compliance Matrix: (Units=1/GPa)
#
#
# Indices 1 2 3 4 5 6 
#
# 1 0.012566 -0.004604 -0.002678 -0.000253 0.000000 0.000000
# 2 -0.004604 0.012566 -0.002678 0.000253 0.000000 0.000000
# 3 -0.002678 -0.002678 0.019892 0.000000 0.000000 0.000000
# 4 -0.000253 0.000253 0.000000 0.060118 0.000000 0.000000
# 5 0.000000 0.000000 0.000000 0.000000 0.060118 -0.000506
# 6 0.000000 0.000000 0.000000 0.000000 -0.000506 0.034340
#
#
# Mechanical properties :
#
#
# Convention : Reuss Voigt Hill
#
# Bulk Modulus (GPa) = 39.82912 45.08795 42.45853
# Shear Modulus (GPa) = 21.94059 24.11362 23.02711
#
# Velocity S-wave (km/s) = 3.32163 3.48223 3.40288
# Velocity P-wave (km/s) = 5.89404 6.23227 6.06551
#
# Compressibility (1/GPa) = 0.02510726
#
# Stress axis : x y z
#
# Youngs Moduli (GPa) = 79.57758 79.57758 50.27107
#
# Poissons Ratio (x) = 0.36634 0.13461
# Poissons Ratio (y) = 0.36634 0.13461
# Poissons Ratio (z) = 0.21308 0.21308
#
# Static dielectric constant tensor:
#      x y z
#    x 1.732740 0.000000 0.000000 
#    y 0.000000 1.732740 0.000000 
#    z 0.000000 0.000000 1.752110 
# 
# From -- ./inp_files/6967.got.cif
#   From: 2010.05.17/outbox.cif.g08.bks.cpg/sg155_4_cif.got.tgz:6967.got - 2010.05.20 10:44:35.
