data_PCOD9576334
_publ_section_title
;
Structure prediction by ZEFSAII (Michael W. Deem and Ramdas Pophale) SiO2 
 PCOD9576334
Probable space group: P 32 1 2
;
_chemical_formula_sum "Si O2"
_cell_formula_units_Z 18
_cell_length_a 10.946052
_cell_length_b 10.946052
_cell_length_c 7.614125
_cell_angle_alpha 90.000000
_cell_angle_beta 90.000000
_cell_angle_gamma 120.000000
_cell_volume 790.070139
_symmetry_space_group_name_H-M "P 32 1 2"
_symmetry_group_IT_number 153
_symmetry_cell_setting 'hexagonal'
loop_
_space_group_symop_operation_xyz
x,y,z
-y,x-y,2/3+z
-x+y,-x,1/3+z
-y,-x,1/3-z
-x+y,y,2/3-z
x,x-y,-z
loop_
_atom_site_type_symbol
_atom_site_label
_atom_site_fract_x
_atom_site_fract_y
_atom_site_fract_z
Si Si1 0.953066 0.413777 0.808883
Si Si2 0.456303 0.728152 0.500000
Si Si3 0.061485 0.122970 0.333334
Si Si4 0.747110 0.127378 0.975550
O O1 0.914197 0.500733 0.673463
O O2 0.109969 0.444397 0.774679
O O3 0.962620 0.481310 0.000000
O O4 0.834066 0.253203 0.840130
O O5 0.359899 0.719797 0.333334
O O6 0.223364 0.222269 0.274678
O O7 0.053130 0.026565 0.500000
O O8 0.814644 0.185357 0.166667
#
# Coordination Sequence:
#
# PCOD9576334 Si02
#       4
#     6   3   3   6
#     4   9  19  38  68  93 137 180 231 293 358 426
#     4  10  22  40  70 102 138 182 236 298 364 428
#     4  10  22  40  70 102 138 182 236 298 364 428
#     4   9  19  38  68  93 137 180 231 293 358 426
#
# _framework density 22.782788
#
# number of rings (size 3 to 8) (size 9 to 14) (size 15 to 20)
#    0.000    2.667    0.000    0.000    4.667    0.000 
#    0.000    0.000   66.000    0.000    0.000    0.000 
#    0.000    0.000    0.000    0.000    0.000    0.000 
#
# Total GULP energy -100586.688276 kJ/mol
# GULP energy per Si atom -5588.149349 kJ/mol
# Density = 2.273093 g / cm^3
# Si number density = 22.782788 Si / 1000 Ang^3
#
#
#
# Elastic Constant Matrix: (Units=GPa)
#
#
# Indices 1 2 3 4 5 6 
#
# 1 180.2676 148.9901 50.5074 0.0000 0.0000 0.0000
# 2 148.9901 180.2676 50.5074 0.0000 0.0000 0.0000
# 3 50.5074 50.5074 124.2973 0.0000 0.0000 0.0000
# 4 0.0000 0.0000 0.0000 27.9681 0.0000 0.0000
# 5 0.0000 0.0000 0.0000 0.0000 27.9681 0.0000
# 6 0.0000 0.0000 0.0000 0.0000 0.0000 15.6388
#
#
#
# Elastic Compliance Matrix: (Units=1/GPa)
#
#
# Indices 1 2 3 4 5 6 
#
# 1 0.017721 -0.014251 -0.001410 0.000000 0.000000 0.000000
# 2 -0.014251 0.017721 -0.001410 0.000000 0.000000 0.000000
# 3 -0.001410 -0.001410 0.009191 0.000000 0.000000 0.000000
# 4 0.000000 0.000000 0.000000 0.035755 0.000000 0.000000
# 5 0.000000 0.000000 0.000000 0.000000 0.035755 0.000000
# 6 0.000000 0.000000 0.000000 0.000000 0.000000 0.063944
#
#
# Mechanical properties :
#
#
# Convention : Reuss Voigt Hill
#
# Bulk Modulus (GPa) = 95.32111 109.42691 102.37401
# Shear Modulus (GPa) = 22.96476 29.97017 26.46747
#
# Velocity S-wave (km/s) = 3.17833 3.63088 3.41211
# Velocity P-wave (km/s) = 7.44305 8.10633 7.78176
#
# Compressibility (1/GPa) = 0.01049086
#
# Stress axis : x y z
#
# Youngs Moduli (GPa) = 56.43096 56.43096 108.80184
#
# Poissons Ratio (x) = 0.80420 0.15340
# Poissons Ratio (y) = 0.80420 0.15340
# Poissons Ratio (z) = 0.07956 0.07956
#
# Static dielectric constant tensor:
#      x y z
#    x 1.833550 0.000000 0.000000 
#    y 0.000000 1.833550 0.000000 
#    z 0.000000 0.000000 1.885950 
# 
# From -- ./inp_files/1177.got.cif
#   From: 2010.05.17/outbox.cif.g08.bks.cpg/sg153_1_cif.got.tgz:1177.got - 2010.05.20 10:38:56.
