data_PCOD9576327
_publ_section_title
;
Structure prediction by ZEFSAII (Michael W. Deem and Ramdas Pophale) SiO2 
 PCOD9576327
Probable space group: P 32 1 2
;
_chemical_formula_sum "Si O2"
_cell_formula_units_Z 48
_cell_length_a 15.191473
_cell_length_b 15.191473
_cell_length_c 11.867942
_cell_angle_alpha 90.000000
_cell_angle_beta 90.000000
_cell_angle_gamma 120.000000
_cell_volume 2371.951579
_symmetry_space_group_name_H-M "P 32 1 2"
_symmetry_group_IT_number 153
_symmetry_cell_setting 'hexagonal'
loop_
_space_group_symop_operation_xyz
x,y,z
-y,x-y,2/3+z
-x+y,-x,1/3+z
-y,-x,1/3-z
-x+y,y,2/3-z
x,x-y,-z
loop_
_atom_site_type_symbol
_atom_site_label
_atom_site_fract_x
_atom_site_fract_y
_atom_site_fract_z
Si Si1 0.845860 0.868620 0.796682
Si Si2 0.892757 0.593753 0.583792
Si Si3 0.788783 0.061929 0.397263
Si Si4 0.088166 0.737579 0.727948
Si Si5 0.890554 0.318858 0.664087
Si Si6 0.632440 0.449744 0.875415
Si Si7 0.797855 0.796946 0.371016
Si Si8 0.006680 0.412263 0.059692
O O1 0.841037 0.778991 0.719725
O O2 0.762408 0.819369 0.893934
O O3 0.964529 0.929057 0.833334
O O4 0.803823 0.922073 0.712575
O O5 0.838781 0.660834 0.563583
O O6 0.901265 0.548403 0.465453
O O7 0.826789 0.511873 0.677889
O O8 0.002999 0.664625 0.638896
O O9 0.806476 0.999630 0.494498
O O10 0.670431 0.008579 0.367150
O O11 0.196646 0.803355 0.666667
O O12 0.076286 0.667864 0.837943
O O13 0.788246 0.211755 0.666667
O O14 0.866951 0.382540 0.753935
O O15 0.983637 0.299333 0.687630
O O16 0.700949 0.401897 0.833334
O O17 0.631184 0.525984 0.782296
O O18 0.895744 0.791488 0.333334
O O19 0.038173 0.519087 0.000000
#
# Coordination Sequence:
#
# PCOD9576327 Si02
#       8
#     6   6   6   6   6   6   6   6
#     4  11  23  36  61  90 122 170 226 267 332 406
#     4  11  20  39  60  85 128 167 212 273 336 384
#     4  11  20  39  60  85 128 167 212 273 336 384
#     4  10  22  38  64  91 127 172 218 275 332 402
#     4  11  23  38  52  78 124 173 211 272 323 377
#     4  11  23  36  61  90 122 170 226 267 332 406
#     4  11  23  38  52  78 124 173 211 272 323 377
#     4  10  22  38  64  91 127 172 218 275 332 402
#
# _framework density 20.236501000000001
#
# number of rings (size 3 to 8) (size 9 to 14) (size 15 to 20)
#    0.000    1.250    5.000    2.250    0.000    3.000 
#    0.000    0.000    0.000    0.000    0.000    0.000 
#    0.000  206.000    0.000    0.000    0.000    0.000 
#
# Total GULP energy -267765.387005 kJ/mol
# GULP energy per Si atom -5578.445563 kJ/mol
# Density = 2.019044 g / cm^3
# Si number density = 20.236501 Si / 1000 Ang^3
#
#
#
# Elastic Constant Matrix: (Units=GPa)
#
#
# Indices 1 2 3 4 5 6 
#
# 1 66.1521 20.8414 25.2966 0.0000 -2.3676 0.0000
# 2 20.8414 66.1521 25.2966 0.0000 2.3676 0.0000
# 3 25.2966 25.2966 109.5817 0.0000 0.0000 0.0000
# 4 0.0000 0.0000 0.0000 31.6887 0.0000 2.3676
# 5 -2.3676 2.3676 0.0000 0.0000 31.6887 0.0000
# 6 0.0000 0.0000 0.0000 2.3676 0.0000 22.6553
#
#
#
# Elastic Compliance Matrix: (Units=1/GPa)
#
#
# Indices 1 2 3 4 5 6 
#
# 1 0.017761 -0.004483 -0.003065 0.000000 0.001662 0.000000
# 2 -0.004483 0.017761 -0.003065 0.000000 -0.001662 0.000000
# 3 -0.003065 -0.003065 0.010541 0.000000 0.000000 0.000000
# 4 0.000000 0.000000 0.000000 0.031805 0.000000 -0.003324
# 5 0.001662 -0.001662 0.000000 0.000000 0.031805 0.000000
# 6 0.000000 0.000000 0.000000 -0.003324 0.000000 0.044487
#
#
# Mechanical properties :
#
#
# Convention : Reuss Voigt Hill
#
# Bulk Modulus (GPa) = 40.26462 42.75057 41.50760
# Shear Modulus (GPa) = 27.22354 28.56995 27.89674
#
# Velocity S-wave (km/s) = 3.67177 3.76147 3.71689
# Velocity P-wave (km/s) = 6.15760 6.32742 6.24309
#
# Compressibility (1/GPa) = 0.02483570
#
# Stress axis : x y z
#
# Youngs Moduli (GPa) = 56.30435 56.30435 94.86987
#
# Poissons Ratio (x) = 0.25241 0.29079
# Poissons Ratio (y) = 0.25241 0.29079
# Poissons Ratio (z) = 0.17258 0.17258
#
# Static dielectric constant tensor:
#      x y z
#    x 1.775840 0.000000 0.000000 
#    y 0.000000 1.775840 0.000000 
#    z 0.000000 0.000000 1.784030 
# 
# From -- ./inp_files/2695.got.cif
#   From: 2010.05.17/outbox.cif.g08.bks.cpg/sg153_2_cif.got.tgz:2695.got - 2010.05.20 10:38:56.
