data_PCOD9576360
_publ_section_title
;
Structure prediction by ZEFSAII (Michael W. Deem and Ramdas Pophale) SiO2 
 PCOD9576360
Probable space group: P 32 1 2
;
_chemical_formula_sum "Si O2"
_cell_formula_units_Z 36
_cell_length_a 8.987255
_cell_length_b 8.987255
_cell_length_c 25.197132
_cell_angle_alpha 90.000000
_cell_angle_beta 90.000000
_cell_angle_gamma 120.000000
_cell_volume 1762.527377
_symmetry_space_group_name_H-M "P 32 1 2"
_symmetry_group_IT_number 153
_symmetry_cell_setting 'hexagonal'
loop_
_space_group_symop_operation_xyz
x,y,z
-y,x-y,2/3+z
-x+y,-x,1/3+z
-y,-x,1/3-z
-x+y,y,2/3-z
x,x-y,-z
loop_
_atom_site_type_symbol
_atom_site_label
_atom_site_fract_x
_atom_site_fract_y
_atom_site_fract_z
Si Si1 0.122401 0.524114 0.873553
Si Si2 0.600904 0.155443 0.037126
Si Si3 0.463640 0.212310 0.146300
Si Si4 0.954770 0.070999 0.778118
Si Si5 0.151067 0.390380 0.698010
Si Si6 0.743031 0.725686 0.733184
O O1 0.280297 0.560593 0.833334
O O2 0.190394 0.501729 0.930451
O O3 0.046675 0.649799 0.885941
O O4 0.949290 0.353971 0.852743
O O5 0.550643 0.172653 0.096993
O O6 0.798513 0.203713 0.040805
O O7 0.443204 0.968167 0.020702
O O8 0.590292 0.295146 0.000000
O O9 0.605356 0.394645 0.166667
O O10 0.295777 0.213871 0.126044
O O11 0.052940 0.105881 0.833334
O O12 0.045081 0.218383 0.734002
O O13 0.911571 0.889702 0.755547
O O14 0.207646 0.335365 0.645313
#
# Coordination Sequence:
#
# PCOD9576360 Si02
#       6
#     6   6   6   6   6   6
#     4  12  22  42  69  98 134 176 218 291 349 404
#     4  11  23  41  69  96 131 180 230 276 342 427
#     4  11  21  41  69  96 124 179 229 269 330 427
#     4  11  23  42  66  94 136 179 222 284 347 402
#     4  11  22  47  67  95 135 185 227 281 349 414
#     4  12  27  40  67 105 137 176 232 291 346 420
#
# _framework density 20.425217
#
# number of rings (size 3 to 8) (size 9 to 14) (size 15 to 20)
#    0.000    0.667    6.667    4.000    2.333    0.667 
#    0.000    5.000    0.000    0.000    0.000    0.000 
#    0.000    0.000    0.000    0.000    0.000    0.000 
#
# Total GULP energy -200762.705525 kJ/mol
# GULP energy per Si atom -5576.741820 kJ/mol
# Density = 2.037873 g / cm^3
# Si number density = 20.425217 Si / 1000 Ang^3
#
#
#
# Elastic Constant Matrix: (Units=GPa)
#
#
# Indices 1 2 3 4 5 6 
#
# 1 93.3853 25.5425 14.7927 0.0004 3.4170 0.0000
# 2 25.5425 93.3853 14.7927 -0.0004 -3.4170 0.0000
# 3 14.7927 14.7927 57.7317 0.0000 0.0000 0.0000
# 4 0.0004 -0.0004 0.0000 33.8532 0.0000 -3.4170
# 5 3.4170 -3.4170 0.0000 0.0000 33.8532 0.0004
# 6 0.0000 0.0000 0.0000 -3.4170 0.0004 33.9214
#
#
#
# Elastic Compliance Matrix: (Units=1/GPa)
#
#
# Indices 1 2 3 4 5 6 
#
# 1 0.011936 -0.002955 -0.002301 0.000000 -0.001503 0.000000
# 2 -0.002955 0.011936 -0.002301 0.000000 0.001503 0.000000
# 3 -0.002301 -0.002301 0.018501 0.000000 0.000000 0.000000
# 4 0.000000 0.000000 0.000000 0.029843 0.000000 0.003006
# 5 -0.001503 0.001503 0.000000 0.000000 0.029843 0.000000
# 6 0.000000 0.000000 0.000000 0.003006 0.000000 0.029783
#
#
# Mechanical properties :
#
#
# Convention : Reuss Voigt Hill
#
# Bulk Modulus (GPa) = 36.68668 39.41755 38.05212
# Shear Modulus (GPa) = 32.04259 32.95055 32.49657
#
# Velocity S-wave (km/s) = 3.96507 4.02086 3.99306
# Velocity P-wave (km/s) = 6.24203 6.39506 6.31901
#
# Compressibility (1/GPa) = 0.02725785
#
# Stress axis : x y z
#
# Youngs Moduli (GPa) = 83.77917 83.77917 54.05180
#
# Poissons Ratio (x) = 0.24759 0.12438
# Poissons Ratio (y) = 0.24759 0.12438
# Poissons Ratio (z) = 0.19279 0.19279
#
# Static dielectric constant tensor:
#      x y z
#    x 1.710300 0.000000 0.000000 
#    y 0.000000 1.710300 0.000000 
#    z 0.000000 0.000000 1.785130 
# 
# From -- ./inp_files/4699.got.cif
#   From: 2010.05.17/outbox.cif.g08.bks.cpg/sg153_3_cif.got.tgz:4699.got - 2010.05.20 10:38:56.
