data_PCOD9576228
_publ_section_title
;
Structure prediction by ZEFSAII (Michael W. Deem and Ramdas Pophale) SiO2 
 PCOD9576228
Probable space group: P 32 1 2
;
_chemical_formula_sum "Si O2"
_cell_formula_units_Z 33
_cell_length_a 7.173400
_cell_length_b 7.173400
_cell_length_c 29.941760
_cell_angle_alpha 90.000000
_cell_angle_beta 90.000000
_cell_angle_gamma 120.000000
_cell_volume 1334.314033
_symmetry_space_group_name_H-M "P 32 1 2"
_symmetry_group_IT_number 153
_symmetry_cell_setting 'hexagonal'
loop_
_space_group_symop_operation_xyz
x,y,z
-y,x-y,2/3+z
-x+y,-x,1/3+z
-y,-x,1/3-z
-x+y,y,2/3-z
x,x-y,-z
loop_
_atom_site_type_symbol
_atom_site_label
_atom_site_fract_x
_atom_site_fract_y
_atom_site_fract_z
Si Si1 0.748031 0.967743 0.303032
Si Si2 0.017922 0.553234 0.153050
Si Si3 0.013521 0.665213 0.061998
Si Si4 0.781416 0.218585 0.666667
Si Si5 0.897070 0.338236 0.756853
Si Si6 0.077858 0.899777 0.876464
O O1 0.808559 0.078504 0.352141
O O2 0.526843 0.952922 0.288673
O O3 0.710937 0.729486 0.313949
O O4 0.893367 0.044248 0.258128
O O5 0.213776 0.786225 0.166667
O O6 0.900540 0.593916 0.110769
O O7 0.110274 0.409171 0.134171
O O8 0.907032 0.436384 0.199640
O O9 0.248776 0.869689 0.073536
O O10 0.786298 0.347390 0.710931
O O11 0.798666 0.105175 0.779618
O O12 0.968411 0.936821 0.833334
#
# Coordination Sequence:
#
# PCOD9576228 Si02
#       6
#     6   6   6   3   6   6
#     4   8  14  23  39  65  90 115 149 195 233 271
#     4   9  17  29  46  67  90 119 153 191 233 281
#     4   8  13  24  42  64  86 114 156 195 225 268
#     4   8  14  24  42  68  90 116 156 196 232 276
#     4   9  16  28  46  67  89 119 157 195 229 275
#     4  10  18  28  44  68  93 118 151 192 236 278
#
# _framework density 24.731805999999999
#
# number of rings (size 3 to 8) (size 9 to 14) (size 15 to 20)
#    0.000    3.273    0.000    1.636    0.000    0.000 
#    0.000    0.909    0.000    4.364    0.000  190.909 
#    0.000    0.000    0.000    0.000    0.000    0.000 
#
# Total GULP energy -183788.824814 kJ/mol
# GULP energy per Si atom -5569.358328 kJ/mol
# Density = 2.467552 g / cm^3
# Si number density = 24.731806 Si / 1000 Ang^3
#
#
#
# Elastic Constant Matrix: (Units=GPa)
#
#
# Indices 1 2 3 4 5 6 
#
# 1 44.7792 16.9891 39.4330 -0.0001 5.6617 0.0000
# 2 16.9891 44.7792 39.4330 0.0001 -5.6617 0.0000
# 3 39.4330 39.4330 281.2686 0.0000 0.0000 0.0000
# 4 -0.0001 0.0001 0.0000 40.4255 0.0000 -5.6617
# 5 5.6617 -5.6617 0.0000 0.0000 40.4255 -0.0001
# 6 0.0000 0.0000 0.0000 -5.6617 -0.0001 13.8951
#
#
#
# Elastic Compliance Matrix: (Units=1/GPa)
#
#
# Indices 1 2 3 4 5 6 
#
# 1 0.028941 -0.009221 -0.002765 0.000000 -0.005345 0.000000
# 2 -0.009221 0.028941 -0.002765 0.000000 0.005345 0.000000
# 3 -0.002765 -0.002765 0.004330 0.000000 0.000000 0.000000
# 4 0.000000 0.000000 0.000000 0.026234 0.000000 0.010689
# 5 -0.005345 0.005345 0.000000 0.000000 0.026234 0.000000
# 6 0.000000 0.000000 0.000000 0.010689 0.000000 0.076323
#
#
# Mechanical properties :
#
#
# Convention : Reuss Voigt Hill
#
# Bulk Modulus (GPa) = 30.57091 62.50413 46.53752
# Shear Modulus (GPa) = 21.60693 37.28069 29.44381
#
# Velocity S-wave (km/s) = 2.95896 3.88673 3.45414
# Velocity P-wave (km/s) = 4.90528 6.74314 5.89626
#
# Compressibility (1/GPa) = 0.03271083
#
# Stress axis : x y z
#
# Youngs Moduli (GPa) = 34.55360 34.55360 230.92057
#
# Poissons Ratio (x) = 0.31863 0.63840
# Poissons Ratio (y) = 0.31863 0.63840
# Poissons Ratio (z) = 0.09553 0.09553
#
# Static dielectric constant tensor:
#      x y z
#    x 2.002510 0.000000 0.000000 
#    y 0.000000 2.002510 0.000000 
#    z 0.000000 0.000000 2.203560 
# 
# From -- ./inp_files/5004.got.cif
#   From: 2010.05.17/outbox.cif.g08.bks.cpg/sg153_3_cif.got.tgz:5004.got - 2010.05.20 10:38:56.
