data_PCOD9576777
_publ_section_title
;
Structure prediction by ZEFSAII (Michael W. Deem and Ramdas Pophale) SiO2 
 PCOD9576777
Probable space group: R 3 2
;
_chemical_formula_sum "Si O2"
_cell_formula_units_Z 60
_cell_length_a 19.502468
_cell_length_b 19.502468
_cell_length_c 7.486336
_cell_angle_alpha 90.000000
_cell_angle_beta 90.000000
_cell_angle_gamma 120.000000
_cell_volume 2465.920635
_symmetry_space_group_name_H-M "R 3 2"
_symmetry_group_IT_number 155
_symmetry_cell_setting 'hexagonal'
loop_
_space_group_symop_operation_xyz
x,y,z
-y,x-y,z
-x+y,-x,z
x-y,-y,-z
-x,-x+y,-z
y,x,-z
2/3+x,1/3+y,1/3+z
2/3-y,1/3+x-y,1/3+z
2/3-x+y,1/3-x,1/3+z
2/3+x-y,1/3-y,1/3-z
2/3-x,1/3-x+y,1/3-z
2/3+y,1/3+x,1/3-z
1/3+x,2/3+y,2/3+z
1/3-y,2/3+x-y,2/3+z
1/3-x+y,2/3-x,2/3+z
1/3+x-y,2/3-y,2/3-z
1/3-x,2/3-x+y,2/3-z
1/3+y,2/3+x,2/3-z
loop_
_atom_site_type_symbol
_atom_site_label
_atom_site_fract_x
_atom_site_fract_y
_atom_site_fract_z
Si Si1 0.440941 0.157348 0.519481
Si Si2 0.149930 0.154298 0.780926
Si Si3 0.883747 0.165092 0.343994
Si Si4 0.666668 0.333334 0.120123
O O1 0.483476 0.150142 0.333334
O O2 0.472010 0.245052 0.595209
O O3 0.349446 0.128001 0.480584
O O4 0.463238 0.106938 0.647896
O O5 0.160966 0.229814 0.670523
O O6 0.059088 0.089526 0.737617
O O7 0.164499 0.164499 0.000000
O O8 0.850388 0.183721 0.166667
O O9 0.666668 0.333334 0.333334
#
# Coordination Sequence:
#
# PCOD9576777 Si02
#       4
#    18  18  18   6
#     4  10  18  30  45  75 105 132 160 200 256 304
#     4  11  15  26  44  71  98 120 154 211 261 291
#     4  10  19  28  45  76 103 134 158 198 265 295
#     4   9  15  21  42  69  93 114 144 214 261 285
#
# _framework density 24.331683999999999
#
# number of rings (size 3 to 8) (size 9 to 14) (size 15 to 20)
#    0.000    1.800    9.000    0.900    0.000    0.000 
#    0.000    0.000    0.000    0.000   46.800    0.000 
#    0.000    0.000    0.000    0.000    0.000    0.000 
#
# Total GULP energy -111493.967623 kJ/mol
# GULP energy per Si atom -5574.698381 kJ/mol
# Density = 2.427630 g / cm^3
# Si number density = 24.331684 Si / 1000 Ang^3
#
#
#
# Elastic Constant Matrix: (Units=GPa)
#
#
# Indices 1 2 3 4 5 6 
#
# 1 176.8345 96.7845 29.1100 9.7712 0.0154 -0.0046
# 2 96.7845 176.8353 29.0704 -9.7635 0.0015 0.0045
# 3 29.1100 29.0704 89.5332 0.0029 0.0195 0.0067
# 4 9.7712 -9.7635 0.0029 -5.1331 0.0045 0.0046
# 5 0.0154 0.0015 0.0195 0.0045 -5.1262 9.7781
# 6 -0.0046 0.0045 0.0067 0.0046 9.7781 40.0011
#
#
#
# Elastic Compliance Matrix: (Units=1/GPa)
#
#
# Indices 1 2 3 4 5 6 
#
# 1 0.006228 -0.002302 -0.001278 0.016235 0.000018 -0.000005
# 2 -0.002302 0.006228 -0.001273 -0.016230 -0.000015 0.000005
# 3 -0.001278 -0.001273 0.011998 -0.000004 0.000026 -0.000008
# 4 0.016235 -0.016230 -0.000004 -0.133038 -0.000024 0.000025
# 5 0.000018 -0.000015 0.000026 -0.000024 -0.133042 0.032522
# 6 -0.000005 0.000005 -0.000008 0.000025 0.032522 0.017050
#
#
# Mechanical properties :
#
#
# Convention : Reuss Voigt Hill
#
# Bulk Modulus (GPa) = 67.80810 83.68145 75.74478
# Shear Modulus (GPa) = -23.81486 25.16423 0.67469
#
# Velocity S-wave (km/s) = -3.13191 3.21941 0.52715
# Velocity P-wave (km/s) = 3.85361 6.94882 5.61856
#
# Compressibility (1/GPa) = 0.01474750
#
# Stress axis : x y z
#
# Youngs Moduli (GPa) = 160.55297 160.55678 83.34772
#
# Poissons Ratio (x) = 0.36968 0.10652
# Poissons Ratio (y) = 0.36967 0.10611
# Poissons Ratio (z) = 0.20519 0.20441
#
# Static dielectric constant tensor:
#      x y z
#    x 2.082390 0.000030 -0.000020 
#    y 0.000030 2.082460 0.000000 
#    z -0.000020 0.000000 2.085870 
# 
# From -- ./inp_files/3552.got.cif
#   From: 2010.05.17/outbox.cif.g08.bks.cpg/sg155_2_cif.got.tgz:3552.got - 2010.05.20 10:44:35.
