data_PCOD9576301
_publ_section_title
;
Structure prediction by ZEFSAII (Michael W. Deem and Ramdas Pophale) SiO2 
 PCOD9576301
Probable space group: P 32 1 2
;
_chemical_formula_sum "Si O2"
_cell_formula_units_Z 30
_cell_length_a 16.647703
_cell_length_b 16.647703
_cell_length_c 6.109915
_cell_angle_alpha 90.000000
_cell_angle_beta 90.000000
_cell_angle_gamma 120.000000
_cell_volume 1466.474241
_symmetry_space_group_name_H-M "P 32 1 2"
_symmetry_group_IT_number 153
_symmetry_cell_setting 'hexagonal'
loop_
_space_group_symop_operation_xyz
x,y,z
-y,x-y,2/3+z
-x+y,-x,1/3+z
-y,-x,1/3-z
-x+y,y,2/3-z
x,x-y,-z
loop_
_atom_site_type_symbol
_atom_site_label
_atom_site_fract_x
_atom_site_fract_y
_atom_site_fract_z
Si Si1 0.676518 0.598549 0.486943
Si Si2 0.047019 0.094037 0.333334
Si Si3 0.989056 0.754314 0.522196
Si Si4 0.091856 0.467271 0.117742
Si Si5 0.816588 0.633176 0.833334
Si Si6 0.514401 0.485600 0.166667
Si Si7 0.192802 0.385604 0.333334
O O1 0.746593 0.692464 0.358574
O O2 0.609113 0.620853 0.630404
O O3 0.738679 0.576197 0.650208
O O4 0.607695 0.521452 0.312127
O O5 0.140311 0.152977 0.193733
O O6 0.066190 0.033095 0.500000
O O7 0.090812 0.768557 0.565575
O O8 0.914863 0.698191 0.713134
O O9 0.172908 0.445161 0.161622
O O10 0.037373 0.468697 0.336278
O O11 0.128981 0.564490 0.000000
#
# Coordination Sequence:
#
# PCOD9576301 Si02
#       7
#     6   3   6   6   3   3   3
#     4  11  22  40  66  92 135 176 227 301 341 413
#     4  11  26  42  58  86 138 208 248 296 333 382
#     4  11  24  40  61  94 135 186 243 288 340 402
#     4  10  22  40  66  94 130 176 239 291 346 413
#     4  12  22  40  56 104 136 177 228 299 332 420
#     4  10  20  44  64  94 124 173 220 305 350 416
#     4  11  20  44  64  92 128 196 228 276 353 404
#
# _framework density 20.457229000000002
#
# number of rings (size 3 to 8) (size 9 to 14) (size 15 to 20)
#    0.000    1.200    5.000    0.600    2.800    0.800 
#    0.000    0.000    2.200    0.000    0.000    0.000 
#    0.000  504.000    0.000    0.000    0.000    0.000 
#
# Total GULP energy -167553.034521 kJ/mol
# GULP energy per Si atom -5585.101151 kJ/mol
# Density = 2.041067 g / cm^3
# Si number density = 20.457229 Si / 1000 Ang^3
#
#
#
# Elastic Constant Matrix: (Units=GPa)
#
#
# Indices 1 2 3 4 5 6 
#
# 1 106.9716 56.9724 52.1651 -0.0001 1.1144 0.0000
# 2 56.9724 106.9716 52.1651 0.0001 -1.1144 0.0000
# 3 52.1651 52.1651 110.1946 0.0000 0.0000 0.0000
# 4 -0.0001 0.0001 0.0000 27.7768 0.0000 -1.1144
# 5 1.1144 -1.1144 0.0000 0.0000 27.7768 -0.0001
# 6 0.0000 0.0000 0.0000 -1.1144 -0.0001 24.9996
#
#
#
# Elastic Compliance Matrix: (Units=1/GPa)
#
#
# Indices 1 2 3 4 5 6 
#
# 1 0.014383 -0.005653 -0.004132 0.000000 -0.000804 0.000000
# 2 -0.005653 0.014383 -0.004132 0.000000 0.000804 0.000000
# 3 -0.004132 -0.004132 0.012987 0.000000 0.000000 0.000000
# 4 0.000000 0.000000 0.000000 0.036066 0.000000 0.001608
# 5 -0.000804 0.000804 0.000000 0.000000 0.036066 0.000000
# 6 0.000000 0.000000 0.000000 0.001608 0.000000 0.040072
#
#
# Mechanical properties :
#
#
# Convention : Reuss Voigt Hill
#
# Bulk Modulus (GPa) = 71.85713 71.86031 71.85872
# Shear Modulus (GPa) = 26.81942 26.96632 26.89287
#
# Velocity S-wave (km/s) = 3.62470 3.63461 3.62966
# Velocity P-wave (km/s) = 7.26084 7.26755 7.26419
#
# Compressibility (1/GPa) = 0.01391650
#
# Stress axis : x y z
#
# Youngs Moduli (GPa) = 69.52754 69.52754 76.99799
#
# Poissons Ratio (x) = 0.39306 0.31819
# Poissons Ratio (y) = 0.39306 0.31819
# Poissons Ratio (z) = 0.28732 0.28732
#
# Static dielectric constant tensor:
#      x y z
#    x 1.737930 0.000000 0.000000 
#    y 0.000000 1.737930 0.000000 
#    z 0.000000 0.000000 1.758050 
# 
# From -- ./inp_files/564.got.cif
#   From: 2010.05.17/outbox.cif.g08.bks.cpg/sg153_1_cif.got.tgz:564.got - 2010.05.20 10:38:56.
