data_PCOD9576261
_publ_section_title
;
Structure prediction by ZEFSAII (Michael W. Deem and Ramdas Pophale) SiO2 
 PCOD9576261
Probable space group: P 32 1 2
;
_chemical_formula_sum "Si O2"
_cell_formula_units_Z 30
_cell_length_a 8.316373
_cell_length_b 8.316373
_cell_length_c 25.022157
_cell_angle_alpha 90.000000
_cell_angle_beta 90.000000
_cell_angle_gamma 120.000000
_cell_volume 1498.729639
_symmetry_space_group_name_H-M "P 32 1 2"
_symmetry_group_IT_number 153
_symmetry_cell_setting 'hexagonal'
loop_
_space_group_symop_operation_xyz
x,y,z
-y,x-y,2/3+z
-x+y,-x,1/3+z
-y,-x,1/3-z
-x+y,y,2/3-z
x,x-y,-z
loop_
_atom_site_type_symbol
_atom_site_label
_atom_site_fract_x
_atom_site_fract_y
_atom_site_fract_z
Si Si1 0.280692 0.475071 0.079781
Si Si2 0.781413 0.852213 0.648743
Si Si3 0.683192 0.966005 0.951549
Si Si4 0.305118 0.859102 0.112224
Si Si5 0.054868 0.307095 0.185193
O O1 0.492208 0.534628 0.065005
O O2 0.283660 0.668212 0.088509
O O3 0.200072 0.372630 0.135946
O O4 0.150087 0.359639 0.031166
O O5 0.706395 0.922717 0.599987
O O6 0.837012 0.698206 0.632566
O O7 0.974619 0.025382 0.666667
O O8 0.741959 0.885578 0.901438
O O9 0.639249 0.819624 0.000000
O O10 0.188508 0.811493 0.166667
O O11 0.520642 0.970929 0.128969
O O12 0.864328 0.135673 0.166667
#
# Coordination Sequence:
#
# PCOD9576261 Si02
#       5
#     6   6   6   6   6
#     4  10  20  38  60  82 110 154 201 232 282 358
#     4  11  22  35  56  86 117 148 187 243 299 344
#     4  10  20  35  57  84 115 152 195 238 285 347
#     4   9  20  38  59  81 111 153 194 235 288 352
#     4  10  19  36  63  87 112 151 198 240 290 363
#
# _framework density 20.016953000000001
#
# number of rings (size 3 to 8) (size 9 to 14) (size 15 to 20)
#    0.000    2.000    0.000    7.200    0.000    2.400 
#    0.000    6.000    0.000    1.200    0.000    0.000 
#    0.000    0.000    0.000    0.000    0.000    0.000 
#
# Total GULP energy -167461.952485 kJ/mol
# GULP energy per Si atom -5582.065083 kJ/mol
# Density = 1.997139 g / cm^3
# Si number density = 20.016953 Si / 1000 Ang^3
#
#
#
# Elastic Constant Matrix: (Units=GPa)
#
#
# Indices 1 2 3 4 5 6 
#
# 1 72.2167 41.8028 46.0355 0.0007 -8.4081 0.0000
# 2 41.8028 72.2167 46.0355 -0.0007 8.4081 0.0000
# 3 46.0355 46.0355 136.8841 0.0000 0.0000 0.0000
# 4 0.0007 -0.0007 0.0000 31.9329 0.0000 8.4081
# 5 -8.4081 8.4081 0.0000 0.0000 31.9329 0.0007
# 6 0.0000 0.0000 0.0000 8.4081 0.0007 15.2069
#
#
#
# Elastic Compliance Matrix: (Units=1/GPa)
#
#
# Indices 1 2 3 4 5 6 
#
# 1 0.025261 -0.013221 -0.004049 -0.000001 0.010132 0.000000
# 2 -0.013221 0.025261 -0.004049 0.000001 -0.010132 0.000000
# 3 -0.004049 -0.004049 0.010029 0.000000 0.000000 0.000000
# 4 -0.000001 0.000001 0.000000 0.036652 0.000000 -0.020265
# 5 0.010132 -0.010132 0.000000 0.000000 0.036652 -0.000002
# 6 0.000000 0.000000 0.000000 -0.020265 -0.000002 0.076964
#
#
# Mechanical properties :
#
#
# Convention : Reuss Voigt Hill
#
# Bulk Modulus (GPa) = 55.82696 61.00722 58.41709
# Shear Modulus (GPa) = 19.27316 25.64413 22.45865
#
# Velocity S-wave (km/s) = 3.10634 3.58316 3.35323
# Velocity P-wave (km/s) = 6.38875 6.90381 6.65127
#
# Compressibility (1/GPa) = 0.01791249
#
# Stress axis : x y z
#
# Youngs Moduli (GPa) = 39.58651 39.58651 99.71040
#
# Poissons Ratio (x) = 0.52337 0.40375
# Poissons Ratio (y) = 0.52337 0.40375
# Poissons Ratio (z) = 0.16030 0.16030
#
# Static dielectric constant tensor:
#      x y z
#    x 1.730840 0.000000 0.000000 
#    y 0.000000 1.730840 0.000000 
#    z 0.000000 0.000000 1.720360 
# 
# From -- ./inp_files/4210.got.cif
#   From: 2010.05.17/outbox.cif.g08.bks.cpg/sg153_3_cif.got.tgz:4210.got - 2010.05.20 10:38:56.
