data_PCOD9576065
_publ_section_title
;
Structure prediction by ZEFSAII (Michael W. Deem and Ramdas Pophale) SiO2 
 PCOD9576065
Probable space group: P 31 2 1
;
_chemical_formula_sum "Si O2"
_cell_formula_units_Z 42
_cell_length_a 21.542537
_cell_length_b 21.542537
_cell_length_c 5.352675
_cell_angle_alpha 90.000000
_cell_angle_beta 90.000000
_cell_angle_gamma 120.000000
_cell_volume 2151.271391
_symmetry_space_group_name_H-M "P 31 2 1"
_symmetry_group_IT_number 152
_symmetry_cell_setting 'hexagonal'
loop_
_space_group_symop_operation_xyz
x,y,z
-y,x-y,1/3+z
-x+y,-x,2/3+z
x-y,-y,2/3-z
-x,-x+y,1/3-z
y,x,-z
loop_
_atom_site_type_symbol
_atom_site_label
_atom_site_fract_x
_atom_site_fract_y
_atom_site_fract_z
Si Si1 0.501529 0.383614 0.521263
Si Si2 0.719224 0.675917 0.741918
Si Si3 0.070755 0.478102 0.830594
Si Si4 0.375675 0.205925 0.029460
Si Si5 0.196177 0.584233 0.511957
Si Si6 0.282153 0.538071 0.154151
Si Si7 0.079156 0.731946 0.132297
O O1 0.542877 0.460977 0.644092
O O2 0.531453 0.394005 0.242583
O O3 0.525767 0.330040 0.641186
O O4 0.418415 0.344960 0.571416
O O5 0.719198 0.719198 0.500000
O O6 0.652419 0.595143 0.715179
O O7 0.787352 0.665791 0.743666
O O8 0.706779 0.706779 0.000000
O O9 0.146380 0.514700 0.679022
O O10 0.000000 0.455015 0.666667
O O11 0.460833 0.236719 0.980496
O O12 0.345715 0.223880 0.778552
O O13 0.363789 0.240353 0.277737
O O14 0.231120 0.561932 0.290313
O O15 0.255236 0.656475 0.646457
O O16 0.000000 0.719550 0.166667
#
# Coordination Sequence:
#
# PCOD9576065 Si02
#       7
#     6   6   6   6   6   6   6
#     4  10  23  37  55  82 115 153 203 273 328 379
#     4  11  25  42  65  95 124 167 212 256 320 385
#     4  10  25  36  60  87 115 153 211 269 334 386
#     4  11  23  44  66  92 130 166 206 266 317 381
#     4  11  23  42  57  84 110 161 214 278 335 395
#     4  10  24  39  60  79 116 160 216 273 344 383
#     4  11  24  40  68  94 126 166 211 254 319 383
#
# _framework density 19.523339
#
# number of rings (size 3 to 8) (size 9 to 14) (size 15 to 20)
#    0.000    1.429    1.429    2.143   14.000    3.429 
#    0.000    1.429    0.000    0.000    0.000    0.000 
#    0.000    0.000    0.000   54.000    0.000    0.000 
#
# Total GULP energy -234785.951683 kJ/mol
# GULP energy per Si atom -5590.141707 kJ/mol
# Density = 1.947890 g / cm^3
# Si number density = 19.523339 Si / 1000 Ang^3
#
#
#
# Elastic Constant Matrix: (Units=GPa)
#
#
# Indices 1 2 3 4 5 6 
#
# 1 81.1817 39.9899 39.0792 -1.3229 -0.0001 0.0000
# 2 39.9899 81.1817 39.0792 1.3229 0.0001 0.0000
# 3 39.0792 39.0792 96.2009 0.0000 0.0000 0.0000
# 4 -1.3229 1.3229 0.0000 26.5990 0.0000 0.0001
# 5 -0.0001 0.0001 0.0000 0.0000 26.5990 -1.3229
# 6 0.0000 0.0000 0.0000 0.0001 -1.3229 20.5959
#
#
#
# Elastic Compliance Matrix: (Units=1/GPa)
#
#
# Indices 1 2 3 4 5 6 
#
# 1 0.017769 -0.006586 -0.004543 0.001211 0.000000 0.000000
# 2 -0.006586 0.017769 -0.004543 -0.001211 0.000000 0.000000
# 3 -0.004543 -0.004543 0.014086 0.000000 0.000000 0.000000
# 4 0.001211 -0.001211 0.000000 0.037716 0.000000 0.000000
# 5 0.000000 0.000000 0.000000 0.000000 0.037716 0.002423
# 6 0.000000 0.000000 0.000000 0.000000 0.002423 0.048709
#
#
# Mechanical properties :
#
#
# Convention : Reuss Voigt Hill
#
# Bulk Modulus (GPa) = 54.70326 54.98455 54.84391
# Shear Modulus (GPa) = 23.67424 24.11985 23.89704
#
# Velocity S-wave (km/s) = 3.48604 3.51869 3.50240
# Velocity P-wave (km/s) = 6.65459 6.68826 6.67145
#
# Compressibility (1/GPa) = 0.01828044
#
# Stress axis : x y z
#
# Youngs Moduli (GPa) = 56.27862 56.27862 70.99385
#
# Poissons Ratio (x) = 0.37064 0.32251
# Poissons Ratio (y) = 0.37064 0.32251
# Poissons Ratio (z) = 0.25566 0.25566
#
# Static dielectric constant tensor:
#      x y z
#    x 1.698160 0.000000 0.000000 
#    y 0.000000 1.698160 0.000000 
#    z 0.000000 0.000000 1.787340 
# 
# From -- ./inp_files/517.got.cif
#   From: 2010.05.17/outbox.cif.g08.bks.cpg/sg152_1_cif.got.tgz:517.got - 2010.05.20 10:36:06.
