data_PCOD9576008
_publ_section_title
;
Structure prediction by ZEFSAII (Michael W. Deem and Ramdas Pophale) SiO2 
 PCOD9576008
Probable space group: P 31 2 1
;
_chemical_formula_sum "Si O2"
_cell_formula_units_Z 36
_cell_length_a 8.490571
_cell_length_b 8.490571
_cell_length_c 27.959211
_cell_angle_alpha 90.000000
_cell_angle_beta 90.000000
_cell_angle_gamma 120.000000
_cell_volume 1745.538127
_symmetry_space_group_name_H-M "P 31 2 1"
_symmetry_group_IT_number 152
_symmetry_cell_setting 'hexagonal'
loop_
_space_group_symop_operation_xyz
x,y,z
-y,x-y,1/3+z
-x+y,-x,2/3+z
x-y,-y,2/3-z
-x,-x+y,1/3-z
y,x,-z
loop_
_atom_site_type_symbol
_atom_site_label
_atom_site_fract_x
_atom_site_fract_y
_atom_site_fract_z
Si Si1 0.749112 0.123948 0.879332
Si Si2 0.380459 0.483158 0.048453
Si Si3 0.559494 0.899343 0.610160
Si Si4 0.520505 0.784546 0.126126
Si Si5 0.348681 0.149749 0.099769
Si Si6 0.530972 0.525155 0.628983
O O1 0.757274 0.316849 0.868170
O O2 0.942262 0.189406 0.904354
O O3 0.715709 0.000000 0.833334
O O4 0.586129 0.010020 0.915860
O O5 0.498158 0.629653 0.089059
O O6 0.302517 0.290088 0.075043
O O7 0.208896 0.505504 0.034811
O O8 0.481940 0.481940 0.000000
O O9 0.353149 0.824779 0.593085
O O10 0.589321 0.734341 0.623769
O O11 0.675989 0.025455 0.566698
O O12 0.583961 0.022789 0.656390
O O13 0.600798 0.786403 0.177663
#
# Coordination Sequence:
#
# PCOD9576008 Si02
#       6
#     6   6   6   6   6   6
#     4  10  22  40  62  90 124 165 213 263 322 390
#     4  11  22  39  64  92 130 170 210 272 329 387
#     4  11  22  41  64  92 124 169 217 266 320 395
#     4  10  23  41  62  94 122 171 216 260 330 397
#     4  11  22  40  65  90 131 164 212 267 327 389
#     4  11  23  40  64  91 126 168 218 265 328 386
#
# _framework density 20.624012
#
# number of rings (size 3 to 8) (size 9 to 14) (size 15 to 20)
#    0.000    1.333    1.667    6.000    0.000    2.667 
#    0.000    1.667    0.000    0.000    0.000    0.000 
#    0.000    0.000    0.000    0.000    0.000    0.000 
#
# Total GULP energy -201225.245414 kJ/mol
# GULP energy per Si atom -5589.590150 kJ/mol
# Density = 2.057707 g / cm^3
# Si number density = 20.624012 Si / 1000 Ang^3
#
#
#
# Elastic Constant Matrix: (Units=GPa)
#
#
# Indices 1 2 3 4 5 6 
#
# 1 32.9842 -0.2184 3.8983 -6.7138 0.0000 0.0000
# 2 -0.2184 32.9842 3.8983 6.7138 0.0000 0.0000
# 3 3.8983 3.8983 79.6200 0.0000 0.0000 0.0000
# 4 -6.7138 6.7138 0.0000 31.9586 0.0000 0.0000
# 5 0.0000 0.0000 0.0000 0.0000 31.9586 -6.7138
# 6 0.0000 0.0000 0.0000 0.0000 -6.7138 16.6013
#
#
#
# Elastic Compliance Matrix: (Units=1/GPa)
#
#
# Indices 1 2 3 4 5 6 
#
# 1 0.031897 -0.001018 -0.001512 0.006915 0.000000 0.000000
# 2 -0.001018 0.031897 -0.001512 -0.006915 0.000000 0.000000
# 3 -0.001512 -0.001512 0.012708 0.000000 0.000000 0.000000
# 4 0.006915 -0.006915 0.000000 0.034196 0.000000 0.000000
# 5 0.000000 0.000000 0.000000 0.000000 0.034196 0.013829
# 6 0.000000 0.000000 0.000000 0.000000 0.013829 0.065829
#
#
# Mechanical properties :
#
#
# Convention : Reuss Voigt Hill
#
# Bulk Modulus (GPa) = 14.61584 17.86053 16.23818
# Shear Modulus (GPa) = 20.69444 25.30440 22.99942
#
# Velocity S-wave (km/s) = 3.17111 3.50657 3.34305
# Velocity P-wave (km/s) = 4.52881 5.00735 4.77408
#
# Compressibility (1/GPa) = 0.06841894
#
# Stress axis : x y z
#
# Youngs Moduli (GPa) = 31.35097 31.35097 78.69238
#
# Poissons Ratio (x) = 0.03190 0.11898
# Poissons Ratio (y) = 0.03190 0.11898
# Poissons Ratio (z) = 0.04740 0.04740
#
# Static dielectric constant tensor:
#      x y z
#    x 1.728140 0.000000 0.000000 
#    y 0.000000 1.728140 0.000000 
#    z 0.000000 0.000000 1.729430 
# 
# From -- ./inp_files/3367.got.cif
#   From: 2010.05.17/outbox.cif.g08.bks.cpg/sg152_2_cif.got.tgz:3367.got - 2010.05.20 10:36:06.
