data_PCOD9576760
_publ_section_title
;
Structure prediction by ZEFSAII (Michael W. Deem and Ramdas Pophale) SiO2 
 PCOD9576760
Probable space group: R 3 2
;
_chemical_formula_sum "Si O2"
_cell_formula_units_Z 135
_cell_length_a 17.740547
_cell_length_b 17.740547
_cell_length_c 27.200114
_cell_angle_alpha 90.000000
_cell_angle_beta 90.000000
_cell_angle_gamma 120.000000
_cell_volume 7413.706159
_symmetry_space_group_name_H-M "R 3 2"
_symmetry_group_IT_number 155
_symmetry_cell_setting 'hexagonal'
loop_
_space_group_symop_operation_xyz
x,y,z
-y,x-y,z
-x+y,-x,z
x-y,-y,-z
-x,-x+y,-z
y,x,-z
2/3+x,1/3+y,1/3+z
2/3-y,1/3+x-y,1/3+z
2/3-x+y,1/3-x,1/3+z
2/3+x-y,1/3-y,1/3-z
2/3-x,1/3-x+y,1/3-z
2/3+y,1/3+x,1/3-z
1/3+x,2/3+y,2/3+z
1/3-y,2/3+x-y,2/3+z
1/3-x+y,2/3-x,2/3+z
1/3+x-y,2/3-y,2/3-z
1/3-x,2/3-x+y,2/3-z
1/3+y,2/3+x,2/3-z
loop_
_atom_site_type_symbol
_atom_site_label
_atom_site_fract_x
_atom_site_fract_y
_atom_site_fract_z
Si Si1 0.075529 0.362028 0.461406
Si Si2 0.152593 0.960621 0.404731
Si Si3 0.342376 0.290856 0.898740
Si Si4 0.702158 0.035491 0.666667
Si Si5 0.340845 0.509373 0.946157
Si Si6 0.305252 0.513135 0.111484
Si Si7 0.142295 0.729608 0.483303
Si Si8 0.515427 0.674807 0.963047
O O1 0.046227 0.265699 0.441011
O O2 0.172466 0.395795 0.483509
O O3 0.095960 0.425922 0.413940
O O4 0.000000 0.349308 0.500000
O O5 0.057171 0.876359 0.411156
O O6 0.131435 0.035419 0.420813
O O7 0.194015 0.980192 0.350722
O O8 0.337110 0.299359 0.956337
O O9 0.409100 0.257754 0.885868
O O10 0.253862 0.226776 0.870607
O O11 0.386773 0.388184 0.875766
O O12 0.712655 0.121734 0.640672
O O13 0.339661 0.496368 0.887417
O O14 0.412353 0.609152 0.954129
O O15 0.244014 0.474507 0.964515
O O16 0.333334 0.549293 0.166667
#
# Coordination Sequence:
#
# PCOD9576760 Si02
#       8
#    18  18  18   9  18  18  18  18
#     4  11  22  37  53  78 111 151 195 234 292 351
#     4  12  22  33  51  78 118 156 193 233 284 336
#     4  10  16  31  49  76  99 135 183 218 277 323
#     4  10  20  32  56  84 110 140 178 238 282 346
#     4  10  22  37  57  81 110 144 193 230 286 338
#     4  12  21  32  50  77 116 151 197 224 265 333
#     4   9  18  33  54  71 102 143 180 228 273 332
#     4  11  23  38  57  82 111 154 189 246 290 343
#
# _framework density 18.209516000000001
#
# number of rings (size 3 to 8) (size 9 to 14) (size 15 to 20)
#    0.000    1.333    2.667    5.333    3.733    0.000 
#    4.800    0.000    0.000    0.000    0.000    0.000 
#    0.000    0.000    0.000    0.000    0.000    0.000 
#
# Total GULP energy -250824.127346 kJ/mol
# GULP energy per Si atom -5573.869497 kJ/mol
# Density = 1.816807 g / cm^3
# Si number density = 18.209516 Si / 1000 Ang^3
#
#
#
# Elastic Constant Matrix: (Units=GPa)
#
#
# Indices 1 2 3 4 5 6 
#
# 1 32.1464 15.0345 13.3369 -1.6939 -0.0003 0.0000
# 2 15.0345 32.1464 13.3369 1.6939 0.0003 0.0000
# 3 13.3369 13.3369 105.2380 0.0000 0.0000 0.0000
# 4 -1.6939 1.6939 0.0000 23.7028 0.0000 0.0003
# 5 -0.0003 0.0003 0.0000 0.0000 23.7028 -1.6939
# 6 0.0000 0.0000 0.0000 0.0003 -1.6939 8.5559
#
#
#
# Elastic Compliance Matrix: (Units=1/GPa)
#
#
# Indices 1 2 3 4 5 6 
#
# 1 0.041054 -0.018224 -0.002893 0.004236 0.000001 0.000000
# 2 -0.018224 0.041054 -0.002893 -0.004236 -0.000001 0.000000
# 3 -0.002893 -0.002893 0.010236 0.000000 0.000000 0.000000
# 4 0.004236 -0.004236 0.000000 0.042795 0.000000 -0.000002
# 5 0.000001 -0.000001 0.000000 0.000000 0.042795 0.008472
# 6 0.000000 0.000000 0.000000 -0.000002 0.008472 0.118556
#
#
# Mechanical properties :
#
#
# Convention : Reuss Voigt Hill
#
# Bulk Modulus (GPa) = 22.56127 28.10527 25.33327
# Shear Modulus (GPa) = 13.91655 19.71378 16.81516
#
# Velocity S-wave (km/s) = 2.76750 3.29387 3.04209
# Velocity P-wave (km/s) = 4.75697 5.47120 5.12654
#
# Compressibility (1/GPa) = 0.04432374
#
# Stress axis : x y z
#
# Youngs Moduli (GPa) = 24.35797 24.35797 97.69790
#
# Poissons Ratio (x) = 0.44389 0.28268
# Poissons Ratio (y) = 0.44389 0.28268
# Poissons Ratio (z) = 0.07048 0.07048
#
# Static dielectric constant tensor:
#      x y z
#    x 1.640800 0.000000 0.000000 
#    y 0.000000 1.640800 0.000000 
#    z 0.000000 0.000000 1.694020 
# 
# From -- ./inp_files/8563.got.cif
#   From: 2010.05.17/outbox.cif.g08.bks.cpg/sg155_5_cif.got.tgz:8563.got - 2010.05.20 10:44:35.
