data_PCOD9576435
_publ_section_title
;
Structure prediction by ZEFSAII (Michael W. Deem and Ramdas Pophale) SiO2 
 PCOD9576435
Probable space group: P 32 2 1
;
_chemical_formula_sum "Si O2"
_cell_formula_units_Z 36
_cell_length_a 9.323143
_cell_length_b 9.323143
_cell_length_c 23.644632
_cell_angle_alpha 90.000000
_cell_angle_beta 90.000000
_cell_angle_gamma 120.000000
_cell_volume 1779.868356
_symmetry_space_group_name_H-M "P 32 2 1"
_symmetry_group_IT_number 154
_symmetry_cell_setting 'hexagonal'
loop_
_space_group_symop_operation_xyz
x,y,z
-y,x-y,2/3+z
-x+y,-x,1/3+z
x-y,-y,1/3-z
-x,-x+y,2/3-z
y,x,-z
loop_
_atom_site_type_symbol
_atom_site_label
_atom_site_fract_x
_atom_site_fract_y
_atom_site_fract_z
Si Si1 0.787007 0.337612 0.765934
Si Si2 0.677715 0.213899 0.892447
Si Si3 0.984893 0.161626 0.399913
Si Si4 0.193795 0.000112 0.098216
Si Si5 0.481221 0.358813 0.727346
Si Si6 0.445423 0.332607 0.595150
O O1 0.706404 0.260342 0.826539
O O2 0.847711 0.212983 0.743260
O O3 0.655714 0.365800 0.732039
O O4 0.959066 0.513086 0.769332
O O5 0.713043 0.384240 0.920619
O O6 0.832944 0.197559 0.915939
O O7 0.526040 0.034438 0.907333
O O8 0.158280 0.296565 0.425428
O O9 0.000000 0.200310 0.333334
O O10 0.819191 0.161388 0.419816
O O11 0.952355 0.977118 0.408820
O O12 0.189034 0.000000 0.166667
O O13 0.434447 0.361252 0.661950
#
# Coordination Sequence:
#
# PCOD9576435 Si02
#       6
#     6   6   6   6   6   6
#     4  10  20  35  56  81 107 145 192 235 283 346
#     4   9  19  35  54  78 110 145 182 228 283 344
#     4   9  19  34  52  76 107 141 178 228 283 333
#     4   8  16  33  54  73 101 140 177 217 271 334
#     4  10  20  36  56  79 112 149 183 233 294 346
#     4  10  19  35  57  81 108 146 193 235 282 347
#
# _framework density 20.226216999999998
#
# number of rings (size 3 to 8) (size 9 to 14) (size 15 to 20)
#    0.000    2.667    0.000    2.500    0.000    4.000 
#    0.000    7.500    0.000    0.000    0.000    0.000 
#    0.000    0.000    0.000    0.000    0.000    0.000 
#
# Total GULP energy -200417.968975 kJ/mol
# GULP energy per Si atom -5567.165805 kJ/mol
# Density = 2.018018 g / cm^3
# Si number density = 20.226217 Si / 1000 Ang^3
#
#
#
# Elastic Constant Matrix: (Units=GPa)
#
#
# Indices 1 2 3 4 5 6 
#
# 1 109.8968 28.0296 0.9592 -6.2793 -0.0035 0.0000
# 2 28.0296 109.8968 0.9592 6.2793 0.0035 0.0000
# 3 0.9592 0.9592 25.4640 0.0000 0.0000 0.0000
# 4 -6.2793 6.2793 0.0000 31.7011 0.0000 0.0035
# 5 -0.0035 0.0035 0.0000 0.0000 31.7011 -6.2793
# 6 0.0000 0.0000 0.0000 0.0035 -6.2793 40.9336
#
#
#
# Elastic Compliance Matrix: (Units=1/GPa)
#
#
# Indices 1 2 3 4 5 6 
#
# 1 0.009926 -0.002672 -0.000273 0.002495 0.000001 0.000000
# 2 -0.002672 0.009926 -0.000273 -0.002495 -0.000001 0.000000
# 3 -0.000273 -0.000273 0.039292 0.000000 0.000000 0.000000
# 4 0.002495 -0.002495 0.000000 0.032533 0.000000 -0.000003
# 5 0.000001 -0.000001 0.000000 0.000000 0.032533 0.004991
# 6 0.000000 0.000000 0.000000 -0.000003 0.004991 0.025195
#
#
# Mechanical properties :
#
#
# Convention : Reuss Voigt Hill
#
# Bulk Modulus (GPa) = 18.97289 33.90597 26.43943
# Shear Modulus (GPa) = 28.83326 35.22112 32.02719
#
# Velocity S-wave (km/s) = 3.77973 4.17749 3.98357
# Velocity P-wave (km/s) = 5.33378 6.32995 5.85310
#
# Compressibility (1/GPa) = 0.05270677
#
# Stress axis : x y z
#
# Youngs Moduli (GPa) = 100.74681 100.74681 25.45064
#
# Poissons Ratio (x) = 0.26918 0.00695
# Poissons Ratio (y) = 0.26918 0.00695
# Poissons Ratio (z) = 0.02753 0.02753
#
# Static dielectric constant tensor:
#      x y z
#    x 1.757220 0.000000 0.000000 
#    y 0.000000 1.757220 0.000000 
#    z 0.000000 0.000000 1.732480 
# 
# From -- ./inp_files/3469.got.cif
#   From: 2010.05.17/outbox.cif.g08.bks.cpg/sg154_2_cif.got.tgz:3469.got - 2010.05.20 10:41:43.
