data_PCOD9576980
_publ_section_title
;
Structure prediction by ZEFSAII (Michael W. Deem and Ramdas Pophale) SiO2 
 PCOD9576980
Probable space group: R 3 2
;
_chemical_formula_sum "Si O2"
_cell_formula_units_Z 108
_cell_length_a 23.736566
_cell_length_b 23.736566
_cell_length_c 11.870808
_cell_angle_alpha 90.000000
_cell_angle_beta 90.000000
_cell_angle_gamma 120.000000
_cell_volume 5792.241899
_symmetry_space_group_name_H-M "R 3 2"
_symmetry_group_IT_number 155
_symmetry_cell_setting 'hexagonal'
loop_
_space_group_symop_operation_xyz
x,y,z
-y,x-y,z
-x+y,-x,z
x-y,-y,-z
-x,-x+y,-z
y,x,-z
2/3+x,1/3+y,1/3+z
2/3-y,1/3+x-y,1/3+z
2/3-x+y,1/3-x,1/3+z
2/3+x-y,1/3-y,1/3-z
2/3-x,1/3-x+y,1/3-z
2/3+y,1/3+x,1/3-z
1/3+x,2/3+y,2/3+z
1/3-y,2/3+x-y,2/3+z
1/3-x+y,2/3-x,2/3+z
1/3+x-y,2/3-y,2/3-z
1/3-x,2/3-x+y,2/3-z
1/3+y,2/3+x,2/3-z
loop_
_atom_site_type_symbol
_atom_site_label
_atom_site_fract_x
_atom_site_fract_y
_atom_site_fract_z
Si Si1 0.874125 0.993919 0.198360
Si Si2 0.666667 0.122775 0.333334
Si Si3 0.993271 0.119671 0.131626
Si Si4 0.439537 0.439537 0.000000
Si Si5 0.880842 0.271775 0.258369
Si Si6 0.885845 0.534944 0.703778
Si Si7 0.324529 0.188967 0.922925
O O1 0.837761 0.014179 0.104805
O O2 0.854068 0.919335 0.179691
O O3 0.948359 0.048710 0.183487
O O4 0.850522 0.002499 0.318078
O O5 0.605692 0.056328 0.292687
O O6 0.961692 0.166596 0.133969
O O7 0.000000 0.110366 0.000000
O O8 0.430238 0.367933 0.013790
O O9 0.474106 0.474066 0.880754
O O10 0.913711 0.247044 0.166667
O O11 0.930934 0.333334 0.333334
O O12 0.841353 0.213687 0.348642
O O13 0.878259 0.544926 0.833334
O O14 0.939621 0.513786 0.690764
#
# Coordination Sequence:
#
# PCOD9576980 Si02
#       7
#    18   9  18   9  18  18  18
#     4  12  21  38  60  94 124 157 200 256 317 371
#     4  12  19  32  64  94 124 162 193 246 318 370
#     4  11  21  36  61  93 122 152 197 261 315 367
#     4  10  21  38  60  94 132 162 205 240 314 390
#     4  11  24  43  61  89 120 162 217 269 312 368
#     4  10  23  39  58  90 130 166 200 245 303 390
#     4  11  22  38  62  92 126 168 201 253 315 381
#
# _framework density 18.645630000000001
#
# number of rings (size 3 to 8) (size 9 to 14) (size 15 to 20)
#    0.000    1.000    5.000    2.833    0.000    0.000 
#    1.500    0.833    0.000    0.000    0.000    0.000 
#    0.000    0.000    0.000    0.000    0.000    0.000 
#
# Total GULP energy -200724.613187 kJ/mol
# GULP energy per Si atom -5575.683700 kJ/mol
# Density = 1.860319 g / cm^3
# Si number density = 18.645630 Si / 1000 Ang^3
#
#
#
# Elastic Constant Matrix: (Units=GPa)
#
#
# Indices 1 2 3 4 5 6 
#
# 1 125.9027 10.9165 36.5685 57.2836 0.0027 0.0002
# 2 10.9165 125.9024 36.5682 -57.2836 -0.0026 -0.0001
# 3 36.5685 36.5682 30.6262 -0.0002 0.0000 0.0003
# 4 57.2836 -57.2836 -0.0002 81.3156 -0.0005 -0.0029
# 5 0.0027 -0.0026 0.0000 -0.0005 81.3154 57.2837
# 6 0.0002 -0.0001 0.0003 -0.0029 57.2837 57.4929
#
#
#
# Elastic Compliance Matrix: (Units=1/GPa)
#
#
# Indices 1 2 3 4 5 6 
#
# 1 0.024690 -0.004484 -0.024126 -0.020552 -0.000001 0.000000
# 2 -0.004484 0.024689 -0.024125 0.020551 0.000001 0.000001
# 3 -0.024126 -0.024125 0.090264 0.000001 0.000001 -0.000002
# 4 -0.020552 0.020551 0.000001 0.041253 0.000000 0.000002
# 5 -0.000001 0.000001 0.000001 0.000000 0.041254 -0.041104
# 6 0.000000 0.000001 -0.000002 0.000002 -0.041104 0.058348
#
#
# Mechanical properties :
#
#
# Convention : Reuss Voigt Hill
#
# Bulk Modulus (GPa) = 29.26289 50.05973 39.66131
# Shear Modulus (GPa) = 12.58312 57.24999 34.91656
#
# Velocity S-wave (km/s) = 2.60062 5.54715 4.33210
# Velocity P-wave (km/s) = 4.97453 8.24222 6.80735
#
# Compressibility (1/GPa) = 0.03417297
#
# Stress axis : x y z
#
# Youngs Moduli (GPa) = 40.50295 40.50409 11.07861
#
# Poissons Ratio (x) = 0.18162 0.26728
# Poissons Ratio (y) = 0.18162 0.26727
# Poissons Ratio (z) = 0.97718 0.97715
#
# Static dielectric constant tensor:
#      x y z
#    x 1.660680 0.000000 0.000000 
#    y 0.000000 1.660680 0.000000 
#    z 0.000000 0.000000 1.657740 
# 
# From -- ./inp_files/4116.got.cif
#   From: 2010.05.17/outbox.cif.g08.bks.cpg/sg155_3_cif.got.tgz:4116.got - 2010.05.20 10:44:35.
