data_PCOD9576812
_publ_section_title
;
Structure prediction by ZEFSAII (Michael W. Deem and Ramdas Pophale) SiO2 
 PCOD9576812
Probable space group: R 3 2
;
_chemical_formula_sum "Si O2"
_cell_formula_units_Z 123
_cell_length_a 19.240289
_cell_length_b 19.240289
_cell_length_c 19.011819
_cell_angle_alpha 90.000000
_cell_angle_beta 90.000000
_cell_angle_gamma 120.000000
_cell_volume 6095.052979
_symmetry_space_group_name_H-M "R 3 2"
_symmetry_group_IT_number 155
_symmetry_cell_setting 'hexagonal'
loop_
_space_group_symop_operation_xyz
x,y,z
-y,x-y,z
-x+y,-x,z
x-y,-y,-z
-x,-x+y,-z
y,x,-z
2/3+x,1/3+y,1/3+z
2/3-y,1/3+x-y,1/3+z
2/3-x+y,1/3-x,1/3+z
2/3+x-y,1/3-y,1/3-z
2/3-x,1/3-x+y,1/3-z
2/3+y,1/3+x,1/3-z
1/3+x,2/3+y,2/3+z
1/3-y,2/3+x-y,2/3+z
1/3-x+y,2/3-x,2/3+z
1/3+x-y,2/3-y,2/3-z
1/3-x,2/3-x+y,2/3-z
1/3+y,2/3+x,2/3-z
loop_
_atom_site_type_symbol
_atom_site_label
_atom_site_fract_x
_atom_site_fract_y
_atom_site_fract_z
Si Si1 0.064562 0.792477 0.937951
Si Si2 0.666668 0.333334 0.748002
Si Si3 0.718636 0.666667 0.666667
Si Si4 0.668688 0.117171 0.122940
Si Si5 0.527241 0.359236 0.680493
Si Si6 0.675108 0.801772 0.633741
Si Si7 0.258367 0.395449 0.218409
Si Si8 0.425258 0.990468 0.150457
O O1 0.090100 0.730186 0.907872
O O2 0.026886 0.811109 0.870034
O O3 0.144019 0.861940 0.975548
O O4 0.000000 0.751680 0.000000
O O5 0.666668 0.333334 0.833334
O O6 0.596691 0.349409 0.717722
O O7 0.705834 0.741234 0.652580
O O8 0.771552 0.688950 0.737324
O O9 0.584492 0.034004 0.118311
O O10 0.679057 0.186774 0.070176
O O11 0.532325 0.443806 0.698979
O O12 0.439741 0.292181 0.708840
O O13 0.636335 0.775538 0.555899
O O14 0.333334 0.429579 0.166667
O O15 0.192040 0.416487 0.191668
O O16 0.333334 0.961618 0.166667
#
# Coordination Sequence:
#
# PCOD9576812 Si02
#       8
#    18   6   9  18  18  18  18  18
#     4  10  18  36  62  91 128 149 199 256 326 372
#     4  12  30  42  63  90 127 179 214 243 312 399
#     4  10  24  40  60  84 124 170 214 252 296 382
#     4  10  21  35  58  95 120 157 198 256 321 364
#     4  11  25  40  60  89 125 164 206 258 307 378
#     4  10  21  41  61  88 124 162 205 262 305 369
#     4  12  20  34  63  88 122 159 202 257 311 371
#     4  10  23  38  55  84 121 160 206 248 298 366
#
# _framework density 20.180299000000002
#
# number of rings (size 3 to 8) (size 9 to 14) (size 15 to 20)
#    0.000    1.463    2.927    3.512    6.146    0.000 
#   15.805    0.000    0.000    0.000    0.000    0.000 
#    0.732    0.000    0.000    0.000    0.000    0.000 
#
# Total GULP energy -228419.925298 kJ/mol
# GULP energy per Si atom -5571.217690 kJ/mol
# Density = 2.013437 g / cm^3
# Si number density = 20.180299 Si / 1000 Ang^3
#
#
#
# Elastic Constant Matrix: (Units=GPa)
#
#
# Indices 1 2 3 4 5 6 
#
# 1 15.3098 8.9637 40.3879 -3.2832 -0.0002 0.0000
# 2 8.9637 15.3096 40.3877 3.2831 0.0002 0.0000
# 3 40.3879 40.3877 209.8414 0.0000 0.0000 0.0000
# 4 -3.2832 3.2831 0.0000 30.7860 0.0000 0.0002
# 5 -0.0002 0.0002 0.0000 0.0000 30.7859 -3.2832
# 6 0.0000 0.0000 0.0000 0.0002 -3.2832 3.1730
#
#
#
# Elastic Compliance Matrix: (Units=1/GPa)
#
#
# Indices 1 2 3 4 5 6 
#
# 1 0.145858 -0.031268 -0.022055 0.018890 0.000001 0.000000
# 2 -0.031268 0.145860 -0.022055 -0.018890 -0.000001 -0.000001
# 3 -0.022055 -0.022055 0.013255 0.000000 0.000000 0.000000
# 4 0.018890 -0.018890 0.000000 0.036511 0.000000 -0.000002
# 5 0.000001 -0.000001 0.000000 0.000000 0.036512 0.037780
# 6 0.000000 -0.000001 0.000000 -0.000002 0.037780 0.354253
#
#
# Mechanical properties :
#
#
# Convention : Reuss Voigt Hill
#
# Bulk Modulus (GPa) = 6.48437 46.65995 26.57216
# Shear Modulus (GPa) = 5.35097 22.99707 14.17402
#
# Velocity S-wave (km/s) = 1.63013 3.37943 2.65310
# Velocity P-wave (km/s) = 2.60064 6.19670 4.75197
#
# Compressibility (1/GPa) = 0.15421698
#
# Stress axis : x y z
#
# Youngs Moduli (GPa) = 6.85596 6.85591 75.44130
#
# Poissons Ratio (x) = 0.21437 1.66387
# Poissons Ratio (y) = 0.21437 1.66387
# Poissons Ratio (z) = 0.15121 0.15121
#
# Static dielectric constant tensor:
#      x y z
#    x 1.758840 0.000000 0.000000 
#    y 0.000000 1.758840 0.000000 
#    z 0.000000 0.000000 1.828670 
# 
# From -- ./inp_files/6292.got.cif
#   From: 2010.05.17/outbox.cif.g08.bks.cpg/sg155_4_cif.got.tgz:6292.got - 2010.05.20 10:44:35.
