data_PCOD9576109
_publ_section_title
;
Structure prediction by ZEFSAII (Michael W. Deem and Ramdas Pophale) SiO2 
 PCOD9576109
Probable space group: P 31 2 1
;
_chemical_formula_sum "Si O2"
_cell_formula_units_Z 36
_cell_length_a 11.152143
_cell_length_b 11.152143
_cell_length_c 15.170812
_cell_angle_alpha 90.000000
_cell_angle_beta 90.000000
_cell_angle_gamma 120.000000
_cell_volume 1634.015295
_symmetry_space_group_name_H-M "P 31 2 1"
_symmetry_group_IT_number 152
_symmetry_cell_setting 'hexagonal'
loop_
_space_group_symop_operation_xyz
x,y,z
-y,x-y,1/3+z
-x+y,-x,2/3+z
x-y,-y,2/3-z
-x,-x+y,1/3-z
y,x,-z
loop_
_atom_site_type_symbol
_atom_site_label
_atom_site_fract_x
_atom_site_fract_y
_atom_site_fract_z
Si Si1 0.211960 0.763090 0.174588
Si Si2 0.091839 0.000000 0.833334
Si Si3 0.376889 0.376889 0.000000
Si Si4 0.749892 0.678837 0.636838
Si Si5 0.949591 0.213684 0.503041
Si Si6 0.553124 0.994775 0.706821
Si Si7 0.885309 0.520639 0.855738
O O1 0.104311 0.698775 0.093084
O O2 0.356863 0.786477 0.139188
O O3 0.146194 0.650270 0.251849
O O4 0.229551 0.906367 0.213865
O O5 0.180386 0.995629 0.915312
O O6 0.074044 0.133587 0.832389
O O7 0.230318 0.360643 0.027531
O O8 0.459105 0.413148 0.091946
O O9 0.729053 0.706550 0.737076
O O10 0.605401 0.553075 0.604823
O O11 0.802085 0.195707 0.529673
O O12 0.576888 0.005080 0.602267
#
# Coordination Sequence:
#
# PCOD9576109 Si02
#       7
#     6   3   3   6   6   6   6
#     4  11  26  50  69 112 151 188 253 303 371 460
#     4  12  20  40  76 100 136 188 232 306 366 418
#     4  10  24  50  70 108 146 190 256 300 364 452
#     4  11  22  46  68 106 141 183 249 294 362 437
#     4  11  25  44  69 108 142 184 242 301 364 442
#     4  11  26  48  74 108 147 202 241 310 377 443
#     4  11  25  47  76 106 146 201 242 313 377 442
#
# _framework density 22.031617000000001
#
# number of rings (size 3 to 8) (size 9 to 14) (size 15 to 20)
#    0.000    1.000    5.000    2.000    2.333    6.000 
#   12.000    0.000    0.000    0.000    0.000    0.000 
#    0.000    0.000    0.000    0.000    0.000    0.000 
#
# Total GULP energy -201128.465838 kJ/mol
# GULP energy per Si atom -5586.901829 kJ/mol
# Density = 2.198147 g / cm^3
# Si number density = 22.031617 Si / 1000 Ang^3
#
#
#
# Elastic Constant Matrix: (Units=GPa)
#
#
# Indices 1 2 3 4 5 6 
#
# 1 121.1680 51.1368 14.5405 1.2049 -0.0001 0.0000
# 2 51.1368 121.1680 14.5405 -1.2049 0.0001 0.0000
# 3 14.5405 14.5405 92.2370 0.0000 0.0000 0.0000
# 4 1.2049 -1.2049 0.0000 29.1213 0.0000 0.0001
# 5 -0.0001 0.0001 0.0000 0.0000 29.1213 1.2049
# 6 0.0000 0.0000 0.0000 0.0001 1.2049 35.0156
#
#
#
# Elastic Compliance Matrix: (Units=1/GPa)
#
#
# Indices 1 2 3 4 5 6 
#
# 1 0.010131 -0.004169 -0.000940 -0.000592 0.000000 0.000000
# 2 -0.004169 0.010131 -0.000940 0.000592 0.000000 0.000000
# 3 -0.000940 -0.000940 0.011138 0.000000 0.000000 0.000000
# 4 -0.000592 0.000592 0.000000 0.034388 0.000000 0.000000
# 5 0.000000 0.000000 0.000000 0.000000 0.034388 -0.001183
# 6 0.000000 0.000000 0.000000 0.000000 -0.001183 0.028599
#
#
# Mechanical properties :
#
#
# Convention : Reuss Voigt Hill
#
# Bulk Modulus (GPa) = 51.80562 55.00097 53.40330
# Shear Modulus (GPa) = 33.94275 35.60866 34.77571
#
# Velocity S-wave (km/s) = 3.92935 4.02463 3.97728
# Velocity P-wave (km/s) = 6.64467 6.82756 6.73674
#
# Compressibility (1/GPa) = 0.01930292
#
# Stress axis : x y z
#
# Youngs Moduli (GPa) = 98.70690 98.70690 89.78289
#
# Poissons Ratio (x) = 0.41148 0.08439
# Poissons Ratio (y) = 0.41148 0.08439
# Poissons Ratio (z) = 0.09278 0.09278
#
# Static dielectric constant tensor:
#      x y z
#    x 1.759340 0.000000 0.000000 
#    y 0.000000 1.759340 0.000000 
#    z 0.000000 0.000000 1.564600 
# 
# From -- ./inp_files/2073.got.cif
#   From: 2010.05.17/outbox.cif.g08.bks.cpg/sg152_2_cif.got.tgz:2073.got - 2010.05.20 10:36:06.
