data_PCOD9576969
_publ_section_title
;
Structure prediction by ZEFSAII (Michael W. Deem and Ramdas Pophale) SiO2 
 PCOD9576969
Probable space group: R 3 2
;
_chemical_formula_sum "Si O2"
_cell_formula_units_Z 108
_cell_length_a 18.125030
_cell_length_b 18.125030
_cell_length_c 16.846261
_cell_angle_alpha 90.000000
_cell_angle_beta 90.000000
_cell_angle_gamma 120.000000
_cell_volume 4792.825584
_symmetry_space_group_name_H-M "R 3 2"
_symmetry_group_IT_number 155
_symmetry_cell_setting 'hexagonal'
loop_
_space_group_symop_operation_xyz
x,y,z
-y,x-y,z
-x+y,-x,z
x-y,-y,-z
-x,-x+y,-z
y,x,-z
2/3+x,1/3+y,1/3+z
2/3-y,1/3+x-y,1/3+z
2/3-x+y,1/3-x,1/3+z
2/3+x-y,1/3-y,1/3-z
2/3-x,1/3-x+y,1/3-z
2/3+y,1/3+x,1/3-z
1/3+x,2/3+y,2/3+z
1/3-y,2/3+x-y,2/3+z
1/3-x+y,2/3-x,2/3+z
1/3+x-y,2/3-y,2/3-z
1/3-x,2/3-x+y,2/3-z
1/3+y,2/3+x,2/3-z
loop_
_atom_site_type_symbol
_atom_site_label
_atom_site_fract_x
_atom_site_fract_y
_atom_site_fract_z
Si Si1 0.431522 0.265291 0.681966
Si Si2 0.774702 0.158431 0.923575
Si Si3 0.099398 0.430830 0.008770
Si Si4 0.099006 0.447264 0.506439
Si Si5 0.489790 0.897378 0.614900
Si Si6 0.594431 0.093559 0.161142
O O1 0.333334 0.238980 0.666667
O O2 0.482942 0.351219 0.728834
O O3 0.433867 0.181590 0.706531
O O4 0.465778 0.282322 0.591713
O O5 0.859015 0.305386 0.079619
O O6 0.794106 0.106655 0.993701
O O7 0.849944 0.253740 0.933274
O O8 0.223232 0.341072 0.160145
O O9 0.000000 0.360722 0.000000
O O10 0.101086 0.511643 0.574003
O O11 0.182113 0.438491 0.525671
O O12 0.000000 0.369727 0.500000
O O13 0.484842 0.818175 0.666667
O O14 0.539534 0.888748 0.540225
#
# Coordination Sequence:
#
# PCOD9576969 Si02
#       6
#    18  18  18  18  18  18
#     4  10  22  39  57  86 123 154 204 267 316 364
#     4  11  21  37  62  88 119 165 205 258 318 388
#     4  10  21  37  59  88 122 160 212 268 312 378
#     4  11  20  37  62  86 124 172 209 261 314 381
#     4  10  22  36  58  91 125 163 208 256 315 391
#     4  10  23  37  60  92 118 162 217 251 316 388
#
# _framework density 22.53368
#
# number of rings (size 3 to 8) (size 9 to 14) (size 15 to 20)
#    0.000    1.667    1.667    3.500    0.000    4.000 
#    2.000    0.000    0.000    0.000    0.000    0.000 
#    0.000    0.000    0.000    0.000    0.000    0.000 
#
# Total GULP energy -200616.154006 kJ/mol
# GULP energy per Si atom -5572.670945 kJ/mol
# Density = 2.248239 g / cm^3
# Si number density = 22.533680 Si / 1000 Ang^3
#
#
#
# Elastic Constant Matrix: (Units=GPa)
#
#
# Indices 1 2 3 4 5 6 
#
# 1 81.8770 45.8767 9.5899 0.7210 0.0003 0.0000
# 2 45.8767 81.8770 9.5899 -0.7210 -0.0003 0.0000
# 3 9.5899 9.5899 51.4817 0.0000 0.0000 0.0000
# 4 0.7210 -0.7210 0.0000 27.1014 0.0000 -0.0003
# 5 0.0003 -0.0003 0.0000 0.0000 27.1014 0.7210
# 6 0.0000 0.0000 0.0000 -0.0003 0.7210 18.0001
#
#
#
# Elastic Compliance Matrix: (Units=1/GPa)
#
#
# Indices 1 2 3 4 5 6 
#
# 1 0.017930 -0.009877 -0.001500 -0.000740 0.000000 0.000000
# 2 -0.009877 0.017930 -0.001500 0.000740 0.000000 0.000000
# 3 -0.001500 -0.001500 0.019983 0.000000 0.000000 0.000000
# 4 -0.000740 0.000740 0.000000 0.036938 0.000000 0.000001
# 5 0.000000 0.000000 0.000000 0.000000 0.036938 -0.001480
# 6 0.000000 0.000000 0.000000 0.000001 -0.001480 0.055614
#
#
# Mechanical properties :
#
#
# Convention : Reuss Voigt Hill
#
# Bulk Modulus (GPa) = 33.23521 38.37205 35.80363
# Shear Modulus (GPa) = 22.61244 24.45255 23.53250
#
# Velocity S-wave (km/s) = 3.17124 3.29774 3.23511
# Velocity P-wave (km/s) = 5.30944 5.61835 5.46608
#
# Compressibility (1/GPa) = 0.03008858
#
# Stress axis : x y z
#
# Youngs Moduli (GPa) = 55.77250 55.77250 50.04199
#
# Poissons Ratio (x) = 0.55088 0.07507
# Poissons Ratio (y) = 0.55088 0.07507
# Poissons Ratio (z) = 0.08366 0.08366
#
# Static dielectric constant tensor:
#      x y z
#    x 1.839700 0.000000 0.000000 
#    y 0.000000 1.839700 0.000000 
#    z 0.000000 0.000000 1.984410 
# 
# From -- ./inp_files/6985.got.cif
#   From: 2010.05.17/outbox.cif.g08.bks.cpg/sg155_4_cif.got.tgz:6985.got - 2010.05.20 10:44:35.
