data_PCOD9576703
_publ_section_title
;
Structure prediction by ZEFSAII (Michael W. Deem and Ramdas Pophale) SiO2 
 PCOD9576703
Probable space group: P 32 2 1
;
_chemical_formula_sum "Si O2"
_cell_formula_units_Z 27
_cell_length_a 8.484354
_cell_length_b 8.484354
_cell_length_c 17.227619
_cell_angle_alpha 90.000000
_cell_angle_beta 90.000000
_cell_angle_gamma 120.000000
_cell_volume 1073.973218
_symmetry_space_group_name_H-M "P 32 2 1"
_symmetry_group_IT_number 154
_symmetry_cell_setting 'hexagonal'
loop_
_space_group_symop_operation_xyz
x,y,z
-y,x-y,2/3+z
-x+y,-x,1/3+z
x-y,-y,1/3-z
-x,-x+y,2/3-z
y,x,-z
loop_
_atom_site_type_symbol
_atom_site_label
_atom_site_fract_x
_atom_site_fract_y
_atom_site_fract_z
Si Si1 0.177789 0.317347 0.255001
Si Si2 0.511815 0.613467 0.785917
Si Si3 0.851043 0.851043 0.500000
Si Si4 0.870450 0.312399 0.710560
Si Si5 0.323936 0.560893 0.380488
O O1 0.075560 0.391477 0.200206
O O2 0.399421 0.416528 0.234372
O O3 0.108626 0.114220 0.228432
O O4 0.182677 0.368403 0.344770
O O5 0.138217 0.320044 0.887890
O O6 0.302946 0.638321 0.975993
O O7 0.499391 0.545998 0.398610
O O8 0.316575 0.681239 0.449773
O O9 0.918244 0.279418 0.622194
#
# Coordination Sequence:
#
# PCOD9576703 Si02
#       5
#     6   6   3   6   6
#     4  11  21  39  62  88 118 162 205 255 310 373
#     4   9  21  37  64  84 121 151 211 250 307 377
#     4  12  20  34  62  86 126 162 202 246 320 374
#     4   9  18  34  58  89 115 161 200 259 295 371
#     4   9  18  35  59  88 121 150 212 256 304 363
#
# _framework density 25.140291999999999
#
# number of rings (size 3 to 8) (size 9 to 14) (size 15 to 20)
#    1.333    0.889    2.222    1.333    0.000    0.889 
#    0.000    0.000   19.556    0.000    0.000    0.000 
#    0.000    0.000    0.000    0.000    0.000    0.000 
#
# Total GULP energy -150312.003063 kJ/mol
# GULP energy per Si atom -5567.111225 kJ/mol
# Density = 2.508307 g / cm^3
# Si number density = 25.140292 Si / 1000 Ang^3
#
#
#
# Elastic Constant Matrix: (Units=GPa)
#
#
# Indices 1 2 3 4 5 6 
#
# 1 67.0215 14.0487 3.8553 -3.8550 0.0000 0.0000
# 2 14.0487 67.0215 3.8553 3.8550 0.0000 0.0000
# 3 3.8553 3.8553 90.8690 0.0000 0.0000 0.0000
# 4 -3.8550 3.8550 0.0000 39.6051 0.0000 0.0000
# 5 0.0000 0.0000 0.0000 0.0000 39.6051 -3.8550
# 6 0.0000 0.0000 0.0000 0.0000 -3.8550 26.4864
#
#
#
# Elastic Compliance Matrix: (Units=1/GPa)
#
#
# Indices 1 2 3 4 5 6 
#
# 1 0.015767 -0.003382 -0.000525 0.001864 0.000000 0.000000
# 2 -0.003382 0.015767 -0.000525 -0.001864 0.000000 0.000000
# 3 -0.000525 -0.000525 0.011049 0.000000 0.000000 0.000000
# 4 0.001864 -0.001864 0.000000 0.025612 0.000000 0.000000
# 5 0.000000 0.000000 0.000000 0.000000 0.025612 0.003728
# 6 0.000000 0.000000 0.000000 0.000000 0.003728 0.038298
#
#
# Mechanical properties :
#
#
# Convention : Reuss Voigt Hill
#
# Bulk Modulus (GPa) = 29.65814 29.82561 29.74187
# Shear Modulus (GPa) = 32.84927 34.68280 33.76604
#
# Velocity S-wave (km/s) = 3.61867 3.71829 3.66881
# Velocity P-wave (km/s) = 5.41132 5.50669 5.45921
#
# Compressibility (1/GPa) = 0.03371756
#
# Stress axis : x y z
#
# Youngs Moduli (GPa) = 63.42385 63.42385 90.50228
#
# Poissons Ratio (x) = 0.21450 0.04755
# Poissons Ratio (y) = 0.21450 0.04755
# Poissons Ratio (z) = 0.03333 0.03333
#
# Static dielectric constant tensor:
#      x y z
#    x 2.074100 0.000000 0.000000 
#    y 0.000000 2.074100 0.000000 
#    z 0.000000 0.000000 2.070260 
# 
# From -- ./inp_files/1827.got.cif
#   From: 2010.05.17/outbox.cif.g08.bks.cpg/sg154_1_cif.got.tgz:1827.got - 2010.05.20 10:41:43.
