data_PCOD9576572
_publ_section_title
;
Structure prediction by ZEFSAII (Michael W. Deem and Ramdas Pophale) SiO2 
 PCOD9576572
Probable space group: P 32 2 1
;
_chemical_formula_sum "Si O2"
_cell_formula_units_Z 42
_cell_length_a 8.730949
_cell_length_b 8.730949
_cell_length_c 28.188404
_cell_angle_alpha 90.000000
_cell_angle_beta 90.000000
_cell_angle_gamma 120.000000
_cell_volume 1860.904224
_symmetry_space_group_name_H-M "P 32 2 1"
_symmetry_group_IT_number 154
_symmetry_cell_setting 'hexagonal'
loop_
_space_group_symop_operation_xyz
x,y,z
-y,x-y,2/3+z
-x+y,-x,1/3+z
x-y,-y,1/3-z
-x,-x+y,2/3-z
y,x,-z
loop_
_atom_site_type_symbol
_atom_site_label
_atom_site_fract_x
_atom_site_fract_y
_atom_site_fract_z
Si Si1 0.105420 0.499057 0.616048
Si Si2 0.388686 0.696624 0.376970
Si Si3 0.088220 0.988064 0.950265
Si Si4 0.840735 0.272038 0.866951
Si Si5 0.368360 0.385367 0.057393
Si Si6 0.905082 0.845334 0.131019
Si Si7 0.771397 0.328016 0.461049
O O1 0.230698 0.613320 0.659224
O O2 0.097152 0.310411 0.619937
O O3 0.180085 0.595756 0.565867
O O4 0.908677 0.466751 0.624667
O O5 0.509390 0.661654 0.413161
O O6 0.194284 0.623273 0.397907
O O7 0.914191 0.880699 0.919436
O O8 0.219054 0.180836 0.927011
O O9 0.028865 0.028865 0.000000
O O10 0.668942 0.253376 0.841106
O O11 0.000000 0.399360 0.833334
O O12 0.837152 0.086172 0.869110
O O13 0.518733 0.383305 0.088263
O O14 0.373085 0.373085 0.000000
O O15 0.752541 0.648293 0.140504
O O16 0.933639 0.000000 0.166667
#
# Coordination Sequence:
#
# PCOD9576572 Si02
#       7
#     6   6   6   6   6   6   6
#     4  11  25  43  73 104 141 178 245 294 352 423
#     4  11  24  43  71 101 138 185 231 294 351 423
#     4  10  23  44  72  99 137 186 231 285 357 429
#     4  11  26  45  71  98 142 187 235 287 363 430
#     4  10  21  41  68  99 136 183 230 288 354 419
#     4  11  25  45  69  97 136 184 232 286 361 428
#     4  12  26  44  70 103 143 184 240 299 354 428
#
# _framework density 22.569672000000001
#
# number of rings (size 3 to 8) (size 9 to 14) (size 15 to 20)
#    0.000    1.143    2.857    2.571    8.000    1.714 
#    0.000    0.000    0.000    0.000    0.000    0.000 
#    0.000    0.000    0.000    0.000    0.000    0.000 
#
# Total GULP energy -235055.584966 kJ/mol
# GULP energy per Si atom -5596.561547 kJ/mol
# Density = 2.251830 g / cm^3
# Si number density = 22.569672 Si / 1000 Ang^3
#
#
#
# Elastic Constant Matrix: (Units=GPa)
#
#
# Indices 1 2 3 4 5 6 
#
# 1 45.0845 -3.1425 5.9708 -0.8679 -0.0001 0.0000
# 2 -3.1425 45.0845 5.9708 0.8679 0.0001 0.0000
# 3 5.9708 5.9708 68.9529 0.0000 0.0000 0.0000
# 4 -0.8679 0.8679 0.0000 26.6424 0.0000 0.0001
# 5 -0.0001 0.0001 0.0000 0.0000 26.6424 -0.8679
# 6 0.0000 0.0000 0.0000 0.0001 -0.8679 24.1135
#
#
#
# Elastic Compliance Matrix: (Units=1/GPa)
#
#
# Indices 1 2 3 4 5 6 
#
# 1 0.022602 0.001843 -0.002117 0.000676 0.000000 0.000000
# 2 0.001843 0.022602 -0.002117 -0.000676 0.000000 0.000000
# 3 -0.002117 -0.002117 0.014869 0.000000 0.000000 0.000000
# 4 0.000676 -0.000676 0.000000 0.037578 0.000000 0.000000
# 5 0.000000 0.000000 0.000000 0.000000 0.037578 0.001352
# 6 0.000000 0.000000 0.000000 0.000000 0.001352 0.041519
#
#
# Mechanical properties :
#
#
# Convention : Reuss Voigt Hill
#
# Bulk Modulus (GPa) = 18.08566 19.63557 18.86062
# Shear Modulus (GPa) = 25.00476 25.50119 25.25297
#
# Velocity S-wave (km/s) = 3.33211 3.36503 3.34861
# Velocity P-wave (km/s) = 4.77856 4.88024 4.82967
#
# Compressibility (1/GPa) = 0.05529243
#
# Stress axis : x y z
#
# Youngs Moduli (GPa) = 44.24316 44.24316 67.25295
#
# Poissons Ratio (x) = -0.08153 0.14236
# Poissons Ratio (y) = -0.08153 0.14236
# Poissons Ratio (z) = 0.09365 0.09365
#
# Static dielectric constant tensor:
#      x y z
#    x 1.822000 0.000000 0.000000 
#    y 0.000000 1.822000 0.000000 
#    z 0.000000 0.000000 1.968930 
# 
# From -- ./inp_files/3776.got.cif
#   From: 2010.05.17/outbox.cif.g08.bks.cpg/sg154_2_cif.got.tgz:3776.got - 2010.05.20 10:41:43.
