data_PCOD9576650
_publ_section_title
;
Structure prediction by ZEFSAII (Michael W. Deem and Ramdas Pophale) SiO2 
 PCOD9576650
Probable space group: P 32 2 1
;
_chemical_formula_sum "Si O2"
_cell_formula_units_Z 42
_cell_length_a 8.586992
_cell_length_b 8.586992
_cell_length_c 26.511309
_cell_angle_alpha 90.000000
_cell_angle_beta 90.000000
_cell_angle_gamma 120.000000
_cell_volume 1692.949174
_symmetry_space_group_name_H-M "P 32 2 1"
_symmetry_group_IT_number 154
_symmetry_cell_setting 'hexagonal'
loop_
_space_group_symop_operation_xyz
x,y,z
-y,x-y,2/3+z
-x+y,-x,1/3+z
x-y,-y,1/3-z
-x,-x+y,2/3-z
y,x,-z
loop_
_atom_site_type_symbol
_atom_site_label
_atom_site_fract_x
_atom_site_fract_y
_atom_site_fract_z
Si Si1 0.494630 0.907427 0.365097
Si Si2 0.281049 0.919281 0.885342
Si Si3 0.365370 0.073105 0.779081
Si Si4 0.315438 0.755637 0.197043
Si Si5 0.638717 0.631134 0.613047
Si Si6 0.873469 0.090945 0.873967
Si Si7 0.227881 0.162978 0.626857
O O1 0.511783 0.732697 0.376539
O O2 0.452160 0.000896 0.410874
O O3 0.337979 0.882000 0.326599
O O4 0.667619 0.025468 0.328798
O O5 0.280757 0.757636 0.852461
O O6 0.106541 0.867365 0.920933
O O7 0.323562 0.053542 0.839123
O O8 0.578092 0.164839 0.774183
O O9 0.286446 0.204513 0.767982
O O10 0.240160 0.908065 0.742637
O O11 0.210119 0.801615 0.154829
O O12 0.424501 0.924298 0.234202
O O13 0.801954 0.804539 0.587112
O O14 0.000000 0.072008 0.833334
O O15 0.108779 0.000000 0.666667
#
# Coordination Sequence:
#
# PCOD9576650 Si02
#       7
#     6   6   6   6   6   6   6
#     4  12  24  45  73 107 146 202 253 321 381 460
#     4  12  26  48  75 110 149 201 261 319 389 466
#     4  12  26  46  74 111 154 199 251 320 394 469
#     4  11  23  44  73 106 142 195 252 314 375 464
#     4  11  22  42  73 101 139 193 251 307 375 447
#     4  10  23  42  70 100 147 192 247 317 380 455
#     4  12  26  45  76 107 153 204 251 325 397 466
#
# _framework density 24.808779999999999
#
# number of rings (size 3 to 8) (size 9 to 14) (size 15 to 20)
#    0.000    0.571    2.857    5.571    2.000    2.286 
#    2.571    0.000    3.143    0.000    0.000    0.000 
#    0.000    0.000    0.000    0.000    0.000    0.000 
#
# Total GULP energy -233989.736258 kJ/mol
# GULP energy per Si atom -5571.184197 kJ/mol
# Density = 2.475231 g / cm^3
# Si number density = 24.808780 Si / 1000 Ang^3
#
#
#
# Elastic Constant Matrix: (Units=GPa)
#
#
# Indices 1 2 3 4 5 6 
#
# 1 89.6334 27.9003 33.7158 -1.6995 0.0002 0.0000
# 2 27.9003 89.6334 33.7158 1.6995 -0.0002 0.0000
# 3 33.7158 33.7158 136.2947 0.0000 0.0000 0.0000
# 4 -1.6995 1.6995 0.0000 43.9536 0.0000 -0.0002
# 5 0.0002 -0.0002 0.0000 0.0000 43.9536 -1.6995
# 6 0.0000 0.0000 0.0000 -0.0002 -1.6995 30.8665
#
#
#
# Elastic Compliance Matrix: (Units=1/GPa)
#
#
# Indices 1 2 3 4 5 6 
#
# 1 0.013074 -0.003159 -0.002453 0.000628 0.000000 0.000000
# 2 -0.003159 0.013074 -0.002453 -0.000628 0.000000 0.000000
# 3 -0.002453 -0.002453 0.008551 0.000000 0.000000 0.000000
# 4 0.000628 -0.000628 0.000000 0.022800 0.000000 0.000000
# 5 0.000000 0.000000 0.000000 0.000000 0.022800 0.001255
# 6 0.000000 0.000000 0.000000 0.000000 0.001255 0.032467
#
#
# Mechanical properties :
#
#
# Convention : Reuss Voigt Hill
#
# Bulk Modulus (GPa) = 53.84987 56.24725 55.04856
# Shear Modulus (GPa) = 37.01377 38.43671 37.72524
#
# Velocity S-wave (km/s) = 3.86678 3.94041 3.90377
# Velocity P-wave (km/s) = 6.45671 6.58969 6.52354
#
# Compressibility (1/GPa) = 0.01857015
#
# Stress axis : x y z
#
# Youngs Moduli (GPa) = 76.48545 76.48545 116.95123
#
# Poissons Ratio (x) = 0.24161 0.28686
# Poissons Ratio (y) = 0.24161 0.28686
# Poissons Ratio (z) = 0.18761 0.18761
#
# Static dielectric constant tensor:
#      x y z
#    x 2.036110 0.000000 0.000000 
#    y 0.000000 2.036110 0.000000 
#    z 0.000000 0.000000 2.008040 
# 
# From -- ./inp_files/3762.got.cif
#   From: 2010.05.17/outbox.cif.g08.bks.cpg/sg154_2_cif.got.tgz:3762.got - 2010.05.20 10:41:43.
