data_PCOD9576366
_publ_section_title
;
Structure prediction by ZEFSAII (Michael W. Deem and Ramdas Pophale) SiO2 
 PCOD9576366
Probable space group: P 32 1 2
;
_chemical_formula_sum "Si O2"
_cell_formula_units_Z 42
_cell_length_a 9.109181
_cell_length_b 9.109181
_cell_length_c 25.799329
_cell_angle_alpha 90.000000
_cell_angle_beta 90.000000
_cell_angle_gamma 120.000000
_cell_volume 1853.948670
_symmetry_space_group_name_H-M "P 32 1 2"
_symmetry_group_IT_number 153
_symmetry_cell_setting 'hexagonal'
loop_
_space_group_symop_operation_xyz
x,y,z
-y,x-y,2/3+z
-x+y,-x,1/3+z
-y,-x,1/3-z
-x+y,y,2/3-z
x,x-y,-z
loop_
_atom_site_type_symbol
_atom_site_label
_atom_site_fract_x
_atom_site_fract_y
_atom_site_fract_z
Si Si1 0.852562 0.430972 0.130696
Si Si2 0.384091 0.288563 0.051152
Si Si3 0.674458 0.615429 0.076798
Si Si4 0.837099 0.968872 0.368515
Si Si5 0.277278 0.392971 0.607441
Si Si6 0.288866 0.697191 0.774951
Si Si7 0.646246 0.646491 0.442974
O O1 0.729723 0.270278 0.166667
O O2 0.742783 0.503200 0.104143
O O3 0.959100 0.375804 0.092949
O O4 0.985564 0.599370 0.163232
O O5 0.529874 0.478554 0.039017
O O6 0.221652 0.296090 0.073356
O O7 0.435804 0.193794 0.092834
O O8 0.360169 0.180085 0.000000
O O9 0.840271 0.771445 0.054476
O O10 0.569425 0.684151 0.108578
O O11 0.978997 0.957993 0.333334
O O12 0.680510 0.940962 0.331711
O O13 0.754006 0.831464 0.415481
O O14 0.319415 0.583543 0.597789
O O15 0.334734 0.669467 0.833334
O O16 0.105869 0.547334 0.757766
#
# Coordination Sequence:
#
# PCOD9576366 Si02
#       7
#     6   6   6   6   6   6   6
#     4  12  26  44  75 113 148 195 252 316 385 457
#     4  11  23  49  72 103 143 203 245 309 385 455
#     4  11  28  43  74 104 151 190 248 316 375 457
#     4  12  27  50  74 112 146 198 257 314 382 452
#     4  11  24  48  73 104 150 189 250 312 369 452
#     4  11  25  46  72 107 144 193 245 300 379 451
#     4  12  24  47  76 101 149 195 250 301 384 455
#
# _framework density 22.654347000000001
#
# number of rings (size 3 to 8) (size 9 to 14) (size 15 to 20)
#    0.000    0.571    5.714    1.286    4.000    4.000 
#    0.000    0.714    0.000    0.000    0.000    0.000 
#    0.000    0.000    0.000    0.000    0.000    0.000 
#
# Total GULP energy -233902.624972 kJ/mol
# GULP energy per Si atom -5569.110118 kJ/mol
# Density = 2.260279 g / cm^3
# Si number density = 22.654347 Si / 1000 Ang^3
#
#
#
# Elastic Constant Matrix: (Units=GPa)
#
#
# Indices 1 2 3 4 5 6 
#
# 1 205.0459 -10.0078 39.3800 0.0037 -51.7144 0.0000
# 2 -10.0078 205.0459 39.3800 -0.0037 51.7144 0.0000
# 3 39.3800 39.3800 54.6442 0.0000 0.0000 0.0000
# 4 0.0037 -0.0037 0.0000 73.2152 0.0000 51.7144
# 5 -51.7144 51.7144 0.0000 0.0000 73.2152 0.0037
# 6 0.0000 0.0000 0.0000 51.7144 0.0037 107.5268
#
#
#
# Elastic Compliance Matrix: (Units=1/GPa)
#
#
# Indices 1 2 3 4 5 6 
#
# 1 0.007137 0.000095 -0.005212 0.000000 0.004974 0.000000
# 2 0.000095 0.007137 -0.005212 0.000000 -0.004974 0.000000
# 3 -0.005212 -0.005212 0.025812 0.000000 0.000000 0.000000
# 4 0.000000 0.000000 0.000000 0.020685 0.000000 -0.009948
# 5 0.004974 -0.004974 0.000000 0.000000 0.020685 -0.000001
# 6 0.000000 0.000000 0.000000 -0.009948 -0.000001 0.014085
#
#
# Mechanical properties :
#
#
# Convention : Reuss Voigt Hill
#
# Bulk Modulus (GPa) = 51.46999 66.91558 59.19278
# Shear Modulus (GPa) = 40.75818 77.19039 58.97428
#
# Velocity S-wave (km/s) = 4.24622 5.84355 5.10771
# Velocity P-wave (km/s) = 6.84175 8.66782 7.80835
#
# Compressibility (1/GPa) = 0.01942880
#
# Stress axis : x y z
#
# Youngs Moduli (GPa) = 140.11390 140.11390 38.74182
#
# Poissons Ratio (x) = -0.01327 0.20191
# Poissons Ratio (y) = -0.01327 0.20191
# Poissons Ratio (z) = 0.73023 0.73023
#
# Static dielectric constant tensor:
#      x y z
#    x 1.719130 0.000000 0.000000 
#    y 0.000000 1.719130 0.000000 
#    z 0.000000 0.000000 1.913610 
# 
# From -- ./inp_files/5203.got.cif
#   From: 2010.05.17/outbox.cif.g08.bks.cpg/sg153_3_cif.got.tgz:5203.got - 2010.05.20 10:38:56.
