data_PCOD9576202
_publ_section_title
;
Structure prediction by ZEFSAII (Michael W. Deem and Ramdas Pophale) SiO2 
 PCOD9576202
Probable space group: P 31 2 1
;
_chemical_formula_sum "Si O2"
_cell_formula_units_Z 18
_cell_length_a 7.658042
_cell_length_b 7.658042
_cell_length_c 12.632631
_cell_angle_alpha 90.000000
_cell_angle_beta 90.000000
_cell_angle_gamma 120.000000
_cell_volume 641.593462
_symmetry_space_group_name_H-M "P 31 2 1"
_symmetry_group_IT_number 152
_symmetry_cell_setting 'hexagonal'
loop_
_space_group_symop_operation_xyz
x,y,z
-y,x-y,1/3+z
-x+y,-x,2/3+z
x-y,-y,2/3-z
-x,-x+y,1/3-z
y,x,-z
loop_
_atom_site_type_symbol
_atom_site_label
_atom_site_fract_x
_atom_site_fract_y
_atom_site_fract_z
Si Si1 0.895949 0.659080 0.771616
Si Si2 0.194659 0.277329 0.329811
Si Si3 0.375011 0.580452 0.564543
O O1 0.816797 0.800438 0.722222
O O2 0.745717 0.432737 0.812068
O O3 0.000000 0.629175 0.666667
O O4 0.024670 0.780113 0.873112
O O5 0.246636 0.507831 0.325101
O O6 0.354778 0.237372 0.390723
O O7 0.536239 0.536239 0.500000
#
# Coordination Sequence:
#
# PCOD9576202 Si02
#       3
#     6   6   6
#     4  12  29  52  87 125 180 231 298 370 444 535
#     4  12  28  54  86 129 171 233 297 361 448 528
#     4  12  27  50  87 128 175 231 293 363 442 532
#
# _framework density 28.055150999999999
#
# number of rings (size 3 to 8) (size 9 to 14) (size 15 to 20)
#    0.000    0.000    3.333    5.000    4.667    4.000 
#    0.000    0.000    0.000    0.000    0.000    0.000 
#    0.000    0.000    0.000    0.000    0.000    0.000 
#
# Total GULP energy -100510.591698 kJ/mol
# GULP energy per Si atom -5583.921761 kJ/mol
# Density = 2.799130 g / cm^3
# Si number density = 28.055151 Si / 1000 Ang^3
#
#
#
# Elastic Constant Matrix: (Units=GPa)
#
#
# Indices 1 2 3 4 5 6 
#
# 1 187.4241 89.2481 79.5975 -0.0454 0.0000 0.0000
# 2 89.2481 187.4241 79.5975 0.0454 0.0000 0.0000
# 3 79.5975 79.5975 115.2753 0.0000 0.0000 0.0000
# 4 -0.0454 0.0454 0.0000 44.4459 0.0000 0.0000
# 5 0.0000 0.0000 0.0000 0.0000 44.4459 -0.0454
# 6 0.0000 0.0000 0.0000 0.0000 -0.0454 49.0880
#
#
#
# Elastic Compliance Matrix: (Units=1/GPa)
#
#
# Indices 1 2 3 4 5 6 
#
# 1 0.008091 -0.002094 -0.004141 0.000010 0.000000 0.000000
# 2 -0.002094 0.008091 -0.004141 -0.000010 0.000000 0.000000
# 3 -0.004141 -0.004141 0.014394 0.000000 0.000000 0.000000
# 4 0.000010 -0.000010 0.000000 0.022499 0.000000 0.000000
# 5 0.000000 0.000000 0.000000 0.000000 0.022499 0.000021
# 6 0.000000 0.000000 0.000000 0.000000 0.000021 0.020372
#
#
# Mechanical properties :
#
#
# Convention : Reuss Voigt Hill
#
# Bulk Modulus (GPa) = 101.79345 109.66773 105.73059
# Shear Modulus (GPa) = 41.67575 43.70797 42.69186
#
# Velocity S-wave (km/s) = 3.85839 3.95134 3.90514
# Velocity P-wave (km/s) = 7.49745 7.74548 7.62247
#
# Compressibility (1/GPa) = 0.00982381
#
# Stress axis : x y z
#
# Youngs Moduli (GPa) = 123.58748 123.58748 69.47552
#
# Poissons Ratio (x) = 0.25884 0.28770
# Poissons Ratio (y) = 0.25884 0.28770
# Poissons Ratio (z) = 0.51177 0.51177
#
# Static dielectric constant tensor:
#      x y z
#    x 2.258370 0.000000 0.000000 
#    y 0.000000 2.258370 0.000000 
#    z 0.000000 0.000000 2.148630 
# 
# From -- ./inp_files/1525.got.cif
#   From: 2010.05.17/outbox.cif.g08.bks.cpg/sg152_1_cif.got.tgz:1525.got - 2010.05.20 10:36:06.
