data_PCOD9576312
_publ_section_title
;
Structure prediction by ZEFSAII (Michael W. Deem and Ramdas Pophale) SiO2 
 PCOD9576312
Probable space group: P 32 1 2
;
_chemical_formula_sum "Si O2"
_cell_formula_units_Z 24
_cell_length_a 8.044405
_cell_length_b 8.044405
_cell_length_c 20.398273
_cell_angle_alpha 90.000000
_cell_angle_beta 90.000000
_cell_angle_gamma 120.000000
_cell_volume 1143.172809
_symmetry_space_group_name_H-M "P 32 1 2"
_symmetry_group_IT_number 153
_symmetry_cell_setting 'hexagonal'
loop_
_space_group_symop_operation_xyz
x,y,z
-y,x-y,2/3+z
-x+y,-x,1/3+z
-y,-x,1/3-z
-x+y,y,2/3-z
x,x-y,-z
loop_
_atom_site_type_symbol
_atom_site_label
_atom_site_fract_x
_atom_site_fract_y
_atom_site_fract_z
Si Si1 0.177422 0.441860 0.261698
Si Si2 0.166710 0.204669 0.140505
Si Si3 0.402223 0.510752 0.595031
Si Si4 0.499959 0.371297 0.859495
O O1 0.181794 0.363587 0.333334
O O2 0.232846 0.342964 0.204143
O O3 0.333337 0.666665 0.261006
O O4 0.975862 0.429048 0.243760
O O5 0.095715 0.309190 0.089574
O O6 0.333335 0.166666 0.115765
O O7 0.990523 0.009478 0.166667
O O8 0.484872 0.515129 0.666667
O O9 0.556543 0.566178 0.537476
O O10 0.676148 0.352295 0.833334
#
# Coordination Sequence:
#
# PCOD9576312 Si02
#       4
#     6   6   6   6
#     4  10  21  39  61  89 122 158 200 250 301 360
#     4  11  22  39  62  89 122 160 200 251 305 358
#     4  10  21  39  61  89 122 158 200 250 301 360
#     4  11  22  39  62  89 122 160 200 251 305 358
#
# _framework density 20.994204
#
# number of rings (size 3 to 8) (size 9 to 14) (size 15 to 20)
#    0.000    1.500    0.000    9.000    0.000    4.000 
#    0.000   15.000    0.000    0.000    0.000    0.000 
#    0.000    0.000    0.000    0.000    0.000    0.000 
#
# Total GULP energy -134167.577939 kJ/mol
# GULP energy per Si atom -5590.315747 kJ/mol
# Density = 2.094642 g / cm^3
# Si number density = 20.994204 Si / 1000 Ang^3
#
#
#
# Elastic Constant Matrix: (Units=GPa)
#
#
# Indices 1 2 3 4 5 6 
#
# 1 89.8055 8.2788 11.6239 0.0001 0.0002 0.0000
# 2 8.2788 89.8055 11.6239 -0.0001 -0.0002 0.0000
# 3 11.6239 11.6239 121.2847 0.0000 0.0000 0.0000
# 4 0.0001 -0.0001 0.0000 11.4419 0.0000 -0.0002
# 5 0.0002 -0.0002 0.0000 0.0000 11.4419 0.0001
# 6 0.0000 0.0000 0.0000 -0.0002 0.0001 40.7634
#
#
#
# Elastic Compliance Matrix: (Units=1/GPa)
#
#
# Indices 1 2 3 4 5 6 
#
# 1 0.011349 -0.000917 -0.001000 0.000000 0.000000 0.000000
# 2 -0.000917 0.011349 -0.001000 0.000000 0.000000 0.000000
# 3 -0.001000 -0.001000 0.008437 0.000000 0.000000 0.000000
# 4 0.000000 0.000000 0.000000 0.087398 0.000000 0.000000
# 5 0.000000 0.000000 0.000000 0.000000 0.087398 0.000000
# 6 0.000000 0.000000 0.000000 0.000000 0.000000 0.024532
#
#
# Mechanical properties :
#
#
# Convention : Reuss Voigt Hill
#
# Bulk Modulus (GPa) = 39.52262 40.43878 39.98070
# Shear Modulus (GPa) = 20.43074 30.68738 25.55906
#
# Velocity S-wave (km/s) = 3.12294 3.82738 3.49296
# Velocity P-wave (km/s) = 5.64535 6.23181 5.94582
#
# Compressibility (1/GPa) = 0.02530197
#
# Stress axis : x y z
#
# Youngs Moduli (GPa) = 88.11267 88.11267 118.52962
#
# Poissons Ratio (x) = 0.08078 0.11851
# Poissons Ratio (y) = 0.08078 0.11851
# Poissons Ratio (z) = 0.08810 0.08810
#
# Static dielectric constant tensor:
#      x y z
#    x 1.741720 0.000000 0.000000 
#    y 0.000000 1.741720 0.000000 
#    z 0.000000 0.000000 1.764020 
# 
# From -- ./inp_files/4165.got.cif
#   From: 2010.05.17/outbox.cif.g08.bks.cpg/sg153_3_cif.got.tgz:4165.got - 2010.05.20 10:38:56.
