data_PCOD9576180
_publ_section_title
;
Structure prediction by ZEFSAII (Michael W. Deem and Ramdas Pophale) SiO2 
 PCOD9576180
Probable space group: P 31 2 1
;
_chemical_formula_sum "Si O2"
_cell_formula_units_Z 30
_cell_length_a 13.647589
_cell_length_b 13.647589
_cell_length_c 8.070287
_cell_angle_alpha 90.000000
_cell_angle_beta 90.000000
_cell_angle_gamma 120.000000
_cell_volume 1301.761676
_symmetry_space_group_name_H-M "P 31 2 1"
_symmetry_group_IT_number 152
_symmetry_cell_setting 'hexagonal'
loop_
_space_group_symop_operation_xyz
x,y,z
-y,x-y,1/3+z
-x+y,-x,2/3+z
x-y,-y,2/3-z
-x,-x+y,1/3-z
y,x,-z
loop_
_atom_site_type_symbol
_atom_site_label
_atom_site_fract_x
_atom_site_fract_y
_atom_site_fract_z
Si Si1 0.495384 0.617094 0.418904
Si Si2 0.762464 0.222100 0.946312
Si Si3 0.581725 0.712813 0.051406
Si Si4 0.838423 0.077598 0.457599
Si Si5 0.901144 0.810827 0.299872
O O1 0.579996 0.579996 0.500000
O O2 0.496707 0.706595 0.550864
O O3 0.370142 0.511106 0.407578
O O4 0.528522 0.664633 0.231534
O O5 0.807548 0.298666 0.778633
O O6 0.829773 0.153578 0.957594
O O7 0.661945 0.847391 0.083736
O O8 0.657567 0.657567 0.000000
O O9 0.963091 0.163730 0.387613
O O10 0.736452 0.000000 0.333334
O O11 0.852758 0.978505 0.538469
O O12 0.000000 0.874828 0.166667
#
# Coordination Sequence:
#
# PCOD9576180 Si02
#       5
#     6   6   6   6   6
#     4  12  28  50  78 110 142 194 252 313 377 439
#     4  12  28  49  75 107 147 188 254 312 372 436
#     4  12  24  50  76 101 149 201 242 307 370 432
#     4  12  23  37  67 108 152 194 235 277 355 451
#     4  12  21  39  63 102 147 187 229 285 349 442
#
# _framework density 23.045691999999999
#
# number of rings (size 3 to 8) (size 9 to 14) (size 15 to 20)
#    0.000    0.000    6.000    4.200    2.800    0.000 
#    0.000    1.000    0.000    0.000    0.000    0.000 
#    0.000    0.000    0.000    0.000    0.000    0.000 
#
# Total GULP energy -167569.163940 kJ/mol
# GULP energy per Si atom -5585.638798 kJ/mol
# Density = 2.299324 g / cm^3
# Si number density = 23.045692 Si / 1000 Ang^3
#
#
#
# Elastic Constant Matrix: (Units=GPa)
#
#
# Indices 1 2 3 4 5 6 
#
# 1 62.3255 10.3427 34.4804 -1.4276 0.0000 0.0000
# 2 10.3427 62.3255 34.4804 1.4276 0.0000 0.0000
# 3 34.4804 34.4804 145.4050 0.0000 0.0000 0.0000
# 4 -1.4276 1.4276 0.0000 25.1016 0.0000 0.0000
# 5 0.0000 0.0000 0.0000 0.0000 25.1016 -1.4276
# 6 0.0000 0.0000 0.0000 0.0000 -1.4276 25.9914
#
#
#
# Elastic Compliance Matrix: (Units=1/GPa)
#
#
# Indices 1 2 3 4 5 6 
#
# 1 0.018527 -0.000770 -0.004211 0.001098 0.000000 0.000000
# 2 -0.000770 0.018527 -0.004211 -0.001098 0.000000 0.000000
# 3 -0.004211 -0.004211 0.008874 0.000000 0.000000 0.000000
# 4 0.001098 -0.001098 0.000000 0.039963 0.000000 0.000000
# 5 0.000000 0.000000 0.000000 0.000000 0.039963 0.002195
# 6 0.000000 0.000000 0.000000 0.000000 0.002195 0.038595
#
#
# Mechanical properties :
#
#
# Convention : Reuss Voigt Hill
#
# Bulk Modulus (GPa) = 36.30366 47.62922 41.96644
# Shear Modulus (GPa) = 26.03962 27.95574 26.99768
#
# Velocity S-wave (km/s) = 3.36506 3.48668 3.42641
# Velocity P-wave (km/s) = 5.55746 6.07630 5.82266
#
# Compressibility (1/GPa) = 0.02754543
#
# Stress axis : x y z
#
# Youngs Moduli (GPa) = 53.97446 53.97446 112.68377
#
# Poissons Ratio (x) = 0.04157 0.47449
# Poissons Ratio (y) = 0.04157 0.47449
# Poissons Ratio (z) = 0.22728 0.22728
#
# Static dielectric constant tensor:
#      x y z
#    x 1.859900 0.000000 0.000000 
#    y 0.000000 1.859900 0.000000 
#    z 0.000000 0.000000 2.118900 
# 
# From -- ./inp_files/1020.got.cif
#   From: 2010.05.17/outbox.cif.g08.bks.cpg/sg152_1_cif.got.tgz:1020.got - 2010.05.20 10:36:06.
