data_PCOD9576114
_publ_section_title
;
Structure prediction by ZEFSAII (Michael W. Deem and Ramdas Pophale) SiO2 
 PCOD9576114
Probable space group: P 31 2 1
;
_chemical_formula_sum "Si O2"
_cell_formula_units_Z 15
_cell_length_a 7.232601
_cell_length_b 7.232601
_cell_length_c 11.801361
_cell_angle_alpha 90.000000
_cell_angle_beta 90.000000
_cell_angle_gamma 120.000000
_cell_volume 534.628051
_symmetry_space_group_name_H-M "P 31 2 1"
_symmetry_group_IT_number 152
_symmetry_cell_setting 'hexagonal'
loop_
_space_group_symop_operation_xyz
x,y,z
-y,x-y,1/3+z
-x+y,-x,2/3+z
x-y,-y,2/3-z
-x,-x+y,1/3-z
y,x,-z
loop_
_atom_site_type_symbol
_atom_site_label
_atom_site_fract_x
_atom_site_fract_y
_atom_site_fract_z
Si Si1 0.514356 0.858578 0.739730
Si Si2 0.000000 0.937791 0.166667
Si Si3 0.692979 0.152622 0.435486
O O1 0.430573 0.633319 0.802075
O O2 0.376771 0.822273 0.630438
O O3 0.477506 0.000000 0.833334
O O4 0.772546 0.979630 0.731864
O O5 0.780308 0.937321 0.185201
O O6 0.549439 0.000000 0.333334
#
# Coordination Sequence:
#
# PCOD9576114 Si02
#       3
#     6   3   6
#     4  10  25  47  75 108 165 221 275 354 437 506
#     4  10  26  44  72 116 154 218 282 348 432 494
#     4  12  25  46  79 118 167 221 292 357 431 522
#
# _framework density 28.056888000000001
#
# number of rings (size 3 to 8) (size 9 to 14) (size 15 to 20)
#    1.200    0.000    0.000    4.800    2.800    4.800 
#    0.000    0.000    0.000    0.000    0.000    0.000 
#    0.000    0.000    0.000    0.000    0.000    0.000 
#
# Total GULP energy -83934.354102 kJ/mol
# GULP energy per Si atom -5595.623607 kJ/mol
# Density = 2.799303 g / cm^3
# Si number density = 28.056888 Si / 1000 Ang^3
#
#
#
# Elastic Constant Matrix: (Units=GPa)
#
#
# Indices 1 2 3 4 5 6 
#
# 1 171.2320 70.2908 59.9540 9.8987 0.0001 0.0000
# 2 70.2908 171.2320 59.9540 -9.8987 -0.0001 0.0000
# 3 59.9540 59.9540 116.4769 0.0000 0.0000 0.0000
# 4 9.8987 -9.8987 0.0000 60.1120 0.0000 -0.0001
# 5 0.0001 -0.0001 0.0000 0.0000 60.1120 9.8987
# 6 0.0000 0.0000 0.0000 -0.0001 9.8987 50.4706
#
#
#
# Elastic Compliance Matrix: (Units=1/GPa)
#
#
# Indices 1 2 3 4 5 6 
#
# 1 0.007900 -0.002338 -0.002863 -0.001686 0.000000 0.000000
# 2 -0.002338 0.007900 -0.002863 0.001686 0.000000 0.000000
# 3 -0.002863 -0.002863 0.011532 0.000000 0.000000 0.000000
# 4 -0.001686 0.001686 0.000000 0.017191 0.000000 0.000000
# 5 0.000000 0.000000 0.000000 0.000000 0.017191 -0.003372
# 6 0.000000 0.000000 0.000000 0.000000 -0.003372 0.020475
#
#
# Mechanical properties :
#
#
# Convention : Reuss Voigt Hill
#
# Bulk Modulus (GPa) = 89.24748 93.25984 91.25366
# Shear Modulus (GPa) = 48.99580 52.05506 50.52543
#
# Velocity S-wave (km/s) = 4.18341 4.31204 4.24821
# Velocity P-wave (km/s) = 7.43055 7.62255 7.52716
#
# Compressibility (1/GPa) = 0.01120480
#
# Stress axis : x y z
#
# Youngs Moduli (GPa) = 126.58992 126.58992 86.71172
#
# Poissons Ratio (x) = 0.29595 0.24823
# Poissons Ratio (y) = 0.29595 0.24823
# Poissons Ratio (z) = 0.36239 0.36239
#
# Static dielectric constant tensor:
#      x y z
#    x 2.238710 0.000000 0.000000 
#    y 0.000000 2.238710 0.000000 
#    z 0.000000 0.000000 2.229560 
# 
# From -- ./inp_files/1417.got.cif
#   From: 2010.05.17/outbox.cif.g08.bks.cpg/sg152_1_cif.got.tgz:1417.got - 2010.05.20 10:36:06.
