data_PCOD9576773
_publ_section_title
;
Structure prediction by ZEFSAII (Michael W. Deem and Ramdas Pophale) SiO2 
 PCOD9576773
Probable space group: R 3 2
;
_chemical_formula_sum "Si O2"
_cell_formula_units_Z 126
_cell_length_a 27.597532
_cell_length_b 27.597532
_cell_length_c 11.980312
_cell_angle_alpha 90.000000
_cell_angle_beta 90.000000
_cell_angle_gamma 120.000000
_cell_volume 7902.040501
_symmetry_space_group_name_H-M "R 3 2"
_symmetry_group_IT_number 155
_symmetry_cell_setting 'hexagonal'
loop_
_space_group_symop_operation_xyz
x,y,z
-y,x-y,z
-x+y,-x,z
x-y,-y,-z
-x,-x+y,-z
y,x,-z
2/3+x,1/3+y,1/3+z
2/3-y,1/3+x-y,1/3+z
2/3-x+y,1/3-x,1/3+z
2/3+x-y,1/3-y,1/3-z
2/3-x,1/3-x+y,1/3-z
2/3+y,1/3+x,1/3-z
1/3+x,2/3+y,2/3+z
1/3-y,2/3+x-y,2/3+z
1/3-x+y,2/3-x,2/3+z
1/3+x-y,2/3-y,2/3-z
1/3-x,2/3-x+y,2/3-z
1/3+y,2/3+x,2/3-z
loop_
_atom_site_type_symbol
_atom_site_label
_atom_site_fract_x
_atom_site_fract_y
_atom_site_fract_z
Si Si1 0.257179 0.912381 0.087033
Si Si2 0.417546 0.089459 0.116063
Si Si3 0.398436 0.257638 0.623412
Si Si4 0.833064 0.218816 0.248356
Si Si5 0.933811 0.733283 0.971294
Si Si6 0.090952 0.267569 0.371043
Si Si7 0.730240 0.021684 0.373993
O O1 0.260656 0.868995 0.172250
O O2 0.268906 0.968709 0.147563
O O3 0.296407 0.922708 0.982262
O O4 0.196309 0.889043 0.032918
O O5 0.419118 0.138328 0.193086
O O6 0.472096 0.098601 0.048432
O O7 0.333334 0.229171 0.666667
O O8 0.405100 0.253814 0.491374
O O9 0.420016 0.222075 0.691661
O O10 0.424249 0.323520 0.644825
O O11 0.850547 0.183880 0.166667
O O12 0.767955 0.183426 0.277100
O O13 0.912789 0.666418 0.978466
O O14 0.000000 0.768461 0.000000
O O15 0.124113 0.333334 0.333334
O O16 0.724499 0.000000 0.500000
O O17 0.666667 0.995555 0.333334
#
# Coordination Sequence:
#
# PCOD9576773 Si02
#       7
#    18  18  18  18  18  18  18
#     4  10  20  31  48  72  95 132 170 208 237 293
#     4  10  20  32  46  68  95 130 169 203 245 289
#     4  10  18  32  45  67  88 121 167 208 245 289
#     4  10  22  33  44  66  98 125 166 214 255 288
#     4  11  22  32  48  65  92 127 170 210 252 296
#     4   9  18  30  48  64  92 123 166 208 234 282
#     4  10  18  29  46  66  86 118 167 207 243 289
#
# _framework density 15.945247999999999
#
# number of rings (size 3 to 8) (size 9 to 14) (size 15 to 20)
#    0.000    2.000    2.857    3.429    2.000   11.429 
#    0.000    0.000    0.000    0.000    0.000    0.000 
#    0.000    0.000    0.000   27.429    3.429    8.000 
#
# Total GULP energy -233818.221705 kJ/mol
# GULP energy per Si atom -5567.100517 kJ/mol
# Density = 1.590896 g / cm^3
# Si number density = 15.945248 Si / 1000 Ang^3
#
#
#
# Elastic Constant Matrix: (Units=GPa)
#
#
# Indices 1 2 3 4 5 6 
#
# 1 61.2333 30.2347 27.7658 0.1281 0.0004 0.0001
# 2 30.2347 61.2330 27.7653 -0.1281 0.0001 0.0000
# 3 27.7658 27.7653 85.2574 0.0007 0.0026 0.0002
# 4 0.1281 -0.1281 0.0007 22.6227 0.0004 0.0001
# 5 0.0004 0.0001 0.0026 0.0004 22.6238 0.1282
# 6 0.0001 0.0000 0.0002 0.0001 0.1282 15.4991
#
#
#
# Elastic Compliance Matrix: (Units=1/GPa)
#
#
# Indices 1 2 3 4 5 6 
#
# 1 0.022944 -0.009317 -0.004438 -0.000183 0.000000 0.000000
# 2 -0.009317 0.022944 -0.004438 0.000183 0.000001 0.000000
# 3 -0.004438 -0.004438 0.014620 0.000000 -0.000002 0.000000
# 4 -0.000183 0.000183 0.000000 0.044205 -0.000001 0.000000
# 5 0.000000 0.000001 -0.000002 -0.000001 0.044203 -0.000366
# 6 0.000000 0.000000 0.000000 0.000000 -0.000366 0.064523
#
#
# Mechanical properties :
#
#
# Convention : Reuss Voigt Hill
#
# Bulk Modulus (GPa) = 41.45536 42.13949 41.79742
# Shear Modulus (GPa) = 19.38991 20.27965 19.83478
#
# Velocity S-wave (km/s) = 3.49095 3.57014 3.53077
# Velocity P-wave (km/s) = 6.50415 6.59390 6.54918
#
# Compressibility (1/GPa) = 0.02412233
#
# Stress axis : x y z
#
# Youngs Moduli (GPa) = 43.58402 43.58412 68.40063
#
# Poissons Ratio (x) = 0.40608 0.30356
# Poissons Ratio (y) = 0.40608 0.30355
# Poissons Ratio (z) = 0.19343 0.19342
#
# Static dielectric constant tensor:
#      x y z
#    x 1.568540 0.000000 0.000000 
#    y 0.000000 1.568540 0.000000 
#    z 0.000000 0.000000 1.616140 
# 
# From -- ./inp_files/4229.got.cif
#   From: 2010.05.17/outbox.cif.g08.bks.cpg/sg155_3_cif.got.tgz:4229.got - 2010.05.20 10:44:35.
