data_PCOD9576924
_publ_section_title
;
Structure prediction by ZEFSAII (Michael W. Deem and Ramdas Pophale) SiO2 
 PCOD9576924
Probable space group: R 3 2
;
_chemical_formula_sum "Si O2"
_cell_formula_units_Z 75
_cell_length_a 14.205626
_cell_length_b 14.205626
_cell_length_c 21.127617
_cell_angle_alpha 90.000000
_cell_angle_beta 90.000000
_cell_angle_gamma 120.000000
_cell_volume 3692.341829
_symmetry_space_group_name_H-M "R 3 2"
_symmetry_group_IT_number 155
_symmetry_cell_setting 'hexagonal'
loop_
_space_group_symop_operation_xyz
x,y,z
-y,x-y,z
-x+y,-x,z
x-y,-y,-z
-x,-x+y,-z
y,x,-z
2/3+x,1/3+y,1/3+z
2/3-y,1/3+x-y,1/3+z
2/3-x+y,1/3-x,1/3+z
2/3+x-y,1/3-y,1/3-z
2/3-x,1/3-x+y,1/3-z
2/3+y,1/3+x,1/3-z
1/3+x,2/3+y,2/3+z
1/3-y,2/3+x-y,2/3+z
1/3-x+y,2/3-x,2/3+z
1/3+x-y,2/3-y,2/3-z
1/3-x,2/3-x+y,2/3-z
1/3+y,2/3+x,2/3-z
loop_
_atom_site_type_symbol
_atom_site_label
_atom_site_fract_x
_atom_site_fract_y
_atom_site_fract_z
Si Si1 0.666668 0.333334 0.678639
Si Si2 0.239414 0.088758 0.336789
Si Si3 0.347321 0.977034 0.570212
Si Si4 0.944934 0.781275 0.129364
Si Si5 0.000000 0.724026 0.000000
Si Si6 0.666668 0.333334 0.527321
O O1 0.786298 0.362651 0.697416
O O2 0.666668 0.333334 0.602475
O O3 0.316549 0.072221 0.385057
O O4 0.253231 0.035220 0.271954
O O5 0.281163 0.216627 0.326847
O O6 0.396354 0.898163 0.561430
O O7 0.322366 0.000000 0.500000
O O8 0.908483 0.666667 0.166667
O O9 0.007940 0.786063 0.065382
O O10 0.999474 0.891199 0.169834
#
# Coordination Sequence:
#
# PCOD9576924 Si02
#       6
#     6  18  18  18   9   6
#     4  12  24  39  53  80 117 162 207 229 266 352
#     4  10  22  37  59  84 115 151 190 236 287 343
#     4   9  18  39  62  83 111 144 185 243 298 341
#     4  10  21  37  61  90 116 147 192 241 300 362
#     4  10  20  38  58  86 120 144 184 248 300 350
#     4  12  21  34  61  85 115 156 189 241 302 349
#
# _framework density 20.312313
#
# number of rings (size 3 to 8) (size 9 to 14) (size 15 to 20)
#    0.000    1.920    0.000    5.760    0.000    4.800 
#    0.000    8.400    0.000    0.000    0.000    0.000 
#    0.000    0.000    0.000    0.000    0.000    0.000 
#
# Total GULP energy -139406.365754 kJ/mol
# GULP energy per Si atom -5576.254630 kJ/mol
# Density = 2.026608 g / cm^3
# Si number density = 20.312313 Si / 1000 Ang^3
#
#
#
# Elastic Constant Matrix: (Units=GPa)
#
#
# Indices 1 2 3 4 5 6 
#
# 1 56.1800 28.6577 11.7014 -3.1001 -0.0001 0.0000
# 2 28.6577 56.1801 11.7011 3.0998 0.0001 0.0000
# 3 11.7014 11.7011 92.8452 -0.0004 0.0000 0.0000
# 4 -3.1001 3.0998 -0.0004 21.6418 0.0000 0.0001
# 5 -0.0001 0.0001 0.0000 0.0000 21.6413 -3.0999
# 6 0.0000 0.0000 0.0000 0.0001 -3.0999 13.7613
#
#
#
# Elastic Compliance Matrix: (Units=1/GPa)
#
#
# Indices 1 2 3 4 5 6 
#
# 1 0.024879 -0.012667 -0.001539 0.005378 0.000000 0.000000
# 2 -0.012667 0.024879 -0.001539 -0.005378 0.000000 0.000000
# 3 -0.001539 -0.001539 0.011159 0.000000 0.000000 0.000000
# 4 0.005378 -0.005378 0.000000 0.047748 0.000000 0.000000
# 5 0.000000 0.000000 0.000000 0.000000 0.047749 0.010756
# 6 0.000000 0.000000 0.000000 0.000000 0.010756 0.075091
#
#
# Mechanical properties :
#
#
# Convention : Reuss Voigt Hill
#
# Bulk Modulus (GPa) = 33.98370 34.36953 34.17661
# Shear Modulus (GPa) = 18.32835 21.61854 19.97345
#
# Velocity S-wave (km/s) = 3.00714 3.26591 3.13919
# Velocity P-wave (km/s) = 5.36880 5.58380 5.47736
#
# Compressibility (1/GPa) = 0.02942587
#
# Stress axis : x y z
#
# Youngs Moduli (GPa) = 40.19493 40.19515 89.61739
#
# Poissons Ratio (x) = 0.50915 0.13793
# Poissons Ratio (y) = 0.50915 0.13792
# Poissons Ratio (z) = 0.06186 0.06186
#
# Static dielectric constant tensor:
#      x y z
#    x 1.741400 0.000000 0.000000 
#    y 0.000000 1.741400 0.000000 
#    z 0.000000 0.000000 1.789470 
# 
# From -- ./inp_files/6842.got.cif
#   From: 2010.05.17/outbox.cif.g08.bks.cpg/sg155_4_cif.got.tgz:6842.got - 2010.05.20 10:44:35.
