data_PCOD9576146
_publ_section_title
;
Structure prediction by ZEFSAII (Michael W. Deem and Ramdas Pophale) SiO2 
 PCOD9576146
Probable space group: P 31 2 1
;
_chemical_formula_sum "Si O2"
_cell_formula_units_Z 36
_cell_length_a 11.530094
_cell_length_b 11.530094
_cell_length_c 14.981380
_cell_angle_alpha 90.000000
_cell_angle_beta 90.000000
_cell_angle_gamma 120.000000
_cell_volume 1724.837348
_symmetry_space_group_name_H-M "P 31 2 1"
_symmetry_group_IT_number 152
_symmetry_cell_setting 'hexagonal'
loop_
_space_group_symop_operation_xyz
x,y,z
-y,x-y,1/3+z
-x+y,-x,2/3+z
x-y,-y,2/3-z
-x,-x+y,1/3-z
y,x,-z
loop_
_atom_site_type_symbol
_atom_site_label
_atom_site_fract_x
_atom_site_fract_y
_atom_site_fract_z
Si Si1 0.250646 0.400661 0.215703
Si Si2 0.938521 0.313755 0.962074
Si Si3 0.737922 0.154287 0.808983
Si Si4 0.842437 0.607549 0.659381
Si Si5 0.306213 0.701233 0.543527
Si Si6 0.867409 0.554045 0.943841
O O1 0.127182 0.356789 0.281240
O O2 0.224208 0.411337 0.112313
O O3 0.359719 0.550492 0.246301
O O4 0.322791 0.314373 0.228557
O O5 0.861875 0.220139 0.877018
O O6 0.907733 0.437657 0.961060
O O7 0.092229 0.351807 0.963478
O O8 0.677852 0.253092 0.816602
O O9 0.763024 0.157238 0.703469
O O10 0.637656 0.000000 0.833334
O O11 0.805064 0.471775 0.713670
O O12 0.000000 0.711962 0.666667
O O13 0.257085 0.744128 0.456297
#
# Coordination Sequence:
#
# PCOD9576146 Si02
#       6
#     6   6   6   6   6   6
#     4  12  23  39  70  95 129 175 220 276 337 397
#     4  11  25  41  67 101 131 180 226 269 341 405
#     4  11  23  40  66  98 137 172 215 278 334 401
#     4  12  26  46  66  94 141 178 225 279 331 403
#     4  11  24  40  65 103 135 169 218 278 344 396
#     4  11  22  40  63 102 135 166 223 277 341 396
#
# _framework density 20.871532999999999
#
# number of rings (size 3 to 8) (size 9 to 14) (size 15 to 20)
#    0.000    0.667    6.667    1.500    4.667    0.000 
#    0.000    2.500    0.000    1.000    0.000    0.000 
#    0.000    0.000    0.000    0.000    0.000    0.000 
#
# Total GULP energy -201069.476315 kJ/mol
# GULP energy per Si atom -5585.263231 kJ/mol
# Density = 2.082403 g / cm^3
# Si number density = 20.871533 Si / 1000 Ang^3
#
#
#
# Elastic Constant Matrix: (Units=GPa)
#
#
# Indices 1 2 3 4 5 6 
#
# 1 68.0053 31.7705 23.1755 0.4677 0.0001 0.0000
# 2 31.7705 68.0053 23.1755 -0.4677 -0.0001 0.0000
# 3 23.1755 23.1755 128.2785 0.0000 0.0000 0.0000
# 4 0.4677 -0.4677 0.0000 28.3167 0.0000 -0.0001
# 5 0.0001 -0.0001 0.0000 0.0000 28.3167 0.4677
# 6 0.0000 0.0000 0.0000 -0.0001 0.4677 18.1174
#
#
#
# Elastic Compliance Matrix: (Units=1/GPa)
#
#
# Indices 1 2 3 4 5 6 
#
# 1 0.019275 -0.008334 -0.001977 -0.000456 0.000000 0.000000
# 2 -0.008334 0.019275 -0.001977 0.000456 0.000000 0.000000
# 3 -0.001977 -0.001977 0.008510 0.000000 0.000000 0.000000
# 4 -0.000456 0.000456 0.000000 0.035330 0.000000 0.000000
# 5 0.000000 0.000000 0.000000 0.000000 0.035330 -0.000912
# 6 0.000000 0.000000 0.000000 0.000000 -0.000912 0.055219
#
#
# Mechanical properties :
#
#
# Convention : Reuss Voigt Hill
#
# Bulk Modulus (GPa) = 44.47461 46.72577 45.60019
# Shear Modulus (GPa) = 24.38917 27.36133 25.87525
#
# Velocity S-wave (km/s) = 3.42210 3.62462 3.52481
# Velocity P-wave (km/s) = 6.08024 6.32084 6.20171
#
# Compressibility (1/GPa) = 0.02248474
#
# Stress axis : x y z
#
# Youngs Moduli (GPa) = 51.88037 51.88037 117.51231
#
# Poissons Ratio (x) = 0.43239 0.23228
# Poissons Ratio (y) = 0.43239 0.23228
# Poissons Ratio (z) = 0.10255 0.10255
#
# Static dielectric constant tensor:
#      x y z
#    x 1.766150 0.000000 0.000000 
#    y 0.000000 1.766150 0.000000 
#    z 0.000000 0.000000 1.763210 
# 
# From -- ./inp_files/2028.got.cif
#   From: 2010.05.17/outbox.cif.g08.bks.cpg/sg152_2_cif.got.tgz:2028.got - 2010.05.20 10:36:06.
