data_PCOD9576384
_publ_section_title
;
Structure prediction by ZEFSAII (Michael W. Deem and Ramdas Pophale) SiO2 
 PCOD9576384
Probable space group: P 32 2 1
;
_chemical_formula_sum "Si O2"
_cell_formula_units_Z 39
_cell_length_a 13.065032
_cell_length_b 13.065032
_cell_length_c 12.659412
_cell_angle_alpha 90.000000
_cell_angle_beta 90.000000
_cell_angle_gamma 120.000000
_cell_volume 1871.393520
_symmetry_space_group_name_H-M "P 32 2 1"
_symmetry_group_IT_number 154
_symmetry_cell_setting 'hexagonal'
loop_
_space_group_symop_operation_xyz
x,y,z
-y,x-y,2/3+z
-x+y,-x,1/3+z
x-y,-y,1/3-z
-x,-x+y,2/3-z
y,x,-z
loop_
_atom_site_type_symbol
_atom_site_label
_atom_site_fract_x
_atom_site_fract_y
_atom_site_fract_z
Si Si1 0.583212 0.838052 0.956006
Si Si2 0.407984 0.138605 0.135803
Si Si3 0.264811 0.000000 0.666667
Si Si4 0.894750 0.685645 0.669851
Si Si5 0.761080 0.110057 0.603825
Si Si6 0.992865 0.120471 0.535230
Si Si7 0.364009 0.506293 0.498602
O O1 0.567581 0.850105 0.831997
O O2 0.695398 0.966364 0.989243
O O3 0.617423 0.736921 0.972353
O O4 0.488983 0.818164 0.044490
O O5 0.368441 0.197674 0.226645
O O6 0.547672 0.186235 0.132618
O O7 0.338436 0.000000 0.166667
O O8 0.376648 0.164878 0.021001
O O9 0.205356 0.022770 0.565478
O O10 0.884214 0.797799 0.708777
O O11 0.837485 0.581297 0.758569
O O12 0.857554 0.075072 0.562928
O O13 0.659674 0.000000 0.666667
O O14 0.017161 0.017161 0.500000
O O15 0.442460 0.442460 0.500000
#
# Coordination Sequence:
#
# PCOD9576384 Si02
#       7
#     6   6   3   6   6   6   6
#     4  10  19  34  56  84 118 163 205 252 306 370
#     4  11  22  38  57  87 124 165 209 258 309 372
#     4  10  18  28  48  84 120 158 204 246 288 364
#     4  11  18  36  59  81 119 163 215 254 304 372
#     4  11  23  33  52  90 136 169 196 246 315 389
#     4  11  20  29  49  82 130 176 206 236 288 382
#     4   9  20  38  60  80 103 156 223 262 300 354
#
# _framework density 20.840085999999999
#
# number of rings (size 3 to 8) (size 9 to 14) (size 15 to 20)
#    0.000    1.538    6.154    0.462    1.077    0.615 
#    0.000    1.538    0.000    0.000    2.000    0.000 
#    0.000    0.000    0.000    0.000    0.000    0.000 
#
# Total GULP energy -217656.447418 kJ/mol
# GULP energy per Si atom -5580.934549 kJ/mol
# Density = 2.079265 g / cm^3
# Si number density = 20.840086 Si / 1000 Ang^3
#
#
#
# Elastic Constant Matrix: (Units=GPa)
#
#
# Indices 1 2 3 4 5 6 
#
# 1 29.8077 15.0781 14.9671 1.7658 0.0000 0.0000
# 2 15.0781 29.8077 14.9671 -1.7658 0.0000 0.0000
# 3 14.9671 14.9671 134.6318 0.0000 0.0000 0.0000
# 4 1.7658 -1.7658 0.0000 16.2944 0.0000 0.0000
# 5 0.0000 0.0000 0.0000 0.0000 16.2944 1.7658
# 6 0.0000 0.0000 0.0000 0.0000 1.7658 7.3648
#
#
#
# Elastic Compliance Matrix: (Units=1/GPa)
#
#
# Indices 1 2 3 4 5 6 
#
# 1 0.046882 -0.022820 -0.002675 -0.007553 0.000000 0.000000
# 2 -0.022820 0.046882 -0.002675 0.007553 0.000000 0.000000
# 3 -0.002675 -0.002675 0.008022 0.000000 0.000000 0.000000
# 4 -0.007553 0.007553 0.000000 0.063008 0.000000 0.000000
# 5 0.000000 0.000000 0.000000 0.000000 0.063008 -0.015107
# 6 0.000000 0.000000 0.000000 0.000000 -0.015107 0.139404
#
#
# Mechanical properties :
#
#
# Convention : Reuss Voigt Hill
#
# Bulk Modulus (GPa) = 22.00333 31.58576 26.79455
# Shear Modulus (GPa) = 11.39744 17.93968 14.66856
#
# Velocity S-wave (km/s) = 2.34113 2.93717 2.65592
# Velocity P-wave (km/s) = 4.22953 5.16641 4.72126
#
# Compressibility (1/GPa) = 0.04544766
#
# Stress axis : x y z
#
# Youngs Moduli (GPa) = 21.33003 21.33003 124.65027
#
# Poissons Ratio (x) = 0.48674 0.33345
# Poissons Ratio (y) = 0.48674 0.33345
# Poissons Ratio (z) = 0.05706 0.05706
#
# Static dielectric constant tensor:
#      x y z
#    x 1.754320 0.000000 0.000000 
#    y 0.000000 1.754320 0.000000 
#    z 0.000000 0.000000 1.777790 
# 
# From -- ./inp_files/1672.got.cif
#   From: 2010.05.17/outbox.cif.g08.bks.cpg/sg154_1_cif.got.tgz:1672.got - 2010.05.20 10:41:43.
