data_PCOD9576973
_publ_section_title
;
Structure prediction by ZEFSAII (Michael W. Deem and Ramdas Pophale) SiO2 
 PCOD9576973
Probable space group: R 3 2
;
_chemical_formula_sum "Si O2"
_cell_formula_units_Z 72
_cell_length_a 21.727527
_cell_length_b 21.727527
_cell_length_c 8.019506
_cell_angle_alpha 90.000000
_cell_angle_beta 90.000000
_cell_angle_gamma 120.000000
_cell_volume 3278.678591
_symmetry_space_group_name_H-M "R 3 2"
_symmetry_group_IT_number 155
_symmetry_cell_setting 'hexagonal'
loop_
_space_group_symop_operation_xyz
x,y,z
-y,x-y,z
-x+y,-x,z
x-y,-y,-z
-x,-x+y,-z
y,x,-z
2/3+x,1/3+y,1/3+z
2/3-y,1/3+x-y,1/3+z
2/3-x+y,1/3-x,1/3+z
2/3+x-y,1/3-y,1/3-z
2/3-x,1/3-x+y,1/3-z
2/3+y,1/3+x,1/3-z
1/3+x,2/3+y,2/3+z
1/3-y,2/3+x-y,2/3+z
1/3-x+y,2/3-x,2/3+z
1/3+x-y,2/3-y,2/3-z
1/3-x,2/3-x+y,2/3-z
1/3+y,2/3+x,2/3-z
loop_
_atom_site_type_symbol
_atom_site_label
_atom_site_fract_x
_atom_site_fract_y
_atom_site_fract_z
Si Si1 0.725893 0.195257 0.725655
Si Si2 0.413663 0.289724 0.172486
Si Si3 0.790069 0.703930 0.489280
Si Si4 0.195463 0.447729 0.625897
O O1 0.666667 0.202518 0.833334
O O2 0.676446 0.115930 0.648073
O O3 0.791655 0.213868 0.848765
O O4 0.764995 0.236212 0.554640
O O5 0.333334 0.229216 0.166667
O O6 0.413932 0.333334 0.333334
O O7 0.457640 0.252737 0.235054
O O8 0.748064 0.748064 0.500000
O O9 0.775705 0.666667 0.666667
O O10 0.764521 0.634677 0.373269
O O11 0.161969 0.495302 0.666667
#
# Coordination Sequence:
#
# PCOD9576973 Si02
#       4
#    18  18  18  18
#     4  10  22  39  59  88 127 164 211 261 311 379
#     4  10  22  38  61  89 122 166 211 263 325 385
#     4  10  21  37  61  95 130 163 203 259 322 389
#     4  10  22  40  64  94 128 167 209 265 333 397
#
# _framework density 21.960066999999999
#
# number of rings (size 3 to 8) (size 9 to 14) (size 15 to 20)
#    0.000    2.000    0.000    2.250    0.000   17.000 
#    0.000    0.000    0.000   27.500    0.000    0.000 
#    0.000    0.000    0.000    0.000    0.000    0.000 
#
# Total GULP energy -133615.617821 kJ/mol
# GULP energy per Si atom -5567.317409 kJ/mol
# Density = 2.191008 g / cm^3
# Si number density = 21.960067 Si / 1000 Ang^3
#
#
#
# Elastic Constant Matrix: (Units=GPa)
#
#
# Indices 1 2 3 4 5 6 
#
# 1 15.1512 129.3968 20.1665 -19.5743 0.0106 0.0110
# 2 129.3968 15.1062 20.0445 19.5760 -0.0238 -0.0101
# 3 20.1665 20.0445 78.5960 0.0095 -0.0187 -0.0049
# 4 -19.5743 19.5760 0.0095 13.4362 0.0058 0.0307
# 5 0.0106 -0.0238 -0.0187 0.0058 13.4068 -19.6444
# 6 0.0110 -0.0101 -0.0049 0.0307 -19.6444 -57.4457
#
#
#
# Elastic Compliance Matrix: (Units=1/GPa)
#
#
# Indices 1 2 3 4 5 6 
#
# 1 0.000805 0.006643 -0.001900 -0.008505 0.000003 -0.000006
# 2 0.006643 0.000807 -0.001911 0.008505 -0.000001 0.000006
# 3 -0.001900 -0.001911 0.013698 0.000007 0.000010 -0.000005
# 4 -0.008505 0.008505 0.000007 0.049645 0.000023 0.000016
# 5 0.000003 -0.000001 0.000010 0.000023 0.049691 -0.016992
# 6 -0.000006 0.000006 -0.000005 0.000016 -0.016992 -0.011597
#
#
# Mechanical properties :
#
#
# Convention : Reuss Voigt Hill
#
# Bulk Modulus (GPa) = 47.67683 49.78545 48.73114
# Shear Modulus (GPa) = 47.90362 -10.17085 18.86639
#
# Velocity S-wave (km/s) = 4.67561 -2.15443 2.93426
# Velocity P-wave (km/s) = 7.13486 4.06588 5.80679
#
# Compressibility (1/GPa) = 0.02097455
#
# Stress axis : x y z
#
# Youngs Moduli (GPa) = 1241.66243 1239.88792 73.00207
#
# Poissons Ratio (x) = -8.23713 0.13870
# Poissons Ratio (y) = -8.24892 0.13953
# Poissons Ratio (z) = 2.35906 2.36983
#
# Static dielectric constant tensor:
#      x y z
#    x 2.013790 0.000000 0.000050 
#    y 0.000000 2.014010 -0.000250 
#    z 0.000050 -0.000250 2.197930 
# 
# From -- ./inp_files/2137.got.cif
#   From: 2010.05.17/outbox.cif.g08.bks.cpg/sg155_2_cif.got.tgz:2137.got - 2010.05.20 10:44:35.
