data_PCOD9576723
_publ_section_title
;
Structure prediction by ZEFSAII (Michael W. Deem and Ramdas Pophale) SiO2 
 PCOD9576723
Probable space group: P 32 2 1
;
_chemical_formula_sum "Si O2"
_cell_formula_units_Z 18
_cell_length_a 7.509571
_cell_length_b 7.509571
_cell_length_c 17.474157
_cell_angle_alpha 90.000000
_cell_angle_beta 90.000000
_cell_angle_gamma 120.000000
_cell_volume 853.408807
_symmetry_space_group_name_H-M "P 32 2 1"
_symmetry_group_IT_number 154
_symmetry_cell_setting 'hexagonal'
loop_
_space_group_symop_operation_xyz
x,y,z
-y,x-y,2/3+z
-x+y,-x,1/3+z
x-y,-y,1/3-z
-x,-x+y,2/3-z
y,x,-z
loop_
_atom_site_type_symbol
_atom_site_label
_atom_site_fract_x
_atom_site_fract_y
_atom_site_fract_z
Si Si1 0.515126 0.461953 0.257240
Si Si2 0.061115 0.226333 0.188158
Si Si3 0.642907 0.121772 0.245820
O O1 0.683488 0.673337 0.218070
O O2 0.603669 0.310942 0.243685
O O3 0.478396 0.470276 0.346998
O O4 0.291825 0.370337 0.217412
O O5 0.884646 0.194103 0.248610
O O6 0.018376 0.000000 0.166667
O O7 0.563424 0.000000 0.166667
#
# Coordination Sequence:
#
# PCOD9576723 Si02
#       3
#     6   6   6
#     4  12  24  45  70 101 141 183 230 288 350 414
#     4  11  24  45  69 102 137 177 236 284 346 415
#     4  11  24  44  70 101 140 182 233 288 346 416
#
# _framework density 21.091887
#
# number of rings (size 3 to 8) (size 9 to 14) (size 15 to 20)
#    0.000    0.667    3.333    6.000    0.000    0.000 
#    0.000    5.000    0.000    0.000    0.000    0.000 
#    0.000    0.000    0.000    0.000    0.000    0.000 
#
# Total GULP energy -100677.329642 kJ/mol
# GULP energy per Si atom -5593.184980 kJ/mol
# Density = 2.104388 g / cm^3
# Si number density = 21.091887 Si / 1000 Ang^3
#
#
#
# Elastic Constant Matrix: (Units=GPa)
#
#
# Indices 1 2 3 4 5 6 
#
# 1 83.0111 10.5272 32.1853 3.4307 0.0005 0.0000
# 2 10.5272 83.0111 32.1853 -3.4307 -0.0005 0.0000
# 3 32.1853 32.1853 134.2896 0.0000 0.0000 0.0000
# 4 3.4307 -3.4307 0.0000 35.3487 0.0000 -0.0005
# 5 0.0005 -0.0005 0.0000 0.0000 35.3487 3.4307
# 6 0.0000 0.0000 0.0000 -0.0005 3.4307 36.2419
#
#
#
# Elastic Compliance Matrix: (Units=1/GPa)
#
#
# Indices 1 2 3 4 5 6 
#
# 1 0.013363 -0.000561 -0.003068 -0.001351 0.000000 0.000000
# 2 -0.000561 0.013363 -0.003068 0.001351 0.000000 0.000000
# 3 -0.003068 -0.003068 0.008917 0.000000 0.000000 0.000000
# 4 -0.001351 0.001351 0.000000 0.028552 0.000000 0.000000
# 5 0.000000 0.000000 0.000000 0.000000 0.028552 -0.002703
# 6 0.000000 0.000000 0.000000 0.000000 -0.002703 0.027848
#
#
# Mechanical properties :
#
#
# Convention : Reuss Voigt Hill
#
# Bulk Modulus (GPa) = 44.94643 50.01194 47.47919
# Shear Modulus (GPa) = 35.35889 36.41548 35.88718
#
# Velocity S-wave (km/s) = 4.09885 4.15964 4.12936
# Velocity P-wave (km/s) = 6.61490 6.84347 6.73016
#
# Compressibility (1/GPa) = 0.02224871
#
# Stress axis : x y z
#
# Youngs Moduli (GPa) = 74.83217 74.83217 112.14045
#
# Poissons Ratio (x) = 0.04197 0.34409
# Poissons Ratio (y) = 0.04197 0.34409
# Poissons Ratio (z) = 0.22961 0.22961
#
# Static dielectric constant tensor:
#      x y z
#    x 1.757480 0.000000 0.000000 
#    y 0.000000 1.757480 0.000000 
#    z 0.000000 0.000000 1.761650 
# 
# From -- ./inp_files/2192.got.cif
#   From: 2010.05.17/outbox.cif.g08.bks.cpg/sg154_2_cif.got.tgz:2192.got - 2010.05.20 10:41:43.
