data_PCOD9576168
_publ_section_title
;
Structure prediction by ZEFSAII (Michael W. Deem and Ramdas Pophale) SiO2 
 PCOD9576168
Probable space group: P 31 2 1
;
_chemical_formula_sum "Si O2"
_cell_formula_units_Z 18
_cell_length_a 7.989604
_cell_length_b 7.989604
_cell_length_c 12.301943
_cell_angle_alpha 90.000000
_cell_angle_beta 90.000000
_cell_angle_gamma 120.000000
_cell_volume 680.071932
_symmetry_space_group_name_H-M "P 31 2 1"
_symmetry_group_IT_number 152
_symmetry_cell_setting 'hexagonal'
loop_
_space_group_symop_operation_xyz
x,y,z
-y,x-y,1/3+z
-x+y,-x,2/3+z
x-y,-y,2/3-z
-x,-x+y,1/3-z
y,x,-z
loop_
_atom_site_type_symbol
_atom_site_label
_atom_site_fract_x
_atom_site_fract_y
_atom_site_fract_z
Si Si1 0.508281 0.267902 0.835959
Si Si2 0.305813 0.909164 0.227017
Si Si3 0.007451 0.227517 0.328590
O O1 0.543102 0.471099 0.876839
O O2 0.694038 0.278196 0.776683
O O3 0.327242 0.185017 0.754085
O O4 0.433584 0.125771 0.940882
O O5 0.262086 0.000000 0.333334
O O6 0.210043 0.919676 0.115925
O O7 0.877210 0.000000 0.333334
#
# Coordination Sequence:
#
# PCOD9576168 Si02
#       3
#     6   6   6
#     4  11  25  45  73 107 148 198 252 312 379 457
#     4  12  23  44  76 111 152 198 252 315 386 454
#     4  11  25  49  74 104 149 199 255 314 378 454
#
# _framework density 26.467789
#
# number of rings (size 3 to 8) (size 9 to 14) (size 15 to 20)
#    0.000    0.667    0.000    9.000    0.000    0.000 
#    0.000   45.000    0.000    0.000    0.000    0.000 
#    0.000    0.000    0.000    0.000    0.000    0.000 
#
# Total GULP energy -100853.281873 kJ/mol
# GULP energy per Si atom -5602.960104 kJ/mol
# Density = 2.640755 g / cm^3
# Si number density = 26.467789 Si / 1000 Ang^3
#
#
#
# Elastic Constant Matrix: (Units=GPa)
#
#
# Indices 1 2 3 4 5 6 
#
# 1 76.9666 24.4154 24.2049 -9.0363 -0.0001 0.0000
# 2 24.4154 76.9666 24.2049 9.0363 0.0001 0.0000
# 3 24.2049 24.2049 178.1672 0.0000 0.0000 0.0000
# 4 -9.0363 9.0363 0.0000 50.8856 0.0000 0.0001
# 5 -0.0001 0.0001 0.0000 0.0000 50.8856 -9.0363
# 6 0.0000 0.0000 0.0000 0.0001 -9.0363 26.2756
#
#
#
# Elastic Compliance Matrix: (Units=1/GPa)
#
#
# Indices 1 2 3 4 5 6 
#
# 1 0.015407 -0.004859 -0.001433 0.003599 0.000000 0.000000
# 2 -0.004859 0.015407 -0.001433 -0.003599 0.000000 0.000000
# 3 -0.001433 -0.001433 0.006002 0.000000 0.000000 0.000000
# 4 0.003599 -0.003599 0.000000 0.020930 0.000000 0.000000
# 5 0.000000 0.000000 0.000000 0.000000 0.020930 0.007198
# 6 0.000000 0.000000 0.000000 0.000000 0.007198 0.040534
#
#
# Mechanical properties :
#
#
# Convention : Reuss Voigt Hill
#
# Bulk Modulus (GPa) = 46.80337 53.08341 49.94339
# Shear Modulus (GPa) = 35.26506 42.89439 39.07972
#
# Velocity S-wave (km/s) = 3.65413 4.03007 3.84670
# Velocity P-wave (km/s) = 5.96030 6.46178 6.21610
#
# Compressibility (1/GPa) = 0.02136598
#
# Stress axis : x y z
#
# Youngs Moduli (GPa) = 64.90405 64.90405 166.60944
#
# Poissons Ratio (x) = 0.31540 0.23875
# Poissons Ratio (y) = 0.31540 0.23875
# Poissons Ratio (z) = 0.09301 0.09301
#
# Static dielectric constant tensor:
#      x y z
#    x 2.089990 0.000000 0.000000 
#    y 0.000000 2.089990 0.000000 
#    z 0.000000 0.000000 2.082930 
# 
# From -- ./inp_files/1519.got.cif
#   From: 2010.05.17/outbox.cif.g08.bks.cpg/sg152_1_cif.got.tgz:1519.got - 2010.05.20 10:36:06.
