data_PCOD9576223
_publ_section_title
;
Structure prediction by ZEFSAII (Michael W. Deem and Ramdas Pophale) SiO2 
 PCOD9576223
Probable space group: P 32 1 2
;
_chemical_formula_sum "Si O2"
_cell_formula_units_Z 48
_cell_length_a 21.192866
_cell_length_b 21.192866
_cell_length_c 8.819723
_cell_angle_alpha 90.000000
_cell_angle_beta 90.000000
_cell_angle_gamma 120.000000
_cell_volume 3430.559542
_symmetry_space_group_name_H-M "P 32 1 2"
_symmetry_group_IT_number 153
_symmetry_cell_setting 'hexagonal'
loop_
_space_group_symop_operation_xyz
x,y,z
-y,x-y,2/3+z
-x+y,-x,1/3+z
-y,-x,1/3-z
-x+y,y,2/3-z
x,x-y,-z
loop_
_atom_site_type_symbol
_atom_site_label
_atom_site_fract_x
_atom_site_fract_y
_atom_site_fract_z
Si Si1 0.613467 0.895585 0.123500
Si Si2 0.227070 0.690434 0.321651
Si Si3 0.131945 0.382866 0.550567
Si Si4 0.225879 0.238578 0.605996
Si Si5 0.156398 0.234153 0.024389
Si Si6 0.212387 0.144023 0.859529
Si Si7 0.446460 0.809414 0.184947
Si Si8 0.005759 0.147729 0.351809
O O1 0.619518 0.824587 0.170935
O O2 0.680906 0.961532 0.210132
O O3 0.530162 0.870554 0.162643
O O4 0.622328 0.906086 0.942727
O O5 0.264430 0.735571 0.166667
O O6 0.159600 0.700414 0.367276
O O7 0.202744 0.607428 0.286750
O O8 0.289682 0.732614 0.446571
O O9 0.086669 0.313648 0.658494
O O10 0.154692 0.239664 0.672743
O O11 0.255652 0.206440 0.734440
O O12 0.189330 0.182463 0.465583
O O13 0.156547 0.213905 0.201666
O O14 0.161534 0.170538 0.940186
O O15 0.166699 0.070362 0.764978
O O16 0.249180 0.124590 0.000000
O O17 0.413215 0.826430 0.333334
O O18 0.054753 0.109506 0.333334
#
# Coordination Sequence:
#
# PCOD9576223 Si02
#       8
#     6   6   6   6   6   6   6   6
#     4   9  17  29  46  61  70  99 145 173 201 248
#     4   9  18  31  40  57  85 110 133 167 220 266
#     4   9  16  29  45  61  73  97 140 178 201 246
#     4  10  17  30  48  57  73 106 135 170 205 244
#     4   9  17  29  44  60  79  95 134 174 206 242
#     4  10  20  29  39  63  81  98 122 159 215 264
#     4   9  18  32  39  59  85 109 135 168 215 273
#     4   9  17  31  46  58  79 103 131 167 209 265
#
# _framework density 13.991885
#
# number of rings (size 3 to 8) (size 9 to 14) (size 15 to 20)
#    0.000    2.750    1.250    0.750    0.000    4.500 
#   24.750    7.500    0.000    0.000    0.000    0.000 
#    0.000    0.000    0.000    0.000    0.000    0.000 
#
# Total GULP energy -267238.079597 kJ/mol
# GULP energy per Si atom -5567.459992 kJ/mol
# Density = 1.396004 g / cm^3
# Si number density = 13.991885 Si / 1000 Ang^3
#
#
#
# Elastic Constant Matrix: (Units=GPa)
#
#
# Indices 1 2 3 4 5 6 
#
# 1 62.0557 34.7020 28.3065 0.0000 0.0829 0.0000
# 2 34.7020 62.0557 28.3065 0.0000 -0.0829 0.0000
# 3 28.3065 28.3065 56.8971 0.0000 0.0000 0.0000
# 4 0.0000 0.0000 0.0000 20.7638 0.0000 -0.0829
# 5 0.0829 -0.0829 0.0000 0.0000 20.7638 0.0000
# 6 0.0000 0.0000 0.0000 -0.0829 0.0000 13.6768
#
#
#
# Elastic Compliance Matrix: (Units=1/GPa)
#
#
# Indices 1 2 3 4 5 6 
#
# 1 0.025569 -0.010990 -0.007253 0.000000 -0.000146 0.000000
# 2 -0.010990 0.025569 -0.007253 0.000000 0.000146 0.000000
# 3 -0.007253 -0.007253 0.024792 0.000000 0.000000 0.000000
# 4 0.000000 0.000000 0.000000 0.048162 0.000000 0.000292
# 5 -0.000146 0.000146 0.000000 0.000000 0.048162 0.000000
# 6 0.000000 0.000000 0.000000 0.000292 0.000000 0.073118
#
#
# Mechanical properties :
#
#
# Convention : Reuss Voigt Hill
#
# Bulk Modulus (GPa) = 40.09948 40.40429 40.25188
# Shear Modulus (GPa) = 16.41082 17.02046 16.71564
#
# Velocity S-wave (km/s) = 3.42845 3.49155 3.46014
# Velocity P-wave (km/s) = 6.66286 6.72266 6.69283
#
# Compressibility (1/GPa) = 0.02493798
#
# Stress axis : x y z
#
# Youngs Moduli (GPa) = 39.10995 39.10995 40.33499
#
# Poissons Ratio (x) = 0.42982 0.29255
# Poissons Ratio (y) = 0.42982 0.29255
# Poissons Ratio (z) = 0.28366 0.28366
#
# Static dielectric constant tensor:
#      x y z
#    x 1.457840 0.000000 0.000000 
#    y 0.000000 1.457840 0.000000 
#    z 0.000000 0.000000 1.559490 
# 
# From -- ./inp_files/2008.got.cif
#   From: 2010.05.17/outbox.cif.g08.bks.cpg/sg153_2_cif.got.tgz:2008.got - 2010.05.20 10:38:56.
