data_PCOD9576746
_publ_section_title
;
Structure prediction by ZEFSAII (Michael W. Deem and Ramdas Pophale) SiO2 
 PCOD9576746
Probable space group: P 32 2 1
;
_chemical_formula_sum "Si O2"
_cell_formula_units_Z 24
_cell_length_a 9.540550
_cell_length_b 9.540550
_cell_length_c 11.155570
_cell_angle_alpha 90.000000
_cell_angle_beta 90.000000
_cell_angle_gamma 120.000000
_cell_volume 879.365091
_symmetry_space_group_name_H-M "P 32 2 1"
_symmetry_group_IT_number 154
_symmetry_cell_setting 'hexagonal'
loop_
_space_group_symop_operation_xyz
x,y,z
-y,x-y,2/3+z
-x+y,-x,1/3+z
x-y,-y,1/3-z
-x,-x+y,2/3-z
y,x,-z
loop_
_atom_site_type_symbol
_atom_site_label
_atom_site_fract_x
_atom_site_fract_y
_atom_site_fract_z
Si Si1 0.299420 0.878273 0.279829
Si Si2 0.946688 0.580096 0.074220
Si Si3 0.892634 0.118815 0.060222
Si Si4 0.421427 0.698341 0.143256
O O1 0.450844 0.927350 0.368407
O O2 0.185784 0.933239 0.346139
O O3 0.363292 0.000000 0.166667
O O4 0.285861 0.724578 0.210682
O O5 0.803033 0.484567 0.976562
O O6 0.017252 0.768472 0.047621
O O7 0.857002 0.491294 0.196459
O O8 0.808120 0.217259 0.114751
O O9 0.881220 0.000000 0.166667
#
# Coordination Sequence:
#
# PCOD9576746 Si02
#       4
#     6   6   6   6
#     4   8  13  21  34  55  83 116 152 185 224 284
#     4   8  13  21  34  55  84 116 147 182 231 286
#     4   8  13  21  34  55  83 116 152 185 224 284
#     4   8  13  21  34  55  84 116 147 182 231 286
#
# _framework density 27.292421999999998
#
# number of rings (size 3 to 8) (size 9 to 14) (size 15 to 20)
#    0.000    4.000    0.000    3.000    0.000    0.000 
#    0.000    0.000    0.000    0.000    0.000   63.000 
#    0.000    6.000    0.000   27.500    0.000   13.000 
#
# Total GULP energy -133848.832772 kJ/mol
# GULP energy per Si atom -5577.034699 kJ/mol
# Density = 2.723030 g / cm^3
# Si number density = 27.292422 Si / 1000 Ang^3
#
#
#
# Elastic Constant Matrix: (Units=GPa)
#
#
# Indices 1 2 3 4 5 6 
#
# 1 103.5146 58.2415 45.4432 3.0491 -0.0001 0.0000
# 2 58.2415 103.5146 45.4432 -3.0491 0.0001 0.0000
# 3 45.4432 45.4432 49.3661 0.0000 0.0000 0.0000
# 4 3.0491 -3.0491 0.0000 12.5933 0.0000 0.0001
# 5 -0.0001 0.0001 0.0000 0.0000 12.5933 3.0491
# 6 0.0000 0.0000 0.0000 0.0001 3.0491 22.6365
#
#
#
# Elastic Compliance Matrix: (Units=1/GPa)
#
#
# Indices 1 2 3 4 5 6 
#
# 1 0.017819 -0.005014 -0.011788 -0.005528 0.000000 0.000000
# 2 -0.005014 0.017819 -0.011788 0.005528 0.000000 0.000000
# 3 -0.011788 -0.011788 0.041959 0.000000 0.000000 0.000000
# 4 -0.005528 0.005528 0.000000 0.082084 0.000000 0.000000
# 5 0.000000 0.000000 0.000000 0.000000 0.082084 -0.011057
# 6 0.000000 0.000000 0.000000 0.000000 -0.011057 0.045666
#
#
# Mechanical properties :
#
#
# Convention : Reuss Voigt Hill
#
# Bulk Modulus (GPa) = 48.97512 61.62789 55.30151
# Shear Modulus (GPa) = 14.22816 16.71580 15.47198
#
# Velocity S-wave (km/s) = 2.28573 2.47750 2.38354
# Velocity P-wave (km/s) = 4.99496 5.55100 5.28030
#
# Compressibility (1/GPa) = 0.02041853
#
# Stress axis : x y z
#
# Youngs Moduli (GPa) = 56.11950 56.11950 23.83280
#
# Poissons Ratio (x) = 0.28137 0.28094
# Poissons Ratio (y) = 0.28137 0.28094
# Poissons Ratio (z) = 0.66153 0.66153
#
# Static dielectric constant tensor:
#      x y z
#    x 2.120070 0.000000 0.000000 
#    y 0.000000 2.120070 0.000000 
#    z 0.000000 0.000000 2.326820 
# 
# From -- ./inp_files/1568.got.cif
#   From: 2010.05.17/outbox.cif.g08.bks.cpg/sg154_1_cif.got.tgz:1568.got - 2010.05.20 10:41:43.
