data_PCOD9576780
_publ_section_title
;
Structure prediction by ZEFSAII (Michael W. Deem and Ramdas Pophale) SiO2 
 PCOD9576780
Probable space group: R 3 2
;
_chemical_formula_sum "Si O2"
_cell_formula_units_Z 99
_cell_length_a 26.847031
_cell_length_b 26.847031
_cell_length_c 7.810736
_cell_angle_alpha 90.000000
_cell_angle_beta 90.000000
_cell_angle_gamma 120.000000
_cell_volume 4875.454630
_symmetry_space_group_name_H-M "R 3 2"
_symmetry_group_IT_number 155
_symmetry_cell_setting 'hexagonal'
loop_
_space_group_symop_operation_xyz
x,y,z
-y,x-y,z
-x+y,-x,z
x-y,-y,-z
-x,-x+y,-z
y,x,-z
2/3+x,1/3+y,1/3+z
2/3-y,1/3+x-y,1/3+z
2/3-x+y,1/3-x,1/3+z
2/3+x-y,1/3-y,1/3-z
2/3-x,1/3-x+y,1/3-z
2/3+y,1/3+x,1/3-z
1/3+x,2/3+y,2/3+z
1/3-y,2/3+x-y,2/3+z
1/3-x+y,2/3-x,2/3+z
1/3+x-y,2/3-y,2/3-z
1/3-x,2/3-x+y,2/3-z
1/3+y,2/3+x,2/3-z
loop_
_atom_site_type_symbol
_atom_site_label
_atom_site_fract_x
_atom_site_fract_y
_atom_site_fract_z
Si Si1 0.936467 0.457712 0.925729
Si Si2 0.037511 0.333334 0.833334
Si Si3 0.493383 0.115653 0.483111
Si Si4 0.787148 0.974469 0.322744
Si Si5 0.933716 0.502986 0.543178
Si Si6 0.805796 0.805796 0.500000
Si Si7 0.633802 0.000000 0.000000
O O1 0.890372 0.467447 0.035194
O O2 0.936764 0.483515 0.738009
O O3 0.915830 0.390608 0.905430
O O4 0.000000 0.490834 0.000000
O O5 0.099646 0.390272 0.850662
O O6 0.008483 0.341816 0.666667
O O7 0.482836 0.149503 0.333334
O O8 0.535869 0.091781 0.437850
O O9 0.510641 0.151711 0.661088
O O10 0.721836 0.960469 0.350398
O O11 0.821538 0.000000 0.500000
O O12 0.809986 0.029836 0.200112
O O13 0.000000 0.549270 0.500000
O O14 0.668761 0.002095 0.166667
#
# Coordination Sequence:
#
# PCOD9576780 Si02
#       7
#    18   9  18  18  18   9   9
#     4  10  21  37  57  78 117 158 203 247 294 350
#     4  10  19  30  48  70 102 144 196 242 279 334
#     4  10  21  35  53  76 112 151 197 246 293 344
#     4   9  18  34  54  78 112 153 193 241 289 343
#     4  10  20  35  54  82 116 158 199 248 295 351
#     4  10  23  36  54  78 106 156 198 236 295 336
#     4  10  18  30  48  76 106 144 192 228 274 328
#
# _framework density 20.305797999999999
#
# number of rings (size 3 to 8) (size 9 to 14) (size 15 to 20)
#    0.000    2.182    1.818    1.091    2.545    2.182 
#    0.000    0.000    0.000    0.000    0.000    0.000 
#  113.636    0.000    0.000    0.000    0.000    0.364 
#
# Total GULP energy -183928.960852 kJ/mol
# GULP energy per Si atom -5573.604874 kJ/mol
# Density = 2.025958 g / cm^3
# Si number density = 20.305798 Si / 1000 Ang^3
#
#
#
# Elastic Constant Matrix: (Units=GPa)
#
#
# Indices 1 2 3 4 5 6 
#
# 1 103.1556 52.0468 24.3596 0.3479 -0.0466 -0.0098
# 2 52.0468 103.1894 24.5694 -0.3840 0.0399 -0.0093
# 3 24.3596 24.5694 75.0546 0.0094 -0.2093 0.0016
# 4 0.3479 -0.3840 0.0094 20.3551 0.0043 -0.0360
# 5 -0.0466 0.0399 -0.2093 0.0043 20.3277 0.3557
# 6 -0.0098 -0.0093 0.0016 -0.0360 0.3557 25.5756
#
#
#
# Elastic Compliance Matrix: (Units=1/GPa)
#
#
# Indices 1 2 3 4 5 6 
#
# 1 0.013365 -0.006192 -0.002311 -0.000344 0.000019 0.000002
# 2 -0.006192 0.013380 -0.002370 0.000359 -0.000065 0.000004
# 3 -0.002311 -0.002370 0.014850 -0.000012 0.000152 -0.000005
# 4 -0.000344 0.000359 -0.000012 0.049141 -0.000013 0.000069
# 5 0.000019 -0.000065 0.000152 -0.000013 0.049208 -0.000684
# 6 0.000002 0.000004 -0.000005 0.000069 -0.000684 0.039109
#
#
# Mechanical properties :
#
#
# Convention : Reuss Voigt Hill
#
# Bulk Modulus (GPa) = 50.38185 53.70568 52.04376
# Shear Modulus (GPa) = 24.10619 25.27993 24.69306
#
# Velocity S-wave (km/s) = 3.44925 3.53223 3.49099
# Velocity P-wave (km/s) = 6.38189 6.56821 6.47572
#
# Compressibility (1/GPa) = 0.01984842
#
# Stress axis : x y z
#
# Youngs Moduli (GPa) = 74.82126 74.73864 67.34018
#
# Poissons Ratio (x) = 0.46280 0.15560
# Poissons Ratio (y) = 0.46331 0.15963
# Poissons Ratio (z) = 0.17288 0.17716
#
# Static dielectric constant tensor:
#      x y z
#    x 1.763260 0.000010 -0.000140 
#    y 0.000010 1.763290 -0.000100 
#    z -0.000140 -0.000100 1.761500 
# 
# From -- ./inp_files/2907.got.cif
#   From: 2010.05.17/outbox.cif.g08.bks.cpg/sg155_2_cif.got.tgz:2907.got - 2010.05.20 10:44:35.
