data_PCOD9576844
_publ_section_title
;
Structure prediction by ZEFSAII (Michael W. Deem and Ramdas Pophale) SiO2 
 PCOD9576844
Probable space group: R 3 2
;
_chemical_formula_sum "Si O2"
_cell_formula_units_Z 93
_cell_length_a 16.698990
_cell_length_b 16.698990
_cell_length_c 23.229403
_cell_angle_alpha 90.000000
_cell_angle_beta 90.000000
_cell_angle_gamma 120.000000
_cell_volume 5609.822106
_symmetry_space_group_name_H-M "R 3 2"
_symmetry_group_IT_number 155
_symmetry_cell_setting 'hexagonal'
loop_
_space_group_symop_operation_xyz
x,y,z
-y,x-y,z
-x+y,-x,z
x-y,-y,-z
-x,-x+y,-z
y,x,-z
2/3+x,1/3+y,1/3+z
2/3-y,1/3+x-y,1/3+z
2/3-x+y,1/3-x,1/3+z
2/3+x-y,1/3-y,1/3-z
2/3-x,1/3-x+y,1/3-z
2/3+y,1/3+x,1/3-z
1/3+x,2/3+y,2/3+z
1/3-y,2/3+x-y,2/3+z
1/3-x+y,2/3-x,2/3+z
1/3+x-y,2/3-y,2/3-z
1/3-x,2/3-x+y,2/3-z
1/3+y,2/3+x,2/3-z
loop_
_atom_site_type_symbol
_atom_site_label
_atom_site_fract_x
_atom_site_fract_y
_atom_site_fract_z
Si Si1 0.587551 0.467148 0.584404
Si Si2 0.143147 0.933673 0.613863
Si Si3 0.214497 0.312492 0.519689
Si Si4 0.000000 0.000000 0.250092
Si Si5 0.580624 0.000000 0.500000
Si Si6 0.333333 0.666666 0.056562
Si Si7 0.930774 0.257441 0.554737
O O1 0.571958 0.456122 0.652995
O O2 0.625609 0.398828 0.565592
O O3 0.498031 0.446482 0.547547
O O4 0.665209 0.573149 0.574690
O O5 0.130771 0.848019 0.576009
O O6 0.246501 0.018179 0.602106
O O7 0.071781 0.966635 0.592675
O O8 0.227058 0.227058 0.500000
O O9 0.319870 0.394419 0.527089
O O10 0.162383 0.332857 0.469029
O O11 0.000000 0.000000 0.319971
O O12 0.000000 0.294872 0.500000
#
# Coordination Sequence:
#
# PCOD9576844 Si02
#       7
#    18  18  18   6   9   6  18
#     4  11  20  37  54  82 110 148 194 232 288 331
#     4  10  20  33  57  83 115 149 185 230 279 352
#     4   9  20  36  53  83 112 148 188 227 285 330
#     4   9  21  33  54  76 106 142 187 237 273 340
#     4  10  22  36  56  78 114 152 192 230 282 334
#     4   9  18  33  49  85 114 141 178 220 285 334
#     4  10  19  34  55  79 112 142 182 232 282 337
#
# _framework density 16.578066
#
# number of rings (size 3 to 8) (size 9 to 14) (size 15 to 20)
#    0.581    1.548    0.968    2.903    0.000    0.774 
#    0.000    4.839    0.000    0.000    0.000    0.000 
#    0.000    0.000    0.000    0.000    0.000    0.000 
#
# Total GULP energy -172713.830154 kJ/mol
# GULP energy per Si atom -5571.413876 kJ/mol
# Density = 1.654033 g / cm^3
# Si number density = 16.578066 Si / 1000 Ang^3
#
#
#
# Elastic Constant Matrix: (Units=GPa)
#
#
# Indices 1 2 3 4 5 6 
#
# 1 117.8616 54.0595 44.3320 1.5473 0.0000 0.0000
# 2 54.0595 117.8618 44.3320 -1.5473 0.0000 0.0000
# 3 44.3320 44.3320 65.5409 0.0000 0.0000 0.0000
# 4 1.5473 -1.5473 0.0000 20.4851 0.0000 0.0000
# 5 0.0000 0.0000 0.0000 0.0000 20.4851 1.5473
# 6 0.0000 0.0000 0.0000 0.0000 1.5473 31.9011
#
#
#
# Elastic Compliance Matrix: (Units=1/GPa)
#
#
# Indices 1 2 3 4 5 6 
#
# 1 0.012332 -0.003399 -0.006042 -0.001188 0.000000 0.000000
# 2 -0.003399 0.012332 -0.006042 0.001188 0.000000 0.000000
# 3 -0.006042 -0.006042 0.023431 0.000000 0.000000 0.000000
# 4 -0.001188 0.001188 0.000000 0.048995 0.000000 0.000000
# 5 0.000000 0.000000 0.000000 0.000000 0.048995 -0.002376
# 6 0.000000 0.000000 0.000000 0.000000 -0.002376 0.031462
#
#
# Mechanical properties :
#
#
# Convention : Reuss Voigt Hill
#
# Bulk Modulus (GPa) = 58.38245 65.19014 61.78630
# Shear Modulus (GPa) = 23.34002 25.14365 24.24184
#
# Velocity S-wave (km/s) = 3.75625 3.89868 3.82813
# Velocity P-wave (km/s) = 7.35566 7.72495 7.54256
#
# Compressibility (1/GPa) = 0.01712843
#
# Stress axis : x y z
#
# Youngs Moduli (GPa) = 81.09060 81.09087 42.67778
#
# Poissons Ratio (x) = 0.27564 0.25786
# Poissons Ratio (y) = 0.27564 0.25786
# Poissons Ratio (z) = 0.48996 0.48996
#
# Static dielectric constant tensor:
#      x y z
#    x 1.554290 0.000000 0.000000 
#    y 0.000000 1.554290 0.000000 
#    z 0.000000 0.000000 1.546490 
# 
# From -- ./inp_files/6922.got.cif
#   From: 2010.05.17/outbox.cif.g08.bks.cpg/sg155_4_cif.got.tgz:6922.got - 2010.05.20 10:44:35.
