data_PCOD9576756
_publ_section_title
;
Structure prediction by ZEFSAII (Michael W. Deem and Ramdas Pophale) SiO2 
 PCOD9576756
Probable space group: R 3 2
;
_chemical_formula_sum "Si O2"
_cell_formula_units_Z 126
_cell_length_a 19.452711
_cell_length_b 19.452711
_cell_length_c 26.648475
_cell_angle_alpha 90.000000
_cell_angle_beta 90.000000
_cell_angle_gamma 120.000000
_cell_volume 8732.996016
_symmetry_space_group_name_H-M "R 3 2"
_symmetry_group_IT_number 155
_symmetry_cell_setting 'hexagonal'
loop_
_space_group_symop_operation_xyz
x,y,z
-y,x-y,z
-x+y,-x,z
x-y,-y,-z
-x,-x+y,-z
y,x,-z
2/3+x,1/3+y,1/3+z
2/3-y,1/3+x-y,1/3+z
2/3-x+y,1/3-x,1/3+z
2/3+x-y,1/3-y,1/3-z
2/3-x,1/3-x+y,1/3-z
2/3+y,1/3+x,1/3-z
1/3+x,2/3+y,2/3+z
1/3-y,2/3+x-y,2/3+z
1/3-x+y,2/3-x,2/3+z
1/3+x-y,2/3-y,2/3-z
1/3-x,2/3-x+y,2/3-z
1/3+y,2/3+x,2/3-z
loop_
_atom_site_type_symbol
_atom_site_label
_atom_site_fract_x
_atom_site_fract_y
_atom_site_fract_z
Si Si1 0.217992 0.485770 0.749435
Si Si2 0.806902 0.158305 0.064650
Si Si3 0.919808 0.665224 0.967970
Si Si4 0.120947 0.944559 0.796036
Si Si5 0.274331 0.483246 0.464035
Si Si6 0.401161 0.550902 0.748895
Si Si7 0.648480 0.965974 0.444965
O O1 0.179252 0.398928 0.726007
O O2 0.207283 0.476227 0.810345
O O3 0.311102 0.527473 0.736157
O O4 0.180625 0.539324 0.734117
O O5 0.822447 0.233558 0.096751
O O6 0.742496 0.081571 0.096674
O O7 0.766849 0.147335 0.009876
O O8 0.907383 0.731287 0.940532
O O9 0.945787 0.620804 0.927657
O O10 0.000000 0.714981 0.000000
O O11 0.026403 0.893468 0.785615
O O12 0.162918 0.036779 0.781828
O O13 0.266767 0.475092 0.524247
O O14 0.275352 0.405200 0.444066
O O15 0.679791 0.000000 0.500000
#
# Coordination Sequence:
#
# PCOD9576756 Si02
#       7
#    18  18  18  18  18  18  18
#     4  10  17  27  42  60  88 125 156 192 215 254
#     4  10  18  28  40  60  88 120 151 184 232 284
#     4  10  18  28  40  60  86 116 159 189 224 271
#     4   9  17  27  44  66  89 112 148 188 239 282
#     4   9  16  26  44  66  88 114 150 200 234 270
#     4  10  17  27  38  61  88 120 162 190 215 254
#     4  10  15  27  46  61  85 116 153 199 234 260
#
# _framework density 14.428038000000001
#
# number of rings (size 3 to 8) (size 9 to 14) (size 15 to 20)
#    0.000    2.286    4.286    2.714    0.000    2.857 
#    0.000    0.000    0.000    0.000   18.571    0.000 
#    0.000    0.000    0.000    0.000    0.000    0.000 
#
# Total GULP energy -233826.742835 kJ/mol
# GULP energy per Si atom -5567.303401 kJ/mol
# Density = 1.439520 g / cm^3
# Si number density = 14.428038 Si / 1000 Ang^3
#
#
#
# Elastic Constant Matrix: (Units=GPa)
#
#
# Indices 1 2 3 4 5 6 
#
# 1 44.8121 16.1079 21.7241 -1.7081 0.0000 0.0000
# 2 16.1079 44.8121 21.7241 1.7081 0.0000 0.0000
# 3 21.7241 21.7241 47.0960 0.0000 0.0000 0.0000
# 4 -1.7081 1.7081 0.0000 15.5925 0.0000 0.0000
# 5 0.0000 0.0000 0.0000 0.0000 15.5925 -1.7081
# 6 0.0000 0.0000 0.0000 0.0000 -1.7081 14.3521
#
#
#
# Elastic Compliance Matrix: (Units=1/GPa)
#
#
# Indices 1 2 3 4 5 6 
#
# 1 0.029881 -0.005418 -0.011284 0.003867 0.000000 0.000000
# 2 -0.005418 0.029881 -0.011284 -0.003867 0.000000 0.000000
# 3 -0.011284 -0.011284 0.031643 0.000000 0.000000 0.000000
# 4 0.003867 -0.003867 0.000000 0.064981 0.000000 0.000000
# 5 0.000000 0.000000 0.000000 0.000000 0.064981 0.007733
# 6 0.000000 0.000000 0.000000 0.000000 0.007733 0.070596
#
#
# Mechanical properties :
#
#
# Convention : Reuss Voigt Hill
#
# Bulk Modulus (GPa) = 28.22252 28.42584 28.32418
# Shear Modulus (GPa) = 13.89876 14.25170 14.07523
#
# Velocity S-wave (km/s) = 3.10710 3.14630 3.12676
# Velocity P-wave (km/s) = 5.69872 5.73965 5.71922
#
# Compressibility (1/GPa) = 0.03543270
#
# Stress axis : x y z
#
# Youngs Moduli (GPa) = 33.46664 33.46664 31.60228
#
# Poissons Ratio (x) = 0.18131 0.35660
# Poissons Ratio (y) = 0.18131 0.35660
# Poissons Ratio (z) = 0.37764 0.37764
#
# Static dielectric constant tensor:
#      x y z
#    x 1.476380 0.000000 0.000000 
#    y 0.000000 1.476380 0.000000 
#    z 0.000000 0.000000 1.515570 
# 
# From -- ./inp_files/7973.got.cif
#   From: 2010.05.17/outbox.cif.g08.bks.cpg/sg155_4_cif.got.tgz:7973.got - 2010.05.20 10:44:35.
