data_PCOD9576938
_publ_section_title
;
Structure prediction by ZEFSAII (Michael W. Deem and Ramdas Pophale) SiO2 
 PCOD9576938
Probable space group: R 3 2
;
_chemical_formula_sum "Si O2"
_cell_formula_units_Z 69
_cell_length_a 14.220320
_cell_length_b 14.220320
_cell_length_c 18.966751
_cell_angle_alpha 90.000000
_cell_angle_beta 90.000000
_cell_angle_gamma 120.000000
_cell_volume 3321.561617
_symmetry_space_group_name_H-M "R 3 2"
_symmetry_group_IT_number 155
_symmetry_cell_setting 'hexagonal'
loop_
_space_group_symop_operation_xyz
x,y,z
-y,x-y,z
-x+y,-x,z
x-y,-y,-z
-x,-x+y,-z
y,x,-z
2/3+x,1/3+y,1/3+z
2/3-y,1/3+x-y,1/3+z
2/3-x+y,1/3-x,1/3+z
2/3+x-y,1/3-y,1/3-z
2/3-x,1/3-x+y,1/3-z
2/3+y,1/3+x,1/3-z
1/3+x,2/3+y,2/3+z
1/3-y,2/3+x-y,2/3+z
1/3-x+y,2/3-x,2/3+z
1/3+x-y,2/3-y,2/3-z
1/3-x,2/3-x+y,2/3-z
1/3+y,2/3+x,2/3-z
loop_
_atom_site_type_symbol
_atom_site_label
_atom_site_fract_x
_atom_site_fract_y
_atom_site_fract_z
Si Si1 0.087195 0.595619 0.938623
Si Si2 0.666667 0.333334 0.751345
Si Si3 0.146691 0.954027 0.673957
Si Si4 0.582561 0.000000 0.500000
Si Si5 0.547198 0.454276 0.357897
O O1 0.059024 0.636968 0.868207
O O2 0.108346 0.495106 0.942189
O O3 0.204484 0.700455 0.955125
O O4 0.000000 0.573509 0.000000
O O5 0.666668 0.333334 0.833334
O O6 0.773103 0.332090 0.722591
O O7 0.196535 0.879560 0.653814
O O8 0.545717 0.056485 0.439586
O O9 0.463775 0.333334 0.333334
O O10 0.666667 0.482557 0.333334
#
# Coordination Sequence:
#
# PCOD9576938 Si02
#       5
#    18   6  18   9  18
#     4  10  20  39  62  90 126 162 206 261 315 390
#     4   9  18  36  57  96 120 156 196 245 328 387
#     4   9  19  38  60  87 127 157 199 266 314 370
#     4  10  22  40  66  92 118 168 214 254 338 370
#     4  11  24  44  62  91 130 168 220 270 306 378
#
# _framework density 20.773361999999999
#
# number of rings (size 3 to 8) (size 9 to 14) (size 15 to 20)
#    0.000    2.087    0.000    4.696    0.000    4.174 
#   23.478    0.000    0.000    0.000    0.000    0.000 
#    0.000    0.000    0.000    0.000    0.000    0.000 
#
# Total GULP energy -128095.523797 kJ/mol
# GULP energy per Si atom -5569.370600 kJ/mol
# Density = 2.072608 g / cm^3
# Si number density = 20.773362 Si / 1000 Ang^3
#
#
#
# Elastic Constant Matrix: (Units=GPa)
#
#
# Indices 1 2 3 4 5 6 
#
# 1 118.9824 34.2244 38.5432 -12.5825 -0.0001 0.0000
# 2 34.2244 118.9823 38.5431 12.5828 -0.0001 0.0000
# 3 38.5432 38.5431 105.0656 -0.0003 -0.0002 0.0000
# 4 -12.5825 12.5828 -0.0003 12.5223 -0.0001 0.0001
# 5 -0.0001 -0.0001 -0.0002 -0.0001 12.5226 -12.5830
# 6 0.0000 0.0000 0.0000 0.0001 -12.5830 42.3791
#
#
#
# Elastic Compliance Matrix: (Units=1/GPa)
#
#
# Indices 1 2 3 4 5 6 
#
# 1 0.012410 -0.004405 -0.002936 0.016896 0.000000 0.000000
# 2 -0.004405 0.012410 -0.002937 -0.016896 0.000000 0.000000
# 3 -0.002936 -0.002937 0.011672 0.000000 0.000000 0.000000
# 4 0.016896 -0.016896 0.000000 0.113812 0.000000 0.000000
# 5 0.000000 0.000000 0.000000 0.000000 0.113811 0.033792
# 6 0.000000 0.000000 0.000000 0.000000 0.033792 0.033630
#
#
# Mechanical properties :
#
#
# Convention : Reuss Voigt Hill
#
# Bulk Modulus (GPa) = 62.75231 62.85019 62.80125
# Shear Modulus (GPa) = 15.45061 28.93277 22.19169
#
# Velocity S-wave (km/s) = 2.73017 3.73605 3.27200
# Velocity P-wave (km/s) = 6.34130 6.99511 6.67622
#
# Compressibility (1/GPa) = 0.01593567
#
# Stress axis : x y z
#
# Youngs Moduli (GPa) = 80.58242 80.58167 85.67257
#
# Poissons Ratio (x) = 0.35497 0.25157
# Poissons Ratio (y) = 0.35497 0.25158
# Poissons Ratio (z) = 0.23662 0.23663
#
# Static dielectric constant tensor:
#      x y z
#    x 1.799940 0.000000 0.000000 
#    y 0.000000 1.799940 0.000000 
#    z 0.000000 0.000000 1.710730 
# 
# From -- ./inp_files/5901.got.cif
#   From: 2010.05.17/outbox.cif.g08.bks.cpg/sg155_3_cif.got.tgz:5901.got - 2010.05.20 10:44:35.
