data_PCOD9576189
_publ_section_title
;
Structure prediction by ZEFSAII (Michael W. Deem and Ramdas Pophale) SiO2 
 PCOD9576189
Probable space group: P 31 2 1
;
_chemical_formula_sum "Si O2"
_cell_formula_units_Z 15
_cell_length_a 12.596502
_cell_length_b 12.596502
_cell_length_c 4.722826
_cell_angle_alpha 90.000000
_cell_angle_beta 90.000000
_cell_angle_gamma 120.000000
_cell_volume 648.981769
_symmetry_space_group_name_H-M "P 31 2 1"
_symmetry_group_IT_number 152
_symmetry_cell_setting 'hexagonal'
loop_
_space_group_symop_operation_xyz
x,y,z
-y,x-y,1/3+z
-x+y,-x,2/3+z
x-y,-y,2/3-z
-x,-x+y,1/3-z
y,x,-z
loop_
_atom_site_type_symbol
_atom_site_label
_atom_site_fract_x
_atom_site_fract_y
_atom_site_fract_z
Si Si1 0.877731 0.877731 0.000000
Si Si2 0.630247 0.748204 0.332146
Si Si3 0.247092 0.525028 0.468870
O O1 0.764014 0.839675 0.209391
O O2 0.000000 0.908993 0.166667
O O3 0.645736 0.645736 0.500000
O O4 0.576134 0.801693 0.566312
O O5 0.541911 0.698565 0.062286
O O6 0.377981 0.604509 0.620761
#
# Coordination Sequence:
#
# PCOD9576189 Si02
#       3
#     3   6   6
#     4  12  28  50  86 108 152 208 262 340 388 450
#     4  12  24  47  80 113 155 203 261 313 384 459
#     4  12  23  46  81 113 159 211 244 313 385 457
#
# _framework density 23.113129000000001
#
# number of rings (size 3 to 8) (size 9 to 14) (size 15 to 20)
#    0.000    0.000    8.000    1.200    0.000    0.000 
#    0.000    2.000   26.400    0.000    0.000    0.000 
#    0.000    0.000    0.000    0.000    0.000    0.000 
#
# Total GULP energy -83870.953430 kJ/mol
# GULP energy per Si atom -5591.396895 kJ/mol
# Density = 2.306052 g / cm^3
# Si number density = 23.113129 Si / 1000 Ang^3
#
#
#
# Elastic Constant Matrix: (Units=GPa)
#
#
# Indices 1 2 3 4 5 6 
#
# 1 110.0744 70.9396 87.0796 0.5355 0.0000 0.0000
# 2 70.9396 110.0744 87.0796 -0.5355 0.0000 0.0000
# 3 87.0796 87.0796 233.7947 0.0000 0.0000 0.0000
# 4 0.5355 -0.5355 0.0000 70.6386 0.0000 0.0000
# 5 0.0000 0.0000 0.0000 0.0000 70.6386 0.5355
# 6 0.0000 0.0000 0.0000 0.0000 0.5355 19.5674
#
#
#
# Elastic Compliance Matrix: (Units=1/GPa)
#
#
# Indices 1 2 3 4 5 6 
#
# 1 0.017084 -0.008474 -0.003207 -0.000194 0.000000 0.000000
# 2 -0.008474 0.017084 -0.003207 0.000194 0.000000 0.000000
# 3 -0.003207 -0.003207 0.006666 0.000000 0.000000 0.000000
# 4 -0.000194 0.000194 0.000000 0.014160 0.000000 0.000000
# 5 0.000000 0.000000 0.000000 0.000000 0.014160 -0.000388
# 6 0.000000 0.000000 0.000000 0.000000 -0.000388 0.051116
#
#
# Mechanical properties :
#
#
# Convention : Reuss Voigt Hill
#
# Bulk Modulus (GPa) = 90.42876 104.90457 97.66667
# Shear Modulus (GPa) = 32.52440 46.09188 39.30814
#
# Velocity S-wave (km/s) = 3.75531 4.47048 4.12841
# Velocity P-wave (km/s) = 7.61659 8.49311 8.06676
#
# Compressibility (1/GPa) = 0.01105843
#
# Stress axis : x y z
#
# Youngs Moduli (GPa) = 58.53453 58.53453 150.01263
#
# Poissons Ratio (x) = 0.49603 0.48107
# Poissons Ratio (y) = 0.49603 0.48107
# Poissons Ratio (z) = 0.18771 0.18771
#
# Static dielectric constant tensor:
#      x y z
#    x 1.907500 0.000000 0.000000 
#    y 0.000000 1.907500 0.000000 
#    z 0.000000 0.000000 1.892210 
# 
# From -- ./inp_files/85.got.cif
#   From: 2010.05.17/outbox.cif.g08.bks.cpg/sg152_1_cif.got.tgz:85.got - 2010.05.20 10:36:06.
