data_PCOD9576041
_publ_section_title
;
Structure prediction by ZEFSAII (Michael W. Deem and Ramdas Pophale) SiO2 
 PCOD9576041
Probable space group: P 31 2 1
;
_chemical_formula_sum "Si O2"
_cell_formula_units_Z 30
_cell_length_a 8.794779
_cell_length_b 8.794779
_cell_length_c 21.684675
_cell_angle_alpha 90.000000
_cell_angle_beta 90.000000
_cell_angle_gamma 120.000000
_cell_volume 1452.557760
_symmetry_space_group_name_H-M "P 31 2 1"
_symmetry_group_IT_number 152
_symmetry_cell_setting 'hexagonal'
loop_
_space_group_symop_operation_xyz
x,y,z
-y,x-y,1/3+z
-x+y,-x,2/3+z
x-y,-y,2/3-z
-x,-x+y,1/3-z
y,x,-z
loop_
_atom_site_type_symbol
_atom_site_label
_atom_site_fract_x
_atom_site_fract_y
_atom_site_fract_z
Si Si1 0.034927 0.787386 0.238075
Si Si2 0.621848 0.542211 0.402056
Si Si3 0.430219 0.704680 0.326061
Si Si4 0.894334 0.775603 0.731105
Si Si5 0.000000 0.336067 0.666667
Si Si6 0.817861 0.817861 0.500000
O O1 0.070096 0.626178 0.241336
O O2 0.000000 0.805115 0.166667
O O3 0.861704 0.770236 0.269941
O O4 0.199654 0.941254 0.276033
O O5 0.545303 0.656413 0.370691
O O6 0.715125 0.464908 0.359293
O O7 0.758047 0.653820 0.454744
O O8 0.564629 0.793154 0.268466
O O9 0.372397 0.841758 0.349909
O O10 0.000000 0.828125 0.666667
O O11 0.024441 0.869769 0.788444
#
# Coordination Sequence:
#
# PCOD9576041 Si02
#       6
#     6   6   6   6   3   3
#     4  11  23  42  66  99 134 178 230 283 343 419
#     4  11  24  44  68  99 136 179 229 295 349 411
#     4  11  23  45  70  97 135 185 233 286 354 424
#     4  12  23  44  68  96 137 180 230 286 346 425
#     4  10  22  42  70  96 134 180 226 286 350 410
#     4  12  24  42  66  96 140 180 228 290 344 418
#
# _framework density 20.653224999999999
#
# number of rings (size 3 to 8) (size 9 to 14) (size 15 to 20)
#    0.000    0.800    6.000    1.200    0.000    0.000 
#   10.800    0.000    0.000    0.000    0.000    0.000 
#    0.000    0.000    0.000    0.000    0.000    0.000 
#
# Total GULP energy -167278.452872 kJ/mol
# GULP energy per Si atom -5575.948429 kJ/mol
# Density = 2.060622 g / cm^3
# Si number density = 20.653225 Si / 1000 Ang^3
#
#
#
# Elastic Constant Matrix: (Units=GPa)
#
#
# Indices 1 2 3 4 5 6 
#
# 1 100.6676 51.4211 64.1325 -0.6819 0.0003 0.0000
# 2 51.4211 100.6676 64.1325 0.6819 -0.0003 0.0000
# 3 64.1325 64.1325 117.4013 0.0000 0.0000 0.0000
# 4 -0.6819 0.6819 0.0000 29.8856 0.0000 -0.0003
# 5 0.0003 -0.0003 0.0000 0.0000 29.8856 -0.6819
# 6 0.0000 0.0000 0.0000 -0.0003 -0.6819 24.6233
#
#
#
# Elastic Compliance Matrix: (Units=1/GPa)
#
#
# Indices 1 2 3 4 5 6 
#
# 1 0.016255 -0.004063 -0.006660 0.000464 0.000000 0.000000
# 2 -0.004063 0.016255 -0.006660 -0.000464 0.000000 0.000000
# 3 -0.006660 -0.006660 0.015794 0.000000 0.000000 0.000000
# 4 0.000464 -0.000464 0.000000 0.033482 0.000000 0.000000
# 5 0.000000 0.000000 0.000000 0.000000 0.033482 0.000927
# 6 0.000000 0.000000 0.000000 0.000000 0.000927 0.040638
#
#
# Mechanical properties :
#
#
# Convention : Reuss Voigt Hill
#
# Bulk Modulus (GPa) = 73.86744 75.34541 74.60643
# Shear Modulus (GPa) = 25.61655 26.14894 25.88275
#
# Velocity S-wave (km/s) = 3.52563 3.56208 3.54391
# Velocity P-wave (km/s) = 7.23994 7.31289 7.27650
#
# Compressibility (1/GPa) = 0.01353776
#
# Stress axis : x y z
#
# Youngs Moduli (GPa) = 61.51813 61.51813 63.31469
#
# Poissons Ratio (x) = 0.24998 0.42168
# Poissons Ratio (y) = 0.24998 0.42168
# Poissons Ratio (z) = 0.40971 0.40971
#
# Static dielectric constant tensor:
#      x y z
#    x 1.765990 0.000000 0.000000 
#    y 0.000000 1.765990 0.000000 
#    z 0.000000 0.000000 1.701480 
# 
# From -- ./inp_files/3035.got.cif
#   From: 2010.05.17/outbox.cif.g08.bks.cpg/sg152_2_cif.got.tgz:3035.got - 2010.05.20 10:36:06.
