data_PCOD9576762
_publ_section_title
;
Structure prediction by ZEFSAII (Michael W. Deem and Ramdas Pophale) SiO2 
 PCOD9576762
Probable space group: R 3 2
;
_chemical_formula_sum "Si O2"
_cell_formula_units_Z 105
_cell_length_a 20.633492
_cell_length_b 20.633492
_cell_length_c 19.630294
_cell_angle_alpha 90.000000
_cell_angle_beta 90.000000
_cell_angle_gamma 120.000000
_cell_volume 7237.738760
_symmetry_space_group_name_H-M "R 3 2"
_symmetry_group_IT_number 155
_symmetry_cell_setting 'hexagonal'
loop_
_space_group_symop_operation_xyz
x,y,z
-y,x-y,z
-x+y,-x,z
x-y,-y,-z
-x,-x+y,-z
y,x,-z
2/3+x,1/3+y,1/3+z
2/3-y,1/3+x-y,1/3+z
2/3-x+y,1/3-x,1/3+z
2/3+x-y,1/3-y,1/3-z
2/3-x,1/3-x+y,1/3-z
2/3+y,1/3+x,1/3-z
1/3+x,2/3+y,2/3+z
1/3-y,2/3+x-y,2/3+z
1/3-x+y,2/3-x,2/3+z
1/3+x-y,2/3-y,2/3-z
1/3-x,2/3-x+y,2/3-z
1/3+y,2/3+x,2/3-z
loop_
_atom_site_type_symbol
_atom_site_label
_atom_site_fract_x
_atom_site_fract_y
_atom_site_fract_z
Si Si1 0.151308 0.242615 0.001943
Si Si2 0.085423 0.513987 0.519333
Si Si3 0.030416 0.754119 0.646660
Si Si4 0.000000 0.705013 0.500000
Si Si5 0.165847 0.556132 0.800180
Si Si6 0.874610 0.536168 0.117637
Si Si7 0.000000 0.000000 0.082320
O O1 0.216647 0.328296 0.009338
O O2 0.096996 0.215826 0.066351
O O3 0.191095 0.191095 0.000000
O O4 0.109824 0.237342 0.931800
O O5 0.144240 0.486406 0.506049
O O6 0.108081 0.590222 0.478991
O O7 0.000000 0.455683 0.500000
O O8 0.986497 0.666667 0.666667
O O9 0.015801 0.755316 0.566874
O O10 0.002086 0.790385 0.702730
O O11 0.930070 0.622355 0.517186
O O12 0.146914 0.602041 0.854850
O O13 0.252039 0.606228 0.776599
O O14 0.000000 0.000000 0.000000
#
# Coordination Sequence:
#
# PCOD9576762 Si02
#       7
#    18  18  18   9  18  18   6
#     4  11  17  30  49  74 102 138 167 201 247 307
#     4  12  21  32  47  69 109 145 174 199 248 319
#     4   9  17  27  51  76  97 122 164 214 263 295
#     4  10  16  32  52  76  96 118 162 228 276 292
#     4  12  22  31  47  73 109 140 170 207 249 304
#     4  11  18  31  49  75 102 130 169 215 252 304
#     4  12  21  30  42  72 111 145 167 187 243 312
#
# _framework density 14.507294
#
# number of rings (size 3 to 8) (size 9 to 14) (size 15 to 20)
#    0.000    1.029    7.714    3.086    0.000    0.000 
#    0.000    0.000    0.000    6.171    0.000    1.200 
#    0.000    0.000    0.000    0.000    0.000    0.000 
#
# Total GULP energy -195254.309239 kJ/mol
# GULP energy per Si atom -5578.694550 kJ/mol
# Density = 1.447427 g / cm^3
# Si number density = 14.507294 Si / 1000 Ang^3
#
#
#
# Elastic Constant Matrix: (Units=GPa)
#
#
# Indices 1 2 3 4 5 6 
#
# 1 83.4570 40.7541 35.1213 8.6438 -0.0001 0.0000
# 2 40.7541 83.4570 35.1213 -8.6438 0.0001 0.0000
# 3 35.1213 35.1213 110.3891 0.0000 0.0000 0.0000
# 4 8.6438 -8.6438 0.0000 12.5566 0.0000 0.0001
# 5 -0.0001 0.0001 0.0000 0.0000 12.5566 8.6438
# 6 0.0000 0.0000 0.0000 0.0001 8.6438 21.3515
#
#
#
# Elastic Compliance Matrix: (Units=1/GPa)
#
#
# Indices 1 2 3 4 5 6 
#
# 1 0.021141 -0.011324 -0.003123 -0.022348 0.000000 0.000000
# 2 -0.011324 0.021141 -0.003123 0.022348 0.000000 0.000000
# 3 -0.003123 -0.003123 0.011046 0.000000 0.000000 0.000000
# 4 -0.022348 0.022348 0.000000 0.110408 0.000000 0.000000
# 5 0.000000 0.000000 0.000000 0.000000 0.110408 -0.044697
# 6 0.000000 0.000000 0.000000 0.000000 -0.044697 0.064930
#
#
# Mechanical properties :
#
#
# Convention : Reuss Voigt Hill
#
# Bulk Modulus (GPa) = 54.98441 55.47738 55.23090
# Shear Modulus (GPa) = 13.14830 20.38004 16.76417
#
# Velocity S-wave (km/s) = 3.01379 3.75215 3.40305
# Velocity P-wave (km/s) = 7.07772 7.55616 7.32085
#
# Compressibility (1/GPa) = 0.01818697
#
# Stress axis : x y z
#
# Youngs Moduli (GPa) = 47.30143 47.30143 90.52771
#
# Poissons Ratio (x) = 0.53564 0.28275
# Poissons Ratio (y) = 0.53564 0.28275
# Poissons Ratio (z) = 0.14774 0.14774
#
# Static dielectric constant tensor:
#      x y z
#    x 1.476890 0.000000 0.000000 
#    y 0.000000 1.476890 0.000000 
#    z 0.000000 0.000000 1.516790 
# 
# From -- ./inp_files/7012.got.cif
#   From: 2010.05.17/outbox.cif.g08.bks.cpg/sg155_4_cif.got.tgz:7012.got - 2010.05.20 10:44:35.
