data_PCOD9576948
_publ_section_title
;
Structure prediction by ZEFSAII (Michael W. Deem and Ramdas Pophale) SiO2 
 PCOD9576948
Probable space group: R 3 2
;
_chemical_formula_sum "Si O2"
_cell_formula_units_Z 81
_cell_length_a 16.749443
_cell_length_b 16.749443
_cell_length_c 15.697560
_cell_angle_alpha 90.000000
_cell_angle_beta 90.000000
_cell_angle_gamma 120.000000
_cell_volume 3813.849243
_symmetry_space_group_name_H-M "R 3 2"
_symmetry_group_IT_number 155
_symmetry_cell_setting 'hexagonal'
loop_
_space_group_symop_operation_xyz
x,y,z
-y,x-y,z
-x+y,-x,z
x-y,-y,-z
-x,-x+y,-z
y,x,-z
2/3+x,1/3+y,1/3+z
2/3-y,1/3+x-y,1/3+z
2/3-x+y,1/3-x,1/3+z
2/3+x-y,1/3-y,1/3-z
2/3-x,1/3-x+y,1/3-z
2/3+y,1/3+x,1/3-z
1/3+x,2/3+y,2/3+z
1/3-y,2/3+x-y,2/3+z
1/3-x+y,2/3-x,2/3+z
1/3+x-y,2/3-y,2/3-z
1/3-x,2/3-x+y,2/3-z
1/3+y,2/3+x,2/3-z
loop_
_atom_site_type_symbol
_atom_site_label
_atom_site_fract_x
_atom_site_fract_y
_atom_site_fract_z
Si Si1 0.093372 0.262242 0.721728
Si Si2 0.125717 0.560724 0.197452
Si Si3 0.938384 0.610401 0.577886
Si Si4 0.909650 0.151230 0.830114
Si Si5 0.000000 0.216731 0.000000
O O1 0.092399 0.215563 0.631857
O O2 0.196802 0.295604 0.749278
O O3 0.091397 0.356291 0.714479
O O4 0.004487 0.197526 0.777882
O O5 0.167182 0.666667 0.166667
O O6 0.195493 0.528827 0.166667
O O7 0.021474 0.484031 0.165662
O O8 0.831792 0.557985 0.550251
O O9 0.000000 0.673759 0.500000
O O10 0.958815 0.666667 0.666667
O O11 0.938656 0.143564 0.927216
#
# Coordination Sequence:
#
# PCOD9576948 Si02
#       5
#    18  18  18  18   9
#     4  11  24  41  68 103 134 183 240 287 351 432
#     4  11  24  42  67 103 142 186 228 294 364 433
#     4  12  26  45  71 104 144 188 244 304 373 446
#     4  11  23  42  68  98 140 181 240 292 358 432
#     4  10  20  42  68  96 132 184 238 284 344 420
#
# _framework density 21.238384
#
# number of rings (size 3 to 8) (size 9 to 14) (size 15 to 20)
#    0.000    0.889    0.000    9.556    7.778    0.000 
#    1.333    0.000    0.000    0.000    2.889    0.000 
#    0.000    0.000    0.000    0.000    0.000    0.000 
#
# Total GULP energy -150553.538580 kJ/mol
# GULP energy per Si atom -5576.056984 kJ/mol
# Density = 2.119004 g / cm^3
# Si number density = 21.238384 Si / 1000 Ang^3
#
#
#
# Elastic Constant Matrix: (Units=GPa)
#
#
# Indices 1 2 3 4 5 6 
#
# 1 104.7853 -15.6877 21.9986 -28.2233 0.0028 0.0000
# 2 -15.6877 104.7853 21.9986 28.2233 -0.0028 0.0000
# 3 21.9986 21.9986 126.2394 0.0000 0.0000 0.0000
# 4 -28.2233 28.2233 0.0000 73.5128 0.0000 -0.0028
# 5 0.0028 -0.0028 0.0000 0.0000 73.5128 -28.2233
# 6 0.0000 0.0000 0.0000 -0.0028 -28.2233 60.2365
#
#
#
# Elastic Compliance Matrix: (Units=1/GPa)
#
#
# Indices 1 2 3 4 5 6 
#
# 1 0.011201 0.001080 -0.002140 0.003886 0.000000 0.000000
# 2 0.001080 0.011201 -0.002140 -0.003886 0.000000 0.000000
# 3 -0.002140 -0.002140 0.008667 0.000000 0.000000 0.000000
# 4 0.003886 -0.003886 0.000000 0.016587 0.000000 0.000001
# 5 0.000000 0.000000 0.000000 0.000000 0.016587 0.007772
# 6 0.000000 0.000000 0.000000 0.000001 0.007772 0.020243
#
#
# Mechanical properties :
#
#
# Convention : Reuss Voigt Hill
#
# Bulk Modulus (GPa) = 40.53816 43.60321 42.07068
# Shear Modulus (GPa) = 50.44973 61.95245 56.20109
#
# Velocity S-wave (km/s) = 4.87910 5.40679 5.14971
# Velocity P-wave (km/s) = 7.13228 7.71704 7.43042
#
# Compressibility (1/GPa) = 0.02466812
#
# Stress axis : x y z
#
# Youngs Moduli (GPa) = 89.27907 89.27907 115.37625
#
# Poissons Ratio (x) = -0.09638 0.24690
# Poissons Ratio (y) = -0.09638 0.24690
# Poissons Ratio (z) = 0.19106 0.19106
#
# Static dielectric constant tensor:
#      x y z
#    x 1.749120 0.000000 0.000000 
#    y 0.000000 1.749120 0.000000 
#    z 0.000000 0.000000 1.810150 
# 
# From -- ./inp_files/4997.got.cif
#   From: 2010.05.17/outbox.cif.g08.bks.cpg/sg155_3_cif.got.tgz:4997.got - 2010.05.20 10:44:35.
