data_PCOD9576722
_publ_section_title
;
Structure prediction by ZEFSAII (Michael W. Deem and Ramdas Pophale) SiO2 
 PCOD9576722
Probable space group: P 32 2 1
;
_chemical_formula_sum "Si O2"
_cell_formula_units_Z 42
_cell_length_a 8.279754
_cell_length_b 8.279754
_cell_length_c 30.862893
_cell_angle_alpha 90.000000
_cell_angle_beta 90.000000
_cell_angle_gamma 120.000000
_cell_volume 1832.323418
_symmetry_space_group_name_H-M "P 32 2 1"
_symmetry_group_IT_number 154
_symmetry_cell_setting 'hexagonal'
loop_
_space_group_symop_operation_xyz
x,y,z
-y,x-y,2/3+z
-x+y,-x,1/3+z
x-y,-y,1/3-z
-x,-x+y,2/3-z
y,x,-z
loop_
_atom_site_type_symbol
_atom_site_label
_atom_site_fract_x
_atom_site_fract_y
_atom_site_fract_z
Si Si1 0.461327 0.418532 0.611944
Si Si2 0.855861 0.157517 0.986971
Si Si3 0.000000 0.740734 0.333334
Si Si4 0.273614 0.275994 0.769142
Si Si5 0.675336 0.005274 0.766901
Si Si6 0.317474 0.644055 0.555260
Si Si7 0.356454 0.689836 0.125713
Si Si8 0.922390 0.922390 0.500000
O O1 0.657393 0.512976 0.637727
O O2 0.298399 0.325182 0.646206
O O3 0.413945 0.561700 0.586485
O O4 0.484824 0.294586 0.575789
O O5 0.826342 0.040622 0.943515
O O6 0.057395 0.234944 0.006692
O O7 0.023616 0.676040 0.285595
O O8 0.494157 0.364308 0.762560
O O9 0.248872 0.447819 0.787251
O O10 0.175056 0.109227 0.803839
O O11 0.599637 0.137398 0.783845
O O12 0.872709 0.084499 0.792453
O O13 0.527434 0.796039 0.780866
O O14 0.292999 0.562915 0.507229
#
# Coordination Sequence:
#
# PCOD9576722 Si02
#       8
#     6   6   3   6   6   6   6   3
#     4  11  25  42  69  99 140 182 237 287 358 425
#     4  11  25  45  66 100 135 186 226 290 350 429
#     4  12  26  44  68 102 136 188 226 288 362 420
#     4  11  24  41  75  96 138 180 234 283 356 427
#     4  12  26  43  74  99 143 182 236 292 359 434
#     4  12  22  44  69 104 133 186 235 292 353 422
#     4  11  24  43  69 105 135 182 233 292 349 428
#     4  12  20  48  68 100 132 194 230 286 360 436
#
# _framework density 22.921716
#
# number of rings (size 3 to 8) (size 9 to 14) (size 15 to 20)
#    0.000    0.571    5.714    2.143    6.000    2.286 
#    0.000    0.000    0.000    0.000    0.000    0.000 
#    0.000    0.000    0.000    0.000    0.000    0.000 
#
# Total GULP energy -234190.440877 kJ/mol
# GULP energy per Si atom -5575.962878 kJ/mol
# Density = 2.286955 g / cm^3
# Si number density = 22.921716 Si / 1000 Ang^3
#
#
#
# Elastic Constant Matrix: (Units=GPa)
#
#
# Indices 1 2 3 4 5 6 
#
# 1 14.8623 31.0455 23.3976 3.8079 0.0027 0.0000
# 2 31.0455 14.8623 23.3976 -3.8079 -0.0027 0.0000
# 3 23.3976 23.3976 130.7705 0.0000 0.0000 0.0000
# 4 3.8079 -3.8079 0.0000 21.7263 0.0000 -0.0027
# 5 0.0027 -0.0027 0.0000 0.0000 21.7263 3.8079
# 6 0.0000 0.0000 0.0000 -0.0027 3.8079 -8.0916
#
#
#
# Elastic Compliance Matrix: (Units=1/GPa)
#
#
# Indices 1 2 3 4 5 6 
#
# 1 -0.015221 0.041863 -0.004767 0.010005 0.000007 0.000000
# 2 0.041863 -0.015221 -0.004767 -0.010005 -0.000007 0.000000
# 3 -0.004767 -0.004767 0.009353 0.000000 0.000000 0.000000
# 4 0.010005 -0.010005 0.000000 0.042520 0.000000 -0.000014
# 5 0.000007 -0.000007 0.000000 0.000000 0.042520 0.020010
# 6 0.000000 0.000000 0.000000 -0.000014 0.020010 -0.114168
#
#
# Mechanical properties :
#
#
# Convention : Reuss Voigt Hill
#
# Bulk Modulus (GPa) = 22.95206 35.13071 29.04138
# Shear Modulus (GPa) = -49.82415 12.58250 -18.62083
#
# Velocity S-wave (km/s) = -4.66732 2.34548 -2.85330
# Velocity P-wave (km/s) = 4.36006 4.76389 1.35730
#
# Compressibility (1/GPa) = 0.04356908
#
# Stress axis : x y z
#
# Youngs Moduli (GPa) = -65.69817 -65.69817 106.92068
#
# Poissons Ratio (x) = 2.75031 0.50966
# Poissons Ratio (y) = 2.75031 0.50966
# Poissons Ratio (z) = -0.31317 -0.31317
#
# Static dielectric constant tensor:
#      x y z
#    x 1.972990 0.000000 0.000000 
#    y 0.000000 1.972990 0.000000 
#    z 0.000000 0.000000 2.059840 
# 
# From -- ./inp_files/3819.got.cif
#   From: 2010.05.17/outbox.cif.g08.bks.cpg/sg154_2_cif.got.tgz:3819.got - 2010.05.20 10:41:43.
