data_PCOD9576606
_publ_section_title
;
Structure prediction by ZEFSAII (Michael W. Deem and Ramdas Pophale) SiO2 
 PCOD9576606
Probable space group: P 32 2 1
;
_chemical_formula_sum "Si O2"
_cell_formula_units_Z 42
_cell_length_a 14.245306
_cell_length_b 14.245306
_cell_length_c 12.478922
_cell_angle_alpha 90.000000
_cell_angle_beta 90.000000
_cell_angle_gamma 120.000000
_cell_volume 2193.063805
_symmetry_space_group_name_H-M "P 32 2 1"
_symmetry_group_IT_number 154
_symmetry_cell_setting 'hexagonal'
loop_
_space_group_symop_operation_xyz
x,y,z
-y,x-y,2/3+z
-x+y,-x,1/3+z
x-y,-y,1/3-z
-x,-x+y,2/3-z
y,x,-z
loop_
_atom_site_type_symbol
_atom_site_label
_atom_site_fract_x
_atom_site_fract_y
_atom_site_fract_z
Si Si1 0.641899 0.248121 0.242335
Si Si2 0.705403 0.704696 0.176830
Si Si3 0.346838 0.521873 0.655698
Si Si4 0.099387 0.015455 0.404108
Si Si5 0.411424 0.980341 0.047853
Si Si6 0.982170 0.726861 0.703642
Si Si7 0.594458 0.772539 0.990160
O O1 0.678311 0.240056 0.122839
O O2 0.587775 0.322605 0.255226
O O3 0.546278 0.128039 0.273987
O O4 0.742918 0.273874 0.317548
O O5 0.822978 0.800163 0.211266
O O6 0.635952 0.664900 0.284261
O O7 0.651391 0.748087 0.090861
O O8 0.720373 0.614850 0.114206
O O9 0.470775 0.551374 0.646568
O O10 0.277837 0.391599 0.662847
O O11 0.046185 0.046185 0.500000
O O12 0.180218 0.131653 0.347783
O O13 0.000000 0.930323 0.333334
O O14 0.378762 0.000000 0.166667
O O15 0.000000 0.726635 0.833334
O O16 0.096448 0.755686 0.650934
#
# Coordination Sequence:
#
# PCOD9576606 Si02
#       7
#     6   6   6   6   6   6   6
#     4  11  21  37  63  90 117 163 206 258 304 368
#     4  11  23  39  61  91 126 162 198 255 311 366
#     4  11  22  37  61  92 120 155 213 253 309 363
#     4  11  21  34  57  86 118 150 199 242 294 360
#     4  10  22  41  60  88 125 161 205 252 303 377
#     4  11  17  36  60  86 116 155 205 255 294 362
#     4  11  21  38  65  91 121 157 211 253 305 365
#
# _framework density 19.151291000000001
#
# number of rings (size 3 to 8) (size 9 to 14) (size 15 to 20)
#    0.000    1.143    5.714    3.000    2.000    0.571 
#    0.000    2.857    0.000    0.000    0.000    0.000 
#    0.000    0.000    0.000    0.000    0.000    0.000 
#
# Total GULP energy -234563.049007 kJ/mol
# GULP energy per Si atom -5584.834500 kJ/mol
# Density = 1.910770 g / cm^3
# Si number density = 19.151291 Si / 1000 Ang^3
#
#
#
# Elastic Constant Matrix: (Units=GPa)
#
#
# Indices 1 2 3 4 5 6 
#
# 1 53.0960 14.8437 22.5574 42.6223 -0.0009 0.0000
# 2 14.8437 53.0960 22.5574 -42.6223 0.0009 0.0000
# 3 22.5574 22.5574 63.9082 0.0000 0.0000 0.0000
# 4 42.6223 -42.6223 0.0000 -75.5814 0.0000 0.0009
# 5 -0.0009 0.0009 0.0000 0.0000 -75.5814 42.6223
# 6 0.0000 0.0000 0.0000 0.0009 42.6223 19.1261
#
#
#
# Elastic Compliance Matrix: (Units=1/GPa)
#
#
# Indices 1 2 3 4 5 6 
#
# 1 0.015405 0.003820 -0.006786 0.006533 0.000000 0.000000
# 2 0.003820 0.015405 -0.006786 -0.006533 0.000000 0.000000
# 3 -0.006786 -0.006786 0.020438 0.000000 0.000000 0.000000
# 4 0.006533 -0.006533 0.000000 -0.005863 0.000000 0.000000
# 5 0.000000 0.000000 0.000000 0.000000 -0.005863 0.013065
# 6 0.000000 0.000000 0.000000 0.000000 0.013065 0.023169
#
#
# Mechanical properties :
#
#
# Convention : Reuss Voigt Hill
#
# Bulk Modulus (GPa) = 31.50137 32.22411 31.86274
# Shear Modulus (GPa) = 53.89472 -19.06454 17.41509
#
# Velocity S-wave (km/s) = 5.31062 -3.15853 3.01880
# Velocity P-wave (km/s) = 7.35445 1.88702 5.36884
#
# Compressibility (1/GPa) = 0.03174465
#
# Stress axis : x y z
#
# Youngs Moduli (GPa) = 64.91568 64.91568 48.92918
#
# Poissons Ratio (x) = -0.24800 0.33202
# Poissons Ratio (y) = -0.24800 0.33202
# Poissons Ratio (z) = 0.44050 0.44050
#
# Static dielectric constant tensor:
#      x y z
#    x 1.820450 0.000000 0.000000 
#    y 0.000000 1.820450 0.000000 
#    z 0.000000 0.000000 1.693380 
# 
# From -- ./inp_files/1725.got.cif
#   From: 2010.05.17/outbox.cif.g08.bks.cpg/sg154_1_cif.got.tgz:1725.got - 2010.05.20 10:41:43.
