data_PCOD9576582
_publ_section_title
;
Structure prediction by ZEFSAII (Michael W. Deem and Ramdas Pophale) SiO2 
 PCOD9576582
Probable space group: P 32 2 1
;
_chemical_formula_sum "Si O2"
_cell_formula_units_Z 36
_cell_length_a 8.389145
_cell_length_b 8.389145
_cell_length_c 26.861877
_cell_angle_alpha 90.000000
_cell_angle_beta 90.000000
_cell_angle_gamma 120.000000
_cell_volume 1637.202464
_symmetry_space_group_name_H-M "P 32 2 1"
_symmetry_group_IT_number 154
_symmetry_cell_setting 'hexagonal'
loop_
_space_group_symop_operation_xyz
x,y,z
-y,x-y,2/3+z
-x+y,-x,1/3+z
x-y,-y,1/3-z
-x,-x+y,2/3-z
y,x,-z
loop_
_atom_site_type_symbol
_atom_site_label
_atom_site_fract_x
_atom_site_fract_y
_atom_site_fract_z
Si Si1 0.398974 0.731947 0.538580
Si Si2 0.906455 0.825112 0.885998
Si Si3 0.429515 0.732366 0.369771
Si Si4 0.960767 0.441945 0.276542
Si Si5 0.072257 0.641342 0.936264
Si Si6 0.336302 0.325484 0.213453
O O1 0.393835 0.545321 0.552522
O O2 0.526972 0.838762 0.492312
O O3 0.187644 0.686443 0.533366
O O4 0.485852 0.868385 0.585950
O O5 0.037230 0.811408 0.927312
O O6 0.000000 0.834594 0.833334
O O7 0.716044 0.643118 0.902854
O O8 0.849479 0.980940 0.883565
O O9 0.222523 0.675933 0.384861
O O10 0.473313 0.779431 0.312519
O O11 0.437304 0.548202 0.382652
O O12 0.570956 0.911202 0.400199
O O13 0.000000 0.401477 0.333334
#
# Coordination Sequence:
#
# PCOD9576582 Si02
#       6
#     6   6   6   6   6   6
#     4  11  24  44  69 102 132 179 233 289 352 419
#     4  10  26  43  68  97 139 185 230 283 357 425
#     4  11  24  44  67 101 134 181 230 283 359 422
#     4  10  21  45  70  99 138 182 226 287 358 425
#     4  11  25  43  70  97 138 177 231 287 347 426
#     4  11  26  43  70  98 139 183 229 290 355 431
#
# _framework density 21.988727999999998
#
# number of rings (size 3 to 8) (size 9 to 14) (size 15 to 20)
#    0.000    1.333    1.667    2.000   18.667    0.000 
#    3.000    1.667    0.000    0.000    0.000    0.000 
#    0.000    0.000    0.000    0.000    0.000    0.000 
#
# Total GULP energy -200938.015034 kJ/mol
# GULP energy per Si atom -5581.611529 kJ/mol
# Density = 2.193868 g / cm^3
# Si number density = 21.988728 Si / 1000 Ang^3
#
#
#
# Elastic Constant Matrix: (Units=GPa)
#
#
# Indices 1 2 3 4 5 6 
#
# 1 86.3600 28.2452 20.6229 -8.1777 -0.0007 0.0000
# 2 28.2452 86.3600 20.6229 8.1777 0.0007 0.0000
# 3 20.6229 20.6229 59.4496 0.0000 0.0000 0.0000
# 4 -8.1777 8.1777 0.0000 34.5781 0.0000 0.0007
# 5 -0.0007 0.0007 0.0000 0.0000 34.5781 -8.1777
# 6 0.0000 0.0000 0.0000 0.0007 -8.1777 29.0574
#
#
#
# Elastic Compliance Matrix: (Units=1/GPa)
#
#
# Indices 1 2 3 4 5 6 
#
# 1 0.014202 -0.004232 -0.003459 0.004360 0.000000 0.000000
# 2 -0.004232 0.014202 -0.003459 -0.004360 0.000000 0.000000
# 3 -0.003459 -0.003459 0.019221 0.000000 0.000000 0.000000
# 4 0.004360 -0.004360 0.000000 0.030982 0.000000 -0.000001
# 5 0.000000 0.000000 0.000000 0.000000 0.030982 0.008719
# 6 0.000000 0.000000 0.000000 -0.000001 0.008719 0.036869
#
#
# Mechanical properties :
#
#
# Convention : Reuss Voigt Hill
#
# Bulk Modulus (GPa) = 39.48422 41.23906 40.36164
# Shear Modulus (GPa) = 28.21687 30.48795 29.35241
#
# Velocity S-wave (km/s) = 3.58612 3.72765 3.65757
# Velocity P-wave (km/s) = 5.92812 6.10921 6.01935
#
# Compressibility (1/GPa) = 0.02532658
#
# Stress axis : x y z
#
# Youngs Moduli (GPa) = 70.41104 70.41104 52.02753
#
# Poissons Ratio (x) = 0.29798 0.17995
# Poissons Ratio (y) = 0.29798 0.17995
# Poissons Ratio (z) = 0.24353 0.24353
#
# Static dielectric constant tensor:
#      x y z
#    x 1.826030 0.000000 0.000000 
#    y 0.000000 1.826030 0.000000 
#    z 0.000000 0.000000 1.801740 
# 
# From -- ./inp_files/3399.got.cif
#   From: 2010.05.17/outbox.cif.g08.bks.cpg/sg154_2_cif.got.tgz:3399.got - 2010.05.20 10:41:43.
