data_PCOD9576378
_publ_section_title
;
Structure prediction by ZEFSAII (Michael W. Deem and Ramdas Pophale) SiO2 
 PCOD9576378
Probable space group: P 32 2 1
;
_chemical_formula_sum "Si O2"
_cell_formula_units_Z 33
_cell_length_a 11.638721
_cell_length_b 11.638721
_cell_length_c 13.696158
_cell_angle_alpha 90.000000
_cell_angle_beta 90.000000
_cell_angle_gamma 120.000000
_cell_volume 1606.718907
_symmetry_space_group_name_H-M "P 32 2 1"
_symmetry_group_IT_number 154
_symmetry_cell_setting 'hexagonal'
loop_
_space_group_symop_operation_xyz
x,y,z
-y,x-y,2/3+z
-x+y,-x,1/3+z
x-y,-y,1/3-z
-x,-x+y,2/3-z
y,x,-z
loop_
_atom_site_type_symbol
_atom_site_label
_atom_site_fract_x
_atom_site_fract_y
_atom_site_fract_z
Si Si1 0.000000 0.293548 0.833334
Si Si2 0.993879 0.266736 0.050191
Si Si3 0.713361 0.441182 0.444712
Si Si4 0.451812 0.488391 0.765748
Si Si5 0.584938 0.878701 0.237222
Si Si6 0.713823 0.125866 0.595057
O O1 0.009197 0.234434 0.729406
O O2 0.136934 0.433311 0.846106
O O3 0.859958 0.166481 0.103716
O O4 0.995289 0.407242 0.051224
O O5 0.134456 0.306417 0.097156
O O6 0.829854 0.434065 0.501787
O O7 0.563738 0.321713 0.449653
O O8 0.762831 0.476493 0.332483
O O9 0.346553 0.419357 0.679644
O O10 0.459032 0.381909 0.836004
O O11 0.619969 0.000000 0.166667
O O12 0.660859 0.000000 0.666667
#
# Coordination Sequence:
#
# PCOD9576378 Si02
#       6
#     3   6   6   6   6   6
#     4  10  16  36  62  92 112 160 214 264 296 376
#     4  11  23  39  65  93 130 165 217 269 325 385
#     4  10  19  38  65  92 124 164 215 260 323 381
#     4  11  22  39  63  93 131 166 212 273 317 386
#     4  12  24  40  66  99 132 167 221 267 325 390
#     4   9  21  41  60  92 123 165 219 259 319 384
#
# _framework density 20.53875
#
# number of rings (size 3 to 8) (size 9 to 14) (size 15 to 20)
#    0.000    1.455    6.364    0.000    2.545    0.000 
#    0.000    4.545    0.000    0.000    0.000    0.000 
#    0.000    0.000    0.000    0.000    0.000    0.000 
#
# Total GULP energy -184191.863719 kJ/mol
# GULP energy per Si atom -5581.571628 kJ/mol
# Density = 2.049200 g / cm^3
# Si number density = 20.538750 Si / 1000 Ang^3
#
#
#
# Elastic Constant Matrix: (Units=GPa)
#
#
# Indices 1 2 3 4 5 6 
#
# 1 71.5585 6.2710 26.4681 0.1985 -0.0002 0.0000
# 2 6.2710 71.5585 26.4681 -0.1985 0.0002 0.0000
# 3 26.4681 26.4681 93.6663 0.0000 0.0000 0.0000
# 4 0.1985 -0.1985 0.0000 21.8865 0.0000 0.0002
# 5 -0.0002 0.0002 0.0000 0.0000 21.8865 0.1985
# 6 0.0000 0.0000 0.0000 0.0002 0.1985 32.6437
#
#
#
# Elastic Compliance Matrix: (Units=1/GPa)
#
#
# Indices 1 2 3 4 5 6 
#
# 1 0.015612 0.000294 -0.004495 -0.000139 0.000000 0.000000
# 2 0.000294 0.015612 -0.004495 0.000139 0.000000 0.000000
# 3 -0.004495 -0.004495 0.013216 0.000000 0.000000 0.000000
# 4 -0.000139 0.000139 0.000000 0.045693 0.000000 0.000000
# 5 0.000000 0.000000 0.000000 0.000000 0.045693 -0.000278
# 6 0.000000 0.000000 0.000000 0.000000 -0.000278 0.030635
#
#
# Mechanical properties :
#
#
# Convention : Reuss Voigt Hill
#
# Bulk Modulus (GPa) = 36.96964 39.46643 38.21803
# Shear Modulus (GPa) = 25.92451 27.12173 26.52312
#
# Velocity S-wave (km/s) = 3.55663 3.63783 3.59746
# Velocity P-wave (km/s) = 5.90806 6.07473 5.99198
#
# Compressibility (1/GPa) = 0.02704923
#
# Stress axis : x y z
#
# Youngs Moduli (GPa) = 64.05461 64.05461 75.66381
#
# Poissons Ratio (x) = -0.01883 0.34008
# Poissons Ratio (y) = -0.01883 0.34008
# Poissons Ratio (z) = 0.28790 0.28790
#
# Static dielectric constant tensor:
#      x y z
#    x 1.761940 0.000000 0.000000 
#    y 0.000000 1.761940 0.000000 
#    z 0.000000 0.000000 1.723050 
# 
# From -- ./inp_files/1988.got.cif
#   From: 2010.05.17/outbox.cif.g08.bks.cpg/sg154_1_cif.got.tgz:1988.got - 2010.05.20 10:41:43.
