data_PCOD9576817
_publ_section_title
;
Structure prediction by ZEFSAII (Michael W. Deem and Ramdas Pophale) SiO2 
 PCOD9576817
Probable space group: R 3 2
;
_chemical_formula_sum "Si O2"
_cell_formula_units_Z 27
_cell_length_a 11.656211
_cell_length_b 11.656211
_cell_length_c 9.352701
_cell_angle_alpha 90.000000
_cell_angle_beta 90.000000
_cell_angle_gamma 120.000000
_cell_volume 1100.480833
_symmetry_space_group_name_H-M "R 3 2"
_symmetry_group_IT_number 155
_symmetry_cell_setting 'hexagonal'
loop_
_space_group_symop_operation_xyz
x,y,z
-y,x-y,z
-x+y,-x,z
x-y,-y,-z
-x,-x+y,-z
y,x,-z
2/3+x,1/3+y,1/3+z
2/3-y,1/3+x-y,1/3+z
2/3-x+y,1/3-x,1/3+z
2/3+x-y,1/3-y,1/3-z
2/3-x,1/3-x+y,1/3-z
2/3+y,1/3+x,1/3-z
1/3+x,2/3+y,2/3+z
1/3-y,2/3+x-y,2/3+z
1/3-x+y,2/3-x,2/3+z
1/3+x-y,2/3-y,2/3-z
1/3-x,2/3-x+y,2/3-z
1/3+y,2/3+x,2/3-z
loop_
_atom_site_type_symbol
_atom_site_label
_atom_site_fract_x
_atom_site_fract_y
_atom_site_fract_z
Si Si1 0.450035 0.116702 0.333334
Si Si2 0.720360 0.496378 0.021242
O O1 0.492634 0.207385 0.193729
O O2 0.429105 0.972425 0.294638
O O3 0.571805 0.379083 0.983477
#
# Coordination Sequence:
#
# PCOD9576817 Si02
#       2
#     9  18
#     4  10  18  38  58  78 112 142 176 228 264 316
#     4   9  20  38  55  81 111 138 184 221 262 326
#
# _framework density 24.53473
#
# number of rings (size 3 to 8) (size 9 to 14) (size 15 to 20)
#    1.333    1.333    0.000    2.000    0.000    0.000 
#   24.000   10.000    0.000    0.000    0.000    0.000 
#    0.000    0.000    0.000    0.000    0.000    0.000 
#
# Total GULP energy -50231.064597 kJ/mol
# GULP energy per Si atom -5581.229400 kJ/mol
# Density = 2.447889 g / cm^3
# Si number density = 24.534730 Si / 1000 Ang^3
#
#
#
# Elastic Constant Matrix: (Units=GPa)
#
#
# Indices 1 2 3 4 5 6 
#
# 1 111.8078 10.1503 -16.4572 0.8041 0.0000 0.0000
# 2 10.1503 111.8078 -16.4572 -0.8041 0.0000 0.0000
# 3 -16.4572 -16.4572 102.7598 0.0000 0.0000 0.0000
# 4 0.8041 -0.8041 0.0000 20.5166 0.0000 0.0000
# 5 0.0000 0.0000 0.0000 0.0000 20.5166 0.8041
# 6 0.0000 0.0000 0.0000 0.0000 0.8041 50.8288
#
#
#
# Elastic Compliance Matrix: (Units=1/GPa)
#
#
# Indices 1 2 3 4 5 6 
#
# 1 0.009207 -0.000637 0.001372 -0.000386 0.000000 0.000000
# 2 -0.000637 0.009207 0.001372 0.000386 0.000000 0.000000
# 3 0.001372 0.001372 0.010171 0.000000 0.000000 0.000000
# 4 -0.000386 0.000386 0.000000 0.048771 0.000000 0.000000
# 5 0.000000 0.000000 0.000000 0.000000 0.048771 -0.000772
# 6 0.000000 0.000000 0.000000 0.000000 -0.000772 0.019686
#
#
# Mechanical properties :
#
#
# Convention : Reuss Voigt Hill
#
# Bulk Modulus (GPa) = 30.48692 31.20523 30.84607
# Shear Modulus (GPa) = 32.78051 41.64836 37.21444
#
# Velocity S-wave (km/s) = 3.65922 4.12457 3.89885
# Velocity P-wave (km/s) = 5.50510 5.95225 5.73304
#
# Compressibility (1/GPa) = 0.03280095
#
# Stress axis : x y z
#
# Youngs Moduli (GPa) = 108.61891 108.61891 98.31826
#
# Poissons Ratio (x) = 0.06914 -0.13494
# Poissons Ratio (y) = 0.06914 -0.13494
# Poissons Ratio (z) = -0.14908 -0.14908
#
# Static dielectric constant tensor:
#      x y z
#    x 1.934510 0.000000 0.000000 
#    y 0.000000 1.934510 0.000000 
#    z 0.000000 0.000000 2.364180 
# 
# From -- ./inp_files/3093.got.cif
#   From: 2010.05.17/outbox.cif.g08.bks.cpg/sg155_2_cif.got.tgz:3093.got - 2010.05.20 10:44:35.
