data_PCOD9576581
_publ_section_title
;
Structure prediction by ZEFSAII (Michael W. Deem and Ramdas Pophale) SiO2 
 PCOD9576581
Probable space group: P 32 2 1
;
_chemical_formula_sum "Si O2"
_cell_formula_units_Z 36
_cell_length_a 12.122526
_cell_length_b 12.122526
_cell_length_c 14.356833
_cell_angle_alpha 90.000000
_cell_angle_beta 90.000000
_cell_angle_gamma 120.000000
_cell_volume 1827.155581
_symmetry_space_group_name_H-M "P 32 2 1"
_symmetry_group_IT_number 154
_symmetry_cell_setting 'hexagonal'
loop_
_space_group_symop_operation_xyz
x,y,z
-y,x-y,2/3+z
-x+y,-x,1/3+z
x-y,-y,1/3-z
-x,-x+y,2/3-z
y,x,-z
loop_
_atom_site_type_symbol
_atom_site_label
_atom_site_fract_x
_atom_site_fract_y
_atom_site_fract_z
Si Si1 0.376889 0.701802 0.212919
Si Si2 0.721191 0.212962 0.309928
Si Si3 0.897390 0.554507 0.463353
Si Si4 0.074732 0.690466 0.986023
Si Si5 0.583159 0.583159 0.000000
Si Si6 0.795126 0.000000 0.666667
Si Si7 0.118568 0.070143 0.394426
O O1 0.407295 0.708842 0.104053
O O2 0.339900 0.568680 0.262012
O O3 0.251414 0.712915 0.225038
O O4 0.500341 0.814093 0.262582
O O5 0.873435 0.281784 0.319635
O O6 0.655104 0.066006 0.283830
O O7 0.915674 0.575831 0.573080
O O8 0.971031 0.486101 0.419136
O O9 0.942883 0.686959 0.411223
O O10 0.081418 0.825742 0.975884
O O11 0.929149 0.099921 0.618955
O O12 0.100423 0.100423 0.500000
O O13 0.000000 0.057065 0.333334
#
# Coordination Sequence:
#
# PCOD9576581 Si02
#       7
#     6   6   6   6   3   3   6
#     4  11  23  43  64  93 132 165 219 271 315 395
#     4  11  23  42  65  94 129 169 215 267 328 383
#     4  10  21  44  66  94 126 174 218 264 324 388
#     4  12  24  40  66  95 133 168 215 268 331 384
#     4   9  22  41  66  92 128 165 222 261 320 388
#     4   9  22  41  68  92 130 169 216 263 324 388
#     4  10  22  40  61  94 132 164 210 260 318 387
#
# _framework density 19.702756000000001
#
# number of rings (size 3 to 8) (size 9 to 14) (size 15 to 20)
#    0.500    1.000    1.667    3.500    1.167    1.333 
#    6.000    0.000    0.000    0.000    0.000    0.000 
#    0.000    0.000    0.000    0.000    0.000    0.000 
#
# Total GULP energy -201045.413133 kJ/mol
# GULP energy per Si atom -5584.594809 kJ/mol
# Density = 1.965791 g / cm^3
# Si number density = 19.702756 Si / 1000 Ang^3
#
#
#
# Elastic Constant Matrix: (Units=GPa)
#
#
# Indices 1 2 3 4 5 6 
#
# 1 77.3253 23.5077 -10.9110 1.8208 -0.0001 0.0000
# 2 23.5077 77.3253 -10.9110 -1.8208 0.0001 0.0000
# 3 -10.9110 -10.9110 61.4124 0.0000 0.0000 0.0000
# 4 1.8208 -1.8208 0.0000 20.3047 0.0000 0.0001
# 5 -0.0001 0.0001 0.0000 0.0000 20.3047 1.8208
# 6 0.0000 0.0000 0.0000 0.0001 1.8208 26.9088
#
#
#
# Elastic Compliance Matrix: (Units=1/GPa)
#
#
# Indices 1 2 3 4 5 6 
#
# 1 0.014504 -0.004190 0.001832 -0.001676 0.000000 0.000000
# 2 -0.004190 0.014504 0.001832 0.001676 0.000000 0.000000
# 3 0.001832 0.001832 0.016935 0.000000 0.000000 0.000000
# 4 -0.001676 0.001676 0.000000 0.049550 0.000000 0.000000
# 5 0.000000 0.000000 0.000000 0.000000 0.049550 -0.003353
# 6 0.000000 0.000000 0.000000 0.000000 -0.003353 0.037389
#
#
# Mechanical properties :
#
#
# Convention : Reuss Voigt Hill
#
# Bulk Modulus (GPa) = 22.27555 24.38160 23.32858
# Shear Modulus (GPa) = 25.19547 27.79546 26.49547
#
# Velocity S-wave (km/s) = 3.57988 3.76006 3.67107
# Velocity P-wave (km/s) = 5.33083 5.59037 5.46214
#
# Compressibility (1/GPa) = 0.04489227
#
# Stress axis : x y z
#
# Youngs Moduli (GPa) = 68.94491 68.94491 59.05105
#
# Poissons Ratio (x) = 0.28890 -0.10821
# Poissons Ratio (y) = 0.28890 -0.10821
# Poissons Ratio (z) = -0.12634 -0.12634
#
# Static dielectric constant tensor:
#      x y z
#    x 1.675990 0.000000 0.000000 
#    y 0.000000 1.675990 0.000000 
#    z 0.000000 0.000000 1.687940 
# 
# From -- ./inp_files/2029.got.cif
#   From: 2010.05.17/outbox.cif.g08.bks.cpg/sg154_2_cif.got.tgz:2029.got - 2010.05.20 10:41:43.
