data_PCOD9576491
_publ_section_title
;
Structure prediction by ZEFSAII (Michael W. Deem and Ramdas Pophale) SiO2 
 PCOD9576491
Probable space group: P 32 2 1
;
_chemical_formula_sum "Si O2"
_cell_formula_units_Z 36
_cell_length_a 9.173436
_cell_length_b 9.173436
_cell_length_c 22.470141
_cell_angle_alpha 90.000000
_cell_angle_beta 90.000000
_cell_angle_gamma 120.000000
_cell_volume 1637.572363
_symmetry_space_group_name_H-M "P 32 2 1"
_symmetry_group_IT_number 154
_symmetry_cell_setting 'hexagonal'
loop_
_space_group_symop_operation_xyz
x,y,z
-y,x-y,2/3+z
-x+y,-x,1/3+z
x-y,-y,1/3-z
-x,-x+y,2/3-z
y,x,-z
loop_
_atom_site_type_symbol
_atom_site_label
_atom_site_fract_x
_atom_site_fract_y
_atom_site_fract_z
Si Si1 0.611883 0.820062 0.333676
Si Si2 0.127936 0.579878 0.463373
Si Si3 0.745735 0.565412 0.104377
Si Si4 0.865507 0.121640 0.613481
Si Si5 0.290039 0.482594 0.360672
Si Si6 0.089006 0.144315 0.776541
O O1 0.708708 0.736253 0.301333
O O2 0.425104 0.673950 0.344493
O O3 0.702155 0.873636 0.397917
O O4 0.636205 0.990895 0.303840
O O5 0.185921 0.638805 0.530769
O O6 0.153732 0.745502 0.429043
O O7 0.210696 0.494884 0.422854
O O8 0.933170 0.440644 0.461979
O O9 0.870521 0.758457 0.124738
O O10 0.749446 0.572246 0.032725
O O11 0.748886 0.000000 0.666667
O O12 0.946731 0.013739 0.587639
O O13 0.000000 0.171106 0.833334
#
# Coordination Sequence:
#
# PCOD9576491 Si02
#       6
#     6   6   6   6   6   6
#     4  10  23  40  66  97 134 186 223 285 342 417
#     4  12  25  42  69  96 136 178 232 284 353 415
#     4  11  26  42  69  99 136 178 231 290 353 416
#     4  10  20  37  66  93 126 170 223 273 345 407
#     4  11  24  44  66  96 144 179 232 285 358 412
#     4  10  20  40  66  96 130 169 237 285 340 407
#
# _framework density 21.983763
#
# number of rings (size 3 to 8) (size 9 to 14) (size 15 to 20)
#    0.000    1.333    1.667    3.500    7.000    4.000 
#    0.000    0.833    0.000    0.000    0.000    0.000 
#    0.000    0.000    0.000    0.000    0.000    0.000 
#
# Total GULP energy -200984.371854 kJ/mol
# GULP energy per Si atom -5582.899218 kJ/mol
# Density = 2.193373 g / cm^3
# Si number density = 21.983763 Si / 1000 Ang^3
#
#
#
# Elastic Constant Matrix: (Units=GPa)
#
#
# Indices 1 2 3 4 5 6 
#
# 1 60.1150 19.1035 11.6787 -2.4367 -0.0012 0.0000
# 2 19.1035 60.1150 11.6787 2.4367 0.0012 0.0000
# 3 11.6787 11.6787 51.6833 0.0000 0.0000 0.0000
# 4 -2.4367 2.4367 0.0000 21.7598 0.0000 0.0012
# 5 -0.0012 0.0012 0.0000 0.0000 21.7598 -2.4367
# 6 0.0000 0.0000 0.0000 0.0012 -2.4367 20.5058
#
#
#
# Elastic Compliance Matrix: (Units=1/GPa)
#
#
# Indices 1 2 3 4 5 6 
#
# 1 0.019118 -0.005594 -0.003056 0.002767 0.000001 0.000000
# 2 -0.005594 0.019118 -0.003056 -0.002767 -0.000001 0.000000
# 3 -0.003056 -0.003056 0.020730 0.000000 0.000000 0.000000
# 4 0.002767 -0.002767 0.000000 0.046576 0.000000 -0.000003
# 5 0.000001 -0.000001 0.000000 0.000000 0.046576 0.005535
# 6 0.000000 0.000000 0.000000 -0.000003 0.005535 0.049424
#
#
# Mechanical properties :
#
#
# Convention : Reuss Voigt Hill
#
# Bulk Modulus (GPa) = 28.12603 28.53726 28.33164
# Shear Modulus (GPa) = 21.11429 21.43524 21.27476
#
# Velocity S-wave (km/s) = 3.10247 3.12596 3.11424
# Velocity P-wave (km/s) = 5.06513 5.10276 5.08398
#
# Compressibility (1/GPa) = 0.03555426
#
# Stress axis : x y z
#
# Youngs Moduli (GPa) = 52.30589 52.30589 48.23981
#
# Poissons Ratio (x) = 0.29260 0.14742
# Poissons Ratio (y) = 0.29260 0.14742
# Poissons Ratio (z) = 0.15985 0.15985
#
# Static dielectric constant tensor:
#      x y z
#    x 1.807640 0.000000 0.000000 
#    y 0.000000 1.807640 0.000000 
#    z 0.000000 0.000000 1.913610 
# 
# From -- ./inp_files/3385.got.cif
#   From: 2010.05.17/outbox.cif.g08.bks.cpg/sg154_2_cif.got.tgz:3385.got - 2010.05.20 10:41:43.
