data_PCOD9576719
_publ_section_title
;
Structure prediction by ZEFSAII (Michael W. Deem and Ramdas Pophale) SiO2 
 PCOD9576719
Probable space group: P 32 2 1
;
_chemical_formula_sum "Si O2"
_cell_formula_units_Z 36
_cell_length_a 8.107022
_cell_length_b 8.107022
_cell_length_c 24.346778
_cell_angle_alpha 90.000000
_cell_angle_beta 90.000000
_cell_angle_gamma 120.000000
_cell_volume 1385.781728
_symmetry_space_group_name_H-M "P 32 2 1"
_symmetry_group_IT_number 154
_symmetry_cell_setting 'hexagonal'
loop_
_space_group_symop_operation_xyz
x,y,z
-y,x-y,2/3+z
-x+y,-x,1/3+z
x-y,-y,1/3-z
-x,-x+y,2/3-z
y,x,-z
loop_
_atom_site_type_symbol
_atom_site_label
_atom_site_fract_x
_atom_site_fract_y
_atom_site_fract_z
Si Si1 0.301765 0.429616 0.789047
Si Si2 0.604424 0.582764 0.629979
Si Si3 0.106059 0.657401 0.251344
Si Si4 0.265893 0.943932 0.408167
Si Si5 0.647612 0.785734 0.044066
Si Si6 0.845687 0.814442 0.145853
O O1 0.107310 0.383199 0.759157
O O2 0.328950 0.487288 0.853317
O O3 0.452392 0.592885 0.749157
O O4 0.322897 0.241236 0.789456
O O5 0.500089 0.706720 0.619750
O O6 0.730121 0.673431 0.684858
O O7 0.477142 0.356692 0.638715
O O8 0.952606 0.728105 0.259606
O O9 0.982521 0.439659 0.272303
O O10 0.292301 0.030333 0.469041
O O11 0.756110 0.881449 0.099612
O O12 0.799397 0.799397 0.000000
O O13 0.034519 0.000000 0.166667
#
# Coordination Sequence:
#
# PCOD9576719 Si02
#       6
#     6   6   6   6   6   6
#     4  11  23  47  75 111 153 218 270 338 426 507
#     4  12  26  45  80 117 150 213 281 335 425 516
#     4  11  24  48  78 112 164 212 278 347 428 514
#     4  11  23  46  75 111 157 209 264 348 421 496
#     4  12  26  49  74 117 163 207 276 353 422 516
#     4  11  26  47  71 105 158 203 262 344 415 499
#
# _framework density 25.978114999999999
#
# number of rings (size 3 to 8) (size 9 to 14) (size 15 to 20)
#    0.000    0.667    3.333    5.000    0.000    4.000 
#    6.000    0.000    0.000    0.000    0.000    0.000 
#    0.000    0.000    0.000    0.000    0.000    0.000 
#
# Total GULP energy -201317.459917 kJ/mol
# GULP energy per Si atom -5592.151664 kJ/mol
# Density = 2.591899 g / cm^3
# Si number density = 25.978115 Si / 1000 Ang^3
#
#
#
# Elastic Constant Matrix: (Units=GPa)
#
#
# Indices 1 2 3 4 5 6 
#
# 1 104.6531 41.4520 42.1525 -10.1146 -0.0001 0.0000
# 2 41.4520 104.6531 42.1525 10.1146 0.0001 0.0000
# 3 42.1525 42.1525 153.5656 0.0000 0.0000 0.0000
# 4 -10.1146 10.1146 0.0000 25.2367 0.0000 0.0001
# 5 -0.0001 0.0001 0.0000 0.0000 25.2367 -10.1146
# 6 0.0000 0.0000 0.0000 0.0001 -10.1146 31.6006
#
#
#
# Elastic Compliance Matrix: (Units=1/GPa)
#
#
# Indices 1 2 3 4 5 6 
#
# 1 0.013142 -0.005009 -0.002232 0.007275 0.000000 0.000000
# 2 -0.005009 0.013142 -0.002232 -0.007275 0.000000 0.000000
# 3 -0.002232 -0.002232 0.007737 0.000000 0.000000 0.000000
# 4 0.007275 -0.007275 0.000000 0.045456 0.000000 0.000000
# 5 0.000000 0.000000 0.000000 0.000000 0.045456 0.014549
# 6 0.000000 0.000000 0.000000 0.000000 0.014549 0.036302
#
#
# Mechanical properties :
#
#
# Convention : Reuss Voigt Hill
#
# Bulk Modulus (GPa) = 66.34331 68.26508 67.30420
# Shear Modulus (GPa) = 26.99682 32.22245 29.60964
#
# Velocity S-wave (km/s) = 3.22718 3.52571 3.37974
# Velocity P-wave (km/s) = 6.28330 6.55051 6.41829
#
# Compressibility (1/GPa) = 0.01507311
#
# Stress axis : x y z
#
# Youngs Moduli (GPa) = 76.09359 76.09359 129.24291
#
# Poissons Ratio (x) = 0.38117 0.28851
# Poissons Ratio (y) = 0.38117 0.28851
# Poissons Ratio (z) = 0.16986 0.16986
#
# Static dielectric constant tensor:
#      x y z
#    x 2.089360 0.000000 0.000000 
#    y 0.000000 2.089360 0.000000 
#    z 0.000000 0.000000 2.027240 
# 
# From -- ./inp_files/3388.got.cif
#   From: 2010.05.17/outbox.cif.g08.bks.cpg/sg154_2_cif.got.tgz:3388.got - 2010.05.20 10:41:43.
