data_PCOD9576300
_publ_section_title
;
Structure prediction by ZEFSAII (Michael W. Deem and Ramdas Pophale) SiO2 
 PCOD9576300
Probable space group: P 32 1 2
;
_chemical_formula_sum "Si O2"
_cell_formula_units_Z 36
_cell_length_a 8.720245
_cell_length_b 8.720245
_cell_length_c 25.628435
_cell_angle_alpha 90.000000
_cell_angle_beta 90.000000
_cell_angle_gamma 120.000000
_cell_volume 1687.757677
_symmetry_space_group_name_H-M "P 32 1 2"
_symmetry_group_IT_number 153
_symmetry_cell_setting 'hexagonal'
loop_
_space_group_symop_operation_xyz
x,y,z
-y,x-y,2/3+z
-x+y,-x,1/3+z
-y,-x,1/3-z
-x+y,y,2/3-z
x,x-y,-z
loop_
_atom_site_type_symbol
_atom_site_label
_atom_site_fract_x
_atom_site_fract_y
_atom_site_fract_z
Si Si1 0.743862 0.219338 0.609297
Si Si2 0.131931 0.065966 0.500000
Si Si3 0.814666 0.907333 0.000000
Si Si4 0.443507 0.686800 0.556736
Si Si5 0.215390 0.319542 0.091161
Si Si6 0.004202 0.370937 0.247062
Si Si7 0.738154 0.853600 0.636522
O O1 0.721112 0.278889 0.666667
O O2 0.934044 0.344885 0.583754
O O3 0.566443 0.158703 0.577651
O O4 0.746318 0.036481 0.620399
O O5 0.044588 0.150332 0.537704
O O6 0.251383 0.225867 0.461495
O O7 0.701164 0.974095 0.030928
O O8 0.943837 0.873053 0.037156
O O9 0.526950 0.763475 0.500000
O O10 0.277506 0.489605 0.552843
O O11 0.370271 0.815367 0.573749
O O12 0.585553 0.706992 0.600272
O O13 0.134659 0.295705 0.032390
#
# Coordination Sequence:
#
# PCOD9576300 Si02
#       7
#     6   3   3   6   6   6   6
#     4   9  20  42  66  91 127 173 221 271 331 402
#     4  12  22  44  62  94 144 164 218 292 324 410
#     4  12  22  44  68 100 130 174 234 276 352 396
#     4  11  24  43  65  98 131 177 228 275 337 410
#     4  11  21  43  68  94 133 176 219 275 342 406
#     4  11  25  42  64  99 132 168 222 286 333 405
#     4  10  20  42  68  93 124 177 229 262 327 416
#
# _framework density 21.330076999999999
#
# number of rings (size 3 to 8) (size 9 to 14) (size 15 to 20)
#    0.000    1.333    5.833    0.500    7.000    0.000 
#   18.000    0.000    0.000    0.000    0.000    0.000 
#    0.000    0.000    0.000    0.000    0.000    0.000 
#
# Total GULP energy -200875.673882 kJ/mol
# GULP energy per Si atom -5579.879830 kJ/mol
# Density = 2.128153 g / cm^3
# Si number density = 21.330077 Si / 1000 Ang^3
#
#
#
# Elastic Constant Matrix: (Units=GPa)
#
#
# Indices 1 2 3 4 5 6 
#
# 1 46.1030 4.7053 14.3867 0.0002 3.5603 0.0000
# 2 4.7053 46.1030 14.3867 -0.0002 -3.5603 0.0000
# 3 14.3867 14.3867 90.4283 0.0000 0.0000 0.0000
# 4 0.0002 -0.0002 0.0000 26.4641 0.0000 -3.5603
# 5 3.5603 -3.5603 0.0000 0.0000 26.4641 0.0002
# 6 0.0000 0.0000 0.0000 -3.5603 0.0002 20.6989
#
#
#
# Elastic Compliance Matrix: (Units=1/GPa)
#
#
# Indices 1 2 3 4 5 6 
#
# 1 0.023179 -0.001549 -0.003441 0.000000 -0.003327 0.000000
# 2 -0.001549 0.023179 -0.003441 0.000000 0.003327 0.000000
# 3 -0.003441 -0.003441 0.012153 0.000000 0.000000 0.000000
# 4 0.000000 0.000000 0.000000 0.038682 0.000000 0.006654
# 5 -0.003327 0.003327 0.000000 0.000000 0.038682 0.000000
# 6 0.000000 0.000000 0.000000 0.006654 0.000000 0.049456
#
#
# Mechanical properties :
#
#
# Convention : Reuss Voigt Hill
#
# Bulk Modulus (GPa) = 24.00987 27.73241 25.87114
# Shear Modulus (GPa) = 23.13967 24.66910 23.90438
#
# Velocity S-wave (km/s) = 3.29726 3.40448 3.35130
# Velocity P-wave (km/s) = 5.07707 5.33702 5.20867
#
# Compressibility (1/GPa) = 0.04164955
#
# Stress axis : x y z
#
# Youngs Moduli (GPa) = 43.14168 43.14168 82.28089
#
# Poissons Ratio (x) = 0.06681 0.28316
# Poissons Ratio (y) = 0.06681 0.28316
# Poissons Ratio (z) = 0.14847 0.14847
#
# Static dielectric constant tensor:
#      x y z
#    x 1.790660 0.000000 0.000000 
#    y 0.000000 1.790660 0.000000 
#    z 0.000000 0.000000 1.875860 
# 
# From -- ./inp_files/4798.got.cif
#   From: 2010.05.17/outbox.cif.g08.bks.cpg/sg153_3_cif.got.tgz:4798.got - 2010.05.20 10:38:56.
