data_PCOD9576179
_publ_section_title
;
Structure prediction by ZEFSAII (Michael W. Deem and Ramdas Pophale) SiO2 
 PCOD9576179
Probable space group: P 31 2 1
;
_chemical_formula_sum "Si O2"
_cell_formula_units_Z 39
_cell_length_a 9.568581
_cell_length_b 9.568581
_cell_length_c 18.205778
_cell_angle_alpha 90.000000
_cell_angle_beta 90.000000
_cell_angle_gamma 120.000000
_cell_volume 1443.560366
_symmetry_space_group_name_H-M "P 31 2 1"
_symmetry_group_IT_number 152
_symmetry_cell_setting 'hexagonal'
loop_
_space_group_symop_operation_xyz
x,y,z
-y,x-y,1/3+z
-x+y,-x,2/3+z
x-y,-y,2/3-z
-x,-x+y,1/3-z
y,x,-z
loop_
_atom_site_type_symbol
_atom_site_label
_atom_site_fract_x
_atom_site_fract_y
_atom_site_fract_z
Si Si1 0.770481 0.191358 0.744790
Si Si2 0.924173 0.452633 0.850714
Si Si3 0.246480 0.038960 0.054117
Si Si4 0.000000 0.440493 0.166667
Si Si5 0.368278 0.291471 0.703468
Si Si6 0.908335 0.000000 0.833334
Si Si7 0.399171 0.399171 0.000000
Si Si8 0.684826 0.411821 0.601879
O O1 0.868288 0.378419 0.768237
O O2 0.729916 0.101323 0.667054
O O3 0.593482 0.109638 0.781428
O O4 0.863534 0.115500 0.787564
O O5 0.001414 0.358989 0.893197
O O6 0.747544 0.368984 0.886823
O O7 0.032710 0.637571 0.879884
O O8 0.169179 0.895525 0.992041
O O9 0.103782 0.031891 0.104487
O O10 0.349750 0.221706 0.031998
O O11 0.870207 0.312456 0.221970
O O12 0.544891 0.361983 0.664216
O O13 0.408887 0.545346 0.045922
#
# Coordination Sequence:
#
# PCOD9576179 Si02
#       8
#     6   6   6   3   6   3   3   6
#     4   7  12  22  46  72  90 113 168 202 230 277
#     4   9  15  30  50  72  92 128 163 202 236 295
#     4   9  18  28  47  71  98 126 159 196 246 293
#     4   7  12  27  42  64  94 126 156 192 232 290
#     4   9  15  30  50  72  92 128 163 202 236 295
#     4   7  12  27  42  64  94 126 156 192 232 290
#     4  12  20  30  42  76 100 120 156 210 248 298
#     4   9  18  28  47  71  98 126 159 196 246 293
#
# _framework density 27.016539000000002
#
# number of rings (size 3 to 8) (size 9 to 14) (size 15 to 20)
#    0.000    3.385    1.538    3.692    0.000    0.615 
#    0.000    0.769    0.000    3.692    0.000    0.000 
#    0.000    0.000    0.000    0.000    0.000    0.000 
#
# Total GULP energy -217416.112110 kJ/mol
# GULP energy per Si atom -5574.772105 kJ/mol
# Density = 2.695505 g / cm^3
# Si number density = 27.016539 Si / 1000 Ang^3
#
#
#
# Elastic Constant Matrix: (Units=GPa)
#
#
# Indices 1 2 3 4 5 6 
#
# 1 105.3456 42.1443 26.4841 2.9809 -0.0002 0.0000
# 2 42.1443 105.3456 26.4841 -2.9809 0.0002 0.0000
# 3 26.4841 26.4841 30.8642 0.0000 0.0000 0.0000
# 4 2.9809 -2.9809 0.0000 27.5182 0.0000 0.0002
# 5 -0.0002 0.0002 0.0000 0.0000 27.5182 2.9809
# 6 0.0000 0.0000 0.0000 0.0002 2.9809 31.6006
#
#
#
# Elastic Compliance Matrix: (Units=1/GPa)
#
#
# Indices 1 2 3 4 5 6 
#
# 1 0.012893 -0.003093 -0.008409 -0.001732 0.000000 0.000000
# 2 -0.003093 0.012893 -0.008409 0.001732 0.000000 0.000000
# 3 -0.008409 -0.008409 0.046832 0.000000 0.000000 0.000000
# 4 -0.001732 0.001732 0.000000 0.036715 0.000000 0.000000
# 5 0.000000 0.000000 0.000000 0.000000 0.036715 -0.003463
# 6 0.000000 0.000000 0.000000 0.000000 -0.003463 0.031972
#
#
# Mechanical properties :
#
#
# Convention : Reuss Voigt Hill
#
# Bulk Modulus (GPa) = 30.49270 47.97562 39.23416
# Shear Modulus (GPa) = 21.85563 27.09026 24.47294
#
# Velocity S-wave (km/s) = 2.84733 3.17002 3.01300
# Velocity P-wave (km/s) = 4.70329 5.58526 5.16314
#
# Compressibility (1/GPa) = 0.03279474
#
# Stress axis : x y z
#
# Youngs Moduli (GPa) = 77.56135 77.56135 21.35290
#
# Poissons Ratio (x) = 0.23988 0.17957
# Poissons Ratio (y) = 0.23988 0.17957
# Poissons Ratio (z) = 0.65225 0.65225
#
# Static dielectric constant tensor:
#      x y z
#    x 2.184810 0.000000 0.000000 
#    y 0.000000 2.184810 0.000000 
#    z 0.000000 0.000000 2.292820 
# 
# From -- ./inp_files/3683.got.cif
#   From: 2010.05.17/outbox.cif.g08.bks.cpg/sg152_2_cif.got.tgz:3683.got - 2010.05.20 10:36:06.
