data_PCOD9576014
_publ_section_title
;
Structure prediction by ZEFSAII (Michael W. Deem and Ramdas Pophale) SiO2 
 PCOD9576014
Probable space group: P 31 2 1
;
_chemical_formula_sum "Si O2"
_cell_formula_units_Z 18
_cell_length_a 12.172590
_cell_length_b 12.172590
_cell_length_c 5.401944
_cell_angle_alpha 90.000000
_cell_angle_beta 90.000000
_cell_angle_gamma 120.000000
_cell_volume 693.181076
_symmetry_space_group_name_H-M "P 31 2 1"
_symmetry_group_IT_number 152
_symmetry_cell_setting 'hexagonal'
loop_
_space_group_symop_operation_xyz
x,y,z
-y,x-y,1/3+z
-x+y,-x,2/3+z
x-y,-y,2/3-z
-x,-x+y,1/3-z
y,x,-z
loop_
_atom_site_type_symbol
_atom_site_label
_atom_site_fract_x
_atom_site_fract_y
_atom_site_fract_z
Si Si1 0.598250 0.391229 0.841374
Si Si2 0.852762 0.209125 0.712075
Si Si3 0.341555 0.341555 0.000000
Si Si4 0.875220 0.000000 0.833334
O O1 0.685642 0.431751 0.602139
O O2 0.694034 0.493945 0.044367
O O3 0.465841 0.386990 0.825351
O O4 0.776127 0.104681 0.495479
O O5 0.000000 0.303327 0.666667
O O6 0.852124 0.114201 0.924319
O O7 0.000000 0.075717 0.666667
#
# Coordination Sequence:
#
# PCOD9576014 Si02
#       4
#     6   6   3   3
#     4  10  22  42  66  95 128 171 222 270 324 382
#     4  10  22  40  65  94 130 168 216 266 324 389
#     4  10  22  42  66  94 136 170 214 280 318 386
#     4  10  24  40  62  92 132 166 212 264 322 384
#
# _framework density 25.967238999999999
#
# number of rings (size 3 to 8) (size 9 to 14) (size 15 to 20)
#    0.000    2.000    1.667    0.000   14.000    0.000 
#    0.000    0.000    0.000    0.000    0.000    0.000 
#    0.000    0.000    0.000    0.000    0.000    0.000 
#
# Total GULP energy -100237.896788 kJ/mol
# GULP energy per Si atom -5568.772044 kJ/mol
# Density = 2.590814 g / cm^3
# Si number density = 25.967239 Si / 1000 Ang^3
#
#
#
# Elastic Constant Matrix: (Units=GPa)
#
#
# Indices 1 2 3 4 5 6 
#
# 1 150.6634 40.8401 23.3144 4.7076 0.0001 0.0000
# 2 40.8401 150.6634 23.3144 -4.7076 -0.0001 0.0000
# 3 23.3144 23.3144 48.7230 0.0000 0.0000 0.0000
# 4 4.7076 -4.7076 0.0000 25.6902 0.0000 -0.0001
# 5 0.0001 -0.0001 0.0000 0.0000 25.6902 4.7076
# 6 0.0000 0.0000 0.0000 -0.0001 4.7076 54.9116
#
#
#
# Elastic Compliance Matrix: (Units=1/GPa)
#
#
# Indices 1 2 3 4 5 6 
#
# 1 0.007581 -0.001670 -0.002828 -0.001695 0.000000 0.000000
# 2 -0.001670 0.007581 -0.002828 0.001695 0.000000 0.000000
# 3 -0.002828 -0.002828 0.023231 0.000000 0.000000 0.000000
# 4 -0.001695 0.001695 0.000000 0.039547 0.000000 0.000000
# 5 0.000000 0.000000 0.000000 0.000000 0.039547 -0.003390
# 6 0.000000 0.000000 0.000000 0.000000 -0.003390 0.018502
#
#
# Mechanical properties :
#
#
# Convention : Reuss Voigt Hill
#
# Bulk Modulus (GPa) = 42.12489 58.33195 50.22842
# Shear Modulus (GPa) = 31.53514 38.76381 35.14947
#
# Velocity S-wave (km/s) = 3.48863 3.86786 3.68313
# Velocity P-wave (km/s) = 5.69956 6.51610 6.12146
#
# Compressibility (1/GPa) = 0.02373893
#
# Stress axis : x y z
#
# Youngs Moduli (GPa) = 131.91449 131.91449 43.04622
#
# Poissons Ratio (x) = 0.22032 0.12174
# Poissons Ratio (y) = 0.22032 0.12174
# Poissons Ratio (z) = 0.37308 0.37308
#
# Static dielectric constant tensor:
#      x y z
#    x 2.085260 0.000000 0.000000 
#    y 0.000000 2.085260 0.000000 
#    z 0.000000 0.000000 2.191280 
# 
# From -- ./inp_files/781.got.cif
#   From: 2010.05.17/outbox.cif.g08.bks.cpg/sg152_1_cif.got.tgz:781.got - 2010.05.20 10:36:06.
