data_PCOD9576015
_publ_section_title
;
Structure prediction by ZEFSAII (Michael W. Deem and Ramdas Pophale) SiO2 
 PCOD9576015
Probable space group: P 31 2 1
;
_chemical_formula_sum "Si O2"
_cell_formula_units_Z 36
_cell_length_a 11.271994
_cell_length_b 11.271994
_cell_length_c 14.952880
_cell_angle_alpha 90.000000
_cell_angle_beta 90.000000
_cell_angle_gamma 120.000000
_cell_volume 1645.345007
_symmetry_space_group_name_H-M "P 31 2 1"
_symmetry_group_IT_number 152
_symmetry_cell_setting 'hexagonal'
loop_
_space_group_symop_operation_xyz
x,y,z
-y,x-y,1/3+z
-x+y,-x,2/3+z
x-y,-y,2/3-z
-x,-x+y,1/3-z
y,x,-z
loop_
_atom_site_type_symbol
_atom_site_label
_atom_site_fract_x
_atom_site_fract_y
_atom_site_fract_z
Si Si1 0.303861 0.942871 0.161968
Si Si2 0.760069 0.673789 0.657115
Si Si3 0.000000 0.623854 0.666667
Si Si4 0.723711 0.404313 0.084021
Si Si5 0.000000 0.977421 0.666667
Si Si6 0.453109 0.640209 0.106436
Si Si7 0.445868 0.000000 0.833334
Si Si8 0.000000 0.858076 0.166667
O O1 0.329348 0.831524 0.208951
O O2 0.140201 0.861277 0.152621
O O3 0.382475 0.088538 0.214636
O O4 0.350542 0.993709 0.061235
O O5 0.869845 0.636129 0.698222
O O6 0.680098 0.596759 0.568698
O O7 0.866487 0.833961 0.639851
O O8 0.927334 0.512536 0.589706
O O9 0.626947 0.262103 0.136479
O O10 0.881125 0.457846 0.113436
O O11 0.702167 0.408510 0.976909
O O12 0.955572 0.031217 0.749642
#
# Coordination Sequence:
#
# PCOD9576015 Si02
#       8
#     6   6   3   6   3   6   3   3
#     4  11  24  44  69  98 142 183 237 291 362 436
#     4  10  22  42  66 100 132 186 231 292 349 422
#     4  11  20  45  70  94 134 183 243 286 346 434
#     4  12  26  45  66 106 137 187 231 296 364 429
#     4   9  20  37  66  96 134 175 233 278 338 416
#     4  12  25  45  73  99 141 186 248 299 357 441
#     4  12  24  42  68  98 156 173 233 302 364 422
#     4  10  22  40  66 100 136 177 233 286 348 422
#
# _framework density 21.879912000000001
#
# number of rings (size 3 to 8) (size 9 to 14) (size 15 to 20)
#    0.000    1.000    3.333    3.000    2.333    0.000 
#    0.000    0.000    0.000    0.000    0.000    0.000 
#    0.000    0.000    0.000    0.000    0.000    0.000 
#
# Total GULP energy -200626.880775 kJ/mol
# GULP energy per Si atom -5572.968910 kJ/mol
# Density = 2.183011 g / cm^3
# Si number density = 21.879912 Si / 1000 Ang^3
#
#
#
# Elastic Constant Matrix: (Units=GPa)
#
#
# Indices 1 2 3 4 5 6 
#
# 1 11.1679 73.4900 14.5448 -40.3709 -0.0035 0.0000
# 2 73.4900 11.1679 14.5448 40.3709 0.0035 0.0000
# 3 14.5448 14.5448 73.3018 0.0000 0.0000 0.0000
# 4 -40.3709 40.3709 0.0000 -6.0506 0.0000 0.0035
# 5 -0.0035 0.0035 0.0000 0.0000 -6.0506 -40.3709
# 6 0.0000 0.0000 0.0000 0.0035 -40.3709 -31.1611
#
#
#
# Elastic Compliance Matrix: (Units=1/GPa)
#
#
# Indices 1 2 3 4 5 6 
#
# 1 0.007388 0.005289 -0.002515 -0.014005 -0.000001 0.000000
# 2 0.005289 0.007388 -0.002515 0.014005 0.000001 0.000000
# 3 -0.002515 -0.002515 0.014640 0.000000 0.000000 0.000000
# 4 -0.014005 0.014005 0.000000 0.021621 0.000000 0.000002
# 5 -0.000001 0.000001 0.000000 0.000000 0.021621 -0.028011
# 6 0.000000 0.000000 0.000000 0.000002 -0.028011 0.004198
#
#
# Mechanical properties :
#
#
# Convention : Reuss Voigt Hill
#
# Bulk Modulus (GPa) = 33.40882 33.42188 33.41535
# Shear Modulus (GPa) = 57.92624 -9.11525 24.40550
#
# Velocity S-wave (km/s) = 5.15093 -2.04330 3.34343
# Velocity P-wave (km/s) = 7.11888 3.12114 5.49636
#
# Compressibility (1/GPa) = 0.02993221
#
# Stress axis : x y z
#
# Youngs Moduli (GPa) = 135.35828 135.35828 68.30407
#
# Poissons Ratio (x) = -0.71587 0.17181
# Poissons Ratio (y) = -0.71587 0.17181
# Poissons Ratio (z) = 0.34047 0.34047
#
# Static dielectric constant tensor:
#      x y z
#    x 2.076500 0.000000 0.000000 
#    y 0.000000 2.076500 0.000000 
#    z 0.000000 0.000000 1.811960 
# 
# From -- ./inp_files/2092.got.cif
#   From: 2010.05.17/outbox.cif.g08.bks.cpg/sg152_2_cif.got.tgz:2092.got - 2010.05.20 10:36:06.
