data_PCOD9576594
_publ_section_title
;
Structure prediction by ZEFSAII (Michael W. Deem and Ramdas Pophale) SiO2 
 PCOD9576594
Probable space group: P 32 2 1
;
_chemical_formula_sum "Si O2"
_cell_formula_units_Z 36
_cell_length_a 8.939953
_cell_length_b 8.939953
_cell_length_c 24.895940
_cell_angle_alpha 90.000000
_cell_angle_beta 90.000000
_cell_angle_gamma 120.000000
_cell_volume 1723.175977
_symmetry_space_group_name_H-M "P 32 2 1"
_symmetry_group_IT_number 154
_symmetry_cell_setting 'hexagonal'
loop_
_space_group_symop_operation_xyz
x,y,z
-y,x-y,2/3+z
-x+y,-x,1/3+z
x-y,-y,1/3-z
-x,-x+y,2/3-z
y,x,-z
loop_
_atom_site_type_symbol
_atom_site_label
_atom_site_fract_x
_atom_site_fract_y
_atom_site_fract_z
Si Si1 0.511388 0.460557 0.399198
Si Si2 0.454615 0.024971 0.947971
Si Si3 0.756820 0.225715 0.876028
Si Si4 0.916483 0.116428 0.093874
Si Si5 0.780818 0.880359 0.876120
Si Si6 0.686890 0.402481 0.102526
O O1 0.484451 0.507406 0.339371
O O2 0.552103 0.614514 0.439460
O O3 0.346176 0.284722 0.420083
O O4 0.674505 0.428303 0.395672
O O5 0.275964 0.025309 0.946096
O O6 0.420750 0.874442 0.905304
O O7 0.624514 0.186903 0.925297
O O8 0.673159 0.268302 0.825749
O O9 0.773951 0.055857 0.866185
O O10 0.996394 0.185301 0.153287
O O11 0.926393 0.943927 0.086566
O O12 0.600001 0.734026 0.900953
#
# Coordination Sequence:
#
# PCOD9576594 Si02
#       6
#     6   6   6   6   6   6
#     4  11  24  40  70  98 132 179 230 283 355 426
#     4  10  22  45  66  96 135 176 226 285 358 410
#     4  11  22  39  68 100 136 174 236 286 328 425
#     4  10  22  41  67  92 132 172 222 276 355 400
#     4  10  23  40  65 101 132 171 223 290 337 394
#     4  10  22  39  68  96 130 179 232 278 335 413
#
# _framework density 20.891655
#
# number of rings (size 3 to 8) (size 9 to 14) (size 15 to 20)
#    0.000    1.667    1.667    2.500   14.000    0.000 
#    0.000    7.500    3.667    0.000    0.000    0.000 
#    0.000    0.000    0.000    0.000    0.000    0.000 
#
# Total GULP energy -200644.290961 kJ/mol
# GULP energy per Si atom -5573.452527 kJ/mol
# Density = 2.084410 g / cm^3
# Si number density = 20.891655 Si / 1000 Ang^3
#
#
#
# Elastic Constant Matrix: (Units=GPa)
#
#
# Indices 1 2 3 4 5 6 
#
# 1 114.8991 35.1181 29.6564 3.9360 0.0000 0.0000
# 2 35.1181 114.8991 29.6564 -3.9360 0.0000 0.0000
# 3 29.6564 29.6564 52.3712 0.0000 0.0000 0.0000
# 4 3.9360 -3.9360 0.0000 6.4774 0.0000 0.0000
# 5 0.0000 0.0000 0.0000 0.0000 6.4774 3.9360
# 6 0.0000 0.0000 0.0000 0.0000 3.9360 39.8905
#
#
#
# Elastic Compliance Matrix: (Units=1/GPa)
#
#
# Indices 1 2 3 4 5 6 
#
# 1 0.010961 -0.002372 -0.004864 -0.008102 0.000000 0.000000
# 2 -0.002372 0.010961 -0.004864 0.008102 0.000000 0.000000
# 3 -0.004864 -0.004864 0.024603 0.000000 0.000000 0.000000
# 4 -0.008102 0.008102 0.000000 0.164230 0.000000 0.000000
# 5 0.000000 0.000000 0.000000 0.000000 0.164230 -0.016204
# 6 0.000000 0.000000 0.000000 0.000000 -0.016204 0.026667
#
#
# Mechanical properties :
#
#
# Convention : Reuss Voigt Hill
#
# Bulk Modulus (GPa) = 44.79098 52.33680 48.56389
# Shear Modulus (GPa) = 11.53950 23.08496 17.31223
#
# Velocity S-wave (km/s) = 2.35276 3.32774 2.88178
# Velocity P-wave (km/s) = 5.37279 6.31435 5.86250
#
# Compressibility (1/GPa) = 0.02232592
#
# Stress axis : x y z
#
# Youngs Moduli (GPa) = 91.23009 91.23009 40.64586
#
# Poissons Ratio (x) = 0.21644 0.19769
# Poissons Ratio (y) = 0.21644 0.19769
# Poissons Ratio (z) = 0.44371 0.44371
#
# Static dielectric constant tensor:
#      x y z
#    x 1.797830 0.000000 0.000000 
#    y 0.000000 1.797830 0.000000 
#    z 0.000000 0.000000 1.746840 
# 
# From -- ./inp_files/3407.got.cif
#   From: 2010.05.17/outbox.cif.g08.bks.cpg/sg154_2_cif.got.tgz:3407.got - 2010.05.20 10:41:43.
