data_PCOD9576247
_publ_section_title
;
Structure prediction by ZEFSAII (Michael W. Deem and Ramdas Pophale) SiO2 
 PCOD9576247
Probable space group: P 32 1 2
;
_chemical_formula_sum "Si O2"
_cell_formula_units_Z 36
_cell_length_a 20.448100
_cell_length_b 20.448100
_cell_length_c 5.302132
_cell_angle_alpha 90.000000
_cell_angle_beta 90.000000
_cell_angle_gamma 120.000000
_cell_volume 1919.937486
_symmetry_space_group_name_H-M "P 32 1 2"
_symmetry_group_IT_number 153
_symmetry_cell_setting 'hexagonal'
loop_
_space_group_symop_operation_xyz
x,y,z
-y,x-y,2/3+z
-x+y,-x,1/3+z
-y,-x,1/3-z
-x+y,y,2/3-z
x,x-y,-z
loop_
_atom_site_type_symbol
_atom_site_label
_atom_site_fract_x
_atom_site_fract_y
_atom_site_fract_z
Si Si1 0.528846 0.725637 0.248644
Si Si2 0.403121 0.947805 0.053034
Si Si3 0.870845 0.267935 0.108131
Si Si4 0.580164 0.571753 0.885120
Si Si5 0.780832 0.075670 0.725488
Si Si6 0.184893 0.288075 0.083971
O O1 0.509385 0.754693 0.500000
O O2 0.500430 0.637782 0.290215
O O3 0.620219 0.763269 0.237785
O O4 0.504512 0.752256 0.000000
O O5 0.374253 0.954955 0.327959
O O6 0.493239 0.986279 0.087368
O O7 0.391513 0.992470 0.826752
O O8 0.782149 0.217852 0.166667
O O9 0.904299 0.238585 0.331805
O O10 0.908189 0.357687 0.140612
O O11 0.897028 0.253960 0.835583
O O12 0.870287 0.129714 0.666667
O O13 0.750822 0.986851 0.725826
O O14 0.132816 0.265632 0.333334
O O15 0.135386 0.270771 0.833334
#
# Coordination Sequence:
#
# PCOD9576247 Si02
#       6
#     6   6   6   6   6   6
#     4  10  19  30  46  70 101 130 167 208 261 315
#     4  10  20  32  49  73 105 141 170 213 271 324
#     4  10  19  31  50  75 103 134 170 212 268 322
#     4  10  19  32  50  73 106 138 171 213 268 327
#     4  10  20  33  50  72 100 136 170 212 263 313
#     4  10  19  30  47  69  94 130 166 208 256 305
#
# _framework density 18.750610000000002
#
# number of rings (size 3 to 8) (size 9 to 14) (size 15 to 20)
#    0.000    2.000    0.000    5.000    0.000    2.667 
#    0.000    0.000    0.000    1.000    0.000    0.000 
#  120.000    0.000    0.000    0.000    0.000    0.000 
#
# Total GULP energy -200507.742023 kJ/mol
# GULP energy per Si atom -5569.659501 kJ/mol
# Density = 1.870793 g / cm^3
# Si number density = 18.750610 Si / 1000 Ang^3
#
#
#
# Elastic Constant Matrix: (Units=GPa)
#
#
# Indices 1 2 3 4 5 6 
#
# 1 74.7162 28.1692 19.0927 0.0000 0.4841 0.0000
# 2 28.1692 74.7162 19.0927 0.0000 -0.4841 0.0000
# 3 19.0927 19.0927 159.4368 0.0000 0.0000 0.0000
# 4 0.0000 0.0000 0.0000 14.1086 0.0000 -0.4841
# 5 0.4841 -0.4841 0.0000 0.0000 14.1086 0.0000
# 6 0.0000 0.0000 0.0000 -0.4841 0.0000 23.2735
#
#
#
# Elastic Compliance Matrix: (Units=1/GPa)
#
#
# Indices 1 2 3 4 5 6 
#
# 1 0.015835 -0.005664 -0.001218 0.000000 -0.000738 0.000000
# 2 -0.005664 0.015835 -0.001218 0.000000 0.000738 0.000000
# 3 -0.001218 -0.001218 0.006564 0.000000 0.000000 0.000000
# 4 0.000000 0.000000 0.000000 0.070929 0.000000 0.001476
# 5 -0.000738 0.000738 0.000000 0.000000 0.070929 0.000000
# 6 0.000000 0.000000 0.000000 0.001476 0.000000 0.042998
#
#
# Mechanical properties :
#
#
# Convention : Reuss Voigt Hill
#
# Bulk Modulus (GPa) = 45.38274 49.06429 47.22351
# Shear Modulus (GPa) = 20.27282 26.46577 23.36930
#
# Velocity S-wave (km/s) = 3.29170 3.76102 3.53416
# Velocity P-wave (km/s) = 6.22117 6.71446 6.47251
#
# Compressibility (1/GPa) = 0.02203481
#
# Stress axis : x y z
#
# Youngs Moduli (GPa) = 63.14990 63.14990 152.35063
#
# Poissons Ratio (x) = 0.35766 0.18557
# Poissons Ratio (y) = 0.35766 0.18557
# Poissons Ratio (z) = 0.07692 0.07692
#
# Static dielectric constant tensor:
#      x y z
#    x 1.736560 0.000000 0.000000 
#    y 0.000000 1.736560 0.000000 
#    z 0.000000 0.000000 1.792180 
# 
# From -- ./inp_files/732.got.cif
#   From: 2010.05.17/outbox.cif.g08.bks.cpg/sg153_1_cif.got.tgz:732.got - 2010.05.20 10:38:56.
