data_PCOD9576627
_publ_section_title
;
Structure prediction by ZEFSAII (Michael W. Deem and Ramdas Pophale) SiO2 
 PCOD9576627
Probable space group: P 32 2 1
;
_chemical_formula_sum "Si O2"
_cell_formula_units_Z 36
_cell_length_a 12.411218
_cell_length_b 12.411218
_cell_length_c 13.017235
_cell_angle_alpha 90.000000
_cell_angle_beta 90.000000
_cell_angle_gamma 120.000000
_cell_volume 1736.513584
_symmetry_space_group_name_H-M "P 32 2 1"
_symmetry_group_IT_number 154
_symmetry_cell_setting 'hexagonal'
loop_
_space_group_symop_operation_xyz
x,y,z
-y,x-y,2/3+z
-x+y,-x,1/3+z
x-y,-y,1/3-z
-x,-x+y,2/3-z
y,x,-z
loop_
_atom_site_type_symbol
_atom_site_label
_atom_site_fract_x
_atom_site_fract_y
_atom_site_fract_z
Si Si1 0.000000 0.491738 0.833334
Si Si2 0.259433 0.512939 0.542464
Si Si3 0.550090 0.000000 0.666667
Si Si4 0.689246 0.457915 0.026905
Si Si5 0.780170 0.131516 0.515113
Si Si6 0.987587 0.306580 0.009960
Si Si7 0.096206 0.161717 0.892449
O O1 0.880598 0.505281 0.814424
O O2 0.994095 0.413689 0.935241
O O3 0.218477 0.529709 0.428869
O O4 0.307614 0.642096 0.605620
O O5 0.144995 0.397727 0.600332
O O6 0.533325 0.102421 0.729282
O O7 0.666684 0.084195 0.594302
O O8 0.809654 0.569798 0.080090
O O9 0.902431 0.241766 0.573155
O O10 0.781085 0.003484 0.494396
O O11 0.012275 0.220210 0.930998
O O12 0.000000 0.038149 0.833334
O O13 0.140793 0.140793 0.000000
#
# Coordination Sequence:
#
# PCOD9576627 Si02
#       7
#     3   6   3   6   6   6   6
#     4  12  26  44  72 106 146 202 242 312 384 462
#     4  12  27  47  68 112 152 196 243 314 385 450
#     4  12  22  46  78 108 144 200 252 306 386 466
#     4  12  26  46  72 110 153 187 253 310 381 455
#     4  11  24  45  75 105 142 199 253 306 383 464
#     4  11  23  47  72 101 148 191 257 305 372 467
#     4  10  22  44  69 102 136 190 248 308 373 455
#
# _framework density 20.731193999999999
#
# number of rings (size 3 to 8) (size 9 to 14) (size 15 to 20)
#    0.000    0.667    6.667    2.000    0.000    1.333 
#   13.500    0.000    0.000    0.000    0.000    0.000 
#    0.000    0.000    0.000    0.000    0.000    0.000 
#
# Total GULP energy -200539.603979 kJ/mol
# GULP energy per Si atom -5570.544555 kJ/mol
# Density = 2.068401 g / cm^3
# Si number density = 20.731194 Si / 1000 Ang^3
#
#
#
# Elastic Constant Matrix: (Units=GPa)
#
#
# Indices 1 2 3 4 5 6 
#
# 1 -105.7413 323.3736 27.4276 498.0251 -0.0041 0.0000
# 2 323.3736 -105.7413 27.4276 -498.0251 0.0041 0.0000
# 3 27.4276 27.4276 49.6460 0.0000 0.0000 0.0000
# 4 498.0251 -498.0251 0.0000 -943.5788 0.0000 0.0041
# 5 -0.0041 0.0041 0.0000 0.0000 -943.5788 498.0251
# 6 0.0000 0.0000 0.0000 0.0041 498.0251 -214.5575
#
#
#
# Elastic Compliance Matrix: (Units=1/GPa)
#
#
# Indices 1 2 3 4 5 6 
#
# 1 0.007845 -0.002507 -0.002949 0.005464 0.000000 0.000000
# 2 -0.002507 0.007845 -0.002949 -0.005464 0.000000 0.000000
# 3 -0.002949 -0.002949 0.023401 0.000000 0.000000 0.000000
# 4 0.005464 -0.005464 0.000000 0.004708 0.000000 0.000000
# 5 0.000000 0.000000 0.000000 0.000000 0.004708 0.010927
# 6 0.000000 0.000000 0.000000 0.000000 0.010927 0.020703
#
#
# Mechanical properties :
#
#
# Convention : Reuss Voigt Hill
#
# Bulk Modulus (GPa) = 44.88126 66.06899 55.47513
# Shear Modulus (GPa) = 53.50681 -456.34739 -201.42029
#
# Velocity S-wave (km/s) = 5.08585 -14.85274 -9.86757
# Velocity P-wave (km/s) = 7.49559 16.19259 10.14928
#
# Compressibility (1/GPa) = 0.02228101
#
# Stress axis : x y z
#
# Youngs Moduli (GPa) = 127.47198 127.47198 42.73272
#
# Poissons Ratio (x) = 0.31952 0.12603
# Poissons Ratio (y) = 0.31952 0.12603
# Poissons Ratio (z) = 0.37594 0.37594
#
# Static dielectric constant tensor:
#      x y z
#    x 2.313660 0.000000 0.000000 
#    y 0.000000 2.313660 0.000000 
#    z 0.000000 0.000000 1.845430 
# 
# From -- ./inp_files/2004.got.cif
#   From: 2010.05.17/outbox.cif.g08.bks.cpg/sg154_2_cif.got.tgz:2004.got - 2010.05.20 10:41:43.
