data_PCOD9576218
_publ_section_title
;
Structure prediction by ZEFSAII (Michael W. Deem and Ramdas Pophale) SiO2 
 PCOD9576218
Probable space group: P 31 2 1
;
_chemical_formula_sum "Si O2"
_cell_formula_units_Z 36
_cell_length_a 12.000000
_cell_length_b 12.000000
_cell_length_c 15.000000
_cell_angle_alpha 90.000000
_cell_angle_beta 90.000000
_cell_angle_gamma 120.000000
_cell_volume 1870.614872
_symmetry_space_group_name_H-M "P 31 2 1"
_symmetry_group_IT_number 152
_symmetry_cell_setting 'hexagonal'
loop_
_space_group_symop_operation_xyz
x,y,z
-y,x-y,1/3+z
-x+y,-x,2/3+z
x-y,-y,2/3-z
-x,-x+y,1/3-z
y,x,-z
loop_
_atom_site_type_symbol
_atom_site_label
_atom_site_fract_x
_atom_site_fract_y
_atom_site_fract_z
Si Si1 0.365106 0.890862 0.105244
Si Si2 0.086922 0.731975 0.444259
Si Si3 0.834245 0.262417 0.388424
Si Si4 0.316499 0.734802 0.935548
Si Si5 0.817104 0.663227 0.523147
Si Si6 0.744477 0.128292 0.768237
O O1 0.508193 0.911946 0.125310
O O2 0.258088 0.858243 0.182925
O O3 0.398357 0.020132 0.053472
O O4 0.297939 0.774416 0.034681
O O5 0.193313 0.821337 0.516789
O O6 0.105157 0.766332 0.337326
O O7 0.959159 0.729146 0.480460
O O8 0.736112 0.318399 0.394038
O O9 0.819381 0.185446 0.296186
O O10 0.246951 0.774004 0.861585
O O11 0.465814 0.824802 0.911241
O O12 0.740912 0.740912 0.500000
O O13 0.691632 0.000000 0.833334
#
# Coordination Sequence:
#
# PCOD9576218 Si02
#       6
#     6   6   6   6   6   6
#     4  11  23  41  66 101 140 179 227 288 354 417
#     4  11  26  44  65 101 139 183 235 287 352 418
#     4  12  25  42  68 103 140 178 231 288 357 418
#     4  11  22  38  66 107 136 174 221 283 350 421
#     4  12  24  43  71  99 138 184 236 288 345 419
#     4  11  24  41  68  98 142 180 226 283 353 425
#
# _framework density 19.245009
#
# number of rings (size 3 to 8) (size 9 to 14) (size 15 to 20)
#    0.000    0.667    5.000    3.000    7.000    0.667 
#    3.000    0.833    3.667    0.000    0.000    0.000 
#    0.000    0.000    0.000    0.000    0.000    0.000 
#
# Total GULP energy -200641.342311 kJ/mol
# GULP energy per Si atom -5573.370620 kJ/mol
# Density = 1.920121 g / cm^3
# Si number density = 19.245009 Si / 1000 Ang^3
#
#
#
# Elastic Constant Matrix: (Units=GPa)
#
#
# Indices 1 2 3 4 5 6 
#
# 1 54.2197 4.8930 38.3112 2.0376 0.0000 0.0000
# 2 4.8930 54.2197 38.3112 -2.0376 0.0000 0.0000
# 3 38.3112 38.3112 146.1434 0.0000 0.0000 0.0000
# 4 2.0376 -2.0376 0.0000 40.1104 0.0000 0.0000
# 5 0.0000 0.0000 0.0000 0.0000 40.1104 2.0376
# 6 0.0000 0.0000 0.0000 0.0000 2.0376 24.6634
#
#
#
# Elastic Compliance Matrix: (Units=1/GPa)
#
#
# Indices 1 2 3 4 5 6 
#
# 1 0.022991 0.002633 -0.006717 -0.001034 0.000000 0.000000
# 2 0.002633 0.022991 -0.006717 0.001034 0.000000 0.000000
# 3 -0.006717 -0.006717 0.010364 0.000000 0.000000 0.000000
# 4 -0.001034 0.001034 0.000000 0.025036 0.000000 0.000000
# 5 0.000000 0.000000 0.000000 0.000000 0.025036 -0.002068
# 6 0.000000 0.000000 0.000000 0.000000 -0.002068 0.040717
#
#
# Mechanical properties :
#
#
# Convention : Reuss Voigt Hill
#
# Bulk Modulus (GPa) = 28.78278 46.40153 37.59216
# Shear Modulus (GPa) = 27.72842 32.51466 30.12154
#
# Velocity S-wave (km/s) = 3.79992 4.11483 3.96050
# Velocity P-wave (km/s) = 5.85158 6.83659 6.36317
#
# Compressibility (1/GPa) = 0.03474299
#
# Stress axis : x y z
#
# Youngs Moduli (GPa) = 43.49516 43.49516 96.48419
#
# Poissons Ratio (x) = -0.11451 0.64810
# Poissons Ratio (y) = -0.11451 0.64810
# Poissons Ratio (z) = 0.29217 0.29217
#
# Static dielectric constant tensor:
#      x y z
#    x 1.707750 0.000000 0.000000 
#    y 0.000000 1.707750 0.000000 
#    z 0.000000 0.000000 1.713070 
# 
# From -- ./inp_files/2035.got.cif
#   From: 2010.05.17/outbox.ucp.g08.bks.cvg/sg152_2_cif.got.tgz:2035.got - 2010.06.11 15:13:12.
