data_PCOD9576298
_publ_section_title
;
Structure prediction by ZEFSAII (Michael W. Deem and Ramdas Pophale) SiO2 
 PCOD9576298
Probable space group: P 32 1 2
;
_chemical_formula_sum "Si O2"
_cell_formula_units_Z 42
_cell_length_a 8.907406
_cell_length_b 8.907406
_cell_length_c 27.572603
_cell_angle_alpha 90.000000
_cell_angle_beta 90.000000
_cell_angle_gamma 120.000000
_cell_volume 1894.571044
_symmetry_space_group_name_H-M "P 32 1 2"
_symmetry_group_IT_number 153
_symmetry_cell_setting 'hexagonal'
loop_
_space_group_symop_operation_xyz
x,y,z
-y,x-y,2/3+z
-x+y,-x,1/3+z
-y,-x,1/3-z
-x+y,y,2/3-z
x,x-y,-z
loop_
_atom_site_type_symbol
_atom_site_label
_atom_site_fract_x
_atom_site_fract_y
_atom_site_fract_z
Si Si1 0.345398 0.662931 0.921538
Si Si2 0.016228 0.597413 0.869985
Si Si3 0.139589 0.265271 0.452283
Si Si4 0.295107 0.895431 0.001958
Si Si5 0.507276 0.180486 0.685811
Si Si6 0.214026 0.153791 0.622512
Si Si7 0.742249 0.543759 0.133119
O O1 0.545689 0.770907 0.906755
O O2 0.318390 0.774198 0.962790
O O3 0.211557 0.638622 0.879515
O O4 0.290028 0.477088 0.945671
O O5 0.956511 0.651936 0.919101
O O6 0.894383 0.395028 0.858923
O O7 0.020611 0.719797 0.826952
O O8 0.112975 0.120888 0.413206
O O9 0.955724 0.217468 0.475300
O O10 0.119800 0.889177 0.984945
O O11 0.474996 0.072811 0.997976
O O12 0.625150 0.374851 0.666667
O O13 0.322273 0.108213 0.660372
O O14 0.492497 0.180874 0.743367
O O15 0.583303 0.416698 0.166667
#
# Coordination Sequence:
#
# PCOD9576298 Si02
#       7
#     6   6   6   6   6   6   6
#     4  10  20  41  68  99 132 184 238 287 364 432
#     4  11  24  45  70 102 141 193 240 299 368 447
#     4  12  24  44  71 104 146 193 244 302 369 450
#     4  10  22  40  66 100 138 178 235 299 357 435
#     4  12  24  45  70 104 140 187 244 298 362 445
#     4  11  24  44  71 100 143 188 243 301 374 430
#     4  12  26  44  73 106 142 190 244 294 372 444
#
# _framework density 22.168609
#
# number of rings (size 3 to 8) (size 9 to 14) (size 15 to 20)
#    0.000    0.857    4.286    3.429    4.000    0.571 
#    5.143    2.857    0.000    0.000    0.000    0.000 
#    0.000    0.000    0.000    0.000    0.000    0.000 
#
# Total GULP energy -234930.295896 kJ/mol
# GULP energy per Si atom -5593.578474 kJ/mol
# Density = 2.211815 g / cm^3
# Si number density = 22.168609 Si / 1000 Ang^3
#
#
#
# Elastic Constant Matrix: (Units=GPa)
#
#
# Indices 1 2 3 4 5 6 
#
# 1 107.5408 29.2110 16.1837 -0.0001 6.9971 0.0000
# 2 29.2110 107.5408 16.1837 0.0001 -6.9971 0.0000
# 3 16.1837 16.1837 74.6480 0.0000 0.0000 0.0000
# 4 -0.0001 0.0001 0.0000 28.1544 0.0000 -6.9971
# 5 6.9971 -6.9971 0.0000 0.0000 28.1544 -0.0001
# 6 0.0000 0.0000 0.0000 -6.9971 -0.0001 39.1649
#
#
#
# Elastic Compliance Matrix: (Units=1/GPa)
#
#
# Indices 1 2 3 4 5 6 
#
# 1 0.010534 -0.002826 -0.001671 0.000000 -0.003320 0.000000
# 2 -0.002826 0.010534 -0.001671 0.000000 0.003320 0.000000
# 3 -0.001671 -0.001671 0.014121 0.000000 0.000000 0.000000
# 4 0.000000 0.000000 0.000000 0.037169 0.000000 0.006640
# 5 -0.003320 0.003320 0.000000 0.000000 0.037169 0.000000
# 6 0.000000 0.000000 0.000000 0.006640 0.000000 0.026719
#
#
# Mechanical properties :
#
#
# Convention : Reuss Voigt Hill
#
# Bulk Modulus (GPa) = 43.75894 45.87626 44.81760
# Shear Modulus (GPa) = 32.01042 34.30482 33.15762
#
# Velocity S-wave (km/s) = 3.80406 3.93803 3.87163
# Velocity P-wave (km/s) = 6.25112 6.43558 6.34402
#
# Compressibility (1/GPa) = 0.02285247
#
# Stress axis : x y z
#
# Youngs Moduli (GPa) = 94.93179 94.93179 70.81752
#
# Poissons Ratio (x) = 0.26826 0.11834
# Poissons Ratio (y) = 0.26826 0.11834
# Poissons Ratio (z) = 0.15864 0.15864
#
# Static dielectric constant tensor:
#      x y z
#    x 1.829060 0.000000 0.000000 
#    y 0.000000 1.829060 0.000000 
#    z 0.000000 0.000000 1.798200 
# 
# From -- ./inp_files/5185.got.cif
#   From: 2010.05.17/outbox.cif.g08.bks.cpg/sg153_3_cif.got.tgz:5185.got - 2010.05.20 10:38:56.
