data_PCOD9576865
_publ_section_title
;
Structure prediction by ZEFSAII (Michael W. Deem and Ramdas Pophale) SiO2 
 PCOD9576865
Probable space group: R 3 2
;
_chemical_formula_sum "Si O2"
_cell_formula_units_Z 96
_cell_length_a 22.900661
_cell_length_b 22.900661
_cell_length_c 12.016407
_cell_angle_alpha 90.000000
_cell_angle_beta 90.000000
_cell_angle_gamma 120.000000
_cell_volume 5457.594911
_symmetry_space_group_name_H-M "R 3 2"
_symmetry_group_IT_number 155
_symmetry_cell_setting 'hexagonal'
loop_
_space_group_symop_operation_xyz
x,y,z
-y,x-y,z
-x+y,-x,z
x-y,-y,-z
-x,-x+y,-z
y,x,-z
2/3+x,1/3+y,1/3+z
2/3-y,1/3+x-y,1/3+z
2/3-x+y,1/3-x,1/3+z
2/3+x-y,1/3-y,1/3-z
2/3-x,1/3-x+y,1/3-z
2/3+y,1/3+x,1/3-z
1/3+x,2/3+y,2/3+z
1/3-y,2/3+x-y,2/3+z
1/3-x+y,2/3-x,2/3+z
1/3+x-y,2/3-y,2/3-z
1/3-x,2/3-x+y,2/3-z
1/3+y,2/3+x,2/3-z
loop_
_atom_site_type_symbol
_atom_site_label
_atom_site_fract_x
_atom_site_fract_y
_atom_site_fract_z
Si Si1 0.904220 0.650152 0.373875
Si Si2 0.191392 0.096551 0.905561
Si Si3 0.945418 0.132845 0.146936
Si Si4 0.798943 0.458816 0.626844
Si Si5 0.884515 0.551182 0.833334
Si Si6 0.333334 0.666668 0.296762
Si Si7 0.666667 0.836856 0.833334
O O1 0.945328 0.611994 0.333334
O O2 0.829488 0.597066 0.414873
O O3 0.941146 0.707405 0.466217
O O4 0.889570 0.682770 0.266606
O O5 0.157042 0.122742 0.818945
O O6 0.181029 0.025845 0.857732
O O7 0.164675 0.076283 0.032554
O O8 0.901633 0.169894 0.142822
O O9 0.918850 0.084360 0.253775
O O10 0.838939 0.512647 0.724786
O O11 0.723949 0.405974 0.664530
O O12 0.333334 0.666668 0.166667
#
# Coordination Sequence:
#
# PCOD9576865 Si02
#       7
#    18  18  18  18   9   6   9
#     4  11  23  39  59  93 126 165 205 257 311 374
#     4  10  22  37  62  87 123 153 206 259 315 366
#     4  10  20  38  62  90 115 163 199 261 319 357
#     4  12  22  40  57  88 122 162 204 256 301 375
#     4  12  27  36  64  88 128 173 208 234 322 376
#     4  12  24  39  58  83 124 168 207 244 311 379
#     4  10  19  38  62  82 128 155 202 262 312 366
#
# _framework density 17.590164999999999
#
# number of rings (size 3 to 8) (size 9 to 14) (size 15 to 20)
#    0.000    1.125    4.688    3.375    2.625    0.000 
#    0.000    0.000    0.000   11.250    0.000    0.000 
#    0.000    0.000    0.000    0.000    0.000    0.000 
#
# Total GULP energy -178153.443406 kJ/mol
# GULP energy per Si atom -5567.295106 kJ/mol
# Density = 1.755013 g / cm^3
# Si number density = 17.590165 Si / 1000 Ang^3
#
#
#
# Elastic Constant Matrix: (Units=GPa)
#
#
# Indices 1 2 3 4 5 6 
#
# 1 86.0475 58.7328 38.7657 -3.6788 0.0000 0.0000
# 2 58.7328 86.0461 38.7660 3.6791 0.0000 -0.0001
# 3 38.7657 38.7660 81.7960 0.0000 0.0000 0.0000
# 4 -3.6788 3.6791 0.0000 29.9615 0.0001 -0.0001
# 5 0.0000 0.0000 0.0000 0.0001 29.9610 -3.6789
# 6 0.0000 -0.0001 0.0000 -0.0001 -3.6789 13.6574
#
#
#
# Elastic Compliance Matrix: (Units=1/GPa)
#
#
# Indices 1 2 3 4 5 6 
#
# 1 0.023560 -0.014304 -0.004387 0.004649 0.000000 0.000000
# 2 -0.014304 0.023560 -0.004387 -0.004649 0.000000 0.000000
# 3 -0.004387 -0.004387 0.016384 0.000000 0.000000 0.000000
# 4 0.004649 -0.004649 0.000000 0.034518 0.000000 0.000000
# 5 0.000000 0.000000 0.000000 0.000000 0.034518 0.009298
# 6 0.000000 0.000000 0.000000 0.000000 0.009298 0.075725
#
#
# Mechanical properties :
#
#
# Convention : Reuss Voigt Hill
#
# Bulk Modulus (GPa) = 57.64082 58.49096 58.06589
# Shear Modulus (GPa) = 19.21579 22.55766 20.88672
#
# Velocity S-wave (km/s) = 3.30876 3.58495 3.44962
# Velocity P-wave (km/s) = 6.88746 7.10353 6.99633
#
# Compressibility (1/GPa) = 0.01734882
#
# Stress axis : x y z
#
# Youngs Moduli (GPa) = 42.44538 42.44430 61.03625
#
# Poissons Ratio (x) = 0.60711 0.26775
# Poissons Ratio (y) = 0.60713 0.26777
# Poissons Ratio (z) = 0.18619 0.18621
#
# Static dielectric constant tensor:
#      x y z
#    x 1.601800 0.000000 0.000000 
#    y 0.000000 1.601800 0.000000 
#    z 0.000000 0.000000 1.517370 
# 
# From -- ./inp_files/4027.got.cif
#   From: 2010.05.17/outbox.cif.g08.bks.cpg/sg155_3_cif.got.tgz:4027.got - 2010.05.20 10:44:35.
