data_PCOD9576452
_publ_section_title
;
Structure prediction by ZEFSAII (Michael W. Deem and Ramdas Pophale) SiO2 
 PCOD9576452
Probable space group: P 32 2 1
;
_chemical_formula_sum "Si O2"
_cell_formula_units_Z 39
_cell_length_a 11.025290
_cell_length_b 11.025290
_cell_length_c 17.305075
_cell_angle_alpha 90.000000
_cell_angle_beta 90.000000
_cell_angle_gamma 120.000000
_cell_volume 1821.730631
_symmetry_space_group_name_H-M "P 32 2 1"
_symmetry_group_IT_number 154
_symmetry_cell_setting 'hexagonal'
loop_
_space_group_symop_operation_xyz
x,y,z
-y,x-y,2/3+z
-x+y,-x,1/3+z
x-y,-y,1/3-z
-x,-x+y,2/3-z
y,x,-z
loop_
_atom_site_type_symbol
_atom_site_label
_atom_site_fract_x
_atom_site_fract_y
_atom_site_fract_z
Si Si1 0.309096 0.383242 0.727652
Si Si2 0.212394 0.212394 0.500000
Si Si3 0.256496 0.856655 0.927748
Si Si4 0.302486 0.853712 0.373703
Si Si5 0.252026 0.838076 0.193053
Si Si6 0.598717 0.267947 0.531334
Si Si7 0.678021 0.823319 0.033418
O O1 0.192851 0.407013 0.681455
O O2 0.449084 0.527972 0.706924
O O3 0.258655 0.363335 0.816047
O O4 0.313528 0.250593 0.693891
O O5 0.234091 0.344697 0.549074
O O6 0.108856 0.201696 0.432415
O O7 0.359700 0.821295 0.880573
O O8 0.308067 0.020314 0.923199
O O9 0.248133 0.826634 0.285998
O O10 0.249509 0.717953 0.426622
O O11 0.341846 0.768913 0.161995
O O12 0.322695 0.000000 0.166667
O O13 0.471422 0.221480 0.591043
O O14 0.706481 0.706481 0.000000
#
# Coordination Sequence:
#
# PCOD9576452 Si02
#       7
#     6   3   6   6   6   6   6
#     4  10  21  36  62  95 128 167 218 266 326 390
#     4   8  20  40  62  86 120 168 214 252 312 386
#     4  10  19  40  63  92 125 169 215 265 324 391
#     4  11  22  38  65  99 133 167 217 281 334 380
#     4  11  20  35  63  98 129 167 218 278 322 384
#     4  10  23  39  64  93 130 172 216 272 329 389
#     4  10  21  42  65  89 125 171 220 264 321 403
#
# _framework density 21.408214000000001
#
# number of rings (size 3 to 8) (size 9 to 14) (size 15 to 20)
#    0.000    1.846    3.077    0.923    6.462    0.000 
#   18.000    0.000    0.000    3.692    0.000    0.000 
#    0.000    0.000    0.000    0.000    0.000    0.000 
#
# Total GULP energy -217418.277221 kJ/mol
# GULP energy per Si atom -5574.827621 kJ/mol
# Density = 2.135949 g / cm^3
# Si number density = 21.408214 Si / 1000 Ang^3
#
#
#
# Elastic Constant Matrix: (Units=GPa)
#
#
# Indices 1 2 3 4 5 6 
#
# 1 40.1911 24.9517 24.2347 -0.8682 0.0000 0.0000
# 2 24.9517 40.1911 24.2347 0.8682 0.0000 0.0000
# 3 24.2347 24.2347 62.0552 0.0000 0.0000 0.0000
# 4 -0.8682 0.8682 0.0000 23.5521 0.0000 0.0000
# 5 0.0000 0.0000 0.0000 0.0000 23.5521 -0.8682
# 6 0.0000 0.0000 0.0000 0.0000 -0.8682 7.6197
#
#
#
# Elastic Compliance Matrix: (Units=1/GPa)
#
#
# Indices 1 2 3 4 5 6 
#
# 1 0.043767 -0.022129 -0.008451 0.002429 0.000000 0.000000
# 2 -0.022129 0.043767 -0.008451 -0.002429 0.000000 0.000000
# 3 -0.008451 -0.008451 0.022715 0.000000 0.000000 0.000000
# 4 0.002429 -0.002429 0.000000 0.042638 0.000000 0.000000
# 5 0.000000 0.000000 0.000000 0.000000 0.042638 0.004859
# 6 0.000000 0.000000 0.000000 0.000000 0.004859 0.131792
#
#
# Mechanical properties :
#
#
# Convention : Reuss Voigt Hill
#
# Bulk Modulus (GPa) = 31.06568 32.14218 31.60393
# Shear Modulus (GPa) = 12.01609 15.54586 13.78098
#
# Velocity S-wave (km/s) = 2.37171 2.69767 2.53992
# Velocity P-wave (km/s) = 4.69496 4.97491 4.83696
#
# Compressibility (1/GPa) = 0.03218986
#
# Stress axis : x y z
#
# Youngs Moduli (GPa) = 22.84808 22.84808 44.02351
#
# Poissons Ratio (x) = 0.50560 0.37202
# Poissons Ratio (y) = 0.50560 0.37202
# Poissons Ratio (z) = 0.19308 0.19308
#
# Static dielectric constant tensor:
#      x y z
#    x 1.796840 0.000000 0.000000 
#    y 0.000000 1.796840 0.000000 
#    z 0.000000 0.000000 1.836490 
# 
# From -- ./inp_files/2421.got.cif
#   From: 2010.05.17/outbox.cif.g08.bks.cpg/sg154_2_cif.got.tgz:2421.got - 2010.05.20 10:41:43.
