data_PCOD9576040
_publ_section_title
;
Structure prediction by ZEFSAII (Michael W. Deem and Ramdas Pophale) SiO2 
 PCOD9576040
Probable space group: P 31 2 1
;
_chemical_formula_sum "Si O2"
_cell_formula_units_Z 27
_cell_length_a 8.610886
_cell_length_b 8.610886
_cell_length_c 18.189846
_cell_angle_alpha 90.000000
_cell_angle_beta 90.000000
_cell_angle_gamma 120.000000
_cell_volume 1168.033592
_symmetry_space_group_name_H-M "P 31 2 1"
_symmetry_group_IT_number 152
_symmetry_cell_setting 'hexagonal'
loop_
_space_group_symop_operation_xyz
x,y,z
-y,x-y,1/3+z
-x+y,-x,2/3+z
x-y,-y,2/3-z
-x,-x+y,1/3-z
y,x,-z
loop_
_atom_site_type_symbol
_atom_site_label
_atom_site_fract_x
_atom_site_fract_y
_atom_site_fract_z
Si Si1 0.439396 0.362527 0.884052
Si Si2 0.463537 0.707339 0.308358
Si Si3 0.557227 0.927910 0.982185
Si Si4 0.690690 0.831461 0.117029
Si Si5 0.751951 0.000000 0.833334
O O1 0.344371 0.457390 0.927575
O O2 0.293112 0.276755 0.820453
O O3 0.646187 0.504585 0.864462
O O4 0.460089 0.237204 0.943019
O O5 0.495608 0.541826 0.299737
O O6 0.252397 0.626821 0.299302
O O7 0.660232 0.023293 0.907094
O O8 0.673444 0.865620 0.031046
O O9 0.837699 0.784367 0.144897
#
# Coordination Sequence:
#
# PCOD9576040 Si02
#       5
#     6   6   6   6   3
#     4  10  22  42  70  96 132 179 223 278 334 412
#     4  10  23  43  67 101 135 177 225 275 340 411
#     4  11  25  42  68  98 137 176 226 285 342 408
#     4  11  24  44  68  98 134 177 226 280 344 408
#     4  12  26  42  66  98 138 176 222 294 346 390
#
# _framework density 23.115777000000001
#
# number of rings (size 3 to 8) (size 9 to 14) (size 15 to 20)
#    0.000    1.333    2.222    2.000    9.333    3.556 
#    4.000    0.000    0.000    0.000    0.000    0.000 
#    0.000    0.000    0.000    0.000    0.000    0.000 
#
# Total GULP energy -150589.732518 kJ/mol
# GULP energy per Si atom -5577.397501 kJ/mol
# Density = 2.306316 g / cm^3
# Si number density = 23.115777 Si / 1000 Ang^3
#
#
#
# Elastic Constant Matrix: (Units=GPa)
#
#
# Indices 1 2 3 4 5 6 
#
# 1 54.7678 -3.8818 0.0481 0.8356 0.0000 0.0000
# 2 -3.8818 54.7678 0.0481 -0.8356 0.0000 0.0000
# 3 0.0481 0.0481 65.9724 0.0000 0.0000 0.0000
# 4 0.8356 -0.8356 0.0000 25.4025 0.0000 0.0000
# 5 0.0000 0.0000 0.0000 0.0000 25.4025 0.8356
# 6 0.0000 0.0000 0.0000 0.0000 0.8356 29.3248
#
#
#
# Elastic Compliance Matrix: (Units=1/GPa)
#
#
# Indices 1 2 3 4 5 6 
#
# 1 0.018359 0.001293 -0.000014 -0.000561 0.000000 0.000000
# 2 0.001293 0.018359 -0.000014 0.000561 0.000000 0.000000
# 3 -0.000014 -0.000014 0.015158 0.000000 0.000000 0.000000
# 4 -0.000561 0.000561 0.000000 0.039403 0.000000 0.000000
# 5 0.000000 0.000000 0.000000 0.000000 0.039403 -0.001123
# 6 0.000000 0.000000 0.000000 0.000000 -0.001123 0.034133
#
#
# Mechanical properties :
#
#
# Convention : Reuss Voigt Hill
#
# Bulk Modulus (GPa) = 18.38094 18.65964 18.52029
# Shear Modulus (GPa) = 27.71284 27.97887 27.84585
#
# Velocity S-wave (km/s) = 3.46623 3.48283 3.47454
# Velocity P-wave (km/s) = 4.89782 4.92577 4.91181
#
# Compressibility (1/GPa) = 0.05440417
#
# Stress axis : x y z
#
# Youngs Moduli (GPa) = 54.46889 54.46889 65.97234
#
# Poissons Ratio (x) = -0.07041 0.00094
# Poissons Ratio (y) = -0.07041 0.00094
# Poissons Ratio (z) = 0.00078 0.00078
#
# Static dielectric constant tensor:
#      x y z
#    x 1.816600 0.000000 0.000000 
#    y 0.000000 1.816600 0.000000 
#    z 0.000000 0.000000 2.078820 
# 
# From -- ./inp_files/2679.got.cif
#   From: 2010.05.17/outbox.cif.g08.bks.cpg/sg152_2_cif.got.tgz:2679.got - 2010.05.20 10:36:06.
