data_PCOD9576810
_publ_section_title
;
Structure prediction by ZEFSAII (Michael W. Deem and Ramdas Pophale) SiO2 
 PCOD9576810
Probable space group: R 3 2
;
_chemical_formula_sum "Si O2"
_cell_formula_units_Z 81
_cell_length_a 14.674280
_cell_length_b 14.674280
_cell_length_c 18.945386
_cell_angle_alpha 90.000000
_cell_angle_beta 90.000000
_cell_angle_gamma 120.000000
_cell_volume 3533.032993
_symmetry_space_group_name_H-M "R 3 2"
_symmetry_group_IT_number 155
_symmetry_cell_setting 'hexagonal'
loop_
_space_group_symop_operation_xyz
x,y,z
-y,x-y,z
-x+y,-x,z
x-y,-y,-z
-x,-x+y,-z
y,x,-z
2/3+x,1/3+y,1/3+z
2/3-y,1/3+x-y,1/3+z
2/3-x+y,1/3-x,1/3+z
2/3+x-y,1/3-y,1/3-z
2/3-x,1/3-x+y,1/3-z
2/3+y,1/3+x,1/3-z
1/3+x,2/3+y,2/3+z
1/3-y,2/3+x-y,2/3+z
1/3-x+y,2/3-x,2/3+z
1/3+x-y,2/3-y,2/3-z
1/3-x,2/3-x+y,2/3-z
1/3+y,2/3+x,2/3-z
loop_
_atom_site_type_symbol
_atom_site_label
_atom_site_fract_x
_atom_site_fract_y
_atom_site_fract_z
Si Si1 0.388781 0.589384 0.312904
Si Si2 0.666667 0.143631 0.833334
Si Si3 0.845217 0.093484 0.837446
Si Si4 0.177731 0.297928 0.000169
Si Si5 0.887059 0.410920 0.477398
O O1 0.446596 0.713662 0.328876
O O2 0.381202 0.560872 0.229593
O O3 0.443584 0.530767 0.347726
O O4 0.762034 0.124966 0.806398
O O5 0.858201 0.132789 0.919122
O O6 0.967657 0.139691 0.820783
O O7 0.794691 0.968843 0.832244
O O8 0.272072 0.272072 0.000000
O O9 0.093485 0.226231 0.941324
O O10 0.000000 0.431821 0.500000
#
# Coordination Sequence:
#
# PCOD9576810 Si02
#       5
#    18   9  18  18  18
#     4   9  19  35  58  88 116 155 203 244 311 372
#     4  10  18  36  60  84 124 160 196 260 300 374
#     4  10  21  38  61  86 125 164 203 255 315 369
#     4   9  20  39  60  83 121 159 201 256 314 376
#     4  11  22  40  60  92 119 160 211 256 315 376
#
# _framework density 22.926477999999999
#
# number of rings (size 3 to 8) (size 9 to 14) (size 15 to 20)
#    0.444    1.778    1.111    1.778    0.000    3.556 
#    4.000    6.667    0.000    0.000    0.000    0.000 
#    0.000    0.000    0.000    0.000    0.000    0.000 
#
# Total GULP energy -150482.906535 kJ/mol
# GULP energy per Si atom -5573.440983 kJ/mol
# Density = 2.287430 g / cm^3
# Si number density = 22.926478 Si / 1000 Ang^3
#
#
#
# Elastic Constant Matrix: (Units=GPa)
#
#
# Indices 1 2 3 4 5 6 
#
# 1 81.5821 20.5521 -13.7308 -0.5316 0.0001 0.0000
# 2 20.5521 81.5821 -13.7308 0.5316 -0.0001 0.0000
# 3 -13.7308 -13.7308 74.6466 0.0000 0.0000 0.0000
# 4 -0.5316 0.5316 0.0000 16.4424 0.0000 -0.0001
# 5 0.0001 -0.0001 0.0000 0.0000 16.4424 -0.5316
# 6 0.0000 0.0000 0.0000 -0.0001 -0.5316 30.5150
#
#
#
# Elastic Compliance Matrix: (Units=1/GPa)
#
#
# Indices 1 2 3 4 5 6 
#
# 1 0.013348 -0.003047 0.001895 0.000530 0.000000 0.000000
# 2 -0.003047 0.013348 0.001895 -0.000530 0.000000 0.000000
# 3 0.001895 0.001895 0.014093 0.000000 0.000000 0.000000
# 4 0.000530 -0.000530 0.000000 0.060853 0.000000 0.000000
# 5 0.000000 0.000000 0.000000 0.000000 0.060853 0.001060
# 6 0.000000 0.000000 0.000000 0.000000 0.001060 0.032789
#
#
# Mechanical properties :
#
#
# Convention : Reuss Voigt Hill
#
# Bulk Modulus (GPa) = 23.65559 24.88799 24.27179
# Shear Modulus (GPa) = 24.05124 28.99464 26.52294
#
# Velocity S-wave (km/s) = 3.24243 3.56009 3.40497
# Velocity P-wave (km/s) = 4.93541 5.27050 5.10570
#
# Compressibility (1/GPa) = 0.04227330
#
# Stress axis : x y z
#
# Youngs Moduli (GPa) = 74.92009 74.92009 70.95471
#
# Poissons Ratio (x) = 0.22829 -0.13444
# Poissons Ratio (y) = 0.22829 -0.13444
# Poissons Ratio (z) = -0.14195 -0.14195
#
# Static dielectric constant tensor:
#      x y z
#    x 1.859130 0.000000 0.000000 
#    y 0.000000 1.859130 0.000000 
#    z 0.000000 0.000000 1.973590 
# 
# From -- ./inp_files/7378.got.cif
#   From: 2010.05.17/outbox.cif.g08.bks.cpg/sg155_4_cif.got.tgz:7378.got - 2010.05.20 10:44:35.
