data_PCOD9576401
_publ_section_title
;
Structure prediction by ZEFSAII (Michael W. Deem and Ramdas Pophale) SiO2 
 PCOD9576401
Probable space group: P 32 2 1
;
_chemical_formula_sum "Si O2"
_cell_formula_units_Z 39
_cell_length_a 11.414685
_cell_length_b 11.414685
_cell_length_c 20.041759
_cell_angle_alpha 90.000000
_cell_angle_beta 90.000000
_cell_angle_gamma 120.000000
_cell_volume 2261.488218
_symmetry_space_group_name_H-M "P 32 2 1"
_symmetry_group_IT_number 154
_symmetry_cell_setting 'hexagonal'
loop_
_space_group_symop_operation_xyz
x,y,z
-y,x-y,2/3+z
-x+y,-x,1/3+z
x-y,-y,1/3-z
-x,-x+y,2/3-z
y,x,-z
loop_
_atom_site_type_symbol
_atom_site_label
_atom_site_fract_x
_atom_site_fract_y
_atom_site_fract_z
Si Si1 0.514031 0.407805 0.234757
Si Si2 0.356511 0.975750 0.548391
Si Si3 0.448413 0.448413 0.000000
Si Si4 0.259226 0.384577 0.450411
Si Si5 0.504915 0.660742 0.499037
Si Si6 0.842016 0.572383 0.035935
Si Si7 0.296144 0.722707 0.311384
O O1 0.607988 0.519269 0.180429
O O2 0.459456 0.260936 0.201575
O O3 0.393392 0.431558 0.258211
O O4 0.603917 0.418130 0.298104
O O5 0.221340 0.866465 0.586397
O O6 0.475726 0.015151 0.602356
O O7 0.359266 0.112586 0.529828
O O8 0.454864 0.312791 0.008135
O O9 0.300575 0.300575 0.500000
O O10 0.376824 0.539759 0.461129
O O11 0.255367 0.361861 0.370482
O O12 0.621978 0.621978 0.500000
O O13 0.455619 0.659986 0.573957
O O14 0.713399 0.421006 0.025855
#
# Coordination Sequence:
#
# PCOD9576401 Si02
#       7
#     6   6   3   6   6   6   6
#     4  12  23  34  61  91 119 156 205 242 303 371
#     4  11  21  38  60  86 118 156 200 249 289 359
#     4  10  18  36  62  76 120 148 198 242 290 348
#     4  11  21  40  61  86 121 156 197 250 302 352
#     4  11  22  38  57  85 127 154 186 251 313 348
#     4  11  22  37  60  89 119 156 201 250 299 359
#     4  11  22  38  58  91 117 154 196 251 298 355
#
# _framework density 17.245280999999999
#
# number of rings (size 3 to 8) (size 9 to 14) (size 15 to 20)
#    0.000    0.923    7.692    2.769    2.154    0.000 
#    0.000    0.769    0.000    0.000    0.000    0.000 
#    0.000    0.000    0.000    0.000    0.000    0.000 
#
# Total GULP energy -217705.513385 kJ/mol
# GULP energy per Si atom -5582.192651 kJ/mol
# Density = 1.720603 g / cm^3
# Si number density = 17.245281 Si / 1000 Ang^3
#
#
#
# Elastic Constant Matrix: (Units=GPa)
#
#
# Indices 1 2 3 4 5 6 
#
# 1 63.7841 26.0519 25.0730 4.4733 0.0000 0.0000
# 2 26.0519 63.7841 25.0730 -4.4733 0.0000 0.0000
# 3 25.0730 25.0730 77.7667 0.0000 0.0000 0.0000
# 4 4.4733 -4.4733 0.0000 26.1317 0.0000 0.0000
# 5 0.0000 0.0000 0.0000 0.0000 26.1317 4.4733
# 6 0.0000 0.0000 0.0000 0.0000 4.4733 18.8661
#
#
#
# Elastic Compliance Matrix: (Units=1/GPa)
#
#
# Indices 1 2 3 4 5 6 
#
# 1 0.020599 -0.007025 -0.004377 -0.004729 0.000000 0.000000
# 2 -0.007025 0.020599 -0.004377 0.004729 0.000000 0.000000
# 3 -0.004377 -0.004377 0.015681 0.000000 0.000000 0.000000
# 4 -0.004729 0.004729 0.000000 0.039887 0.000000 0.000000
# 5 0.000000 0.000000 0.000000 0.000000 0.039887 -0.009457
# 6 0.000000 0.000000 0.000000 0.000000 -0.009457 0.055248
#
#
# Mechanical properties :
#
#
# Convention : Reuss Voigt Hill
#
# Bulk Modulus (GPa) = 39.48885 39.74787 39.61836
# Shear Modulus (GPa) = 21.56130 22.83504 22.19817
#
# Velocity S-wave (km/s) = 3.53976 3.64281 3.59165
# Velocity P-wave (km/s) = 6.29719 6.38686 6.34218
#
# Compressibility (1/GPa) = 0.02532360
#
# Stress axis : x y z
#
# Youngs Moduli (GPa) = 48.54586 48.54586 63.77107
#
# Poissons Ratio (x) = 0.34102 0.27910
# Poissons Ratio (y) = 0.34102 0.27910
# Poissons Ratio (z) = 0.21246 0.21246
#
# Static dielectric constant tensor:
#      x y z
#    x 1.581860 0.000000 0.000000 
#    y 0.000000 1.581860 0.000000 
#    z 0.000000 0.000000 1.602160 
# 
# From -- ./inp_files/2419.got.cif
#   From: 2010.05.17/outbox.cif.g08.bks.cpg/sg154_2_cif.got.tgz:2419.got - 2010.05.20 10:41:43.
