data_PCOD9576838
_publ_section_title
;
Structure prediction by ZEFSAII (Michael W. Deem and Ramdas Pophale) SiO2 
 PCOD9576838
Probable space group: R 3 2
;
_chemical_formula_sum "Si O2"
_cell_formula_units_Z 120
_cell_length_a 23.158568
_cell_length_b 23.158568
_cell_length_c 14.017766
_cell_angle_alpha 90.000000
_cell_angle_beta 90.000000
_cell_angle_gamma 120.000000
_cell_volume 6510.777300
_symmetry_space_group_name_H-M "R 3 2"
_symmetry_group_IT_number 155
_symmetry_cell_setting 'hexagonal'
loop_
_space_group_symop_operation_xyz
x,y,z
-y,x-y,z
-x+y,-x,z
x-y,-y,-z
-x,-x+y,-z
y,x,-z
2/3+x,1/3+y,1/3+z
2/3-y,1/3+x-y,1/3+z
2/3-x+y,1/3-x,1/3+z
2/3+x-y,1/3-y,1/3-z
2/3-x,1/3-x+y,1/3-z
2/3+y,1/3+x,1/3-z
1/3+x,2/3+y,2/3+z
1/3-y,2/3+x-y,2/3+z
1/3-x+y,2/3-x,2/3+z
1/3+x-y,2/3-y,2/3-z
1/3-x,2/3-x+y,2/3-z
1/3+y,2/3+x,2/3-z
loop_
_atom_site_type_symbol
_atom_site_label
_atom_site_fract_x
_atom_site_fract_y
_atom_site_fract_z
Si Si1 0.860342 0.878111 0.327121
Si Si2 0.000000 0.000000 0.387887
Si Si3 0.955081 0.849981 0.833934
Si Si4 0.575364 0.642354 0.059405
Si Si5 0.199863 0.077675 0.015991
Si Si6 0.333334 0.666668 0.552836
Si Si7 0.120814 0.343695 0.942676
Si Si8 0.456842 0.873089 0.432084
O O1 0.832296 0.890697 0.228829
O O2 0.795282 0.835086 0.392732
O O3 0.896024 0.835691 0.302272
O O4 0.923011 0.949553 0.357555
O O5 0.000000 0.000000 0.500000
O O6 0.990662 0.930105 0.850300
O O7 0.003694 0.833134 0.773676
O O8 0.933750 0.816984 0.937083
O O9 0.604922 0.666667 0.166667
O O10 0.589949 0.589949 0.000000
O O11 0.612631 0.708036 0.994552
O O12 0.274488 0.092215 0.003122
O O13 0.199386 0.098102 0.125030
O O14 0.147137 0.000000 0.000000
O O15 0.333334 0.666668 0.666667
O O16 0.096739 0.333334 0.833334
O O17 0.201502 0.384640 0.933476
#
# Coordination Sequence:
#
# PCOD9576838 Si02
#       8
#    18   6  18  18  18   6  18  18
#     4  11  21  35  53  81 111 149 184 228 278 336
#     4  12  22  38  58  76 113 148 189 232 281 334
#     4  12  19  30  52  80 121 149 179 220 286 339
#     4  11  24  39  58  80 112 149 190 233 280 334
#     4  11  19  29  50  82 114 150 184 219 281 342
#     4  12  19  26  43  84 127 158 172 220 284 352
#     4   9  21  36  55  76 112 150 188 226 277 329
#     4  10  19  34  48  79 118 148 181 222 271 341
#
# _framework density 18.430979000000001
#
# number of rings (size 3 to 8) (size 9 to 14) (size 15 to 20)
#    0.000    1.200    4.500    3.150    2.100    0.000 
#    0.000    0.000    0.000    0.000    0.000    6.300 
#    0.000    0.000    0.000    0.000    0.000    0.000 
#
# Total GULP energy -222872.403873 kJ/mol
# GULP energy per Si atom -5571.810097 kJ/mol
# Density = 1.838903 g / cm^3
# Si number density = 18.430979 Si / 1000 Ang^3
#
#
#
# Elastic Constant Matrix: (Units=GPa)
#
#
# Indices 1 2 3 4 5 6 
#
# 1 53.5745 14.3544 9.5109 -2.4308 0.0000 0.0000
# 2 14.3544 53.5745 9.5111 2.4307 -0.0001 -0.0001
# 3 9.5109 9.5111 68.7336 -0.0001 0.0000 0.0000
# 4 -2.4308 2.4307 -0.0001 15.3500 0.0001 0.0000
# 5 0.0000 -0.0001 0.0000 0.0001 15.3495 -2.4310
# 6 0.0000 -0.0001 0.0000 0.0000 -2.4310 19.6099
#
#
#
# Elastic Compliance Matrix: (Units=1/GPa)
#
#
# Indices 1 2 3 4 5 6 
#
# 1 0.020661 -0.005346 -0.002119 0.004118 0.000000 0.000000
# 2 -0.005346 0.020661 -0.002119 -0.004118 0.000000 0.000000
# 3 -0.002119 -0.002119 0.015135 0.000000 0.000000 0.000000
# 4 0.004118 -0.004118 0.000000 0.066451 0.000000 0.000000
# 5 0.000000 0.000000 0.000000 0.000000 0.066454 0.008238
# 6 0.000000 0.000000 0.000000 0.000000 0.008238 0.052016
#
#
# Mechanical properties :
#
#
# Convention : Reuss Voigt Hill
#
# Bulk Modulus (GPa) = 26.81819 26.95949 26.88884
# Shear Modulus (GPa) = 18.31655 19.56229 18.93942
#
# Velocity S-wave (km/s) = 3.15587 3.26142 3.20908
# Velocity P-wave (km/s) = 5.27840 5.37043 5.32461
#
# Compressibility (1/GPa) = 0.03728813
#
# Stress axis : x y z
#
# Youngs Moduli (GPa) = 48.39995 48.39999 66.07024
#
# Poissons Ratio (x) = 0.25877 0.14001
# Poissons Ratio (y) = 0.25877 0.14002
# Poissons Ratio (z) = 0.10257 0.10257
#
# Static dielectric constant tensor:
#      x y z
#    x 1.705840 0.000000 0.000000 
#    y 0.000000 1.705840 0.000000 
#    z 0.000000 0.000000 1.667990 
# 
# From -- ./inp_files/5408.got.cif
#   From: 2010.05.17/outbox.cif.g08.bks.cpg/sg155_3_cif.got.tgz:5408.got - 2010.05.20 10:44:35.
