data_PCOD9576115
_publ_section_title
;
Structure prediction by ZEFSAII (Michael W. Deem and Ramdas Pophale) SiO2 
 PCOD9576115
Probable space group: P 31 2 1
;
_chemical_formula_sum "Si O2"
_cell_formula_units_Z 36
_cell_length_a 7.010616
_cell_length_b 7.010616
_cell_length_c 31.814881
_cell_angle_alpha 90.000000
_cell_angle_beta 90.000000
_cell_angle_gamma 120.000000
_cell_volume 1354.170330
_symmetry_space_group_name_H-M "P 31 2 1"
_symmetry_group_IT_number 152
_symmetry_cell_setting 'hexagonal'
loop_
_space_group_symop_operation_xyz
x,y,z
-y,x-y,1/3+z
-x+y,-x,2/3+z
x-y,-y,2/3-z
-x,-x+y,1/3-z
y,x,-z
loop_
_atom_site_type_symbol
_atom_site_label
_atom_site_fract_x
_atom_site_fract_y
_atom_site_fract_z
Si Si1 0.245977 0.521119 0.802546
Si Si2 0.211047 0.939946 0.378810
Si Si3 0.782976 0.256434 0.041550
Si Si4 0.966188 0.882756 0.122004
Si Si5 0.654732 0.262999 0.946776
Si Si6 0.722741 0.175864 0.439652
O O1 0.151208 0.255508 0.800914
O O2 0.430157 0.664441 0.767069
O O3 0.044470 0.545393 0.785680
O O4 0.262610 0.577284 0.851504
O O5 0.978867 0.724802 0.387940
O O6 0.255128 0.126802 0.412511
O O7 0.380543 0.850300 0.375866
O O8 0.176224 0.000000 0.333334
O O9 0.026530 0.439711 0.055412
O O10 0.587446 0.274437 0.065356
O O11 0.776091 0.264041 0.990321
O O12 0.000000 0.793444 0.166667
O O13 0.194725 0.091320 0.107703
#
# Coordination Sequence:
#
# PCOD9576115 Si02
#       6
#     6   6   6   6   6   6
#     4  10  25  48  73 107 146 193 244 309 374 461
#     4  11  26  45  74 100 146 195 243 307 376 453
#     4  12  27  44  73 108 145 193 251 313 372 457
#     4   9  22  46  75 101 144 188 240 299 376 449
#     4  11  26  46  68 106 149 187 249 306 374 448
#     4  11  26  46  77 108 146 193 245 307 382 454
#
# _framework density 26.584546
#
# number of rings (size 3 to 8) (size 9 to 14) (size 15 to 20)
#    0.000    1.333    1.667    1.000   14.000    2.667 
#    9.000    0.000    0.000    0.000    0.000    0.000 
#    0.000    0.000    0.000    0.000    0.000    0.000 
#
# Total GULP energy -200701.046014 kJ/mol
# GULP energy per Si atom -5575.029056 kJ/mol
# Density = 2.652404 g / cm^3
# Si number density = 26.584546 Si / 1000 Ang^3
#
#
#
# Elastic Constant Matrix: (Units=GPa)
#
#
# Indices 1 2 3 4 5 6 
#
# 1 125.5068 56.1427 16.6983 0.9674 -0.0005 0.0000
# 2 56.1427 125.5068 16.6983 -0.9674 0.0005 0.0000
# 3 16.6983 16.6983 172.1500 0.0000 0.0000 0.0000
# 4 0.9674 -0.9674 0.0000 35.6029 0.0000 0.0005
# 5 -0.0005 0.0005 0.0000 0.0000 35.6029 0.9674
# 6 0.0000 0.0000 0.0000 0.0005 0.9674 34.6820
#
#
#
# Elastic Compliance Matrix: (Units=1/GPa)
#
#
# Indices 1 2 3 4 5 6 
#
# 1 0.010016 -0.004411 -0.000544 -0.000392 0.000000 0.000000
# 2 -0.004411 0.010016 -0.000544 0.000392 0.000000 0.000000
# 3 -0.000544 -0.000544 0.005914 0.000000 0.000000 0.000000
# 4 -0.000392 0.000392 0.000000 0.028109 0.000000 0.000000
# 5 0.000000 0.000000 0.000000 0.000000 0.028109 -0.000784
# 6 0.000000 0.000000 0.000000 0.000000 -0.000784 0.028855
#
#
# Mechanical properties :
#
#
# Convention : Reuss Voigt Hill
#
# Bulk Modulus (GPa) = 66.89072 66.91580 66.90326
# Shear Modulus (GPa) = 39.36989 43.41919 41.39454
#
# Velocity S-wave (km/s) = 3.85246 4.04573 3.95028
# Velocity P-wave (km/s) = 6.70856 6.85926 6.78433
#
# Compressibility (1/GPa) = 0.01494976
#
# Stress axis : x y z
#
# Youngs Moduli (GPa) = 99.83684 99.83684 169.07996
#
# Poissons Ratio (x) = 0.44041 0.09193
# Poissons Ratio (y) = 0.44041 0.09193
# Poissons Ratio (z) = 0.05428 0.05428
#
# Static dielectric constant tensor:
#      x y z
#    x 2.176260 0.000000 0.000000 
#    y 0.000000 2.176260 0.000000 
#    z 0.000000 0.000000 2.375490 
# 
# From -- ./inp_files/3561.got.cif
#   From: 2010.05.17/outbox.cif.g08.bks.cpg/sg152_2_cif.got.tgz:3561.got - 2010.05.20 10:36:06.
