data_PCOD9576342
_publ_section_title
;
Structure prediction by ZEFSAII (Michael W. Deem and Ramdas Pophale) SiO2 
 PCOD9576342
Probable space group: P 32 1 2
;
_chemical_formula_sum "Si O2"
_cell_formula_units_Z 30
_cell_length_a 7.946453
_cell_length_b 7.946453
_cell_length_c 20.808844
_cell_angle_alpha 90.000000
_cell_angle_beta 90.000000
_cell_angle_gamma 120.000000
_cell_volume 1137.955356
_symmetry_space_group_name_H-M "P 32 1 2"
_symmetry_group_IT_number 153
_symmetry_cell_setting 'hexagonal'
loop_
_space_group_symop_operation_xyz
x,y,z
-y,x-y,2/3+z
-x+y,-x,1/3+z
-y,-x,1/3-z
-x+y,y,2/3-z
x,x-y,-z
loop_
_atom_site_type_symbol
_atom_site_label
_atom_site_fract_x
_atom_site_fract_y
_atom_site_fract_z
Si Si1 0.212912 0.064283 0.803777
Si Si2 0.947318 0.286466 0.992461
Si Si3 0.377239 0.998717 0.523063
Si Si4 0.131417 0.392020 0.583165
Si Si5 0.933802 0.440263 0.688684
O O1 0.314226 0.212386 0.746680
O O2 0.051868 0.103735 0.833334
O O3 0.094252 0.839797 0.779515
O O4 0.328495 0.040608 0.863971
O O5 0.031168 0.515584 0.000000
O O6 0.096831 0.247983 0.032545
O O7 0.738472 0.184681 0.025386
O O8 0.321272 0.855532 0.461505
O O9 0.433967 0.216984 0.500000
O O10 0.524295 0.985500 0.572602
O O11 0.088526 0.522651 0.630867
O O12 0.776268 0.223733 0.666667
#
# Coordination Sequence:
#
# PCOD9576342 Si02
#       5
#     6   6   6   6   6
#     4   9  21  42  73 103 140 197 252 310 386 466
#     4  11  24  46  70 103 154 203 246 321 397 458
#     4   9  19  45  69 105 153 198 237 322 397 449
#     4  10  23  44  69 111 142 196 254 314 389 460
#     4  11  24  41  74 114 148 199 259 315 385 484
#
# _framework density 26.363071999999999
#
# number of rings (size 3 to 8) (size 9 to 14) (size 15 to 20)
#    1.200    0.800    2.000    0.000    2.800    4.800 
#    3.600    0.000    0.000    0.000    5.200    0.000 
#    0.000    0.000    0.000    0.000    0.000    0.000 
#
# Total GULP energy -167467.590494 kJ/mol
# GULP energy per Si atom -5582.253016 kJ/mol
# Density = 2.630307 g / cm^3
# Si number density = 26.363072 Si / 1000 Ang^3
#
#
#
# Elastic Constant Matrix: (Units=GPa)
#
#
# Indices 1 2 3 4 5 6 
#
# 1 72.6326 24.0290 56.4691 0.0000 2.9621 0.0000
# 2 24.0290 72.6326 56.4691 0.0000 -2.9621 0.0000
# 3 56.4691 56.4691 232.6002 0.0000 0.0000 0.0000
# 4 0.0000 0.0000 0.0000 49.3718 0.0000 -2.9621
# 5 2.9621 -2.9621 0.0000 0.0000 49.3718 0.0000
# 6 0.0000 0.0000 0.0000 -2.9621 0.0000 24.3018
#
#
#
# Elastic Compliance Matrix: (Units=1/GPa)
#
#
# Indices 1 2 3 4 5 6 
#
# 1 0.017584 -0.003142 -0.003506 0.000000 -0.001243 0.000000
# 2 -0.003142 0.017584 -0.003506 0.000000 0.001243 0.000000
# 3 -0.003506 -0.003506 0.006002 0.000000 0.000000 0.000000
# 4 0.000000 0.000000 0.000000 0.020404 0.000000 0.002487
# 5 -0.001243 0.001243 0.000000 0.000000 0.020404 0.000000
# 6 0.000000 0.000000 0.000000 0.002487 0.000000 0.041452
#
#
# Mechanical properties :
#
#
# Convention : Reuss Voigt Hill
#
# Bulk Modulus (GPa) = 47.93653 72.42221 60.17937
# Shear Modulus (GPa) = 33.18029 40.66894 36.92462
#
# Velocity S-wave (km/s) = 3.55151 3.93192 3.74654
# Velocity P-wave (km/s) = 5.91949 6.93859 6.44920
#
# Compressibility (1/GPa) = 0.02086092
#
# Stress axis : x y z
#
# Youngs Moduli (GPa) = 56.86977 56.86977 166.62225
#
# Poissons Ratio (x) = 0.17869 0.58419
# Poissons Ratio (y) = 0.17869 0.58419
# Poissons Ratio (z) = 0.19939 0.19939
#
# Static dielectric constant tensor:
#      x y z
#    x 2.121820 0.000000 0.000000 
#    y 0.000000 2.121820 0.000000 
#    z 0.000000 0.000000 2.203430 
# 
# From -- ./inp_files/4262.got.cif
#   From: 2010.05.17/outbox.cif.g08.bks.cpg/sg153_3_cif.got.tgz:4262.got - 2010.05.20 10:38:56.
