data_PCOD9576343
_publ_section_title
;
Structure prediction by ZEFSAII (Michael W. Deem and Ramdas Pophale) SiO2 
 PCOD9576343
Probable space group: P 32 1 2
;
_chemical_formula_sum "Si O2"
_cell_formula_units_Z 30
_cell_length_a 7.701135
_cell_length_b 7.701135
_cell_length_c 25.561490
_cell_angle_alpha 90.000000
_cell_angle_beta 90.000000
_cell_angle_gamma 120.000000
_cell_volume 1312.883743
_symmetry_space_group_name_H-M "P 32 1 2"
_symmetry_group_IT_number 153
_symmetry_cell_setting 'hexagonal'
loop_
_space_group_symop_operation_xyz
x,y,z
-y,x-y,2/3+z
-x+y,-x,1/3+z
-y,-x,1/3-z
-x+y,y,2/3-z
x,x-y,-z
loop_
_atom_site_type_symbol
_atom_site_label
_atom_site_fract_x
_atom_site_fract_y
_atom_site_fract_z
Si Si1 0.250307 0.531893 0.117893
Si Si2 0.729116 0.989009 0.622976
Si Si3 0.896572 0.326950 0.921476
Si Si4 0.569549 0.953445 0.973971
Si Si5 0.259553 0.147771 0.151978
O O1 0.309672 0.690329 0.166667
O O2 0.431829 0.603137 0.075938
O O3 0.226696 0.334614 0.145130
O O4 0.042665 0.477651 0.088130
O O5 0.727558 0.788573 0.608125
O O6 0.521758 0.940547 0.648079
O O7 0.778166 0.113401 0.569854
O O8 0.891991 0.108010 0.666667
O O9 0.820201 0.232231 0.864531
O O10 0.710732 0.187292 0.959015
O O11 0.675801 0.837901 0.000000
O O12 0.049997 0.950004 0.166667
#
# Coordination Sequence:
#
# PCOD9576343 Si02
#       5
#     6   6   6   6   6
#     4  12  23  47  75 106 147 197 257 313 384 469
#     4  11  22  43  68 102 149 192 249 316 375 454
#     4  11  25  45  71 105 149 198 246 315 388 454
#     4  12  25  46  73 111 151 200 252 318 391 454
#     4  10  23  44  71 103 144 200 246 309 384 458
#
# _framework density 22.850462
#
# number of rings (size 3 to 8) (size 9 to 14) (size 15 to 20)
#    0.000    0.800    6.000    2.400    0.000    0.000 
#    7.200    0.000    0.000    0.000    0.000    0.000 
#    0.000    0.000    0.000    0.000    0.000    0.000 
#
# Total GULP energy -167597.151816 kJ/mol
# GULP energy per Si atom -5586.571727 kJ/mol
# Density = 2.279845 g / cm^3
# Si number density = 22.850462 Si / 1000 Ang^3
#
#
#
# Elastic Constant Matrix: (Units=GPa)
#
#
# Indices 1 2 3 4 5 6 
#
# 1 64.8584 14.5338 28.5698 0.0011 -12.0286 0.0000
# 2 14.5338 64.8584 28.5698 -0.0011 12.0286 0.0000
# 3 28.5698 28.5698 121.2979 0.0000 0.0000 0.0000
# 4 0.0011 -0.0011 0.0000 6.2173 0.0000 12.0286
# 5 -12.0286 12.0286 0.0000 0.0000 6.2173 0.0011
# 6 0.0000 0.0000 0.0000 12.0286 0.0011 25.1623
#
#
#
# Elastic Compliance Matrix: (Units=1/GPa)
#
#
# Indices 1 2 3 4 5 6 
#
# 1 0.139818 -0.124651 -0.003572 -0.000045 0.511670 0.000000
# 2 -0.124651 0.139818 -0.003572 0.000045 -0.511670 0.000000
# 3 -0.003572 -0.003572 0.009927 0.000000 0.000000 0.000000
# 4 -0.000045 0.000045 0.000000 2.140703 -0.000001 -1.023340
# 5 0.511670 -0.511670 0.000000 -0.000001 2.140705 -0.000090
# 6 0.000000 0.000000 0.000000 -1.023340 -0.000090 0.528938
#
#
# Mechanical properties :
#
#
# Convention : Reuss Voigt Hill
#
# Bulk Modulus (GPa) = 38.50409 43.81796 41.16102
# Shear Modulus (GPa) = 0.93072 19.47546 10.20309
#
# Velocity S-wave (km/s) = 0.63890 2.92259 2.11538
# Velocity P-wave (km/s) = 4.17508 5.53229 4.90090
#
# Compressibility (1/GPa) = 0.02597127
#
# Stress axis : x y z
#
# Youngs Moduli (GPa) = 7.15216 7.15216 100.73583
#
# Poissons Ratio (x) = 0.89153 0.35986
# Poissons Ratio (y) = 0.89153 0.35986
# Poissons Ratio (z) = 0.02555 0.02555
#
# Static dielectric constant tensor:
#      x y z
#    x 1.946420 0.000000 0.000000 
#    y 0.000000 1.946420 0.000000 
#    z 0.000000 0.000000 1.881870 
# 
# From -- ./inp_files/4249.got.cif
#   From: 2010.05.17/outbox.cif.g08.bks.cpg/sg153_3_cif.got.tgz:4249.got - 2010.05.20 10:38:56.
