data_PCOD9576515
_publ_section_title
;
Structure prediction by ZEFSAII (Michael W. Deem and Ramdas Pophale) SiO2 
 PCOD9576515
Probable space group: P 32 2 1
;
_chemical_formula_sum "Si O2"
_cell_formula_units_Z 42
_cell_length_a 9.204530
_cell_length_b 9.204530
_cell_length_c 27.005267
_cell_angle_alpha 90.000000
_cell_angle_beta 90.000000
_cell_angle_gamma 120.000000
_cell_volume 1981.446462
_symmetry_space_group_name_H-M "P 32 2 1"
_symmetry_group_IT_number 154
_symmetry_cell_setting 'hexagonal'
loop_
_space_group_symop_operation_xyz
x,y,z
-y,x-y,2/3+z
-x+y,-x,1/3+z
x-y,-y,1/3-z
-x,-x+y,2/3-z
y,x,-z
loop_
_atom_site_type_symbol
_atom_site_label
_atom_site_fract_x
_atom_site_fract_y
_atom_site_fract_z
Si Si1 0.942504 0.474749 0.646041
Si Si2 0.408670 0.602619 0.395493
Si Si3 0.281972 0.181332 0.954175
Si Si4 0.812738 0.375656 0.827097
Si Si5 0.560922 0.588497 0.056133
Si Si6 0.052976 0.818131 0.188339
Si Si7 0.697587 0.173087 0.444599
O O1 0.018206 0.521455 0.701073
O O2 0.065101 0.601783 0.604064
O O3 0.756640 0.449096 0.641246
O O4 0.917296 0.294467 0.632843
O O5 0.469504 0.685613 0.449047
O O6 0.211764 0.480774 0.404419
O O7 0.420658 0.378871 0.947138
O O8 0.193258 0.137443 0.902179
O O9 0.167086 0.167086 0.000000
O O10 0.660071 0.390743 0.803935
O O11 0.000000 0.536432 0.833334
O O12 0.818426 0.225307 0.797996
O O13 0.683578 0.563235 0.091915
O O14 0.627589 0.627589 0.000000
O O15 0.942915 0.663022 0.151736
O O16 0.117959 0.000000 0.166667
#
# Coordination Sequence:
#
# PCOD9576515 Si02
#       7
#     6   6   6   6   6   6   6
#     4  11  25  41  72  99 138 175 232 279 343 408
#     4  11  24  43  65 104 133 179 228 282 344 416
#     4  10  23  41  68  96 133 181 223 274 337 412
#     4  11  26  41  72  99 137 179 235 287 343 423
#     4  10  20  39  67  96 132 178 223 271 343 410
#     4  11  25  45  69 101 136 182 231 279 350 418
#     4  12  23  45  69 102 140 182 225 293 351 403
#
# _framework density 21.196636000000002
#
# number of rings (size 3 to 8) (size 9 to 14) (size 15 to 20)
#    0.000    1.143    4.286    1.714    6.000    0.000 
#    2.571    2.143    0.000    0.000    0.000    0.000 
#    0.000    0.000    0.000    0.000    0.000    0.000 
#
# Total GULP energy -234513.740848 kJ/mol
# GULP energy per Si atom -5583.660496 kJ/mol
# Density = 2.114839 g / cm^3
# Si number density = 21.196636 Si / 1000 Ang^3
#
#
#
# Elastic Constant Matrix: (Units=GPa)
#
#
# Indices 1 2 3 4 5 6 
#
# 1 86.5719 14.0352 5.9624 39.5767 0.0022 0.0000
# 2 14.0352 86.5719 5.9624 -39.5767 -0.0022 0.0000
# 3 5.9624 5.9624 52.2391 0.0000 0.0000 0.0000
# 4 39.5767 -39.5767 0.0000 103.7675 0.0000 -0.0022
# 5 0.0022 -0.0022 0.0000 0.0000 103.7675 39.5767
# 6 0.0000 0.0000 0.0000 -0.0022 39.5767 36.2683
#
#
#
# Elastic Compliance Matrix: (Units=1/GPa)
#
#
# Indices 1 2 3 4 5 6 
#
# 1 0.016845 -0.006769 -0.001150 -0.009006 0.000000 0.000000
# 2 -0.006769 0.016845 -0.001150 0.009006 0.000000 0.000000
# 3 -0.001150 -0.001150 0.019405 0.000000 0.000000 0.000000
# 4 -0.009006 0.009006 0.000000 0.016507 0.000000 0.000001
# 5 0.000000 0.000000 0.000000 0.000000 0.016507 -0.018013
# 6 0.000000 0.000000 0.000000 0.000001 -0.018013 0.047228
#
#
# Mechanical properties :
#
#
# Convention : Reuss Voigt Hill
#
# Bulk Modulus (GPa) = 28.60652 30.81142 29.70897
# Shear Modulus (GPa) = 30.65087 62.05554 46.35321
#
# Velocity S-wave (km/s) = 3.80679 5.41661 4.68142
# Velocity P-wave (km/s) = 5.73125 7.32715 6.57778
#
# Compressibility (1/GPa) = 0.03495706
#
# Stress axis : x y z
#
# Youngs Moduli (GPa) = 59.36488 59.36488 51.53241
#
# Poissons Ratio (x) = 0.40184 0.05926
# Poissons Ratio (y) = 0.40184 0.05926
# Poissons Ratio (z) = 0.06827 0.06827
#
# Static dielectric constant tensor:
#      x y z
#    x 1.761170 0.000000 0.000000 
#    y 0.000000 1.761170 0.000000 
#    z 0.000000 0.000000 1.915050 
# 
# From -- ./inp_files/3777.got.cif
#   From: 2010.05.17/outbox.cif.g08.bks.cpg/sg154_2_cif.got.tgz:3777.got - 2010.05.20 10:41:43.
