data_PCOD9576036
_publ_section_title
;
Structure prediction by ZEFSAII (Michael W. Deem and Ramdas Pophale) SiO2 
 PCOD9576036
Probable space group: P 31 2 1
;
_chemical_formula_sum "Si O2"
_cell_formula_units_Z 21
_cell_length_a 7.769108
_cell_length_b 7.769108
_cell_length_c 17.158999
_cell_angle_alpha 90.000000
_cell_angle_beta 90.000000
_cell_angle_gamma 120.000000
_cell_volume 896.943110
_symmetry_space_group_name_H-M "P 31 2 1"
_symmetry_group_IT_number 152
_symmetry_cell_setting 'hexagonal'
loop_
_space_group_symop_operation_xyz
x,y,z
-y,x-y,1/3+z
-x+y,-x,2/3+z
x-y,-y,2/3-z
-x,-x+y,1/3-z
y,x,-z
loop_
_atom_site_type_symbol
_atom_site_label
_atom_site_fract_x
_atom_site_fract_y
_atom_site_fract_z
Si Si1 0.192532 0.192532 0.500000
Si Si2 0.988495 0.548946 0.299123
Si Si3 0.877905 0.260437 0.571584
Si Si4 0.678932 0.277604 0.413574
O O1 0.361505 0.263973 0.567949
O O2 0.999829 0.155412 0.544863
O O3 0.118351 0.713498 0.365870
O O4 0.169308 0.550712 0.253484
O O5 0.830140 0.347315 0.340556
O O6 0.776789 0.283820 0.494969
O O7 0.060725 0.482181 0.591901
#
# Coordination Sequence:
#
# PCOD9576036 Si02
#       4
#     3   6   6   6
#     4  10  22  42  68 100 140 174 236 292 356 434
#     4  11  24  43  71 103 136 192 235 295 369 438
#     4  11  23  45  69 100 141 184 236 303 359 441
#     4  11  22  42  70  97 138 179 236 288 364 430
#
# _framework density 23.412853999999999
#
# number of rings (size 3 to 8) (size 9 to 14) (size 15 to 20)
#    0.000    1.143    2.857    5.143    4.000    0.000 
#    0.000   17.143    0.000    0.000    0.000    0.000 
#    0.000    0.000    0.000    0.000    0.000    0.000 
#
# Total GULP energy -117212.209080 kJ/mol
# GULP energy per Si atom -5581.533766 kJ/mol
# Density = 2.335957 g / cm^3
# Si number density = 23.412854 Si / 1000 Ang^3
#
#
#
# Elastic Constant Matrix: (Units=GPa)
#
#
# Indices 1 2 3 4 5 6 
#
# 1 73.2975 20.5136 26.2550 -5.4171 0.0000 0.0000
# 2 20.5136 73.2975 26.2550 5.4171 0.0000 0.0000
# 3 26.2550 26.2550 93.7895 0.0000 0.0000 0.0000
# 4 -5.4171 5.4171 0.0000 51.6481 0.0000 0.0000
# 5 0.0000 0.0000 0.0000 0.0000 51.6481 -5.4171
# 6 0.0000 0.0000 0.0000 0.0000 -5.4171 26.3919
#
#
#
# Elastic Compliance Matrix: (Units=1/GPa)
#
#
# Indices 1 2 3 4 5 6 
#
# 1 0.016001 -0.003361 -0.003538 0.002031 0.000000 0.000000
# 2 -0.003361 0.016001 -0.003538 -0.002031 0.000000 0.000000
# 3 -0.003538 -0.003538 0.012643 0.000000 0.000000 0.000000
# 4 0.002031 -0.002031 0.000000 0.019788 0.000000 0.000000
# 5 0.000000 0.000000 0.000000 0.000000 0.019788 0.004062
# 6 0.000000 0.000000 0.000000 0.000000 0.004062 0.038724
#
#
# Mechanical properties :
#
#
# Convention : Reuss Voigt Hill
#
# Bulk Modulus (GPa) = 42.06974 42.93685 42.50330
# Shear Modulus (GPa) = 32.95020 37.09503 35.02261
#
# Velocity S-wave (km/s) = 3.75554 3.98475 3.87185
# Velocity P-wave (km/s) = 6.06738 6.28887 6.17912
#
# Compressibility (1/GPa) = 0.02377006
#
# Stress axis : x y z
#
# Youngs Moduli (GPa) = 62.49536 62.49536 79.09347
#
# Poissons Ratio (x) = 0.21004 0.27987
# Poissons Ratio (y) = 0.21004 0.27987
# Poissons Ratio (z) = 0.22114 0.22114
#
# Static dielectric constant tensor:
#      x y z
#    x 1.937800 0.000000 0.000000 
#    y 0.000000 1.937800 0.000000 
#    z 0.000000 0.000000 1.959220 
# 
# From -- ./inp_files/2244.got.cif
#   From: 2010.05.17/outbox.cif.g08.bks.cpg/sg152_2_cif.got.tgz:2244.got - 2010.05.20 10:36:06.
