data_PCOD9576099
_publ_section_title
;
Structure prediction by ZEFSAII (Michael W. Deem and Ramdas Pophale) SiO2 
 PCOD9576099
Probable space group: P 31 2 1
;
_chemical_formula_sum "Si O2"
_cell_formula_units_Z 18
_cell_length_a 10.732814
_cell_length_b 10.732814
_cell_length_c 7.977143
_cell_angle_alpha 90.000000
_cell_angle_beta 90.000000
_cell_angle_gamma 120.000000
_cell_volume 795.802346
_symmetry_space_group_name_H-M "P 31 2 1"
_symmetry_group_IT_number 152
_symmetry_cell_setting 'hexagonal'
loop_
_space_group_symop_operation_xyz
x,y,z
-y,x-y,1/3+z
-x+y,-x,2/3+z
x-y,-y,2/3-z
-x,-x+y,1/3-z
y,x,-z
loop_
_atom_site_type_symbol
_atom_site_label
_atom_site_fract_x
_atom_site_fract_y
_atom_site_fract_z
Si Si1 0.563431 0.262952 0.995007
Si Si2 0.246761 0.152997 0.347014
Si Si3 0.000000 0.556169 0.166667
Si Si4 0.269346 0.269346 0.000000
O O1 0.659419 0.356172 0.838565
O O2 0.523242 0.099494 0.951470
O O3 0.422828 0.278160 0.997111
O O4 0.145636 0.145636 0.500000
O O5 0.395366 0.295411 0.397780
O O6 0.238267 0.000000 0.333334
O O7 0.198993 0.188988 0.172509
#
# Coordination Sequence:
#
# PCOD9576099 Si02
#       4
#     6   6   3   3
#     4  12  26  48  80 108 155 197 260 313 386 462
#     4  10  24  45  73 111 154 190 258 304 388 451
#     4  10  24  50  68 118 150 194 250 326 376 452
#     4  12  26  48  76 114 144 210 244 312 392 442
#
# _framework density 22.618683000000001
#
# number of rings (size 3 to 8) (size 9 to 14) (size 15 to 20)
#    1.000    0.000    3.333    2.000    2.333    5.333 
#    6.000    0.000    0.000    0.000    0.000    0.000 
#    0.000    0.000    0.000    0.000    0.000    0.000 
#
# Total GULP energy -100506.187806 kJ/mol
# GULP energy per Si atom -5583.677100 kJ/mol
# Density = 2.256720 g / cm^3
# Si number density = 22.618683 Si / 1000 Ang^3
#
#
#
# Elastic Constant Matrix: (Units=GPa)
#
#
# Indices 1 2 3 4 5 6 
#
# 1 111.5370 75.7291 40.8197 -5.2090 0.0002 0.0000
# 2 75.7291 111.5370 40.8197 5.2090 -0.0002 0.0000
# 3 40.8197 40.8197 200.0292 0.0000 0.0000 0.0000
# 4 -5.2090 5.2090 0.0000 -1.1836 0.0000 -0.0002
# 5 0.0002 -0.0002 0.0000 0.0000 -1.1836 -5.2090
# 6 0.0000 0.0000 0.0000 -0.0002 -5.2090 17.9039
#
#
#
# Elastic Compliance Matrix: (Units=1/GPa)
#
#
# Indices 1 2 3 4 5 6 
#
# 1 0.009054 -0.003192 -0.001196 -0.053896 0.000002 0.000000
# 2 -0.003192 0.009054 -0.001196 0.053896 -0.000002 0.000000
# 3 -0.001196 -0.001196 0.005487 0.000000 0.000000 0.000000
# 4 -0.053896 0.053896 0.000000 -0.370498 0.000000 -0.000003
# 5 0.000002 -0.000002 0.000000 0.000000 -0.370498 -0.107793
# 6 0.000000 0.000000 0.000000 -0.000003 -0.107793 0.024492
#
#
# Mechanical properties :
#
#
# Convention : Reuss Voigt Hill
#
# Bulk Modulus (GPa) = 80.47763 81.98224 81.22994
# Shear Modulus (GPa) = -7.37901 20.82300 6.72199
#
# Velocity S-wave (km/s) = -1.80816 3.03745 1.72578
# Velocity P-wave (km/s) = 5.59448 6.97320 6.32154
#
# Compressibility (1/GPa) = 0.01242581
#
# Stress axis : x y z
#
# Youngs Moduli (GPa) = 110.45033 110.45033 182.23370
#
# Poissons Ratio (x) = 0.35260 0.21798
# Poissons Ratio (y) = 0.35260 0.21798
# Poissons Ratio (z) = 0.13211 0.13211
#
# Static dielectric constant tensor:
#      x y z
#    x 1.857300 0.000000 0.000000 
#    y 0.000000 1.857300 0.000000 
#    z 0.000000 0.000000 1.845150 
# 
# From -- ./inp_files/797.got.cif
#   From: 2010.05.17/outbox.cif.g08.bks.cpg/sg152_1_cif.got.tgz:797.got - 2010.05.20 10:36:06.
