data_PCOD9576169
_publ_section_title
;
Structure prediction by ZEFSAII (Michael W. Deem and Ramdas Pophale) SiO2 
 PCOD9576169
Probable space group: P 31 2 1
;
_chemical_formula_sum "Si O2"
_cell_formula_units_Z 30
_cell_length_a 9.430309
_cell_length_b 9.430309
_cell_length_c 14.686609
_cell_angle_alpha 90.000000
_cell_angle_beta 90.000000
_cell_angle_gamma 120.000000
_cell_volume 1131.107837
_symmetry_space_group_name_H-M "P 31 2 1"
_symmetry_group_IT_number 152
_symmetry_cell_setting 'hexagonal'
loop_
_space_group_symop_operation_xyz
x,y,z
-y,x-y,1/3+z
-x+y,-x,2/3+z
x-y,-y,2/3-z
-x,-x+y,1/3-z
y,x,-z
loop_
_atom_site_type_symbol
_atom_site_label
_atom_site_fract_x
_atom_site_fract_y
_atom_site_fract_z
Si Si1 0.160564 0.806459 0.337032
Si Si2 0.989757 0.796990 0.522451
Si Si3 0.131629 0.656972 0.080209
Si Si4 0.340810 0.969258 0.600569
Si Si5 0.803478 0.431723 0.557973
O O1 0.047559 0.754938 0.427130
O O2 0.316933 0.784956 0.356191
O O3 0.044978 0.695034 0.254938
O O4 0.228857 0.000000 0.333334
O O5 0.889803 0.623972 0.571539
O O6 0.150234 0.906021 0.582263
O O7 0.885760 0.885760 0.500000
O O8 0.246496 0.622513 0.149325
O O9 0.257508 0.839529 0.049701
O O10 0.097156 0.511004 0.010077
O O11 0.396318 0.918069 0.508233
#
# Coordination Sequence:
#
# PCOD9576169 Si02
#       5
#     6   6   6   6   6
#     4  11  25  48  74 110 147 205 268 326 393 477
#     4  11  25  46  70 109 155 199 254 330 408 468
#     4  12  24  48  77 109 157 204 273 324 405 482
#     4  11  25  48  74 113 154 206 265 329 400 487
#     4  11  25  47  73 108 160 196 261 332 408 480
#
# _framework density 26.522667999999999
#
# number of rings (size 3 to 8) (size 9 to 14) (size 15 to 20)
#    0.000    0.800    4.000    2.400    5.600    0.000 
#    0.000    5.000    0.000    0.000    0.000    0.000 
#    0.000    0.000    0.000    0.000    0.000    0.000 
#
# Total GULP energy -167786.936047 kJ/mol
# GULP energy per Si atom -5592.897868 kJ/mol
# Density = 2.646230 g / cm^3
# Si number density = 26.522668 Si / 1000 Ang^3
#
#
#
# Elastic Constant Matrix: (Units=GPa)
#
#
# Indices 1 2 3 4 5 6 
#
# 1 212.1201 117.0086 29.3019 -10.0049 0.0000 0.0000
# 2 117.0086 212.1201 29.3019 10.0049 0.0000 0.0000
# 3 29.3019 29.3019 34.6032 0.0000 0.0000 0.0000
# 4 -10.0049 10.0049 0.0000 13.5022 0.0000 0.0000
# 5 0.0000 0.0000 0.0000 0.0000 13.5022 -10.0049
# 6 0.0000 0.0000 0.0000 0.0000 -10.0049 47.5557
#
#
#
# Elastic Compliance Matrix: (Units=1/GPa)
#
#
# Indices 1 2 3 4 5 6 
#
# 1 0.008017 -0.004439 -0.003030 0.009229 0.000000 0.000000
# 2 -0.004439 0.008017 -0.003030 -0.009229 0.000000 0.000000
# 3 -0.003030 -0.003030 0.034030 0.000000 0.000000 0.000000
# 4 0.009229 -0.009229 0.000000 0.087740 0.000000 0.000000
# 5 0.000000 0.000000 0.000000 0.000000 0.087740 0.018459
# 6 0.000000 0.000000 0.000000 0.000000 0.018459 0.024911
#
#
# Mechanical properties :
#
#
# Convention : Reuss Voigt Hill
#
# Bulk Modulus (GPa) = 34.40326 90.00759 62.20543
# Shear Modulus (GPa) = 17.78476 33.79409 25.78942
#
# Velocity S-wave (km/s) = 2.59231 3.57341 3.12164
# Velocity P-wave (km/s) = 4.68610 7.14391 6.04131
#
# Compressibility (1/GPa) = 0.02906701
#
# Stress axis : x y z
#
# Youngs Moduli (GPa) = 124.73907 124.73907 29.38577
#
# Poissons Ratio (x) = 0.55371 0.08903
# Poissons Ratio (y) = 0.55371 0.08903
# Poissons Ratio (z) = 0.37792 0.37792
#
# Static dielectric constant tensor:
#      x y z
#    x 2.092340 0.000000 0.000000 
#    y 0.000000 2.092340 0.000000 
#    z 0.000000 0.000000 2.424880 
# 
# From -- ./inp_files/2975.got.cif
#   From: 2010.05.17/outbox.cif.g08.bks.cpg/sg152_2_cif.got.tgz:2975.got - 2010.05.20 10:36:06.
