data_PCOD9576807
_publ_section_title
;
Structure prediction by ZEFSAII (Michael W. Deem and Ramdas Pophale) SiO2 
 PCOD9576807
Probable space group: R 3 2
;
_chemical_formula_sum "Si O2"
_cell_formula_units_Z 81
_cell_length_a 25.849658
_cell_length_b 25.849658
_cell_length_c 8.242815
_cell_angle_alpha 90.000000
_cell_angle_beta 90.000000
_cell_angle_gamma 120.000000
_cell_volume 4769.971538
_symmetry_space_group_name_H-M "R 3 2"
_symmetry_group_IT_number 155
_symmetry_cell_setting 'hexagonal'
loop_
_space_group_symop_operation_xyz
x,y,z
-y,x-y,z
-x+y,-x,z
x-y,-y,-z
-x,-x+y,-z
y,x,-z
2/3+x,1/3+y,1/3+z
2/3-y,1/3+x-y,1/3+z
2/3-x+y,1/3-x,1/3+z
2/3+x-y,1/3-y,1/3-z
2/3-x,1/3-x+y,1/3-z
2/3+y,1/3+x,1/3-z
1/3+x,2/3+y,2/3+z
1/3-y,2/3+x-y,2/3+z
1/3-x+y,2/3-x,2/3+z
1/3+x-y,2/3-y,2/3-z
1/3-x,2/3-x+y,2/3-z
1/3+y,2/3+x,2/3-z
loop_
_atom_site_type_symbol
_atom_site_label
_atom_site_fract_x
_atom_site_fract_y
_atom_site_fract_z
Si Si1 0.666667 0.034552 0.333334
Si Si2 0.400570 0.179442 0.007646
Si Si3 0.933765 0.335348 0.148347
Si Si4 0.215907 0.815743 0.350857
Si Si5 0.227106 0.397296 0.670060
O O1 0.723205 0.101190 0.330465
O O2 0.664114 0.000000 0.500000
O O3 0.427451 0.201618 0.828934
O O4 0.331081 0.161388 0.998470
O O5 0.399378 0.118558 0.050790
O O6 0.426755 0.224571 0.159870
O O7 0.989101 0.322434 0.166667
O O8 0.913092 0.333334 0.333334
O O9 0.941672 0.394994 0.067672
O O10 0.159113 0.825780 0.333334
O O11 0.202231 0.772113 0.503447
#
# Coordination Sequence:
#
# PCOD9576807 Si02
#       5
#     9  18  18  18  18
#     4  12  26  36  60  80  92 124 188 230 278 334
#     4  10  18  35  46  64 100 131 165 212 259 291
#     4  12  19  29  45  72 103 140 185 210 234 301
#     4  10  20  30  49  65  97 139 167 207 256 292
#     4  10  20  38  48  69  99 126 164 227 266 298
#
# _framework density 16.981234000000001
#
# number of rings (size 3 to 8) (size 9 to 14) (size 15 to 20)
#    0.000    1.333    6.667    2.667    4.667    0.000 
#    0.000    0.000    0.000    0.000    0.000    0.000 
#    0.000    0.000    0.000    5.333    0.000   11.556 
#
# Total GULP energy -150345.049324 kJ/mol
# GULP energy per Si atom -5568.335160 kJ/mol
# Density = 1.694258 g / cm^3
# Si number density = 16.981234 Si / 1000 Ang^3
#
#
#
# Elastic Constant Matrix: (Units=GPa)
#
#
# Indices 1 2 3 4 5 6 
#
# 1 31.5010 16.0828 24.5770 -2.1515 -0.0041 0.0008
# 2 16.0828 31.5067 24.5819 2.1530 0.0022 0.0024
# 3 24.5770 24.5819 208.2471 0.0036 -0.0249 0.0002
# 4 -2.1515 2.1530 0.0036 14.2542 0.0024 0.0026
# 5 -0.0041 0.0022 -0.0249 0.0024 14.2217 -2.1506
# 6 0.0008 0.0024 0.0002 0.0026 -2.1506 7.7158
#
#
#
# Elastic Compliance Matrix: (Units=1/GPa)
#
#
# Indices 1 2 3 4 5 6 
#
# 1 0.045820 -0.021884 -0.002825 0.010222 0.000010 0.000001
# 2 -0.021884 0.045813 -0.002825 -0.010222 -0.000019 -0.000014
# 3 -0.002825 -0.002825 0.005469 -0.000001 0.000010 0.000004
# 4 0.010222 -0.010222 -0.000001 0.073242 -0.000012 -0.000026
# 5 0.000010 -0.000019 0.000010 -0.000012 0.073409 0.020461
# 6 0.000001 -0.000014 0.000004 -0.000026 0.020461 0.135307
#
#
# Mechanical properties :
#
#
# Convention : Reuss Voigt Hill
#
# Bulk Modulus (GPa) = 23.78992 44.63755 34.21373
# Shear Modulus (GPa) = 11.15731 20.97255 16.06493
#
# Velocity S-wave (km/s) = 2.56606 3.51813 3.07911
# Velocity P-wave (km/s) = 4.77697 6.54572 5.73001
#
# Compressibility (1/GPa) = 0.04203462
#
# Stress axis : x y z
#
# Youngs Moduli (GPa) = 21.82471 21.82804 182.85556
#
# Poissons Ratio (x) = 0.47768 0.51648
# Poissons Ratio (y) = 0.47761 0.51656
# Poissons Ratio (z) = 0.06164 0.06166
#
# Static dielectric constant tensor:
#      x y z
#    x 1.566650 0.000000 -0.000020 
#    y 0.000000 1.566640 -0.000020 
#    z -0.000020 -0.000020 1.765330 
# 
# From -- ./inp_files/2677.got.cif
#   From: 2010.05.17/outbox.cif.g08.bks.cpg/sg155_2_cif.got.tgz:2677.got - 2010.05.20 10:44:35.
