data_PCOD9576483
_publ_section_title
;
Structure prediction by ZEFSAII (Michael W. Deem and Ramdas Pophale) SiO2 
 PCOD9576483
Probable space group: P 32 2 1
;
_chemical_formula_sum "Si O2"
_cell_formula_units_Z 42
_cell_length_a 8.595358
_cell_length_b 8.595358
_cell_length_c 23.806725
_cell_angle_alpha 90.000000
_cell_angle_beta 90.000000
_cell_angle_gamma 120.000000
_cell_volume 1523.204545
_symmetry_space_group_name_H-M "P 32 2 1"
_symmetry_group_IT_number 154
_symmetry_cell_setting 'hexagonal'
loop_
_space_group_symop_operation_xyz
x,y,z
-y,x-y,2/3+z
-x+y,-x,1/3+z
x-y,-y,1/3-z
-x,-x+y,2/3-z
y,x,-z
loop_
_atom_site_type_symbol
_atom_site_label
_atom_site_fract_x
_atom_site_fract_y
_atom_site_fract_z
Si Si1 0.332845 0.845552 0.897082
Si Si2 0.000000 0.142100 0.833334
Si Si3 0.369023 0.047623 0.309143
Si Si4 0.307802 0.491763 0.793585
Si Si5 0.000000 0.893082 0.333334
Si Si6 0.480261 0.775519 0.612128
Si Si7 0.160330 0.535770 0.402719
Si Si8 0.855389 0.020705 0.242962
O O1 0.498323 0.011957 0.867250
O O2 0.365376 0.679915 0.898231
O O3 0.139429 0.820692 0.878885
O O4 0.355770 0.914209 0.962187
O O5 0.167941 0.342348 0.836686
O O6 0.970897 0.003658 0.883045
O O7 0.156129 0.868222 0.304659
O O8 0.421322 0.911917 0.279925
O O9 0.398405 0.202109 0.266469
O O10 0.337430 0.687743 0.781594
O O11 0.862084 0.937570 0.303309
O O12 0.383495 0.767546 0.673538
O O13 0.555870 0.986723 0.594191
O O14 0.125086 0.335697 0.411543
#
# Coordination Sequence:
#
# PCOD9576483 Si02
#       8
#     6   3   6   6   3   6   6   6
#     4  11  23  41  70 108 142 184 241 308 371 442
#     4  12  28  52  70 100 150 214 250 306 378 470
#     4  11  20  37  68 107 147 175 238 299 368 437
#     4  12  25  44  70 103 147 196 242 296 375 453
#     4  10  20  36  72 104 134 178 232 302 360 414
#     4  11  22  37  68 112 152 179 234 313 384 432
#     4  11  23  39  66 106 145 189 237 303 374 449
#     4  11  25  45  73 101 146 189 251 303 376 441
#
# _framework density 27.573446000000001
#
# number of rings (size 3 to 8) (size 9 to 14) (size 15 to 20)
#    0.000    0.857    4.286    3.429    6.000    0.571 
#    0.000    5.714    0.000    0.000    0.000    0.000 
#    0.000    0.000    0.000    0.000    0.000    0.000 
#
# Total GULP energy -234406.325162 kJ/mol
# GULP energy per Si atom -5581.102980 kJ/mol
# Density = 2.751069 g / cm^3
# Si number density = 27.573446 Si / 1000 Ang^3
#
#
#
# Elastic Constant Matrix: (Units=GPa)
#
#
# Indices 1 2 3 4 5 6 
#
# 1 185.3956 73.0799 22.0137 9.7685 0.0004 0.0000
# 2 73.0799 185.3956 22.0137 -9.7685 -0.0004 0.0000
# 3 22.0137 22.0137 90.0255 0.0000 0.0000 0.0000
# 4 9.7685 -9.7685 0.0000 25.5109 0.0000 -0.0004
# 5 0.0004 -0.0004 0.0000 0.0000 25.5109 9.7685
# 6 0.0000 0.0000 0.0000 -0.0004 9.7685 56.1578
#
#
#
# Elastic Compliance Matrix: (Units=1/GPa)
#
#
# Indices 1 2 3 4 5 6 
#
# 1 0.006788 -0.002751 -0.000987 -0.003653 0.000000 0.000000
# 2 -0.002751 0.006788 -0.000987 0.003653 0.000000 0.000000
# 3 -0.000987 -0.000987 0.011591 0.000000 0.000000 0.000000
# 4 -0.003653 0.003653 0.000000 0.041996 0.000000 0.000000
# 5 0.000000 0.000000 0.000000 0.000000 0.041996 -0.007305
# 6 0.000000 0.000000 0.000000 0.000000 -0.007305 0.019078
#
#
# Mechanical properties :
#
#
# Convention : Reuss Voigt Hill
#
# Bulk Modulus (GPa) = 63.62904 77.22571 70.42738
# Shear Modulus (GPa) = 34.98319 44.34988 39.66654
#
# Velocity S-wave (km/s) = 3.56578 4.01487 3.79697
# Velocity P-wave (km/s) = 6.33083 7.03991 6.69476
#
# Compressibility (1/GPa) = 0.01571609
#
# Stress axis : x y z
#
# Youngs Moduli (GPa) = 147.32074 147.32074 86.27574
#
# Poissons Ratio (x) = 0.40527 0.08517
# Poissons Ratio (y) = 0.40527 0.08517
# Poissons Ratio (z) = 0.14543 0.14543
#
# Static dielectric constant tensor:
#      x y z
#    x 2.436130 0.000000 0.000000 
#    y 0.000000 2.436130 0.000000 
#    z 0.000000 0.000000 3.006110 
# 
# From -- ./inp_files/3829.got.cif
#   From: 2010.05.17/outbox.cif.g08.bks.cpg/sg154_2_cif.got.tgz:3829.got - 2010.05.20 10:41:43.
