data_PCOD9576485
_publ_section_title
;
Structure prediction by ZEFSAII (Michael W. Deem and Ramdas Pophale) SiO2 
 PCOD9576485
Probable space group: P 32 2 1
;
_chemical_formula_sum "Si O2"
_cell_formula_units_Z 45
_cell_length_a 17.394494
_cell_length_b 17.394494
_cell_length_c 8.452626
_cell_angle_alpha 90.000000
_cell_angle_beta 90.000000
_cell_angle_gamma 120.000000
_cell_volume 2214.857984
_symmetry_space_group_name_H-M "P 32 2 1"
_symmetry_group_IT_number 154
_symmetry_cell_setting 'hexagonal'
loop_
_space_group_symop_operation_xyz
x,y,z
-y,x-y,2/3+z
-x+y,-x,1/3+z
x-y,-y,1/3-z
-x,-x+y,2/3-z
y,x,-z
loop_
_atom_site_type_symbol
_atom_site_label
_atom_site_fract_x
_atom_site_fract_y
_atom_site_fract_z
Si Si1 0.000963 0.183002 0.522592
Si Si2 0.207311 0.532611 0.117995
Si Si3 0.837467 0.174451 0.040177
Si Si4 0.083302 0.355219 0.935767
Si Si5 0.946517 0.000000 0.666667
Si Si6 0.517394 0.319042 0.398918
Si Si7 0.195758 0.606046 0.591652
Si Si8 0.907094 0.352885 0.245717
O O1 0.955036 0.237540 0.591610
O O2 0.949629 0.090449 0.616070
O O3 0.000000 0.177334 0.333334
O O4 0.106363 0.236082 0.566793
O O5 0.312107 0.566222 0.138065
O O6 0.167176 0.494298 0.288163
O O7 0.152824 0.451435 0.998883
O O8 0.184915 0.607528 0.062915
O O9 0.734091 0.144918 0.049040
O O10 0.881446 0.265296 0.145177
O O11 0.865406 0.195713 0.858894
O O12 0.000000 0.346501 0.833334
O O13 0.980689 0.980689 0.500000
O O14 0.542708 0.358639 0.574663
O O15 0.555471 0.251273 0.381670
O O16 0.102758 0.527778 0.525047
O O17 0.000000 0.392237 0.333334
#
# Coordination Sequence:
#
# PCOD9576485 Si02
#       8
#     6   6   6   6   3   6   6   6
#     4  11  23  43  71 105 134 167 221 276 343 408
#     4  12  20  34  60  86 124 166 219 261 326 385
#     4  10  20  37  60  91 130 166 214 273 324 388
#     4  10  22  37  61  92 125 166 213 270 324 394
#     4  12  24  46  76 114 136 172 216 286 342 412
#     4  11  21  34  55  90 123 168 216 268 318 378
#     4  11  21  34  53  87 121 159 213 271 314 385
#     4  11  22  36  58  87 123 162 217 268 322 386
#
# _framework density 20.317329000000001
#
# number of rings (size 3 to 8) (size 9 to 14) (size 15 to 20)
#    0.000    1.067    4.667    5.600    1.867    0.000 
#    0.000    0.000    1.467    2.400    0.000    0.000 
#    0.000    0.000    0.000    0.000    0.000    0.000 
#
# Total GULP energy -250849.577928 kJ/mol
# GULP energy per Si atom -5574.435065 kJ/mol
# Density = 2.027109 g / cm^3
# Si number density = 20.317329 Si / 1000 Ang^3
#
#
#
# Elastic Constant Matrix: (Units=GPa)
#
#
# Indices 1 2 3 4 5 6 
#
# 1 51.5920 15.5180 12.8831 5.8261 -0.0001 0.0000
# 2 15.5180 51.5920 12.8831 -5.8261 0.0001 0.0000
# 3 12.8831 12.8831 108.3500 0.0000 0.0000 0.0000
# 4 5.8261 -5.8261 0.0000 31.9846 0.0000 0.0001
# 5 -0.0001 0.0001 0.0000 0.0000 31.9846 5.8261
# 6 0.0000 0.0000 0.0000 0.0001 5.8261 18.0370
#
#
#
# Elastic Compliance Matrix: (Units=1/GPa)
#
#
# Indices 1 2 3 4 5 6 
#
# 1 0.022534 -0.006920 -0.001857 -0.005365 0.000000 0.000000
# 2 -0.006920 0.022534 -0.001857 0.005365 0.000000 0.000000
# 3 -0.001857 -0.001857 0.009671 0.000000 0.000000 0.000000
# 4 -0.005365 0.005365 0.000000 0.033220 0.000000 0.000000
# 5 0.000000 0.000000 0.000000 0.000000 0.033220 -0.010730
# 6 0.000000 0.000000 0.000000 0.000000 -0.010730 0.058908
#
#
# Mechanical properties :
#
#
# Convention : Reuss Voigt Hill
#
# Bulk Modulus (GPa) = 29.87555 32.67804 31.27679
# Shear Modulus (GPa) = 23.52846 27.75123 25.63985
#
# Velocity S-wave (km/s) = 3.40670 3.69980 3.55627
# Velocity P-wave (km/s) = 5.49641 5.86261 5.68246
#
# Compressibility (1/GPa) = 0.03347219
#
# Stress axis : x y z
#
# Youngs Moduli (GPa) = 44.37788 44.37788 103.40367
#
# Poissons Ratio (x) = 0.30710 0.19197
# Poissons Ratio (y) = 0.30710 0.19197
# Poissons Ratio (z) = 0.08239 0.08239
#
# Static dielectric constant tensor:
#      x y z
#    x 1.788360 0.000000 0.000000 
#    y 0.000000 1.788360 0.000000 
#    z 0.000000 0.000000 1.764340 
# 
# From -- ./inp_files/1295.got.cif
#   From: 2010.05.17/outbox.cif.g08.bks.cpg/sg154_1_cif.got.tgz:1295.got - 2010.05.20 10:41:43.
