data_PCOD9576671
_publ_section_title
;
Structure prediction by ZEFSAII (Michael W. Deem and Ramdas Pophale) SiO2 
 PCOD9576671
Probable space group: P 32 2 1
;
_chemical_formula_sum "Si O2"
_cell_formula_units_Z 33
_cell_length_a 11.356432
_cell_length_b 11.356432
_cell_length_c 11.571685
_cell_angle_alpha 90.000000
_cell_angle_beta 90.000000
_cell_angle_gamma 120.000000
_cell_volume 1292.441945
_symmetry_space_group_name_H-M "P 32 2 1"
_symmetry_group_IT_number 154
_symmetry_cell_setting 'hexagonal'
loop_
_space_group_symop_operation_xyz
x,y,z
-y,x-y,2/3+z
-x+y,-x,1/3+z
x-y,-y,1/3-z
-x,-x+y,2/3-z
y,x,-z
loop_
_atom_site_type_symbol
_atom_site_label
_atom_site_fract_x
_atom_site_fract_y
_atom_site_fract_z
Si Si1 0.671665 0.870768 0.232178
Si Si2 0.359876 0.492876 0.165435
Si Si3 0.752235 0.142611 0.834473
Si Si4 0.356422 0.593613 0.414804
Si Si5 0.885813 0.885813 0.500000
Si Si6 0.817044 0.754037 0.120871
O O1 0.650444 0.892916 0.363324
O O2 0.542697 0.836927 0.155318
O O3 0.722935 0.764558 0.218329
O O4 0.788597 0.000000 0.166667
O O5 0.422420 0.397716 0.130665
O O6 0.404319 0.570124 0.289974
O O7 0.373021 0.606639 0.075940
O O8 0.204479 0.378040 0.186881
O O9 0.767642 0.289315 0.845339
O O10 0.884675 0.144755 0.777592
O O11 0.920247 0.032139 0.447236
O O12 0.745134 0.745134 0.000000
#
# Coordination Sequence:
#
# PCOD9576671 Si02
#       6
#     6   6   6   6   3   6
#     4  12  22  42  75  97 131 188 229 281 347 418
#     4  11  26  46  67 104 137 184 234 285 355 414
#     4  11  26  45  69 100 140 177 236 287 348 412
#     4  12  25  44  71  99 138 183 235 284 344 421
#     4  10  24  42  64 104 132 170 226 288 336 408
#     4  11  22  42  72 100 139 175 230 285 345 417
#
# _framework density 25.533062000000001
#
# number of rings (size 3 to 8) (size 9 to 14) (size 15 to 20)
#    0.000    0.727    6.364    1.091    3.818    0.000 
#    3.273    0.000    0.000    0.000    0.000    0.000 
#    0.000    0.000    0.000    0.000    0.000    0.000 
#
# Total GULP energy -184509.108091 kJ/mol
# GULP energy per Si atom -5591.185094 kJ/mol
# Density = 2.547495 g / cm^3
# Si number density = 25.533062 Si / 1000 Ang^3
#
#
#
# Elastic Constant Matrix: (Units=GPa)
#
#
# Indices 1 2 3 4 5 6 
#
# 1 125.1894 44.7095 9.2308 -1.6490 0.0000 0.0000
# 2 44.7095 125.1894 9.2308 1.6490 0.0000 0.0000
# 3 9.2308 9.2308 98.9937 0.0000 0.0000 0.0000
# 4 -1.6490 1.6490 0.0000 20.6673 0.0000 0.0000
# 5 0.0000 0.0000 0.0000 0.0000 20.6673 -1.6490
# 6 0.0000 0.0000 0.0000 0.0000 -1.6490 40.2400
#
#
#
# Elastic Compliance Matrix: (Units=1/GPa)
#
#
# Indices 1 2 3 4 5 6 
#
# 1 0.009206 -0.003260 -0.000554 0.000995 0.000000 0.000000
# 2 -0.003260 0.009206 -0.000554 -0.000995 0.000000 0.000000
# 3 -0.000554 -0.000554 0.010205 0.000000 0.000000 0.000000
# 4 0.000995 -0.000995 0.000000 0.048544 0.000000 0.000000
# 5 0.000000 0.000000 0.000000 0.000000 0.048544 0.001989
# 6 0.000000 0.000000 0.000000 0.000000 0.001989 0.024932
#
#
# Mechanical properties :
#
#
# Convention : Reuss Voigt Hill
#
# Bulk Modulus (GPa) = 50.30320 52.85718 51.58019
# Shear Modulus (GPa) = 30.11994 35.39499 32.75747
#
# Velocity S-wave (km/s) = 3.43832 3.72727 3.58571
# Velocity P-wave (km/s) = 5.95875 6.26656 6.11459
#
# Compressibility (1/GPa) = 0.01987945
#
# Stress axis : x y z
#
# Youngs Moduli (GPa) = 108.62290 108.62290 97.99061
#
# Poissons Ratio (x) = 0.35412 0.05433
# Poissons Ratio (y) = 0.35412 0.05433
# Poissons Ratio (z) = 0.06023 0.06023
#
# Static dielectric constant tensor:
#      x y z
#    x 2.046350 0.000000 0.000000 
#    y 0.000000 2.046350 0.000000 
#    z 0.000000 0.000000 2.086400 
# 
# From -- ./inp_files/1953.got.cif
#   From: 2010.05.17/outbox.cif.g08.bks.cpg/sg154_1_cif.got.tgz:1953.got - 2010.05.20 10:41:43.
