data_PCOD9576161
_publ_section_title
;
Structure prediction by ZEFSAII (Michael W. Deem and Ramdas Pophale) SiO2 
 PCOD9576161
Probable space group: P 31 2 1
;
_chemical_formula_sum "Si O2"
_cell_formula_units_Z 18
_cell_length_a 10.204419
_cell_length_b 10.204419
_cell_length_c 9.650386
_cell_angle_alpha 90.000000
_cell_angle_beta 90.000000
_cell_angle_gamma 120.000000
_cell_volume 870.265730
_symmetry_space_group_name_H-M "P 31 2 1"
_symmetry_group_IT_number 152
_symmetry_cell_setting 'hexagonal'
loop_
_space_group_symop_operation_xyz
x,y,z
-y,x-y,1/3+z
-x+y,-x,2/3+z
x-y,-y,2/3-z
-x,-x+y,1/3-z
y,x,-z
loop_
_atom_site_type_symbol
_atom_site_label
_atom_site_fract_x
_atom_site_fract_y
_atom_site_fract_z
Si Si1 0.683930 0.091888 0.977989
Si Si2 0.916836 0.821841 0.868203
Si Si3 0.354051 0.002474 0.667813
O O1 0.821021 0.261665 0.957349
O O2 0.646036 0.000000 0.833334
O O3 0.528997 0.077302 0.031095
O O4 0.749094 0.015549 0.082459
O O5 0.806214 0.732483 0.742481
O O6 0.816741 0.816741 0.000000
O O7 0.017086 0.000000 0.833334
O O8 0.338211 0.000000 0.833334
#
# Coordination Sequence:
#
# PCOD9576161 Si02
#       3
#     6   6   6
#     4  11  24  44  67  98 140 175 227 285 342 411
#     4  12  22  43  73  95 131 181 235 278 334 409
#     4  11  25  43  65 101 137 177 222 289 344 407
#
# _framework density 20.683337999999999
#
# number of rings (size 3 to 8) (size 9 to 14) (size 15 to 20)
#    0.000    0.667    6.667    1.000    0.000    6.667 
#    6.000    0.000    0.000    0.000    0.000    0.000 
#    0.000    0.000    0.000    0.000    0.000    0.000 
#
# Total GULP energy -100700.479245 kJ/mol
# GULP energy per Si atom -5594.471069 kJ/mol
# Density = 2.063626 g / cm^3
# Si number density = 20.683338 Si / 1000 Ang^3
#
#
#
# Elastic Constant Matrix: (Units=GPa)
#
#
# Indices 1 2 3 4 5 6 
#
# 1 104.7882 32.2314 14.7637 -3.9577 0.0000 0.0000
# 2 32.2314 104.7882 14.7637 3.9577 0.0000 0.0000
# 3 14.7637 14.7637 77.1944 0.0000 0.0000 0.0000
# 4 -3.9577 3.9577 0.0000 27.4272 0.0000 0.0000
# 5 0.0000 0.0000 0.0000 0.0000 27.4272 -3.9577
# 6 0.0000 0.0000 0.0000 0.0000 -3.9577 36.2784
#
#
#
# Elastic Compliance Matrix: (Units=1/GPa)
#
#
# Indices 1 2 3 4 5 6 
#
# 1 0.010807 -0.003195 -0.001456 0.002021 0.000000 0.000000
# 2 -0.003195 0.010807 -0.001456 -0.002021 0.000000 0.000000
# 3 -0.001456 -0.001456 0.013511 0.000000 0.000000 0.000000
# 4 0.002021 -0.002021 0.000000 0.037043 0.000000 0.000000
# 5 0.000000 0.000000 0.000000 0.000000 0.037043 0.004041
# 6 0.000000 0.000000 0.000000 0.000000 0.004041 0.028005
#
#
# Mechanical properties :
#
#
# Convention : Reuss Voigt Hill
#
# Bulk Modulus (GPa) = 43.64561 45.58760 44.61661
# Shear Modulus (GPa) = 31.83312 33.22737 32.53024
#
# Velocity S-wave (km/s) = 3.92736 4.01244 3.97013
# Velocity P-wave (km/s) = 6.45857 6.59961 6.52947
#
# Compressibility (1/GPa) = 0.02291181
#
# Stress axis : x y z
#
# Youngs Moduli (GPa) = 92.52969 92.52969 74.01286
#
# Poissons Ratio (x) = 0.29567 0.10775
# Poissons Ratio (y) = 0.29567 0.10775
# Poissons Ratio (z) = 0.13471 0.13471
#
# Static dielectric constant tensor:
#      x y z
#    x 1.749510 0.000000 0.000000 
#    y 0.000000 1.749510 0.000000 
#    z 0.000000 0.000000 1.762730 
# 
# From -- ./inp_files/774.got.cif
#   From: 2010.05.17/outbox.cif.g08.bks.cpg/sg152_1_cif.got.tgz:774.got - 2010.05.20 10:36:06.
