data_PCOD9576913
_publ_section_title
;
Structure prediction by ZEFSAII (Michael W. Deem and Ramdas Pophale) SiO2 
 PCOD9576913
Probable space group: R 3 2
;
_chemical_formula_sum "Si O2"
_cell_formula_units_Z 126
_cell_length_a 29.306561
_cell_length_b 29.306561
_cell_length_c 9.744186
_cell_angle_alpha 90.000000
_cell_angle_beta 90.000000
_cell_angle_gamma 120.000000
_cell_volume 7247.795227
_symmetry_space_group_name_H-M "R 3 2"
_symmetry_group_IT_number 155
_symmetry_cell_setting 'hexagonal'
loop_
_space_group_symop_operation_xyz
x,y,z
-y,x-y,z
-x+y,-x,z
x-y,-y,-z
-x,-x+y,-z
y,x,-z
2/3+x,1/3+y,1/3+z
2/3-y,1/3+x-y,1/3+z
2/3-x+y,1/3-x,1/3+z
2/3+x-y,1/3-y,1/3-z
2/3-x,1/3-x+y,1/3-z
2/3+y,1/3+x,1/3-z
1/3+x,2/3+y,2/3+z
1/3-y,2/3+x-y,2/3+z
1/3-x+y,2/3-x,2/3+z
1/3+x-y,2/3-y,2/3-z
1/3-x,2/3-x+y,2/3-z
1/3+y,2/3+x,2/3-z
loop_
_atom_site_type_symbol
_atom_site_label
_atom_site_fract_x
_atom_site_fract_y
_atom_site_fract_z
Si Si1 0.141107 0.716578 0.568727
Si Si2 0.720817 0.829027 0.030833
Si Si3 0.353551 0.270905 0.820399
Si Si4 0.188298 0.918267 0.720651
Si Si5 0.276876 0.806895 0.186594
Si Si6 0.877286 0.494462 0.925144
Si Si7 0.630196 0.569874 0.048109
O O1 0.127912 0.666667 0.666667
O O2 0.190037 0.776074 0.594042
O O3 0.092316 0.727964 0.580160
O O4 0.147744 0.702530 0.411333
O O5 0.730570 0.794464 0.144166
O O6 0.740386 0.827996 0.878514
O O7 0.657292 0.796868 0.005522
O O8 0.333334 0.255821 0.666667
O O9 0.381308 0.333334 0.833334
O O10 0.400361 0.257481 0.825208
O O11 0.146761 0.924361 0.628540
O O12 0.244391 0.973076 0.716850
O O13 0.333334 0.812395 0.166667
O O14 0.233521 0.756469 0.264117
O O15 0.284644 0.857716 0.270791
O O16 0.839649 0.506316 0.833334
O O17 0.603575 0.603575 0.000000
#
# Coordination Sequence:
#
# PCOD9576913 Si02
#       7
#    18  18  18  18  18  18  18
#     4  11  23  37  56  82 115 162 205 249 301 359
#     4  11  22  38  53  79 121 157 200 255 302 355
#     4   9  18  32  49  74 106 146 193 240 282 332
#     4  10  23  35  52  85 111 158 200 248 300 347
#     4  10  20  37  57  82 109 146 196 235 299 356
#     4  10  21  37  61  82 108 149 195 245 300 360
#     4  11  21  36  60  81 118 163 207 249 295 363
#
# _framework density 17.384596999999999
#
# number of rings (size 3 to 8) (size 9 to 14) (size 15 to 20)
#    0.000    1.714    2.857    1.714    2.000    2.286 
#   10.286    0.000    0.000    0.286    0.000    0.000 
#    0.000    0.000    0.000    0.000    0.000    0.000 
#
# Total GULP energy -233986.228027 kJ/mol
# GULP energy per Si atom -5571.100667 kJ/mol
# Density = 1.734503 g / cm^3
# Si number density = 17.384597 Si / 1000 Ang^3
#
#
#
# Elastic Constant Matrix: (Units=GPa)
#
#
# Indices 1 2 3 4 5 6 
#
# 1 70.3899 29.7381 17.1980 -4.1840 -0.0433 -0.0076
# 2 29.7381 70.4254 17.2373 4.1778 -0.0034 -0.0016
# 3 17.1980 17.2373 67.6310 -0.0211 -0.0933 -0.0210
# 4 -4.1840 4.1778 -0.0211 23.0004 -0.0108 0.0058
# 5 -0.0433 -0.0034 -0.0933 -0.0108 22.9269 -4.1884
# 6 -0.0076 -0.0016 -0.0210 0.0058 -4.1884 20.3499
#
#
#
# Elastic Compliance Matrix: (Units=1/GPa)
#
#
# Indices 1 2 3 4 5 6 
#
# 1 0.018245 -0.007300 -0.002778 0.004642 0.000026 0.000007
# 2 -0.007300 0.018241 -0.002794 -0.004644 -0.000026 -0.000008
# 3 -0.002778 -0.002794 0.016205 0.000017 0.000066 0.000029
# 4 0.004642 -0.004644 0.000017 0.045166 0.000028 -0.000006
# 5 0.000026 -0.000026 0.000066 0.000028 0.045321 0.009328
# 6 0.000007 -0.000008 0.000029 -0.000006 0.009328 0.051060
#
#
# Mechanical properties :
#
#
# Convention : Reuss Voigt Hill
#
# Bulk Modulus (GPa) = 37.10906 37.42145 37.26525
# Shear Modulus (GPa) = 21.83743 22.87363 22.35553
#
# Velocity S-wave (km/s) = 3.54805 3.63125 3.58989
# Velocity P-wave (km/s) = 6.17876 6.25729 6.21815
#
# Compressibility (1/GPa) = 0.02694760
#
# Stress axis : x y z
#
# Youngs Moduli (GPa) = 54.80893 54.82052 61.71031
#
# Poissons Ratio (x) = 0.40018 0.17140
# Poissons Ratio (y) = 0.40010 0.17245
# Poissons Ratio (z) = 0.15224 0.15319
#
# Static dielectric constant tensor:
#      x y z
#    x 1.610560 0.000000 -0.000010 
#    y 0.000000 1.610570 0.000010 
#    z -0.000010 0.000010 1.612010 
# 
# From -- ./inp_files/2993.got.cif
#   From: 2010.05.17/outbox.cif.g08.bks.cpg/sg155_2_cif.got.tgz:2993.got - 2010.05.20 10:44:35.
