data_PCOD9576745
_publ_section_title
;
Structure prediction by ZEFSAII (Michael W. Deem and Ramdas Pophale) SiO2 
 PCOD9576745
Probable space group: P 32 2 1
;
_chemical_formula_sum "Si O2"
_cell_formula_units_Z 15
_cell_length_a 9.843661
_cell_length_b 9.843661
_cell_length_c 6.621572
_cell_angle_alpha 90.000000
_cell_angle_beta 90.000000
_cell_angle_gamma 120.000000
_cell_volume 555.654755
_symmetry_space_group_name_H-M "P 32 2 1"
_symmetry_group_IT_number 154
_symmetry_cell_setting 'hexagonal'
loop_
_space_group_symop_operation_xyz
x,y,z
-y,x-y,2/3+z
-x+y,-x,1/3+z
x-y,-y,1/3-z
-x,-x+y,2/3-z
y,x,-z
loop_
_atom_site_type_symbol
_atom_site_label
_atom_site_fract_x
_atom_site_fract_y
_atom_site_fract_z
Si Si1 0.212589 0.320150 0.664793
Si Si2 0.622833 0.188121 0.674709
Si Si3 0.187555 0.000000 0.666667
O O1 0.349822 0.349822 0.500000
O O2 0.248933 0.439428 0.839052
O O3 0.072087 0.299917 0.523321
O O4 0.169316 0.146741 0.736162
O O5 0.707459 0.271854 0.465073
O O6 0.506120 0.000000 0.666667
#
# Coordination Sequence:
#
# PCOD9576745 Si02
#       3
#     6   6   3
#     4   8  18  48  80 131 173 240 294 379 446 543
#     4  12  32  63  92 134 189 255 315 391 479 570
#     4   6  16  38  84 118 180 214 296 352 450 530
#
# _framework density 26.995183999999998
#
# number of rings (size 3 to 8) (size 9 to 14) (size 15 to 20)
#    2.400    0.000    0.000    0.000    5.600    0.000 
#   36.000    0.000    0.000    0.000    0.000    0.000 
#    0.000    0.000    0.000    0.000    0.000    0.000 
#
# Total GULP energy -83717.804928 kJ/mol
# GULP energy per Si atom -5581.186995 kJ/mol
# Density = 2.693374 g / cm^3
# Si number density = 26.995184 Si / 1000 Ang^3
#
#
#
# Elastic Constant Matrix: (Units=GPa)
#
#
# Indices 1 2 3 4 5 6 
#
# 1 132.0174 59.6674 68.5916 -11.7933 0.0000 0.0000
# 2 59.6674 132.0174 68.5916 11.7933 0.0000 0.0000
# 3 68.5916 68.5916 130.9598 0.0000 0.0000 0.0000
# 4 -11.7933 11.7933 0.0000 71.6140 0.0000 0.0000
# 5 0.0000 0.0000 0.0000 0.0000 71.6140 -11.7933
# 6 0.0000 0.0000 0.0000 0.0000 -11.7933 36.1750
#
#
#
# Elastic Compliance Matrix: (Units=1/GPa)
#
#
# Indices 1 2 3 4 5 6 
#
# 1 0.011475 -0.003130 -0.004371 0.002405 0.000000 0.000000
# 2 -0.003130 0.011475 -0.004371 -0.002405 0.000000 0.000000
# 3 -0.004371 -0.004371 0.012214 0.000000 0.000000 0.000000
# 4 0.002405 -0.002405 0.000000 0.014756 0.000000 0.000000
# 5 0.000000 0.000000 0.000000 0.000000 0.014756 0.004811
# 6 0.000000 0.000000 0.000000 0.000000 0.004811 0.029212
#
#
# Mechanical properties :
#
#
# Convention : Reuss Voigt Hill
#
# Bulk Modulus (GPa) = 87.55614 87.63287 87.59450
# Shear Modulus (GPa) = 41.17271 49.09018 45.13144
#
# Velocity S-wave (km/s) = 3.90960 4.26899 4.09324
# Velocity P-wave (km/s) = 7.27216 7.53869 7.40663
#
# Compressibility (1/GPa) = 0.01142124
#
# Stress axis : x y z
#
# Youngs Moduli (GPa) = 87.14313 87.14313 81.87076
#
# Poissons Ratio (x) = 0.27280 0.35784
# Poissons Ratio (y) = 0.27280 0.35784
# Poissons Ratio (z) = 0.38088 0.38088
#
# Static dielectric constant tensor:
#      x y z
#    x 2.181310 0.000000 0.000000 
#    y 0.000000 2.181310 0.000000 
#    z 0.000000 0.000000 2.153370 
# 
# From -- ./inp_files/93.got.cif
#   From: 2010.05.17/outbox.cif.g08.bks.cpg/sg154_1_cif.got.tgz:93.got - 2010.05.20 10:41:43.
