data_PCOD9576712
_publ_section_title
;
Structure prediction by ZEFSAII (Michael W. Deem and Ramdas Pophale) SiO2 
 PCOD9576712
Probable space group: P 32 2 1
;
_chemical_formula_sum "Si O2"
_cell_formula_units_Z 27
_cell_length_a 7.224679
_cell_length_b 7.224679
_cell_length_c 21.249895
_cell_angle_alpha 90.000000
_cell_angle_beta 90.000000
_cell_angle_gamma 120.000000
_cell_volume 960.560075
_symmetry_space_group_name_H-M "P 32 2 1"
_symmetry_group_IT_number 154
_symmetry_cell_setting 'hexagonal'
loop_
_space_group_symop_operation_xyz
x,y,z
-y,x-y,2/3+z
-x+y,-x,1/3+z
x-y,-y,1/3-z
-x,-x+y,2/3-z
y,x,-z
loop_
_atom_site_type_symbol
_atom_site_label
_atom_site_fract_x
_atom_site_fract_y
_atom_site_fract_z
Si Si1 0.190247 0.649326 0.113829
Si Si2 0.355184 0.256633 0.572077
Si Si3 0.910397 0.908617 0.424411
Si Si4 0.301790 0.636710 0.585719
Si Si5 0.374475 0.374475 0.000000
O O1 0.951603 0.466084 0.096880
O O2 0.198156 0.856966 0.082220
O O3 0.421228 0.684584 0.094810
O O4 0.232105 0.662355 0.189322
O O5 0.156296 0.037687 0.593620
O O6 0.351387 0.451259 0.606252
O O7 0.918547 0.918547 0.500000
O O8 0.020374 0.791108 0.390113
O O9 0.307702 0.307702 0.500000
O O10 0.404528 0.809235 0.640279
#
# Coordination Sequence:
#
# PCOD9576712 Si02
#       5
#     6   6   6   6   3
#     4  11  23  45  75 115 155 209 276 336 425 501
#     4   9  21  45  73 111 151 204 270 331 417 492
#     4  11  22  46  82 109 163 223 266 355 414 495
#     4  11  25  44  79 116 161 213 277 350 416 515
#     4  12  24  48  78 122 174 218 296 354 426 526
#
# _framework density 28.108599000000002
#
# number of rings (size 3 to 8) (size 9 to 14) (size 15 to 20)
#    0.000    1.333    4.444    0.667    9.333    0.889 
#    0.000    6.667    0.000    0.000    0.000    0.000 
#    0.000    0.000    0.000    0.000    0.000    0.000 
#
# Total GULP energy -150952.561033 kJ/mol
# GULP energy per Si atom -5590.835594 kJ/mol
# Density = 2.804462 g / cm^3
# Si number density = 28.108599 Si / 1000 Ang^3
#
#
#
# Elastic Constant Matrix: (Units=GPa)
#
#
# Indices 1 2 3 4 5 6 
#
# 1 136.3347 29.4185 18.5820 2.9583 0.0000 0.0000
# 2 29.4185 136.3347 18.5820 -2.9583 0.0000 0.0000
# 3 18.5820 18.5820 166.5111 0.0000 0.0000 0.0000
# 4 2.9583 -2.9583 0.0000 31.5012 0.0000 0.0000
# 5 0.0000 0.0000 0.0000 0.0000 31.5012 2.9583
# 6 0.0000 0.0000 0.0000 0.0000 2.9583 53.4581
#
#
#
# Elastic Compliance Matrix: (Units=1/GPa)
#
#
# Indices 1 2 3 4 5 6 
#
# 1 0.007795 -0.001607 -0.000691 -0.000883 0.000000 0.000000
# 2 -0.001607 0.007795 -0.000691 0.000883 0.000000 0.000000
# 3 -0.000691 -0.000691 0.006160 0.000000 0.000000 0.000000
# 4 -0.000883 0.000883 0.000000 0.031911 0.000000 0.000000
# 5 0.000000 0.000000 0.000000 0.000000 0.031911 -0.001766
# 6 0.000000 0.000000 0.000000 0.000000 -0.001766 0.018804
#
#
# Mechanical properties :
#
#
# Convention : Reuss Voigt Hill
#
# Bulk Modulus (GPa) = 63.39813 63.59396 63.49604
# Shear Modulus (GPa) = 43.24924 48.13197 45.69060
#
# Velocity S-wave (km/s) = 3.92682 4.14255 4.03613
# Velocity P-wave (km/s) = 6.56989 6.74941 6.66026
#
# Compressibility (1/GPa) = 0.01577334
#
# Stress axis : x y z
#
# Youngs Moduli (GPa) = 128.28842 128.28842 162.34474
#
# Poissons Ratio (x) = 0.20616 0.11211
# Poissons Ratio (y) = 0.20616 0.11211
# Poissons Ratio (z) = 0.08859 0.08859
#
# Static dielectric constant tensor:
#      x y z
#    x 2.241130 0.000000 0.000000 
#    y 0.000000 2.241130 0.000000 
#    z 0.000000 0.000000 2.178480 
# 
# From -- ./inp_files/2990.got.cif
#   From: 2010.05.17/outbox.cif.g08.bks.cpg/sg154_2_cif.got.tgz:2990.got - 2010.05.20 10:41:43.
