data_PCOD9576881
_publ_section_title
;
Structure prediction by ZEFSAII (Michael W. Deem and Ramdas Pophale) SiO2 
 PCOD9576881
Probable space group: R 3 2
;
_chemical_formula_sum "Si O2"
_cell_formula_units_Z 90
_cell_length_a 25.435984
_cell_length_b 25.435984
_cell_length_c 10.051191
_cell_angle_alpha 90.000000
_cell_angle_beta 90.000000
_cell_angle_gamma 120.000000
_cell_volume 5631.774328
_symmetry_space_group_name_H-M "R 3 2"
_symmetry_group_IT_number 155
_symmetry_cell_setting 'hexagonal'
loop_
_space_group_symop_operation_xyz
x,y,z
-y,x-y,z
-x+y,-x,z
x-y,-y,-z
-x,-x+y,-z
y,x,-z
2/3+x,1/3+y,1/3+z
2/3-y,1/3+x-y,1/3+z
2/3-x+y,1/3-x,1/3+z
2/3+x-y,1/3-y,1/3-z
2/3-x,1/3-x+y,1/3-z
2/3+y,1/3+x,1/3-z
1/3+x,2/3+y,2/3+z
1/3-y,2/3+x-y,2/3+z
1/3-x+y,2/3-x,2/3+z
1/3+x-y,2/3-y,2/3-z
1/3-x,2/3-x+y,2/3-z
1/3+y,2/3+x,2/3-z
loop_
_atom_site_type_symbol
_atom_site_label
_atom_site_fract_x
_atom_site_fract_y
_atom_site_fract_z
Si Si1 0.073314 0.632360 0.801795
Si Si2 0.739319 0.747563 0.344300
Si Si3 0.127515 0.301689 0.697519
Si Si4 0.384252 0.178640 0.556192
Si Si5 0.952361 0.734510 0.389685
O O1 0.105235 0.666667 0.666667
O O2 0.089833 0.582273 0.852865
O O3 0.001180 0.593301 0.773803
O O4 0.087604 0.679163 0.919857
O O5 0.754357 0.754357 0.500000
O O6 0.666667 0.699638 0.333334
O O7 0.783325 0.727120 0.277747
O O8 0.748977 0.809903 0.283122
O O9 0.162233 0.333334 0.833334
O O10 0.144633 0.350256 0.578974
O O11 0.152597 0.258613 0.643033
O O12 0.333334 0.168755 0.666667
O O13 0.000000 0.777985 0.500000
#
# Coordination Sequence:
#
# PCOD9576881 Si02
#       5
#    18  18  18  18  18
#     4  11  20  32  49  72 103 140 179 213 257 310
#     4  11  20  35  55  74 101 144 181 218 276 322
#     4  11  22  33  50  78 107 135 185 226 259 323
#     4  10  20  34  50  73 102 141 181 219 258 319
#     4  11  21  32  50  73 105 145 178 215 258 308
#
# _framework density 15.980755
#
# number of rings (size 3 to 8) (size 9 to 14) (size 15 to 20)
#    0.000    1.200    4.000    7.800    0.000    0.000 
#    0.000    0.000    0.000    0.000    0.000    0.000 
#    2.000    1.600    2.400    0.000    0.000    0.000 
#
# Total GULP energy -167402.621575 kJ/mol
# GULP energy per Si atom -5580.087386 kJ/mol
# Density = 1.594438 g / cm^3
# Si number density = 15.980755 Si / 1000 Ang^3
#
#
#
# Elastic Constant Matrix: (Units=GPa)
#
#
# Indices 1 2 3 4 5 6 
#
# 1 78.5109 41.5341 22.5163 0.1016 0.0001 0.0001
# 2 41.5341 78.5108 22.5173 -0.1012 0.0008 0.0006
# 3 22.5163 22.5173 109.4228 0.0017 0.0058 0.0040
# 4 0.1016 -0.1012 0.0017 20.9922 0.0003 0.0005
# 5 0.0001 0.0008 0.0058 0.0003 20.9933 0.1034
# 6 0.0001 0.0006 0.0040 0.0005 0.1034 18.4891
#
#
#
# Elastic Compliance Matrix: (Units=1/GPa)
#
#
# Indices 1 2 3 4 5 6 
#
# 1 0.018036 -0.009009 -0.001857 -0.000131 0.000001 0.000001
# 2 -0.009009 0.018036 -0.001858 0.000131 0.000000 0.000000
# 3 -0.001857 -0.001858 0.009903 -0.000001 -0.000003 -0.000002
# 4 -0.000131 0.000131 -0.000001 0.047638 -0.000001 -0.000001
# 5 0.000001 0.000000 -0.000003 -0.000001 0.047636 -0.000266
# 6 0.000001 0.000000 -0.000002 -0.000001 -0.000266 0.054087
#
#
# Mechanical properties :
#
#
# Convention : Reuss Voigt Hill
#
# Bulk Modulus (GPa) = 48.71585 48.84221 48.77903
# Shear Modulus (GPa) = 21.96583 24.08672 23.02627
#
# Velocity S-wave (km/s) = 3.71147 3.88652 3.80000
# Velocity P-wave (km/s) = 6.99406 7.12528 7.05998
#
# Compressibility (1/GPa) = 0.02052720
#
# Stress axis : x y z
#
# Youngs Moduli (GPa) = 55.44519 55.44474 100.97588
#
# Poissons Ratio (x) = 0.49949 0.18755
# Poissons Ratio (y) = 0.49950 0.18758
# Poissons Ratio (z) = 0.10299 0.10300
#
# Static dielectric constant tensor:
#      x y z
#    x 1.554630 0.000000 0.000000 
#    y 0.000000 1.554630 0.000000 
#    z 0.000000 0.000000 1.563430 
# 
# From -- ./inp_files/2736.got.cif
#   From: 2010.05.17/outbox.cif.g08.bks.cpg/sg155_2_cif.got.tgz:2736.got - 2010.05.20 10:44:35.
