data_PCOD9576340
_publ_section_title
;
Structure prediction by ZEFSAII (Michael W. Deem and Ramdas Pophale) SiO2 
 PCOD9576340
Probable space group: P 32 1 2
;
_chemical_formula_sum "Si O2"
_cell_formula_units_Z 36
_cell_length_a 8.854797
_cell_length_b 8.854797
_cell_length_c 27.802586
_cell_angle_alpha 90.000000
_cell_angle_beta 90.000000
_cell_angle_gamma 120.000000
_cell_volume 1887.874164
_symmetry_space_group_name_H-M "P 32 1 2"
_symmetry_group_IT_number 153
_symmetry_cell_setting 'hexagonal'
loop_
_space_group_symop_operation_xyz
x,y,z
-y,x-y,2/3+z
-x+y,-x,1/3+z
-y,-x,1/3-z
-x+y,y,2/3-z
x,x-y,-z
loop_
_atom_site_type_symbol
_atom_site_label
_atom_site_fract_x
_atom_site_fract_y
_atom_site_fract_z
Si Si1 0.265757 0.851397 0.858754
Si Si2 0.728974 0.506960 0.209294
Si Si3 0.939815 0.322461 0.206453
Si Si4 0.905921 0.764674 0.691120
Si Si5 0.242689 0.788606 0.364169
Si Si6 0.549733 0.114521 0.976833
O O1 0.438155 0.876309 0.833334
O O2 0.229509 0.756409 0.910789
O O3 0.118750 0.733563 0.821061
O O4 0.303269 0.050712 0.866426
O O5 0.621736 0.378265 0.166667
O O6 0.890723 0.473544 0.218166
O O7 0.599215 0.440982 0.254347
O O8 0.802922 0.197079 0.166667
O O9 0.933780 0.217320 0.254490
O O10 0.741050 0.793436 0.689689
O O11 0.860962 0.590838 0.661980
O O12 0.073888 0.926113 0.666667
O O13 0.410162 0.820323 0.333334
O O14 0.080115 0.605620 0.347216
O O15 0.506487 0.253244 0.000000
#
# Coordination Sequence:
#
# PCOD9576340 Si02
#       6
#     6   6   6   6   6   6
#     4  10  23  42  65  96 132 170 221 277 334 400
#     4   9  21  38  65  90 125 169 211 264 322 392
#     4  11  22  43  68  95 128 170 221 270 334 401
#     4  12  26  41  66  99 135 178 224 276 335 402
#     4  11  25  43  64  96 134 175 222 279 329 402
#     4  11  22  41  67  93 128 172 221 270 333 388
#
# _framework density 19.06907
#
# number of rings (size 3 to 8) (size 9 to 14) (size 15 to 20)
#    0.000    1.333    3.333    1.500    9.333    0.000 
#    0.000    0.833    0.000    0.000    0.000    0.000 
#    0.000    0.000    0.000    0.000    0.000    0.000 
#
# Total GULP energy -200675.510877 kJ/mol
# GULP energy per Si atom -5574.319747 kJ/mol
# Density = 1.902567 g / cm^3
# Si number density = 19.069070 Si / 1000 Ang^3
#
#
#
# Elastic Constant Matrix: (Units=GPa)
#
#
# Indices 1 2 3 4 5 6 
#
# 1 92.6883 13.0833 36.9120 -0.0049 -8.8802 0.0000
# 2 13.0833 92.6883 36.9120 0.0049 8.8802 0.0000
# 3 36.9120 36.9120 98.5853 0.0000 0.0000 0.0000
# 4 -0.0049 0.0049 0.0000 34.8567 0.0000 8.8802
# 5 -8.8802 8.8802 0.0000 0.0000 34.8567 -0.0049
# 6 0.0000 0.0000 0.0000 8.8802 -0.0049 39.8025
#
#
#
# Elastic Compliance Matrix: (Units=1/GPa)
#
#
# Indices 1 2 3 4 5 6 
#
# 1 0.013059 -0.000260 -0.004792 0.000002 0.003393 0.000000
# 2 -0.000260 0.013059 -0.004792 -0.000002 -0.003393 0.000000
# 3 -0.004792 -0.004792 0.013732 0.000000 0.000000 0.000000
# 4 0.000002 -0.000002 0.000000 0.030418 0.000000 -0.006786
# 5 0.003393 -0.003393 0.000000 0.000000 0.030418 0.000004
# 6 0.000000 0.000000 0.000000 -0.006786 0.000004 0.026638
#
#
# Mechanical properties :
#
#
# Convention : Reuss Voigt Hill
#
# Bulk Modulus (GPa) = 49.59964 50.86408 50.23186
# Shear Modulus (GPa) = 32.52389 35.04015 33.78202
#
# Velocity S-wave (km/s) = 4.13435 4.29130 4.21356
# Velocity P-wave (km/s) = 6.98981 7.16137 7.07611
#
# Compressibility (1/GPa) = 0.02016144
#
# Stress axis : x y z
#
# Youngs Moduli (GPa) = 76.57514 76.57514 72.82235
#
# Poissons Ratio (x) = 0.01991 0.34898
# Poissons Ratio (y) = 0.01991 0.34898
# Poissons Ratio (z) = 0.36696 0.36696
#
# Static dielectric constant tensor:
#      x y z
#    x 1.265340 0.000000 0.000000 
#    y 0.000000 1.265340 0.000000 
#    z 0.000000 0.000000 1.641100 
# 
# From -- ./inp_files/4716.got.cif
#   From: 2010.05.17/outbox.cif.g08.bks.cpg/sg153_3_cif.got.tgz:4716.got - 2010.05.20 10:38:56.
