data_PCOD9576885
_publ_section_title
;
Structure prediction by ZEFSAII (Michael W. Deem and Ramdas Pophale) SiO2 
 PCOD9576885
Probable space group: R 3 2
;
_chemical_formula_sum "Si O2"
_cell_formula_units_Z 93
_cell_length_a 21.341646
_cell_length_b 21.341646
_cell_length_c 13.482564
_cell_angle_alpha 90.000000
_cell_angle_beta 90.000000
_cell_angle_gamma 120.000000
_cell_volume 5318.129958
_symmetry_space_group_name_H-M "R 3 2"
_symmetry_group_IT_number 155
_symmetry_cell_setting 'hexagonal'
loop_
_space_group_symop_operation_xyz
x,y,z
-y,x-y,z
-x+y,-x,z
x-y,-y,-z
-x,-x+y,-z
y,x,-z
2/3+x,1/3+y,1/3+z
2/3-y,1/3+x-y,1/3+z
2/3-x+y,1/3-x,1/3+z
2/3+x-y,1/3-y,1/3-z
2/3-x,1/3-x+y,1/3-z
2/3+y,1/3+x,1/3-z
1/3+x,2/3+y,2/3+z
1/3-y,2/3+x-y,2/3+z
1/3-x+y,2/3-x,2/3+z
1/3+x-y,2/3-y,2/3-z
1/3-x,2/3-x+y,2/3-z
1/3+y,2/3+x,2/3-z
loop_
_atom_site_type_symbol
_atom_site_label
_atom_site_fract_x
_atom_site_fract_y
_atom_site_fract_z
Si Si1 0.000000 0.000000 0.634006
Si Si2 0.000000 0.885260 0.500000
Si Si3 0.529406 0.593780 0.383773
Si Si4 0.261135 0.820706 0.735575
Si Si5 0.117729 0.117729 0.000000
Si Si6 0.083139 0.333334 0.333334
Si Si7 0.333334 0.666668 0.532781
Si Si8 0.420454 0.903866 0.167372
O O1 0.055988 0.077958 0.587961
O O2 0.000000 0.000000 0.749930
O O3 0.068278 0.879772 0.466139
O O4 0.488690 0.604129 0.478040
O O5 0.558546 0.537733 0.396457
O O6 0.599912 0.672430 0.365508
O O7 0.483666 0.564607 0.283473
O O8 0.333334 0.856970 0.666667
O O9 0.214403 0.738653 0.696468
O O10 0.076946 0.060383 0.910761
O O11 0.107886 0.304447 0.427807
O O12 0.333334 0.855923 0.166667
#
# Coordination Sequence:
#
# PCOD9576885 Si02
#       8
#     6   9  18  18   9   9   6  18
#     4  10  20  34  52  83 112 148 176 226 277 347
#     4  10  20  36  54  82 116 146 186 226 286 370
#     4  10  22  34  58  82 113 150 190 250 299 357
#     4  11  20  36  55  83 115 149 188 243 304 356
#     4  10  22  36  51  83 118 148 190 230 286 374
#     4  10  20  34  57  85 118 146 192 254 300 358
#     4  10  20  34  52  83 115 142 185 223 277 356
#     4  10  20  36  53  84 115 145 189 238 296 357
#
# _framework density 17.487349999999999
#
# number of rings (size 3 to 8) (size 9 to 14) (size 15 to 20)
#    0.000    1.935    4.839    1.161    8.129    0.000 
#    3.484    0.000    0.000    3.484    0.000    0.000 
#    0.000    0.000    0.000    0.000    0.000    0.000 
#
# Total GULP energy -172624.186908 kJ/mol
# GULP energy per Si atom -5568.522158 kJ/mol
# Density = 1.744755 g / cm^3
# Si number density = 17.487350 Si / 1000 Ang^3
#
#
#
# Elastic Constant Matrix: (Units=GPa)
#
#
# Indices 1 2 3 4 5 6 
#
# 1 61.1901 28.6741 29.5657 -5.3233 0.0000 0.0000
# 2 28.6741 61.1897 29.5662 5.3235 0.0000 0.0000
# 3 29.5657 29.5662 136.1290 0.0004 0.0000 0.0000
# 4 -5.3233 5.3235 0.0004 13.8931 0.0000 0.0000
# 5 0.0000 0.0000 0.0000 0.0000 13.8933 -5.3233
# 6 0.0000 0.0000 0.0000 0.0000 -5.3233 16.2580
#
#
#
# Elastic Compliance Matrix: (Units=1/GPa)
#
#
# Indices 1 2 3 4 5 6 
#
# 1 0.024075 -0.011091 -0.002820 0.013475 0.000000 0.000000
# 2 -0.011091 0.024075 -0.002820 -0.013475 0.000000 0.000000
# 3 -0.002820 -0.002820 0.008571 0.000000 0.000000 0.000000
# 4 0.013475 -0.013475 0.000000 0.082304 0.000000 0.000000
# 5 0.000000 0.000000 0.000000 0.000000 0.082303 0.026948
# 6 0.000000 0.000000 0.000000 0.000000 0.026948 0.070332
#
#
# Mechanical properties :
#
#
# Convention : Reuss Voigt Hill
#
# Bulk Modulus (GPa) = 42.99548 48.23563 45.61555
# Shear Modulus (GPa) = 15.02068 20.18907 17.60488
#
# Velocity S-wave (km/s) = 2.93396 3.40147 3.17633
# Velocity P-wave (km/s) = 6.00978 6.56275 6.29234
#
# Compressibility (1/GPa) = 0.02325826
#
# Stress axis : x y z
#
# Youngs Moduli (GPa) = 41.53726 41.53683 116.67419
#
# Poissons Ratio (x) = 0.46070 0.32900
# Poissons Ratio (y) = 0.46071 0.32901
# Poissons Ratio (z) = 0.11713 0.11713
#
# Static dielectric constant tensor:
#      x y z
#    x 1.595030 0.000000 0.000000 
#    y 0.000000 1.595030 0.000000 
#    z 0.000000 0.000000 1.680160 
# 
# From -- ./inp_files/5119.got.cif
#   From: 2010.05.17/outbox.cif.g08.bks.cpg/sg155_3_cif.got.tgz:5119.got - 2010.05.20 10:44:35.
