data_PCOD9576413
_publ_section_title
;
Structure prediction by ZEFSAII (Michael W. Deem and Ramdas Pophale) SiO2 
 PCOD9576413
Probable space group: P 32 2 1
;
_chemical_formula_sum "Si O2"
_cell_formula_units_Z 39
_cell_length_a 17.478232
_cell_length_b 17.478232
_cell_length_c 6.953285
_cell_angle_alpha 90.000000
_cell_angle_beta 90.000000
_cell_angle_gamma 120.000000
_cell_volume 1839.567218
_symmetry_space_group_name_H-M "P 32 2 1"
_symmetry_group_IT_number 154
_symmetry_cell_setting 'hexagonal'
loop_
_space_group_symop_operation_xyz
x,y,z
-y,x-y,2/3+z
-x+y,-x,1/3+z
x-y,-y,1/3-z
-x,-x+y,2/3-z
y,x,-z
loop_
_atom_site_type_symbol
_atom_site_label
_atom_site_fract_x
_atom_site_fract_y
_atom_site_fract_z
Si Si1 0.420308 0.168689 0.933647
Si Si2 0.625028 0.603961 0.770562
Si Si3 0.301558 0.499190 0.730187
Si Si4 0.551731 0.996191 0.439638
Si Si5 0.307920 0.307920 0.500000
Si Si6 0.715480 0.324883 0.410077
Si Si7 0.366241 0.177627 0.534013
O O1 0.513739 0.211581 0.821173
O O2 0.355451 0.162139 0.762181
O O3 0.394042 0.070057 0.995254
O O4 0.433308 0.234217 0.108042
O O5 0.547056 0.505779 0.712566
O O6 0.727817 0.632828 0.768279
O O7 0.607504 0.607504 0.000000
O O8 0.394387 0.502624 0.728577
O O9 0.318438 0.593775 0.789895
O O10 0.258504 0.462966 0.525049
O O11 0.644309 0.025143 0.335739
O O12 0.563061 0.000000 0.666667
O O13 0.304077 0.215634 0.461453
O O14 0.744367 0.371941 0.199858
#
# Coordination Sequence:
#
# PCOD9576413 Si02
#       7
#     6   6   6   6   3   6   6
#     4  10  19  34  53  75 107 140 178 225 272 316
#     4   9  19  35  55  75 107 142 180 223 274 320
#     4  10  20  32  50  74 105 140 188 218 264 314
#     4  10  19  35  52  74 102 142 180 222 263 317
#     4  10  22  36  56  76 104 142 186 224 278 318
#     4  10  19  31  45  68 103 143 178 221 261 305
#     4  10  21  37  51  76 102 136 186 230 267 322
#
# _framework density 21.200638999999999
#
# number of rings (size 3 to 8) (size 9 to 14) (size 15 to 20)
#    0.000    2.154    1.538    1.846    0.000    1.846 
#    5.538    0.000    0.000    0.000    0.000    0.000 
#    0.000   48.000    0.000    0.000    0.000    0.923 
#
# Total GULP energy -217156.882571 kJ/mol
# GULP energy per Si atom -5568.125194 kJ/mol
# Density = 2.115239 g / cm^3
# Si number density = 21.200639 Si / 1000 Ang^3
#
#
#
# Elastic Constant Matrix: (Units=GPa)
#
#
# Indices 1 2 3 4 5 6 
#
# 1 77.2033 30.0712 13.3959 -6.4409 -0.0002 0.0000
# 2 30.0712 77.2033 13.3959 6.4409 0.0002 0.0000
# 3 13.3959 13.3959 81.0428 0.0000 0.0000 0.0000
# 4 -6.4409 6.4409 0.0000 17.5648 0.0000 0.0002
# 5 -0.0002 0.0002 0.0000 0.0000 17.5648 -6.4409
# 6 0.0000 0.0000 0.0000 0.0002 -6.4409 23.5660
#
#
#
# Elastic Compliance Matrix: (Units=1/GPa)
#
#
# Indices 1 2 3 4 5 6 
#
# 1 0.016652 -0.006928 -0.001607 0.008647 0.000000 0.000000
# 2 -0.006928 0.016652 -0.001607 -0.008647 0.000000 0.000000
# 3 -0.001607 -0.001607 0.012870 0.000000 0.000000 0.000000
# 4 0.008647 -0.008647 0.000000 0.063273 0.000000 0.000000
# 5 0.000000 0.000000 0.000000 0.000000 0.063273 0.017294
# 6 0.000000 0.000000 0.000000 0.000000 0.017294 0.047161
#
#
# Mechanical properties :
#
#
# Convention : Reuss Voigt Hill
#
# Bulk Modulus (GPa) = 38.62757 38.79725 38.71241
# Shear Modulus (GPa) = 20.09673 23.64489 21.87081
#
# Velocity S-wave (km/s) = 3.08219 3.34322 3.21535
# Velocity P-wave (km/s) = 5.56112 5.76564 5.66430
#
# Compressibility (1/GPa) = 0.02588825
#
# Stress axis : x y z
#
# Youngs Moduli (GPa) = 60.05369 60.05369 77.69719
#
# Poissons Ratio (x) = 0.41608 0.12487
# Poissons Ratio (y) = 0.41608 0.12487
# Poissons Ratio (z) = 0.09652 0.09652
#
# Static dielectric constant tensor:
#      x y z
#    x 1.885080 0.000000 0.000000 
#    y 0.000000 1.885080 0.000000 
#    z 0.000000 0.000000 2.585820 
# 
# From -- ./inp_files/1249.got.cif
#   From: 2010.05.17/outbox.cif.g08.bks.cpg/sg154_1_cif.got.tgz:1249.got - 2010.05.20 10:41:43.
