data_PCOD9576691
_publ_section_title
;
Structure prediction by ZEFSAII (Michael W. Deem and Ramdas Pophale) SiO2 
 PCOD9576691
Probable space group: P 32 2 1
;
_chemical_formula_sum "Si O2"
_cell_formula_units_Z 15
_cell_length_a 10.104436
_cell_length_b 10.104436
_cell_length_c 6.060768
_cell_angle_alpha 90.000000
_cell_angle_beta 90.000000
_cell_angle_gamma 120.000000
_cell_volume 535.898383
_symmetry_space_group_name_H-M "P 32 2 1"
_symmetry_group_IT_number 154
_symmetry_cell_setting 'hexagonal'
loop_
_space_group_symop_operation_xyz
x,y,z
-y,x-y,2/3+z
-x+y,-x,1/3+z
x-y,-y,1/3-z
-x,-x+y,2/3-z
y,x,-z
loop_
_atom_site_type_symbol
_atom_site_label
_atom_site_fract_x
_atom_site_fract_y
_atom_site_fract_z
Si Si1 0.718109 0.232055 0.526004
Si Si2 0.015390 0.203628 0.588741
Si Si3 0.000000 0.640824 0.833334
O O1 0.767325 0.386674 0.394263
O O2 0.614422 0.086053 0.367963
O O3 0.873147 0.233619 0.589827
O O4 0.194654 0.330509 0.585316
O O5 0.000000 0.144870 0.333334
O O6 0.000000 0.133247 0.833334
#
# Coordination Sequence:
#
# PCOD9576691 Si02
#       3
#     6   6   3
#     4  11  28  52  85 124 174 228 292 366 446 528
#     4  10  25  53  79 121 160 221 276 353 417 505
#     4  10  26  54  82 120 164 226 288 346 430 512
#
# _framework density 27.990382
#
# number of rings (size 3 to 8) (size 9 to 14) (size 15 to 20)
#    0.000    1.600    0.000    0.000   11.200   16.000 
#   32.400    0.000    0.000    0.000    0.000    0.000 
#    0.000    0.000    0.000    0.000    0.000    0.000 
#
# Total GULP energy -83846.229083 kJ/mol
# GULP energy per Si atom -5589.748606 kJ/mol
# Density = 2.792667 g / cm^3
# Si number density = 27.990382 Si / 1000 Ang^3
#
#
#
# Elastic Constant Matrix: (Units=GPa)
#
#
# Indices 1 2 3 4 5 6 
#
# 1 166.9268 59.1356 86.5937 9.1095 0.0003 0.0000
# 2 59.1356 166.9268 86.5937 -9.1095 -0.0003 0.0000
# 3 86.5937 86.5937 247.1640 0.0000 0.0000 0.0000
# 4 9.1095 -9.1095 0.0000 130.4493 0.0000 -0.0003
# 5 0.0003 -0.0003 0.0000 0.0000 130.4493 9.1095
# 6 0.0000 0.0000 0.0000 -0.0003 9.1095 53.8956
#
#
#
# Elastic Compliance Matrix: (Units=1/GPa)
#
#
# Indices 1 2 3 4 5 6 
#
# 1 0.007717 -0.001671 -0.002118 -0.000656 0.000000 0.000000
# 2 -0.001671 0.007717 -0.002118 0.000656 0.000000 0.000000
# 3 -0.002118 -0.002118 0.005530 0.000000 0.000000 0.000000
# 4 -0.000656 0.000656 0.000000 0.007757 0.000000 0.000000
# 5 0.000000 0.000000 0.000000 0.000000 0.007757 -0.001311
# 6 0.000000 0.000000 0.000000 0.000000 -0.001311 0.018776
#
#
# Mechanical properties :
#
#
# Convention : Reuss Voigt Hill
#
# Bulk Modulus (GPa) = 109.29369 116.18484 112.73926
# Shear Modulus (GPa) = 71.30597 86.20515 78.75556
#
# Velocity S-wave (km/s) = 5.05277 5.55563 5.31015
# Velocity P-wave (km/s) = 8.55408 9.09683 8.82962
#
# Compressibility (1/GPa) = 0.00914966
#
# Stress axis : x y z
#
# Youngs Moduli (GPa) = 129.58023 129.58023 180.82417
#
# Poissons Ratio (x) = 0.21650 0.38305
# Poissons Ratio (y) = 0.21650 0.38305
# Poissons Ratio (z) = 0.27450 0.27450
#
# Static dielectric constant tensor:
#      x y z
#    x 2.107930 0.000000 0.000000 
#    y 0.000000 2.107930 0.000000 
#    z 0.000000 0.000000 2.159500 
# 
# From -- ./inp_files/83.got.cif
#   From: 2010.05.17/outbox.cif.g08.bks.cpg/sg154_1_cif.got.tgz:83.got - 2010.05.20 10:41:43.
