data_PCOD9576548
_publ_section_title
;
Structure prediction by ZEFSAII (Michael W. Deem and Ramdas Pophale) SiO2 
 PCOD9576548
Probable space group: P 32 2 1
;
_chemical_formula_sum "Si O2"
_cell_formula_units_Z 36
_cell_length_a 8.001631
_cell_length_b 8.001631
_cell_length_c 25.393024
_cell_angle_alpha 90.000000
_cell_angle_beta 90.000000
_cell_angle_gamma 120.000000
_cell_volume 1407.998183
_symmetry_space_group_name_H-M "P 32 2 1"
_symmetry_group_IT_number 154
_symmetry_cell_setting 'hexagonal'
loop_
_space_group_symop_operation_xyz
x,y,z
-y,x-y,2/3+z
-x+y,-x,1/3+z
x-y,-y,1/3-z
-x,-x+y,2/3-z
y,x,-z
loop_
_atom_site_type_symbol
_atom_site_label
_atom_site_fract_x
_atom_site_fract_y
_atom_site_fract_z
Si Si1 0.620694 0.126472 0.712874
Si Si2 0.374970 0.890356 0.979455
Si Si3 0.609385 0.030908 0.879210
Si Si4 0.686048 0.675336 0.873355
Si Si5 0.295215 0.004021 0.088989
Si Si6 0.093375 0.099830 0.387943
O O1 0.620274 0.312812 0.690253
O O2 0.426472 0.979804 0.742050
O O3 0.770167 0.210608 0.761533
O O4 0.643427 0.000000 0.666667
O O5 0.546006 0.029109 0.939790
O O6 0.182233 0.889174 0.959779
O O7 0.390707 0.961234 0.038662
O O8 0.649966 0.855940 0.871233
O O9 0.422230 0.976505 0.844259
O O10 0.820110 0.222163 0.873433
O O11 0.902557 0.764923 0.893951
O O12 0.103826 0.015515 0.073147
O O13 0.000000 0.129692 0.333334
#
# Coordination Sequence:
#
# PCOD9576548 Si02
#       6
#     6   6   6   6   6   6
#     4  11  23  38  60  90 119 156 203 249 302 361
#     4  10  21  39  63  89 116 153 202 252 303 360
#     4  10  23  40  58  85 119 158 198 244 305 360
#     4  10  23  40  58  84 122 158 196 245 299 366
#     4  10  21  38  60  86 117 153 200 251 297 356
#     4   9  19  39  63  88 120 157 198 246 300 359
#
# _framework density 25.568217000000001
#
# number of rings (size 3 to 8) (size 9 to 14) (size 15 to 20)
#    0.000    2.000    0.000    3.000    0.000   10.667 
#    0.000    7.500    0.000    0.000    0.000    0.000 
#    0.000    0.000    0.000    0.000    0.000    0.000 
#
# Total GULP energy -200843.033646 kJ/mol
# GULP energy per Si atom -5578.973157 kJ/mol
# Density = 2.551002 g / cm^3
# Si number density = 25.568217 Si / 1000 Ang^3
#
#
#
# Elastic Constant Matrix: (Units=GPa)
#
#
# Indices 1 2 3 4 5 6 
#
# 1 30.8681 12.2738 1.9767 8.6374 0.0003 0.0000
# 2 12.2738 30.8681 1.9767 -8.6374 -0.0003 0.0000
# 3 1.9767 1.9767 15.2049 0.0000 0.0000 0.0000
# 4 8.6374 -8.6374 0.0000 16.5112 0.0000 -0.0003
# 5 0.0003 -0.0003 0.0000 0.0000 16.5112 8.6374
# 6 0.0000 0.0000 0.0000 -0.0003 8.6374 9.2972
#
#
#
# Elastic Compliance Matrix: (Units=1/GPa)
#
#
# Indices 1 2 3 4 5 6 
#
# 1 0.064044 -0.040585 -0.003050 -0.054734 -0.000002 0.000000
# 2 -0.040585 0.064044 -0.003050 0.054734 0.000002 0.000000
# 3 -0.003050 -0.003050 0.066561 0.000000 0.000000 0.000000
# 4 -0.054734 0.054734 0.000000 0.117830 0.000000 0.000004
# 5 -0.000002 0.000002 0.000000 0.000000 0.117830 -0.109468
# 6 0.000000 0.000000 0.000000 0.000004 -0.109468 0.209259
#
#
# Mechanical properties :
#
#
# Convention : Reuss Voigt Hill
#
# Bulk Modulus (GPa) = 9.87362 12.15504 11.01433
# Shear Modulus (GPa) = 6.52148 12.51151 9.51649
#
# Velocity S-wave (km/s) = 1.59880 2.21450 1.93134
# Velocity P-wave (km/s) = 2.69783 3.36199 3.04805
#
# Compressibility (1/GPa) = 0.10127997
#
# Stress axis : x y z
#
# Youngs Moduli (GPa) = 15.61424 15.61424 15.02381
#
# Poissons Ratio (x) = 0.63371 0.04582
# Poissons Ratio (y) = 0.63371 0.04582
# Poissons Ratio (z) = 0.04762 0.04762
#
# Static dielectric constant tensor:
#      x y z
#    x 2.034340 0.000000 0.000000 
#    y 0.000000 2.034340 0.000000 
#    z 0.000000 0.000000 2.099580 
# 
# From -- ./inp_files/3383.got.cif
#   From: 2010.05.17/outbox.cif.g08.bks.cpg/sg154_2_cif.got.tgz:3383.got - 2010.05.20 10:41:43.
