data_PCOD9576793
_publ_section_title
;
Structure prediction by ZEFSAII (Michael W. Deem and Ramdas Pophale) SiO2 
 PCOD9576793
Probable space group: R 3 2
;
_chemical_formula_sum "Si O2"
_cell_formula_units_Z 126
_cell_length_a 22.648643
_cell_length_b 22.648643
_cell_length_c 16.543424
_cell_angle_alpha 90.000000
_cell_angle_beta 90.000000
_cell_angle_gamma 120.000000
_cell_volume 7349.205728
_symmetry_space_group_name_H-M "R 3 2"
_symmetry_group_IT_number 155
_symmetry_cell_setting 'hexagonal'
loop_
_space_group_symop_operation_xyz
x,y,z
-y,x-y,z
-x+y,-x,z
x-y,-y,-z
-x,-x+y,-z
y,x,-z
2/3+x,1/3+y,1/3+z
2/3-y,1/3+x-y,1/3+z
2/3-x+y,1/3-x,1/3+z
2/3+x-y,1/3-y,1/3-z
2/3-x,1/3-x+y,1/3-z
2/3+y,1/3+x,1/3-z
1/3+x,2/3+y,2/3+z
1/3-y,2/3+x-y,2/3+z
1/3-x+y,2/3-x,2/3+z
1/3+x-y,2/3-y,2/3-z
1/3-x,2/3-x+y,2/3-z
1/3+y,2/3+x,2/3-z
loop_
_atom_site_type_symbol
_atom_site_label
_atom_site_fract_x
_atom_site_fract_y
_atom_site_fract_z
Si Si1 0.811391 0.079244 0.503162
Si Si2 0.587706 0.757071 0.849504
Si Si3 0.261084 0.059538 0.564203
Si Si4 0.243557 0.056554 0.749515
Si Si5 0.616619 0.868266 0.983643
Si Si6 0.563975 0.854534 0.743079
Si Si7 0.584094 0.864285 0.434637
O O1 0.885307 0.124717 0.540628
O O2 0.811003 0.101700 0.410402
O O3 0.760466 0.095054 0.554285
O O4 0.784847 0.000000 0.500000
O O5 0.666667 0.779083 0.833334
O O6 0.541419 0.677213 0.865212
O O7 0.591929 0.801173 0.928749
O O8 0.561254 0.786301 0.777183
O O9 0.238444 0.035943 0.655586
O O10 0.343448 0.099668 0.561168
O O11 0.231780 0.000000 0.500000
O O12 0.228090 0.118501 0.758013
O O13 0.689915 0.925292 0.948668
O O14 0.562790 0.893951 0.969684
O O15 0.519334 0.852668 0.666667
O O16 0.544793 0.886924 0.817599
#
# Coordination Sequence:
#
# PCOD9576793 Si02
#       7
#    18  18  18  18  18  18  18
#     4  11  20  30  50  79 108 138 174 213 273 333
#     4   9  19  34  55  76 103 144 187 221 276 329
#     4  10  21  35  53  74 105 142 179 225 266 313
#     4  10  20  36  52  75 109 143 180 225 265 328
#     4  10  19  32  52  78 109 143 174 222 269 333
#     4  10  18  33  54  81 111 140 177 231 271 334
#     4  10  20  31  50  79 110 141 173 214 281 327
#
# _framework density 17.144708999999999
#
# number of rings (size 3 to 8) (size 9 to 14) (size 15 to 20)
#    0.000    2.000    1.429    4.286    0.000    1.143 
#    0.000    0.714    0.000    4.857    0.000    8.000 
#    0.000    0.000    0.000    0.000    0.000    0.000 
#
# Total GULP energy -234396.378958 kJ/mol
# GULP energy per Si atom -5580.866166 kJ/mol
# Density = 1.710569 g / cm^3
# Si number density = 17.144709 Si / 1000 Ang^3
#
#
#
# Elastic Constant Matrix: (Units=GPa)
#
#
# Indices 1 2 3 4 5 6 
#
# 1 89.1411 42.3611 23.0078 -0.3474 0.0000 0.0000
# 2 42.3611 89.1411 23.0078 0.3474 0.0000 0.0000
# 3 23.0078 23.0078 47.4184 0.0000 0.0000 0.0000
# 4 -0.3474 0.3474 0.0000 24.3745 0.0000 0.0000
# 5 0.0000 0.0000 0.0000 0.0000 24.3745 -0.3474
# 6 0.0000 0.0000 0.0000 0.0000 -0.3474 23.3900
#
#
#
# Elastic Compliance Matrix: (Units=1/GPa)
#
#
# Indices 1 2 3 4 5 6 
#
# 1 0.015270 -0.006111 -0.004444 0.000305 0.000000 0.000000
# 2 -0.006111 0.015270 -0.004444 -0.000305 0.000000 0.000000
# 3 -0.004444 -0.004444 0.025402 0.000000 0.000000 0.000000
# 4 0.000305 -0.000305 0.000000 0.041035 0.000000 0.000000
# 5 0.000000 0.000000 0.000000 0.000000 0.041035 0.000609
# 6 0.000000 0.000000 0.000000 0.000000 0.000609 0.042762
#
#
# Mechanical properties :
#
#
# Convention : Reuss Voigt Hill
#
# Bulk Modulus (GPa) = 38.54512 44.71713 41.63113
# Shear Modulus (GPa) = 22.78717 23.58274 23.18495
#
# Velocity S-wave (km/s) = 3.64965 3.71281 3.68137
# Velocity P-wave (km/s) = 6.34751 6.67224 6.51190
#
# Compressibility (1/GPa) = 0.02594362
#
# Stress axis : x y z
#
# Youngs Moduli (GPa) = 65.48626 65.48626 39.36748
#
# Poissons Ratio (x) = 0.40017 0.17496
# Poissons Ratio (y) = 0.40017 0.17496
# Poissons Ratio (z) = 0.29104 0.29104
#
# Static dielectric constant tensor:
#      x y z
#    x 1.566500 0.000000 0.000000 
#    y 0.000000 1.566500 0.000000 
#    z 0.000000 0.000000 1.604750 
# 
# From -- ./inp_files/6255.got.cif
#   From: 2010.05.17/outbox.cif.g08.bks.cpg/sg155_4_cif.got.tgz:6255.got - 2010.05.20 10:44:35.
