data_PCOD9576235
_publ_section_title
;
Structure prediction by ZEFSAII (Michael W. Deem and Ramdas Pophale) SiO2 
 PCOD9576235
Probable space group: P 32 1 2
;
_chemical_formula_sum "Si O2"
_cell_formula_units_Z 24
_cell_length_a 15.921102
_cell_length_b 15.921102
_cell_length_c 7.631319
_cell_angle_alpha 90.000000
_cell_angle_beta 90.000000
_cell_angle_gamma 120.000000
_cell_volume 1675.237898
_symmetry_space_group_name_H-M "P 32 1 2"
_symmetry_group_IT_number 153
_symmetry_cell_setting 'hexagonal'
loop_
_space_group_symop_operation_xyz
x,y,z
-y,x-y,2/3+z
-x+y,-x,1/3+z
-y,-x,1/3-z
-x+y,y,2/3-z
x,x-y,-z
loop_
_atom_site_type_symbol
_atom_site_label
_atom_site_fract_x
_atom_site_fract_y
_atom_site_fract_z
Si Si1 0.287574 0.778751 0.857415
Si Si2 0.030255 0.459530 0.671046
Si Si3 0.728376 0.271624 0.166667
Si Si4 0.497327 0.179395 0.137621
Si Si5 0.148155 0.574078 0.000000
O O1 0.239370 0.760631 0.666667
O O2 0.386544 0.773087 0.833334
O O3 0.216914 0.689491 0.980027
O O4 0.324862 0.885125 0.935697
O O5 0.003765 0.501883 0.500000
O O6 0.083516 0.537462 0.825901
O O7 0.933392 0.376277 0.758627
O O8 0.614498 0.224944 0.117477
O O9 0.724632 0.209384 0.333871
O O10 0.466538 0.233269 0.000000
#
# Coordination Sequence:
#
# PCOD9576235 Si02
#       5
#     6   6   3   6   3
#     4  11  18  31  46  65  95 134 168 203 247 293
#     4  11  22  29  45  73  93 123 179 207 246 300
#     4  10  18  32  48  64  82 122 166 198 262 294
#     4  11  19  33  49  65  92 125 163 216 248 294
#     4  12  18  32  50  64  98 136 166 204 246 296
#
# _framework density 14.326323
#
# number of rings (size 3 to 8) (size 9 to 14) (size 15 to 20)
#    0.000    1.000    8.750    3.750    0.000    0.000 
#    0.000    0.000    0.000    0.000    0.000    0.000 
#    0.000    0.000    0.000    9.000    1.000    0.000 
#
# Total GULP energy -133761.334652 kJ/mol
# GULP energy per Si atom -5573.388944 kJ/mol
# Density = 1.429372 g / cm^3
# Si number density = 14.326323 Si / 1000 Ang^3
#
#
#
# Elastic Constant Matrix: (Units=GPa)
#
#
# Indices 1 2 3 4 5 6 
#
# 1 69.9374 38.8634 39.1340 -0.0003 2.1290 0.0000
# 2 38.8634 69.9374 39.1340 0.0003 -2.1290 0.0000
# 3 39.1340 39.1340 125.8505 0.0000 0.0000 0.0000
# 4 -0.0003 0.0003 0.0000 15.8724 0.0000 -2.1290
# 5 2.1290 -2.1290 0.0000 0.0000 15.8724 -0.0003
# 6 0.0000 0.0000 0.0000 -2.1290 -0.0003 15.5370
#
#
#
# Elastic Compliance Matrix: (Units=1/GPa)
#
#
# Indices 1 2 3 4 5 6 
#
# 1 0.022312 -0.010472 -0.003682 0.000001 -0.004397 0.000000
# 2 -0.010472 0.022312 -0.003682 -0.000001 0.004397 0.000000
# 3 -0.003682 -0.003682 0.010236 0.000000 0.000000 0.000000
# 4 0.000001 -0.000001 0.000000 0.064182 0.000000 0.008795
# 5 -0.004397 0.004397 0.000000 0.000000 0.064182 0.000001
# 6 0.000000 0.000000 0.000000 0.008795 0.000001 0.065567
#
#
# Mechanical properties :
#
#
# Convention : Reuss Voigt Hill
#
# Bulk Modulus (GPa) = 52.11508 55.55423 53.83465
# Shear Modulus (GPa) = 17.19058 19.36263 18.27660
#
# Velocity S-wave (km/s) = 3.46776 3.68032 3.57562
# Velocity P-wave (km/s) = 7.24499 7.54464 7.39633
#
# Compressibility (1/GPa) = 0.01918830
#
# Stress axis : x y z
#
# Youngs Moduli (GPa) = 44.81969 44.81969 97.69867
#
# Poissons Ratio (x) = 0.46936 0.35968
# Poissons Ratio (y) = 0.46936 0.35968
# Poissons Ratio (z) = 0.16501 0.16501
#
# Static dielectric constant tensor:
#      x y z
#    x 1.468790 0.000000 0.000000 
#    y 0.000000 1.468790 0.000000 
#    z 0.000000 0.000000 1.531550 
# 
# From -- ./inp_files/1391.got.cif
#   From: 2010.05.17/outbox.cif.g08.bks.cpg/sg153_1_cif.got.tgz:1391.got - 2010.05.20 10:38:56.
