data_PCOD9576524
_publ_section_title
;
Structure prediction by ZEFSAII (Michael W. Deem and Ramdas Pophale) SiO2 
 PCOD9576524
Probable space group: P 32 2 1
;
_chemical_formula_sum "Si O2"
_cell_formula_units_Z 36
_cell_length_a 11.934571
_cell_length_b 11.934571
_cell_length_c 12.615788
_cell_angle_alpha 90.000000
_cell_angle_beta 90.000000
_cell_angle_gamma 120.000000
_cell_volume 1556.175734
_symmetry_space_group_name_H-M "P 32 2 1"
_symmetry_group_IT_number 154
_symmetry_cell_setting 'hexagonal'
loop_
_space_group_symop_operation_xyz
x,y,z
-y,x-y,2/3+z
-x+y,-x,1/3+z
x-y,-y,1/3-z
-x,-x+y,2/3-z
y,x,-z
loop_
_atom_site_type_symbol
_atom_site_label
_atom_site_fract_x
_atom_site_fract_y
_atom_site_fract_z
Si Si1 0.662849 0.732559 0.808527
Si Si2 0.865002 0.675025 0.891101
Si Si3 0.417340 0.938792 0.006532
Si Si4 0.314894 0.376889 0.212772
Si Si5 0.876830 0.478825 0.416100
Si Si6 0.592321 0.393262 0.457625
O O1 0.775597 0.737994 0.879444
O O2 0.672142 0.664534 0.702173
O O3 0.655420 0.860535 0.792817
O O4 0.525867 0.636814 0.863697
O O5 0.792262 0.531664 0.835046
O O6 0.000000 0.759247 0.833334
O O7 0.903283 0.667039 0.011468
O O8 0.361542 0.834998 0.098759
O O9 0.540558 0.067389 0.055138
O O10 0.474228 0.893157 0.910076
O O11 0.405759 0.325744 0.167964
O O12 0.722122 0.416683 0.396386
O O13 0.000000 0.541980 0.333334
#
# Coordination Sequence:
#
# PCOD9576524 Si02
#       6
#     6   6   6   6   6   6
#     4  11  24  38  63  93 135 169 219 276 338 389
#     4  11  22  42  66  92 128 174 230 264 318 401
#     4   9  20  39  63  96 126 175 216 272 327 399
#     4  10  21  41  57  93 132 163 215 266 333 393
#     4  11  24  38  63  97 135 172 211 287 345 388
#     4  10  20  40  65  95 130 169 229 267 328 403
#
# _framework density 23.133631999999999
#
# number of rings (size 3 to 8) (size 9 to 14) (size 15 to 20)
#    0.000    1.667    3.333    2.500    7.000    0.000 
#    6.000    0.000    3.667    0.000    0.000    0.000 
#    0.000    0.000    0.000    0.000    0.000    0.000 
#
# Total GULP energy -200681.550364 kJ/mol
# GULP energy per Si atom -5574.487510 kJ/mol
# Density = 2.308098 g / cm^3
# Si number density = 23.133632 Si / 1000 Ang^3
#
#
#
# Elastic Constant Matrix: (Units=GPa)
#
#
# Indices 1 2 3 4 5 6 
#
# 1 107.2682 51.1705 5.3509 1.9939 0.0000 0.0000
# 2 51.1705 107.2682 5.3509 -1.9939 0.0000 0.0000
# 3 5.3509 5.3509 31.5311 0.0000 0.0000 0.0000
# 4 1.9939 -1.9939 0.0000 20.1176 0.0000 0.0000
# 5 0.0000 0.0000 0.0000 0.0000 20.1176 1.9939
# 6 0.0000 0.0000 0.0000 0.0000 1.9939 28.0489
#
#
#
# Elastic Compliance Matrix: (Units=1/GPa)
#
#
# Indices 1 2 3 4 5 6 
#
# 1 0.012169 -0.005784 -0.001084 -0.001779 0.000000 0.000000
# 2 -0.005784 0.012169 -0.001084 0.001779 0.000000 0.000000
# 3 -0.001084 -0.001084 0.032083 0.000000 0.000000 0.000000
# 4 -0.001779 0.001779 0.000000 0.050060 0.000000 0.000000
# 5 0.000000 0.000000 0.000000 0.000000 0.050060 -0.003559
# 6 0.000000 0.000000 0.000000 0.000000 -0.003559 0.035905
#
#
# Mechanical properties :
#
#
# Convention : Reuss Voigt Hill
#
# Bulk Modulus (GPa) = 24.68039 41.09024 32.88532
# Shear Modulus (GPa) = 22.53738 25.93648 24.23693
#
# Velocity S-wave (km/s) = 3.12465 3.35200 3.24032
# Velocity P-wave (km/s) = 4.86926 5.72555 5.31468
#
# Compressibility (1/GPa) = 0.04051799
#
# Stress axis : x y z
#
# Youngs Moduli (GPa) = 82.17839 82.17839 31.16962
#
# Poissons Ratio (x) = 0.47531 0.03377
# Poissons Ratio (y) = 0.47531 0.03377
# Poissons Ratio (z) = 0.08904 0.08904
#
# Static dielectric constant tensor:
#      x y z
#    x 1.861500 0.000000 0.000000 
#    y 0.000000 1.861500 0.000000 
#    z 0.000000 0.000000 2.005080 
# 
# From -- ./inp_files/1950.got.cif
#   From: 2010.05.17/outbox.cif.g08.bks.cpg/sg154_1_cif.got.tgz:1950.got - 2010.05.20 10:41:43.
