data_PCOD9576824
_publ_section_title
;
Structure prediction by ZEFSAII (Michael W. Deem and Ramdas Pophale) SiO2 
 PCOD9576824
Probable space group: R 3 2
;
_chemical_formula_sum "Si O2"
_cell_formula_units_Z 96
_cell_length_a 23.679619
_cell_length_b 23.679619
_cell_length_c 10.703130
_cell_angle_alpha 90.000000
_cell_angle_beta 90.000000
_cell_angle_gamma 120.000000
_cell_volume 5197.456377
_symmetry_space_group_name_H-M "R 3 2"
_symmetry_group_IT_number 155
_symmetry_cell_setting 'hexagonal'
loop_
_space_group_symop_operation_xyz
x,y,z
-y,x-y,z
-x+y,-x,z
x-y,-y,-z
-x,-x+y,-z
y,x,-z
2/3+x,1/3+y,1/3+z
2/3-y,1/3+x-y,1/3+z
2/3-x+y,1/3-x,1/3+z
2/3+x-y,1/3-y,1/3-z
2/3-x,1/3-x+y,1/3-z
2/3+y,1/3+x,1/3-z
1/3+x,2/3+y,2/3+z
1/3-y,2/3+x-y,2/3+z
1/3-x+y,2/3-x,2/3+z
1/3+x-y,2/3-y,2/3-z
1/3-x,2/3-x+y,2/3-z
1/3+y,2/3+x,2/3-z
loop_
_atom_site_type_symbol
_atom_site_label
_atom_site_fract_x
_atom_site_fract_y
_atom_site_fract_z
Si Si1 0.136143 0.209318 0.746533
Si Si2 0.098744 0.587409 0.683098
Si Si3 0.477544 0.746782 0.442055
Si Si4 0.713527 0.072388 0.946680
Si Si5 0.075294 0.153362 0.497149
Si Si6 0.000000 0.000000 0.848473
O O1 0.127509 0.235797 0.879205
O O2 0.128805 0.139237 0.770205
O O3 0.211189 0.258004 0.712674
O O4 0.095607 0.200092 0.618496
O O5 0.139205 0.666667 0.666667
O O6 0.140038 0.570160 0.777438
O O7 0.029078 0.572881 0.738101
O O8 0.512013 0.748769 0.311296
O O9 0.405558 0.685653 0.466424
O O10 0.666667 0.067394 0.833334
O O11 0.679411 0.000000 0.000000
O O12 0.119932 0.119932 0.500000
O O13 0.000000 0.098477 0.500000
O O14 0.000000 0.000000 0.000000
#
# Coordination Sequence:
#
# PCOD9576824 Si02
#       6
#    18  18  18  18  18   6
#     4  10  19  31  44  65  93 124 164 206 240 285
#     4   9  18  32  45  63  93 125 159 205 239 281
#     4  10  19  31  45  65  92 124 165 203 234 283
#     4  11  19  29  48  69  93 131 169 200 244 290
#     4  10  19  31  46  65  91 125 163 205 247 289
#     4  12  21  30  49  71  94 135 169 197 244 288
#
# _framework density 18.470573999999999
#
# number of rings (size 3 to 8) (size 9 to 14) (size 15 to 20)
#    0.000    1.875    0.000    9.750    0.000    0.000 
#    0.000    0.000    0.000    0.000    0.000    0.000 
#    0.000    0.000    0.000   79.312    0.000   16.500 
#
# Total GULP energy -178139.290379 kJ/mol
# GULP energy per Si atom -5566.852824 kJ/mol
# Density = 1.842853 g / cm^3
# Si number density = 18.470574 Si / 1000 Ang^3
#
#
#
# Elastic Constant Matrix: (Units=GPa)
#
#
# Indices 1 2 3 4 5 6 
#
# 1 26.7162 29.5805 29.4977 0.5075 0.0001 0.0001
# 2 29.5805 26.7159 29.4970 -0.5077 -0.0001 0.0001
# 3 29.4977 29.4970 181.2149 -0.0007 0.0001 0.0005
# 4 0.5075 -0.5077 -0.0007 15.3244 -0.0006 0.0001
# 5 0.0001 -0.0001 0.0001 -0.0006 15.3246 0.5078
# 6 0.0001 0.0001 0.0005 0.0001 0.5078 -1.4322
#
#
#
# Elastic Compliance Matrix: (Units=1/GPa)
#
#
# Indices 1 2 3 4 5 6 
#
# 1 -0.161822 0.183239 -0.003485 0.011429 0.000003 -0.000001
# 2 0.183239 -0.161823 -0.003487 -0.011429 -0.000003 0.000002
# 3 -0.003485 -0.003487 0.006653 0.000000 0.000000 0.000002
# 4 0.011429 -0.011429 0.000000 0.064498 0.000002 0.000008
# 5 0.000003 -0.000003 0.000000 0.000002 0.064497 0.022866
# 6 -0.000001 0.000002 0.000002 0.000008 0.022866 -0.690103
#
#
# Mechanical properties :
#
#
# Convention : Reuss Voigt Hill
#
# Bulk Modulus (GPa) = 28.13617 45.75525 36.94571
# Shear Modulus (GPa) = -4.10244 15.58148 5.73952
#
# Velocity S-wave (km/s) = -1.49194 2.90760 1.76469
# Velocity P-wave (km/s) = 3.50688 6.00816 4.91915
#
# Compressibility (1/GPa) = 0.03554145
#
# Stress axis : x y z
#
# Youngs Moduli (GPa) = -6.17961 -6.17959 150.30387
#
# Poissons Ratio (x) = 1.13234 0.52387
# Poissons Ratio (y) = 1.13235 0.52406
# Poissons Ratio (z) = -0.02154 -0.02155
#
# Static dielectric constant tensor:
#      x y z
#    x 1.642900 0.000000 0.000000 
#    y 0.000000 1.642900 0.000000 
#    z 0.000000 0.000000 1.370340 
# 
# From -- ./inp_files/3997.got.cif
#   From: 2010.05.17/outbox.cif.g08.bks.cpg/sg155_2_cif.got.tgz:3997.got - 2010.05.20 10:44:35.
