data_PCOD9576280
_publ_section_title
;
Structure prediction by ZEFSAII (Michael W. Deem and Ramdas Pophale) SiO2 
 PCOD9576280
Probable space group: P 32 1 2
;
_chemical_formula_sum "Si O2"
_cell_formula_units_Z 30
_cell_length_a 15.384090
_cell_length_b 15.384090
_cell_length_c 7.808128
_cell_angle_alpha 90.000000
_cell_angle_beta 90.000000
_cell_angle_gamma 120.000000
_cell_volume 1600.372867
_symmetry_space_group_name_H-M "P 32 1 2"
_symmetry_group_IT_number 153
_symmetry_cell_setting 'hexagonal'
loop_
_space_group_symop_operation_xyz
x,y,z
-y,x-y,2/3+z
-x+y,-x,1/3+z
-y,-x,1/3-z
-x+y,y,2/3-z
x,x-y,-z
loop_
_atom_site_type_symbol
_atom_site_label
_atom_site_fract_x
_atom_site_fract_y
_atom_site_fract_z
Si Si1 0.258811 0.839249 0.914577
Si Si2 0.220690 0.110345 0.000000
Si Si3 0.366019 0.732038 0.833334
Si Si4 0.798066 0.901292 0.814860
Si Si5 0.782458 0.086092 0.316711
Si Si6 0.364476 0.436474 0.731283
O O1 0.322176 0.805245 0.801847
O O2 0.202573 0.890726 0.827205
O O3 0.165685 0.734630 0.982487
O O4 0.333343 0.905413 0.067936
O O5 0.146212 0.153663 0.019467
O O6 0.285445 0.127658 0.171483
O O7 0.338042 0.661959 0.666667
O O8 0.795530 0.803457 0.742307
O O9 0.849612 0.924806 0.000000
O O10 0.662841 0.032096 0.347180
O O11 0.831460 0.168541 0.166667
O O12 0.463139 0.536862 0.666667
#
# Coordination Sequence:
#
# PCOD9576280 Si02
#       6
#     6   3   3   6   6   6
#     4  10  20  35  55  86 122 156 193 234 285 348
#     4  12  22  40  58  82 120 158 198 240 292 344
#     4  12  22  34  54  82 118 162 198 234 278 340
#     4  11  22  37  58  83 119 157 193 241 288 347
#     4  11  23  40  60  86 116 155 196 244 297 352
#     4  10  20  37  60  86 119 155 196 242 292 348
#
# _framework density 18.745632000000001
#
# number of rings (size 3 to 8) (size 9 to 14) (size 15 to 20)
#    0.000    1.200    4.000    4.200    0.000    3.200 
#    1.800    0.000    0.000    0.000    2.600    0.000 
#    0.000    0.000    0.000    0.000    0.000    0.000 
#
# Total GULP energy -167374.396887 kJ/mol
# GULP energy per Si atom -5579.146563 kJ/mol
# Density = 1.870297 g / cm^3
# Si number density = 18.745632 Si / 1000 Ang^3
#
#
#
# Elastic Constant Matrix: (Units=GPa)
#
#
# Indices 1 2 3 4 5 6 
#
# 1 68.0377 21.8843 15.2810 0.0001 4.7819 0.0000
# 2 21.8843 68.0377 15.2810 -0.0001 -4.7819 0.0000
# 3 15.2810 15.2810 100.4365 0.0000 0.0000 0.0000
# 4 0.0001 -0.0001 0.0000 22.0667 0.0000 -4.7819
# 5 4.7819 -4.7819 0.0000 0.0000 22.0667 0.0001
# 6 0.0000 0.0000 0.0000 -4.7819 0.0001 23.0767
#
#
#
# Elastic Compliance Matrix: (Units=1/GPa)
#
#
# Indices 1 2 3 4 5 6 
#
# 1 0.017206 -0.005479 -0.001784 0.000000 -0.004916 0.000000
# 2 -0.005479 0.017206 -0.001784 0.000000 0.004916 0.000000
# 3 -0.001784 -0.001784 0.010499 0.000000 0.000000 0.000000
# 4 0.000000 0.000000 0.000000 0.047448 0.000000 0.009832
# 5 -0.004916 0.004916 0.000000 0.000000 0.047448 0.000000
# 6 0.000000 0.000000 0.000000 0.009832 0.000000 0.045371
#
#
# Mechanical properties :
#
#
# Convention : Reuss Voigt Hill
#
# Bulk Modulus (GPa) = 37.29004 37.93387 37.61196
# Shear Modulus (GPa) = 23.56120 25.71305 24.63713
#
# Velocity S-wave (km/s) = 3.54911 3.70764 3.62924
# Velocity P-wave (km/s) = 6.06059 6.21360 6.13757
#
# Compressibility (1/GPa) = 0.02681681
#
# Stress axis : x y z
#
# Youngs Moduli (GPa) = 58.11806 58.11806 95.24288
#
# Poissons Ratio (x) = 0.31844 0.16994
# Poissons Ratio (y) = 0.31844 0.16994
# Poissons Ratio (z) = 0.10370 0.10370
#
# Static dielectric constant tensor:
#      x y z
#    x 1.668530 0.000000 0.000000 
#    y 0.000000 1.668530 0.000000 
#    z 0.000000 0.000000 1.433580 
# 
# From -- ./inp_files/1611.got.cif
#   From: 2010.05.17/outbox.cif.g08.bks.cpg/sg153_1_cif.got.tgz:1611.got - 2010.05.20 10:38:56.
