data_PCOD9576526
_publ_section_title
;
Structure prediction by ZEFSAII (Michael W. Deem and Ramdas Pophale) SiO2 
 PCOD9576526
Probable space group: P 32 2 1
;
_chemical_formula_sum "Si O2"
_cell_formula_units_Z 42
_cell_length_a 9.003292
_cell_length_b 9.003292
_cell_length_c 28.729982
_cell_angle_alpha 90.000000
_cell_angle_beta 90.000000
_cell_angle_gamma 120.000000
_cell_volume 2016.827047
_symmetry_space_group_name_H-M "P 32 2 1"
_symmetry_group_IT_number 154
_symmetry_cell_setting 'hexagonal'
loop_
_space_group_symop_operation_xyz
x,y,z
-y,x-y,2/3+z
-x+y,-x,1/3+z
x-y,-y,1/3-z
-x,-x+y,2/3-z
y,x,-z
loop_
_atom_site_type_symbol
_atom_site_label
_atom_site_fract_x
_atom_site_fract_y
_atom_site_fract_z
Si Si1 0.489947 0.948217 0.300421
Si Si2 0.811275 0.421771 0.052707
Si Si3 0.580035 0.841005 0.697312
Si Si4 0.273072 0.097037 0.522496
Si Si5 0.655830 0.657854 0.950149
Si Si6 0.472248 0.101161 0.880693
Si Si7 0.138143 0.536322 0.797206
O O1 0.508631 0.784092 0.286820
O O2 0.313653 0.846428 0.328909
O O3 0.605465 0.084555 0.339555
O O4 0.495835 0.050209 0.253937
O O5 0.682206 0.493272 0.061102
O O6 0.939051 0.470619 0.095571
O O7 0.609620 0.779277 0.746940
O O8 0.714899 0.000000 0.666667
O O9 0.425858 0.879186 0.709444
O O10 0.126713 0.126713 0.500000
O O11 0.447602 0.279718 0.519505
O O12 0.257698 0.052493 0.576777
O O13 0.304822 0.958845 0.496151
O O14 0.734665 0.734665 0.000000
O O15 0.671191 0.235976 0.870958
O O16 0.000000 0.399020 0.833334
#
# Coordination Sequence:
#
# PCOD9576526 Si02
#       7
#     6   6   6   6   6   6   6
#     4  11  21  40  66 104 133 177 242 289 347 430
#     4  11  22  37  68  99 137 176 232 292 349 426
#     4  10  20  40  70 100 136 182 229 289 352 426
#     4  11  25  45  71  98 143 186 233 296 361 436
#     4  11  21  39  71  99 132 187 233 274 362 426
#     4  11  25  43  66 105 137 186 234 300 355 438
#     4  11  24  42  68  96 133 188 240 290 354 442
#
# _framework density 20.824788000000002
#
# number of rings (size 3 to 8) (size 9 to 14) (size 15 to 20)
#    0.000    1.143    4.286    4.286    4.000    0.000 
#    0.000    5.714    0.000    0.000    0.000    0.000 
#    0.000    0.000    0.000    0.000    0.000    0.000 
#
# Total GULP energy -234260.385864 kJ/mol
# GULP energy per Si atom -5577.628235 kJ/mol
# Density = 2.077739 g / cm^3
# Si number density = 20.824788 Si / 1000 Ang^3
#
#
#
# Elastic Constant Matrix: (Units=GPa)
#
#
# Indices 1 2 3 4 5 6 
#
# 1 90.7102 35.5623 38.7002 7.1271 0.0004 0.0000
# 2 35.5623 90.7102 38.7002 -7.1271 -0.0004 0.0000
# 3 38.7002 38.7002 115.9252 0.0000 0.0000 0.0000
# 4 7.1271 -7.1271 0.0000 21.7866 0.0000 -0.0004
# 5 0.0004 -0.0004 0.0000 0.0000 21.7866 7.1271
# 6 0.0000 0.0000 0.0000 -0.0004 7.1271 27.5739
#
#
#
# Elastic Compliance Matrix: (Units=1/GPa)
#
#
# Indices 1 2 3 4 5 6 
#
# 1 0.014882 -0.004926 -0.003324 -0.006480 0.000000 0.000000
# 2 -0.004926 0.014882 -0.003324 0.006480 0.000000 0.000000
# 3 -0.003324 -0.003324 0.010846 0.000000 0.000000 0.000000
# 4 -0.006480 0.006480 0.000000 0.050139 0.000000 0.000001
# 5 0.000000 0.000000 0.000000 0.000000 0.050139 -0.012960
# 6 0.000000 0.000000 0.000000 0.000001 -0.012960 0.039616
#
#
# Mechanical properties :
#
#
# Convention : Reuss Voigt Hill
#
# Bulk Modulus (GPa) = 57.26261 58.14123 57.70192
# Shear Modulus (GPa) = 23.86945 26.52162 25.19553
#
# Velocity S-wave (km/s) = 3.38924 3.57257 3.48211
# Velocity P-wave (km/s) = 6.54774 6.70802 6.62836
#
# Compressibility (1/GPa) = 0.01746340
#
# Stress axis : x y z
#
# Youngs Moduli (GPa) = 67.19352 67.19352 92.20331
#
# Poissons Ratio (x) = 0.33096 0.30648
# Poissons Ratio (y) = 0.33096 0.30648
# Poissons Ratio (z) = 0.22335 0.22335
#
# Static dielectric constant tensor:
#      x y z
#    x 1.787700 0.000000 0.000000 
#    y 0.000000 1.787700 0.000000 
#    z 0.000000 0.000000 1.780700 
# 
# From -- ./inp_files/3768.got.cif
#   From: 2010.05.17/outbox.cif.g08.bks.cpg/sg154_2_cif.got.tgz:3768.got - 2010.05.20 10:41:43.
