data_PCOD9576321
_publ_section_title
;
Structure prediction by ZEFSAII (Michael W. Deem and Ramdas Pophale) SiO2 
 PCOD9576321
Probable space group: P 32 1 2
;
_chemical_formula_sum "Si O2"
_cell_formula_units_Z 42
_cell_length_a 12.228489
_cell_length_b 12.228489
_cell_length_c 16.020175
_cell_angle_alpha 90.000000
_cell_angle_beta 90.000000
_cell_angle_gamma 120.000000
_cell_volume 2074.643511
_symmetry_space_group_name_H-M "P 32 1 2"
_symmetry_group_IT_number 153
_symmetry_cell_setting 'hexagonal'
loop_
_space_group_symop_operation_xyz
x,y,z
-y,x-y,2/3+z
-x+y,-x,1/3+z
-y,-x,1/3-z
-x+y,y,2/3-z
x,x-y,-z
loop_
_atom_site_type_symbol
_atom_site_label
_atom_site_fract_x
_atom_site_fract_y
_atom_site_fract_z
Si Si1 0.082279 0.807966 0.525018
Si Si2 0.894795 0.132004 0.973394
Si Si3 0.940200 0.276431 0.212151
Si Si4 0.960349 0.920698 0.333334
Si Si5 0.058846 0.316038 0.664082
Si Si6 0.343764 0.918500 0.283715
Si Si7 0.485085 0.921533 0.563725
Si Si8 0.523383 0.761692 0.000000
O O1 0.045737 0.741665 0.435413
O O2 0.139319 0.753434 0.595145
O O3 0.959603 0.808775 0.560226
O O4 0.201496 0.948140 0.513264
O O5 0.963041 0.281162 0.956533
O O6 0.981332 0.087868 0.025379
O O7 0.769400 0.087058 0.026491
O O8 0.812026 0.187975 0.166667
O O9 0.988118 0.421178 0.201877
O O10 0.823181 0.820720 0.372688
O O11 0.209489 0.398910 0.680864
O O12 0.007278 0.397230 0.708052
O O13 0.465706 0.931411 0.333334
O O14 0.357600 0.887499 0.188048
O O15 0.368297 0.811856 0.616202
#
# Coordination Sequence:
#
# PCOD9576321 Si02
#       8
#     6   6   6   3   6   6   6   3
#     4  11  20  39  66 107 133 165 228 285 362 407
#     4  11  20  39  70 103 136 168 227 299 358 412
#     4  11  20  40  72 101 130 171 230 292 344 415
#     4  10  21  42  64 104 138 173 222 286 370 406
#     4  11  26  39  64  98 140 188 216 286 346 424
#     4  11  24  44  65  98 134 185 232 284 346 421
#     4  11  24  44  63  94 142 175 231 276 342 423
#     4  10  21  44  68  96 128 179 226 290 324 410
#
# _framework density 20.244443
#
# number of rings (size 3 to 8) (size 9 to 14) (size 15 to 20)
#    0.000    1.143    4.286    4.714    3.000    0.571 
#    5.143    0.000    4.714    0.000    0.000    0.000 
#    0.000    0.000    0.000    0.000    0.000    0.000 
#
# Total GULP energy -233872.865825 kJ/mol
# GULP energy per Si atom -5568.401567 kJ/mol
# Density = 2.019837 g / cm^3
# Si number density = 20.244443 Si / 1000 Ang^3
#
#
#
# Elastic Constant Matrix: (Units=GPa)
#
#
# Indices 1 2 3 4 5 6 
#
# 1 102.3133 39.4155 33.5133 -0.0009 0.4386 0.0000
# 2 39.4155 102.3133 33.5133 0.0009 -0.4386 0.0000
# 3 33.5133 33.5133 119.4168 0.0000 0.0000 0.0000
# 4 -0.0009 0.0009 0.0000 39.2791 0.0000 -0.4386
# 5 0.4386 -0.4386 0.0000 0.0000 39.2791 -0.0009
# 6 0.0000 0.0000 0.0000 -0.4386 -0.0009 31.4489
#
#
#
# Elastic Compliance Matrix: (Units=1/GPa)
#
#
# Indices 1 2 3 4 5 6 
#
# 1 0.012018 -0.003883 -0.002283 0.000000 -0.000178 0.000000
# 2 -0.003883 0.012018 -0.002283 0.000000 0.000178 0.000000
# 3 -0.002283 -0.002283 0.009656 0.000000 0.000000 0.000000
# 4 0.000000 0.000000 0.000000 0.025463 0.000000 0.000355
# 5 -0.000178 0.000178 0.000000 0.000000 0.025463 0.000001
# 6 0.000000 0.000000 0.000000 0.000355 0.000001 0.031803
#
#
# Mechanical properties :
#
#
# Convention : Reuss Voigt Hill
#
# Bulk Modulus (GPa) = 59.54552 59.65863 59.60208
# Shear Modulus (GPa) = 35.99274 36.50816 36.25045
#
# Velocity S-wave (km/s) = 4.22110 4.25121 4.23618
# Velocity P-wave (km/s) = 7.29616 7.32326 7.30973
#
# Compressibility (1/GPa) = 0.01679387
#
# Stress axis : x y z
#
# Youngs Moduli (GPa) = 83.20579 83.20579 103.56763
#
# Poissons Ratio (x) = 0.32308 0.23646
# Poissons Ratio (y) = 0.32308 0.23646
# Poissons Ratio (z) = 0.18997 0.18997
#
# Static dielectric constant tensor:
#      x y z
#    x 1.711810 0.000000 0.000000 
#    y 0.000000 1.711810 0.000000 
#    z 0.000000 0.000000 1.854410 
# 
# From -- ./inp_files/3596.got.cif
#   From: 2010.05.17/outbox.cif.g08.bks.cpg/sg153_2_cif.got.tgz:3596.got - 2010.05.20 10:38:56.
