data_PCOD9576215
_publ_section_title
;
Structure prediction by ZEFSAII (Michael W. Deem and Ramdas Pophale) SiO2 
 PCOD9576215
Probable space group: P 31 2 1
;
_chemical_formula_sum "Si O2"
_cell_formula_units_Z 42
_cell_length_a 9.000000
_cell_length_b 9.000000
_cell_length_c 30.000000
_cell_angle_alpha 90.000000
_cell_angle_beta 90.000000
_cell_angle_gamma 120.000000
_cell_volume 2104.441731
_symmetry_space_group_name_H-M "P 31 2 1"
_symmetry_group_IT_number 152
_symmetry_cell_setting 'hexagonal'
loop_
_space_group_symop_operation_xyz
x,y,z
-y,x-y,1/3+z
-x+y,-x,2/3+z
x-y,-y,2/3-z
-x,-x+y,1/3-z
y,x,-z
loop_
_atom_site_type_symbol
_atom_site_label
_atom_site_fract_x
_atom_site_fract_y
_atom_site_fract_z
Si Si1 0.047652 0.148444 0.405210
Si Si2 0.806357 0.806357 0.000000
Si Si3 0.678862 0.484861 0.940231
Si Si4 0.079975 0.079975 0.500000
Si Si5 0.872387 0.352581 0.983161
Si Si6 0.947182 0.673730 0.863062
Si Si7 0.681469 0.084677 0.427879
Si Si8 0.471183 0.809715 0.602220
O O1 0.112639 0.043477 0.375832
O O2 0.130051 0.194344 0.455034
O O3 0.091038 0.306122 0.373209
O O4 0.844179 0.062287 0.414978
O O5 0.765313 0.625216 0.979561
O O6 0.704909 0.333547 0.958312
O O7 0.486069 0.436045 0.931576
O O8 0.783995 0.557277 0.894356
O O9 0.901214 0.053146 0.518959
O O10 0.032693 0.534802 0.968168
O O11 0.825686 0.315825 0.034942
O O12 0.107444 0.702441 0.893108
O O13 0.938729 0.592976 0.814603
O O14 0.725848 0.275623 0.414190
#
# Coordination Sequence:
#
# PCOD9576215 Si02
#       8
#     6   3   6   3   6   6   6   6
#     4  10  22  39  62  89 120 164 202 252 308 369
#     4  12  22  38  64  90 118 164 204 250 304 368
#     4  11  22  39  62  92 123 162 206 256 304 377
#     4  10  20  40  62  92 118 166 206 254 300 390
#     4  10  22  38  60  87 124 158 199 251 310 352
#     4  10  20  39  63  86 125 162 206 250 315 360
#     4  10  22  38  64  91 123 160 210 254 311 365
#     4  10  21  40  61  89 123 162 199 257 299 370
#
# _framework density 19.957787
#
# number of rings (size 3 to 8) (size 9 to 14) (size 15 to 20)
#    0.000    1.714    1.429    3.429    0.000    4.000 
#    2.571    0.000    0.000    0.857    0.000    0.000 
#    0.000    0.000    0.000    0.000    0.000    0.000 
#
# Total GULP energy -234341.745825 kJ/mol
# GULP energy per Si atom -5579.565377 kJ/mol
# Density = 1.991236 g / cm^3
# Si number density = 19.957787 Si / 1000 Ang^3
#
#
#
# Elastic Constant Matrix: (Units=GPa)
#
#
# Indices 1 2 3 4 5 6 
#
# 1 20.5435 12.9755 18.1373 1.4164 0.0000 0.0000
# 2 12.9755 20.5435 18.1373 -1.4164 0.0000 0.0000
# 3 18.1373 18.1373 124.7223 0.0000 0.0000 0.0000
# 4 1.4164 -1.4164 0.0000 36.2582 0.0000 0.0000
# 5 0.0000 0.0000 0.0000 0.0000 36.2582 1.4164
# 6 0.0000 0.0000 0.0000 0.0000 1.4164 3.7840
#
#
#
# Elastic Compliance Matrix: (Units=1/GPa)
#
#
# Indices 1 2 3 4 5 6 
#
# 1 0.084752 -0.049346 -0.005149 -0.005238 0.000000 0.000000
# 2 -0.049346 0.084752 -0.005149 0.005238 0.000000 0.000000
# 3 -0.005149 -0.005149 0.009515 0.000000 0.000000 0.000000
# 4 -0.005238 0.005238 0.000000 0.027989 0.000000 0.000000
# 5 0.000000 0.000000 0.000000 0.000000 0.027989 -0.010477
# 6 0.000000 0.000000 0.000000 0.000000 -0.010477 0.268195
#
#
# Mechanical properties :
#
#
# Convention : Reuss Voigt Hill
#
# Bulk Modulus (GPa) = 16.74146 29.36770 23.05458
# Shear Modulus (GPa) = 7.78344 23.03070 15.40707
#
# Velocity S-wave (km/s) = 1.97697 3.40070 2.78147
# Velocity P-wave (km/s) = 3.69024 5.49241 4.67891
#
# Compressibility (1/GPa) = 0.05973196
#
# Stress axis : x y z
#
# Youngs Moduli (GPa) = 11.79917 11.79917 105.09401
#
# Poissons Ratio (x) = 0.58224 0.54110
# Poissons Ratio (y) = 0.58224 0.54110
# Poissons Ratio (z) = 0.06075 0.06075
#
# Static dielectric constant tensor:
#      x y z
#    x 1.731880 0.000000 0.000000 
#    y 0.000000 1.731880 0.000000 
#    z 0.000000 0.000000 1.702300 
# 
# From -- ./inp_files/3757.got.cif
#   From: 2010.05.17/outbox.ucp.g08.bks.cvg/sg152_2_cif.got.tgz:3757.got - 2010.06.11 15:13:12.
