data_PCOD9576998
_publ_section_title
;
Structure prediction by ZEFSAII (Michael W. Deem and Ramdas Pophale) SiO2 
 PCOD9576998
Probable space group: R 3 2
;
_chemical_formula_sum "Si O2"
_cell_formula_units_Z 69
_cell_length_a 17.661161
_cell_length_b 17.661161
_cell_length_c 9.950864
_cell_angle_alpha 90.000000
_cell_angle_beta 90.000000
_cell_angle_gamma 120.000000
_cell_volume 2688.004068
_symmetry_space_group_name_H-M "R 3 2"
_symmetry_group_IT_number 155
_symmetry_cell_setting 'hexagonal'
loop_
_space_group_symop_operation_xyz
x,y,z
-y,x-y,z
-x+y,-x,z
x-y,-y,-z
-x,-x+y,-z
y,x,-z
2/3+x,1/3+y,1/3+z
2/3-y,1/3+x-y,1/3+z
2/3-x+y,1/3-x,1/3+z
2/3+x-y,1/3-y,1/3-z
2/3-x,1/3-x+y,1/3-z
2/3+y,1/3+x,1/3-z
1/3+x,2/3+y,2/3+z
1/3-y,2/3+x-y,2/3+z
1/3-x+y,2/3-x,2/3+z
1/3+x-y,2/3-y,2/3-z
1/3-x,2/3-x+y,2/3-z
1/3+y,2/3+x,2/3-z
loop_
_atom_site_type_symbol
_atom_site_label
_atom_site_fract_x
_atom_site_fract_y
_atom_site_fract_z
Si Si1 0.158189 0.491523 0.666667
Si Si2 0.099977 0.850108 0.479399
Si Si3 0.000000 0.000000 0.662199
Si Si4 0.395461 0.505848 0.847939
Si Si5 0.588867 0.455660 0.590940
O O1 0.155936 0.574646 0.735203
O O2 0.103643 0.477112 0.531470
O O3 0.113727 0.877518 0.324213
O O4 0.107489 0.765296 0.514283
O O5 0.156182 0.915892 0.596736
O O6 0.000000 0.825711 0.500000
O O7 0.904986 0.931633 0.718814
O O8 0.000000 0.000000 0.500000
O O9 0.292665 0.454551 0.877810
#
# Coordination Sequence:
#
# PCOD9576998 Si02
#       5
#     9  18   6  18  18
#     4  12  24  36  56  96 134 166 208 256 332 378
#     4   9  21  44  67  97 122 169 223 270 330 388
#     4  12  21  34  65 100 129 166 215 256 333 388
#     4  10  21  41  64  90 131 167 214 271 323 384
#     4  11  23  38  62  96 134 170 208 270 325 386
#
# _framework density 25.669605000000001
#
# number of rings (size 3 to 8) (size 9 to 14) (size 15 to 20)
#    0.000    1.565    2.609    3.130    0.000    1.043 
#   18.783    0.000    0.000   12.522    0.000    0.000 
#    0.000    0.000    0.000    0.000    0.000    0.000 
#
# Total GULP energy -128193.475100 kJ/mol
# GULP energy per Si atom -5573.629352 kJ/mol
# Density = 2.561118 g / cm^3
# Si number density = 25.669605 Si / 1000 Ang^3
#
#
#
# Elastic Constant Matrix: (Units=GPa)
#
#
# Indices 1 2 3 4 5 6 
#
# 1 60.4830 9.3217 12.5896 9.1806 0.0001 0.0000
# 2 9.3217 60.4830 12.5896 -9.1806 -0.0001 0.0000
# 3 12.5896 12.5896 203.9946 0.0000 0.0000 0.0000
# 4 9.1806 -9.1806 0.0000 19.6947 0.0000 -0.0001
# 5 0.0001 -0.0001 0.0000 0.0000 19.6947 9.1806
# 6 0.0000 0.0000 0.0000 -0.0001 9.1806 25.5807
#
#
#
# Elastic Compliance Matrix: (Units=1/GPa)
#
#
# Indices 1 2 3 4 5 6 
#
# 1 0.019062 -0.004410 -0.000904 -0.010942 0.000000 0.000000
# 2 -0.004410 0.019062 -0.000904 0.010942 0.000000 0.000000
# 3 -0.000904 -0.000904 0.005014 0.000000 0.000000 0.000000
# 4 -0.010942 0.010942 0.000000 0.060976 0.000000 0.000000
# 5 0.000000 0.000000 0.000000 0.000000 0.060976 -0.021883
# 6 0.000000 0.000000 0.000000 0.000000 -0.021883 0.046946
#
#
# Mechanical properties :
#
#
# Convention : Reuss Voigt Hill
#
# Bulk Modulus (GPa) = 32.57282 43.77361 38.17321
# Shear Modulus (GPa) = 21.30314 32.35800 26.83057
#
# Velocity S-wave (km/s) = 2.88392 3.55428 3.23650
# Velocity P-wave (km/s) = 4.87915 5.82526 5.37307
#
# Compressibility (1/GPa) = 0.03070044
#
# Stress axis : x y z
#
# Youngs Moduli (GPa) = 52.45940 52.45940 199.45341
#
# Poissons Ratio (x) = 0.23137 0.18036
# Poissons Ratio (y) = 0.23137 0.18036
# Poissons Ratio (z) = 0.04744 0.04744
#
# Static dielectric constant tensor:
#      x y z
#    x 2.071270 0.000000 0.000000 
#    y 0.000000 2.071270 0.000000 
#    z 0.000000 0.000000 2.093680 
# 
# From -- ./inp_files/2185.got.cif
#   From: 2010.05.17/outbox.cif.g08.bks.cpg/sg155_2_cif.got.tgz:2185.got - 2010.05.20 10:44:35.
