data_PCOD9576395
_publ_section_title
;
Structure prediction by ZEFSAII (Michael W. Deem and Ramdas Pophale) SiO2 
 PCOD9576395
Probable space group: P 32 2 1
;
_chemical_formula_sum "Si O2"
_cell_formula_units_Z 45
_cell_length_a 11.619542
_cell_length_b 11.619542
_cell_length_c 17.090037
_cell_angle_alpha 90.000000
_cell_angle_beta 90.000000
_cell_angle_gamma 120.000000
_cell_volume 1998.258435
_symmetry_space_group_name_H-M "P 32 2 1"
_symmetry_group_IT_number 154
_symmetry_cell_setting 'hexagonal'
loop_
_space_group_symop_operation_xyz
x,y,z
-y,x-y,2/3+z
-x+y,-x,1/3+z
x-y,-y,1/3-z
-x,-x+y,2/3-z
y,x,-z
loop_
_atom_site_type_symbol
_atom_site_label
_atom_site_fract_x
_atom_site_fract_y
_atom_site_fract_z
Si Si1 0.350930 0.070905 0.056751
Si Si2 0.187108 0.304273 0.690190
Si Si3 0.141658 0.751410 0.725577
Si Si4 0.073382 0.492345 0.445267
Si Si5 0.323738 0.479602 0.831121
Si Si6 0.206235 0.566281 0.614243
Si Si7 0.554049 0.258975 0.958484
Si Si8 0.521164 0.000000 0.166667
O O1 0.395898 0.199125 0.111784
O O2 0.436883 0.010914 0.095541
O O3 0.194071 0.965385 0.054495
O O4 0.416535 0.124550 0.971797
O O5 0.253607 0.241150 0.635146
O O6 0.288838 0.370363 0.762445
O O7 0.179766 0.425142 0.647626
O O8 0.277076 0.888727 0.741446
O O9 0.164041 0.659162 0.663074
O O10 0.112353 0.666043 0.805720
O O11 0.140927 0.537192 0.530277
O O12 0.150940 0.622687 0.392442
O O13 0.926185 0.463796 0.457311
O O14 0.351548 0.605841 0.776307
O O15 0.364994 0.651114 0.626990
#
# Coordination Sequence:
#
# PCOD9576395 Si02
#       8
#     6   6   6   6   6   6   6   3
#     4  12  21  36  60  93 129 174 226 274 337 423
#     4  11  20  35  59  91 130 171 218 275 338 404
#     4  11  21  33  56  93 131 175 218 273 350 411
#     4  11  22  37  57  89 130 171 215 270 336 404
#     4  11  21  38  60  91 127 169 221 271 336 400
#     4  10  18  34  55  84 134 171 210 264 334 409
#     4  10  22  35  57  91 125 168 209 278 337 396
#     4  12  18  34  58  94 134 170 214 268 346 418
#
# _framework density 22.519608000000002
#
# number of rings (size 3 to 8) (size 9 to 14) (size 15 to 20)
#    0.000    1.067    4.000    6.400    0.000    0.533 
#    0.000    0.000    0.000    0.000   10.400    0.000 
#    0.000    0.000    0.000    0.000    0.000    0.000 
#
# Total GULP energy -250768.348872 kJ/mol
# GULP energy per Si atom -5572.629975 kJ/mol
# Density = 2.246835 g / cm^3
# Si number density = 22.519608 Si / 1000 Ang^3
#
#
#
# Elastic Constant Matrix: (Units=GPa)
#
#
# Indices 1 2 3 4 5 6 
#
# 1 97.8430 33.8594 25.9948 1.3935 0.0000 0.0000
# 2 33.8594 97.8430 25.9948 -1.3935 0.0000 0.0000
# 3 25.9948 25.9948 73.9246 0.0000 0.0000 0.0000
# 4 1.3935 -1.3935 0.0000 30.1575 0.0000 0.0000
# 5 0.0000 0.0000 0.0000 0.0000 30.1575 1.3935
# 6 0.0000 0.0000 0.0000 0.0000 1.3935 31.9918
#
#
#
# Elastic Compliance Matrix: (Units=1/GPa)
#
#
# Indices 1 2 3 4 5 6 
#
# 1 0.012239 -0.003422 -0.003100 -0.000724 0.000000 0.000000
# 2 -0.003422 0.012239 -0.003100 0.000724 0.000000 0.000000
# 3 -0.003100 -0.003100 0.015708 0.000000 0.000000 0.000000
# 4 -0.000724 0.000724 0.000000 0.033226 0.000000 0.000000
# 5 0.000000 0.000000 0.000000 0.000000 0.033226 -0.001447
# 6 0.000000 0.000000 0.000000 0.000000 -0.001447 0.031321
#
#
# Mechanical properties :
#
#
# Convention : Reuss Voigt Hill
#
# Bulk Modulus (GPa) = 47.75571 49.03427 48.39499
# Shear Modulus (GPa) = 30.45379 30.71214 30.58296
#
# Velocity S-wave (km/s) = 3.68138 3.69697 3.68918
# Velocity P-wave (km/s) = 6.27076 6.32809 6.29949
#
# Compressibility (1/GPa) = 0.02093990
#
# Stress axis : x y z
#
# Youngs Moduli (GPa) = 81.70852 81.70852 63.66320
#
# Poissons Ratio (x) = 0.27960 0.19738
# Poissons Ratio (y) = 0.27960 0.19738
# Poissons Ratio (z) = 0.25332 0.25332
#
# Static dielectric constant tensor:
#      x y z
#    x 1.887700 0.000000 0.000000 
#    y 0.000000 1.887700 0.000000 
#    z 0.000000 0.000000 1.935610 
# 
# From -- ./inp_files/2518.got.cif
#   From: 2010.05.17/outbox.cif.g08.bks.cpg/sg154_2_cif.got.tgz:2518.got - 2010.05.20 10:41:43.
