data_PCOD9576710
_publ_section_title
;
Structure prediction by ZEFSAII (Michael W. Deem and Ramdas Pophale) SiO2 
 PCOD9576710
Probable space group: P 32 2 1
;
_chemical_formula_sum "Si O2"
_cell_formula_units_Z 42
_cell_length_a 9.121816
_cell_length_b 9.121816
_cell_length_c 23.845724
_cell_angle_alpha 90.000000
_cell_angle_beta 90.000000
_cell_angle_gamma 120.000000
_cell_volume 1718.318872
_symmetry_space_group_name_H-M "P 32 2 1"
_symmetry_group_IT_number 154
_symmetry_cell_setting 'hexagonal'
loop_
_space_group_symop_operation_xyz
x,y,z
-y,x-y,2/3+z
-x+y,-x,1/3+z
x-y,-y,1/3-z
-x,-x+y,2/3-z
y,x,-z
loop_
_atom_site_type_symbol
_atom_site_label
_atom_site_fract_x
_atom_site_fract_y
_atom_site_fract_z
Si Si1 0.666712 0.381360 0.392355
Si Si2 0.963614 0.047185 0.252765
Si Si3 0.467869 0.406957 0.792456
Si Si4 0.087997 0.288151 0.145994
Si Si5 0.729450 0.494934 0.613685
Si Si6 0.657828 0.038686 0.230825
Si Si7 0.172557 0.912586 0.302710
O O1 0.685380 0.235377 0.422851
O O2 0.645495 0.354037 0.325361
O O3 0.486394 0.348847 0.412931
O O4 0.789962 0.580766 0.403828
O O5 0.821962 0.093373 0.269363
O O6 0.045001 0.168223 0.199975
O O7 0.111280 0.046212 0.286558
O O8 0.858264 0.846853 0.237230
O O9 0.601276 0.598451 0.810437
O O10 0.399474 0.289361 0.847637
O O11 0.334502 0.429621 0.753651
O O12 0.578544 0.408988 0.568315
O O13 0.693060 0.630689 0.647636
O O14 0.683922 0.000000 0.166667
O O15 0.000000 0.773627 0.333334
#
# Coordination Sequence:
#
# PCOD9576710 Si02
#       7
#     6   6   6   6   6   6   6
#     4  11  25  47  68 101 142 191 242 299 378 447
#     4  11  22  47  65 101 138 188 229 301 368 451
#     4  12  25  45  68 109 143 184 244 307 370 450
#     4  11  26  41  70  99 146 181 235 303 379 433
#     4  11  26  45  75  99 146 196 245 301 380 460
#     4  11  22  43  76 102 139 196 245 298 375 462
#     4  11  25  45  71  98 136 191 245 301 366 459
#
# _framework density 24.442495000000001
#
# number of rings (size 3 to 8) (size 9 to 14) (size 15 to 20)
#    0.000    0.857    4.286    2.571    8.000    1.143 
#    2.571    0.714    0.000    0.000    0.000    0.000 
#    0.000    0.000    0.000    0.000    0.000    0.000 
#
# Total GULP energy -233945.401052 kJ/mol
# GULP energy per Si atom -5570.128596 kJ/mol
# Density = 2.438686 g / cm^3
# Si number density = 24.442495 Si / 1000 Ang^3
#
#
#
# Elastic Constant Matrix: (Units=GPa)
#
#
# Indices 1 2 3 4 5 6 
#
# 1 96.2861 17.2720 8.6850 4.9383 -0.0001 0.0000
# 2 17.2720 96.2861 8.6850 -4.9383 0.0001 0.0000
# 3 8.6850 8.6850 27.9976 0.0000 0.0000 0.0000
# 4 4.9383 -4.9383 0.0000 30.6274 0.0000 0.0001
# 5 -0.0001 0.0001 0.0000 0.0000 30.6274 4.9383
# 6 0.0000 0.0000 0.0000 0.0001 4.9383 39.5071
#
#
#
# Elastic Compliance Matrix: (Units=1/GPa)
#
#
# Indices 1 2 3 4 5 6 
#
# 1 0.011081 -0.001836 -0.002868 -0.002083 0.000000 0.000000
# 2 -0.001836 0.011081 -0.002868 0.002083 0.000000 0.000000
# 3 -0.002868 -0.002868 0.037497 0.000000 0.000000 0.000000
# 4 -0.002083 0.002083 0.000000 0.033322 0.000000 0.000000
# 5 0.000000 0.000000 0.000000 0.000000 0.033322 -0.004165
# 6 0.000000 0.000000 0.000000 0.000000 -0.004165 0.025833
#
#
# Mechanical properties :
#
#
# Convention : Reuss Voigt Hill
#
# Bulk Modulus (GPa) = 22.46433 32.20597 27.33515
# Shear Modulus (GPa) = 27.45513 32.54754 30.00134
#
# Velocity S-wave (km/s) = 3.35513 3.65306 3.50726
# Velocity P-wave (km/s) = 4.92137 5.56758 5.25442
#
# Compressibility (1/GPa) = 0.04451501
#
# Stress axis : x y z
#
# Youngs Moduli (GPa) = 90.24863 90.24863 26.66911
#
# Poissons Ratio (x) = 0.16568 0.07648
# Poissons Ratio (y) = 0.16568 0.07648
# Poissons Ratio (z) = 0.25881 0.25881
#
# Static dielectric constant tensor:
#      x y z
#    x 1.968620 0.000000 0.000000 
#    y 0.000000 1.968620 0.000000 
#    z 0.000000 0.000000 2.138000 
# 
# From -- ./inp_files/3781.got.cif
#   From: 2010.05.17/outbox.cif.g08.bks.cpg/sg154_2_cif.got.tgz:3781.got - 2010.05.20 10:41:43.
