data_PCOD9576717
_publ_section_title
;
Structure prediction by ZEFSAII (Michael W. Deem and Ramdas Pophale) SiO2 
 PCOD9576717
Probable space group: P 32 2 1
;
_chemical_formula_sum "Si O2"
_cell_formula_units_Z 42
_cell_length_a 8.793512
_cell_length_b 8.793512
_cell_length_c 28.121942
_cell_angle_alpha 90.000000
_cell_angle_beta 90.000000
_cell_angle_gamma 120.000000
_cell_volume 1883.218280
_symmetry_space_group_name_H-M "P 32 2 1"
_symmetry_group_IT_number 154
_symmetry_cell_setting 'hexagonal'
loop_
_space_group_symop_operation_xyz
x,y,z
-y,x-y,2/3+z
-x+y,-x,1/3+z
x-y,-y,1/3-z
-x,-x+y,2/3-z
y,x,-z
loop_
_atom_site_type_symbol
_atom_site_label
_atom_site_fract_x
_atom_site_fract_y
_atom_site_fract_z
Si Si1 0.358076 0.108711 0.802855
Si Si2 0.734045 0.757609 0.591186
Si Si3 0.006976 0.000000 0.666667
Si Si4 0.503778 0.356267 0.411302
Si Si5 0.044262 0.000000 0.166667
Si Si6 0.477711 0.989125 0.888339
Si Si7 0.178106 0.366311 0.392654
Si Si8 0.681060 0.253397 0.968155
O O1 0.173754 0.031876 0.830220
O O2 0.405415 0.301427 0.785247
O O3 0.486857 0.097687 0.841342
O O4 0.323553 0.982810 0.758082
O O5 0.531278 0.689377 0.579063
O O6 0.847881 0.849116 0.545487
O O7 0.733286 0.583434 0.608881
O O8 0.839899 0.890957 0.633299
O O9 0.186615 0.116089 0.636706
O O10 0.470829 0.181492 0.436564
O O11 0.341513 0.385207 0.423282
O O12 0.514057 0.335529 0.354189
O O13 0.525826 0.115267 0.934204
O O14 0.260856 0.549285 0.363664
#
# Coordination Sequence:
#
# PCOD9576717 Si02
#       8
#     6   6   3   6   3   6   6   6
#     4  12  27  45  70 102 140 197 231 300 362 435
#     4  11  25  43  74 102 142 187 242 297 361 437
#     4  12  22  46  72 106 142 192 246 312 354 436
#     4  11  26  44  74 103 141 188 241 297 369 434
#     4  12  24  44  68  98 138 188 242 282 360 438
#     4  12  26  47  69 105 153 179 244 302 369 438
#     4  11  24  44  75  99 139 192 245 290 368 433
#     4  11  23  46  71 108 137 189 237 302 364 442
#
# _framework density 22.302250000000001
#
# number of rings (size 3 to 8) (size 9 to 14) (size 15 to 20)
#    0.000    0.571    4.286    3.429    4.000    2.286 
#    2.571    0.000    0.000    0.000    0.000    0.000 
#    0.000    0.000    0.000    0.000    0.000    0.000 
#
# Total GULP energy -234732.011842 kJ/mol
# GULP energy per Si atom -5588.857425 kJ/mol
# Density = 2.225149 g / cm^3
# Si number density = 22.302250 Si / 1000 Ang^3
#
#
#
# Elastic Constant Matrix: (Units=GPa)
#
#
# Indices 1 2 3 4 5 6 
#
# 1 2.1958 58.5121 -12.3038 32.1001 -0.0041 0.0000
# 2 58.5121 2.1958 -12.3038 -32.1001 0.0041 0.0000
# 3 -12.3038 -12.3038 37.8506 0.0000 0.0000 0.0000
# 4 32.1001 -32.1001 0.0000 6.1281 0.0000 0.0041
# 5 -0.0041 0.0041 0.0000 0.0000 6.1281 32.1001
# 6 0.0000 0.0000 0.0000 0.0041 32.1001 -28.1582
#
#
#
# Elastic Compliance Matrix: (Units=1/GPa)
#
#
# Indices 1 2 3 4 5 6 
#
# 1 0.008213 0.010760 0.006167 0.013342 -0.000002 0.000000
# 2 0.010760 0.008213 0.006167 -0.013342 0.000002 0.000000
# 3 0.006167 0.006167 0.030429 0.000000 0.000000 0.000000
# 4 0.013342 -0.013342 0.000000 0.023407 0.000000 0.000003
# 5 -0.000002 0.000002 0.000000 0.000000 0.023407 0.026684
# 6 0.000000 0.000000 0.000000 0.000003 0.026684 -0.005094
#
#
# Mechanical properties :
#
#
# Convention : Reuss Voigt Hill
#
# Bulk Modulus (GPa) = 10.74783 12.22789 11.48786
# Shear Modulus (GPa) = 68.11924 -2.62456 32.74734
#
# Velocity S-wave (km/s) = 5.53263 -1.08599 3.83605
# Velocity P-wave (km/s) = 6.75595 1.98046 4.97821
#
# Compressibility (1/GPa) = 0.09304203
#
# Stress axis : x y z
#
# Youngs Moduli (GPa) = 121.76491 121.76490 32.86326
#
# Poissons Ratio (x) = -1.31014 -0.20267
# Poissons Ratio (y) = -1.31014 -0.20267
# Poissons Ratio (z) = -0.75094 -0.75094
#
# Static dielectric constant tensor:
#      x y z
#    x 1.858170 0.000000 0.000000 
#    y 0.000000 1.858170 0.000000 
#    z 0.000000 0.000000 1.808310 
# 
# From -- ./inp_files/3827.got.cif
#   From: 2010.05.17/outbox.cif.g08.bks.cpg/sg154_2_cif.got.tgz:3827.got - 2010.05.20 10:41:43.
