data_PCOD9576177
_publ_section_title
;
Structure prediction by ZEFSAII (Michael W. Deem and Ramdas Pophale) SiO2 
 PCOD9576177
Probable space group: P 31 2 1
;
_chemical_formula_sum "Si O2"
_cell_formula_units_Z 36
_cell_length_a 16.044406
_cell_length_b 16.044406
_cell_length_c 8.471102
_cell_angle_alpha 90.000000
_cell_angle_beta 90.000000
_cell_angle_gamma 120.000000
_cell_volume 1888.503653
_symmetry_space_group_name_H-M "P 31 2 1"
_symmetry_group_IT_number 152
_symmetry_cell_setting 'hexagonal'
loop_
_space_group_symop_operation_xyz
x,y,z
-y,x-y,1/3+z
-x+y,-x,2/3+z
x-y,-y,2/3-z
-x,-x+y,1/3-z
y,x,-z
loop_
_atom_site_type_symbol
_atom_site_label
_atom_site_fract_x
_atom_site_fract_y
_atom_site_fract_z
Si Si1 0.450748 0.152909 0.791697
Si Si2 0.554715 0.501992 0.728504
Si Si3 0.811723 0.204429 0.800221
Si Si4 0.343030 0.553698 0.048536
Si Si5 0.000000 0.623434 0.166667
Si Si6 0.355726 0.000000 0.333334
Si Si7 0.581544 0.344191 0.303882
O O1 0.385336 0.144303 0.642161
O O2 0.466860 0.247484 0.881858
O O3 0.553390 0.178535 0.716592
O O4 0.443295 0.080851 0.929759
O O5 0.572335 0.430240 0.838613
O O6 0.451976 0.434159 0.643882
O O7 0.576084 0.585546 0.852525
O O8 0.743080 0.246228 0.743250
O O9 0.902693 0.251884 0.680371
O O10 0.729385 0.091998 0.805791
O O11 0.338167 0.651846 0.058535
O O12 0.348435 0.536953 0.863808
#
# Coordination Sequence:
#
# PCOD9576177 Si02
#       7
#     6   6   6   6   3   3   6
#     4  12  19  37  59  86 126 174 214 258 308 393
#     4  12  24  39  62  90 133 170 221 261 321 387
#     4  12  25  41  62  85 127 169 222 271 332 388
#     4  12  19  30  53  87 123 171 211 248 300 375
#     4  12  26  42  60  96 126 172 218 286 326 388
#     4  12  26  46  60  92 128 182 216 272 328 404
#     4  12  19  32  54  85 123 167 215 249 302 379
#
# _framework density 19.062711
#
# number of rings (size 3 to 8) (size 9 to 14) (size 15 to 20)
#    0.000    0.000   10.000    1.000    2.333    0.000 
#    0.000    0.000    0.000    0.000    0.000    2.333 
#    0.000    0.000    0.000    0.000    0.000    0.000 
#
# Total GULP energy -200738.158974 kJ/mol
# GULP energy per Si atom -5576.059971 kJ/mol
# Density = 1.901932 g / cm^3
# Si number density = 19.062711 Si / 1000 Ang^3
#
#
#
# Elastic Constant Matrix: (Units=GPa)
#
#
# Indices 1 2 3 4 5 6 
#
# 1 74.3675 16.2946 15.4576 -4.7620 0.0000 0.0000
# 2 16.2946 74.3675 15.4576 4.7620 0.0000 0.0000
# 3 15.4576 15.4576 108.9191 0.0000 0.0000 0.0000
# 4 -4.7620 4.7620 0.0000 29.2015 0.0000 0.0000
# 5 0.0000 0.0000 0.0000 0.0000 29.2015 -4.7620
# 6 0.0000 0.0000 0.0000 0.0000 -4.7620 29.0364
#
#
#
# Elastic Compliance Matrix: (Units=1/GPa)
#
#
# Indices 1 2 3 4 5 6 
#
# 1 0.014642 -0.003051 -0.001645 0.002885 0.000000 0.000000
# 2 -0.003051 0.014642 -0.001645 -0.002885 0.000000 0.000000
# 3 -0.001645 -0.001645 0.009648 0.000000 0.000000 0.000000
# 4 0.002885 -0.002885 0.000000 0.035186 0.000000 0.000000
# 5 0.000000 0.000000 0.000000 0.000000 0.035186 0.005770
# 6 0.000000 0.000000 0.000000 0.000000 0.005770 0.035386
#
#
# Mechanical properties :
#
#
# Convention : Reuss Voigt Hill
#
# Bulk Modulus (GPa) = 38.09528 39.11930 38.60729
# Shear Modulus (GPa) = 30.09852 31.51752 30.80802
#
# Velocity S-wave (km/s) = 3.97788 4.07056 4.02449
# Velocity P-wave (km/s) = 6.41292 6.53135 6.47241
#
# Compressibility (1/GPa) = 0.02624997
#
# Stress axis : x y z
#
# Youngs Moduli (GPa) = 68.29712 68.29712 103.64817
#
# Poissons Ratio (x) = 0.20838 0.17050
# Poissons Ratio (y) = 0.20838 0.17050
# Poissons Ratio (z) = 0.11235 0.11235
#
# Static dielectric constant tensor:
#      x y z
#    x 1.714710 0.000000 0.000000 
#    y 0.000000 1.714710 0.000000 
#    z 0.000000 0.000000 1.778260 
# 
# From -- ./inp_files/1254.got.cif
#   From: 2010.05.17/outbox.cif.g08.bks.cpg/sg152_1_cif.got.tgz:1254.got - 2010.05.20 10:36:06.
