data_PCOD9576940
_publ_section_title
;
Structure prediction by ZEFSAII (Michael W. Deem and Ramdas Pophale) SiO2 
 PCOD9576940
Probable space group: R 3 2
;
_chemical_formula_sum "Si O2"
_cell_formula_units_Z 108
_cell_length_a 17.256512
_cell_length_b 17.256512
_cell_length_c 20.283655
_cell_angle_alpha 90.000000
_cell_angle_beta 90.000000
_cell_angle_gamma 120.000000
_cell_volume 5230.977866
_symmetry_space_group_name_H-M "R 3 2"
_symmetry_group_IT_number 155
_symmetry_cell_setting 'hexagonal'
loop_
_space_group_symop_operation_xyz
x,y,z
-y,x-y,z
-x+y,-x,z
x-y,-y,-z
-x,-x+y,-z
y,x,-z
2/3+x,1/3+y,1/3+z
2/3-y,1/3+x-y,1/3+z
2/3-x+y,1/3-x,1/3+z
2/3+x-y,1/3-y,1/3-z
2/3-x,1/3-x+y,1/3-z
2/3+y,1/3+x,1/3-z
1/3+x,2/3+y,2/3+z
1/3-y,2/3+x-y,2/3+z
1/3-x+y,2/3-x,2/3+z
1/3+x-y,2/3-y,2/3-z
1/3-x,2/3-x+y,2/3-z
1/3+y,2/3+x,2/3-z
loop_
_atom_site_type_symbol
_atom_site_label
_atom_site_fract_x
_atom_site_fract_y
_atom_site_fract_z
Si Si1 0.116888 0.515391 0.107395
Si Si2 0.416710 0.171249 0.984537
Si Si3 0.317486 0.417939 0.295175
Si Si4 0.083283 0.670083 0.781813
Si Si5 0.480957 0.053867 0.432060
Si Si6 0.619756 0.770861 0.525723
O O1 0.178824 0.512157 0.166667
O O2 0.148058 0.491629 0.038955
O O3 0.115164 0.606489 0.094941
O O4 0.014903 0.443708 0.130378
O O5 0.449430 0.275521 0.999720
O O6 0.359006 0.147503 0.917501
O O7 0.350477 0.110492 0.041600
O O8 0.237659 0.333334 0.333334
O O9 0.374346 0.374109 0.267784
O O10 0.051069 0.717736 0.833334
O O11 0.175019 0.747255 0.751001
O O12 0.090010 0.590150 0.816178
O O13 0.450975 0.125642 0.446833
O O14 0.457950 0.000000 0.500000
#
# Coordination Sequence:
#
# PCOD9576940 Si02
#       6
#    18  18  18  18  18  18
#     4  10  22  38  63  97 129 165 213 275 336 396
#     4  10  22  39  60  93 125 168 212 269 327 390
#     4  11  21  39  66  91 129 175 222 260 327 403
#     4  10  20  39  63  87 127 174 220 266 323 403
#     4  11  22  38  60  90 128 167 221 271 323 398
#     4  10  21  36  62  90 128 160 216 268 335 393
#
# _framework density 20.646236999999999
#
# number of rings (size 3 to 8) (size 9 to 14) (size 15 to 20)
#    0.000    1.667    3.333    2.000    0.000    4.000 
#    2.000    0.000    3.667    0.000    4.333    0.000 
#    0.000    0.000    0.000    0.000    0.000    0.000 
#
# Total GULP energy -200636.722643 kJ/mol
# GULP energy per Si atom -5573.242296 kJ/mol
# Density = 2.059924 g / cm^3
# Si number density = 20.646237 Si / 1000 Ang^3
#
#
#
# Elastic Constant Matrix: (Units=GPa)
#
#
# Indices 1 2 3 4 5 6 
#
# 1 96.0509 45.1225 18.3175 3.6115 0.0000 0.0000
# 2 45.1225 96.0509 18.3175 -3.6115 0.0000 0.0000
# 3 18.3175 18.3175 55.2097 0.0000 0.0000 0.0000
# 4 3.6115 -3.6115 0.0000 27.6737 0.0000 0.0000
# 5 0.0000 0.0000 0.0000 0.0000 27.6737 3.6115
# 6 0.0000 0.0000 0.0000 0.0000 3.6115 25.4642
#
#
#
# Elastic Compliance Matrix: (Units=1/GPa)
#
#
# Indices 1 2 3 4 5 6 
#
# 1 0.013878 -0.006127 -0.002572 -0.002611 0.000000 0.000000
# 2 -0.006127 0.013878 -0.002572 0.002611 0.000000 0.000000
# 3 -0.002572 -0.002572 0.019819 0.000000 0.000000 0.000000
# 4 -0.002611 0.002611 0.000000 0.036817 0.000000 0.000000
# 5 0.000000 0.000000 0.000000 0.000000 0.036817 -0.005222
# 6 0.000000 0.000000 0.000000 0.000000 -0.005222 0.040011
#
#
# Mechanical properties :
#
#
# Convention : Reuss Voigt Hill
#
# Bulk Modulus (GPa) = 39.94486 45.64740 42.79613
# Shear Modulus (GPa) = 26.02717 27.19922 26.61319
#
# Velocity S-wave (km/s) = 3.55438 3.63353 3.59417
# Velocity P-wave (km/s) = 6.01948 6.30561 6.16420
#
# Compressibility (1/GPa) = 0.02503451
#
# Stress axis : x y z
#
# Youngs Moduli (GPa) = 72.05509 72.05509 50.45618
#
# Poissons Ratio (x) = 0.44151 0.12975
# Poissons Ratio (y) = 0.44151 0.12975
# Poissons Ratio (z) = 0.18530 0.18530
#
# Static dielectric constant tensor:
#      x y z
#    x 1.784450 0.000000 0.000000 
#    y 0.000000 1.784450 0.000000 
#    z 0.000000 0.000000 1.792270 
# 
# From -- ./inp_files/6981.got.cif
#   From: 2010.05.17/outbox.cif.g08.bks.cpg/sg155_4_cif.got.tgz:6981.got - 2010.05.20 10:44:35.
