data_PCOD9576854
_publ_section_title
;
Structure prediction by ZEFSAII (Michael W. Deem and Ramdas Pophale) SiO2 
 PCOD9576854
Probable space group: R 3 2
;
_chemical_formula_sum "Si O2"
_cell_formula_units_Z 105
_cell_length_a 21.466629
_cell_length_b 21.466629
_cell_length_c 14.508837
_cell_angle_alpha 90.000000
_cell_angle_beta 90.000000
_cell_angle_gamma 120.000000
_cell_volume 5790.164930
_symmetry_space_group_name_H-M "R 3 2"
_symmetry_group_IT_number 155
_symmetry_cell_setting 'hexagonal'
loop_
_space_group_symop_operation_xyz
x,y,z
-y,x-y,z
-x+y,-x,z
x-y,-y,-z
-x,-x+y,-z
y,x,-z
2/3+x,1/3+y,1/3+z
2/3-y,1/3+x-y,1/3+z
2/3-x+y,1/3-x,1/3+z
2/3+x-y,1/3-y,1/3-z
2/3-x,1/3-x+y,1/3-z
2/3+y,1/3+x,1/3-z
1/3+x,2/3+y,2/3+z
1/3-y,2/3+x-y,2/3+z
1/3-x+y,2/3-x,2/3+z
1/3+x-y,2/3-y,2/3-z
1/3-x,2/3-x+y,2/3-z
1/3+y,2/3+x,2/3-z
loop_
_atom_site_type_symbol
_atom_site_label
_atom_site_fract_x
_atom_site_fract_y
_atom_site_fract_z
Si Si1 0.162701 0.000000 0.500000
Si Si2 0.889336 0.763595 0.359067
Si Si3 0.497418 0.755006 0.499960
Si Si4 0.333334 0.666668 0.277215
Si Si5 0.297227 0.518036 0.298418
Si Si6 0.515447 0.932771 0.674757
Si Si7 0.836903 0.412733 0.488679
O O1 0.163204 0.943247 0.575559
O O2 0.094261 0.941771 0.440695
O O3 0.870360 0.681866 0.349656
O O4 0.891699 0.792216 0.255411
O O5 0.972944 0.808776 0.394275
O O6 0.517554 0.774457 0.392657
O O7 0.561423 0.806048 0.566110
O O8 0.470646 0.672648 0.521788
O O9 0.435893 0.776012 0.517013
O O10 0.333334 0.666668 0.166667
O O11 0.344831 0.604062 0.314342
O O12 0.579043 0.912377 0.666667
O O13 0.460811 0.894333 0.589307
#
# Coordination Sequence:
#
# PCOD9576854 Si02
#       7
#     9  18  18   6  18  18  18
#     4  12  20  36  58  88 126 150 202 260 314 368
#     4  11  22  36  60  91 125 164 207 247 318 384
#     4  10  19  35  61  98 123 150 198 264 316 371
#     4  12  15  27  54  93 124 146 178 237 327 382
#     4  11  19  32  57  94 125 147 186 253 320 372
#     4  10  23  41  61  84 127 175 217 250 301 385
#     4  10  19  37  64  95 124 153 200 262 324 375
#
# _framework density 18.134197
#
# number of rings (size 3 to 8) (size 9 to 14) (size 15 to 20)
#    0.000    1.371    4.286    2.914    0.000    0.000 
#    0.000   12.857    7.543    0.000    0.000    0.000 
#    0.000    0.000    0.000    0.000    0.000    0.000 
#
# Total GULP energy -194914.742858 kJ/mol
# GULP energy per Si atom -5568.992653 kJ/mol
# Density = 1.809292 g / cm^3
# Si number density = 18.134197 Si / 1000 Ang^3
#
#
#
# Elastic Constant Matrix: (Units=GPa)
#
#
# Indices 1 2 3 4 5 6 
#
# 1 115.1219 71.3782 48.8222 -5.2856 -0.0001 0.0000
# 2 71.3782 115.1225 48.8226 5.2857 0.0001 0.0000
# 3 48.8222 48.8226 123.5677 0.0002 0.0000 0.0000
# 4 -5.2856 5.2857 0.0002 18.3721 0.0000 0.0000
# 5 -0.0001 0.0001 0.0000 0.0000 18.3719 -5.2856
# 6 0.0000 0.0000 0.0000 0.0000 -5.2856 21.8721
#
#
#
# Elastic Compliance Matrix: (Units=1/GPa)
#
#
# Indices 1 2 3 4 5 6 
#
# 1 0.015664 -0.008904 -0.002671 0.007068 0.000000 0.000000
# 2 -0.008904 0.015664 -0.002671 -0.007068 0.000000 0.000000
# 3 -0.002671 -0.002671 0.010203 0.000000 0.000000 0.000000
# 4 0.007068 -0.007068 0.000000 0.058498 0.000000 0.000000
# 5 0.000000 0.000000 0.000000 0.000000 0.058498 0.014137
# 6 0.000000 0.000000 0.000000 0.000000 0.014137 0.049136
#
#
# Mechanical properties :
#
#
# Convention : Reuss Voigt Hill
#
# Bulk Modulus (GPa) = 76.68747 76.87310 76.78028
# Shear Modulus (GPa) = 20.78974 24.04251 22.41612
#
# Velocity S-wave (km/s) = 3.38958 3.64512 3.51967
# Velocity P-wave (km/s) = 7.59603 7.75881 7.67785
#
# Compressibility (1/GPa) = 0.01303994
#
# Stress axis : x y z
#
# Youngs Moduli (GPa) = 63.83893 63.83910 98.00607
#
# Poissons Ratio (x) = 0.56842 0.26178
# Poissons Ratio (y) = 0.56842 0.26178
# Poissons Ratio (z) = 0.17052 0.17052
#
# Static dielectric constant tensor:
#      x y z
#    x 1.637110 0.000000 0.000000 
#    y 0.000000 1.637110 0.000000 
#    z 0.000000 0.000000 1.705870 
# 
# From -- ./inp_files/5178.got.cif
#   From: 2010.05.17/outbox.cif.g08.bks.cpg/sg155_3_cif.got.tgz:5178.got - 2010.05.20 10:44:35.
