data_PCOD9576209
_publ_section_title
;
Structure prediction by ZEFSAII (Michael W. Deem and Ramdas Pophale) SiO2 
 PCOD9576209
Probable space group: P 31 2 1
;
_chemical_formula_sum "Si O2"
_cell_formula_units_Z 36
_cell_length_a 8.360070
_cell_length_b 8.360070
_cell_length_c 20.027030
_cell_angle_alpha 90.000000
_cell_angle_beta 90.000000
_cell_angle_gamma 120.000000
_cell_volume 1212.179703
_symmetry_space_group_name_H-M "P 31 2 1"
_symmetry_group_IT_number 152
_symmetry_cell_setting 'hexagonal'
loop_
_space_group_symop_operation_xyz
x,y,z
-y,x-y,1/3+z
-x+y,-x,2/3+z
x-y,-y,2/3-z
-x,-x+y,1/3-z
y,x,-z
loop_
_atom_site_type_symbol
_atom_site_label
_atom_site_fract_x
_atom_site_fract_y
_atom_site_fract_z
Si Si1 0.293166 0.035515 0.150182
Si Si2 0.000000 0.023056 0.666667
Si Si3 0.428624 0.934559 0.035952
Si Si4 0.306829 0.563091 0.112243
Si Si5 0.552252 0.000000 0.333334
Si Si6 0.174953 0.288105 0.223782
Si Si7 0.167109 0.755914 0.258737
O O1 0.329389 0.034668 0.071434
O O2 0.491716 0.149412 0.185911
O O3 0.200674 0.828294 0.182451
O O4 0.196002 0.146549 0.174201
O O5 0.848370 0.882787 0.613310
O O6 0.866760 0.072058 0.711116
O O7 0.315953 0.729415 0.068304
O O8 0.631973 0.032161 0.068879
O O9 0.471210 0.920395 0.958137
O O10 0.179504 0.441891 0.173129
O O11 0.306935 0.426668 0.056167
O O12 0.510132 0.141381 0.374108
#
# Coordination Sequence:
#
# PCOD9576209 Si02
#       7
#     6   3   6   6   3   6   6
#     4   8  12  17  25  37  54  79 111 144 176 213
#     4   7  10  16  24  34  50  74 104 135 170 212
#     4   8  12  17  25  37  54  79 111 144 176 213
#     4   8  12  17  25  37  54  79 110 144 179 215
#     4   7  10  16  24  34  50  74 104 135 170 212
#     4   8  12  17  25  37  54  79 110 144 179 215
#     4   7  10  16  24  34  50  74 104 135 170 210
#
# _framework density 29.69857
#
# number of rings (size 3 to 8) (size 9 to 14) (size 15 to 20)
#    0.000    4.333    0.000    4.000    0.000    0.000 
#    0.000    0.000    0.000    0.000    0.000    0.000 
#    0.000    0.000    0.000   96.000    0.000  104.667 
#
# Total GULP energy -201106.032781 kJ/mol
# GULP energy per Si atom -5586.278688 kJ/mol
# Density = 2.963097 g / cm^3
# Si number density = 29.698570 Si / 1000 Ang^3
#
#
#
# Elastic Constant Matrix: (Units=GPa)
#
#
# Indices 1 2 3 4 5 6 
#
# 1 75.9605 37.2965 20.7194 35.7890 -0.0001 0.0000
# 2 37.2965 75.9605 20.7194 -35.7890 0.0001 0.0000
# 3 20.7194 20.7194 155.9087 0.0000 0.0000 0.0000
# 4 35.7890 -35.7890 0.0000 37.8145 0.0000 0.0001
# 5 -0.0001 0.0001 0.0000 0.0000 37.8145 35.7890
# 6 0.0000 0.0000 0.0000 0.0001 35.7890 19.3320
#
#
#
# Elastic Compliance Matrix: (Units=1/GPa)
#
#
# Indices 1 2 3 4 5 6 
#
# 1 -0.012554 0.021834 -0.001233 0.032546 0.000000 0.000000
# 2 0.021834 -0.012554 -0.001233 -0.032546 0.000000 0.000000
# 3 -0.001233 -0.001233 0.006742 0.000000 0.000000 0.000000
# 4 0.032546 -0.032546 0.000000 -0.035161 0.000000 0.000000
# 5 0.000000 0.000000 0.000000 0.000000 -0.035161 0.065092
# 6 0.000000 0.000000 0.000000 0.000000 0.065092 -0.068776
#
#
# Mechanical properties :
#
#
# Convention : Reuss Voigt Hill
#
# Bulk Modulus (GPa) = 49.09214 51.70006 50.39610
# Shear Modulus (GPa) = -26.39810 34.26515 3.93352
#
# Velocity S-wave (km/s) = -2.98462 3.40040 1.15211
# Velocity P-wave (km/s) = 2.16535 5.73262 4.33311
#
# Compressibility (1/GPa) = 0.02036986
#
# Stress axis : x y z
#
# Youngs Moduli (GPa) = -79.65845 -79.65845 148.32786
#
# Poissons Ratio (x) = 1.73929 0.18294
# Poissons Ratio (y) = 1.73929 0.18294
# Poissons Ratio (z) = -0.09825 -0.09825
#
# Static dielectric constant tensor:
#      x y z
#    x 2.326540 0.000000 0.000000 
#    y 0.000000 2.326540 0.000000 
#    z 0.000000 0.000000 2.462140 
# 
# From -- ./inp_files/2761.got.cif
#   From: 2010.05.17/outbox.cif.g08.bks.cpg/sg152_2_cif.got.tgz:2761.got - 2010.05.20 10:36:06.
