data_PCOD9576379
_publ_section_title
;
Structure prediction by ZEFSAII (Michael W. Deem and Ramdas Pophale) SiO2 
 PCOD9576379
Probable space group: P 32 2 1
;
_chemical_formula_sum "Si O2"
_cell_formula_units_Z 42
_cell_length_a 17.535156
_cell_length_b 17.535156
_cell_length_c 5.735571
_cell_angle_alpha 90.000000
_cell_angle_beta 90.000000
_cell_angle_gamma 120.000000
_cell_volume 1527.307765
_symmetry_space_group_name_H-M "P 32 2 1"
_symmetry_group_IT_number 154
_symmetry_cell_setting 'hexagonal'
loop_
_space_group_symop_operation_xyz
x,y,z
-y,x-y,2/3+z
-x+y,-x,1/3+z
x-y,-y,1/3-z
-x,-x+y,2/3-z
y,x,-z
loop_
_atom_site_type_symbol
_atom_site_label
_atom_site_fract_x
_atom_site_fract_y
_atom_site_fract_z
Si Si1 0.306270 0.536178 0.428527
Si Si2 0.861423 0.739197 0.355785
Si Si3 0.000000 0.680529 0.833334
Si Si4 0.749699 0.861778 0.144435
Si Si5 0.231554 0.665923 0.286267
Si Si6 0.878456 0.321632 0.704699
Si Si7 0.683702 0.581036 0.867824
Si Si8 0.327733 0.327733 0.000000
O O1 0.281768 0.611629 0.350017
O O2 0.351837 0.551614 0.681818
O O3 0.208200 0.457634 0.457458
O O4 0.351802 0.527567 0.192975
O O5 0.882437 0.791412 0.598473
O O6 0.762711 0.655794 0.364569
O O7 0.918306 0.690114 0.342347
O O8 0.880231 0.791366 0.113139
O O9 0.081904 0.780525 0.817265
O O10 0.996001 0.633191 0.589713
O O11 0.682948 0.757004 0.146082
O O12 0.283786 0.773025 0.281462
O O13 0.914916 0.364208 0.450895
O O14 0.915137 0.365234 0.955228
#
# Coordination Sequence:
#
# PCOD9576379 Si02
#       8
#     6   6   3   6   6   6   6   3
#     4  10  17  23  29  35  41  49  60  74  88 100
#     4   8  12  18  25  33  42  50  58  66  76  90
#     4   8  12  16  24  34  42  50  58  66  74  86
#     4   8  12  18  25  33  42  50  58  66  76  90
#     4  10  17  23  29  35  41  49  60  74  88 100
#     4   8  14  21  27  33  41  50  58  68  82  96
#     4   8  14  21  27  33  41  50  58  68  82  96
#     4   8  12  16  24  34  42  50  58  66  74  86
#
# _framework density 27.499369000000002
#
# number of rings (size 3 to 8) (size 9 to 14) (size 15 to 20)
#    0.000    3.429    0.000    1.714    0.000    0.000 
#    0.000    0.000    0.000    0.000    0.000    0.000 
#    0.000    0.000    0.000    0.000    0.000    0.000 
#
# Total GULP energy -233823.708317 kJ/mol
# GULP energy per Si atom -5567.231150 kJ/mol
# Density = 2.743678 g / cm^3
# Si number density = 27.499369 Si / 1000 Ang^3
#
#
#
# Elastic Constant Matrix: (Units=GPa)
#
#
# Indices 1 2 3 4 5 6 
#
# 1 -179.6783 271.2972 23.0047 -26.1134 -0.0001 0.0000
# 2 271.2972 -179.6783 23.0047 26.1134 0.0001 0.0000
# 3 23.0047 23.0047 426.9819 0.0000 0.0000 0.0000
# 4 -26.1134 26.1134 0.0000 15.1248 0.0000 0.0001
# 5 -0.0001 0.0001 0.0000 0.0000 15.1248 -26.1134
# 6 0.0000 0.0000 0.0000 0.0001 -26.1134 -225.4877
#
#
#
# Elastic Compliance Matrix: (Units=1/GPa)
#
#
# Indices 1 2 3 4 5 6 
#
# 1 0.004685 0.006533 -0.000604 -0.003191 0.000000 0.000000
# 2 0.006533 0.004685 -0.000604 0.003191 0.000000 0.000000
# 3 -0.000604 -0.000604 0.002407 0.000000 0.000000 0.000000
# 4 -0.003191 0.003191 0.000000 0.055100 0.000000 0.000000
# 5 0.000000 0.000000 0.000000 0.000000 0.055100 -0.006381
# 6 0.000000 0.000000 0.000000 0.000000 -0.006381 -0.003696
#
#
# Mechanical properties :
#
#
# Convention : Reuss Voigt Hill
#
# Bulk Modulus (GPa) = 44.59088 78.02648 61.30868
# Shear Modulus (GPa) = 43.43761 -55.69304 -6.12771
#
# Velocity S-wave (km/s) = 3.97871 -4.50516 -1.49437
# Velocity P-wave (km/s) = 6.11206 1.17200 4.40062
#
# Compressibility (1/GPa) = 0.02242611
#
# Stress axis : x y z
#
# Youngs Moduli (GPa) = 213.43855 213.43855 415.42941
#
# Poissons Ratio (x) = -1.39442 0.25109
# Poissons Ratio (y) = -1.39442 0.25109
# Poissons Ratio (z) = 0.12900 0.12900
#
# Static dielectric constant tensor:
#      x y z
#    x 2.195290 0.000000 0.000000 
#    y 0.000000 2.195290 0.000000 
#    z 0.000000 0.000000 2.400500 
# 
# From -- ./inp_files/584.got.cif
#   From: 2010.05.17/outbox.cif.g08.bks.cpg/sg154_1_cif.got.tgz:584.got - 2010.05.20 10:41:43.
