data_PCOD9576239
_publ_section_title
;
Structure prediction by ZEFSAII (Michael W. Deem and Ramdas Pophale) SiO2 
 PCOD9576239
Probable space group: P 32 1 2
;
_chemical_formula_sum "Si O2"
_cell_formula_units_Z 42
_cell_length_a 9.611588
_cell_length_b 9.611588
_cell_length_c 27.459381
_cell_angle_alpha 90.000000
_cell_angle_beta 90.000000
_cell_angle_gamma 120.000000
_cell_volume 2196.906975
_symmetry_space_group_name_H-M "P 32 1 2"
_symmetry_group_IT_number 153
_symmetry_cell_setting 'hexagonal'
loop_
_space_group_symop_operation_xyz
x,y,z
-y,x-y,2/3+z
-x+y,-x,1/3+z
-y,-x,1/3-z
-x+y,y,2/3-z
x,x-y,-z
loop_
_atom_site_type_symbol
_atom_site_label
_atom_site_fract_x
_atom_site_fract_y
_atom_site_fract_z
Si Si1 0.134179 0.911273 0.019703
Si Si2 0.765092 0.828687 0.818524
Si Si3 0.507733 0.232240 0.194109
Si Si4 0.547458 0.904008 0.880123
Si Si5 0.215555 0.200590 0.872091
Si Si6 0.435055 0.401514 0.711703
Si Si7 0.518583 0.768407 0.269145
O O1 0.219793 0.967927 0.072343
O O2 0.982867 0.736155 0.032579
O O3 0.220160 0.861916 0.978007
O O4 0.102524 0.051262 0.000000
O O5 0.674744 0.848318 0.865834
O O6 0.631832 0.756613 0.776077
O O7 0.877800 0.755599 0.833334
O O8 0.889807 0.006809 0.797782
O O9 0.673723 0.326278 0.166667
O O10 0.452563 0.354913 0.215560
O O11 0.384450 0.132154 0.151688
O O12 0.500453 0.124784 0.238429
O O13 0.432856 0.865711 0.833334
O O14 0.417562 0.819020 0.922362
O O15 0.130203 0.260406 0.833334
O O16 0.555646 0.444355 0.666667
O O17 0.420826 0.561870 0.717629
#
# Coordination Sequence:
#
# PCOD9576239 Si02
#       7
#     6   6   6   6   6   6   6
#     4  11  21  36  64  89 115 160 221 256 296 369
#     4   9  17  31  58  89 118 156 207 253 294 364
#     4  10  20  37  61  87 126 158 200 252 316 364
#     4   8  17  34  56  85 117 160 199 246 300 357
#     4  10  18  35  60  91 115 155 217 258 292 371
#     4  10  23  41  60  88 129 165 198 256 317 368
#     4  10  20  38  59  85 125 160 200 253 315 363
#
# _framework density 19.117785999999999
#
# number of rings (size 3 to 8) (size 9 to 14) (size 15 to 20)
#    0.000    2.286    2.857    0.857    0.000    0.571 
#   10.286    0.000    0.000    7.714    0.000    0.000 
#    0.000    0.000    0.000    0.000    0.000    0.000 
#
# Total GULP energy -233867.434987 kJ/mol
# GULP energy per Si atom -5568.272262 kJ/mol
# Density = 1.907427 g / cm^3
# Si number density = 19.117786 Si / 1000 Ang^3
#
#
#
# Elastic Constant Matrix: (Units=GPa)
#
#
# Indices 1 2 3 4 5 6 
#
# 1 115.2856 -0.6417 40.5688 -0.0004 20.3667 0.0000
# 2 -0.6417 115.2856 40.5688 0.0004 -20.3667 0.0000
# 3 40.5688 40.5688 117.7909 0.0000 0.0000 0.0000
# 4 -0.0004 0.0004 0.0000 29.8091 0.0000 -20.3667
# 5 20.3667 -20.3667 0.0000 0.0000 29.8091 -0.0004
# 6 0.0000 0.0000 0.0000 -20.3667 -0.0004 57.9636
#
#
#
# Elastic Compliance Matrix: (Units=1/GPa)
#
#
# Indices 1 2 3 4 5 6 
#
# 1 0.011443 0.000091 -0.003973 0.000000 -0.007756 0.000000
# 2 0.000091 0.011443 -0.003973 0.000000 0.007756 0.000000
# 3 -0.003973 -0.003973 0.011226 0.000000 0.000000 0.000000
# 4 0.000000 0.000000 0.000000 0.044145 0.000000 0.015511
# 5 -0.007756 0.007756 0.000000 0.000000 0.044145 0.000000
# 6 0.000000 0.000000 0.000000 0.015511 0.000000 0.022702
#
#
# Mechanical properties :
#
#
# Convention : Reuss Voigt Hill
#
# Bulk Modulus (GPa) = 54.33531 56.59484 55.46508
# Shear Modulus (GPa) = 29.95002 41.37410 35.66206
#
# Velocity S-wave (km/s) = 3.96233 4.65711 4.32370
# Velocity P-wave (km/s) = 7.02968 7.65413 7.34854
#
# Compressibility (1/GPa) = 0.01840424
#
# Stress axis : x y z
#
# Youngs Moduli (GPa) = 87.39222 87.39222 89.07891
#
# Poissons Ratio (x) = -0.00800 0.35387
# Poissons Ratio (y) = -0.00800 0.35387
# Poissons Ratio (z) = 0.34717 0.34717
#
# Static dielectric constant tensor:
#      x y z
#    x 1.642900 0.000000 0.000000 
#    y 0.000000 1.642900 0.000000 
#    z 0.000000 0.000000 1.710920 
# 
# From -- ./inp_files/5212.got.cif
#   From: 2010.05.17/outbox.cif.g08.bks.cpg/sg153_3_cif.got.tgz:5212.got - 2010.05.20 10:38:56.
