data_PCOD9576950
_publ_section_title
;
Structure prediction by ZEFSAII (Michael W. Deem and Ramdas Pophale) SiO2 
 PCOD9576950
Probable space group: R 3 2
;
_chemical_formula_sum "Si O2"
_cell_formula_units_Z 69
_cell_length_a 19.939929
_cell_length_b 19.939929
_cell_length_c 9.114314
_cell_angle_alpha 90.000000
_cell_angle_beta 90.000000
_cell_angle_gamma 120.000000
_cell_volume 3138.353305
_symmetry_space_group_name_H-M "R 3 2"
_symmetry_group_IT_number 155
_symmetry_cell_setting 'hexagonal'
loop_
_space_group_symop_operation_xyz
x,y,z
-y,x-y,z
-x+y,-x,z
x-y,-y,-z
-x,-x+y,-z
y,x,-z
2/3+x,1/3+y,1/3+z
2/3-y,1/3+x-y,1/3+z
2/3-x+y,1/3-x,1/3+z
2/3+x-y,1/3-y,1/3-z
2/3-x,1/3-x+y,1/3-z
2/3+y,1/3+x,1/3-z
1/3+x,2/3+y,2/3+z
1/3-y,2/3+x-y,2/3+z
1/3-x+y,2/3-x,2/3+z
1/3+x-y,2/3-y,2/3-z
1/3-x,2/3-x+y,2/3-z
1/3+y,2/3+x,2/3-z
loop_
_atom_site_type_symbol
_atom_site_label
_atom_site_fract_x
_atom_site_fract_y
_atom_site_fract_z
Si Si1 0.814905 0.444936 0.178183
Si Si2 0.101381 0.434714 0.666667
Si Si3 0.211124 0.417849 0.900931
Si Si4 0.148037 0.345177 0.503693
Si Si5 0.333334 0.666667 0.990416
O O1 0.772793 0.439460 0.333334
O O2 0.824201 0.523491 0.114328
O O3 0.901758 0.459118 0.198174
O O4 0.754111 0.375240 0.075386
O O5 0.163600 0.448203 0.798568
O O6 0.084260 0.359604 0.578161
O O7 0.183324 0.333334 0.833334
O O8 0.196392 0.396693 0.072826
O O9 0.143969 0.333334 0.333334
O O10 0.333334 0.666668 0.166667
#
# Coordination Sequence:
#
# PCOD9576950 Si02
#       5
#    18   9  18  18   6
#     4  12  23  47  75 101 138 189 237 284 366 429
#     4  10  20  44  66  90 134 176 232 276 334 400
#     4  10  22  43  68 104 140 177 232 285 340 426
#     4  11  26  45  68 103 141 184 231 292 346 423
#     4  12  31  44  76 108 136 182 238 333 355 401
#
# _framework density 21.986052999999998
#
# number of rings (size 3 to 8) (size 9 to 14) (size 15 to 20)
#    0.000    1.043    5.217    2.348    3.652    1.043 
#   25.826    0.000    0.000    0.000    0.000    0.000 
#    0.000    0.000    0.000    0.000    0.000    0.000 
#
# Total GULP energy -128043.106582 kJ/mol
# GULP energy per Si atom -5567.091591 kJ/mol
# Density = 2.193601 g / cm^3
# Si number density = 21.986053 Si / 1000 Ang^3
#
#
#
# Elastic Constant Matrix: (Units=GPa)
#
#
# Indices 1 2 3 4 5 6 
#
# 1 58.7141 42.7749 30.5027 1.4275 0.0014 0.0002
# 2 42.7749 58.7146 30.5027 -1.4275 -0.0009 0.0002
# 3 30.5027 30.5027 206.1396 0.0006 0.0017 0.0003
# 4 1.4275 -1.4275 0.0006 26.2218 0.0003 -0.0009
# 5 0.0014 -0.0009 0.0017 0.0003 26.2223 1.4276
# 6 0.0002 0.0002 0.0003 -0.0009 1.4276 7.9702
#
#
#
# Elastic Compliance Matrix: (Units=1/GPa)
#
#
# Indices 1 2 3 4 5 6 
#
# 1 0.037085 -0.026270 -0.001600 -0.003449 -0.000003 0.000000
# 2 -0.026270 0.037085 -0.001600 0.003449 0.000003 0.000000
# 3 -0.001600 -0.001600 0.005325 0.000000 0.000000 0.000000
# 4 -0.003449 0.003449 0.000000 0.038512 0.000000 0.000005
# 5 -0.000003 0.000003 0.000000 0.000000 0.038511 -0.006898
# 6 0.000000 0.000000 0.000000 0.000005 -0.006898 0.126703
#
#
# Mechanical properties :
#
#
# Convention : Reuss Voigt Hill
#
# Bulk Modulus (GPa) = 48.65284 59.01432 53.83358
# Shear Modulus (GPa) = 14.32612 26.73541 20.53077
#
# Velocity S-wave (km/s) = 2.55542 3.49093 3.05914
# Velocity P-wave (km/s) = 5.55733 6.56877 6.08410
#
# Compressibility (1/GPa) = 0.02055379
#
# Stress axis : x y z
#
# Youngs Moduli (GPa) = 26.96485 26.96513 187.80434
#
# Poissons Ratio (x) = 0.70837 0.30056
# Poissons Ratio (y) = 0.70836 0.30055
# Poissons Ratio (z) = 0.04315 0.04315
#
# Static dielectric constant tensor:
#      x y z
#    x 1.929620 0.000000 0.000000 
#    y 0.000000 1.929620 0.000000 
#    z 0.000000 0.000000 1.926150 
# 
# From -- ./inp_files/2206.got.cif
#   From: 2010.05.17/outbox.cif.g08.bks.cpg/sg155_2_cif.got.tgz:2206.got - 2010.05.20 10:44:35.
