data_PCOD9576019
_publ_section_title
;
Structure prediction by ZEFSAII (Michael W. Deem and Ramdas Pophale) SiO2 
 PCOD9576019
Probable space group: P 31 2 1
;
_chemical_formula_sum "Si O2"
_cell_formula_units_Z 45
_cell_length_a 13.906579
_cell_length_b 13.906579
_cell_length_c 10.762422
_cell_angle_alpha 90.000000
_cell_angle_beta 90.000000
_cell_angle_gamma 120.000000
_cell_volume 1802.524860
_symmetry_space_group_name_H-M "P 31 2 1"
_symmetry_group_IT_number 152
_symmetry_cell_setting 'hexagonal'
loop_
_space_group_symop_operation_xyz
x,y,z
-y,x-y,1/3+z
-x+y,-x,2/3+z
x-y,-y,2/3-z
-x,-x+y,1/3-z
y,x,-z
loop_
_atom_site_type_symbol
_atom_site_label
_atom_site_fract_x
_atom_site_fract_y
_atom_site_fract_z
Si Si1 0.460423 0.566611 0.786715
Si Si2 0.550310 0.307276 0.929690
Si Si3 0.588043 0.688955 0.257180
Si Si4 0.179028 0.022721 0.193613
Si Si5 0.250359 0.691463 0.247481
Si Si6 0.062783 0.858862 0.965169
Si Si7 0.669649 0.011652 0.199760
Si Si8 0.708297 0.708297 0.500000
O O1 0.575737 0.567390 0.802719
O O2 0.387699 0.526064 0.658547
O O3 0.489285 0.694165 0.814889
O O4 0.380598 0.460199 0.871491
O O5 0.597978 0.261577 0.825332
O O6 0.510639 0.222413 0.046864
O O7 0.658726 0.416714 0.978733
O O8 0.451111 0.318885 0.873256
O O9 0.699960 0.792906 0.202840
O O10 0.619362 0.672554 0.395558
O O11 0.117063 0.091221 0.228482
O O12 0.205389 0.000000 0.333334
O O13 0.104192 0.918743 0.100420
O O14 0.006848 0.728502 0.928230
O O15 0.176199 0.909728 0.890629
O O16 0.719418 0.000000 0.333334
#
# Coordination Sequence:
#
# PCOD9576019 Si02
#       8
#     6   6   6   6   6   6   6   3
#     4  11  25  44  73 107 149 200 249 313 387 453
#     4  11  21  45  73 102 141 190 247 312 383 456
#     4  11  23  43  72 105 143 195 249 314 380 455
#     4  11  27  48  72 107 153 197 247 313 379 460
#     4  10  24  43  71 102 145 191 250 312 375 454
#     4  11  26  44  75 105 143 196 252 307 377 456
#     4  12  24  44  73 109 146 194 259 317 383 462
#     4  10  22  40  72  96 134 188 246 296 366 452
#
# _framework density 24.964984000000001
#
# number of rings (size 3 to 8) (size 9 to 14) (size 15 to 20)
#    0.000    1.067    2.667    2.800    5.600    1.600 
#    2.400    0.000    2.933    0.000    0.000    0.000 
#    0.000    0.000    0.000    0.000    0.000    0.000 
#
# Total GULP energy -250614.354416 kJ/mol
# GULP energy per Si atom -5569.207876 kJ/mol
# Density = 2.490816 g / cm^3
# Si number density = 24.964984 Si / 1000 Ang^3
#
#
#
# Elastic Constant Matrix: (Units=GPa)
#
#
# Indices 1 2 3 4 5 6 
#
# 1 81.7932 22.3875 16.0957 -9.2476 0.0009 0.0000
# 2 22.3875 81.7932 16.0957 9.2476 -0.0009 0.0000
# 3 16.0957 16.0957 97.6958 0.0000 0.0000 0.0000
# 4 -9.2476 9.2476 0.0000 87.5516 0.0000 -0.0009
# 5 0.0009 -0.0009 0.0000 0.0000 87.5516 -9.2476
# 6 0.0000 0.0000 0.0000 -0.0009 -9.2476 29.7029
#
#
#
# Elastic Compliance Matrix: (Units=1/GPa)
#
#
# Indices 1 2 3 4 5 6 
#
# 1 0.013760 -0.003646 -0.001666 0.001838 0.000000 0.000000
# 2 -0.003646 0.013760 -0.001666 -0.001838 0.000000 0.000000
# 3 -0.001666 -0.001666 0.010785 0.000000 0.000000 0.000000
# 4 0.001838 -0.001838 0.000000 0.011810 0.000000 0.000000
# 5 0.000000 0.000000 0.000000 0.000000 0.011810 0.003677
# 6 0.000000 0.000000 0.000000 0.000000 0.003677 0.034812
#
#
# Mechanical properties :
#
#
# Convention : Reuss Voigt Hill
#
# Bulk Modulus (GPa) = 41.07272 41.15999 41.11636
# Shear Modulus (GPa) = 42.08433 54.74146 48.41290
#
# Velocity S-wave (km/s) = 4.11022 4.68774 4.40845
# Velocity P-wave (km/s) = 6.24605 6.76925 6.51290
#
# Compressibility (1/GPa) = 0.02434706
#
# Stress axis : x y z
#
# Youngs Moduli (GPa) = 72.67616 72.67616 92.72235
#
# Poissons Ratio (x) = 0.26499 0.15450
# Poissons Ratio (y) = 0.26499 0.15450
# Poissons Ratio (z) = 0.12110 0.12110
#
# Static dielectric constant tensor:
#      x y z
#    x 1.850800 0.000000 0.000000 
#    y 0.000000 1.850800 0.000000 
#    z 0.000000 0.000000 2.069300 
# 
# From -- ./inp_files/1878.got.cif
#   From: 2010.05.17/outbox.cif.g08.bks.cpg/sg152_1_cif.got.tgz:1878.got - 2010.05.20 10:36:06.
