data_PCOD9576920
_publ_section_title
;
Structure prediction by ZEFSAII (Michael W. Deem and Ramdas Pophale) SiO2 
 PCOD9576920
Probable space group: R 3 2
;
_chemical_formula_sum "Si O2"
_cell_formula_units_Z 36
_cell_length_a 13.651492
_cell_length_b 13.651492
_cell_length_c 7.863209
_cell_angle_alpha 90.000000
_cell_angle_beta 90.000000
_cell_angle_gamma 120.000000
_cell_volume 1269.084935
_symmetry_space_group_name_H-M "R 3 2"
_symmetry_group_IT_number 155
_symmetry_cell_setting 'hexagonal'
loop_
_space_group_symop_operation_xyz
x,y,z
-y,x-y,z
-x+y,-x,z
x-y,-y,-z
-x,-x+y,-z
y,x,-z
2/3+x,1/3+y,1/3+z
2/3-y,1/3+x-y,1/3+z
2/3-x+y,1/3-x,1/3+z
2/3+x-y,1/3-y,1/3-z
2/3-x,1/3-x+y,1/3-z
2/3+y,1/3+x,1/3-z
1/3+x,2/3+y,2/3+z
1/3-y,2/3+x-y,2/3+z
1/3-x+y,2/3-x,2/3+z
1/3+x-y,2/3-y,2/3-z
1/3-x,2/3-x+y,2/3-z
1/3+y,2/3+x,2/3-z
loop_
_atom_site_type_symbol
_atom_site_label
_atom_site_fract_x
_atom_site_fract_y
_atom_site_fract_z
Si Si1 0.743399 0.206750 0.510971
Si Si2 0.080866 0.519253 0.348268
O O1 0.666667 0.190353 0.333334
O O2 0.801211 0.323906 0.617632
O O3 0.647426 0.111853 0.624332
O O4 0.849928 0.190801 0.470610
O O5 0.000000 0.443941 0.500000
#
# Coordination Sequence:
#
# PCOD9576920 Si02
#       2
#    18  18
#     4  10  20  37  61  90 118 155 200 241 288 353
#     4  10  20  37  61  90 116 155 200 241 286 353
#
# _framework density 28.366893000000001
#
# number of rings (size 3 to 8) (size 9 to 14) (size 15 to 20)
#    0.000    2.000    0.000    7.000    0.000    4.000 
#    0.000   30.000    0.000    0.000    0.000   94.500 
#    0.000    0.000    0.000    0.000    0.000    0.000 
#
# Total GULP energy -66947.597838 kJ/mol
# GULP energy per Si atom -5578.966487 kJ/mol
# Density = 2.830233 g / cm^3
# Si number density = 28.366893 Si / 1000 Ang^3
#
#
#
# Elastic Constant Matrix: (Units=GPa)
#
#
# Indices 1 2 3 4 5 6 
#
# 1 189.6820 48.6369 41.4251 -13.1267 -0.0001 0.0000
# 2 48.6369 189.6820 41.4251 13.1267 0.0001 0.0000
# 3 41.4251 41.4251 113.3340 0.0000 0.0000 0.0000
# 4 -13.1267 13.1267 0.0000 38.0455 0.0000 0.0001
# 5 -0.0001 0.0001 0.0000 0.0000 38.0455 -13.1267
# 6 0.0000 0.0000 0.0000 0.0001 -13.1267 70.5225
#
#
#
# Elastic Compliance Matrix: (Units=1/GPa)
#
#
# Indices 1 2 3 4 5 6 
#
# 1 0.006192 -0.001385 -0.001757 0.002614 0.000000 0.000000
# 2 -0.001385 0.006192 -0.001757 -0.002614 0.000000 0.000000
# 3 -0.001757 -0.001757 0.010108 0.000000 0.000000 0.000000
# 4 0.002614 -0.002614 0.000000 0.028088 0.000000 0.000000
# 5 0.000000 0.000000 0.000000 0.000000 0.028088 0.005228
# 6 0.000000 0.000000 0.000000 0.000000 0.005228 0.015153
#
#
# Mechanical properties :
#
#
# Convention : Reuss Voigt Hill
#
# Bulk Modulus (GPa) = 78.77924 83.96359 81.37141
# Shear Modulus (GPa) = 46.36094 53.40342 49.88218
#
# Velocity S-wave (km/s) = 4.04707 4.34360 4.19795
# Velocity P-wave (km/s) = 7.04771 7.40400 7.22805
#
# Compressibility (1/GPa) = 0.01269370
#
# Stress axis : x y z
#
# Youngs Moduli (GPa) = 161.50701 161.50702 98.93284
#
# Poissons Ratio (x) = 0.22366 0.17382
# Poissons Ratio (y) = 0.22366 0.17382
# Poissons Ratio (z) = 0.28376 0.28376
#
# Static dielectric constant tensor:
#      x y z
#    x 2.157520 0.000000 0.000000 
#    y 0.000000 2.157520 0.000000 
#    z 0.000000 0.000000 2.452950 
# 
# From -- ./inp_files/1322.got.cif
#   From: 2010.05.17/outbox.cif.g08.bks.cpg/sg155_1_cif.got.tgz:1322.got - 2010.05.20 10:44:35.
