data_PCOD9576416
_publ_section_title
;
Structure prediction by ZEFSAII (Michael W. Deem and Ramdas Pophale) SiO2 
 PCOD9576416
Probable space group: P 32 2 1
;
_chemical_formula_sum "Si O2"
_cell_formula_units_Z 36
_cell_length_a 9.154421
_cell_length_b 9.154421
_cell_length_c 22.077733
_cell_angle_alpha 90.000000
_cell_angle_beta 90.000000
_cell_angle_gamma 120.000000
_cell_volume 1602.311209
_symmetry_space_group_name_H-M "P 32 2 1"
_symmetry_group_IT_number 154
_symmetry_cell_setting 'hexagonal'
loop_
_space_group_symop_operation_xyz
x,y,z
-y,x-y,2/3+z
-x+y,-x,1/3+z
x-y,-y,1/3-z
-x,-x+y,2/3-z
y,x,-z
loop_
_atom_site_type_symbol
_atom_site_label
_atom_site_fract_x
_atom_site_fract_y
_atom_site_fract_z
Si Si1 0.601235 0.494821 0.377431
Si Si2 0.887931 0.984603 0.919989
Si Si3 0.697117 0.960405 0.596033
Si Si4 0.409929 0.152687 0.210443
Si Si5 0.268619 0.676437 0.408260
Si Si6 0.095174 0.779164 0.713843
O O1 0.600461 0.670119 0.389231
O O2 0.639113 0.460366 0.309719
O O3 0.411074 0.358615 0.395577
O O4 0.773162 0.538242 0.412789
O O5 0.085836 0.129279 0.923581
O O6 0.815623 0.069143 0.873765
O O7 0.885721 0.811427 0.907720
O O8 0.780316 0.950566 0.982218
O O9 0.681970 0.109104 0.565917
O O10 0.690229 0.000000 0.666667
O O11 0.375595 0.000000 0.166667
O O12 0.592308 0.309523 0.207698
O O13 0.220506 0.492850 0.380793
#
# Coordination Sequence:
#
# PCOD9576416 Si02
#       6
#     6   6   6   6   6   6
#     4   9  19  33  57  86 116 152 195 249 293 359
#     4  10  19  33  52  84 118 152 194 249 300 350
#     4   9  17  31  52  79 115 145 180 246 301 338
#     4  10  21  40  62  82 122 164 200 245 323 370
#     4  10  20  34  59  91 115 151 207 254 289 366
#     4  10  19  31  53  89 119 145 201 251 294 344
#
# _framework density 22.467544
#
# number of rings (size 3 to 8) (size 9 to 14) (size 15 to 20)
#    0.000    2.333    3.333    0.000    7.000    0.000 
#    0.000    3.333    7.333    0.000    0.000    0.000 
#    0.000    0.000    0.000    0.000    0.000    0.000 
#
# Total GULP energy -200402.338508 kJ/mol
# GULP energy per Si atom -5566.731625 kJ/mol
# Density = 2.241641 g / cm^3
# Si number density = 22.467544 Si / 1000 Ang^3
#
#
#
# Elastic Constant Matrix: (Units=GPa)
#
#
# Indices 1 2 3 4 5 6 
#
# 1 157.2776 71.0661 28.0415 5.8290 -0.0001 0.0000
# 2 71.0661 157.2776 28.0415 -5.8290 0.0001 0.0000
# 3 28.0415 28.0415 41.2677 0.0000 0.0000 0.0000
# 4 5.8290 -5.8290 0.0000 20.7015 0.0000 0.0001
# 5 -0.0001 0.0001 0.0000 0.0000 20.7015 5.8290
# 6 0.0000 0.0000 0.0000 0.0001 5.8290 43.1058
#
#
#
# Elastic Compliance Matrix: (Units=1/GPa)
#
#
# Indices 1 2 3 4 5 6 
#
# 1 0.008658 -0.003401 -0.003572 -0.003395 0.000000 0.000000
# 2 -0.003401 0.008658 -0.003572 0.003395 0.000000 0.000000
# 3 -0.003572 -0.003572 0.029086 0.000000 0.000000 0.000000
# 4 -0.003395 0.003395 0.000000 0.050218 0.000000 0.000000
# 5 0.000000 0.000000 0.000000 0.000000 0.050218 -0.006791
# 6 0.000000 0.000000 0.000000 0.000000 -0.006791 0.024117
#
#
# Mechanical properties :
#
#
# Convention : Reuss Voigt Hill
#
# Bulk Modulus (GPa) = 39.50704 67.79126 53.64915
# Shear Modulus (GPa) = 24.94002 32.14665 28.54334
#
# Velocity S-wave (km/s) = 3.33535 3.78670 3.56817
# Velocity P-wave (km/s) = 5.69693 7.02547 6.39579
#
# Compressibility (1/GPa) = 0.02531194
#
# Stress axis : x y z
#
# Youngs Moduli (GPa) = 115.50569 115.50569 34.38046
#
# Poissons Ratio (x) = 0.39283 0.12280
# Poissons Ratio (y) = 0.39283 0.12280
# Poissons Ratio (z) = 0.41258 0.41258
#
# Static dielectric constant tensor:
#      x y z
#    x 1.878230 0.000000 0.000000 
#    y 0.000000 1.878230 0.000000 
#    z 0.000000 0.000000 1.966180 
# 
# From -- ./inp_files/3618.got.cif
#   From: 2010.05.17/outbox.cif.g08.bks.cpg/sg154_2_cif.got.tgz:3618.got - 2010.05.20 10:41:43.
