data_PCOD9576835
_publ_section_title
;
Structure prediction by ZEFSAII (Michael W. Deem and Ramdas Pophale) SiO2 
 PCOD9576835
Probable space group: R 3 2
;
_chemical_formula_sum "Si O2"
_cell_formula_units_Z 72
_cell_length_a 21.959167
_cell_length_b 21.959167
_cell_length_c 9.586320
_cell_angle_alpha 90.000000
_cell_angle_beta 90.000000
_cell_angle_gamma 120.000000
_cell_volume 4003.264421
_symmetry_space_group_name_H-M "R 3 2"
_symmetry_group_IT_number 155
_symmetry_cell_setting 'hexagonal'
loop_
_space_group_symop_operation_xyz
x,y,z
-y,x-y,z
-x+y,-x,z
x-y,-y,-z
-x,-x+y,-z
y,x,-z
2/3+x,1/3+y,1/3+z
2/3-y,1/3+x-y,1/3+z
2/3-x+y,1/3-x,1/3+z
2/3+x-y,1/3-y,1/3-z
2/3-x,1/3-x+y,1/3-z
2/3+y,1/3+x,1/3-z
1/3+x,2/3+y,2/3+z
1/3-y,2/3+x-y,2/3+z
1/3-x+y,2/3-x,2/3+z
1/3+x-y,2/3-y,2/3-z
1/3-x,2/3-x+y,2/3-z
1/3+y,2/3+x,2/3-z
loop_
_atom_site_type_symbol
_atom_site_label
_atom_site_fract_x
_atom_site_fract_y
_atom_site_fract_z
Si Si1 0.471098 0.381801 0.701057
Si Si2 0.456577 0.408603 0.141066
Si Si3 0.416532 0.945548 0.384506
Si Si4 0.451995 0.046911 0.139235
O O1 0.466252 0.333334 0.833334
O O2 0.418273 0.410928 0.740020
O O3 0.444205 0.334257 0.563573
O O4 0.546188 0.451471 0.681222
O O5 0.537864 0.466197 0.163550
O O6 0.432447 0.432447 0.000000
O O7 0.340621 0.898412 0.452597
O O8 0.467937 0.000000 0.500000
O O9 0.410753 0.994044 0.265081
O O10 0.428764 0.000000 0.000000
#
# Coordination Sequence:
#
# PCOD9576835 Si02
#       4
#    18  18  18  18
#     4   9  18  31  47  71 101 136 173 213 263 318
#     4   8  16  30  47  67  96 132 168 207 254 304
#     4  11  21  32  52  79 106 138 178 222 267 318
#     4  10  19  33  51  75 106 140 173 214 266 316
#
# _framework density 17.985322
#
# number of rings (size 3 to 8) (size 9 to 14) (size 15 to 20)
#    0.000    2.500    0.000    4.500    0.000    5.000 
#    0.000    3.750    0.000    1.000    0.000    7.000 
#    0.000    0.000    0.000    0.000    0.000    0.000 
#
# Total GULP energy -133857.980805 kJ/mol
# GULP energy per Si atom -5577.415867 kJ/mol
# Density = 1.794439 g / cm^3
# Si number density = 17.985322 Si / 1000 Ang^3
#
#
#
# Elastic Constant Matrix: (Units=GPa)
#
#
# Indices 1 2 3 4 5 6 
#
# 1 101.6768 58.7938 16.0120 -7.6305 0.0001 0.0001
# 2 58.7938 101.6767 16.0113 7.6306 -0.0002 0.0000
# 3 16.0120 16.0113 48.7559 0.0006 0.0007 0.0004
# 4 -7.6305 7.6306 0.0006 24.0712 0.0003 0.0001
# 5 0.0001 -0.0002 0.0007 0.0003 24.0712 -7.6305
# 6 0.0001 0.0000 0.0004 0.0001 -7.6305 21.4415
#
#
#
# Elastic Compliance Matrix: (Units=1/GPa)
#
#
# Indices 1 2 3 4 5 6 
#
# 1 0.016477 -0.009808 -0.002190 0.008332 0.000000 0.000000
# 2 -0.009808 0.016477 -0.002190 -0.008332 0.000000 0.000000
# 3 -0.002190 -0.002190 0.021949 -0.000001 -0.000001 -0.000001
# 4 0.008332 -0.008332 -0.000001 0.046826 -0.000001 -0.000001
# 5 0.000000 0.000000 -0.000001 -0.000001 0.046826 0.016664
# 6 0.000000 0.000000 -0.000001 -0.000001 0.016664 0.052569
#
#
# Mechanical properties :
#
#
# Convention : Reuss Voigt Hill
#
# Bulk Modulus (GPa) = 37.69878 48.19374 42.94626
# Shear Modulus (GPa) = 20.97833 24.66958 22.82396
#
# Velocity S-wave (km/s) = 3.41899 3.70760 3.56621
# Velocity P-wave (km/s) = 6.04916 6.72181 6.39433
#
# Compressibility (1/GPa) = 0.02652606
#
# Stress axis : x y z
#
# Youngs Moduli (GPa) = 60.69184 60.69215 45.56065
#
# Poissons Ratio (x) = 0.59526 0.09979
# Poissons Ratio (y) = 0.59526 0.09977
# Poissons Ratio (z) = 0.13294 0.13290
#
# Static dielectric constant tensor:
#      x y z
#    x 1.631500 0.000000 0.000000 
#    y 0.000000 1.631500 0.000000 
#    z 0.000000 0.000000 1.684230 
# 
# From -- ./inp_files/2445.got.cif
#   From: 2010.05.17/outbox.cif.g08.bks.cpg/sg155_2_cif.got.tgz:2445.got - 2010.05.20 10:44:35.
