data_PCOD9576816
_publ_section_title
;
Structure prediction by ZEFSAII (Michael W. Deem and Ramdas Pophale) SiO2 
 PCOD9576816
Probable space group: R 3 2
;
_chemical_formula_sum "Si O2"
_cell_formula_units_Z 108
_cell_length_a 13.609563
_cell_length_b 13.609563
_cell_length_c 33.367799
_cell_angle_alpha 90.000000
_cell_angle_beta 90.000000
_cell_angle_gamma 120.000000
_cell_volume 5352.375241
_symmetry_space_group_name_H-M "R 3 2"
_symmetry_group_IT_number 155
_symmetry_cell_setting 'hexagonal'
loop_
_space_group_symop_operation_xyz
x,y,z
-y,x-y,z
-x+y,-x,z
x-y,-y,-z
-x,-x+y,-z
y,x,-z
2/3+x,1/3+y,1/3+z
2/3-y,1/3+x-y,1/3+z
2/3-x+y,1/3-x,1/3+z
2/3+x-y,1/3-y,1/3-z
2/3-x,1/3-x+y,1/3-z
2/3+y,1/3+x,1/3-z
1/3+x,2/3+y,2/3+z
1/3-y,2/3+x-y,2/3+z
1/3-x+y,2/3-x,2/3+z
1/3+x-y,2/3-y,2/3-z
1/3-x,2/3-x+y,2/3-z
1/3+y,2/3+x,2/3-z
loop_
_atom_site_type_symbol
_atom_site_label
_atom_site_fract_x
_atom_site_fract_y
_atom_site_fract_z
Si Si1 0.305444 0.196794 0.336811
Si Si2 0.419415 0.160198 0.081998
Si Si3 0.431828 0.022734 0.742552
Si Si4 0.838346 0.571205 0.562153
Si Si5 0.809229 0.589980 0.704705
Si Si6 0.466796 0.930854 0.175199
O O1 0.382458 0.333334 0.333334
O O2 0.277229 0.128670 0.295548
O O3 0.358694 0.150734 0.369550
O O4 0.183996 0.174789 0.353831
O O5 0.537667 0.160119 0.086424
O O6 0.436315 0.265182 0.108719
O O7 0.321221 0.031698 0.090778
O O8 0.453189 0.146093 0.728292
O O9 0.512708 0.032592 0.778678
O O10 0.903127 0.665605 0.596219
O O11 0.836410 0.631680 0.521368
O O12 0.813478 0.666667 0.666667
O O13 0.333334 0.873254 0.166667
O O14 0.508920 0.842253 0.166667
#
# Coordination Sequence:
#
# PCOD9576816 Si02
#       6
#    18  18  18  18  18  18
#     4  11  22  38  65 100 138 184 225 280 345 413
#     4  11  22  41  71  96 142 176 233 284 345 404
#     4  11  24  41  65 100 140 180 227 288 347 418
#     4  11  22  43  66 102 129 185 228 285 338 416
#     4  10  18  37  61  95 141 168 226 269 344 413
#     4  12  25  46  69  99 140 177 231 283 356 423
#
# _framework density 20.177956999999999
#
# number of rings (size 3 to 8) (size 9 to 14) (size 15 to 20)
#    0.000    1.000    6.667    4.000    0.000    0.000 
#    4.000    0.000    0.000    2.667    0.000    0.000 
#    0.000    0.000    0.000    0.000    0.000    0.000 
#
# Total GULP energy -200960.316240 kJ/mol
# GULP energy per Si atom -5582.231007 kJ/mol
# Density = 2.013203 g / cm^3
# Si number density = 20.177957 Si / 1000 Ang^3
#
#
#
# Elastic Constant Matrix: (Units=GPa)
#
#
# Indices 1 2 3 4 5 6 
#
# 1 92.1533 40.2641 37.7532 1.8338 0.0001 0.0000
# 2 40.2641 92.1533 37.7532 -1.8338 -0.0001 0.0000
# 3 37.7532 37.7532 101.6052 0.0000 0.0000 0.0000
# 4 1.8338 -1.8338 0.0000 30.2167 0.0000 -0.0001
# 5 0.0001 -0.0001 0.0000 0.0000 30.2167 1.8338
# 6 0.0000 0.0000 0.0000 -0.0001 1.8338 25.9446
#
#
#
# Elastic Compliance Matrix: (Units=1/GPa)
#
#
# Indices 1 2 3 4 5 6 
#
# 1 0.014468 -0.004886 -0.003560 -0.001175 0.000000 0.000000
# 2 -0.004886 0.014468 -0.003560 0.001175 0.000000 0.000000
# 3 -0.003560 -0.003560 0.012488 0.000000 0.000000 0.000000
# 4 -0.001175 0.001175 0.000000 0.033237 0.000000 0.000000
# 5 0.000000 0.000000 0.000000 0.000000 0.033237 -0.002349
# 6 0.000000 0.000000 0.000000 0.000000 -0.002349 0.038710
#
#
# Mechanical properties :
#
#
# Convention : Reuss Voigt Hill
#
# Bulk Modulus (GPa) = 57.43674 57.49473 57.46574
# Shear Modulus (GPa) = 28.34050 28.61836 28.47943
#
# Velocity S-wave (km/s) = 3.75177 3.77012 3.76095
# Velocity P-wave (km/s) = 6.87711 6.89256 6.88484
#
# Compressibility (1/GPa) = 0.01741046
#
# Stress axis : x y z
#
# Youngs Moduli (GPa) = 69.11582 69.11582 80.07776
#
# Poissons Ratio (x) = 0.33773 0.28511
# Poissons Ratio (y) = 0.33773 0.28511
# Poissons Ratio (z) = 0.24608 0.24608
#
# Static dielectric constant tensor:
#      x y z
#    x 1.742930 0.000000 0.000000 
#    y 0.000000 1.742930 0.000000 
#    z 0.000000 0.000000 1.745520 
# 
# From -- ./inp_files/8452.got.cif
#   From: 2010.05.17/outbox.cif.g08.bks.cpg/sg155_5_cif.got.tgz:8452.got - 2010.05.20 10:44:35.
