data_PCOD9576961
_publ_section_title
;
Structure prediction by ZEFSAII (Michael W. Deem and Ramdas Pophale) SiO2 
 PCOD9576961
Probable space group: R 3 2
;
_chemical_formula_sum "Si O2"
_cell_formula_units_Z 123
_cell_length_a 17.766710
_cell_length_b 17.766710
_cell_length_c 22.060785
_cell_angle_alpha 90.000000
_cell_angle_beta 90.000000
_cell_angle_gamma 120.000000
_cell_volume 6030.670785
_symmetry_space_group_name_H-M "R 3 2"
_symmetry_group_IT_number 155
_symmetry_cell_setting 'hexagonal'
loop_
_space_group_symop_operation_xyz
x,y,z
-y,x-y,z
-x+y,-x,z
x-y,-y,-z
-x,-x+y,-z
y,x,-z
2/3+x,1/3+y,1/3+z
2/3-y,1/3+x-y,1/3+z
2/3-x+y,1/3-x,1/3+z
2/3+x-y,1/3-y,1/3-z
2/3-x,1/3-x+y,1/3-z
2/3+y,1/3+x,1/3-z
1/3+x,2/3+y,2/3+z
1/3-y,2/3+x-y,2/3+z
1/3-x+y,2/3-x,2/3+z
1/3+x-y,2/3-y,2/3-z
1/3-x,2/3-x+y,2/3-z
1/3+y,2/3+x,2/3-z
loop_
_atom_site_type_symbol
_atom_site_label
_atom_site_fract_x
_atom_site_fract_y
_atom_site_fract_z
Si Si1 0.437073 0.512310 0.680321
Si Si2 0.293367 0.417203 0.466940
Si Si3 0.906388 0.386596 0.199487
Si Si4 0.932495 0.782896 0.550315
Si Si5 0.666667 0.575444 0.833334
Si Si6 0.666667 0.333334 0.259469
Si Si7 0.112045 0.201641 0.886729
Si Si8 0.562030 0.904199 0.333276
O O1 0.333334 0.466726 0.666667
O O2 0.471645 0.579859 0.735119
O O3 0.470096 0.551324 0.614580
O O4 0.457762 0.435474 0.691378
O O5 0.217813 0.437661 0.483686
O O6 0.235982 0.312562 0.461610
O O7 0.362301 0.461818 0.521913
O O8 0.340783 0.459060 0.403809
O O9 0.836859 0.289507 0.181090
O O10 0.003631 0.403780 0.201491
O O11 0.840678 0.777487 0.540750
O O12 0.968299 0.807786 0.618294
O O13 0.000000 0.844860 0.500000
O O14 0.666668 0.333334 0.333334
O O15 0.729735 0.431498 0.235573
O O16 0.666667 0.949107 0.333334
#
# Coordination Sequence:
#
# PCOD9576961 Si02
#       8
#    18  18  18  18   9   6  18  18
#     4  11  20  36  60  95 126 161 221 275 307 377
#     4  10  21  36  59  91 128 165 214 267 315 389
#     4  11  22  40  57  92 136 176 212 265 337 395
#     4  10  21  43  70  90 115 160 215 275 332 390
#     4  10  24  42  66  90 128 164 208 280 350 394
#     4  12  21  36  57  87 132 189 220 257 295 378
#     4  12  22  35  60  92 131 177 220 253 313 384
#     4   9  20  35  60  90 115 152 210 266 325 375
#
# _framework density 20.395741000000001
#
# number of rings (size 3 to 8) (size 9 to 14) (size 15 to 20)
#    0.000    1.463    2.927    3.512    4.098    1.171 
#    0.439   10.244    0.000    0.000    0.000    0.000 
#    0.000    0.000    0.000    0.000    0.000    0.000 
#
# Total GULP energy -228663.378498 kJ/mol
# GULP energy per Si atom -5577.155573 kJ/mol
# Density = 2.034932 g / cm^3
# Si number density = 20.395741 Si / 1000 Ang^3
#
#
#
# Elastic Constant Matrix: (Units=GPa)
#
#
# Indices 1 2 3 4 5 6 
#
# 1 70.9709 17.7095 12.3584 0.3736 0.0000 0.0000
# 2 17.7095 70.9714 12.3585 -0.3737 0.0001 0.0000
# 3 12.3584 12.3585 71.6992 0.0000 0.0000 0.0000
# 4 0.3736 -0.3737 0.0000 19.6734 0.0000 0.0001
# 5 0.0000 0.0001 0.0000 0.0000 19.6734 0.3735
# 6 0.0000 0.0000 0.0000 0.0001 0.3735 26.6308
#
#
#
# Elastic Compliance Matrix: (Units=1/GPa)
#
#
# Indices 1 2 3 4 5 6 
#
# 1 0.015313 -0.003467 -0.002042 -0.000357 0.000000 0.000000
# 2 -0.003467 0.015313 -0.002042 0.000357 0.000000 0.000000
# 3 -0.002042 -0.002042 0.014651 0.000000 0.000000 0.000000
# 4 -0.000357 0.000357 0.000000 0.050844 0.000000 0.000000
# 5 0.000000 0.000000 0.000000 0.000000 0.050844 -0.000713
# 6 0.000000 0.000000 0.000000 0.000000 -0.000713 0.037561
#
#
# Mechanical properties :
#
#
# Convention : Reuss Voigt Hill
#
# Bulk Modulus (GPa) = 33.14003 33.16603 33.15303
# Shear Modulus (GPa) = 23.84535 24.60986 24.22761
#
# Velocity S-wave (km/s) = 3.42297 3.47741 3.45030
# Velocity P-wave (km/s) = 5.64855 5.69383 5.67123
#
# Compressibility (1/GPa) = 0.03017499
#
# Stress axis : x y z
#
# Youngs Moduli (GPa) = 65.30442 65.30475 68.25472
#
# Poissons Ratio (x) = 0.22644 0.13936
# Poissons Ratio (y) = 0.22643 0.13936
# Poissons Ratio (z) = 0.13333 0.13334
#
# Static dielectric constant tensor:
#      x y z
#    x 1.752540 0.000000 0.000000 
#    y 0.000000 1.752540 0.000000 
#    z 0.000000 0.000000 1.812490 
# 
# From -- ./inp_files/7567.got.cif
#   From: 2010.05.17/outbox.cif.g08.bks.cpg/sg155_4_cif.got.tgz:7567.got - 2010.05.20 10:44:35.
