data_PCOD9576417
_publ_section_title
;
Structure prediction by ZEFSAII (Michael W. Deem and Ramdas Pophale) SiO2 
 PCOD9576417
Probable space group: P 32 2 1
;
_chemical_formula_sum "Si O2"
_cell_formula_units_Z 36
_cell_length_a 8.935456
_cell_length_b 8.935456
_cell_length_c 21.467507
_cell_angle_alpha 90.000000
_cell_angle_beta 90.000000
_cell_angle_gamma 120.000000
_cell_volume 1484.382023
_symmetry_space_group_name_H-M "P 32 2 1"
_symmetry_group_IT_number 154
_symmetry_cell_setting 'hexagonal'
loop_
_space_group_symop_operation_xyz
x,y,z
-y,x-y,2/3+z
-x+y,-x,1/3+z
x-y,-y,1/3-z
-x,-x+y,2/3-z
y,x,-z
loop_
_atom_site_type_symbol
_atom_site_label
_atom_site_fract_x
_atom_site_fract_y
_atom_site_fract_z
Si Si1 0.152189 0.504690 0.056029
Si Si2 0.972452 0.693913 0.039914
Si Si3 0.029517 0.727664 0.454873
Si Si4 0.000000 0.956479 0.833334
Si Si5 0.375895 0.742924 0.592892
Si Si6 0.367140 0.206173 0.409081
Si Si7 0.921995 0.000000 0.666667
O O1 0.103783 0.649187 0.075174
O O2 0.963666 0.329126 0.045358
O O3 0.240473 0.461676 0.113248
O O4 0.273772 0.557291 0.994661
O O5 0.778609 0.561325 0.060375
O O6 0.031454 0.891048 0.026949
O O7 0.014377 0.654284 0.969540
O O8 0.888499 0.530653 0.446498
O O9 0.019469 0.851847 0.507513
O O10 0.012739 0.815743 0.391132
O O11 0.064267 0.870943 0.884835
O O12 0.299412 0.555392 0.560503
#
# Coordination Sequence:
#
# PCOD9576417 Si02
#       7
#     6   6   6   3   6   6   3
#     4   9  17  34  52  79 115 147 185 244 292 331
#     4  10  20  31  54  87 110 143 194 250 288 335
#     4  11  20  36  58  84 115 159 194 245 291 354
#     4  10  20  36  58  80 124 170 194 216 302 386
#     4  10  19  31  58  87 114 141 201 257 286 323
#     4   9  18  36  55  80 113 160 191 228 296 362
#     4  12  20  34  56  86 114 144 206 244 286 348
#
# _framework density 24.252516
#
# number of rings (size 3 to 8) (size 9 to 14) (size 15 to 20)
#    0.000    2.000    5.000    0.000    2.333    0.667 
#    0.000    0.000    0.000   18.000    0.000    0.000 
#    0.000    0.000    0.000    0.000    0.000    0.000 
#
# Total GULP energy -200592.452697 kJ/mol
# GULP energy per Si atom -5572.012575 kJ/mol
# Density = 2.419732 g / cm^3
# Si number density = 24.252516 Si / 1000 Ang^3
#
#
#
# Elastic Constant Matrix: (Units=GPa)
#
#
# Indices 1 2 3 4 5 6 
#
# 1 141.3695 69.7018 26.7934 -10.6263 0.0000 0.0000
# 2 69.7018 141.3695 26.7934 10.6263 0.0000 0.0000
# 3 26.7934 26.7934 63.4815 0.0000 0.0000 0.0000
# 4 -10.6263 10.6263 0.0000 33.2475 0.0000 0.0000
# 5 0.0000 0.0000 0.0000 0.0000 33.2475 -10.6263
# 6 0.0000 0.0000 0.0000 0.0000 -10.6263 35.8338
#
#
#
# Elastic Compliance Matrix: (Units=1/GPa)
#
#
# Indices 1 2 3 4 5 6 
#
# 1 0.010360 -0.005054 -0.002240 0.004927 0.000000 0.000000
# 2 -0.005054 0.010360 -0.002240 -0.004927 0.000000 0.000000
# 3 -0.002240 -0.002240 0.017643 0.000000 0.000000 0.000000
# 4 0.004927 -0.004927 0.000000 0.033227 0.000000 0.000000
# 5 0.000000 0.000000 0.000000 0.000000 0.033227 0.009853
# 6 0.000000 0.000000 0.000000 0.000000 0.009853 0.030828
#
#
# Mechanical properties :
#
#
# Convention : Reuss Voigt Hill
#
# Bulk Modulus (GPa) = 51.82064 65.86640 58.84352
# Shear Modulus (GPa) = 31.02808 35.32788 33.17798
#
# Velocity S-wave (km/s) = 3.58072 3.82077 3.70269
# Velocity P-wave (km/s) = 6.20555 6.83242 6.52652
#
# Compressibility (1/GPa) = 0.01929733
#
# Stress axis : x y z
#
# Youngs Moduli (GPa) = 96.52246 96.52246 56.67920
#
# Poissons Ratio (x) = 0.48782 0.12694
# Poissons Ratio (y) = 0.48782 0.12694
# Poissons Ratio (z) = 0.21617 0.21617
#
# Static dielectric constant tensor:
#      x y z
#    x 1.991050 0.000000 0.000000 
#    y 0.000000 1.991050 0.000000 
#    z 0.000000 0.000000 2.218790 
# 
# From -- ./inp_files/3662.got.cif
#   From: 2010.05.17/outbox.cif.g08.bks.cpg/sg154_2_cif.got.tgz:3662.got - 2010.05.20 10:41:43.
