data_PCOD9576952
_publ_section_title
;
Structure prediction by ZEFSAII (Michael W. Deem and Ramdas Pophale) SiO2 
 PCOD9576952
Probable space group: R 3 2
;
_chemical_formula_sum "Si O2"
_cell_formula_units_Z 81
_cell_length_a 17.880327
_cell_length_b 17.880327
_cell_length_c 12.755055
_cell_angle_alpha 90.000000
_cell_angle_beta 90.000000
_cell_angle_gamma 120.000000
_cell_volume 3531.537981
_symmetry_space_group_name_H-M "R 3 2"
_symmetry_group_IT_number 155
_symmetry_cell_setting 'hexagonal'
loop_
_space_group_symop_operation_xyz
x,y,z
-y,x-y,z
-x+y,-x,z
x-y,-y,-z
-x,-x+y,-z
y,x,-z
2/3+x,1/3+y,1/3+z
2/3-y,1/3+x-y,1/3+z
2/3-x+y,1/3-x,1/3+z
2/3+x-y,1/3-y,1/3-z
2/3-x,1/3-x+y,1/3-z
2/3+y,1/3+x,1/3-z
1/3+x,2/3+y,2/3+z
1/3-y,2/3+x-y,2/3+z
1/3-x+y,2/3-x,2/3+z
1/3+x-y,2/3-y,2/3-z
1/3-x,2/3-x+y,2/3-z
1/3+y,2/3+x,2/3-z
loop_
_atom_site_type_symbol
_atom_site_label
_atom_site_fract_x
_atom_site_fract_y
_atom_site_fract_z
Si Si1 0.666667 0.593122 0.333334
Si Si2 0.239789 0.206703 0.120934
Si Si3 0.070488 0.516766 0.859526
Si Si4 0.569217 0.731363 0.924925
Si Si5 0.436687 0.873020 0.184642
O O1 0.607845 0.521689 0.248772
O O2 0.735788 0.678674 0.272638
O O3 0.333334 0.272515 0.166667
O O4 0.174064 0.223592 0.184687
O O5 0.228269 0.114067 0.155877
O O6 0.224333 0.224333 0.000000
O O7 0.133441 0.501907 0.934435
O O8 0.966675 0.471538 0.872598
O O9 0.565633 0.782530 0.025560
O O10 0.333334 0.812734 0.166667
O O11 0.490132 0.823465 0.166667
#
# Coordination Sequence:
#
# PCOD9576952 Si02
#       5
#     9  18  18  18  18
#     4  10  20  44  74 102 140 196 262 318 376 468
#     4  12  26  46  72 107 153 199 251 327 406 477
#     4  11  22  41  71 102 138 191 254 309 384 472
#     4  11  24  45  75 107 144 201 267 323 392 478
#     4  11  25  45  71 106 153 197 249 325 406 483
#
# _framework density 22.936184000000001
#
# number of rings (size 3 to 8) (size 9 to 14) (size 15 to 20)
#    0.000    0.889    0.000    9.556    3.111    0.000 
#    3.333    0.000    2.444    0.000    0.000    0.000 
#    0.000    0.000    0.000    0.000    0.000    0.000 
#
# Total GULP energy -150744.979565 kJ/mol
# GULP energy per Si atom -5583.147391 kJ/mol
# Density = 2.288398 g / cm^3
# Si number density = 22.936184 Si / 1000 Ang^3
#
#
#
# Elastic Constant Matrix: (Units=GPa)
#
#
# Indices 1 2 3 4 5 6 
#
# 1 156.9208 102.5720 28.8097 2.7945 -0.0002 0.0000
# 2 102.5720 156.9208 28.8097 -2.7945 0.0002 0.0000
# 3 28.8097 28.8097 99.6137 0.0000 0.0000 0.0000
# 4 2.7945 -2.7945 0.0000 33.6323 0.0000 0.0002
# 5 -0.0002 0.0002 0.0000 0.0000 33.6323 2.7945
# 6 0.0000 0.0000 0.0000 0.0002 2.7945 27.1744
#
#
#
# Elastic Compliance Matrix: (Units=1/GPa)
#
#
# Indices 1 2 3 4 5 6 
#
# 1 0.011338 -0.007220 -0.001191 -0.001542 0.000000 0.000000
# 2 -0.007220 0.011338 -0.001191 0.001542 0.000000 0.000000
# 3 -0.001191 -0.001191 0.010728 0.000000 0.000000 0.000000
# 4 -0.001542 0.001542 0.000000 0.029990 0.000000 0.000000
# 5 0.000000 0.000000 0.000000 0.000000 0.029990 -0.003084
# 6 0.000000 0.000000 0.000000 0.000000 -0.003084 0.037116
#
#
# Mechanical properties :
#
#
# Convention : Reuss Voigt Hill
#
# Bulk Modulus (GPa) = 70.42317 81.53757 75.98037
# Shear Modulus (GPa) = 32.37560 35.77204 34.07382
#
# Velocity S-wave (km/s) = 3.76114 3.95350 3.85852
# Velocity P-wave (km/s) = 7.04501 7.51447 7.28352
#
# Compressibility (1/GPa) = 0.01419987
#
# Stress axis : x y z
#
# Youngs Moduli (GPa) = 88.19750 88.19750 93.21664
#
# Poissons Ratio (x) = 0.63679 0.11102
# Poissons Ratio (y) = 0.63679 0.11102
# Poissons Ratio (z) = 0.10505 0.10505
#
# Static dielectric constant tensor:
#      x y z
#    x 1.834360 0.000000 0.000000 
#    y 0.000000 1.834360 0.000000 
#    z 0.000000 0.000000 2.019090 
# 
# From -- ./inp_files/4991.got.cif
#   From: 2010.05.17/outbox.cif.g08.bks.cpg/sg155_3_cif.got.tgz:4991.got - 2010.05.20 10:44:35.
