data_PCOD9576741
_publ_section_title
;
Structure prediction by ZEFSAII (Michael W. Deem and Ramdas Pophale) SiO2 
 PCOD9576741
Probable space group: P 32 2 1
;
_chemical_formula_sum "Si O2"
_cell_formula_units_Z 15
_cell_length_a 7.315862
_cell_length_b 7.315862
_cell_length_c 12.566085
_cell_angle_alpha 90.000000
_cell_angle_beta 90.000000
_cell_angle_gamma 120.000000
_cell_volume 582.454003
_symmetry_space_group_name_H-M "P 32 2 1"
_symmetry_group_IT_number 154
_symmetry_cell_setting 'hexagonal'
loop_
_space_group_symop_operation_xyz
x,y,z
-y,x-y,2/3+z
-x+y,-x,1/3+z
x-y,-y,1/3-z
-x,-x+y,2/3-z
y,x,-z
loop_
_atom_site_type_symbol
_atom_site_label
_atom_site_fract_x
_atom_site_fract_y
_atom_site_fract_z
Si Si1 0.330780 0.054107 0.890711
Si Si2 0.604973 0.284074 0.100024
Si Si3 0.820249 0.820249 0.500000
O O1 0.255666 0.807231 0.889147
O O2 0.468566 0.160191 0.784474
O O3 0.476525 0.176848 0.992711
O O4 0.102513 0.141943 0.106421
O O5 0.422931 0.178740 0.191468
#
# Coordination Sequence:
#
# PCOD9576741 Si02
#       3
#     6   6   3
#     4  12  28  52  86 120 176 223 285 353 427 510
#     4  12  27  53  81 124 167 225 280 349 427 504
#     4  12  26  52  80 120 164 226 276 346 424 506
#
# _framework density 25.753108000000001
#
# number of rings (size 3 to 8) (size 9 to 14) (size 15 to 20)
#    0.000    0.000    4.000    4.800    0.000    0.000 
#    7.200    0.000    0.000    0.000    0.000    0.000 
#    0.000    0.000    0.000    0.000    0.000    0.000 
#
# Total GULP energy -83603.814234 kJ/mol
# GULP energy per Si atom -5573.587616 kJ/mol
# Density = 2.569449 g / cm^3
# Si number density = 25.753108 Si / 1000 Ang^3
#
#
#
# Elastic Constant Matrix: (Units=GPa)
#
#
# Indices 1 2 3 4 5 6 
#
# 1 195.8894 121.2697 85.7216 -5.5200 0.0000 0.0000
# 2 121.2697 195.8894 85.7216 5.5200 0.0000 0.0000
# 3 85.7216 85.7216 81.7124 0.0000 0.0000 0.0000
# 4 -5.5200 5.5200 0.0000 9.1224 0.0000 0.0000
# 5 0.0000 0.0000 0.0000 0.0000 9.1224 -5.5200
# 6 0.0000 0.0000 0.0000 0.0000 -5.5200 37.3098
#
#
#
# Elastic Compliance Matrix: (Units=1/GPa)
#
#
# Indices 1 2 3 4 5 6 
#
# 1 0.011001 -0.003718 -0.007640 0.008907 0.000000 0.000000
# 2 -0.003718 0.011001 -0.007640 -0.008907 0.000000 0.000000
# 3 -0.007640 -0.007640 0.028269 0.000000 0.000000 0.000000
# 4 0.008907 -0.008907 0.000000 0.120399 0.000000 0.000000
# 5 0.000000 0.000000 0.000000 0.000000 0.120399 0.017813
# 6 0.000000 0.000000 0.000000 0.000000 0.017813 0.029438
#
#
# Mechanical properties :
#
#
# Convention : Reuss Voigt Hill
#
# Bulk Modulus (GPa) = 81.47895 117.65746 99.56820
# Shear Modulus (GPa) = 13.78949 23.16283 18.47616
#
# Velocity S-wave (km/s) = 2.31649 3.00228 2.68140
# Velocity P-wave (km/s) = 6.23394 7.60291 6.95220
#
# Compressibility (1/GPa) = 0.01227311
#
# Stress axis : x y z
#
# Youngs Moduli (GPa) = 90.90026 90.90026 35.37482
#
# Poissons Ratio (x) = 0.33796 0.27028
# Poissons Ratio (y) = 0.33796 0.27028
# Poissons Ratio (z) = 0.69452 0.69452
#
# Static dielectric constant tensor:
#      x y z
#    x 2.020970 0.000000 0.000000 
#    y 0.000000 2.020970 0.000000 
#    z 0.000000 0.000000 2.223230 
# 
# From -- ./inp_files/712.got.cif
#   From: 2010.05.17/outbox.cif.g08.bks.cpg/sg154_1_cif.got.tgz:712.got - 2010.05.20 10:41:43.
