data_PCOD9576692
_publ_section_title
;
Structure prediction by ZEFSAII (Michael W. Deem and Ramdas Pophale) SiO2 
 PCOD9576692
Probable space group: P 32 2 1
;
_chemical_formula_sum "Si O2"
_cell_formula_units_Z 24
_cell_length_a 7.154929
_cell_length_b 7.154929
_cell_length_c 18.968403
_cell_angle_alpha 90.000000
_cell_angle_beta 90.000000
_cell_angle_gamma 120.000000
_cell_volume 840.953644
_symmetry_space_group_name_H-M "P 32 2 1"
_symmetry_group_IT_number 154
_symmetry_cell_setting 'hexagonal'
loop_
_space_group_symop_operation_xyz
x,y,z
-y,x-y,2/3+z
-x+y,-x,1/3+z
x-y,-y,1/3-z
-x,-x+y,2/3-z
y,x,-z
loop_
_atom_site_type_symbol
_atom_site_label
_atom_site_fract_x
_atom_site_fract_y
_atom_site_fract_z
Si Si1 0.479891 0.222250 0.061266
Si Si2 0.684984 0.623616 0.903445
Si Si3 0.636382 0.161961 0.875764
Si Si4 0.718132 0.896436 0.319142
O O1 0.590149 0.477718 0.053312
O O2 0.406060 0.213750 0.141777
O O3 0.674908 0.175585 0.057280
O O4 0.295974 0.059668 0.007695
O O5 0.684865 0.396660 0.901331
O O6 0.604748 0.641972 0.824500
O O7 0.909281 0.801056 0.937409
O O8 0.695135 0.053673 0.938770
#
# Coordination Sequence:
#
# PCOD9576692 Si02
#       4
#     6   6   6   6
#     4  10  27  49  94 135 182 246 316 390 482 565
#     4  10  26  51  91 134 183 245 319 379 491 562
#     4  10  25  53  86 133 187 240 317 396 462 576
#     4  12  23  52  95 128 187 254 310 401 473 577
#
# _framework density 28.539031000000001
#
# number of rings (size 3 to 8) (size 9 to 14) (size 15 to 20)
#    1.500    0.000    2.500    0.750    3.500    1.000 
#    4.500    5.000   22.000    0.000    0.000    0.000 
#    0.000    0.000    0.000    0.000    0.000    0.000 
#
# Total GULP energy -134256.150676 kJ/mol
# GULP energy per Si atom -5594.006278 kJ/mol
# Density = 2.847408 g / cm^3
# Si number density = 28.539031 Si / 1000 Ang^3
#
#
#
# Elastic Constant Matrix: (Units=GPa)
#
#
# Indices 1 2 3 4 5 6 
#
# 1 172.4187 54.4577 32.2769 0.1132 0.0000 0.0000
# 2 54.4577 172.4187 32.2769 -0.1132 0.0000 0.0000
# 3 32.2769 32.2769 124.4154 0.0000 0.0000 0.0000
# 4 0.1132 -0.1132 0.0000 68.9533 0.0000 0.0000
# 5 0.0000 0.0000 0.0000 0.0000 68.9533 0.1132
# 6 0.0000 0.0000 0.0000 0.0000 0.1132 58.9805
#
#
#
# Elastic Compliance Matrix: (Units=1/GPa)
#
#
# Indices 1 2 3 4 5 6 
#
# 1 0.006618 -0.001859 -0.001235 -0.000014 0.000000 0.000000
# 2 -0.001859 0.006618 -0.001235 0.000014 0.000000 0.000000
# 3 -0.001235 -0.001235 0.008678 0.000000 0.000000 0.000000
# 4 -0.000014 0.000014 0.000000 0.014503 0.000000 0.000000
# 5 0.000000 0.000000 0.000000 0.000000 0.014503 -0.000028
# 6 0.000000 0.000000 0.000000 0.000000 -0.000028 0.016955
#
#
# Mechanical properties :
#
#
# Convention : Reuss Voigt Hill
#
# Bulk Modulus (GPa) = 75.42803 78.58620 77.00712
# Shear Modulus (GPa) = 61.76598 62.72684 62.24641
#
# Velocity S-wave (km/s) = 4.65721 4.69330 4.67529
# Velocity P-wave (km/s) = 7.44356 7.54755 7.49574
#
# Compressibility (1/GPa) = 0.01325767
#
# Stress axis : x y z
#
# Youngs Moduli (GPa) = 151.09869 151.09869 115.23154
#
# Poissons Ratio (x) = 0.28092 0.14227
# Poissons Ratio (y) = 0.28092 0.14227
# Poissons Ratio (z) = 0.18655 0.18655
#
# Static dielectric constant tensor:
#      x y z
#    x 2.210930 0.000000 0.000000 
#    y 0.000000 2.210930 0.000000 
#    z 0.000000 0.000000 2.237020 
# 
# From -- ./inp_files/2650.got.cif
#   From: 2010.05.17/outbox.cif.g08.bks.cpg/sg154_2_cif.got.tgz:2650.got - 2010.05.20 10:41:43.
