data_PCOD9576869
_publ_section_title
;
Structure prediction by ZEFSAII (Michael W. Deem and Ramdas Pophale) SiO2 
 PCOD9576869
Probable space group: R 3 2
;
_chemical_formula_sum "Si O2"
_cell_formula_units_Z 75
_cell_length_a 14.336468
_cell_length_b 14.336468
_cell_length_c 21.362362
_cell_angle_alpha 90.000000
_cell_angle_beta 90.000000
_cell_angle_gamma 120.000000
_cell_volume 3802.456385
_symmetry_space_group_name_H-M "R 3 2"
_symmetry_group_IT_number 155
_symmetry_cell_setting 'hexagonal'
loop_
_space_group_symop_operation_xyz
x,y,z
-y,x-y,z
-x+y,-x,z
x-y,-y,-z
-x,-x+y,-z
y,x,-z
2/3+x,1/3+y,1/3+z
2/3-y,1/3+x-y,1/3+z
2/3-x+y,1/3-x,1/3+z
2/3+x-y,1/3-y,1/3-z
2/3-x,1/3-x+y,1/3-z
2/3+y,1/3+x,1/3-z
1/3+x,2/3+y,2/3+z
1/3-y,2/3+x-y,2/3+z
1/3-x+y,2/3-x,2/3+z
1/3+x-y,2/3-y,2/3-z
1/3-x,2/3-x+y,2/3-z
1/3+y,2/3+x,2/3-z
loop_
_atom_site_type_symbol
_atom_site_label
_atom_site_fract_x
_atom_site_fract_y
_atom_site_fract_z
Si Si1 0.226016 0.044650 0.730668
Si Si2 0.000000 0.159072 0.000000
Si Si3 0.000000 0.602888 0.000000
Si Si4 0.000000 0.000000 0.775496
Si Si5 0.000000 0.000000 0.919732
Si Si6 0.458719 0.950410 0.284188
Si Si7 0.271527 0.000000 0.500000
O O1 0.282117 0.171820 0.716492
O O2 0.298329 0.031400 0.783785
O O3 0.202148 0.975265 0.666564
O O4 0.106898 0.003027 0.754073
O O5 0.085518 0.259784 0.038245
O O6 0.946261 0.065003 0.051453
O O7 0.102621 0.711248 0.029045
O O8 0.000000 0.000000 0.848532
O O9 0.412102 0.918394 0.213326
#
# Coordination Sequence:
#
# PCOD9576869 Si02
#       7
#    18   9   9   6   6  18   9
#     4  12  25  46  71  96 148 186 234 300 373 436
#     4  10  19  43  64  96 138 180 214 303 363 420
#     4  12  25  47  72 108 138 194 252 301 369 444
#     4  12  25  43  69 109 136 186 241 299 364 450
#     4  10  22  36  66  99 133 166 232 278 364 442
#     4  12  24  44  73  99 144 187 240 302 365 443
#     4  12  24  46  72 100 140 196 236 298 374 446
#
# _framework density 19.724093
#
# number of rings (size 3 to 8) (size 9 to 14) (size 15 to 20)
#    0.000    0.480    7.200    2.880    0.000    0.960 
#    0.000    0.000    0.000    0.000    0.000    0.000 
#    0.000    0.000    0.000    0.000    0.000    0.000 
#
# Total GULP energy -139262.913307 kJ/mol
# GULP energy per Si atom -5570.516532 kJ/mol
# Density = 1.967920 g / cm^3
# Si number density = 19.724093 Si / 1000 Ang^3
#
#
#
# Elastic Constant Matrix: (Units=GPa)
#
#
# Indices 1 2 3 4 5 6 
#
# 1 106.1994 28.0395 49.3718 -0.5826 0.0000 0.0000
# 2 28.0395 106.1994 49.3718 0.5826 0.0000 0.0000
# 3 49.3718 49.3718 149.7189 0.0000 0.0000 0.0000
# 4 -0.5826 0.5826 0.0000 33.6354 0.0000 0.0000
# 5 0.0000 0.0000 0.0000 0.0000 33.6354 -0.5826
# 6 0.0000 0.0000 0.0000 0.0000 -0.5826 39.0799
#
#
#
# Elastic Compliance Matrix: (Units=1/GPa)
#
#
# Indices 1 2 3 4 5 6 
#
# 1 0.011316 -0.001481 -0.003243 0.000222 0.000000 0.000000
# 2 -0.001481 0.011316 -0.003243 -0.000222 0.000000 0.000000
# 3 -0.003243 -0.003243 0.008818 0.000000 0.000000 0.000000
# 4 0.000222 -0.000222 0.000000 0.029738 0.000000 0.000000
# 5 0.000000 0.000000 0.000000 0.000000 0.029738 0.000443
# 6 0.000000 0.000000 0.000000 0.000000 0.000443 0.025595
#
#
# Mechanical properties :
#
#
# Convention : Reuss Voigt Hill
#
# Bulk Modulus (GPa) = 64.45227 68.40931 66.43079
# Shear Modulus (GPa) = 36.32934 36.95913 36.64424
#
# Velocity S-wave (km/s) = 4.29636 4.33344 4.31494
# Velocity P-wave (km/s) = 7.57361 7.73284 7.65364
#
# Compressibility (1/GPa) = 0.01551536
#
# Stress axis : x y z
#
# Youngs Moduli (GPa) = 88.36785 88.36785 113.40204
#
# Poissons Ratio (x) = 0.13090 0.36779
# Poissons Ratio (y) = 0.13090 0.36779
# Poissons Ratio (z) = 0.28660 0.28660
#
# Static dielectric constant tensor:
#      x y z
#    x 1.708050 0.000000 0.000000 
#    y 0.000000 1.708050 0.000000 
#    z 0.000000 0.000000 1.758260 
# 
# From -- ./inp_files/6868.got.cif
#   From: 2010.05.17/outbox.cif.g08.bks.cpg/sg155_4_cif.got.tgz:6868.got - 2010.05.20 10:44:35.
