data_PCOD9576418
_publ_section_title
;
Structure prediction by ZEFSAII (Michael W. Deem and Ramdas Pophale) SiO2 
 PCOD9576418
Probable space group: P 32 2 1
;
_chemical_formula_sum "Si O2"
_cell_formula_units_Z 48
_cell_length_a 11.221738
_cell_length_b 11.221738
_cell_length_c 19.488164
_cell_angle_alpha 90.000000
_cell_angle_beta 90.000000
_cell_angle_gamma 120.000000
_cell_volume 2125.307657
_symmetry_space_group_name_H-M "P 32 2 1"
_symmetry_group_IT_number 154
_symmetry_cell_setting 'hexagonal'
loop_
_space_group_symop_operation_xyz
x,y,z
-y,x-y,2/3+z
-x+y,-x,1/3+z
x-y,-y,1/3-z
-x,-x+y,2/3-z
y,x,-z
loop_
_atom_site_type_symbol
_atom_site_label
_atom_site_fract_x
_atom_site_fract_y
_atom_site_fract_z
Si Si1 0.183493 0.033405 0.373867
Si Si2 0.492748 0.919439 0.898816
Si Si3 0.784216 0.454681 0.590363
Si Si4 0.751980 0.838889 0.444308
Si Si5 0.486665 0.288916 0.407770
Si Si6 0.628130 0.107451 0.267314
Si Si7 0.231322 0.069665 0.594741
Si Si8 0.841790 0.121530 0.510318
O O1 0.151714 0.894717 0.412282
O O2 0.826647 0.839304 0.374505
O O3 0.337480 0.157800 0.388763
O O4 0.094932 0.100992 0.401812
O O5 0.535682 0.082434 0.891136
O O6 0.339853 0.793816 0.884765
O O7 0.590994 0.888660 0.850238
O O8 0.512488 0.907654 0.982036
O O9 0.836087 0.615613 0.580616
O O10 0.776546 0.425141 0.671419
O O11 0.623624 0.394106 0.572071
O O12 0.722812 0.722812 0.500000
O O13 0.827766 0.976423 0.488751
O O14 0.460046 0.412034 0.429200
O O15 0.783836 0.148186 0.254691
O O16 0.227891 0.000000 0.666667
O O17 0.225722 0.970662 0.535336
#
# Coordination Sequence:
#
# PCOD9576418 Si02
#       8
#     6   6   6   6   6   6   6   6
#     4  10  20  32  50  82 112 151 189 239 292 355
#     4   9  16  31  54  81 107 151 195 232 284 357
#     4   8  16  30  51  81 107 140 192 239 289 337
#     4  10  19  32  51  78 116 147 186 238 299 357
#     4   8  16  31  53  75 110 147 193 234 278 355
#     4   9  16  30  54  83 112 145 187 241 294 337
#     4  11  17  30  50  84 120 145 183 240 297 353
#     4  11  20  30  53  82 114 149 191 237 294 357
#
# _framework density 22.584965
#
# number of rings (size 3 to 8) (size 9 to 14) (size 15 to 20)
#    0.000    2.500    2.500    2.625    0.000    0.000 
#    0.000    2.500    8.250    0.000    0.000    3.500 
#    0.000    0.000    0.000    0.000    0.000    0.000 
#
# Total GULP energy -267354.384169 kJ/mol
# GULP energy per Si atom -5569.883004 kJ/mol
# Density = 2.253356 g / cm^3
# Si number density = 22.584965 Si / 1000 Ang^3
#
#
#
# Elastic Constant Matrix: (Units=GPa)
#
#
# Indices 1 2 3 4 5 6 
#
# 1 90.8876 42.7744 30.3018 -0.1274 -0.0011 0.0000
# 2 42.7744 90.8876 30.3018 0.1274 0.0011 0.0000
# 3 30.3018 30.3018 93.4555 0.0000 0.0000 0.0000
# 4 -0.1274 0.1274 0.0000 -12.3075 0.0000 0.0011
# 5 -0.0011 0.0011 0.0000 0.0000 -12.3075 -0.1274
# 6 0.0000 0.0000 0.0000 0.0011 -0.1274 24.0566
#
#
#
# Elastic Compliance Matrix: (Units=1/GPa)
#
#
# Indices 1 2 3 4 5 6 
#
# 1 0.014777 -0.006006 -0.002844 -0.000215 -0.000002 0.000000
# 2 -0.006006 0.014777 -0.002844 0.000215 0.000002 0.000000
# 3 -0.002844 -0.002844 0.012544 0.000000 0.000000 0.000000
# 4 -0.000215 0.000215 0.000000 -0.081247 0.000000 0.000004
# 5 -0.000002 0.000002 0.000000 0.000000 -0.081247 -0.000430
# 6 0.000000 0.000000 0.000000 0.000004 -0.000430 0.041566
#
#
# Mechanical properties :
#
#
# Convention : Reuss Voigt Hill
#
# Bulk Modulus (GPa) = 53.44474 53.55409 53.49942
# Shear Modulus (GPa) = -101.61662 11.34519 -45.13572
#
# Velocity S-wave (km/s) = -6.71496 2.24371 -4.47529
# Velocity P-wave (km/s) = 6.03372 5.52051 1.72187
#
# Compressibility (1/GPa) = 0.01871091
#
# Stress axis : x y z
#
# Youngs Moduli (GPa) = 67.67233 67.67233 79.71636
#
# Poissons Ratio (x) = 0.40645 0.22670
# Poissons Ratio (y) = 0.40645 0.22670
# Poissons Ratio (z) = 0.19245 0.19245
#
# Static dielectric constant tensor:
#      x y z
#    x 1.907340 0.000000 0.000000 
#    y 0.000000 1.907340 0.000000 
#    z 0.000000 0.000000 1.845310 
# 
# From -- ./inp_files/3540.got.cif
#   From: 2010.05.17/outbox.cif.g08.bks.cpg/sg154_2_cif.got.tgz:3540.got - 2010.05.20 10:41:43.
