data_PCOD9576297
_publ_section_title
;
Structure prediction by ZEFSAII (Michael W. Deem and Ramdas Pophale) SiO2 
 PCOD9576297
Probable space group: P 32 1 2
;
_chemical_formula_sum "Si O2"
_cell_formula_units_Z 42
_cell_length_a 9.115473
_cell_length_b 9.115473
_cell_length_c 28.571286
_cell_angle_alpha 90.000000
_cell_angle_beta 90.000000
_cell_angle_gamma 120.000000
_cell_volume 2055.979776
_symmetry_space_group_name_H-M "P 32 1 2"
_symmetry_group_IT_number 153
_symmetry_cell_setting 'hexagonal'
loop_
_space_group_symop_operation_xyz
x,y,z
-y,x-y,2/3+z
-x+y,-x,1/3+z
-y,-x,1/3-z
-x+y,y,2/3-z
x,x-y,-z
loop_
_atom_site_type_symbol
_atom_site_label
_atom_site_fract_x
_atom_site_fract_y
_atom_site_fract_z
Si Si1 0.119720 0.867343 0.454658
Si Si2 0.939828 0.989667 0.379691
Si Si3 0.467760 0.918560 0.923953
Si Si4 0.871983 0.680232 0.541866
Si Si5 0.654061 0.030500 0.649352
Si Si6 0.043086 0.523554 0.133635
Si Si7 0.381286 0.817521 0.096514
O O1 0.038729 0.927453 0.414280
O O2 0.997681 0.806534 0.500879
O O3 0.113469 0.697035 0.437587
O O4 0.324201 0.991827 0.458442
O O5 0.043467 0.086934 0.333334
O O6 0.777281 0.825645 0.357316
O O7 0.885915 0.091489 0.413696
O O8 0.484246 0.752435 0.922901
O O9 0.621918 0.061568 0.894960
O O10 0.435641 0.953260 0.976513
O O11 0.674429 0.568491 0.528881
O O12 0.778780 0.221221 0.666667
O O13 0.560349 0.981980 0.599890
O O14 0.183511 0.665801 0.098163
O O15 0.131394 0.566316 0.183949
#
# Coordination Sequence:
#
# PCOD9576297 Si02
#       7
#     6   6   6   6   6   6   6
#     4  11  22  45  69  97 137 183 225 276 345 423
#     4  11  23  43  68  94 135 180 226 274 352 411
#     4  11  23  41  68  98 136 175 228 281 342 403
#     4  12  24  42  69 104 133 174 230 298 335 403
#     4  11  21  40  66  95 129 189 218 271 345 419
#     4  10  22  38  67 100 132 177 230 278 340 412
#     4  10  20  40  64  99 129 177 231 272 329 424
#
# _framework density 20.428217
#
# number of rings (size 3 to 8) (size 9 to 14) (size 15 to 20)
#    0.000    1.143    5.714    2.143    2.000    1.143 
#    0.000    6.429    0.000    0.000    0.000    0.000 
#    0.000    0.000    0.000    0.000    0.000    0.000 
#
# Total GULP energy -234098.463608 kJ/mol
# GULP energy per Si atom -5573.772943 kJ/mol
# Density = 2.038172 g / cm^3
# Si number density = 20.428217 Si / 1000 Ang^3
#
#
#
# Elastic Constant Matrix: (Units=GPa)
#
#
# Indices 1 2 3 4 5 6 
#
# 1 48.4843 21.0563 15.3147 -0.0005 2.1745 0.0000
# 2 21.0563 48.4843 15.3147 0.0005 -2.1745 0.0000
# 3 15.3147 15.3147 115.9332 0.0000 0.0000 0.0000
# 4 -0.0005 0.0005 0.0000 43.0279 0.0000 -2.1745
# 5 2.1745 -2.1745 0.0000 0.0000 43.0279 -0.0005
# 6 0.0000 0.0000 0.0000 -2.1745 -0.0005 13.7140
#
#
#
# Elastic Compliance Matrix: (Units=1/GPa)
#
#
# Indices 1 2 3 4 5 6 
#
# 1 0.026011 -0.010743 -0.002017 0.000000 -0.001857 0.000000
# 2 -0.010743 0.026011 -0.002017 0.000000 0.001857 0.000000
# 3 -0.002017 -0.002017 0.009159 0.000000 0.000000 0.000000
# 4 0.000000 0.000000 0.000000 0.023428 0.000000 0.003715
# 5 -0.001857 0.001857 0.000000 0.000000 0.023428 0.000001
# 6 0.000000 0.000000 0.000000 0.003715 0.000001 0.073507
#
#
# Mechanical properties :
#
#
# Convention : Reuss Voigt Hill
#
# Bulk Modulus (GPa) = 31.61792 35.14147 33.37969
# Shear Modulus (GPa) = 22.55906 30.70170 26.63038
#
# Velocity S-wave (km/s) = 3.32672 3.88094 3.61447
# Velocity P-wave (km/s) = 5.50157 6.10917 5.81332
#
# Compressibility (1/GPa) = 0.03162763
#
# Stress axis : x y z
#
# Youngs Moduli (GPa) = 38.44518 38.44518 109.18775
#
# Poissons Ratio (x) = 0.41300 0.22023
# Poissons Ratio (y) = 0.41300 0.22023
# Poissons Ratio (z) = 0.07754 0.07754
#
# Static dielectric constant tensor:
#      x y z
#    x 1.765660 0.000000 0.000000 
#    y 0.000000 1.765660 0.000000 
#    z 0.000000 0.000000 1.709950 
# 
# From -- ./inp_files/5206.got.cif
#   From: 2010.05.17/outbox.cif.g08.bks.cpg/sg153_3_cif.got.tgz:5206.got - 2010.05.20 10:38:56.
