data_PCOD9576984
_publ_section_title
;
Structure prediction by ZEFSAII (Michael W. Deem and Ramdas Pophale) SiO2 
 PCOD9576984
Probable space group: R 3 2
;
_chemical_formula_sum "Si O2"
_cell_formula_units_Z 72
_cell_length_a 20.330617
_cell_length_b 20.330617
_cell_length_c 8.898711
_cell_angle_alpha 90.000000
_cell_angle_beta 90.000000
_cell_angle_gamma 120.000000
_cell_volume 3185.362421
_symmetry_space_group_name_H-M "R 3 2"
_symmetry_group_IT_number 155
_symmetry_cell_setting 'hexagonal'
loop_
_space_group_symop_operation_xyz
x,y,z
-y,x-y,z
-x+y,-x,z
x-y,-y,-z
-x,-x+y,-z
y,x,-z
2/3+x,1/3+y,1/3+z
2/3-y,1/3+x-y,1/3+z
2/3-x+y,1/3-x,1/3+z
2/3+x-y,1/3-y,1/3-z
2/3-x,1/3-x+y,1/3-z
2/3+y,1/3+x,1/3-z
1/3+x,2/3+y,2/3+z
1/3-y,2/3+x-y,2/3+z
1/3-x+y,2/3-x,2/3+z
1/3+x-y,2/3-y,2/3-z
1/3-x,2/3-x+y,2/3-z
1/3+y,2/3+x,2/3-z
loop_
_atom_site_type_symbol
_atom_site_label
_atom_site_fract_x
_atom_site_fract_y
_atom_site_fract_z
Si Si1 0.193650 0.454317 0.066861
Si Si2 0.619683 0.170611 0.466787
Si Si3 0.582145 0.082216 0.020828
Si Si4 0.857852 0.244460 0.375419
O O1 0.147266 0.480599 0.166667
O O2 0.246917 0.445557 0.189138
O O3 0.135561 0.369474 0.009350
O O4 0.240155 0.514677 0.935630
O O5 0.666667 0.229828 0.333334
O O6 0.679101 0.153961 0.552108
O O7 0.553333 0.097765 0.384034
O O8 0.507223 0.066657 0.119161
O O9 0.573385 0.000000 0.000000
O O10 0.908566 0.333334 0.333334
#
# Coordination Sequence:
#
# PCOD9576984 Si02
#       4
#    18  18  18  18
#     4  11  22  37  62  94 129 167 211 270 334 397
#     4  10  21  39  61  86 125 169 213 261 316 381
#     4   9  20  38  60  89 125 168 218 271 327 385
#     4  10  21  38  62  95 132 170 211 266 332 395
#
# _framework density 22.603394999999999
#
# number of rings (size 3 to 8) (size 9 to 14) (size 15 to 20)
#    0.000    2.000    0.000    3.000    0.000    5.000 
#    0.000   15.000    0.000   49.000    0.000    0.000 
#    0.000    0.000    0.000    0.000    0.000    0.000 
#
# Total GULP energy -133909.332503 kJ/mol
# GULP energy per Si atom -5579.555521 kJ/mol
# Density = 2.255195 g / cm^3
# Si number density = 22.603395 Si / 1000 Ang^3
#
#
#
# Elastic Constant Matrix: (Units=GPa)
#
#
# Indices 1 2 3 4 5 6 
#
# 1 57.1434 47.8182 24.2495 10.2173 0.0014 -0.0001
# 2 47.8182 57.1432 24.2494 -10.2170 -0.0005 0.0000
# 3 24.2495 24.2494 123.4150 0.0008 0.0023 0.0000
# 4 10.2173 -10.2170 0.0008 31.5664 0.0005 -0.0010
# 5 0.0014 -0.0005 0.0023 0.0005 31.5674 10.2173
# 6 -0.0001 0.0000 0.0000 -0.0010 10.2173 4.6624
#
#
#
# Elastic Compliance Matrix: (Units=1/GPa)
#
#
# Indices 1 2 3 4 5 6 
#
# 1 0.189668 -0.179190 -0.002058 -0.119389 -0.000008 -0.000003
# 2 -0.179190 0.189669 -0.002060 0.119389 0.000008 0.000003
# 3 -0.002058 -0.002060 0.008912 -0.000001 -0.000002 0.000004
# 4 -0.119389 0.119389 -0.000001 0.108965 -0.000004 0.000029
# 5 -0.000008 0.000008 -0.000002 -0.000004 0.108965 -0.238787
# 6 -0.000003 0.000003 0.000004 0.000029 -0.238787 0.737760
#
#
# Mechanical properties :
#
#
# Convention : Reuss Voigt Hill
#
# Bulk Modulus (GPa) = 46.22466 47.81509 47.01987
# Shear Modulus (GPa) = 2.91076 22.98487 12.94781
#
# Velocity S-wave (km/s) = 1.13602 3.19231 2.39598
# Velocity P-wave (km/s) = 4.71333 5.89811 5.33868
#
# Compressibility (1/GPa) = 0.02163348
#
# Stress axis : x y z
#
# Youngs Moduli (GPa) = 5.27237 5.27234 112.21028
#
# Poissons Ratio (x) = 0.94475 0.23096
# Poissons Ratio (y) = 0.94475 0.23111
# Poissons Ratio (z) = 0.01085 0.01086
#
# Static dielectric constant tensor:
#      x y z
#    x 1.850060 0.000000 0.000000 
#    y 0.000000 1.850060 0.000000 
#    z 0.000000 0.000000 1.931300 
# 
# From -- ./inp_files/2101.got.cif
#   From: 2010.05.17/outbox.cif.g08.bks.cpg/sg155_2_cif.got.tgz:2101.got - 2010.05.20 10:44:35.
