data_PCOD9576042
_publ_section_title
;
Structure prediction by ZEFSAII (Michael W. Deem and Ramdas Pophale) SiO2 
 PCOD9576042
Probable space group: P 31 2 1
;
_chemical_formula_sum "Si O2"
_cell_formula_units_Z 36
_cell_length_a 8.112628
_cell_length_b 8.112628
_cell_length_c 25.952349
_cell_angle_alpha 90.000000
_cell_angle_beta 90.000000
_cell_angle_gamma 120.000000
_cell_volume 1479.212025
_symmetry_space_group_name_H-M "P 31 2 1"
_symmetry_group_IT_number 152
_symmetry_cell_setting 'hexagonal'
loop_
_space_group_symop_operation_xyz
x,y,z
-y,x-y,1/3+z
-x+y,-x,2/3+z
x-y,-y,2/3-z
-x,-x+y,1/3-z
y,x,-z
loop_
_atom_site_type_symbol
_atom_site_label
_atom_site_fract_x
_atom_site_fract_y
_atom_site_fract_z
Si Si1 0.012758 0.663423 0.569416
Si Si2 0.348472 0.668591 0.970967
Si Si3 0.571771 0.940825 0.060242
Si Si4 0.987987 0.010613 0.605103
Si Si5 0.556236 0.617149 0.172249
Si Si6 0.283282 0.376362 0.551171
O O1 0.122116 0.630392 0.617010
O O2 0.867739 0.481962 0.536000
O O3 0.939797 0.803647 0.586607
O O4 0.185648 0.781375 0.529164
O O5 0.129630 0.613853 0.971876
O O6 0.458149 0.828210 0.926614
O O7 0.448458 0.758610 0.024669
O O8 0.476921 0.963337 0.111446
O O9 0.768328 0.950550 0.074507
O O10 0.188241 0.171483 0.580273
O O11 0.000000 0.018891 0.666667
O O12 0.729631 0.632692 0.139924
O O13 0.404044 0.404044 0.500000
#
# Coordination Sequence:
#
# PCOD9576042 Si02
#       6
#     6   6   6   6   6   6
#     4  10  23  47  67 103 136 185 239 290 359 435
#     4  10  25  44  67 100 143 187 231 296 368 434
#     4  11  25  44  68 103 144 180 240 300 367 434
#     4  12  25  45  71 103 139 187 241 299 357 434
#     4  10  22  42  70  97 136 181 231 288 352 431
#     4  11  22  44  72  96 138 187 236 288 362 429
#
# _framework density 24.33728
#
# number of rings (size 3 to 8) (size 9 to 14) (size 15 to 20)
#    0.000    1.333    3.333    1.000    7.000    0.000 
#   18.000    0.000    0.000    0.000    0.000    0.000 
#    0.000    0.000    0.000    0.000    0.000    0.000 
#
# Total GULP energy -201560.277829 kJ/mol
# GULP energy per Si atom -5598.896606 kJ/mol
# Density = 2.428189 g / cm^3
# Si number density = 24.337280 Si / 1000 Ang^3
#
#
#
# Elastic Constant Matrix: (Units=GPa)
#
#
# Indices 1 2 3 4 5 6 
#
# 1 66.7314 6.1664 34.0799 0.4334 0.0004 0.0000
# 2 6.1664 66.7314 34.0799 -0.4334 -0.0004 0.0000
# 3 34.0799 34.0799 120.1624 0.0000 0.0000 0.0000
# 4 0.4334 -0.4334 0.0000 26.3691 0.0000 -0.0004
# 5 0.0004 -0.0004 0.0000 0.0000 26.3691 0.4334
# 6 0.0000 0.0000 0.0000 -0.0004 0.4334 30.2825
#
#
#
# Elastic Compliance Matrix: (Units=1/GPa)
#
#
# Indices 1 2 3 4 5 6 
#
# 1 0.017592 0.001077 -0.005295 -0.000271 0.000000 0.000000
# 2 0.001077 0.017592 -0.005295 0.000271 0.000000 0.000000
# 3 -0.005295 -0.005295 0.011325 0.000000 0.000000 0.000000
# 4 -0.000271 0.000271 0.000000 0.037932 0.000000 0.000001
# 5 0.000000 0.000000 0.000000 0.000000 0.037932 -0.000543
# 6 0.000000 0.000000 0.000000 0.000001 -0.000543 0.033030
#
#
# Mechanical properties :
#
#
# Convention : Reuss Voigt Hill
#
# Bulk Modulus (GPa) = 36.38549 44.69755 40.54152
# Shear Modulus (GPa) = 27.23465 28.55739 27.89602
#
# Velocity S-wave (km/s) = 3.34885 3.42921 3.38927
# Velocity P-wave (km/s) = 5.47138 5.83824 5.65779
#
# Compressibility (1/GPa) = 0.02748348
#
# Stress axis : x y z
#
# Youngs Moduli (GPa) = 56.84499 56.84499 88.29750
#
# Poissons Ratio (x) = -0.06120 0.46750
# Poissons Ratio (y) = -0.06120 0.46750
# Poissons Ratio (z) = 0.30097 0.30097
#
# Static dielectric constant tensor:
#      x y z
#    x 1.992180 0.000000 0.000000 
#    y 0.000000 1.992180 0.000000 
#    z 0.000000 0.000000 1.921880 
# 
# From -- ./inp_files/3344.got.cif
#   From: 2010.05.17/outbox.cif.g08.bks.cpg/sg152_2_cif.got.tgz:3344.got - 2010.05.20 10:36:06.
