data_PCOD9576781
_publ_section_title
;
Structure prediction by ZEFSAII (Michael W. Deem and Ramdas Pophale) SiO2 
 PCOD9576781
Probable space group: R 3 2
;
_chemical_formula_sum "Si O2"
_cell_formula_units_Z 75
_cell_length_a 16.980438
_cell_length_b 16.980438
_cell_length_c 16.567064
_cell_angle_alpha 90.000000
_cell_angle_beta 90.000000
_cell_angle_gamma 120.000000
_cell_volume 4136.889860
_symmetry_space_group_name_H-M "R 3 2"
_symmetry_group_IT_number 155
_symmetry_cell_setting 'hexagonal'
loop_
_space_group_symop_operation_xyz
x,y,z
-y,x-y,z
-x+y,-x,z
x-y,-y,-z
-x,-x+y,-z
y,x,-z
2/3+x,1/3+y,1/3+z
2/3-y,1/3+x-y,1/3+z
2/3-x+y,1/3-x,1/3+z
2/3+x-y,1/3-y,1/3-z
2/3-x,1/3-x+y,1/3-z
2/3+y,1/3+x,1/3-z
1/3+x,2/3+y,2/3+z
1/3-y,2/3+x-y,2/3+z
1/3-x+y,2/3-x,2/3+z
1/3+x-y,2/3-y,2/3-z
1/3-x,2/3-x+y,2/3-z
1/3+y,2/3+x,2/3-z
loop_
_atom_site_type_symbol
_atom_site_label
_atom_site_fract_x
_atom_site_fract_y
_atom_site_fract_z
Si Si1 0.297119 0.478019 0.778738
Si Si2 0.983036 0.403180 0.407446
Si Si3 0.000000 0.000000 0.113950
Si Si4 0.645973 0.979306 0.666667
Si Si5 0.606344 0.132070 0.633135
Si Si6 0.000000 0.000000 0.310981
O O1 0.190972 0.430328 0.754687
O O2 0.346032 0.583117 0.754133
O O3 0.330610 0.413959 0.740807
O O4 0.306489 0.478246 0.874254
O O5 0.957380 0.333334 0.333334
O O6 0.000000 0.379780 0.500000
O O7 0.069757 0.497339 0.376983
O O8 0.000000 0.000000 0.212149
O O9 0.740292 0.980158 0.660748
O O10 0.636430 0.230538 0.668993
#
# Coordination Sequence:
#
# PCOD9576781 Si02
#       6
#    18  18   6   9  18   6
#     4   9  19  30  49  81 117 142 175 221 281 347
#     4   9  18  33  52  79 117 149 183 231 282 341
#     4   9  18  28  49  81 108 148 170 215 290 361
#     4  10  18  30  52  78 108 140 178 220 274 338
#     4   9  19  36  54  78 109 144 181 233 280 332
#     4   9  18  39  55  67 106 145 190 236 280 316
#
# _framework density 18.129560999999999
#
# number of rings (size 3 to 8) (size 9 to 14) (size 15 to 20)
#    0.000    2.880    0.000    2.160    6.720    0.000 
#    2.160    0.000    0.000    0.000    0.000    3.360 
#    0.000    0.000    0.000    0.000    0.000    0.000 
#
# Total GULP energy -139188.104533 kJ/mol
# GULP energy per Si atom -5567.524181 kJ/mol
# Density = 1.808830 g / cm^3
# Si number density = 18.129561 Si / 1000 Ang^3
#
#
#
# Elastic Constant Matrix: (Units=GPa)
#
#
# Indices 1 2 3 4 5 6 
#
# 1 118.8106 45.3842 24.0138 9.7717 -0.0015 0.0000
# 2 45.3842 118.8106 24.0138 -9.7717 0.0015 0.0000
# 3 24.0138 24.0138 59.5508 0.0000 0.0000 0.0000
# 4 9.7717 -9.7717 0.0000 40.4249 0.0000 0.0015
# 5 -0.0015 0.0015 0.0000 0.0000 40.4249 9.7717
# 6 0.0000 0.0000 0.0000 0.0015 9.7717 36.7132
#
#
#
# Elastic Compliance Matrix: (Units=1/GPa)
#
#
# Indices 1 2 3 4 5 6 
#
# 1 0.010730 -0.003825 -0.002784 -0.003518 0.000001 0.000000
# 2 -0.003825 0.010730 -0.002784 0.003518 -0.000001 0.000000
# 3 -0.002784 -0.002784 0.019038 0.000000 0.000000 0.000000
# 4 -0.003518 0.003518 0.000000 0.026438 0.000000 -0.000001
# 5 0.000001 -0.000001 0.000000 0.000000 0.026438 -0.007037
# 6 0.000000 0.000000 0.000000 -0.000001 -0.007037 0.029111
#
#
# Mechanical properties :
#
#
# Convention : Reuss Voigt Hill
#
# Bulk Modulus (GPa) = 46.06149 53.77730 49.91940
# Shear Modulus (GPa) = 33.66763 37.09663 35.38213
#
# Velocity S-wave (km/s) = 4.31403 4.52840 4.42251
# Velocity P-wave (km/s) = 7.09059 7.55440 7.32617
#
# Compressibility (1/GPa) = 0.02171011
#
# Stress axis : x y z
#
# Youngs Moduli (GPa) = 93.19527 93.19527 52.52668
#
# Poissons Ratio (x) = 0.35651 0.14625
# Poissons Ratio (y) = 0.35651 0.14625
# Poissons Ratio (z) = 0.25949 0.25949
#
# Static dielectric constant tensor:
#      x y z
#    x 1.633350 0.000000 0.000000 
#    y 0.000000 1.633350 0.000000 
#    z 0.000000 0.000000 1.721720 
# 
# From -- ./inp_files/4922.got.cif
#   From: 2010.05.17/outbox.cif.g08.bks.cpg/sg155_3_cif.got.tgz:4922.got - 2010.05.20 10:44:35.
