data_PCOD9576216
_publ_section_title
;
Structure prediction by ZEFSAII (Michael W. Deem and Ramdas Pophale) SiO2 
 PCOD9576216
Probable space group: P 31 2 1
;
_chemical_formula_sum "Si O2"
_cell_formula_units_Z 45
_cell_length_a 15.000000
_cell_length_b 15.000000
_cell_length_c 12.000000
_cell_angle_alpha 90.000000
_cell_angle_beta 90.000000
_cell_angle_gamma 120.000000
_cell_volume 2338.268590
_symmetry_space_group_name_H-M "P 31 2 1"
_symmetry_group_IT_number 152
_symmetry_cell_setting 'hexagonal'
loop_
_space_group_symop_operation_xyz
x,y,z
-y,x-y,1/3+z
-x+y,-x,2/3+z
x-y,-y,2/3-z
-x,-x+y,1/3-z
y,x,-z
loop_
_atom_site_type_symbol
_atom_site_label
_atom_site_fract_x
_atom_site_fract_y
_atom_site_fract_z
Si Si1 0.892354 0.902379 0.871747
Si Si2 0.980432 0.302767 0.792308
Si Si3 0.144279 0.144279 0.000000
Si Si4 0.535319 0.359555 0.292592
Si Si5 0.762515 0.512794 0.197597
Si Si6 0.627538 0.894776 0.391381
Si Si7 0.079669 0.615618 0.950192
Si Si8 0.706432 0.521510 0.769170
O O1 0.788709 0.797014 0.874178
O O2 0.964072 0.891173 0.777415
O O3 0.883570 0.000000 0.833334
O O4 0.925923 0.925923 0.000000
O O5 0.865233 0.264091 0.831530
O O6 0.000000 0.347875 0.666667
O O7 0.072919 0.383031 0.868429
O O8 0.169183 0.257969 0.040251
O O9 0.655412 0.431877 0.258821
O O10 0.527950 0.314171 0.416185
O O11 0.466316 0.419300 0.288984
O O12 0.495753 0.263250 0.205274
O O13 0.863879 0.548905 0.274328
O O14 0.596502 0.902214 0.516441
O O15 0.548538 0.787507 0.332280
O O16 0.641901 0.000000 0.333334
O O17 0.150724 0.563353 0.923069
#
# Coordination Sequence:
#
# PCOD9576216 Si02
#       8
#     6   6   3   6   6   6   6   6
#     4  11  23  38  67 103 139 179 238 301 358 428
#     4  11  23  46  71 101 138 191 245 298 361 441
#     4  10  20  44  66  96 140 182 238 292 360 428
#     4  12  26  48  74 106 148 195 253 306 375 450
#     4  12  28  47  71 108 148 192 242 309 376 438
#     4  10  23  45  75 100 140 189 245 294 365 436
#     4  12  28  46  75 111 149 196 244 313 380 436
#     4  12  24  45  76 105 144 186 255 307 356 456
#
# _framework density 19.245009
#
# number of rings (size 3 to 8) (size 9 to 14) (size 15 to 20)
#    0.400    0.267    6.000    1.200    5.600    2.667 
#    0.000    0.667    0.000    0.000    0.000    0.000 
#    0.000    0.000    0.000    0.000    0.000    0.000 
#
# Total GULP energy -250672.113014 kJ/mol
# GULP energy per Si atom -5570.491400 kJ/mol
# Density = 1.920121 g / cm^3
# Si number density = 19.245009 Si / 1000 Ang^3
#
#
#
# Elastic Constant Matrix: (Units=GPa)
#
#
# Indices 1 2 3 4 5 6 
#
# 1 139.5263 -7.3546 53.8492 22.4925 -0.0002 0.0000
# 2 -7.3546 139.5263 53.8492 -22.4925 0.0002 0.0000
# 3 53.8492 53.8492 151.1812 0.0000 0.0000 0.0000
# 4 22.4925 -22.4925 0.0000 53.5350 0.0000 0.0002
# 5 -0.0002 0.0002 0.0000 0.0000 53.5350 22.4925
# 6 0.0000 0.0000 0.0000 0.0002 22.4925 73.4404
#
#
#
# Elastic Compliance Matrix: (Units=1/GPa)
#
#
# Indices 1 2 3 4 5 6 
#
# 1 0.009237 0.001423 -0.003797 -0.003283 0.000000 0.000000
# 2 0.001423 0.009237 -0.003797 0.003283 0.000000 0.000000
# 3 -0.003797 -0.003797 0.009319 0.000000 0.000000 0.000000
# 4 -0.003283 0.003283 0.000000 0.021438 0.000000 0.000000
# 5 0.000000 0.000000 0.000000 0.000000 0.021438 -0.006566
# 6 0.000000 0.000000 0.000000 0.000000 -0.006566 0.015627
#
#
# Mechanical properties :
#
#
# Convention : Reuss Voigt Hill
#
# Bulk Modulus (GPa) = 64.71929 70.10241 67.41085
# Shear Modulus (GPa) = 48.17508 58.09475 53.13491
#
# Velocity S-wave (km/s) = 5.00868 5.50022 5.26019
# Velocity P-wave (km/s) = 8.19459 8.76595 8.48508
#
# Compressibility (1/GPa) = 0.01545134
#
# Stress axis : x y z
#
# Youngs Moduli (GPa) = 108.26343 108.26343 107.30284
#
# Poissons Ratio (x) = -0.15406 0.40742
# Poissons Ratio (y) = -0.15406 0.40742
# Poissons Ratio (z) = 0.41107 0.41107
#
# Static dielectric constant tensor:
#      x y z
#    x 1.686620 0.000000 0.000000 
#    y 0.000000 1.686620 0.000000 
#    z 0.000000 0.000000 1.714480 
# 
# From -- ./inp_files/1864.got.cif
#   From: 2010.05.17/outbox.ucp.g08.bks.cvg/sg152_1_cif.got.tgz:1864.got - 2010.06.11 15:13:12.
