data_PCOD9576891
_publ_section_title
;
Structure prediction by ZEFSAII (Michael W. Deem and Ramdas Pophale) SiO2 
 PCOD9576891
Probable space group: R 3 2
;
_chemical_formula_sum "Si O2"
_cell_formula_units_Z 63
_cell_length_a 14.806695
_cell_length_b 14.806695
_cell_length_c 14.729280
_cell_angle_alpha 90.000000
_cell_angle_beta 90.000000
_cell_angle_gamma 120.000000
_cell_volume 2796.587492
_symmetry_space_group_name_H-M "R 3 2"
_symmetry_group_IT_number 155
_symmetry_cell_setting 'hexagonal'
loop_
_space_group_symop_operation_xyz
x,y,z
-y,x-y,z
-x+y,-x,z
x-y,-y,-z
-x,-x+y,-z
y,x,-z
2/3+x,1/3+y,1/3+z
2/3-y,1/3+x-y,1/3+z
2/3-x+y,1/3-x,1/3+z
2/3+x-y,1/3-y,1/3-z
2/3-x,1/3-x+y,1/3-z
2/3+y,1/3+x,1/3-z
1/3+x,2/3+y,2/3+z
1/3-y,2/3+x-y,2/3+z
1/3-x+y,2/3-x,2/3+z
1/3+x-y,2/3-y,2/3-z
1/3-x,2/3-x+y,2/3-z
1/3+y,2/3+x,2/3-z
loop_
_atom_site_type_symbol
_atom_site_label
_atom_site_fract_x
_atom_site_fract_y
_atom_site_fract_z
Si Si1 0.413009 0.535497 0.494045
Si Si2 0.464003 0.750064 0.042052
Si Si3 0.666667 0.497289 0.333334
Si Si4 0.975630 0.550224 0.257766
O O1 0.504672 0.504672 0.500000
O O2 0.405177 0.579264 0.397981
O O3 0.423179 0.609785 0.579187
O O4 0.305950 0.426470 0.506503
O O5 0.373122 0.777214 0.062958
O O6 0.570398 0.833019 0.086656
O O7 0.568319 0.499082 0.291307
O O8 0.945091 0.611758 0.333334
#
# Coordination Sequence:
#
# PCOD9576891 Si02
#       4
#    18  18   9  18
#     4  11  20  39  65  94 130 172 220 272 345 391
#     4  10  22  40  63  93 131 168 222 268 330 401
#     4  10  20  34  62  90 126 158 218 272 334 396
#     4  10  20  39  62  92 130 171 205 274 335 397
#
# _framework density 22.527455
#
# number of rings (size 3 to 8) (size 9 to 14) (size 15 to 20)
#    0.571    1.143    5.714    1.714    0.000    0.000 
#   25.714    0.000    0.000    0.000    0.000    0.000 
#    0.000    0.000    0.000    0.000    0.000    0.000 
#
# Total GULP energy -117099.442735 kJ/mol
# GULP energy per Si atom -5576.163940 kJ/mol
# Density = 2.247618 g / cm^3
# Si number density = 22.527455 Si / 1000 Ang^3
#
#
#
# Elastic Constant Matrix: (Units=GPa)
#
#
# Indices 1 2 3 4 5 6 
#
# 1 157.1349 81.2069 26.3679 9.9227 0.0000 0.0000
# 2 81.2069 157.1349 26.3679 -9.9227 0.0000 0.0000
# 3 26.3679 26.3679 80.2256 0.0000 0.0000 0.0000
# 4 9.9227 -9.9227 0.0000 12.3291 0.0000 0.0000
# 5 0.0000 0.0000 0.0000 0.0000 12.3291 9.9227
# 6 0.0000 0.0000 0.0000 0.0000 9.9227 37.9640
#
#
#
# Elastic Compliance Matrix: (Units=1/GPa)
#
#
# Indices 1 2 3 4 5 6 
#
# 1 0.010602 -0.006077 -0.001487 -0.013423 0.000000 0.000000
# 2 -0.006077 0.010602 -0.001487 0.013423 0.000000 0.000000
# 3 -0.001487 -0.001487 0.013442 0.000000 0.000000 0.000000
# 4 -0.013423 0.013423 0.000000 0.102716 0.000000 0.000000
# 5 0.000000 0.000000 0.000000 0.000000 0.102716 -0.026847
# 6 0.000000 0.000000 0.000000 0.000000 -0.026847 0.033358
#
#
# Mechanical properties :
#
#
# Convention : Reuss Voigt Hill
#
# Bulk Modulus (GPa) = 60.44761 73.59786 67.02273
# Shear Modulus (GPa) = 16.83204 29.89462 23.36333
#
# Velocity S-wave (km/s) = 2.73642 3.64680 3.22390
# Velocity P-wave (km/s) = 6.07249 7.10446 6.60865
#
# Compressibility (1/GPa) = 0.01654325
#
# Stress axis : x y z
#
# Youngs Moduli (GPa) = 94.32371 94.32371 74.39138
#
# Poissons Ratio (x) = 0.57321 0.11063
# Poissons Ratio (y) = 0.57321 0.11063
# Poissons Ratio (z) = 0.14027 0.14027
#
# Static dielectric constant tensor:
#      x y z
#    x 1.845700 0.000000 0.000000 
#    y 0.000000 1.845700 0.000000 
#    z 0.000000 0.000000 1.896480 
# 
# From -- ./inp_files/5759.got.cif
#   From: 2010.05.17/outbox.cif.g08.bks.cpg/sg155_3_cif.got.tgz:5759.got - 2010.05.20 10:44:35.
