data_PCOD9576200
_publ_section_title
;
Structure prediction by ZEFSAII (Michael W. Deem and Ramdas Pophale) SiO2 
 PCOD9576200
Probable space group: P 31 2 1
;
_chemical_formula_sum "Si O2"
_cell_formula_units_Z 15
_cell_length_a 9.580053
_cell_length_b 9.580053
_cell_length_c 7.602775
_cell_angle_alpha 90.000000
_cell_angle_beta 90.000000
_cell_angle_gamma 120.000000
_cell_volume 604.280518
_symmetry_space_group_name_H-M "P 31 2 1"
_symmetry_group_IT_number 152
_symmetry_cell_setting 'hexagonal'
loop_
_space_group_symop_operation_xyz
x,y,z
-y,x-y,1/3+z
-x+y,-x,2/3+z
x-y,-y,2/3-z
-x,-x+y,1/3-z
y,x,-z
loop_
_atom_site_type_symbol
_atom_site_label
_atom_site_fract_x
_atom_site_fract_y
_atom_site_fract_z
Si Si1 0.333333 0.333333 0.208999
Si Si2 0.117122 0.450456 0.333334
Si Si3 0.216210 0.000000 0.333334
O O1 0.283299 0.458902 0.283211
O O2 0.508937 0.383368 0.283211
O O3 0.207764 0.157730 0.283211
O O4 0.333333 0.333333 0.000000
O O5 0.000000 0.373671 0.166667
O O6 0.040338 0.333333 0.500000
#
# Coordination Sequence:
#
# PCOD9576200 Si02
#       3
#     6   6   3
#     4  12  28  53  79 115 155 205 256 317 385 457
#     4  12  26  50  82 112 154 206 254 316 386 454
#     4  12  26  50  82 112 154 206 254 316 386 454
#
# _framework density 24.822907000000001
#
# number of rings (size 3 to 8) (size 9 to 14) (size 15 to 20)
#    0.000    0.000    6.000    3.600    0.000    9.600 
#   10.800    0.000    0.000    2.400    0.000    0.000 
#    0.000    0.000    0.000    0.000    0.000    0.000 
#
# Total GULP energy -84201.986407 kJ/mol
# GULP energy per Si atom -5613.465760 kJ/mol
# Density = 2.476641 g / cm^3
# Si number density = 24.822907 Si / 1000 Ang^3
#
#
#
# Elastic Constant Matrix: (Units=GPa)
#
#
# Indices 1 2 3 4 5 6 
#
# 1 104.2673 38.9253 35.9112 7.3434 0.0000 0.0000
# 2 38.9253 104.2673 35.9112 -7.3434 0.0000 0.0000
# 3 35.9112 35.9112 212.1308 0.0000 0.0000 0.0000
# 4 7.3434 -7.3434 0.0000 22.5058 0.0000 0.0000
# 5 0.0000 0.0000 0.0000 0.0000 22.5058 7.3434
# 6 0.0000 0.0000 0.0000 0.0000 7.3434 32.6710
#
#
#
# Elastic Compliance Matrix: (Units=1/GPa)
#
#
# Indices 1 2 3 4 5 6 
#
# 1 0.012073 -0.004442 -0.001292 -0.005389 0.000000 0.000000
# 2 -0.004442 0.012073 -0.001292 0.005389 0.000000 0.000000
# 3 -0.001292 -0.001292 0.005151 0.000000 0.000000 0.000000
# 4 -0.005389 0.005389 0.000000 0.047950 0.000000 0.000000
# 5 0.000000 0.000000 0.000000 0.000000 0.047950 -0.010778
# 6 0.000000 0.000000 0.000000 0.000000 -0.010778 0.033031
#
#
# Mechanical properties :
#
#
# Convention : Reuss Voigt Hill
#
# Bulk Modulus (GPa) = 65.58686 71.35119 68.46903
# Shear Modulus (GPa) = 28.19094 36.19772 32.19433
#
# Velocity S-wave (km/s) = 3.37364 3.82283 3.60524
# Velocity P-wave (km/s) = 6.45404 6.94924 6.70621
#
# Compressibility (1/GPa) = 0.01524696
#
# Stress axis : x y z
#
# Youngs Moduli (GPa) = 82.82629 82.82629 194.11849
#
# Poissons Ratio (x) = 0.36790 0.25079
# Poissons Ratio (y) = 0.36790 0.25079
# Poissons Ratio (z) = 0.10701 0.10701
#
# Static dielectric constant tensor:
#      x y z
#    x 1.922400 0.000000 0.000000 
#    y 0.000000 1.922400 0.000000 
#    z 0.000000 0.000000 1.893790 
# 
# From -- ./inp_files/668.got.cif
#   From: 2010.05.17/outbox.cif.g08.bks.cpg/sg152_1_cif.got.tgz:668.got - 2010.05.20 10:36:06.
