data_PCOD9576282
_publ_section_title
;
Structure prediction by ZEFSAII (Michael W. Deem and Ramdas Pophale) SiO2 
 PCOD9576282
Probable space group: P 32 1 2
;
_chemical_formula_sum "Si O2"
_cell_formula_units_Z 45
_cell_length_a 14.489546
_cell_length_b 14.489546
_cell_length_c 12.166044
_cell_angle_alpha 90.000000
_cell_angle_beta 90.000000
_cell_angle_gamma 120.000000
_cell_volume 2212.022654
_symmetry_space_group_name_H-M "P 32 1 2"
_symmetry_group_IT_number 153
_symmetry_cell_setting 'hexagonal'
loop_
_space_group_symop_operation_xyz
x,y,z
-y,x-y,2/3+z
-x+y,-x,1/3+z
-y,-x,1/3-z
-x+y,y,2/3-z
x,x-y,-z
loop_
_atom_site_type_symbol
_atom_site_label
_atom_site_fract_x
_atom_site_fract_y
_atom_site_fract_z
Si Si1 0.561205 0.031074 0.156570
Si Si2 0.062727 0.721994 0.639762
Si Si3 0.252025 0.725293 0.047980
Si Si4 0.759580 0.519160 0.833334
Si Si5 0.496094 0.174381 0.906860
Si Si6 0.381483 0.935432 0.912955
Si Si7 0.629628 0.976596 0.389057
Si Si8 0.336737 0.173971 0.282469
O O1 0.632345 0.161477 0.153721
O O2 0.601649 0.997818 0.266031
O O3 0.441230 0.998805 0.191031
O O4 0.590872 0.975454 0.053685
O O5 0.176704 0.823297 0.666667
O O6 0.072580 0.702734 0.510746
O O7 0.960983 0.739643 0.644741
O O8 0.287803 0.712198 0.166667
O O9 0.147389 0.734486 0.059743
O O10 0.222464 0.611232 0.000000
O O11 0.336786 0.832430 0.988843
O O12 0.789999 0.588804 0.722965
O O13 0.596375 0.192750 0.833334
O O14 0.410586 0.170403 0.819811
O O15 0.441723 0.055573 0.959865
O O16 0.522133 0.261067 0.000000
O O17 0.466095 0.932189 0.833334
O O18 0.754705 0.051432 0.408230
#
# Coordination Sequence:
#
# PCOD9576282 Si02
#       8
#     6   6   6   3   6   6   6   6
#     4   9  17  33  56  86 123 160 197 253 315 373
#     4  10  20  35  64  89 122 164 214 262 319 384
#     4  12  26  41  60  92 121 163 212 261 321 385
#     4   8  16  32  54  88 122 150 202 248 316 382
#     4  10  23  44  64  91 130 172 223 262 320 397
#     4  10  24  41  63  90 127 173 211 266 331 392
#     4  10  20  36  56  84 127 157 204 255 319 374
#     4   9  20  37  58  91 120 167 202 262 325 382
#
# _framework density 20.343374000000001
#
# number of rings (size 3 to 8) (size 9 to 14) (size 15 to 20)
#    0.000    2.133    1.333    1.200    3.733    3.733 
#    7.200    0.000    0.000    0.800   10.400    0.000 
#    0.000    0.000    0.000    0.000    0.000    0.000 
#
# Total GULP energy -250675.444004 kJ/mol
# GULP energy per Si atom -5570.565422 kJ/mol
# Density = 2.029707 g / cm^3
# Si number density = 20.343374 Si / 1000 Ang^3
#
#
#
# Elastic Constant Matrix: (Units=GPa)
#
#
# Indices 1 2 3 4 5 6 
#
# 1 87.0254 20.1068 23.5416 0.0007 13.3743 0.0000
# 2 20.1068 87.0254 23.5416 -0.0007 -13.3743 0.0000
# 3 23.5416 23.5416 98.3991 0.0000 0.0000 0.0000
# 4 0.0007 -0.0007 0.0000 18.4691 0.0000 -13.3743
# 5 13.3743 -13.3743 0.0000 0.0000 18.4691 0.0007
# 6 0.0000 0.0000 0.0000 -13.3743 0.0007 33.4593
#
#
#
# Elastic Compliance Matrix: (Units=1/GPa)
#
#
# Indices 1 2 3 4 5 6 
#
# 1 0.015731 -0.005300 -0.002496 -0.000001 -0.015230 0.000000
# 2 -0.005300 0.015731 -0.002496 0.000001 0.015230 0.000000
# 3 -0.002496 -0.002496 0.011357 0.000000 0.000000 0.000000
# 4 -0.000001 0.000001 0.000000 0.076201 0.000000 0.030459
# 5 -0.015230 0.015230 0.000000 0.000000 0.076201 -0.000002
# 6 0.000000 0.000000 0.000000 0.030459 -0.000002 0.042062
#
#
# Mechanical properties :
#
#
# Convention : Reuss Voigt Hill
#
# Bulk Modulus (GPa) = 44.97103 45.20334 45.08719
# Shear Modulus (GPa) = 18.84813 27.76349 23.30581
#
# Velocity S-wave (km/s) = 3.04715 3.69825 3.38838
# Velocity P-wave (km/s) = 5.87657 6.36431 6.12530
#
# Compressibility (1/GPa) = 0.02223654
#
# Stress axis : x y z
#
# Youngs Moduli (GPa) = 63.56861 63.56861 88.05286
#
# Poissons Ratio (x) = 0.33691 0.21974
# Poissons Ratio (y) = 0.33691 0.21974
# Poissons Ratio (z) = 0.15864 0.15864
#
# Static dielectric constant tensor:
#      x y z
#    x 1.735780 0.000000 0.000000 
#    y 0.000000 1.735780 0.000000 
#    z 0.000000 0.000000 1.782690 
# 
# From -- ./inp_files/2700.got.cif
#   From: 2010.05.17/outbox.cif.g08.bks.cpg/sg153_2_cif.got.tgz:2700.got - 2010.05.20 10:38:56.
