data_PCOD9576698
_publ_section_title
;
Structure prediction by ZEFSAII (Michael W. Deem and Ramdas Pophale) SiO2 
 PCOD9576698
Probable space group: P 32 2 1
;
_chemical_formula_sum "Si O2"
_cell_formula_units_Z 30
_cell_length_a 16.281546
_cell_length_b 16.281546
_cell_length_c 5.252531
_cell_angle_alpha 90.000000
_cell_angle_beta 90.000000
_cell_angle_gamma 120.000000
_cell_volume 1205.842363
_symmetry_space_group_name_H-M "P 32 2 1"
_symmetry_group_IT_number 154
_symmetry_cell_setting 'hexagonal'
loop_
_space_group_symop_operation_xyz
x,y,z
-y,x-y,2/3+z
-x+y,-x,1/3+z
x-y,-y,1/3-z
-x,-x+y,2/3-z
y,x,-z
loop_
_atom_site_type_symbol
_atom_site_label
_atom_site_fract_x
_atom_site_fract_y
_atom_site_fract_z
Si Si1 0.205016 0.861763 0.580289
Si Si2 0.356562 0.826898 0.696212
Si Si3 0.654115 0.896006 0.417230
Si Si4 0.122214 0.161609 0.241929
Si Si5 0.368491 0.536330 0.525457
O O1 0.314121 0.893032 0.601510
O O2 0.159640 0.782440 0.353618
O O3 0.150063 0.918014 0.518600
O O4 0.169705 0.832551 0.870130
O O5 0.399569 0.809432 0.442160
O O6 0.263716 0.727877 0.778384
O O7 0.425230 0.860747 0.942658
O O8 0.568364 0.906064 0.301133
O O9 0.759703 0.986627 0.425273
O O10 0.106543 0.106543 0.500000
O O11 0.097927 0.097927 0.000000
#
# Coordination Sequence:
#
# PCOD9576698 Si02
#       5
#     6   6   6   6   6
#     4   9  16  25  35  45  55  68  87 109 132 154
#     4  11  19  25  32  42  57  75  91 105 123 152
#     4   9  16  25  35  45  55  68  87 109 132 154
#     4   8  14  24  36  46  54  64  82 110 136 154
#     4  11  19  25  32  42  57  75  91 105 123 152
#
# _framework density 24.878875000000001
#
# number of rings (size 3 to 8) (size 9 to 14) (size 15 to 20)
#    0.000    2.400    0.000    7.200    0.000    0.000 
#    0.000    0.000    0.000    0.000    0.000    0.000 
#    0.000    0.000    0.000    0.000    0.000    0.000 
#
# Total GULP energy -167053.906266 kJ/mol
# GULP energy per Si atom -5568.463542 kJ/mol
# Density = 2.482225 g / cm^3
# Si number density = 24.878875 Si / 1000 Ang^3
#
#
#
# Elastic Constant Matrix: (Units=GPa)
#
#
# Indices 1 2 3 4 5 6 
#
# 1 68.7055 70.7793 34.7176 -19.5068 0.0000 0.0000
# 2 70.7793 68.7055 34.7176 19.5068 0.0000 0.0000
# 3 34.7176 34.7176 200.8045 0.0000 0.0000 0.0000
# 4 -19.5068 19.5068 0.0000 8.4238 0.0000 0.0000
# 5 0.0000 0.0000 0.0000 0.0000 8.4238 -19.5068
# 6 0.0000 0.0000 0.0000 0.0000 -19.5068 -1.0369
#
#
#
# Elastic Compliance Matrix: (Units=1/GPa)
#
#
# Indices 1 2 3 4 5 6 
#
# 1 -0.001488 0.009332 -0.001356 -0.025057 0.000000 0.000000
# 2 0.009332 -0.001488 -0.001356 0.025057 0.000000 0.000000
# 3 -0.001356 -0.001356 0.005449 0.000000 0.000000 0.000000
# 4 -0.025057 0.025057 0.000000 0.002664 0.000000 0.000000
# 5 0.000000 0.000000 0.000000 0.000000 0.002664 -0.050114
# 6 0.000000 0.000000 0.000000 0.000000 -0.050114 -0.021641
#
#
# Mechanical properties :
#
#
# Convention : Reuss Voigt Hill
#
# Bulk Modulus (GPa) = 63.64262 68.73827 66.19045
# Shear Modulus (GPa) = -228.90517 16.36220 -106.27149
#
# Velocity S-wave (km/s) = -9.60248 2.56730 -6.54280
# Velocity P-wave (km/s) = 9.86443 6.03963 5.51497
#
# Compressibility (1/GPa) = 0.01571274
#
# Stress axis : x y z
#
# Youngs Moduli (GPa) = -671.99336 -671.99336 183.52217
#
# Poissons Ratio (x) = 6.27136 0.24890
# Poissons Ratio (y) = 6.27136 0.24890
# Poissons Ratio (z) = -0.91138 -0.91138
#
# Static dielectric constant tensor:
#      x y z
#    x 2.095200 0.000000 0.000000 
#    y 0.000000 2.095200 0.000000 
#    z 0.000000 0.000000 2.008620 
# 
# From -- ./inp_files/433.got.cif
#   From: 2010.05.17/outbox.cif.g08.bks.cpg/sg154_1_cif.got.tgz:433.got - 2010.05.20 10:41:43.
