data_PCOD9576896
_publ_section_title
;
Structure prediction by ZEFSAII (Michael W. Deem and Ramdas Pophale) SiO2 
 PCOD9576896
Probable space group: R 3 2
;
_chemical_formula_sum "Si O2"
_cell_formula_units_Z 144
_cell_length_a 20.216435
_cell_length_b 20.216435
_cell_length_c 20.784373
_cell_angle_alpha 90.000000
_cell_angle_beta 90.000000
_cell_angle_gamma 120.000000
_cell_volume 7356.592618
_symmetry_space_group_name_H-M "R 3 2"
_symmetry_group_IT_number 155
_symmetry_cell_setting 'hexagonal'
loop_
_space_group_symop_operation_xyz
x,y,z
-y,x-y,z
-x+y,-x,z
x-y,-y,-z
-x,-x+y,-z
y,x,-z
2/3+x,1/3+y,1/3+z
2/3-y,1/3+x-y,1/3+z
2/3-x+y,1/3-x,1/3+z
2/3+x-y,1/3-y,1/3-z
2/3-x,1/3-x+y,1/3-z
2/3+y,1/3+x,1/3-z
1/3+x,2/3+y,2/3+z
1/3-y,2/3+x-y,2/3+z
1/3-x+y,2/3-x,2/3+z
1/3+x-y,2/3-y,2/3-z
1/3-x,2/3-x+y,2/3-z
1/3+y,2/3+x,2/3-z
loop_
_atom_site_type_symbol
_atom_site_label
_atom_site_fract_x
_atom_site_fract_y
_atom_site_fract_z
Si Si1 0.620058 0.870913 0.661184
Si Si2 0.799661 0.779993 0.568906
Si Si3 0.665836 0.918523 0.147188
Si Si4 0.368902 0.461040 0.421897
Si Si5 0.528054 0.437183 0.008498
Si Si6 0.050722 0.470365 0.864714
Si Si7 0.924580 0.177943 0.199728
Si Si8 0.242421 0.917080 0.663800
O O1 0.544235 0.877568 0.666667
O O2 0.658066 0.917495 0.595785
O O3 0.677707 0.911939 0.720528
O O4 0.617061 0.790377 0.656716
O O5 0.821687 0.821687 0.500000
O O6 0.867846 0.786555 0.614551
O O7 0.749458 0.689887 0.552680
O O8 0.740026 0.793891 0.609066
O O9 0.678992 0.847935 0.164141
O O10 0.591342 0.924675 0.166667
O O11 0.732932 0.984062 0.191091
O O12 0.316512 0.464451 0.364716
O O13 0.420842 0.542416 0.456196
O O14 0.467694 0.467694 0.000000
O O15 0.574316 0.481616 0.071846
O O16 0.112572 0.453097 0.832072
O O17 0.868852 0.202185 0.166667
O O18 0.935158 0.213137 0.270584
O O19 0.333334 0.963709 0.666667
#
# Coordination Sequence:
#
# PCOD9576896 Si02
#       8
#    18  18  18  18  18  18  18  18
#     4  11  23  37  57  86 123 162 206 259 320 380
#     4  11  19  33  58  91 127 159 200 253 322 392
#     4  11  22  37  58  88 126 162 208 256 321 384
#     4  10  22  38  59  84 120 168 206 269 319 381
#     4   9  18  34  57  84 121 163 201 260 319 388
#     4  10  20  35  57  86 124 163 197 255 317 387
#     4  11  22  36  59  85 123 162 210 261 326 373
#     4  11  22  38  57  89 125 156 205 261 323 387
#
# _framework density 19.574280000000002
#
# number of rings (size 3 to 8) (size 9 to 14) (size 15 to 20)
#    0.000    1.500    3.750    2.250    7.000    0.000 
#    0.000    0.000    0.000    4.250    0.000    0.000 
#    0.000    0.000    0.000    0.000    0.000    0.000 
#
# Total GULP energy -267474.678127 kJ/mol
# GULP energy per Si atom -5572.389128 kJ/mol
# Density = 1.952973 g / cm^3
# Si number density = 19.574280 Si / 1000 Ang^3
#
#
#
# Elastic Constant Matrix: (Units=GPa)
#
#
# Indices 1 2 3 4 5 6 
#
# 1 79.1291 28.6342 7.6651 -0.3560 -0.0001 0.0000
# 2 28.6342 79.1291 7.6651 0.3560 0.0001 0.0000
# 3 7.6651 7.6651 62.9381 0.0000 0.0000 0.0000
# 4 -0.3560 0.3560 0.0000 25.7507 0.0000 0.0001
# 5 -0.0001 0.0001 0.0000 0.0000 25.7507 -0.3560
# 6 0.0000 0.0000 0.0000 0.0001 -0.3560 25.2474
#
#
#
# Elastic Compliance Matrix: (Units=1/GPa)
#
#
# Indices 1 2 3 4 5 6 
#
# 1 0.014626 -0.005182 -0.001150 0.000274 0.000000 0.000000
# 2 -0.005182 0.014626 -0.001150 -0.000274 0.000000 0.000000
# 3 -0.001150 -0.001150 0.016169 0.000000 0.000000 0.000000
# 4 0.000274 -0.000274 0.000000 0.038841 0.000000 0.000000
# 5 0.000000 0.000000 0.000000 0.000000 0.038841 0.000548
# 6 0.000000 0.000000 0.000000 0.000000 0.000548 0.039616
#
#
# Mechanical properties :
#
#
# Convention : Reuss Voigt Hill
#
# Bulk Modulus (GPa) = 32.83543 34.34722 33.59133
# Shear Modulus (GPa) = 26.61912 27.16524 26.89218
#
# Velocity S-wave (km/s) = 3.69169 3.72936 3.71057
# Velocity P-wave (km/s) = 5.91461 6.01078 5.96289
#
# Compressibility (1/GPa) = 0.03045490
#
# Stress axis : x y z
#
# Youngs Moduli (GPa) = 68.37361 68.37361 61.84766
#
# Poissons Ratio (x) = 0.35433 0.07113
# Poissons Ratio (y) = 0.35433 0.07113
# Poissons Ratio (z) = 0.07863 0.07863
#
# Static dielectric constant tensor:
#      x y z
#    x 1.750680 0.000000 0.000000 
#    y 0.000000 1.750680 0.000000 
#    z 0.000000 0.000000 1.776240 
# 
# From -- ./inp_files/7049.got.cif
#   From: 2010.05.17/outbox.cif.g08.bks.cpg/sg155_4_cif.got.tgz:7049.got - 2010.05.20 10:44:35.
