data_PCOD9576048
_publ_section_title
;
Structure prediction by ZEFSAII (Michael W. Deem and Ramdas Pophale) SiO2 
 PCOD9576048
Probable space group: P 31 2 1
;
_chemical_formula_sum "Si O2"
_cell_formula_units_Z 45
_cell_length_a 11.491393
_cell_length_b 11.491393
_cell_length_c 18.511475
_cell_angle_alpha 90.000000
_cell_angle_beta 90.000000
_cell_angle_gamma 120.000000
_cell_volume 2116.981251
_symmetry_space_group_name_H-M "P 31 2 1"
_symmetry_group_IT_number 152
_symmetry_cell_setting 'hexagonal'
loop_
_space_group_symop_operation_xyz
x,y,z
-y,x-y,1/3+z
-x+y,-x,2/3+z
x-y,-y,2/3-z
-x,-x+y,1/3-z
y,x,-z
loop_
_atom_site_type_symbol
_atom_site_label
_atom_site_fract_x
_atom_site_fract_y
_atom_site_fract_z
Si Si1 0.836647 0.542411 0.407533
Si Si2 0.603603 0.000000 0.333334
Si Si3 0.267541 0.172860 0.878463
Si Si4 0.923605 0.201791 0.462959
Si Si5 0.447947 0.771652 0.220584
Si Si6 0.210181 0.790834 0.174013
Si Si7 0.994332 0.323401 0.030490
Si Si8 0.584265 0.993623 0.724208
O O1 0.866434 0.629879 0.479168
O O2 0.760263 0.383560 0.421171
O O3 0.740122 0.575790 0.360513
O O4 0.970125 0.595726 0.359943
O O5 0.722753 0.070939 0.276064
O O6 0.605013 0.119787 0.380461
O O7 0.127840 0.171478 0.868736
O O8 0.247069 0.035166 0.911089
O O9 0.788843 0.204543 0.483675
O O10 0.953252 0.262433 0.381059
O O11 0.057847 0.294437 0.507837
O O12 0.350457 0.793918 0.168301
O O13 0.111929 0.710968 0.108124
O O14 0.135464 0.697524 0.243864
O O15 0.040950 0.470681 0.062506
#
# Coordination Sequence:
#
# PCOD9576048 Si02
#       8
#     6   3   6   6   6   6   6   6
#     4  12  24  41  70 103 131 184 237 289 350 418
#     4  10  22  44  66  98 138 178 224 294 354 410
#     4  11  23  44  67 100 137 181 242 292 343 422
#     4  11  24  44  69  98 144 180 225 295 361 412
#     4  11  23  42  69 103 136 177 231 291 354 423
#     4  11  25  46  68 101 144 185 230 289 364 420
#     4  12  21  44  70 100 135 182 241 294 336 424
#     4  11  24  45  70  99 141 182 237 289 347 429
#
# _framework density 21.256685000000001
#
# number of rings (size 3 to 8) (size 9 to 14) (size 15 to 20)
#    0.000    0.800    6.667    1.200    5.600    0.000 
#    7.200    0.000    0.000    0.000    0.000    0.000 
#    0.000    0.000    0.000    0.000    0.000    0.000 
#
# Total GULP energy -251095.570034 kJ/mol
# GULP energy per Si atom -5579.901556 kJ/mol
# Density = 2.120830 g / cm^3
# Si number density = 21.256685 Si / 1000 Ang^3
#
#
#
# Elastic Constant Matrix: (Units=GPa)
#
#
# Indices 1 2 3 4 5 6 
#
# 1 85.7441 35.6306 7.3135 1.7530 -0.0001 0.0000
# 2 35.6306 85.7441 7.3135 -1.7530 0.0001 0.0000
# 3 7.3135 7.3135 48.5636 0.0000 0.0000 0.0000
# 4 1.7530 -1.7530 0.0000 24.1986 0.0000 0.0001
# 5 -0.0001 0.0001 0.0000 0.0000 24.1986 1.7530
# 6 0.0000 0.0000 0.0000 0.0001 1.7530 25.0568
#
#
#
# Elastic Compliance Matrix: (Units=1/GPa)
#
#
# Indices 1 2 3 4 5 6 
#
# 1 0.014224 -0.005833 -0.001264 -0.001453 0.000000 0.000000
# 2 -0.005833 0.014224 -0.001264 0.001453 0.000000 0.000000
# 3 -0.001264 -0.001264 0.020972 0.000000 0.000000 0.000000
# 4 -0.001453 0.001453 0.000000 0.041535 0.000000 0.000000
# 5 0.000000 0.000000 0.000000 0.000000 0.041535 -0.002906
# 6 0.000000 0.000000 0.000000 0.000000 -0.002906 0.040113
#
#
# Mechanical properties :
#
#
# Convention : Reuss Voigt Hill
#
# Bulk Modulus (GPa) = 30.58112 35.61854 33.09983
# Shear Modulus (GPa) = 24.97220 26.01042 25.49131
#
# Velocity S-wave (km/s) = 3.43124 3.50184 3.46672
# Velocity P-wave (km/s) = 5.48778 5.75702 5.62401
#
# Compressibility (1/GPa) = 0.03269992
#
# Stress axis : x y z
#
# Youngs Moduli (GPa) = 70.30474 70.30474 47.68220
#
# Poissons Ratio (x) = 0.41006 0.06026
# Poissons Ratio (y) = 0.41006 0.06026
# Poissons Ratio (z) = 0.08884 0.08884
#
# Static dielectric constant tensor:
#      x y z
#    x 1.804580 0.000000 0.000000 
#    y 0.000000 1.804580 0.000000 
#    z 0.000000 0.000000 1.793400 
# 
# From -- ./inp_files/2511.got.cif
#   From: 2010.05.17/outbox.cif.g08.bks.cpg/sg152_2_cif.got.tgz:2511.got - 2010.05.20 10:36:06.
