data_PCOD9576538
_publ_section_title
;
Structure prediction by ZEFSAII (Michael W. Deem and Ramdas Pophale) SiO2 
 PCOD9576538
Probable space group: P 32 2 1
;
_chemical_formula_sum "Si O2"
_cell_formula_units_Z 42
_cell_length_a 8.667601
_cell_length_b 8.667601
_cell_length_c 28.885454
_cell_angle_alpha 90.000000
_cell_angle_beta 90.000000
_cell_angle_gamma 120.000000
_cell_volume 1879.349928
_symmetry_space_group_name_H-M "P 32 2 1"
_symmetry_group_IT_number 154
_symmetry_cell_setting 'hexagonal'
loop_
_space_group_symop_operation_xyz
x,y,z
-y,x-y,2/3+z
-x+y,-x,1/3+z
x-y,-y,1/3-z
-x,-x+y,2/3-z
y,x,-z
loop_
_atom_site_type_symbol
_atom_site_label
_atom_site_fract_x
_atom_site_fract_y
_atom_site_fract_z
Si Si1 0.830299 0.947162 0.958806
Si Si2 0.577011 0.353844 0.738702
Si Si3 0.613368 0.268604 0.944528
Si Si4 0.441418 0.410295 0.090677
Si Si5 0.426657 0.010938 0.857182
Si Si6 0.062696 0.100317 0.121622
Si Si7 0.327991 0.942552 0.003584
O O1 0.932979 0.147624 0.979919
O O2 0.949599 0.947744 0.916045
O O3 0.630223 0.891568 0.943757
O O4 0.821426 0.821426 0.000000
O O5 0.636527 0.210918 0.732249
O O6 0.586170 0.416545 0.790998
O O7 0.701350 0.529659 0.709729
O O8 0.551253 0.411837 0.937712
O O9 0.555167 0.159032 0.895438
O O10 0.820197 0.354524 0.958224
O O11 0.487908 0.128129 0.984198
O O12 0.535835 0.497267 0.139355
O O13 0.253466 0.235955 0.099820
O O14 0.234365 0.995647 0.861315
O O15 0.076118 0.000000 0.166667
#
# Coordination Sequence:
#
# PCOD9576538 Si02
#       7
#     6   6   6   6   6   6   6
#     4  12  24  42  66  98 137 181 226 285 345 407
#     4  11  24  40  67  99 132 181 227 285 339 412
#     4  10  23  41  69  97 136 184 222 291 343 410
#     4  11  23  40  71  99 136 172 234 279 351 410
#     4  10  20  46  65  97 130 178 220 282 338 411
#     4  11  25  44  69  99 137 180 227 281 349 411
#     4  11  23  44  63  96 140 176 235 275 349 410
#
# _framework density 22.348153
#
# number of rings (size 3 to 8) (size 9 to 14) (size 15 to 20)
#    0.000    1.143    2.857    6.000    4.000    0.000 
#    2.571    0.714    0.000    0.000    0.000    0.000 
#    0.000    0.000    0.000    0.000    0.000    0.000 
#
# Total GULP energy -234602.644463 kJ/mol
# GULP energy per Si atom -5585.777249 kJ/mol
# Density = 2.229729 g / cm^3
# Si number density = 22.348153 Si / 1000 Ang^3
#
#
#
# Elastic Constant Matrix: (Units=GPa)
#
#
# Indices 1 2 3 4 5 6 
#
# 1 62.0253 12.7301 24.5204 -0.7654 0.0006 0.0000
# 2 12.7301 62.0253 24.5204 0.7654 -0.0006 0.0000
# 3 24.5204 24.5204 84.8208 0.0000 0.0000 0.0000
# 4 -0.7654 0.7654 0.0000 33.9620 0.0000 -0.0006
# 5 0.0006 -0.0006 0.0000 0.0000 33.9620 -0.7654
# 6 0.0000 0.0000 0.0000 -0.0006 -0.7654 24.6476
#
#
#
# Elastic Compliance Matrix: (Units=1/GPa)
#
#
# Indices 1 2 3 4 5 6 
#
# 1 0.018404 -0.001896 -0.004772 0.000457 0.000000 0.000000
# 2 -0.001896 0.018404 -0.004772 -0.000457 0.000000 0.000000
# 3 -0.004772 -0.004772 0.014549 0.000000 0.000000 0.000000
# 4 0.000457 -0.000457 0.000000 0.029465 0.000000 0.000001
# 5 0.000000 0.000000 0.000000 0.000000 0.029465 0.000915
# 6 0.000000 0.000000 0.000000 0.000001 0.000915 0.040600
#
#
# Mechanical properties :
#
#
# Convention : Reuss Voigt Hill
#
# Bulk Modulus (GPa) = 35.11807 36.93480 36.02644
# Shear Modulus (GPa) = 27.28368 28.32105 27.80236
#
# Velocity S-wave (km/s) = 3.49785 3.56373 3.53094
# Velocity P-wave (km/s) = 5.66229 5.78761 5.72529
#
# Compressibility (1/GPa) = 0.02847537
#
# Stress axis : x y z
#
# Youngs Moduli (GPa) = 54.33654 54.33654 68.73502
#
# Poissons Ratio (x) = 0.10304 0.32801
# Poissons Ratio (y) = 0.10304 0.32801
# Poissons Ratio (z) = 0.25930 0.25930
#
# Static dielectric constant tensor:
#      x y z
#    x 1.852860 0.000000 0.000000 
#    y 0.000000 1.852860 0.000000 
#    z 0.000000 0.000000 1.849560 
# 
# From -- ./inp_files/3770.got.cif
#   From: 2010.05.17/outbox.cif.g08.bks.cpg/sg154_2_cif.got.tgz:3770.got - 2010.05.20 10:41:43.
