data_PCOD9576521
_publ_section_title
;
Structure prediction by ZEFSAII (Michael W. Deem and Ramdas Pophale) SiO2 
 PCOD9576521
Probable space group: P 32 2 1
;
_chemical_formula_sum "Si O2"
_cell_formula_units_Z 30
_cell_length_a 11.497093
_cell_length_b 11.497093
_cell_length_c 12.059145
_cell_angle_alpha 90.000000
_cell_angle_beta 90.000000
_cell_angle_gamma 120.000000
_cell_volume 1380.458126
_symmetry_space_group_name_H-M "P 32 2 1"
_symmetry_group_IT_number 154
_symmetry_cell_setting 'hexagonal'
loop_
_space_group_symop_operation_xyz
x,y,z
-y,x-y,2/3+z
-x+y,-x,1/3+z
x-y,-y,1/3-z
-x,-x+y,2/3-z
y,x,-z
loop_
_atom_site_type_symbol
_atom_site_label
_atom_site_fract_x
_atom_site_fract_y
_atom_site_fract_z
Si Si1 0.543208 0.882779 0.938508
Si Si2 0.837828 0.945297 0.902817
Si Si3 0.238470 0.034491 0.372985
Si Si4 0.518414 0.247827 0.495450
Si Si5 0.514593 0.603532 0.611385
O O1 0.503693 0.790198 0.048934
O O2 0.547162 0.017512 0.979988
O O3 0.682593 0.902266 0.900467
O O4 0.429912 0.827110 0.845103
O O5 0.860584 0.888320 0.788877
O O6 0.867216 0.867216 0.000000
O O7 0.910349 0.101329 0.937211
O O8 0.372799 0.154207 0.434422
O O9 0.279678 0.924998 0.337111
O O10 0.609654 0.385945 0.428229
O O11 0.570807 0.570807 0.500000
#
# Coordination Sequence:
#
# PCOD9576521 Si02
#       5
#     6   6   6   6   6
#     4  10  21  37  64  93 128 170 218 276 324 401
#     4  12  24  41  66  94 135 173 229 265 334 399
#     4  11  24  41  66  97 128 182 218 278 328 402
#     4  10  20  40  64  95 128 170 222 268 340 386
#     4   9  20  40  67  91 132 170 219 267 337 400
#
# _framework density 21.731918
#
# number of rings (size 3 to 8) (size 9 to 14) (size 15 to 20)
#    0.000    1.600    4.000    0.600    2.800    1.600 
#    0.000    0.000    0.000    1.200    0.000    0.000 
#    0.000    0.000    0.000    0.000    0.000    0.000 
#
# Total GULP energy -167545.420768 kJ/mol
# GULP energy per Si atom -5584.847359 kJ/mol
# Density = 2.168246 g / cm^3
# Si number density = 21.731918 Si / 1000 Ang^3
#
#
#
# Elastic Constant Matrix: (Units=GPa)
#
#
# Indices 1 2 3 4 5 6 
#
# 1 86.7649 32.1907 19.6012 0.0630 0.0000 0.0000
# 2 32.1907 86.7649 19.6012 -0.0630 0.0000 0.0000
# 3 19.6012 19.6012 46.9371 0.0000 0.0000 0.0000
# 4 0.0630 -0.0630 0.0000 26.0307 0.0000 0.0000
# 5 0.0000 0.0000 0.0000 0.0000 26.0307 0.0630
# 6 0.0000 0.0000 0.0000 0.0000 0.0630 27.2871
#
#
#
# Elastic Compliance Matrix: (Units=1/GPa)
#
#
# Indices 1 2 3 4 5 6 
#
# 1 0.014036 -0.004288 -0.004071 -0.000044 0.000000 0.000000
# 2 -0.004288 0.014036 -0.004071 0.000044 0.000000 0.000000
# 3 -0.004071 -0.004071 0.024705 0.000000 0.000000 0.000000
# 4 -0.000044 0.000044 0.000000 0.038416 0.000000 0.000000
# 5 0.000000 0.000000 0.000000 0.000000 0.038416 -0.000089
# 6 0.000000 0.000000 0.000000 0.000000 -0.000089 0.036648
#
#
# Mechanical properties :
#
#
# Convention : Reuss Voigt Hill
#
# Bulk Modulus (GPa) = 35.81936 40.36144 38.09040
# Shear Modulus (GPa) = 24.94730 25.80794 25.37762
#
# Velocity S-wave (km/s) = 3.39183 3.44984 3.42095
# Velocity P-wave (km/s) = 5.64424 5.87207 5.75928
#
# Compressibility (1/GPa) = 0.02791786
#
# Stress axis : x y z
#
# Youngs Moduli (GPa) = 71.24576 71.24576 40.47746
#
# Poissons Ratio (x) = 0.30549 0.16478
# Poissons Ratio (y) = 0.30549 0.16478
# Poissons Ratio (z) = 0.29003 0.29003
#
# Static dielectric constant tensor:
#      x y z
#    x 1.792280 0.000000 0.000000 
#    y 0.000000 1.792280 0.000000 
#    z 0.000000 0.000000 1.803670 
# 
# From -- ./inp_files/1883.got.cif
#   From: 2010.05.17/outbox.cif.g08.bks.cpg/sg154_1_cif.got.tgz:1883.got - 2010.05.20 10:41:43.
