data_PCOD9576126
_publ_section_title
;
Structure prediction by ZEFSAII (Michael W. Deem and Ramdas Pophale) SiO2 
 PCOD9576126
Probable space group: P 31 2 1
;
_chemical_formula_sum "Si O2"
_cell_formula_units_Z 36
_cell_length_a 13.182924
_cell_length_b 13.182924
_cell_length_c 12.984808
_cell_angle_alpha 90.000000
_cell_angle_beta 90.000000
_cell_angle_gamma 120.000000
_cell_volume 1954.292929
_symmetry_space_group_name_H-M "P 31 2 1"
_symmetry_group_IT_number 152
_symmetry_cell_setting 'hexagonal'
loop_
_space_group_symop_operation_xyz
x,y,z
-y,x-y,1/3+z
-x+y,-x,2/3+z
x-y,-y,2/3-z
-x,-x+y,1/3-z
y,x,-z
loop_
_atom_site_type_symbol
_atom_site_label
_atom_site_fract_x
_atom_site_fract_y
_atom_site_fract_z
Si Si1 0.995287 0.652990 0.460222
Si Si2 0.318633 0.000000 0.333334
Si Si3 0.263089 0.468473 0.953323
Si Si4 0.973948 0.000000 0.333334
Si Si5 0.826186 0.723913 0.567957
Si Si6 0.550137 0.143912 0.197894
Si Si7 0.240668 0.177139 0.398097
O O1 0.895329 0.679186 0.498231
O O2 0.938087 0.513711 0.455724
O O3 0.088555 0.689698 0.552270
O O4 0.046387 0.733007 0.360034
O O5 0.426336 0.072905 0.256368
O O6 0.287635 0.085379 0.398762
O O7 0.241120 0.547892 0.873799
O O8 0.143226 0.365722 0.003744
O O9 0.352380 0.541633 0.044878
O O10 0.856981 0.921090 0.399858
O O11 0.002894 0.902963 0.287946
O O12 0.728498 0.728498 0.500000
O O13 0.248753 0.248753 0.500000
#
# Coordination Sequence:
#
# PCOD9576126 Si02
#       7
#     6   3   6   3   6   6   6
#     4  11  21  40  62  88 122 165 208 258 299 375
#     4  11  22  39  68  88 124 169 210 235 316 378
#     4  11  23  42  65  88 120 162 221 264 303 370
#     4  11  20  33  58  98 136 161 188 225 322 396
#     4  11  20  34  62  94 127 160 197 246 314 387
#     4  11  23  44  66  90 114 168 222 261 308 370
#     4  11  25  36  58 100 137 158 191 252 321 379
#
# _framework density 18.420985999999999
#
# number of rings (size 3 to 8) (size 9 to 14) (size 15 to 20)
#    0.000    1.000    6.667    1.500    4.667    0.000 
#    3.000    4.167    0.000    0.000    0.000    0.000 
#    0.000    0.000    0.000    0.000    0.000    0.000 
#
# Total GULP energy -200737.809999 kJ/mol
# GULP energy per Si atom -5576.050278 kJ/mol
# Density = 1.837906 g / cm^3
# Si number density = 18.420986 Si / 1000 Ang^3
#
#
#
# Elastic Constant Matrix: (Units=GPa)
#
#
# Indices 1 2 3 4 5 6 
#
# 1 529.7407 -414.8994 32.4256-1571.4689 -0.0451 0.0001
# 2 -414.8994 529.7407 32.4256 1571.4689 0.0451 -0.0001
# 3 32.4256 32.4256 81.2015 0.0000 0.0000 0.0000
# 4 -1571.4689 1571.4689 0.0000 5447.2015 0.0009 0.0446
# 5 -0.0451 0.0451 0.0000 0.0009 5447.2005-1571.4686
# 6 0.0001 -0.0001 0.0000 0.0446-1571.4686 472.3200
#
#
#
# Elastic Compliance Matrix: (Units=1/GPa)
#
#
# Indices 1 2 3 4 5 6 
#
# 1 0.018803 -0.007560 -0.004490 0.007606 0.000000 0.000000
# 2 -0.007560 0.018803 -0.004490 -0.007606 0.000000 0.000000
# 3 -0.004490 -0.004490 0.015901 0.000000 0.000000 0.000000
# 4 0.007606 -0.007606 0.000000 0.004572 0.000000 0.000000
# 5 0.000000 0.000000 0.000000 0.000000 0.004572 0.015211
# 6 0.000000 0.000000 0.000000 0.000000 0.015211 0.052728
#
#
# Mechanical properties :
#
#
# Convention : Reuss Voigt Hill
#
# Bulk Modulus (GPa) = 48.95184 48.95406 48.95295
# Shear Modulus (GPa) = 32.20245 2372.72648 1202.46446
#
# Velocity S-wave (km/s) = 4.18561 35.92843 25.57706
# Velocity P-wave (km/s) = 7.07041 41.80633 29.98133
#
# Compressibility (1/GPa) = 0.02042824
#
# Stress axis : x y z
#
# Youngs Moduli (GPa) = 53.18185 53.18185 62.89069
#
# Poissons Ratio (x) = 0.40208 0.28235
# Poissons Ratio (y) = 0.40208 0.28235
# Poissons Ratio (z) = 0.23876 0.23876
#
# Static dielectric constant tensor:
#      x y z
#    x 0.568430 0.000000 0.000000 
#    y 0.000000 0.568430 0.000000 
#    z 0.000000 0.000000 1.667910 
# 
# From -- ./inp_files/2066.got.cif
#   From: 2010.05.17/outbox.cif.g08.bks.cpg/sg152_2_cif.got.tgz:2066.got - 2010.05.20 10:36:06.
