data_PCOD9576166
_publ_section_title
;
Structure prediction by ZEFSAII (Michael W. Deem and Ramdas Pophale) SiO2 
 PCOD9576166
Probable space group: P 31 2 1
;
_chemical_formula_sum "Si O2"
_cell_formula_units_Z 45
_cell_length_a 11.309826
_cell_length_b 11.309826
_cell_length_c 17.315879
_cell_angle_alpha 90.000000
_cell_angle_beta 90.000000
_cell_angle_gamma 120.000000
_cell_volume 1918.169676
_symmetry_space_group_name_H-M "P 31 2 1"
_symmetry_group_IT_number 152
_symmetry_cell_setting 'hexagonal'
loop_
_space_group_symop_operation_xyz
x,y,z
-y,x-y,1/3+z
-x+y,-x,2/3+z
x-y,-y,2/3-z
-x,-x+y,1/3-z
y,x,-z
loop_
_atom_site_type_symbol
_atom_site_label
_atom_site_fract_x
_atom_site_fract_y
_atom_site_fract_z
Si Si1 0.000000 0.563252 0.166667
Si Si2 0.991660 0.156876 0.944894
Si Si3 0.649959 0.531065 0.948736
Si Si4 0.287886 0.230929 0.360478
Si Si5 0.571013 0.900776 0.562043
Si Si6 0.067673 0.431413 0.470522
Si Si7 0.711943 0.341034 0.183500
Si Si8 0.902320 0.775144 0.554549
O O1 0.954534 0.626114 0.097281
O O2 0.873923 0.422593 0.197645
O O3 0.928395 0.247626 0.916043
O O4 0.103189 0.161680 0.886295
O O5 0.868384 0.000074 0.948055
O O6 0.073190 0.218895 0.025108
O O7 0.647465 0.609925 0.872195
O O8 0.632890 0.388366 0.918245
O O9 0.529127 0.529127 0.000000
O O10 0.792726 0.625071 0.991970
O O11 0.264526 0.319830 0.295439
O O12 0.517622 0.006868 0.568619
O O13 0.439144 0.751708 0.558674
O O14 0.644740 0.904192 0.480980
O O15 0.216739 0.542055 0.498357
O O16 0.809888 0.809888 0.500000
#
# Coordination Sequence:
#
# PCOD9576166 Si02
#       8
#     3   6   6   6   6   6   6   6
#     4  12  28  44  74 116 166 198 276 314 402 482
#     4  11  26  44  76 112 153 201 257 329 389 465
#     4  11  26  47  80 111 157 204 271 324 402 486
#     4  12  25  46  75 118 153 208 257 327 394 475
#     4  11  26  47  78 104 159 200 262 323 395 479
#     4  11  24  51  75 111 147 206 264 330 396 474
#     4  11  26  49  75 114 150 209 258 329 394 473
#     4  11  25  46  70 111 152 197 255 319 401 459
#
# _framework density 23.459866000000002
#
# number of rings (size 3 to 8) (size 9 to 14) (size 15 to 20)
#    0.000    0.800    4.000    1.600    5.600    4.267 
#    9.600    4.000    0.000    0.000    0.000    0.000 
#    0.000    0.000    0.000    0.000    0.000    0.000 
#
# Total GULP energy -251672.128765 kJ/mol
# GULP energy per Si atom -5592.713973 kJ/mol
# Density = 2.340647 g / cm^3
# Si number density = 23.459866 Si / 1000 Ang^3
#
#
#
# Elastic Constant Matrix: (Units=GPa)
#
#
# Indices 1 2 3 4 5 6 
#
# 1 118.7626 51.2581 18.4277 -1.3895 0.0000 0.0000
# 2 51.2581 118.7626 18.4277 1.3895 0.0000 0.0000
# 3 18.4277 18.4277 57.9122 0.0000 0.0000 0.0000
# 4 -1.3895 1.3895 0.0000 29.8718 0.0000 0.0000
# 5 0.0000 0.0000 0.0000 0.0000 29.8718 -1.3895
# 6 0.0000 0.0000 0.0000 0.0000 -1.3895 33.7522
#
#
#
# Elastic Compliance Matrix: (Units=1/GPa)
#
#
# Indices 1 2 3 4 5 6 
#
# 1 0.010580 -0.004262 -0.002010 0.000690 0.000000 0.000000
# 2 -0.004262 0.010580 -0.002010 -0.000690 0.000000 0.000000
# 3 -0.002010 -0.002010 0.018547 0.000000 0.000000 0.000000
# 4 0.000690 -0.000690 0.000000 0.033541 0.000000 0.000000
# 5 0.000000 0.000000 0.000000 0.000000 0.033541 0.001381
# 6 0.000000 0.000000 0.000000 0.000000 0.001381 0.029685
#
#
# Mechanical properties :
#
#
# Convention : Reuss Voigt Hill
#
# Bulk Modulus (GPa) = 43.21372 52.40716 47.81044
# Shear Modulus (GPa) = 31.10391 32.52075 31.81233
#
# Velocity S-wave (km/s) = 3.64515 3.72725 3.68643
# Velocity P-wave (km/s) = 6.01469 6.39615 6.20835
#
# Compressibility (1/GPa) = 0.02314080
#
# Stress axis : x y z
#
# Youngs Moduli (GPa) = 94.51957 94.51957 53.91758
#
# Poissons Ratio (x) = 0.40288 0.10839
# Poissons Ratio (y) = 0.40288 0.10839
# Poissons Ratio (z) = 0.19000 0.19000
#
# Static dielectric constant tensor:
#      x y z
#    x 1.910640 0.000000 0.000000 
#    y 0.000000 1.910640 0.000000 
#    z 0.000000 0.000000 1.892380 
# 
# From -- ./inp_files/2517.got.cif
#   From: 2010.05.17/outbox.cif.g08.bks.cpg/sg152_2_cif.got.tgz:2517.got - 2010.05.20 10:36:06.
