data_PCOD9576767
_publ_section_title
;
Structure prediction by ZEFSAII (Michael W. Deem and Ramdas Pophale) SiO2 
 PCOD9576767
Probable space group: R 3 2
;
_chemical_formula_sum "Si O2"
_cell_formula_units_Z 117
_cell_length_a 17.487832
_cell_length_b 17.487832
_cell_length_c 26.293353
_cell_angle_alpha 90.000000
_cell_angle_beta 90.000000
_cell_angle_gamma 120.000000
_cell_volume 6963.836223
_symmetry_space_group_name_H-M "R 3 2"
_symmetry_group_IT_number 155
_symmetry_cell_setting 'hexagonal'
loop_
_space_group_symop_operation_xyz
x,y,z
-y,x-y,z
-x+y,-x,z
x-y,-y,-z
-x,-x+y,-z
y,x,-z
2/3+x,1/3+y,1/3+z
2/3-y,1/3+x-y,1/3+z
2/3-x+y,1/3-x,1/3+z
2/3+x-y,1/3-y,1/3-z
2/3-x,1/3-x+y,1/3-z
2/3+y,1/3+x,1/3-z
1/3+x,2/3+y,2/3+z
1/3-y,2/3+x-y,2/3+z
1/3-x+y,2/3-x,2/3+z
1/3+x-y,2/3-y,2/3-z
1/3-x,2/3-x+y,2/3-z
1/3+y,2/3+x,2/3-z
loop_
_atom_site_type_symbol
_atom_site_label
_atom_site_fract_x
_atom_site_fract_y
_atom_site_fract_z
Si Si1 0.262824 0.199297 0.235707
Si Si2 0.865890 0.391820 0.235577
Si Si3 0.477425 0.867944 0.546343
Si Si4 0.909907 0.248714 0.520977
Si Si5 0.000000 0.264994 0.000000
Si Si6 0.871502 0.307335 0.062977
Si Si7 0.501385 0.960128 0.944356
O O1 0.367563 0.234264 0.237332
O O2 0.222813 0.176076 0.178870
O O3 0.216031 0.107312 0.265402
O O4 0.238341 0.267258 0.259937
O O5 0.832529 0.462497 0.236468
O O6 0.789980 0.293985 0.218233
O O7 0.942326 0.427596 0.192763
O O8 0.900760 0.375675 0.289036
O O9 0.932192 0.340235 0.550086
O O10 0.860799 0.177839 0.565760
O O11 0.000000 0.259462 0.500000
O O12 0.926929 0.285002 0.023515
O O13 0.878017 0.400796 0.053174
O O14 0.521302 0.000000 0.000000
#
# Coordination Sequence:
#
# PCOD9576767 Si02
#       7
#    18  18  18  18   9  18  18
#     4  11  21  37  60  86 115 158 194 244 303 354
#     4  12  22  37  56  84 117 157 203 237 287 360
#     4  11  22  38  58  83 119 157 203 241 288 362
#     4  10  17  33  60  81 105 150 191 240 284 342
#     4  12  22  34  60  84 112 160 202 236 296 352
#     4  10  19  37  57  83 113 148 195 243 286 357
#     4  10  21  36  58  88 117 143 193 251 300 348
#
# _framework density 16.801083999999999
#
# number of rings (size 3 to 8) (size 9 to 14) (size 15 to 20)
#    0.923    0.308    6.923    0.308    0.000    1.846 
#    0.923    0.000    0.000    0.000    0.000    0.000 
#    0.000    0.000    0.000    0.000    0.000    0.000 
#
# Total GULP energy -217168.534201 kJ/mol
# GULP energy per Si atom -5568.423954 kJ/mol
# Density = 1.676284 g / cm^3
# Si number density = 16.801084 Si / 1000 Ang^3
#
#
#
# Elastic Constant Matrix: (Units=GPa)
#
#
# Indices 1 2 3 4 5 6 
#
# 1 56.5856 16.7643 9.2696 5.2822 0.0000 0.0000
# 2 16.7643 56.5856 9.2696 -5.2822 0.0000 0.0000
# 3 9.2696 9.2696 80.1207 0.0000 0.0000 0.0000
# 4 5.2822 -5.2822 0.0000 22.1190 0.0000 0.0000
# 5 0.0000 0.0000 0.0000 0.0000 22.1190 5.2822
# 6 0.0000 0.0000 0.0000 0.0000 5.2822 19.9107
#
#
#
# Elastic Compliance Matrix: (Units=1/GPa)
#
#
# Indices 1 2 3 4 5 6 
#
# 1 0.020427 -0.006383 -0.001625 -0.006403 0.000000 0.000000
# 2 -0.006383 0.020427 -0.001625 0.006403 0.000000 0.000000
# 3 -0.001625 -0.001625 0.012857 0.000000 0.000000 0.000000
# 4 -0.006403 0.006403 0.000000 0.048268 0.000000 0.000000
# 5 0.000000 0.000000 0.000000 0.000000 0.048268 -0.012805
# 6 0.000000 0.000000 0.000000 0.000000 -0.012805 0.053621
#
#
# Mechanical properties :
#
#
# Convention : Reuss Voigt Hill
#
# Bulk Modulus (GPa) = 29.03114 29.32209 29.17661
# Shear Modulus (GPa) = 21.31129 23.36229 22.33679
#
# Velocity S-wave (km/s) = 3.56539 3.73302 3.65017
# Velocity P-wave (km/s) = 5.85373 6.00591 5.93031
#
# Compressibility (1/GPa) = 0.03444577
#
# Stress axis : x y z
#
# Youngs Moduli (GPa) = 48.95399 48.95399 77.77780
#
# Poissons Ratio (x) = 0.31249 0.12637
# Poissons Ratio (y) = 0.31249 0.12637
# Poissons Ratio (z) = 0.07954 0.07954
#
# Static dielectric constant tensor:
#      x y z
#    x 1.572160 0.000000 0.000000 
#    y 0.000000 1.572160 0.000000 
#    z 0.000000 0.000000 1.592560 
# 
# From -- ./inp_files/8539.got.cif
#   From: 2010.05.17/outbox.cif.g08.bks.cpg/sg155_5_cif.got.tgz:8539.got - 2010.05.20 10:44:35.
