data_PCOD9576113
_publ_section_title
;
Structure prediction by ZEFSAII (Michael W. Deem and Ramdas Pophale) SiO2 
 PCOD9576113
Probable space group: P 31 2 1
;
_chemical_formula_sum "Si O2"
_cell_formula_units_Z 33
_cell_length_a 14.240582
_cell_length_b 14.240582
_cell_length_c 9.609418
_cell_angle_alpha 90.000000
_cell_angle_beta 90.000000
_cell_angle_gamma 120.000000
_cell_volume 1687.653151
_symmetry_space_group_name_H-M "P 31 2 1"
_symmetry_group_IT_number 152
_symmetry_cell_setting 'hexagonal'
loop_
_space_group_symop_operation_xyz
x,y,z
-y,x-y,1/3+z
-x+y,-x,2/3+z
x-y,-y,2/3-z
-x,-x+y,1/3-z
y,x,-z
loop_
_atom_site_type_symbol
_atom_site_label
_atom_site_fract_x
_atom_site_fract_y
_atom_site_fract_z
Si Si1 0.000000 0.049020 0.666667
Si Si2 0.781423 0.318115 0.032654
Si Si3 0.515794 0.515794 0.500000
Si Si4 0.959053 0.734624 0.009191
Si Si5 0.359392 0.444866 0.238672
Si Si6 0.223321 0.483621 0.617029
Si Si7 0.524088 0.524088 0.000000
O O1 0.107323 0.164552 0.683693
O O2 0.010882 0.010882 0.500000
O O3 0.697063 0.213738 0.121385
O O4 0.743984 0.407522 0.014401
O O5 0.901168 0.378339 0.098321
O O6 0.784348 0.269856 0.883374
O O7 0.422661 0.479251 0.384812
O O8 0.849067 0.619906 0.997191
O O9 0.000000 0.746362 0.166667
O O10 0.048811 0.729942 0.913433
O O11 0.451768 0.462024 0.131730
O O12 0.110895 0.472510 0.667868
#
# Coordination Sequence:
#
# PCOD9576113 Si02
#       7
#     3   6   3   6   6   6   3
#     4  10  25  45  74 104 132 178 238 286 346 404
#     4  12  22  41  67  92 128 180 220 268 326 419
#     4  12  22  44  66  88 128 180 218 258 338 408
#     4  11  20  44  71  89 130 183 217 273 337 408
#     4  12  23  43  65  93 131 172 218 267 338 396
#     4  12  22  40  64  96 131 174 225 265 337 406
#     4  12  27  37  60 104 134 162 216 286 322 378
#
# _framework density 19.553781000000001
#
# number of rings (size 3 to 8) (size 9 to 14) (size 15 to 20)
#    0.000    0.364    8.182    1.636    0.000    0.727 
#    1.636    0.000    0.000    0.000    0.000    0.000 
#    0.000    0.000    0.000    0.000    0.000    0.000 
#
# Total GULP energy -184013.271923 kJ/mol
# GULP energy per Si atom -5576.159755 kJ/mol
# Density = 1.950928 g / cm^3
# Si number density = 19.553781 Si / 1000 Ang^3
#
#
#
# Elastic Constant Matrix: (Units=GPa)
#
#
# Indices 1 2 3 4 5 6 
#
# 1 177.6006 21.4808 17.3399 -44.6620 0.0003 0.0000
# 2 21.4808 177.6006 17.3399 44.6620 -0.0003 0.0000
# 3 17.3399 17.3399 56.0606 0.0000 0.0000 0.0000
# 4 -44.6620 44.6620 0.0000 65.3770 0.0000 -0.0003
# 5 0.0003 -0.0003 0.0000 0.0000 65.3770 -44.6620
# 6 0.0000 0.0000 0.0000 -0.0003 -44.6620 78.0599
#
#
#
# Elastic Compliance Matrix: (Units=1/GPa)
#
#
# Indices 1 2 3 4 5 6 
#
# 1 0.007912 -0.002603 -0.001642 0.007184 0.000000 0.000000
# 2 -0.002603 0.007912 -0.001642 -0.007184 0.000000 0.000000
# 3 -0.001642 -0.001642 0.018854 0.000000 0.000000 0.000000
# 4 0.007184 -0.007184 0.000000 0.025111 0.000000 0.000000
# 5 0.000000 0.000000 0.000000 0.000000 0.025111 0.014367
# 6 0.000000 0.000000 0.000000 0.000000 0.014367 0.021031
#
#
# Mechanical properties :
#
#
# Convention : Reuss Voigt Hill
#
# Bulk Modulus (GPa) = 43.66173 58.17589 50.91881
# Shear Modulus (GPa) = 39.89149 65.43617 52.66383
#
# Velocity S-wave (km/s) = 4.52164 5.79115 5.19531
# Velocity P-wave (km/s) = 7.04541 8.63324 7.87942
#
# Compressibility (1/GPa) = 0.02290335
#
# Stress axis : x y z
#
# Youngs Moduli (GPa) = 126.38580 126.38580 53.04001
#
# Poissons Ratio (x) = 0.32900 0.08710
# Poissons Ratio (y) = 0.32900 0.08710
# Poissons Ratio (z) = 0.20754 0.20754
#
# Static dielectric constant tensor:
#      x y z
#    x 1.585430 0.000000 0.000000 
#    y 0.000000 1.585430 0.000000 
#    z 0.000000 0.000000 1.756560 
# 
# From -- ./inp_files/1186.got.cif
#   From: 2010.05.17/outbox.cif.g08.bks.cpg/sg152_1_cif.got.tgz:1186.got - 2010.05.20 10:36:06.
