data_PCOD9576859
_publ_section_title
;
Structure prediction by ZEFSAII (Michael W. Deem and Ramdas Pophale) SiO2 
 PCOD9576859
Probable space group: R 3 2
;
_chemical_formula_sum "Si O2"
_cell_formula_units_Z 81
_cell_length_a 12.936439
_cell_length_b 12.936439
_cell_length_c 25.282895
_cell_angle_alpha 90.000000
_cell_angle_beta 90.000000
_cell_angle_gamma 120.000000
_cell_volume 3664.265408
_symmetry_space_group_name_H-M "R 3 2"
_symmetry_group_IT_number 155
_symmetry_cell_setting 'hexagonal'
loop_
_space_group_symop_operation_xyz
x,y,z
-y,x-y,z
-x+y,-x,z
x-y,-y,-z
-x,-x+y,-z
y,x,-z
2/3+x,1/3+y,1/3+z
2/3-y,1/3+x-y,1/3+z
2/3-x+y,1/3-x,1/3+z
2/3+x-y,1/3-y,1/3-z
2/3-x,1/3-x+y,1/3-z
2/3+y,1/3+x,1/3-z
1/3+x,2/3+y,2/3+z
1/3-y,2/3+x-y,2/3+z
1/3-x+y,2/3-x,2/3+z
1/3+x-y,2/3-y,2/3-z
1/3-x,2/3-x+y,2/3-z
1/3+y,2/3+x,2/3-z
loop_
_atom_site_type_symbol
_atom_site_label
_atom_site_fract_x
_atom_site_fract_y
_atom_site_fract_z
Si Si1 0.391070 0.915361 0.399529
Si Si2 0.649231 0.785696 0.186418
Si Si3 0.066188 0.799023 0.281988
Si Si4 0.483563 0.747461 0.558398
Si Si5 0.513040 0.666667 0.666667
O O1 0.325972 0.926317 0.451621
O O2 0.491749 0.880211 0.407002
O O3 0.272841 0.814649 0.369101
O O4 0.452739 0.035890 0.366751
O O5 0.533920 0.666667 0.166667
O O6 0.641328 0.863792 0.234021
O O7 0.726549 0.869799 0.138499
O O8 0.055713 0.722380 0.333334
O O9 0.393716 0.795170 0.543634
O O10 0.492610 0.742920 0.621691
#
# Coordination Sequence:
#
# PCOD9576859 Si02
#       5
#    18  18  18  18   9
#     4  10  21  36  59  84 119 151 206 247 305 355
#     4  10  19  36  59  86 115 153 194 252 306 364
#     4  10  21  37  60  89 115 160 205 254 303 367
#     4  10  21  33  54  81 116 151 194 234 313 375
#     4  12  20  38  54  84 122 160 186 254 314 360
#
# _framework density 22.105385999999999
#
# number of rings (size 3 to 8) (size 9 to 14) (size 15 to 20)
#    1.778    0.000    3.333    2.444    0.000    1.778 
#    0.000    0.000    0.000    0.000    0.000    0.000 
#    0.000    0.000    0.000    0.000    0.000    0.000 
#
# Total GULP energy -150399.846982 kJ/mol
# GULP energy per Si atom -5570.364703 kJ/mol
# Density = 2.205507 g / cm^3
# Si number density = 22.105386 Si / 1000 Ang^3
#
#
#
# Elastic Constant Matrix: (Units=GPa)
#
#
# Indices 1 2 3 4 5 6 
#
# 1 29.7806 0.9236 -3.8463 -2.6684 -0.0002 0.0000
# 2 0.9236 29.7806 -3.8463 2.6684 0.0002 0.0000
# 3 -3.8463 -3.8463 98.4191 0.0000 0.0000 0.0000
# 4 -2.6684 2.6684 0.0000 13.6434 0.0000 0.0002
# 5 -0.0002 0.0002 0.0000 0.0000 13.6434 -2.6684
# 6 0.0000 0.0000 0.0000 0.0002 -2.6684 14.4285
#
#
#
# Elastic Compliance Matrix: (Units=1/GPa)
#
#
# Indices 1 2 3 4 5 6 
#
# 1 0.034423 -0.001532 0.001285 0.007032 0.000001 0.000000
# 2 -0.001532 0.034423 0.001285 -0.007032 -0.000001 0.000000
# 3 0.001285 0.001285 0.010261 0.000000 0.000000 0.000000
# 4 0.007032 -0.007032 0.000000 0.076046 0.000000 -0.000001
# 5 0.000001 -0.000001 0.000000 0.000000 0.076046 0.014064
# 6 0.000000 0.000000 0.000000 -0.000001 0.014064 0.071908
#
#
# Mechanical properties :
#
#
# Convention : Reuss Voigt Hill
#
# Bulk Modulus (GPa) = 12.31765 16.04917 14.18341
# Shear Modulus (GPa) = 15.23972 19.32634 17.28303
#
# Velocity S-wave (km/s) = 2.62851 2.96003 2.79919
# Velocity P-wave (km/s) = 3.84662 4.35413 4.10822
#
# Compressibility (1/GPa) = 0.08118433
#
# Stress axis : x y z
#
# Youngs Moduli (GPa) = 29.05074 29.05074 97.45547
#
# Poissons Ratio (x) = 0.04450 -0.12527
# Poissons Ratio (y) = 0.04450 -0.12527
# Poissons Ratio (z) = -0.03734 -0.03734
#
# Static dielectric constant tensor:
#      x y z
#    x 1.841460 0.000000 0.000000 
#    y 0.000000 1.841460 0.000000 
#    z 0.000000 0.000000 1.810340 
# 
# From -- ./inp_files/7873.got.cif
#   From: 2010.05.17/outbox.cif.g08.bks.cpg/sg155_4_cif.got.tgz:7873.got - 2010.05.20 10:44:35.
