data_PCOD9576558
_publ_section_title
;
Structure prediction by ZEFSAII (Michael W. Deem and Ramdas Pophale) SiO2 
 PCOD9576558
Probable space group: P 32 2 1
;
_chemical_formula_sum "Si O2"
_cell_formula_units_Z 15
_cell_length_a 9.887743
_cell_length_b 9.887743
_cell_length_c 7.100414
_cell_angle_alpha 90.000000
_cell_angle_beta 90.000000
_cell_angle_gamma 120.000000
_cell_volume 601.185702
_symmetry_space_group_name_H-M "P 32 2 1"
_symmetry_group_IT_number 154
_symmetry_cell_setting 'hexagonal'
loop_
_space_group_symop_operation_xyz
x,y,z
-y,x-y,2/3+z
-x+y,-x,1/3+z
x-y,-y,1/3-z
-x,-x+y,2/3-z
y,x,-z
loop_
_atom_site_type_symbol
_atom_site_label
_atom_site_fract_x
_atom_site_fract_y
_atom_site_fract_z
Si Si1 0.325337 0.019607 0.877586
Si Si2 0.558107 0.355657 0.821849
Si Si3 0.126707 0.000000 0.166667
O O1 0.451924 0.962679 0.876740
O O2 0.258929 0.000000 0.666667
O O3 0.412346 0.204612 0.913269
O O4 0.192183 0.915928 0.027209
O O5 0.589132 0.293900 0.627344
O O6 0.000000 0.922296 0.333334
#
# Coordination Sequence:
#
# PCOD9576558 Si02
#       3
#     6   6   3
#     4  10  23  42  67 103 144 191 248 305 372 449
#     4  10  21  39  65 101 142 193 245 305 372 444
#     4  12  26  46  70 102 144 192 240 300 368 444
#
# _framework density 24.950690000000002
#
# number of rings (size 3 to 8) (size 9 to 14) (size 15 to 20)
#    0.000    1.600    0.000    3.600    0.000    8.000 
#    0.000    8.000    0.000    0.000    0.000    0.000 
#    0.000    0.000    0.000    0.000    0.000    0.000 
#
# Total GULP energy -83623.942687 kJ/mol
# GULP energy per Si atom -5574.929512 kJ/mol
# Density = 2.489390 g / cm^3
# Si number density = 24.950690 Si / 1000 Ang^3
#
#
#
# Elastic Constant Matrix: (Units=GPa)
#
#
# Indices 1 2 3 4 5 6 
#
# 1 108.6768 45.2765 40.3264 -7.6715 0.0001 0.0000
# 2 45.2765 108.6768 40.3264 7.6715 -0.0001 0.0000
# 3 40.3264 40.3264 158.2659 0.0000 0.0000 0.0000
# 4 -7.6715 7.6715 0.0000 34.2318 0.0000 -0.0001
# 5 0.0001 -0.0001 0.0000 0.0000 34.2318 -7.6715
# 6 0.0000 0.0000 0.0000 -0.0001 -7.6715 31.7002
#
#
#
# Elastic Compliance Matrix: (Units=1/GPa)
#
#
# Indices 1 2 3 4 5 6 
#
# 1 0.012087 -0.004591 -0.001910 0.003737 0.000000 0.000000
# 2 -0.004591 0.012087 -0.001910 -0.003737 0.000000 0.000000
# 3 -0.001910 -0.001910 0.007292 0.000000 0.000000 0.000000
# 4 0.003737 -0.003737 0.000000 0.030888 0.000000 0.000000
# 5 0.000000 0.000000 0.000000 0.000000 0.030888 0.007475
# 6 0.000000 0.000000 0.000000 0.000000 0.007475 0.033355
#
#
# Mechanical properties :
#
#
# Convention : Reuss Voigt Hill
#
# Bulk Modulus (GPa) = 68.28761 69.71982 69.00371
# Shear Modulus (GPa) = 33.71597 36.67878 35.19738
#
# Velocity S-wave (km/s) = 3.68000 3.83828 3.75997
# Velocity P-wave (km/s) = 6.74425 6.90268 6.82392
#
# Compressibility (1/GPa) = 0.01464395
#
# Stress axis : x y z
#
# Youngs Moduli (GPa) = 82.73574 82.73574 137.13972
#
# Poissons Ratio (x) = 0.37981 0.26194
# Poissons Ratio (y) = 0.37981 0.26194
# Poissons Ratio (z) = 0.15803 0.15803
#
# Static dielectric constant tensor:
#      x y z
#    x 2.036820 0.000000 0.000000 
#    y 0.000000 2.036820 0.000000 
#    z 0.000000 0.000000 2.019060 
# 
# From -- ./inp_files/671.got.cif
#   From: 2010.05.17/outbox.cif.g08.bks.cpg/sg154_1_cif.got.tgz:671.got - 2010.05.20 10:41:43.
