data_PCOD9576987
_publ_section_title
;
Structure prediction by ZEFSAII (Michael W. Deem and Ramdas Pophale) SiO2 
 PCOD9576987
Probable space group: R 3 2
;
_chemical_formula_sum "Si O2"
_cell_formula_units_Z 108
_cell_length_a 17.992665
_cell_length_b 17.992665
_cell_length_c 21.784655
_cell_angle_alpha 90.000000
_cell_angle_beta 90.000000
_cell_angle_gamma 120.000000
_cell_volume 6107.624186
_symmetry_space_group_name_H-M "R 3 2"
_symmetry_group_IT_number 155
_symmetry_cell_setting 'hexagonal'
loop_
_space_group_symop_operation_xyz
x,y,z
-y,x-y,z
-x+y,-x,z
x-y,-y,-z
-x,-x+y,-z
y,x,-z
2/3+x,1/3+y,1/3+z
2/3-y,1/3+x-y,1/3+z
2/3-x+y,1/3-x,1/3+z
2/3+x-y,1/3-y,1/3-z
2/3-x,1/3-x+y,1/3-z
2/3+y,1/3+x,1/3-z
1/3+x,2/3+y,2/3+z
1/3-y,2/3+x-y,2/3+z
1/3-x+y,2/3-x,2/3+z
1/3+x-y,2/3-y,2/3-z
1/3-x,2/3-x+y,2/3-z
1/3+y,2/3+x,2/3-z
loop_
_atom_site_type_symbol
_atom_site_label
_atom_site_fract_x
_atom_site_fract_y
_atom_site_fract_z
Si Si1 0.766352 0.534356 0.319193
Si Si2 0.943948 0.762241 0.642085
Si Si3 0.115868 0.782535 0.083335
Si Si4 0.233649 0.768004 0.180809
Si Si5 0.610613 0.095574 0.475418
Si Si6 0.431972 0.765303 0.916667
O O1 0.666667 0.483647 0.333334
O O2 0.808398 0.475065 0.333334
O O3 0.814348 0.617013 0.363621
O O4 0.784671 0.555777 0.247526
O O5 0.882953 0.666667 0.666667
O O6 0.895561 0.777558 0.585810
O O7 0.979521 0.837778 0.692585
O O8 0.028175 0.764971 0.614679
O O9 0.185653 0.802666 0.136382
O O10 0.028174 0.764972 0.114682
O O11 0.191601 0.666667 0.166667
O O12 0.333334 0.816979 0.166667
O O13 0.646182 0.171111 0.525918
O O14 0.549616 0.000000 0.500000
O O15 0.333335 0.746203 0.916667
#
# Coordination Sequence:
#
# PCOD9576987 Si02
#       6
#    18  18  18  18  18  18
#     4  10  22  36  62  89 123 161 207 258 315 385
#     4  11  21  40  66  94 125 169 221 268 331 389
#     4  10  21  38  64  91 124 158 218 270 307 396
#     4  10  22  36  62  89 123 161 207 258 315 385
#     4  11  21  40  66  94 125 169 221 268 331 389
#     4  10  25  38  64  99 140 174 216 290 337 410
#
# _framework density 17.682815999999999
#
# number of rings (size 3 to 8) (size 9 to 14) (size 15 to 20)
#    0.333    1.333    0.000    6.333    9.333    0.000 
#    0.000    1.667    3.667    0.000    0.000    0.000 
#    0.000    0.000    0.000    0.000    0.000    0.000 
#
# Total GULP energy -200709.412853 kJ/mol
# GULP energy per Si atom -5575.261468 kJ/mol
# Density = 1.764257 g / cm^3
# Si number density = 17.682816 Si / 1000 Ang^3
#
#
#
# Elastic Constant Matrix: (Units=GPa)
#
#
# Indices 1 2 3 4 5 6 
#
# 1 109.8082 43.0183 75.0869 -7.1697 0.0002 0.0000
# 2 43.0183 109.8082 75.0869 7.1697 -0.0002 0.0000
# 3 75.0869 75.0869 173.2638 0.0000 0.0000 0.0000
# 4 -7.1697 7.1697 0.0000 51.2681 0.0000 -0.0002
# 5 0.0002 -0.0002 0.0000 0.0000 51.2681 -7.1697
# 6 0.0000 0.0000 0.0000 -0.0002 -7.1697 33.3950
#
#
#
# Elastic Compliance Matrix: (Units=1/GPa)
#
#
# Indices 1 2 3 4 5 6 
#
# 1 0.013416 -0.002020 -0.004939 0.002159 0.000000 0.000000
# 2 -0.002020 0.013416 -0.004939 -0.002159 0.000000 0.000000
# 3 -0.004939 -0.004939 0.010052 0.000000 0.000000 0.000000
# 4 0.002159 -0.002159 0.000000 0.020109 0.000000 0.000000
# 5 0.000000 0.000000 0.000000 0.000000 0.020109 0.004317
# 6 0.000000 0.000000 0.000000 0.000000 0.004317 0.030872
#
#
# Mechanical properties :
#
#
# Convention : Reuss Voigt Hill
#
# Bulk Modulus (GPa) = 76.39557 86.58491 81.49024
# Shear Modulus (GPa) = 36.72900 40.49879 38.61390
#
# Velocity S-wave (km/s) = 4.56247 4.79089 4.67807
# Velocity P-wave (km/s) = 8.42923 8.92611 8.68122
#
# Compressibility (1/GPa) = 0.01308976
#
# Stress axis : x y z
#
# Youngs Moduli (GPa) = 74.53707 74.53707 99.48027
#
# Poissons Ratio (x) = 0.15054 0.49132
# Poissons Ratio (y) = 0.15054 0.49132
# Poissons Ratio (z) = 0.36813 0.36813
#
# Static dielectric constant tensor:
#      x y z
#    x 1.569820 0.000000 0.000000 
#    y 0.000000 1.569820 0.000000 
#    z 0.000000 0.000000 1.639080 
# 
# From -- ./inp_files/6954.got.cif
#   From: 2010.05.17/outbox.cif.g08.bks.cpg/sg155_4_cif.got.tgz:6954.got - 2010.05.20 10:44:35.
