data_PCOD9576857
_publ_section_title
;
Structure prediction by ZEFSAII (Michael W. Deem and Ramdas Pophale) SiO2 
 PCOD9576857
Probable space group: R 3 2
;
_chemical_formula_sum "Si O2"
_cell_formula_units_Z 90
_cell_length_a 25.652983
_cell_length_b 25.652983
_cell_length_c 9.117678
_cell_angle_alpha 90.000000
_cell_angle_beta 90.000000
_cell_angle_gamma 120.000000
_cell_volume 5196.257077
_symmetry_space_group_name_H-M "R 3 2"
_symmetry_group_IT_number 155
_symmetry_cell_setting 'hexagonal'
loop_
_space_group_symop_operation_xyz
x,y,z
-y,x-y,z
-x+y,-x,z
x-y,-y,-z
-x,-x+y,-z
y,x,-z
2/3+x,1/3+y,1/3+z
2/3-y,1/3+x-y,1/3+z
2/3-x+y,1/3-x,1/3+z
2/3+x-y,1/3-y,1/3-z
2/3-x,1/3-x+y,1/3-z
2/3+y,1/3+x,1/3-z
1/3+x,2/3+y,2/3+z
1/3-y,2/3+x-y,2/3+z
1/3-x+y,2/3-x,2/3+z
1/3+x-y,2/3-y,2/3-z
1/3-x,2/3-x+y,2/3-z
1/3+y,2/3+x,2/3-z
loop_
_atom_site_type_symbol
_atom_site_label
_atom_site_fract_x
_atom_site_fract_y
_atom_site_fract_z
Si Si1 0.055676 0.222478 0.107057
Si Si2 0.077064 0.146198 0.665958
Si Si3 0.069882 0.392634 0.999049
Si Si4 0.150566 0.878310 0.818125
Si Si5 0.734051 0.472728 0.656664
O O1 0.034030 0.256982 0.217857
O O2 0.082999 0.190982 0.206390
O O3 0.101827 0.262483 0.986103
O O4 0.000000 0.177869 0.000000
O O5 0.110125 0.209108 0.752854
O O6 0.103454 0.102651 0.703105
O O7 0.082432 0.160328 0.492026
O O8 0.005262 0.106410 0.691531
O O9 0.122843 0.381477 0.941713
O O10 0.082449 0.415782 0.166667
O O11 0.000000 0.338326 0.000000
O O12 0.147904 0.814570 0.833334
#
# Coordination Sequence:
#
# PCOD9576857 Si02
#       5
#    18  18  18  18  18
#     4  10  20  34  50  76 112 142 185 234 274 339
#     4  10  20  35  60  80 113 152 185 239 278 348
#     4  11  20  32  50  72 102 153 191 228 270 325
#     4  11  22  36  50  76 118 151 186 233 281 337
#     4  10  19  36  56  83 112 146 195 226 286 334
#
# _framework density 17.320159
#
# number of rings (size 3 to 8) (size 9 to 14) (size 15 to 20)
#    0.000    1.600    4.000    3.400    0.000    4.000 
#    0.000    0.000    0.000    0.000    0.000    0.000 
#   30.000    0.000    0.000    0.000    0.000    0.000 
#
# Total GULP energy -167055.589204 kJ/mol
# GULP energy per Si atom -5568.519640 kJ/mol
# Density = 1.728074 g / cm^3
# Si number density = 17.320159 Si / 1000 Ang^3
#
#
#
# Elastic Constant Matrix: (Units=GPa)
#
#
# Indices 1 2 3 4 5 6 
#
# 1 73.6579 28.2991 40.0317 -7.9090 -0.0248 0.0033
# 2 28.2991 73.6765 40.0643 7.9202 0.0127 -0.0042
# 3 40.0317 40.0643 106.7467 0.0398 -0.0280 0.0116
# 4 -7.9090 7.9202 0.0398 20.6810 0.0428 -0.0100
# 5 -0.0248 0.0127 -0.0280 0.0428 20.6577 -7.9167
# 6 0.0033 -0.0042 0.0116 -0.0100 -7.9167 22.6878
#
#
#
# Elastic Compliance Matrix: (Units=1/GPa)
#
#
# Indices 1 2 3 4 5 6 
#
# 1 0.019673 -0.005767 -0.005217 0.009742 0.000001 0.000004
# 2 -0.005767 0.019670 -0.005216 -0.009729 -0.000006 0.000001
# 3 -0.005217 -0.005216 0.013282 -0.000023 0.000014 -0.000002
# 4 0.009742 -0.009729 -0.000023 0.055805 -0.000104 -0.000015
# 5 0.000001 -0.000006 0.000014 -0.000104 0.055881 0.019499
# 6 0.000004 0.000001 -0.000002 -0.000015 0.019499 0.050880
#
#
# Mechanical properties :
#
#
# Convention : Reuss Voigt Hill
#
# Bulk Modulus (GPa) = 49.44286 52.31904 50.88095
# Shear Modulus (GPa) = 19.65912 22.51771 21.08841
#
# Velocity S-wave (km/s) = 3.37269 3.60958 3.49315
# Velocity P-wave (km/s) = 6.61628 6.90252 6.76091
#
# Compressibility (1/GPa) = 0.02022537
#
# Stress axis : x y z
#
# Youngs Moduli (GPa) = 50.83026 50.83798 75.28825
#
# Poissons Ratio (x) = 0.29317 0.39278
# Poissons Ratio (y) = 0.29313 0.39273
# Poissons Ratio (z) = 0.26518 0.26519
#
# Static dielectric constant tensor:
#      x y z
#    x 1.639240 0.000010 -0.000020 
#    y 0.000010 1.639250 0.000000 
#    z -0.000020 0.000000 1.616520 
# 
# From -- ./inp_files/2732.got.cif
#   From: 2010.05.17/outbox.cif.g08.bks.cpg/sg155_2_cif.got.tgz:2732.got - 2010.05.20 10:44:35.
