data_PCOD9576510
_publ_section_title
;
Structure prediction by ZEFSAII (Michael W. Deem and Ramdas Pophale) SiO2 
 PCOD9576510
Probable space group: P 32 2 1
;
_chemical_formula_sum "Si O2"
_cell_formula_units_Z 24
_cell_length_a 15.959505
_cell_length_b 15.959505
_cell_length_c 4.983692
_cell_angle_alpha 90.000000
_cell_angle_beta 90.000000
_cell_angle_gamma 120.000000
_cell_volume 1099.311220
_symmetry_space_group_name_H-M "P 32 2 1"
_symmetry_group_IT_number 154
_symmetry_cell_setting 'hexagonal'
loop_
_space_group_symop_operation_xyz
x,y,z
-y,x-y,2/3+z
-x+y,-x,1/3+z
x-y,-y,1/3-z
-x,-x+y,2/3-z
y,x,-z
loop_
_atom_site_type_symbol
_atom_site_label
_atom_site_fract_x
_atom_site_fract_y
_atom_site_fract_z
Si Si1 0.615684 0.843924 0.137379
Si Si2 0.933780 0.826504 0.596189
Si Si3 0.641376 0.106131 0.712795
Si Si4 0.575890 0.242484 0.485750
O O1 0.723286 0.881748 0.247122
O O2 0.576937 0.896748 0.330585
O O3 0.539365 0.730844 0.200411
O O4 0.596244 0.866547 0.834015
O O5 0.857432 0.857432 0.500000
O O6 0.000000 0.836314 0.333334
O O7 0.000000 0.897442 0.833334
O O8 0.606084 0.183226 0.684199
O O9 0.553792 0.000000 0.666667
O O10 0.647691 0.259227 0.243147
#
# Coordination Sequence:
#
# PCOD9576510 Si02
#       4
#     6   6   6   6
#     4  11  23  40  65  93 127 166 216 267 320 384
#     4  12  25  45  70  96 128 168 218 272 335 399
#     4  11  22  38  63  91 128 167 217 266 319 378
#     4  10  20  39  62  91 129 173 220 256 324 379
#
# _framework density 21.831848999999998
#
# number of rings (size 3 to 8) (size 9 to 14) (size 15 to 20)
#    0.000    1.000    2.500    6.000    0.000    0.000 
#    0.000   12.500    0.000    0.000    0.000    0.000 
#    0.000    0.000    0.000    0.000    0.000    0.000 
#
# Total GULP energy -133830.902069 kJ/mol
# GULP energy per Si atom -5576.287586 kJ/mol
# Density = 2.178216 g / cm^3
# Si number density = 21.831849 Si / 1000 Ang^3
#
#
#
# Elastic Constant Matrix: (Units=GPa)
#
#
# Indices 1 2 3 4 5 6 
#
# 1 95.8753 40.9058 14.8515 6.2924 0.0000 0.0000
# 2 40.9058 95.8753 14.8515 -6.2924 0.0000 0.0000
# 3 14.8515 14.8515 84.6135 0.0000 0.0000 0.0000
# 4 6.2924 -6.2924 0.0000 15.5753 0.0000 0.0000
# 5 0.0000 0.0000 0.0000 0.0000 15.5753 6.2924
# 6 0.0000 0.0000 0.0000 0.0000 6.2924 27.4848
#
#
#
# Elastic Compliance Matrix: (Units=1/GPa)
#
#
# Indices 1 2 3 4 5 6 
#
# 1 0.013823 -0.006223 -0.001334 -0.008099 0.000000 0.000000
# 2 -0.006223 0.013823 -0.001334 0.008099 0.000000 0.000000
# 3 -0.001334 -0.001334 0.012287 0.000000 0.000000 0.000000
# 4 -0.008099 0.008099 0.000000 0.070748 0.000000 0.000000
# 5 0.000000 0.000000 0.000000 0.000000 0.070748 -0.016197
# 6 0.000000 0.000000 0.000000 0.000000 -0.016197 0.040092
#
#
# Mechanical properties :
#
#
# Convention : Reuss Voigt Hill
#
# Bulk Modulus (GPa) = 45.14315 46.39797 45.77056
# Shear Modulus (GPa) = 20.26862 25.44408 22.85635
#
# Velocity S-wave (km/s) = 3.05027 3.41758 3.23914
# Velocity P-wave (km/s) = 5.75570 6.07221 5.91607
#
# Compressibility (1/GPa) = 0.02215176
#
# Stress axis : x y z
#
# Youngs Moduli (GPa) = 72.34150 72.34150 81.38843
#
# Poissons Ratio (x) = 0.45016 0.10858
# Poissons Ratio (y) = 0.45016 0.10858
# Poissons Ratio (z) = 0.09651 0.09651
#
# Static dielectric constant tensor:
#      x y z
#    x 1.846050 0.000000 0.000000 
#    y 0.000000 1.846050 0.000000 
#    z 0.000000 0.000000 1.850920 
# 
# From -- ./inp_files/135.got.cif
#   From: 2010.05.17/outbox.cif.g08.bks.cpg/sg154_1_cif.got.tgz:135.got - 2010.05.20 10:41:43.
