data_PCOD9576102
_publ_section_title
;
Structure prediction by ZEFSAII (Michael W. Deem and Ramdas Pophale) SiO2 
 PCOD9576102
Probable space group: P 31 2 1
;
_chemical_formula_sum "Si O2"
_cell_formula_units_Z 33
_cell_length_a 13.732619
_cell_length_b 13.732619
_cell_length_c 9.005382
_cell_angle_alpha 90.000000
_cell_angle_beta 90.000000
_cell_angle_gamma 120.000000
_cell_volume 1470.752224
_symmetry_space_group_name_H-M "P 31 2 1"
_symmetry_group_IT_number 152
_symmetry_cell_setting 'hexagonal'
loop_
_space_group_symop_operation_xyz
x,y,z
-y,x-y,1/3+z
-x+y,-x,2/3+z
x-y,-y,2/3-z
-x,-x+y,1/3-z
y,x,-z
loop_
_atom_site_type_symbol
_atom_site_label
_atom_site_fract_x
_atom_site_fract_y
_atom_site_fract_z
Si Si1 0.453338 0.459959 0.176636
Si Si2 0.438503 0.136487 0.119667
Si Si3 0.803810 0.129001 0.864815
Si Si4 0.778740 0.458756 0.005272
Si Si5 0.771955 0.771955 0.000000
Si Si6 0.223582 0.457391 0.211215
O O1 0.547205 0.576826 0.243218
O O2 0.474780 0.365276 0.239739
O O3 0.340103 0.456209 0.224013
O O4 0.462418 0.462418 0.000000
O O5 0.541099 0.228044 0.225572
O O6 0.330113 0.084269 0.224814
O O7 0.439995 0.188799 0.961506
O O8 0.751080 0.204071 0.800168
O O9 0.909791 0.137496 0.776814
O O10 0.708133 0.000000 0.833334
O O11 0.848122 0.193583 0.021823
O O12 0.769897 0.343696 0.065092
#
# Coordination Sequence:
#
# PCOD9576102 Si02
#       6
#     6   6   6   6   3   6
#     4  12  24  44  66 102 142 190 235 301 355 433
#     4  11  25  43  67  96 139 189 237 288 358 428
#     4  11  24  46  71 101 138 183 236 303 364 422
#     4  11  26  44  65 103 147 182 238 295 362 433
#     4  10  24  46  70  94 134 182 230 302 358 410
#     4  12  26  40  73 103 138 192 239 283 358 456
#
# _framework density 22.437498000000001
#
# number of rings (size 3 to 8) (size 9 to 14) (size 15 to 20)
#    0.000    0.727    4.545    2.182    7.636    2.182 
#    0.000    0.000    4.000    0.000    0.000    0.000 
#    0.000    0.000    0.000    0.000    0.000    0.000 
#
# Total GULP energy -183959.161274 kJ/mol
# GULP energy per Si atom -5574.520039 kJ/mol
# Density = 2.238643 g / cm^3
# Si number density = 22.437498 Si / 1000 Ang^3
#
#
#
# Elastic Constant Matrix: (Units=GPa)
#
#
# Indices 1 2 3 4 5 6 
#
# 1 72.2509 9.2041 23.4578 -4.9857 0.0000 0.0000
# 2 9.2041 72.2509 23.4578 4.9857 0.0000 0.0000
# 3 23.4578 23.4578 119.9186 0.0000 0.0000 0.0000
# 4 -4.9857 4.9857 0.0000 28.8360 0.0000 0.0000
# 5 0.0000 0.0000 0.0000 0.0000 28.8360 -4.9857
# 6 0.0000 0.0000 0.0000 0.0000 -4.9857 31.5234
#
#
#
# Elastic Compliance Matrix: (Units=1/GPa)
#
#
# Indices 1 2 3 4 5 6 
#
# 1 0.015071 -0.001236 -0.002706 0.002819 0.000000 0.000000
# 2 -0.001236 0.015071 -0.002706 -0.002819 0.000000 0.000000
# 3 -0.002706 -0.002706 0.009398 0.000000 0.000000 0.000000
# 4 0.002819 -0.002819 0.000000 0.035654 0.000000 0.000000
# 5 0.000000 0.000000 0.000000 0.000000 0.035654 0.005639
# 6 0.000000 0.000000 0.000000 0.000000 0.005639 0.032614
#
#
# Mechanical properties :
#
#
# Convention : Reuss Voigt Hill
#
# Bulk Modulus (GPa) = 38.10512 41.85109 39.97811
# Shear Modulus (GPa) = 30.21009 31.72578 30.96793
#
# Velocity S-wave (km/s) = 3.67333 3.76435 3.71912
# Velocity P-wave (km/s) = 5.91699 6.13079 6.02484
#
# Compressibility (1/GPa) = 0.02624319
#
# Stress axis : x y z
#
# Youngs Moduli (GPa) = 66.35101 66.35101 106.40753
#
# Poissons Ratio (x) = 0.08200 0.28799
# Poissons Ratio (y) = 0.08200 0.28799
# Poissons Ratio (z) = 0.17957 0.17957
#
# Static dielectric constant tensor:
#      x y z
#    x 1.848320 0.000000 0.000000 
#    y 0.000000 1.848320 0.000000 
#    z 0.000000 0.000000 1.995430 
# 
# From -- ./inp_files/1125.got.cif
#   From: 2010.05.17/outbox.cif.g08.bks.cpg/sg152_1_cif.got.tgz:1125.got - 2010.05.20 10:36:06.
