data_PCOD9576982
_publ_section_title
;
Structure prediction by ZEFSAII (Michael W. Deem and Ramdas Pophale) SiO2 
 PCOD9576982
Probable space group: R 3 2
;
_chemical_formula_sum "Si O2"
_cell_formula_units_Z 93
_cell_length_a 16.685542
_cell_length_b 16.685542
_cell_length_c 20.442893
_cell_angle_alpha 90.000000
_cell_angle_beta 90.000000
_cell_angle_gamma 120.000000
_cell_volume 4928.941052
_symmetry_space_group_name_H-M "R 3 2"
_symmetry_group_IT_number 155
_symmetry_cell_setting 'hexagonal'
loop_
_space_group_symop_operation_xyz
x,y,z
-y,x-y,z
-x+y,-x,z
x-y,-y,-z
-x,-x+y,-z
y,x,-z
2/3+x,1/3+y,1/3+z
2/3-y,1/3+x-y,1/3+z
2/3-x+y,1/3-x,1/3+z
2/3+x-y,1/3-y,1/3-z
2/3-x,1/3-x+y,1/3-z
2/3+y,1/3+x,1/3-z
1/3+x,2/3+y,2/3+z
1/3-y,2/3+x-y,2/3+z
1/3-x+y,2/3-x,2/3+z
1/3+x-y,2/3-y,2/3-z
1/3-x,2/3-x+y,2/3-z
1/3+y,2/3+x,2/3-z
loop_
_atom_site_type_symbol
_atom_site_label
_atom_site_fract_x
_atom_site_fract_y
_atom_site_fract_z
Si Si1 0.512282 0.369980 0.134340
Si Si2 0.000000 0.269943 0.500000
Si Si3 0.585689 0.121662 0.659412
Si Si4 0.000000 0.000000 0.334052
Si Si5 0.441981 0.069234 0.054613
Si Si6 0.000000 0.000000 0.175519
Si Si7 0.618357 0.859733 0.128023
O O1 0.583171 0.462591 0.094295
O O2 0.574613 0.337168 0.173884
O O3 0.455356 0.401067 0.180001
O O4 0.455116 0.297640 0.076842
O O5 0.970166 0.309844 0.560785
O O6 0.910103 0.173498 0.480300
O O7 0.636464 0.228509 0.685382
O O8 0.480157 0.093787 0.645844
O O9 0.591743 0.061265 0.717309
O O10 0.000000 0.000000 0.254980
O O11 0.442361 0.000000 0.000000
O O12 0.549081 0.882414 0.166667
#
# Coordination Sequence:
#
# PCOD9576982 Si02
#       7
#    18   9  18   6  18   6  18
#     4  10  21  38  62  91 122 163 212 257 309 379
#     4  10  24  40  58  90 128 166 202 258 314 382
#     4  11  20  39  63  86 124 166 208 254 312 375
#     4   9  18  30  61  97 105 163 211 235 305 385
#     4  11  20  37  61  91 125 163 207 256 314 373
#     4   9  15  39  66  88 109 161 210 259 296 370
#     4  11  26  38  55  92 129 165 205 256 319 371
#
# _framework density 18.868151000000001
#
# number of rings (size 3 to 8) (size 9 to 14) (size 15 to 20)
#    0.000    1.548    7.742    0.000    8.129    0.000 
#    2.323    0.000    0.000    0.000    0.000    0.000 
#    0.000    3.871    0.000    0.000    0.000    0.000 
#
# Total GULP energy -173004.342591 kJ/mol
# GULP energy per Si atom -5580.785245 kJ/mol
# Density = 1.882521 g / cm^3
# Si number density = 18.868151 Si / 1000 Ang^3
#
#
#
# Elastic Constant Matrix: (Units=GPa)
#
#
# Indices 1 2 3 4 5 6 
#
# 1 80.3222 28.9616 30.7526 12.2994 -0.0001 0.0000
# 2 28.9616 80.3222 30.7526 -12.2994 0.0001 0.0000
# 3 30.7526 30.7526 52.0871 0.0000 0.0000 0.0000
# 4 12.2994 -12.2994 0.0000 24.9628 0.0000 0.0001
# 5 -0.0001 0.0001 0.0000 0.0000 24.9628 12.2994
# 6 0.0000 0.0000 0.0000 0.0001 12.2994 25.6803
#
#
#
# Elastic Compliance Matrix: (Units=1/GPa)
#
#
# Indices 1 2 3 4 5 6 
#
# 1 0.019594 -0.005890 -0.008091 -0.012556 0.000000 0.000000
# 2 -0.005890 0.019594 -0.008091 0.012556 0.000000 0.000000
# 3 -0.008091 -0.008091 0.028753 0.000000 0.000000 0.000000
# 4 -0.012556 0.012556 0.000000 0.052433 0.000000 0.000000
# 5 0.000000 0.000000 0.000000 0.000000 0.052433 -0.025112
# 6 0.000000 0.000000 0.000000 0.000000 -0.025112 0.050968
#
#
# Mechanical properties :
#
#
# Convention : Reuss Voigt Hill
#
# Bulk Modulus (GPa) = 42.02246 43.74056 42.88151
# Shear Modulus (GPa) = 18.12584 23.27215 20.69899
#
# Velocity S-wave (km/s) = 3.10281 3.51580 3.31574
# Velocity P-wave (km/s) = 5.92930 6.30188 6.11843
#
# Compressibility (1/GPa) = 0.02379680
#
# Stress axis : x y z
#
# Youngs Moduli (GPa) = 51.03608 51.03608 34.77948
#
# Poissons Ratio (x) = 0.30060 0.28140
# Poissons Ratio (y) = 0.30060 0.28140
# Poissons Ratio (z) = 0.41293 0.41293
#
# Static dielectric constant tensor:
#      x y z
#    x 1.676240 0.000000 0.000000 
#    y 0.000000 1.676240 0.000000 
#    z 0.000000 0.000000 1.652240 
# 
# From -- ./inp_files/6916.got.cif
#   From: 2010.05.17/outbox.cif.g08.bks.cpg/sg155_4_cif.got.tgz:6916.got - 2010.05.20 10:44:35.
