data_PCOD9576333
_publ_section_title
;
Structure prediction by ZEFSAII (Michael W. Deem and Ramdas Pophale) SiO2 
 PCOD9576333
Probable space group: P 32 1 2
;
_chemical_formula_sum "Si O2"
_cell_formula_units_Z 36
_cell_length_a 8.807123
_cell_length_b 8.807123
_cell_length_c 22.811130
_cell_angle_alpha 90.000000
_cell_angle_beta 90.000000
_cell_angle_gamma 120.000000
_cell_volume 1532.306185
_symmetry_space_group_name_H-M "P 32 1 2"
_symmetry_group_IT_number 153
_symmetry_cell_setting 'hexagonal'
loop_
_space_group_symop_operation_xyz
x,y,z
-y,x-y,2/3+z
-x+y,-x,1/3+z
-y,-x,1/3-z
-x+y,y,2/3-z
x,x-y,-z
loop_
_atom_site_type_symbol
_atom_site_label
_atom_site_fract_x
_atom_site_fract_y
_atom_site_fract_z
Si Si1 0.127633 0.996358 0.564914
Si Si2 0.479708 0.170173 0.433835
Si Si3 0.514611 0.168692 0.898801
Si Si4 0.504769 0.684601 0.562678
Si Si5 0.985033 0.794746 0.275203
Si Si6 0.320220 0.832758 0.730271
O O1 0.153632 0.829404 0.566422
O O2 0.110481 0.055241 0.500000
O O3 0.295540 0.165435 0.593328
O O4 0.951684 0.956192 0.596874
O O5 0.470627 0.235314 0.500000
O O6 0.647700 0.337192 0.407957
O O7 0.510063 0.004881 0.434899
O O8 0.575537 0.151073 0.833334
O O9 0.335866 0.176120 0.895251
O O10 0.510035 0.012528 0.935678
O O11 0.563081 0.781541 0.500000
O O12 0.308446 0.640356 0.573762
O O13 0.625847 0.836435 0.608549
O O14 0.869484 0.738967 0.333334
O O15 0.236232 0.763769 0.666667
#
# Coordination Sequence:
#
# PCOD9576333 Si02
#       6
#     6   6   6   6   6   6
#     4  11  22  42  66  93 127 172 221 268 324 402
#     4  10  22  40  65  95 122 160 217 269 313 377
#     4  11  22  42  66  93 127 173 221 266 322 395
#     4  12  23  42  68  95 128 174 221 269 328 405
#     4  12  25  42  64  98 134 169 214 274 333 390
#     4  12  25  42  64  98 135 172 218 280 340 393
#
# _framework density 23.493997
#
# number of rings (size 3 to 8) (size 9 to 14) (size 15 to 20)
#    0.000    0.667    0.000   10.500    0.000    0.000 
#    0.000    2.500    0.000    0.000    0.000    0.000 
#    0.000    0.000    0.000    0.000    0.000    0.000 
#
# Total GULP energy -201545.975972 kJ/mol
# GULP energy per Si atom -5598.499333 kJ/mol
# Density = 2.344052 g / cm^3
# Si number density = 23.493997 Si / 1000 Ang^3
#
#
#
# Elastic Constant Matrix: (Units=GPa)
#
#
# Indices 1 2 3 4 5 6 
#
# 1 110.3202 27.4693 -13.5226 -0.0014 -5.7537 0.0000
# 2 27.4693 110.3202 -13.5226 0.0014 5.7537 0.0000
# 3 -13.5226 -13.5226 34.6638 0.0000 0.0000 0.0000
# 4 -0.0014 0.0014 0.0000 14.4707 0.0000 5.7537
# 5 -5.7537 5.7537 0.0000 0.0000 14.4707 -0.0014
# 6 0.0000 0.0000 0.0000 5.7537 -0.0014 41.4254
#
#
#
# Elastic Compliance Matrix: (Units=1/GPa)
#
#
# Indices 1 2 3 4 5 6 
#
# 1 0.010317 -0.002458 0.003066 0.000001 0.005080 0.000000
# 2 -0.002458 0.010317 0.003066 -0.000001 -0.005080 0.000000
# 3 0.003066 0.003066 0.031241 0.000000 0.000000 0.000000
# 4 0.000001 -0.000001 0.000000 0.073144 0.000000 -0.010159
# 5 0.005080 -0.005080 0.000000 0.000000 0.073144 0.000002
# 6 0.000000 0.000000 0.000000 -0.010159 0.000002 0.025551
#
#
# Mechanical properties :
#
#
# Convention : Reuss Voigt Hill
#
# Bulk Modulus (GPa) = 16.88536 28.46138 22.67337
# Shear Modulus (GPa) = 21.17672 31.06539 26.12105
#
# Velocity S-wave (km/s) = 3.00554 3.64025 3.33801
# Velocity P-wave (km/s) = 4.38714 5.45978 4.95258
#
# Compressibility (1/GPa) = 0.05922289
#
# Stress axis : x y z
#
# Youngs Moduli (GPa) = 96.92446 96.92446 32.00956
#
# Poissons Ratio (x) = 0.23825 -0.09814
# Poissons Ratio (y) = 0.23825 -0.09814
# Poissons Ratio (z) = -0.29716 -0.29716
#
# Static dielectric constant tensor:
#      x y z
#    x 1.857380 0.000000 0.000000 
#    y 0.000000 1.857380 0.000000 
#    z 0.000000 0.000000 1.959660 
# 
# From -- ./inp_files/4704.got.cif
#   From: 2010.05.17/outbox.cif.g08.bks.cpg/sg153_3_cif.got.tgz:4704.got - 2010.05.20 10:38:56.
