data_PCOD9576074
_publ_section_title
;
Structure prediction by ZEFSAII (Michael W. Deem and Ramdas Pophale) SiO2 
 PCOD9576074
Probable space group: P 31 2 1
;
_chemical_formula_sum "Si O2"
_cell_formula_units_Z 39
_cell_length_a 12.772444
_cell_length_b 12.772444
_cell_length_c 11.179094
_cell_angle_alpha 90.000000
_cell_angle_beta 90.000000
_cell_angle_gamma 120.000000
_cell_volume 1579.374981
_symmetry_space_group_name_H-M "P 31 2 1"
_symmetry_group_IT_number 152
_symmetry_cell_setting 'hexagonal'
loop_
_space_group_symop_operation_xyz
x,y,z
-y,x-y,1/3+z
-x+y,-x,2/3+z
x-y,-y,2/3-z
-x,-x+y,1/3-z
y,x,-z
loop_
_atom_site_type_symbol
_atom_site_label
_atom_site_fract_x
_atom_site_fract_y
_atom_site_fract_z
Si Si1 0.889735 0.124695 0.066659
Si Si2 0.494185 0.608066 0.339710
Si Si3 0.491640 0.688244 0.953500
Si Si4 0.005195 0.298939 0.478644
Si Si5 0.887557 0.887557 0.000000
Si Si6 0.688943 0.279246 0.169943
Si Si7 0.970640 0.632908 0.025772
O O1 0.916088 0.226795 0.970185
O O2 0.185368 0.000000 0.833334
O O3 0.740800 0.047211 0.070598
O O4 0.906142 0.020092 0.003522
O O5 0.592620 0.700216 0.247452
O O6 0.506791 0.682421 0.459123
O O7 0.364070 0.572162 0.284625
O O8 0.477216 0.476064 0.351828
O O9 0.582973 0.654076 0.893379
O O10 0.402588 0.687743 0.852473
O O11 0.577135 0.827904 0.993391
O O12 0.403796 0.605784 0.058218
O O13 0.989671 0.186076 0.554393
O O14 0.000000 0.677390 0.166667
#
# Coordination Sequence:
#
# PCOD9576074 Si02
#       7
#     6   6   6   6   3   6   6
#     4  12  26  43  72 103 139 179 240 307 363 433
#     4  11  25  40  68 104 143 185 240 299 363 435
#     4  11  21  44  71  99 139 190 243 289 366 437
#     4  12  24  43  70 103 135 192 242 293 365 439
#     4  12  24  48  74  92 140 188 244 292 368 438
#     4  10  23  42  66 101 145 185 233 301 358 432
#     4  12  22  43  70 104 137 192 239 298 365 445
#
# _framework density 24.693311000000001
#
# number of rings (size 3 to 8) (size 9 to 14) (size 15 to 20)
#    0.000    0.615    4.615    3.231    2.154    1.846 
#    0.000    0.000    0.000    0.000    0.000    0.000 
#    0.000    0.000    0.000    0.000    0.000    0.000 
#
# Total GULP energy -217735.523084 kJ/mol
# GULP energy per Si atom -5582.962130 kJ/mol
# Density = 2.463711 g / cm^3
# Si number density = 24.693311 Si / 1000 Ang^3
#
#
#
# Elastic Constant Matrix: (Units=GPa)
#
#
# Indices 1 2 3 4 5 6 
#
# 1 58.5164 -0.6544 19.1075 6.4763 0.0000 0.0000
# 2 -0.6544 58.5164 19.1075 -6.4763 0.0000 0.0000
# 3 19.1075 19.1075 95.2686 0.0000 0.0000 0.0000
# 4 6.4763 -6.4763 0.0000 31.7612 0.0000 0.0000
# 5 0.0000 0.0000 0.0000 0.0000 31.7612 6.4763
# 6 0.0000 0.0000 0.0000 0.0000 6.4763 29.5854
#
#
#
# Elastic Compliance Matrix: (Units=1/GPa)
#
#
# Indices 1 2 3 4 5 6 
#
# 1 0.018806 0.001116 -0.003996 -0.003607 0.000000 0.000000
# 2 0.001116 0.018806 -0.003996 0.003607 0.000000 0.000000
# 3 -0.003996 -0.003996 0.012099 0.000000 0.000000 0.000000
# 4 -0.003607 0.003607 0.000000 0.032956 0.000000 0.000000
# 5 0.000000 0.000000 0.000000 0.000000 0.032956 -0.007214
# 6 0.000000 0.000000 0.000000 0.000000 -0.007214 0.035380
#
#
# Mechanical properties :
#
#
# Convention : Reuss Voigt Hill
#
# Bulk Modulus (GPa) = 27.80868 31.93584 29.87226
# Shear Modulus (GPa) = 28.29025 30.27094 29.28060
#
# Velocity S-wave (km/s) = 3.38844 3.50505 3.44724
# Velocity P-wave (km/s) = 5.15701 5.41679 5.28849
#
# Compressibility (1/GPa) = 0.03596000
#
# Stress axis : x y z
#
# Youngs Moduli (GPa) = 53.17568 53.17568 82.64905
#
# Poissons Ratio (x) = -0.05933 0.33023
# Poissons Ratio (y) = -0.05933 0.33023
# Poissons Ratio (z) = 0.21246 0.21246
#
# Static dielectric constant tensor:
#      x y z
#    x 2.024360 0.000000 0.000000 
#    y 0.000000 2.024360 0.000000 
#    z 0.000000 0.000000 2.014830 
# 
# From -- ./inp_files/1770.got.cif
#   From: 2010.05.17/outbox.cif.g08.bks.cpg/sg152_1_cif.got.tgz:1770.got - 2010.05.20 10:36:06.
