data_PCOD9576871
_publ_section_title
;
Structure prediction by ZEFSAII (Michael W. Deem and Ramdas Pophale) SiO2 
 PCOD9576871
Probable space group: R 3 2
;
_chemical_formula_sum "Si O2"
_cell_formula_units_Z 54
_cell_length_a 22.525411
_cell_length_b 22.525411
_cell_length_c 7.292524
_cell_angle_alpha 90.000000
_cell_angle_beta 90.000000
_cell_angle_gamma 120.000000
_cell_volume 3204.453298
_symmetry_space_group_name_H-M "R 3 2"
_symmetry_group_IT_number 155
_symmetry_cell_setting 'hexagonal'
loop_
_space_group_symop_operation_xyz
x,y,z
-y,x-y,z
-x+y,-x,z
x-y,-y,-z
-x,-x+y,-z
y,x,-z
2/3+x,1/3+y,1/3+z
2/3-y,1/3+x-y,1/3+z
2/3-x+y,1/3-x,1/3+z
2/3+x-y,1/3-y,1/3-z
2/3-x,1/3-x+y,1/3-z
2/3+y,1/3+x,1/3-z
1/3+x,2/3+y,2/3+z
1/3-y,2/3+x-y,2/3+z
1/3-x+y,2/3-x,2/3+z
1/3+x-y,2/3-y,2/3-z
1/3-x,2/3-x+y,2/3-z
1/3+y,2/3+x,2/3-z
loop_
_atom_site_type_symbol
_atom_site_label
_atom_site_fract_x
_atom_site_fract_y
_atom_site_fract_z
Si Si1 0.834636 0.744516 0.157718
Si Si2 0.588497 0.412381 0.796215
Si Si3 0.256146 0.059348 0.736024
O O1 0.819163 0.666667 0.166667
O O2 0.899051 0.804999 0.264770
O O3 0.773053 0.750523 0.257238
O O4 0.831907 0.755799 0.942224
O O5 0.537169 0.333334 0.833334
O O6 0.666667 0.429753 0.833334
O O7 0.585330 0.465827 0.936899
O O8 0.333334 0.097618 0.666667
#
# Coordination Sequence:
#
# PCOD9576871 Si02
#       3
#    18  18  18
#     4  10  20  31  53  85 113 142 177 223 282 334
#     4  10  21  37  55  79 110 150 187 225 268 324
#     4  10  20  32  53  85 117 141 174 225 284 335
#
# _framework density 16.851548999999999
#
# number of rings (size 3 to 8) (size 9 to 14) (size 15 to 20)
#    0.000    2.000    3.333    0.333    4.667    1.333 
#    0.000    0.000    0.000    6.000    0.000    0.000 
#    0.000    0.000    0.000    0.000    0.000    0.000 
#
# Total GULP energy -100240.842476 kJ/mol
# GULP energy per Si atom -5568.935693 kJ/mol
# Density = 1.681319 g / cm^3
# Si number density = 16.851549 Si / 1000 Ang^3
#
#
#
# Elastic Constant Matrix: (Units=GPa)
#
#
# Indices 1 2 3 4 5 6 
#
# 1 75.2291 44.8837 36.1216 1.1853 0.0089 -0.0102
# 2 44.8837 75.2233 36.1053 -1.1902 -0.0057 -0.0064
# 3 36.1216 36.1053 111.2880 0.0003 0.0073 -0.0095
# 4 1.1853 -1.1902 0.0003 16.9741 0.0010 -0.0022
# 5 0.0089 -0.0057 0.0073 0.0010 16.9829 1.1795
# 6 -0.0102 -0.0064 -0.0095 -0.0022 1.1795 15.1581
#
#
#
# Elastic Compliance Matrix: (Units=1/GPa)
#
#
# Indices 1 2 3 4 5 6 
#
# 1 0.021742 -0.011397 -0.003359 -0.002317 -0.000014 0.000008
# 2 -0.011397 0.021741 -0.003354 0.002320 0.000015 -0.000001
# 3 -0.003359 -0.003354 0.011164 -0.000001 -0.000004 0.000004
# 4 -0.002317 0.002320 -0.000001 0.059238 -0.000002 0.000008
# 5 -0.000014 0.000015 -0.000004 -0.000002 0.059203 -0.004607
# 6 0.000008 -0.000001 0.000004 0.000008 -0.004607 0.066330
#
#
# Mechanical properties :
#
#
# Convention : Reuss Voigt Hill
#
# Bulk Modulus (GPa) = 54.27187 55.10684 54.68935
# Shear Modulus (GPa) = 17.74428 19.46500 18.60464
#
# Velocity S-wave (km/s) = 3.24848 3.40234 3.32630
# Velocity P-wave (km/s) = 6.80779 6.94312 6.87579
#
# Compressibility (1/GPa) = 0.01842575
#
# Stress axis : x y z
#
# Youngs Moduli (GPa) = 45.99361 45.99656 89.57155
#
# Poissons Ratio (x) = 0.52423 0.30091
# Poissons Ratio (y) = 0.52420 0.30043
# Poissons Ratio (z) = 0.15451 0.15428
#
# Static dielectric constant tensor:
#      x y z
#    x 1.562020 0.000000 -0.000010 
#    y 0.000000 1.562030 0.000000 
#    z -0.000010 0.000000 1.633190 
# 
# From -- ./inp_files/1856.got.cif
#   From: 2010.05.17/outbox.cif.g08.bks.cpg/sg155_1_cif.got.tgz:1856.got - 2010.05.20 10:44:35.
