data_PCOD9576914
_publ_section_title
;
Structure prediction by ZEFSAII (Michael W. Deem and Ramdas Pophale) SiO2 
 PCOD9576914
Probable space group: R 3 2
;
_chemical_formula_sum "Si O2"
_cell_formula_units_Z 108
_cell_length_a 22.659979
_cell_length_b 22.659979
_cell_length_c 12.333264
_cell_angle_alpha 90.000000
_cell_angle_beta 90.000000
_cell_angle_gamma 120.000000
_cell_volume 5484.381607
_symmetry_space_group_name_H-M "R 3 2"
_symmetry_group_IT_number 155
_symmetry_cell_setting 'hexagonal'
loop_
_space_group_symop_operation_xyz
x,y,z
-y,x-y,z
-x+y,-x,z
x-y,-y,-z
-x,-x+y,-z
y,x,-z
2/3+x,1/3+y,1/3+z
2/3-y,1/3+x-y,1/3+z
2/3-x+y,1/3-x,1/3+z
2/3+x-y,1/3-y,1/3-z
2/3-x,1/3-x+y,1/3-z
2/3+y,1/3+x,1/3-z
1/3+x,2/3+y,2/3+z
1/3-y,2/3+x-y,2/3+z
1/3-x+y,2/3-x,2/3+z
1/3+x-y,2/3-y,2/3-z
1/3-x,2/3-x+y,2/3-z
1/3+y,2/3+x,2/3-z
loop_
_atom_site_type_symbol
_atom_site_label
_atom_site_fract_x
_atom_site_fract_y
_atom_site_fract_z
Si Si1 0.413499 0.920801 0.647218
Si Si2 0.419397 0.495542 0.467213
Si Si3 0.763459 0.584935 0.684443
Si Si4 0.974232 0.256661 0.376455
Si Si5 0.146772 0.743620 0.122851
Si Si6 0.401603 0.493625 0.818160
O O1 0.333334 0.876874 0.666667
O O2 0.437641 0.916964 0.526240
O O3 0.453425 0.895741 0.723709
O O4 0.436871 0.998763 0.684658
O O5 0.438134 0.438134 0.500000
O O6 0.413520 0.496549 0.337648
O O7 0.345641 0.471412 0.517584
O O8 0.799423 0.666667 0.666667
O O9 0.683584 0.556333 0.662437
O O10 0.786153 0.575718 0.803927
O O11 0.799029 0.561214 0.597266
O O12 0.000000 0.268032 0.500000
O O13 0.007781 0.333334 0.333334
O O14 0.111068 0.666667 0.166667
O O15 0.094638 0.772212 0.143574
#
# Coordination Sequence:
#
# PCOD9576914 Si02
#       6
#    18  18  18  18  18  18
#     4  11  25  42  63  93 137 181 224 276 339 417
#     4  12  25  39  68  97 135 176 223 286 343 416
#     4   9  19  35  58  84 126 174 218 263 325 405
#     4  10  20  37  57  84 122 177 217 264 322 398
#     4  11  21  38  63  95 133 177 222 274 348 416
#     4  11  22  41  60  95 132 175 220 277 346 407
#
# _framework density 19.692284000000001
#
# number of rings (size 3 to 8) (size 9 to 14) (size 15 to 20)
#    0.000    1.333    3.333    4.000    0.000    5.333 
#    0.000    0.000    0.000    2.667    0.000    0.000 
#    0.000    0.000    0.000    0.000    0.000    0.000 
#
# Total GULP energy -201004.304369 kJ/mol
# GULP energy per Si atom -5583.452899 kJ/mol
# Density = 1.964746 g / cm^3
# Si number density = 19.692284 Si / 1000 Ang^3
#
#
#
# Elastic Constant Matrix: (Units=GPa)
#
#
# Indices 1 2 3 4 5 6 
#
# 1 121.7130 44.5573 56.3502 1.0883 0.0001 0.0000
# 2 44.5573 121.7130 56.3503 -1.0883 -0.0001 0.0000
# 3 56.3502 56.3503 153.2300 0.0000 0.0000 0.0000
# 4 1.0883 -1.0883 0.0000 27.2550 0.0000 -0.0001
# 5 0.0001 -0.0001 0.0000 0.0000 27.2550 1.0883
# 6 0.0000 0.0000 0.0000 -0.0001 1.0883 38.5778
#
#
#
# Elastic Compliance Matrix: (Units=1/GPa)
#
#
# Indices 1 2 3 4 5 6 
#
# 1 0.010493 -0.002482 -0.002946 -0.000518 0.000000 0.000000
# 2 -0.002482 0.010493 -0.002946 0.000518 0.000000 0.000000
# 3 -0.002946 -0.002946 0.008693 0.000000 0.000000 0.000000
# 4 -0.000518 0.000518 0.000000 0.036732 0.000000 0.000000
# 5 0.000000 0.000000 0.000000 0.000000 0.036732 -0.001036
# 6 0.000000 0.000000 0.000000 0.000000 -0.001036 0.025951
#
#
# Mechanical properties :
#
#
# Convention : Reuss Voigt Hill
#
# Bulk Modulus (GPa) = 77.33373 79.01906 78.17639
# Shear Modulus (GPa) = 33.29929 34.57744 33.93836
#
# Velocity S-wave (km/s) = 4.11662 4.19488 4.15593
# Velocity P-wave (km/s) = 7.87094 7.97977 7.92554
#
# Compressibility (1/GPa) = 0.01293097
#
# Stress axis : x y z
#
# Youngs Moduli (GPa) = 95.29865 95.29864 115.03491
#
# Poissons Ratio (x) = 0.23654 0.33891
# Poissons Ratio (y) = 0.23654 0.33891
# Poissons Ratio (z) = 0.28076 0.28076
#
# Static dielectric constant tensor:
#      x y z
#    x 1.688800 0.000000 0.000000 
#    y 0.000000 1.688800 0.000000 
#    z 0.000000 0.000000 1.771290 
# 
# From -- ./inp_files/4098.got.cif
#   From: 2010.05.17/outbox.cif.g08.bks.cpg/sg155_3_cif.got.tgz:4098.got - 2010.05.20 10:44:35.
