data_PCOD9576561
_publ_section_title
;
Structure prediction by ZEFSAII (Michael W. Deem and Ramdas Pophale) SiO2 
 PCOD9576561
Probable space group: P 32 2 1
;
_chemical_formula_sum "Si O2"
_cell_formula_units_Z 30
_cell_length_a 14.275698
_cell_length_b 14.275698
_cell_length_c 9.125649
_cell_angle_alpha 90.000000
_cell_angle_beta 90.000000
_cell_angle_gamma 120.000000
_cell_volume 1610.605197
_symmetry_space_group_name_H-M "P 32 2 1"
_symmetry_group_IT_number 154
_symmetry_cell_setting 'hexagonal'
loop_
_space_group_symop_operation_xyz
x,y,z
-y,x-y,2/3+z
-x+y,-x,1/3+z
x-y,-y,1/3-z
-x,-x+y,2/3-z
y,x,-z
loop_
_atom_site_type_symbol
_atom_site_label
_atom_site_fract_x
_atom_site_fract_y
_atom_site_fract_z
Si Si1 0.073335 0.219572 0.071131
Si Si2 0.884865 0.468330 0.411841
Si Si3 0.057831 0.854517 0.087734
Si Si4 0.768517 0.222789 0.502559
Si Si5 0.008100 0.627853 0.670816
O O1 0.098658 0.151922 0.191749
O O2 0.122117 0.338523 0.138436
O O3 0.139991 0.245685 0.917235
O O4 0.953515 0.141737 0.010817
O O5 0.808423 0.342609 0.446786
O O6 0.817910 0.509125 0.312960
O O7 0.000000 0.500765 0.333334
O O8 0.928154 0.534577 0.561860
O O9 0.028980 0.745819 0.005673
O O10 0.691781 0.130971 0.386586
O O11 0.000000 0.585869 0.833334
#
# Coordination Sequence:
#
# PCOD9576561 Si02
#       5
#     6   6   6   6   6
#     4   9  17  34  56  82 114 154 189 229 283 353
#     4  10  22  42  64  85 115 157 197 245 299 349
#     4   9  17  34  55  80 117 152 190 226 285 347
#     4  10  21  40  64  84 117 157 196 244 297 347
#     4  10  21  40  60  86 119 154 195 244 292 352
#
# _framework density 18.626539999999999
#
# number of rings (size 3 to 8) (size 9 to 14) (size 15 to 20)
#    0.000    2.400    2.000    0.000    0.000    3.200 
#   14.400    6.000    0.000    0.000    0.000    0.000 
#    0.000    0.000    0.000    0.000    0.000    0.000 
#
# Total GULP energy -167018.469529 kJ/mol
# GULP energy per Si atom -5567.282318 kJ/mol
# Density = 1.858415 g / cm^3
# Si number density = 18.626540 Si / 1000 Ang^3
#
#
#
# Elastic Constant Matrix: (Units=GPa)
#
#
# Indices 1 2 3 4 5 6 
#
# 1 98.1327 63.7728 49.3738 5.6038 0.0001 0.0000
# 2 63.7728 98.1327 49.3738 -5.6038 -0.0001 0.0000
# 3 49.3738 49.3738 109.1481 0.0000 0.0000 0.0000
# 4 5.6038 -5.6038 0.0000 -2.7843 0.0000 -0.0001
# 5 0.0001 -0.0001 0.0000 0.0000 -2.7843 5.6038
# 6 0.0000 0.0000 0.0000 -0.0001 5.6038 17.1800
#
#
#
# Elastic Compliance Matrix: (Units=1/GPa)
#
#
# Indices 1 2 3 4 5 6 
#
# 1 0.013050 -0.004520 -0.003858 0.035361 0.000001 0.000000
# 2 -0.004520 0.013050 -0.003858 -0.035361 -0.000001 0.000000
# 3 -0.003858 -0.003858 0.012653 0.000000 0.000000 0.000000
# 4 0.035361 -0.035361 0.000000 -0.216819 0.000000 -0.000002
# 5 0.000001 -0.000001 0.000000 0.000000 -0.216819 0.070723
# 6 0.000000 0.000000 0.000000 -0.000002 0.070723 0.035139
#
#
# Mechanical properties :
#
#
# Convention : Reuss Voigt Hill
#
# Bulk Modulus (GPa) = 70.03655 70.05047 70.04351
# Shear Modulus (GPa) = -15.12789 11.84850 -1.63969
#
# Velocity S-wave (km/s) = -2.85295 2.52486 -0.93926
# Velocity P-wave (km/s) = 5.17973 6.79628 6.04231
#
# Compressibility (1/GPa) = 0.01427826
#
# Stress axis : x y z
#
# Youngs Moduli (GPa) = 76.63094 76.63094 79.03458
#
# Poissons Ratio (x) = 0.34636 0.30495
# Poissons Ratio (y) = 0.34636 0.30495
# Poissons Ratio (z) = 0.29568 0.29568
#
# Static dielectric constant tensor:
#      x y z
#    x 1.646440 0.000000 0.000000 
#    y 0.000000 1.646440 0.000000 
#    z 0.000000 0.000000 1.665550 
# 
# From -- ./inp_files/1029.got.cif
#   From: 2010.05.17/outbox.cif.g08.bks.cpg/sg154_1_cif.got.tgz:1029.got - 2010.05.20 10:41:43.
