data_PCOD9576199
_publ_section_title
;
Structure prediction by ZEFSAII (Michael W. Deem and Ramdas Pophale) SiO2 
 PCOD9576199
Probable space group: P 31 2 1
;
_chemical_formula_sum "Si O2"
_cell_formula_units_Z 18
_cell_length_a 13.648629
_cell_length_b 13.648629
_cell_length_c 5.206380
_cell_angle_alpha 90.000000
_cell_angle_beta 90.000000
_cell_angle_gamma 120.000000
_cell_volume 839.932822
_symmetry_space_group_name_H-M "P 31 2 1"
_symmetry_group_IT_number 152
_symmetry_cell_setting 'hexagonal'
loop_
_space_group_symop_operation_xyz
x,y,z
-y,x-y,1/3+z
-x+y,-x,2/3+z
x-y,-y,2/3-z
-x,-x+y,1/3-z
y,x,-z
loop_
_atom_site_type_symbol
_atom_site_label
_atom_site_fract_x
_atom_site_fract_y
_atom_site_fract_z
Si Si1 0.362800 0.573680 0.642295
Si Si2 0.000000 0.282035 0.666667
Si Si3 0.755991 0.076536 0.580459
Si Si4 0.416699 0.000000 0.833334
O O1 0.419104 0.685904 0.814363
O O2 0.305125 0.455967 0.795208
O O3 0.461175 0.573284 0.473807
O O4 0.887566 0.162370 0.629454
O O5 0.013150 0.356774 0.417134
O O6 0.735159 0.000000 0.333334
O O7 0.703792 0.000000 0.833334
#
# Coordination Sequence:
#
# PCOD9576199 Si02
#       4
#     6   3   6   3
#     4  12  27  45  77 116 154 200 249 308 389 468
#     4  12  26  52  72 104 150 196 252 310 378 436
#     4  12  28  48  76 108 149 198 252 313 374 447
#     4  12  26  44  76 108 150 198 238 308 374 460
#
# _framework density 21.430282999999999
#
# number of rings (size 3 to 8) (size 9 to 14) (size 15 to 20)
#    0.000    0.000    5.000    4.000    7.000    0.000 
#    3.000    0.000    0.000    0.000    0.000    0.000 
#    0.000    0.000    0.000    0.000    0.000    0.000 
#
# Total GULP energy -100881.161536 kJ/mol
# GULP energy per Si atom -5604.508974 kJ/mol
# Density = 2.138151 g / cm^3
# Si number density = 21.430283 Si / 1000 Ang^3
#
#
#
# Elastic Constant Matrix: (Units=GPa)
#
#
# Indices 1 2 3 4 5 6 
#
# 1 -231.3222 473.8689 56.4049 13.5380 0.0005 0.0000
# 2 473.8689 -231.3223 56.4049 -13.5380 -0.0005 0.0000
# 3 56.4049 56.4049 128.6857 0.0000 0.0000 0.0000
# 4 13.5380 -13.5380 0.0000 34.5955 0.0000 -0.0005
# 5 0.0005 -0.0005 0.0000 0.0000 34.5955 13.5380
# 6 0.0000 0.0000 0.0000 -0.0005 13.5380 -352.5956
#
#
#
# Elastic Compliance Matrix: (Units=1/GPa)
#
#
# Indices 1 2 3 4 5 6 
#
# 1 0.001891 0.003288 -0.002270 0.000547 0.000000 0.000000
# 2 0.003288 0.001891 -0.002270 -0.000547 0.000000 0.000000
# 3 -0.002270 -0.002270 0.009761 0.000000 0.000000 0.000000
# 4 0.000547 -0.000547 0.000000 0.028478 0.000000 0.000000
# 5 0.000000 0.000000 0.000000 0.000000 0.028478 0.001093
# 6 0.000000 0.000000 0.000000 0.000000 0.001093 -0.002794
#
#
# Mechanical properties :
#
#
# Convention : Reuss Voigt Hill
#
# Bulk Modulus (GPa) = 90.59204 93.26650 91.92927
# Shear Modulus (GPa) = 67.67119 -118.05674 -25.19277
#
# Velocity S-wave (km/s) = 5.62547 -7.43023 -3.43238
# Velocity P-wave (km/s) = 9.19561 5.47684 5.22319
#
# Compressibility (1/GPa) = 0.01103850
#
# Stress axis : x y z
#
# Youngs Moduli (GPa) = 528.87813 528.87813 102.45144
#
# Poissons Ratio (x) = -1.73888 0.23255
# Poissons Ratio (y) = -1.73888 0.23255
# Poissons Ratio (z) = 1.20049 1.20049
#
# Static dielectric constant tensor:
#      x y z
#    x 1.768020 0.000000 0.000000 
#    y 0.000000 1.768020 0.000000 
#    z 0.000000 0.000000 1.749140 
# 
# From -- ./inp_files/110.got.cif
#   From: 2010.05.17/outbox.cif.g08.bks.cpg/sg152_1_cif.got.tgz:110.got - 2010.05.20 10:36:06.
