data_PCOD9576907
_publ_section_title
;
Structure prediction by ZEFSAII (Michael W. Deem and Ramdas Pophale) SiO2 
 PCOD9576907
Probable space group: R 3 2
;
_chemical_formula_sum "Si O2"
_cell_formula_units_Z 57
_cell_length_a 13.958458
_cell_length_b 13.958458
_cell_length_c 14.348819
_cell_angle_alpha 90.000000
_cell_angle_beta 90.000000
_cell_angle_gamma 120.000000
_cell_volume 2421.149893
_symmetry_space_group_name_H-M "R 3 2"
_symmetry_group_IT_number 155
_symmetry_cell_setting 'hexagonal'
loop_
_space_group_symop_operation_xyz
x,y,z
-y,x-y,z
-x+y,-x,z
x-y,-y,-z
-x,-x+y,-z
y,x,-z
2/3+x,1/3+y,1/3+z
2/3-y,1/3+x-y,1/3+z
2/3-x+y,1/3-x,1/3+z
2/3+x-y,1/3-y,1/3-z
2/3-x,1/3-x+y,1/3-z
2/3+y,1/3+x,1/3-z
1/3+x,2/3+y,2/3+z
1/3-y,2/3+x-y,2/3+z
1/3-x+y,2/3-x,2/3+z
1/3+x-y,2/3-y,2/3-z
1/3-x,2/3-x+y,2/3-z
1/3+y,2/3+x,2/3-z
loop_
_atom_site_type_symbol
_atom_site_label
_atom_site_fract_x
_atom_site_fract_y
_atom_site_fract_z
Si Si1 0.487599 0.154266 0.333334
Si Si2 0.000000 0.000000 0.134065
Si Si3 0.333334 0.666668 0.301742
Si Si4 0.184882 0.919844 0.744252
Si Si5 0.722481 0.177865 0.640355
O O1 0.559311 0.228934 0.420931
O O2 0.363537 0.134828 0.332047
O O3 0.000000 0.000000 0.247363
O O4 0.450088 0.771046 0.279104
O O5 0.251837 0.918504 0.833334
O O6 0.053272 0.838781 0.757653
O O7 0.213308 0.044223 0.722275
O O8 0.755619 0.088952 0.666667
#
# Coordination Sequence:
#
# PCOD9576907 Si02
#       5
#     9   6   6  18  18
#     4  10  20  36  62  98 122 166 218 278 326 382
#     4  10  22  36  63  96 135 157 221 293 317 376
#     4   9  19  40  60  84 127 169 208 260 337 379
#     4  11  23  41  66  90 128 169 218 266 327 391
#     4  10  21  39  59  89 124 167 203 258 325 387
#
# _framework density 23.542532999999999
#
# number of rings (size 3 to 8) (size 9 to 14) (size 15 to 20)
#    0.000    1.895    1.579    4.421    4.421    2.526 
#    0.000    0.000    0.000    0.000    0.000    4.421 
#    0.000    0.000    0.000    0.000    0.000    0.000 
#
# Total GULP energy -105821.311680 kJ/mol
# GULP energy per Si atom -5569.542720 kJ/mol
# Density = 2.348895 g / cm^3
# Si number density = 23.542533 Si / 1000 Ang^3
#
#
#
# Elastic Constant Matrix: (Units=GPa)
#
#
# Indices 1 2 3 4 5 6 
#
# 1 132.0197 15.5806 22.1095 -3.7111 -0.0001 0.0000
# 2 15.5806 132.0233 22.1098 3.7121 0.0001 0.0000
# 3 22.1095 22.1098 72.0026 0.0003 0.0000 0.0000
# 4 -3.7111 3.7121 0.0003 23.5158 0.0000 0.0001
# 5 -0.0001 0.0001 0.0000 0.0000 23.5160 -3.7119
# 6 0.0000 0.0000 0.0000 0.0001 -3.7119 58.2207
#
#
#
# Elastic Compliance Matrix: (Units=1/GPa)
#
#
# Indices 1 2 3 4 5 6 
#
# 1 0.008068 -0.000607 -0.002291 0.001369 0.000000 0.000000
# 2 -0.000607 0.008068 -0.002291 -0.001369 0.000000 0.000000
# 3 -0.002291 -0.002291 0.015295 0.000000 0.000000 0.000000
# 4 0.001369 -0.001369 0.000000 0.042957 0.000000 0.000000
# 5 0.000000 0.000000 0.000000 0.000000 0.042957 0.002739
# 6 0.000000 0.000000 0.000000 0.000000 0.002739 0.017351
#
#
# Mechanical properties :
#
#
# Convention : Reuss Voigt Hill
#
# Bulk Modulus (GPa) = 47.49778 50.62726 49.06252
# Shear Modulus (GPa) = 32.87470 39.46688 36.17079
#
# Velocity S-wave (km/s) = 3.74089 4.09884 3.92395
# Velocity P-wave (km/s) = 6.23523 6.62962 6.43545
#
# Compressibility (1/GPa) = 0.02105362
#
# Stress axis : x y z
#
# Youngs Moduli (GPa) = 123.93950 123.94261 65.37889
#
# Poissons Ratio (x) = 0.07523 0.14979
# Poissons Ratio (y) = 0.07523 0.14979
# Poissons Ratio (z) = 0.28397 0.28397
#
# Static dielectric constant tensor:
#      x y z
#    x 1.989900 0.000000 0.000000 
#    y 0.000000 1.989900 0.000000 
#    z 0.000000 0.000000 2.051850 
# 
# From -- ./inp_files/4772.got.cif
#   From: 2010.05.17/outbox.cif.g08.bks.cpg/sg155_3_cif.got.tgz:4772.got - 2010.05.20 10:44:35.
