data_PCOD9576778
_publ_section_title
;
Structure prediction by ZEFSAII (Michael W. Deem and Ramdas Pophale) SiO2 
 PCOD9576778
Probable space group: R 3 2
;
_chemical_formula_sum "Si O2"
_cell_formula_units_Z 54
_cell_length_a 28.288654
_cell_length_b 28.288654
_cell_length_c 5.240648
_cell_angle_alpha 90.000000
_cell_angle_beta 90.000000
_cell_angle_gamma 120.000000
_cell_volume 3631.952748
_symmetry_space_group_name_H-M "R 3 2"
_symmetry_group_IT_number 155
_symmetry_cell_setting 'hexagonal'
loop_
_space_group_symop_operation_xyz
x,y,z
-y,x-y,z
-x+y,-x,z
x-y,-y,-z
-x,-x+y,-z
y,x,-z
2/3+x,1/3+y,1/3+z
2/3-y,1/3+x-y,1/3+z
2/3-x+y,1/3-x,1/3+z
2/3+x-y,1/3-y,1/3-z
2/3-x,1/3-x+y,1/3-z
2/3+y,1/3+x,1/3-z
1/3+x,2/3+y,2/3+z
1/3-y,2/3+x-y,2/3+z
1/3-x+y,2/3-x,2/3+z
1/3+x-y,2/3-y,2/3-z
1/3-x,2/3-x+y,2/3-z
1/3+y,2/3+x,2/3-z
loop_
_atom_site_type_symbol
_atom_site_label
_atom_site_fract_x
_atom_site_fract_y
_atom_site_fract_z
Si Si1 0.521489 0.732541 0.157051
Si Si2 0.100727 0.369790 0.091893
Si Si3 0.933648 0.064831 0.996623
O O1 0.487785 0.666667 0.166667
O O2 0.582351 0.745950 0.088898
O O3 0.506185 0.749406 0.425074
O O4 0.498325 0.750613 0.923937
O O5 0.064443 0.397777 0.166667
O O6 0.094953 0.333334 0.333334
O O7 0.079107 0.333334 0.833334
O O8 0.000000 0.094061 0.000000
O O9 0.907240 0.000000 0.000000
#
# Coordination Sequence:
#
# PCOD9576778 Si02
#       3
#    18  18  18
#     4   9  19  31  43  62  90 118 147 186 230 258
#     4  11  20  31  46  65  89 121 158 191 220 260
#     4  10  18  30  46  65  88 119 154 185 216 260
#
# _framework density 14.868034
#
# number of rings (size 3 to 8) (size 9 to 14) (size 15 to 20)
#    0.000    2.000    0.000    5.333    0.000    5.333 
#    0.000    3.333    0.000    0.000    0.000    0.000 
#    0.000    0.000    0.000  126.000    0.000    0.000 
#
# Total GULP energy -100240.771658 kJ/mol
# GULP energy per Si atom -5568.931759 kJ/mol
# Density = 1.483419 g / cm^3
# Si number density = 14.868034 Si / 1000 Ang^3
#
#
#
# Elastic Constant Matrix: (Units=GPa)
#
#
# Indices 1 2 3 4 5 6 
#
# 1 76.1177 33.1929 46.1074 -4.0236 0.2840 -0.0522
# 2 33.1929 75.6923 45.7744 3.8487 0.1093 -0.0585
# 3 46.1074 45.7744 144.0587 -0.4390 0.6985 -0.2176
# 4 -4.0236 3.8487 -0.4390 19.7638 -0.1410 -0.0541
# 5 0.2840 0.1093 0.6985 -0.1410 20.1311 -3.8642
# 6 -0.0522 -0.0585 -0.2176 -0.0541 -3.8642 21.2308
#
#
#
# Elastic Compliance Matrix: (Units=1/GPa)
#
#
# Indices 1 2 3 4 5 6 
#
# 1 0.018380 -0.005887 -0.003997 0.004799 -0.000057 -0.000010
# 2 -0.005887 0.018457 -0.003996 -0.004881 0.000087 -0.000001
# 3 -0.003997 -0.003996 0.009492 0.000174 -0.000244 0.000033
# 4 0.004799 -0.004881 0.000174 0.052532 0.000359 0.000199
# 5 -0.000057 0.000087 -0.000244 0.000359 0.051484 0.009369
# 6 -0.000010 -0.000001 0.000033 0.000199 0.009369 0.048808
#
#
# Mechanical properties :
#
#
# Convention : Reuss Voigt Hill
#
# Bulk Modulus (GPa) = 53.85083 60.66870 57.25977
# Shear Modulus (GPa) = 21.44977 23.61141 22.53059
#
# Velocity S-wave (km/s) = 3.80238 3.98938 3.89700
# Velocity P-wave (km/s) = 7.45488 7.88122 7.67101
#
# Compressibility (1/GPa) = 0.01856981
#
# Stress axis : x y z
#
# Youngs Moduli (GPa) = 54.40786 54.17876 105.34651
#
# Poissons Ratio (x) = 0.31893 0.42110
# Poissons Ratio (y) = 0.32027 0.42097
# Poissons Ratio (z) = 0.21748 0.21650
#
# Static dielectric constant tensor:
#      x y z
#    x 1.535440 0.001110 0.000080 
#    y 0.001110 1.536820 -0.000210 
#    z 0.000080 -0.000210 1.508270 
# 
# From -- ./inp_files/571.got.cif
#   From: 2010.05.17/outbox.cif.g08.bks.cpg/sg155_1_cif.got.tgz:571.got - 2010.05.20 10:44:35.
