data_PCOD9576989
_publ_section_title
;
Structure prediction by ZEFSAII (Michael W. Deem and Ramdas Pophale) SiO2 
 PCOD9576989
Probable space group: R 3 2
;
_chemical_formula_sum "Si O2"
_cell_formula_units_Z 54
_cell_length_a 15.488317
_cell_length_b 15.488317
_cell_length_c 13.532795
_cell_angle_alpha 90.000000
_cell_angle_beta 90.000000
_cell_angle_gamma 120.000000
_cell_volume 2811.425582
_symmetry_space_group_name_H-M "R 3 2"
_symmetry_group_IT_number 155
_symmetry_cell_setting 'hexagonal'
loop_
_space_group_symop_operation_xyz
x,y,z
-y,x-y,z
-x+y,-x,z
x-y,-y,-z
-x,-x+y,-z
y,x,-z
2/3+x,1/3+y,1/3+z
2/3-y,1/3+x-y,1/3+z
2/3-x+y,1/3-x,1/3+z
2/3+x-y,1/3-y,1/3-z
2/3-x,1/3-x+y,1/3-z
2/3+y,1/3+x,1/3-z
1/3+x,2/3+y,2/3+z
1/3-y,2/3+x-y,2/3+z
1/3-x+y,2/3-x,2/3+z
1/3+x-y,2/3-y,2/3-z
1/3-x,2/3-x+y,2/3-z
1/3+y,2/3+x,2/3-z
loop_
_atom_site_type_symbol
_atom_site_label
_atom_site_fract_x
_atom_site_fract_y
_atom_site_fract_z
Si Si1 0.558360 0.119563 0.861446
Si Si2 0.897111 0.300667 0.446390
Si Si3 0.288923 0.750595 0.395722
O O1 0.666667 0.139655 0.833334
O O2 0.549240 0.215907 0.833334
O O3 0.472001 0.029057 0.800966
O O4 0.541808 0.119423 0.979228
O O5 0.906608 0.333334 0.333334
O O6 0.800134 0.289486 0.500990
O O7 0.000000 0.380620 0.500000
O O8 0.227868 0.630348 0.384626
#
# Coordination Sequence:
#
# PCOD9576989 Si02
#       3
#    18  18  18
#     4  11  18  36  66  96 123 162 220 277 323 382
#     4  11  24  39  62  93 132 171 213 273 337 396
#     4  10  21  38  66  92 123 167 219 265 324 392
#
# _framework density 19.207336999999999
#
# number of rings (size 3 to 8) (size 9 to 14) (size 15 to 20)
#    0.667    0.667    3.333    5.333    0.000    1.333 
#    0.000    1.667    7.333    0.000    0.000    0.000 
#    0.000    0.000    0.000    0.000    0.000    0.000 
#
# Total GULP energy -100208.671781 kJ/mol
# GULP energy per Si atom -5567.148432 kJ/mol
# Density = 1.916362 g / cm^3
# Si number density = 19.207337 Si / 1000 Ang^3
#
#
#
# Elastic Constant Matrix: (Units=GPa)
#
#
# Indices 1 2 3 4 5 6 
#
# 1 73.2116 35.2663 50.6105 1.3483 0.0000 0.0000
# 2 35.2663 73.2116 50.6105 -1.3483 0.0000 0.0000
# 3 50.6105 50.6105 195.0141 0.0000 0.0000 0.0000
# 4 1.3483 -1.3483 0.0000 29.4096 0.0000 0.0000
# 5 0.0000 0.0000 0.0000 0.0000 29.4096 1.3483
# 6 0.0000 0.0000 0.0000 0.0000 1.3483 18.9727
#
#
#
# Elastic Compliance Matrix: (Units=1/GPa)
#
#
# Indices 1 2 3 4 5 6 
#
# 1 0.019302 -0.007138 -0.003157 -0.001212 0.000000 0.000000
# 2 -0.007138 0.019302 -0.003157 0.001212 0.000000 0.000000
# 3 -0.003157 -0.003157 0.006766 0.000000 0.000000 0.000000
# 4 -0.001212 0.001212 0.000000 0.034114 0.000000 0.000000
# 5 0.000000 0.000000 0.000000 0.000000 0.034114 -0.002424
# 6 0.000000 0.000000 0.000000 0.000000 -0.002424 0.052880
#
#
# Mechanical properties :
#
#
# Convention : Reuss Voigt Hill
#
# Bulk Modulus (GPa) = 54.15002 68.26798 61.20900
# Shear Modulus (GPa) = 25.05808 29.22169 27.13989
#
# Velocity S-wave (km/s) = 3.61586 3.90472 3.76306
# Velocity P-wave (km/s) = 6.75915 7.47990 7.12864
#
# Compressibility (1/GPa) = 0.01846721
#
# Stress axis : x y z
#
# Youngs Moduli (GPa) = 51.80809 51.80809 147.78932
#
# Poissons Ratio (x) = 0.36980 0.46655
# Poissons Ratio (y) = 0.36980 0.46655
# Poissons Ratio (z) = 0.16355 0.16355
#
# Static dielectric constant tensor:
#      x y z
#    x 1.683150 0.000000 0.000000 
#    y 0.000000 1.683150 0.000000 
#    z 0.000000 0.000000 1.748760 
# 
# From -- ./inp_files/3449.got.cif
#   From: 2010.05.17/outbox.cif.g08.bks.cpg/sg155_2_cif.got.tgz:3449.got - 2010.05.20 10:44:35.
