data_PCOD9576121
_publ_section_title
;
Structure prediction by ZEFSAII (Michael W. Deem and Ramdas Pophale) SiO2 
 PCOD9576121
Probable space group: P 31 2 1
;
_chemical_formula_sum "Si O2"
_cell_formula_units_Z 21
_cell_length_a 7.260352
_cell_length_b 7.260352
_cell_length_c 16.997244
_cell_angle_alpha 90.000000
_cell_angle_beta 90.000000
_cell_angle_gamma 120.000000
_cell_volume 775.933486
_symmetry_space_group_name_H-M "P 31 2 1"
_symmetry_group_IT_number 152
_symmetry_cell_setting 'hexagonal'
loop_
_space_group_symop_operation_xyz
x,y,z
-y,x-y,1/3+z
-x+y,-x,2/3+z
x-y,-y,2/3-z
-x,-x+y,1/3-z
y,x,-z
loop_
_atom_site_type_symbol
_atom_site_label
_atom_site_fract_x
_atom_site_fract_y
_atom_site_fract_z
Si Si1 0.062337 0.241573 0.302550
Si Si2 0.116025 0.477433 0.588167
Si Si3 0.506229 0.562290 0.242978
Si Si4 0.528923 0.528923 0.500000
O O1 0.727718 0.233366 0.394108
O O2 0.933244 0.293546 0.236184
O O3 0.112239 0.403031 0.375713
O O4 0.952244 0.000000 0.333334
O O5 0.315239 0.471592 0.547868
O O6 0.000000 0.355533 0.666667
O O7 0.954912 0.415144 0.516184
O O8 0.294945 0.342987 0.262389
#
# Coordination Sequence:
#
# PCOD9576121 Si02
#       4
#     6   6   6   3
#     4  11  26  51  83 118 167 218 284 364 436 534
#     4  11  27  52  82 116 170 225 285 372 440 532
#     4  11  27  50  79 121 161 223 282 356 439 530
#     4  10  26  52  88 124 168 224 308 356 448 554
#
# _framework density 27.064177999999998
#
# number of rings (size 3 to 8) (size 9 to 14) (size 15 to 20)
#    0.000    1.143    0.000    2.571   24.000    0.000 
#   15.429    4.286    0.000    0.000    0.000    0.000 
#    0.000    0.000    0.000    0.000    0.000    0.000 
#
# Total GULP energy -117492.432759 kJ/mol
# GULP energy per Si atom -5594.877750 kJ/mol
# Density = 2.700258 g / cm^3
# Si number density = 27.064178 Si / 1000 Ang^3
#
#
#
# Elastic Constant Matrix: (Units=GPa)
#
#
# Indices 1 2 3 4 5 6 
#
# 1 115.2036 94.0245 92.4455 -14.2024 -0.0005 0.0000
# 2 94.0245 115.2036 92.4455 14.2024 0.0005 0.0000
# 3 92.4455 92.4455 278.0945 0.0000 0.0000 0.0000
# 4 -14.2024 14.2024 0.0000 43.5428 0.0000 0.0005
# 5 -0.0005 0.0005 0.0000 0.0000 43.5428 -14.2024
# 6 0.0000 0.0000 0.0000 0.0005 -14.2024 10.5896
#
#
#
# Elastic Compliance Matrix: (Units=1/GPa)
#
#
# Indices 1 2 3 4 5 6 
#
# 1 0.045350 -0.038583 -0.002250 0.027376 0.000001 0.000000
# 2 -0.038583 0.045350 -0.002250 -0.027376 -0.000001 0.000000
# 3 -0.002250 -0.002250 0.005092 0.000000 0.000000 0.000000
# 4 0.027376 -0.027376 0.000000 0.040825 0.000000 -0.000002
# 5 0.000001 -0.000001 0.000000 0.000000 0.040825 0.054753
# 6 0.000000 0.000000 0.000000 -0.000002 0.054753 0.167865
#
#
# Mechanical properties :
#
#
# Convention : Reuss Voigt Hill
#
# Bulk Modulus (GPa) = 103.86553 118.48140 111.17347
# Shear Modulus (GPa) = 11.50274 34.84077 23.17176
#
# Velocity S-wave (km/s) = 2.06383 3.59184 2.92923
# Velocity P-wave (km/s) = 6.64379 7.81503 7.25309
#
# Compressibility (1/GPa) = 0.00962783
#
# Stress axis : x y z
#
# Youngs Moduli (GPa) = 22.05072 22.05072 196.40220
#
# Poissons Ratio (x) = 0.85077 0.44184
# Poissons Ratio (y) = 0.85077 0.44184
# Poissons Ratio (z) = 0.04961 0.04961
#
# Static dielectric constant tensor:
#      x y z
#    x 2.209000 0.000000 0.000000 
#    y 0.000000 2.209000 0.000000 
#    z 0.000000 0.000000 2.152160 
# 
# From -- ./inp_files/2266.got.cif
#   From: 2010.05.17/outbox.cif.g08.bks.cpg/sg152_2_cif.got.tgz:2266.got - 2010.05.20 10:36:06.
