data_PCOD9576566
_publ_section_title
;
Structure prediction by ZEFSAII (Michael W. Deem and Ramdas Pophale) SiO2 
 PCOD9576566
Probable space group: P 32 2 1
;
_chemical_formula_sum "Si O2"
_cell_formula_units_Z 36
_cell_length_a 8.211858
_cell_length_b 8.211858
_cell_length_c 27.426023
_cell_angle_alpha 90.000000
_cell_angle_beta 90.000000
_cell_angle_gamma 120.000000
_cell_volume 1601.682127
_symmetry_space_group_name_H-M "P 32 2 1"
_symmetry_group_IT_number 154
_symmetry_cell_setting 'hexagonal'
loop_
_space_group_symop_operation_xyz
x,y,z
-y,x-y,2/3+z
-x+y,-x,1/3+z
x-y,-y,1/3-z
-x,-x+y,2/3-z
y,x,-z
loop_
_atom_site_type_symbol
_atom_site_label
_atom_site_fract_x
_atom_site_fract_y
_atom_site_fract_z
Si Si1 0.496937 0.157244 0.707465
Si Si2 0.793105 0.925560 0.385503
Si Si3 0.295630 0.885407 0.956945
Si Si4 0.183376 0.622177 0.104414
Si Si5 0.875047 0.868603 0.785815
Si Si6 0.413030 0.466003 0.132425
O O1 0.305965 0.167564 0.713387
O O2 0.648330 0.376140 0.698121
O O3 0.457206 0.000000 0.666667
O O4 0.548168 0.088202 0.756946
O O5 0.723940 0.814892 0.335057
O O6 0.621927 0.809685 0.422758
O O7 0.976799 0.949292 0.410442
O O8 0.482709 0.080821 0.941572
O O9 0.174825 0.850118 0.907803
O O10 0.379814 0.638457 0.118754
O O11 0.038734 0.538072 0.149598
O O12 0.699525 0.895548 0.799898
O O13 0.000000 0.908501 0.833334
#
# Coordination Sequence:
#
# PCOD9576566 Si02
#       6
#     6   6   6   6   6   6
#     4  11  24  42  67  99 131 174 225 280 338 404
#     4  11  22  43  67  96 134 170 221 279 338 404
#     4  10  23  39  65  95 129 172 217 270 339 400
#     4  10  21  40  64  94 130 175 219 272 336 399
#     4  11  23  42  66  96 132 178 215 272 341 406
#     4  11  23  41  67  94 133 176 225 274 338 412
#
# _framework density 22.476371
#
# number of rings (size 3 to 8) (size 9 to 14) (size 15 to 20)
#    0.000    1.333    1.667    4.500    2.333    5.333 
#    0.000    2.500    0.000    0.000    0.000    0.000 
#    0.000    0.000    0.000    0.000    0.000    0.000 
#
# Total GULP energy -201099.808424 kJ/mol
# GULP energy per Si atom -5586.105790 kJ/mol
# Density = 2.242521 g / cm^3
# Si number density = 22.476371 Si / 1000 Ang^3
#
#
#
# Elastic Constant Matrix: (Units=GPa)
#
#
# Indices 1 2 3 4 5 6 
#
# 1 54.0762 35.8801 40.6240 -12.0667 0.0001 0.0000
# 2 35.8801 54.0762 40.6240 12.0667 -0.0001 0.0000
# 3 40.6240 40.6240 129.5549 0.0000 0.0000 0.0000
# 4 -12.0667 12.0667 0.0000 38.1298 0.0000 -0.0001
# 5 0.0001 -0.0001 0.0000 0.0000 38.1298 -12.0667
# 6 0.0000 0.0000 0.0000 -0.0001 -12.0667 9.0980
#
#
#
# Elastic Compliance Matrix: (Units=1/GPa)
#
#
# Indices 1 2 3 4 5 6 
#
# 1 0.055109 -0.039600 -0.004863 0.029972 0.000000 0.000000
# 2 -0.039600 0.055109 -0.004863 -0.029972 0.000000 0.000000
# 3 -0.004863 -0.004863 0.010768 0.000000 0.000000 0.000000
# 4 0.029972 -0.029972 0.000000 0.045196 0.000000 0.000001
# 5 0.000000 0.000000 0.000000 0.000000 0.045196 0.059944
# 6 0.000000 0.000000 0.000000 0.000001 0.059944 0.189417
#
#
# Mechanical properties :
#
#
# Convention : Reuss Voigt Hill
#
# Bulk Modulus (GPa) = 44.77489 52.44037 48.60763
# Shear Modulus (GPa) = 9.86404 25.11013 17.48709
#
# Velocity S-wave (km/s) = 2.09718 3.34605 2.79233
# Velocity P-wave (km/s) = 5.08216 6.18951 5.66297
#
# Compressibility (1/GPa) = 0.02233395
#
# Stress axis : x y z
#
# Youngs Moduli (GPa) = 18.14597 18.14597 92.86354
#
# Poissons Ratio (x) = 0.71858 0.45160
# Poissons Ratio (y) = 0.71858 0.45160
# Poissons Ratio (z) = 0.08824 0.08824
#
# Static dielectric constant tensor:
#      x y z
#    x 1.873530 0.000000 0.000000 
#    y 0.000000 1.873530 0.000000 
#    z 0.000000 0.000000 1.813180 
# 
# From -- ./inp_files/3421.got.cif
#   From: 2010.05.17/outbox.cif.g08.bks.cpg/sg154_2_cif.got.tgz:3421.got - 2010.05.20 10:41:43.
