data_PCOD9576822
_publ_section_title
;
Structure prediction by ZEFSAII (Michael W. Deem and Ramdas Pophale) SiO2 
 PCOD9576822
Probable space group: R 3 2
;
_chemical_formula_sum "Si O2"
_cell_formula_units_Z 75
_cell_length_a 13.990167
_cell_length_b 13.990167
_cell_length_c 18.986249
_cell_angle_alpha 90.000000
_cell_angle_beta 90.000000
_cell_angle_gamma 120.000000
_cell_volume 3218.219050
_symmetry_space_group_name_H-M "R 3 2"
_symmetry_group_IT_number 155
_symmetry_cell_setting 'hexagonal'
loop_
_space_group_symop_operation_xyz
x,y,z
-y,x-y,z
-x+y,-x,z
x-y,-y,-z
-x,-x+y,-z
y,x,-z
2/3+x,1/3+y,1/3+z
2/3-y,1/3+x-y,1/3+z
2/3-x+y,1/3-x,1/3+z
2/3+x-y,1/3-y,1/3-z
2/3-x,1/3-x+y,1/3-z
2/3+y,1/3+x,1/3-z
1/3+x,2/3+y,2/3+z
1/3-y,2/3+x-y,2/3+z
1/3-x+y,2/3-x,2/3+z
1/3+x-y,2/3-y,2/3-z
1/3-x,2/3-x+y,2/3-z
1/3+y,2/3+x,2/3-z
loop_
_atom_site_type_symbol
_atom_site_label
_atom_site_fract_x
_atom_site_fract_y
_atom_site_fract_z
Si Si1 0.000000 0.000000 0.711575
Si Si2 0.089481 0.666667 0.666667
Si Si3 0.461691 0.557332 0.946814
Si Si4 0.862686 0.119850 0.883068
Si Si5 0.000000 0.000000 0.881694
Si Si6 0.350127 0.110108 0.246601
O O1 0.969727 0.877711 0.692054
O O2 0.000000 0.000000 0.797045
O O3 0.085946 0.729990 0.596103
O O4 0.186197 0.781624 0.704626
O O5 0.442930 0.513266 0.866965
O O6 0.567028 0.680890 0.941172
O O7 0.486032 0.486032 0.000000
O O8 0.960464 0.241815 0.902920
O O9 0.925322 0.051328 0.903759
O O10 0.333334 0.140539 0.166667
#
# Coordination Sequence:
#
# PCOD9576822 Si02
#       6
#     6   9  18  18   6  18
#     4   9  21  39  64  91 121 178 235 281 337 384
#     4  12  20  32  58  92 130 164 218 274 352 416
#     4  10  21  41  62  89 132 186 229 274 340 406
#     4  10  19  30  56  92 127 173 210 266 348 419
#     4   9  15  28  49  87 132 160 206 248 331 412
#     4  10  22  36  55  92 137 172 220 276 346 423
#
# _framework density 23.304812999999999
#
# number of rings (size 3 to 8) (size 9 to 14) (size 15 to 20)
#    0.000    1.920    2.400    2.160    3.360    0.000 
#    2.160    0.000    0.000    0.000    0.000   11.760 
#    0.000    0.000    0.000    0.000    0.000    0.000 
#
# Total GULP energy -139306.981432 kJ/mol
# GULP energy per Si atom -5572.279257 kJ/mol
# Density = 2.325177 g / cm^3
# Si number density = 23.304813 Si / 1000 Ang^3
#
#
#
# Elastic Constant Matrix: (Units=GPa)
#
#
# Indices 1 2 3 4 5 6 
#
# 1 73.4816 25.2307 48.3745 -8.2328 0.0002 0.0000
# 2 25.2307 73.4816 48.3745 8.2328 -0.0002 0.0000
# 3 48.3745 48.3745 146.1530 0.0000 0.0000 0.0000
# 4 -8.2328 8.2328 0.0000 34.7367 0.0000 -0.0002
# 5 0.0002 -0.0002 0.0000 0.0000 34.7367 -8.2328
# 6 0.0000 0.0000 0.0000 -0.0002 -8.2328 24.1255
#
#
#
# Elastic Compliance Matrix: (Units=1/GPa)
#
#
# Indices 1 2 3 4 5 6 
#
# 1 0.018772 -0.003777 -0.004963 0.005344 0.000000 0.000000
# 2 -0.003777 0.018772 -0.004963 -0.005344 0.000000 0.000000
# 3 -0.004963 -0.004963 0.010128 0.000000 0.000000 0.000000
# 4 0.005344 -0.005344 0.000000 0.031321 0.000000 0.000000
# 5 0.000000 0.000000 0.000000 0.000000 0.031321 0.010688
# 6 0.000000 0.000000 0.000000 0.000000 0.010688 0.045097
#
#
# Mechanical properties :
#
#
# Convention : Reuss Voigt Hill
#
# Bulk Modulus (GPa) = 49.34640 59.67507 54.51073
# Shear Modulus (GPa) = 26.37523 30.12890 28.25206
#
# Velocity S-wave (km/s) = 3.36780 3.59948 3.48556
# Velocity P-wave (km/s) = 6.02852 6.55263 6.29603
#
# Compressibility (1/GPa) = 0.02026490
#
# Stress axis : x y z
#
# Youngs Moduli (GPa) = 53.27157 53.27157 98.74055
#
# Poissons Ratio (x) = 0.20120 0.49006
# Poissons Ratio (y) = 0.20120 0.49006
# Poissons Ratio (z) = 0.26439 0.26439
#
# Static dielectric constant tensor:
#      x y z
#    x 1.976710 0.000000 0.000000 
#    y 0.000000 1.976710 0.000000 
#    z 0.000000 0.000000 1.907070 
# 
# From -- ./inp_files/6820.got.cif
#   From: 2010.05.17/outbox.cif.g08.bks.cpg/sg155_4_cif.got.tgz:6820.got - 2010.05.20 10:44:35.
