data_PCOD9576289
_publ_section_title
;
Structure prediction by ZEFSAII (Michael W. Deem and Ramdas Pophale) SiO2 
 PCOD9576289
Probable space group: P 32 1 2
;
_chemical_formula_sum "Si O2"
_cell_formula_units_Z 42
_cell_length_a 9.180000
_cell_length_b 9.180000
_cell_length_c 28.628217
_cell_angle_alpha 90.000000
_cell_angle_beta 90.000000
_cell_angle_gamma 120.000000
_cell_volume 2089.345656
_symmetry_space_group_name_H-M "P 32 1 2"
_symmetry_group_IT_number 153
_symmetry_cell_setting 'hexagonal'
loop_
_space_group_symop_operation_xyz
x,y,z
-y,x-y,2/3+z
-x+y,-x,1/3+z
-y,-x,1/3-z
-x+y,y,2/3-z
x,x-y,-z
loop_
_atom_site_type_symbol
_atom_site_label
_atom_site_fract_x
_atom_site_fract_y
_atom_site_fract_z
Si Si1 0.996828 0.791749 0.463573
Si Si2 0.860688 0.917714 0.377326
Si Si3 0.524195 0.012196 0.912736
Si Si4 0.766582 0.640158 0.555343
Si Si5 0.490432 0.842569 0.657501
Si Si6 0.095280 0.473074 0.132255
Si Si7 0.454187 0.779978 0.101819
O O1 0.204260 0.914364 0.463900
O O2 0.924128 0.842701 0.418935
O O3 0.987006 0.616531 0.452240
O O4 0.871746 0.746912 0.508687
O O5 0.987264 0.974527 0.333334
O O6 0.678216 0.783044 0.356711
O O7 0.828896 0.053040 0.403198
O O8 0.688580 0.184965 0.904841
O O9 0.573044 0.873552 0.896188
O O10 0.451881 0.950402 0.964366
O O11 0.564774 0.532453 0.551607
O O12 0.357044 0.642957 0.666667
O O13 0.405442 0.873329 0.612441
O O14 0.270212 0.612789 0.107814
O O15 0.109062 0.515024 0.186944
#
# Coordination Sequence:
#
# PCOD9576289 Si02
#       7
#     6   6   6   6   6   6   6
#     4  11  23  44  69  95 136 180 226 278 342 423
#     4  12  25  41  66  97 138 175 221 286 356 408
#     4  10  21  40  67  95 131 170 223 281 332 393
#     4  12  24  40  68 102 132 173 231 289 344 403
#     4  10  20  39  70  92 127 179 232 269 333 423
#     4  10  20  37  67  94 131 176 228 272 330 416
#     4   9  17  35  64  97 118 173 231 266 310 413
#
# _framework density 20.101986
#
# number of rings (size 3 to 8) (size 9 to 14) (size 15 to 20)
#    0.000    1.429    4.286    1.714    2.000    1.714 
#    0.000    2.857    9.429    0.000    0.000    0.000 
#    0.000    0.000    0.000    0.000    0.000    0.000 
#
# Total GULP energy -233839.676984 kJ/mol
# GULP energy per Si atom -5567.611357 kJ/mol
# Density = 2.005623 g / cm^3
# Si number density = 20.101986 Si / 1000 Ang^3
#
#
#
# Elastic Constant Matrix: (Units=GPa)
#
#
# Indices 1 2 3 4 5 6 
#
# 1 78.3624 34.7771 23.9563 -0.0001 0.2657 0.0000
# 2 34.7771 78.3624 23.9563 0.0001 -0.2657 0.0000
# 3 23.9563 23.9563 100.8089 0.0000 0.0000 0.0000
# 4 -0.0001 0.0001 0.0000 24.5989 0.0000 -0.2657
# 5 0.2657 -0.2657 0.0000 0.0000 24.5989 -0.0001
# 6 0.0000 0.0000 0.0000 -0.2657 -0.0001 21.7926
#
#
#
# Elastic Compliance Matrix: (Units=1/GPa)
#
#
# Indices 1 2 3 4 5 6 
#
# 1 0.016387 -0.006559 -0.002335 0.000000 -0.000248 0.000000
# 2 -0.006559 0.016387 -0.002335 0.000000 0.000248 0.000000
# 3 -0.002335 -0.002335 0.011030 0.000000 0.000000 0.000000
# 4 0.000000 0.000000 0.000000 0.040658 0.000000 0.000496
# 5 -0.000248 0.000248 0.000000 0.000000 0.040658 0.000000
# 6 0.000000 0.000000 0.000000 0.000496 0.000000 0.045893
#
#
# Mechanical properties :
#
#
# Convention : Reuss Voigt Hill
#
# Bulk Modulus (GPa) = 46.85318 46.99036 46.92177
# Shear Modulus (GPa) = 24.92679 25.85435 25.39057
#
# Velocity S-wave (km/s) = 3.52521 3.59020 3.55785
# Velocity P-wave (km/s) = 6.31884 6.37281 6.34589
#
# Compressibility (1/GPa) = 0.02134327
#
# Stress axis : x y z
#
# Youngs Moduli (GPa) = 61.02357 61.02357 90.66381
#
# Poissons Ratio (x) = 0.40028 0.21174
# Poissons Ratio (y) = 0.40028 0.21174
# Poissons Ratio (z) = 0.14252 0.14252
#
# Static dielectric constant tensor:
#      x y z
#    x 1.754350 0.000000 0.000000 
#    y 0.000000 1.754350 0.000000 
#    z 0.000000 0.000000 1.751790 
# 
# From -- ./inp_files/5207.got.cif
#   From: 2010.05.17/outbox.cif.g08.bks.cpg/sg153_3_cif.got.tgz:5207.got - 2010.05.20 10:38:56.
