data_PCOD9576454
_publ_section_title
;
Structure prediction by ZEFSAII (Michael W. Deem and Ramdas Pophale) SiO2 
 PCOD9576454
Probable space group: P 32 2 1
;
_chemical_formula_sum "Si O2"
_cell_formula_units_Z 39
_cell_length_a 8.685106
_cell_length_b 8.685106
_cell_length_c 26.879900
_cell_angle_alpha 90.000000
_cell_angle_beta 90.000000
_cell_angle_gamma 120.000000
_cell_volume 1755.935370
_symmetry_space_group_name_H-M "P 32 2 1"
_symmetry_group_IT_number 154
_symmetry_cell_setting 'hexagonal'
loop_
_space_group_symop_operation_xyz
x,y,z
-y,x-y,2/3+z
-x+y,-x,1/3+z
x-y,-y,1/3-z
-x,-x+y,2/3-z
y,x,-z
loop_
_atom_site_type_symbol
_atom_site_label
_atom_site_fract_x
_atom_site_fract_y
_atom_site_fract_z
Si Si1 0.393297 0.393297 0.000000
Si Si2 0.350801 0.174281 0.586376
Si Si3 0.000000 0.051073 0.333334
Si Si4 0.404540 0.404540 0.500000
Si Si5 0.514287 0.304776 0.186757
Si Si6 0.641589 0.878841 0.373343
Si Si7 0.446189 0.346867 0.891042
Si Si8 0.428063 0.768755 0.988137
O O1 0.360112 0.289890 0.946824
O O2 0.417515 0.581036 0.980981
O O3 0.307290 0.277994 0.545987
O O4 0.460127 0.086549 0.564347
O O5 0.492617 0.320083 0.623358
O O6 0.187178 0.052581 0.620841
O O7 0.178193 0.065439 0.312690
O O8 0.599455 0.427859 0.495939
O O9 0.411085 0.216197 0.237938
O O10 0.700148 0.480483 0.203663
O O11 0.388591 0.336211 0.149301
O O12 0.504188 0.767304 0.329292
O O13 0.649488 0.070614 0.376879
#
# Coordination Sequence:
#
# PCOD9576454 Si02
#       8
#     3   6   3   3   6   6   6   6
#     4  10  19  42  63  96 125 184 221 266 325 410
#     4   9  18  40  62  91 122 175 222 253 323 408
#     4  10  23  38  71  90 133 174 223 270 329 414
#     4  10  20  42  64  88 132 182 208 260 352 408
#     4  11  24  41  64  95 134 170 221 276 332 403
#     4  11  21  43  61  95 129 172 222 276 335 403
#     4  10  21  37  62  93 125 168 223 269 319 392
#     4  10  20  37  68  88 128 168 223 272 327 392
#
# _framework density 22.210384000000001
#
# number of rings (size 3 to 8) (size 9 to 14) (size 15 to 20)
#    0.000    1.846    4.615    4.154    4.308    2.462 
#    5.538    3.077    0.000    0.000    0.000    0.000 
#    0.000    0.000    0.000    0.000    0.000    0.000 
#
# Total GULP energy -217290.070737 kJ/mol
# GULP energy per Si atom -5571.540275 kJ/mol
# Density = 2.215983 g / cm^3
# Si number density = 22.210384 Si / 1000 Ang^3
#
#
#
# Elastic Constant Matrix: (Units=GPa)
#
#
# Indices 1 2 3 4 5 6 
#
# 1 57.0416 2.6182 10.2486 -0.9464 0.0000 0.0000
# 2 2.6182 57.0416 10.2486 0.9464 0.0000 0.0000
# 3 10.2486 10.2486 66.0587 0.0000 0.0000 0.0000
# 4 -0.9464 0.9464 0.0000 25.5286 0.0000 0.0000
# 5 0.0000 0.0000 0.0000 0.0000 25.5286 -0.9464
# 6 0.0000 0.0000 0.0000 0.0000 -0.9464 27.2117
#
#
#
# Elastic Compliance Matrix: (Units=1/GPa)
#
#
# Indices 1 2 3 4 5 6 
#
# 1 0.018052 -0.000346 -0.002747 0.000682 0.000000 0.000000
# 2 -0.000346 0.018052 -0.002747 -0.000682 0.000000 0.000000
# 3 -0.002747 -0.002747 0.015990 0.000000 0.000000 0.000000
# 4 0.000682 -0.000682 0.000000 0.039222 0.000000 0.000000
# 5 0.000000 0.000000 0.000000 0.000000 0.039222 0.001364
# 6 0.000000 0.000000 0.000000 0.000000 0.001364 0.036796
#
#
# Mechanical properties :
#
#
# Convention : Reuss Voigt Hill
#
# Bulk Modulus (GPa) = 24.74411 25.15256 24.94833
# Shear Modulus (GPa) = 25.97586 26.12222 26.04904
#
# Velocity S-wave (km/s) = 3.42356 3.43319 3.42838
# Velocity P-wave (km/s) = 5.17616 5.20240 5.18930
#
# Compressibility (1/GPa) = 0.04041366
#
# Stress axis : x y z
#
# Youngs Moduli (GPa) = 55.39612 55.39612 62.53763
#
# Poissons Ratio (x) = 0.01919 0.17178
# Poissons Ratio (y) = 0.01919 0.17178
# Poissons Ratio (z) = 0.15217 0.15217
#
# Static dielectric constant tensor:
#      x y z
#    x 1.935020 0.000000 0.000000 
#    y 0.000000 1.935020 0.000000 
#    z 0.000000 0.000000 1.805840 
# 
# From -- ./inp_files/3736.got.cif
#   From: 2010.05.17/outbox.cif.g08.bks.cpg/sg154_2_cif.got.tgz:3736.got - 2010.05.20 10:41:43.
