data_PCOD9576791
_publ_section_title
;
Structure prediction by ZEFSAII (Michael W. Deem and Ramdas Pophale) SiO2 
 PCOD9576791
Probable space group: R 3 2
;
_chemical_formula_sum "Si O2"
_cell_formula_units_Z 108
_cell_length_a 22.251555
_cell_length_b 22.251555
_cell_length_c 14.672657
_cell_angle_alpha 90.000000
_cell_angle_beta 90.000000
_cell_angle_gamma 120.000000
_cell_volume 6291.585880
_symmetry_space_group_name_H-M "R 3 2"
_symmetry_group_IT_number 155
_symmetry_cell_setting 'hexagonal'
loop_
_space_group_symop_operation_xyz
x,y,z
-y,x-y,z
-x+y,-x,z
x-y,-y,-z
-x,-x+y,-z
y,x,-z
2/3+x,1/3+y,1/3+z
2/3-y,1/3+x-y,1/3+z
2/3-x+y,1/3-x,1/3+z
2/3+x-y,1/3-y,1/3-z
2/3-x,1/3-x+y,1/3-z
2/3+y,1/3+x,1/3-z
1/3+x,2/3+y,2/3+z
1/3-y,2/3+x-y,2/3+z
1/3-x+y,2/3-x,2/3+z
1/3+x-y,2/3-y,2/3-z
1/3-x,2/3-x+y,2/3-z
1/3+y,2/3+x,2/3-z
loop_
_atom_site_type_symbol
_atom_site_label
_atom_site_fract_x
_atom_site_fract_y
_atom_site_fract_z
Si Si1 0.635931 0.149773 0.972457
Si Si2 0.044666 0.309797 0.729298
Si Si3 0.171343 0.074003 0.456537
Si Si4 0.642955 0.942096 0.068326
Si Si5 0.734692 0.826247 0.267150
Si Si6 0.525321 0.515760 0.748124
O O1 0.600566 0.140951 0.874572
O O2 0.706266 0.225732 0.958013
O O3 0.660613 0.093615 0.978414
O O4 0.572215 0.126367 0.042691
O O5 0.051015 0.333334 0.833334
O O6 0.119388 0.336859 0.683636
O O7 0.010480 0.343814 0.666667
O O8 0.990040 0.227582 0.721446
O O9 0.244549 0.080346 0.433781
O O10 0.116645 0.000000 0.500000
O O11 0.637894 0.971228 0.166667
O O12 0.658605 0.880252 0.080254
O O13 0.695109 0.000000 0.000000
O O14 0.666667 0.801715 0.333334
O O15 0.706099 0.814029 0.164307
#
# Coordination Sequence:
#
# PCOD9576791 Si02
#       6
#    18  18  18  18  18  18
#     4  10  18  33  50  77 111 151 187 232 282 355
#     4  11  23  37  54  83 115 151 194 246 292 347
#     4  10  19  31  49  77 113 147 189 232 286 346
#     4  11  20  35  55  81 115 149 193 237 286 357
#     4  11  19  31  57  78 108 153 194 231 287 363
#     4  11  21  34  55  84 114 151 193 239 298 355
#
# _framework density 17.165783999999999
#
# number of rings (size 3 to 8) (size 9 to 14) (size 15 to 20)
#    0.000    1.333    6.667    2.500    2.333    0.667 
#    4.000    0.000    0.000    0.000    0.000    0.000 
#    0.000    0.000    0.000    0.500    0.000    0.000 
#
# Total GULP energy -200421.443169 kJ/mol
# GULP energy per Si atom -5567.262310 kJ/mol
# Density = 1.712671 g / cm^3
# Si number density = 17.165784 Si / 1000 Ang^3
#
#
#
# Elastic Constant Matrix: (Units=GPa)
#
#
# Indices 1 2 3 4 5 6 
#
# 1 53.7202 30.5981 36.3601 -3.3519 0.0001 0.0000
# 2 30.5981 53.7202 36.3601 3.3519 -0.0001 0.0000
# 3 36.3601 36.3601 104.4502 0.0000 0.0000 0.0000
# 4 -3.3519 3.3519 0.0000 23.2233 0.0000 -0.0001
# 5 0.0001 -0.0001 0.0000 0.0000 23.2233 -3.3519
# 6 0.0000 0.0000 0.0000 -0.0001 -3.3519 11.5610
#
#
#
# Elastic Compliance Matrix: (Units=1/GPa)
#
#
# Indices 1 2 3 4 5 6 
#
# 1 0.031043 -0.014095 -0.005900 0.006515 0.000000 0.000000
# 2 -0.014095 0.031043 -0.005900 -0.006515 0.000000 0.000000
# 3 -0.005900 -0.005900 0.013682 0.000000 0.000000 0.000000
# 4 0.006515 -0.006515 0.000000 0.044941 0.000000 0.000000
# 5 0.000000 0.000000 0.000000 0.000000 0.044941 0.013030
# 6 0.000000 0.000000 0.000000 0.000000 0.013030 0.090275
#
#
# Mechanical properties :
#
#
# Convention : Reuss Voigt Hill
#
# Bulk Modulus (GPa) = 41.70404 46.50304 44.10354
# Shear Modulus (GPa) = 15.83753 18.83966 17.33859
#
# Velocity S-wave (km/s) = 3.04076 3.31647 3.18160
# Velocity P-wave (km/s) = 6.05607 6.46642 6.26461
#
# Compressibility (1/GPa) = 0.02397849
#
# Stress axis : x y z
#
# Youngs Moduli (GPa) = 32.21352 32.21352 73.09139
#
# Poissons Ratio (x) = 0.45404 0.43122
# Poissons Ratio (y) = 0.45404 0.43122
# Poissons Ratio (z) = 0.19005 0.19005
#
# Static dielectric constant tensor:
#      x y z
#    x 1.666050 0.000000 0.000000 
#    y 0.000000 1.666050 0.000000 
#    z 0.000000 0.000000 1.591080 
# 
# From -- ./inp_files/4080.got.cif
#   From: 2010.05.17/outbox.cif.g08.bks.cpg/sg155_3_cif.got.tgz:4080.got - 2010.05.20 10:44:35.
