data_PCOD9576344
_publ_section_title
;
Structure prediction by ZEFSAII (Michael W. Deem and Ramdas Pophale) SiO2 
 PCOD9576344
Probable space group: P 32 1 2
;
_chemical_formula_sum "Si O2"
_cell_formula_units_Z 18
_cell_length_a 8.728866
_cell_length_b 8.728866
_cell_length_c 10.376760
_cell_angle_alpha 90.000000
_cell_angle_beta 90.000000
_cell_angle_gamma 120.000000
_cell_volume 684.712186
_symmetry_space_group_name_H-M "P 32 1 2"
_symmetry_group_IT_number 153
_symmetry_cell_setting 'hexagonal'
loop_
_space_group_symop_operation_xyz
x,y,z
-y,x-y,2/3+z
-x+y,-x,1/3+z
-y,-x,1/3-z
-x+y,y,2/3-z
x,x-y,-z
loop_
_atom_site_type_symbol
_atom_site_label
_atom_site_fract_x
_atom_site_fract_y
_atom_site_fract_z
Si Si1 0.011548 0.172735 0.037755
Si Si2 0.131578 0.511142 0.136962
Si Si3 0.850445 0.511046 0.629946
O O1 0.169109 0.357688 0.088268
O O2 0.901701 0.098300 0.166667
O O3 0.856377 0.167508 0.947282
O O4 0.072925 0.036463 0.000000
O O5 0.305566 0.694434 0.166667
O O6 0.994205 0.441854 0.255248
O O7 0.053956 0.526978 0.000000
O O8 0.661927 0.338074 0.666667
O O9 0.903808 0.451904 0.500000
#
# Coordination Sequence:
#
# PCOD9576344 Si02
#       3
#     6   6   6
#     4  10  23  45  74 112 154 202 264 330 393 471
#     4  11  26  47  76 115 160 210 269 333 404 481
#     4  11  23  46  81 119 164 216 263 325 405 484
#
# _framework density 26.288416999999999
#
# number of rings (size 3 to 8) (size 9 to 14) (size 15 to 20)
#    0.000    1.333    0.000    6.000    0.000   13.333 
#    0.000    3.333    0.000    0.000    0.000    0.000 
#    0.000    0.000    0.000    0.000    0.000    0.000 
#
# Total GULP energy -100450.615751 kJ/mol
# GULP energy per Si atom -5580.589764 kJ/mol
# Density = 2.622858 g / cm^3
# Si number density = 26.288417 Si / 1000 Ang^3
#
#
#
# Elastic Constant Matrix: (Units=GPa)
#
#
# Indices 1 2 3 4 5 6 
#
# 1 70230.4330********** 69.5493 0.1592********** 0.0076
# 2 **********70230.4330 69.5493 -0.159215724.2349 -0.0076
# 3 69.5493 69.5493 170.5793 0.0000 0.0000 0.0000
# 4 0.1592 -0.1592 0.0000 3570.6648 -0.000415724.2329
# 5 **********15724.2349 0.0000 -0.0004 3570.6652 0.1558
# 6 0.0076 -0.0076 0.000015724.2329 0.155870120.2240
#
#
#
# Elastic Compliance Matrix: (Units=1/GPa)
#
#
# Indices 1 2 3 4 5 6 
#
# 1 0.003340 0.002769 -0.002491 0.000000 0.002516 0.000000
# 2 0.002769 0.003340 -0.002491 0.000000 -0.002516 0.000000
# 3 -0.002491 -0.002491 0.007894 0.000000 0.000000 0.000000
# 4 0.000000 0.000000 0.000000 0.022443 0.000000 -0.005033
# 5 0.002516 -0.002516 0.000000 0.000000 0.022443 0.000000
# 6 0.000000 0.000000 0.000000 -0.005033 0.000000 0.001143
#
#
# Mechanical properties :
#
#
# Convention : Reuss Voigt Hill
#
# Bulk Modulus (GPa) = 98.53663 98.84186 98.68925
# Shear Modulus (GPa) = 73.08608 29485.80277 14779.44442
#
# Velocity S-wave (km/s) = 5.27845 106.02180 75.06158
# Velocity P-wave (km/s) = 8.64370 122.57722 86.89042
#
# Compressibility (1/GPa) = 0.01014851
#
# Stress axis : x y z
#
# Youngs Moduli (GPa) = 299.37089 299.37089 126.68551
#
# Poissons Ratio (x) = -0.82893 0.31556
# Poissons Ratio (y) = -0.82893 0.31556
# Poissons Ratio (z) = 0.74570 0.74570
#
# Static dielectric constant tensor:
#      x y z
#    x 1.962510 0.000000 0.000000 
#    y 0.000000 1.962510 0.000000 
#    z 0.000000 0.000000 2.209690 
# 
# From -- ./inp_files/2192.got.cif
#   From: 2010.05.17/outbox.cif.g08.bks.cpg/sg153_2_cif.got.tgz:2192.got - 2010.05.20 10:38:56.
