data_PCOD9576399
_publ_section_title
;
Structure prediction by ZEFSAII (Michael W. Deem and Ramdas Pophale) SiO2 
 PCOD9576399
Probable space group: P 32 2 1
;
_chemical_formula_sum "Si O2"
_cell_formula_units_Z 36
_cell_length_a 8.424918
_cell_length_b 8.424918
_cell_length_c 23.942931
_cell_angle_alpha 90.000000
_cell_angle_beta 90.000000
_cell_angle_gamma 120.000000
_cell_volume 1471.767847
_symmetry_space_group_name_H-M "P 32 2 1"
_symmetry_group_IT_number 154
_symmetry_cell_setting 'hexagonal'
loop_
_space_group_symop_operation_xyz
x,y,z
-y,x-y,2/3+z
-x+y,-x,1/3+z
x-y,-y,1/3-z
-x,-x+y,2/3-z
y,x,-z
loop_
_atom_site_type_symbol
_atom_site_label
_atom_site_fract_x
_atom_site_fract_y
_atom_site_fract_z
Si Si1 0.000000 0.661842 0.833334
Si Si2 0.706718 0.757985 0.807586
Si Si3 0.171489 0.000000 0.166667
Si Si4 0.518414 0.146167 0.244879
Si Si5 0.746391 0.693342 0.682080
Si Si6 0.346599 0.346599 0.000000
Si Si7 0.837976 0.837976 0.000000
Si Si8 0.943442 0.382887 0.235235
O O1 0.167662 0.862171 0.824156
O O2 0.979335 0.543996 0.778918
O O3 0.692684 0.676263 0.746860
O O4 0.543727 0.637954 0.850516
O O5 0.837378 0.977501 0.808079
O O6 0.229358 0.894398 0.121546
O O7 0.484758 0.148228 0.310315
O O8 0.720345 0.312707 0.229863
O O9 0.671401 0.821582 0.659508
O O10 0.963881 0.818271 0.672580
O O11 0.439225 0.448572 0.056564
O O12 0.730840 0.736463 0.055661
#
# Coordination Sequence:
#
# PCOD9576399 Si02
#       8
#     3   6   3   6   6   3   3   6
#     4   8  18  36  58  88 118 148 196 254 292 352
#     4  10  19  37  63  84 115 161 206 242 297 370
#     4  10  18  34  62  96 120 150 210 266 294 348
#     4  10  20  34  60  92 122 153 198 256 308 350
#     4  11  21  37  62  91 119 154 201 256 306 359
#     4  10  24  42  56  84 132 164 194 244 302 366
#     4  10  20  38  66  86 114 168 214 242 292 370
#     4  10  22  42  62  87 122 163 204 248 303 367
#
# _framework density 24.460380000000001
#
# number of rings (size 3 to 8) (size 9 to 14) (size 15 to 20)
#    0.000    2.000    0.000    6.000    0.000    2.667 
#    0.000   11.667    0.000    0.000    0.000    0.000 
#    0.000    0.000    0.000    0.000    0.000    0.000 
#
# Total GULP energy -200514.944140 kJ/mol
# GULP energy per Si atom -5569.859559 kJ/mol
# Density = 2.440471 g / cm^3
# Si number density = 24.460380 Si / 1000 Ang^3
#
#
#
# Elastic Constant Matrix: (Units=GPa)
#
#
# Indices 1 2 3 4 5 6 
#
# 1 87.6868 -1.4297 48.1731 0.9737 0.0000 0.0000
# 2 -1.4297 87.6868 48.1731 -0.9737 0.0000 0.0000
# 3 48.1731 48.1731 186.2103 0.0000 0.0000 0.0000
# 4 0.9737 -0.9737 0.0000 27.2078 0.0000 0.0000
# 5 0.0000 0.0000 0.0000 0.0000 27.2078 0.9737
# 6 0.0000 0.0000 0.0000 0.0000 0.9737 44.5583
#
#
#
# Elastic Compliance Matrix: (Units=1/GPa)
#
#
# Indices 1 2 3 4 5 6 
#
# 1 0.013767 0.002537 -0.004218 -0.000402 0.000000 0.000000
# 2 0.002537 0.013767 -0.004218 0.000402 0.000000 0.000000
# 3 -0.004218 -0.004218 0.007553 0.000000 0.000000 0.000000
# 4 -0.000402 0.000402 0.000000 0.036783 0.000000 0.000000
# 5 0.000000 0.000000 0.000000 0.000000 0.036783 -0.000804
# 6 0.000000 0.000000 0.000000 0.000000 -0.000804 0.022460
#
#
# Mechanical properties :
#
#
# Convention : Reuss Voigt Hill
#
# Bulk Modulus (GPa) = 42.93722 61.26856 52.10289
# Shear Modulus (GPa) = 33.18416 37.57260 35.37838
#
# Velocity S-wave (km/s) = 3.68727 3.92351 3.80722
# Velocity P-wave (km/s) = 5.97661 6.75483 6.37760
#
# Compressibility (1/GPa) = 0.02328982
#
# Stress axis : x y z
#
# Youngs Moduli (GPa) = 72.63554 72.63554 132.40253
#
# Poissons Ratio (x) = -0.18430 0.55848
# Poissons Ratio (y) = -0.18430 0.55848
# Poissons Ratio (z) = 0.30638 0.30638
#
# Static dielectric constant tensor:
#      x y z
#    x 1.595130 0.000000 0.000000 
#    y 0.000000 1.595130 0.000000 
#    z 0.000000 0.000000 1.751340 
# 
# From -- ./inp_files/3534.got.cif
#   From: 2010.05.17/outbox.cif.g08.bks.cpg/sg154_2_cif.got.tgz:3534.got - 2010.05.20 10:41:43.
