data_PCOD9576310
_publ_section_title
;
Structure prediction by ZEFSAII (Michael W. Deem and Ramdas Pophale) SiO2 
 PCOD9576310
Probable space group: P 32 1 2
;
_chemical_formula_sum "Si O2"
_cell_formula_units_Z 36
_cell_length_a 9.309573
_cell_length_b 9.309573
_cell_length_c 25.282544
_cell_angle_alpha 90.000000
_cell_angle_beta 90.000000
_cell_angle_gamma 120.000000
_cell_volume 1897.627332
_symmetry_space_group_name_H-M "P 32 1 2"
_symmetry_group_IT_number 153
_symmetry_cell_setting 'hexagonal'
loop_
_space_group_symop_operation_xyz
x,y,z
-y,x-y,2/3+z
-x+y,-x,1/3+z
-y,-x,1/3-z
-x+y,y,2/3-z
x,x-y,-z
loop_
_atom_site_type_symbol
_atom_site_label
_atom_site_fract_x
_atom_site_fract_y
_atom_site_fract_z
Si Si1 0.215089 0.430177 0.833334
Si Si2 0.379552 0.324033 0.920930
Si Si3 0.042389 0.432993 0.337400
Si Si4 0.311289 0.065078 0.353623
Si Si5 0.457596 0.440029 0.752305
Si Si6 0.126441 0.063221 0.000000
Si Si7 0.603901 0.164857 0.893299
O O1 0.286402 0.339012 0.869927
O O2 0.363515 0.504858 0.790310
O O3 0.241912 0.175831 0.954119
O O4 0.521516 0.277544 0.908350
O O5 0.445912 0.482643 0.959730
O O6 0.216718 0.433435 0.333334
O O7 0.885519 0.256174 0.322144
O O8 0.982956 0.455151 0.396302
O O9 0.408601 0.042700 0.401730
O O10 0.354028 0.992664 0.301522
O O11 0.116696 0.979518 0.357829
O O12 0.485043 0.289359 0.772705
O O13 0.551297 0.102593 0.833334
#
# Coordination Sequence:
#
# PCOD9576310 Si02
#       7
#     3   6   6   6   6   3   6
#     4  12  24  40  66  98 140 174 222 292 330 400
#     4  12  24  42  66  97 134 178 228 274 344 403
#     4  11  23  42  68  99 133 176 228 279 336 409
#     4  10  21  39  67  96 128 176 221 268 331 406
#     4  10  21  38  67  97 129 173 224 270 331 396
#     4  12  22  40  68  98 130 170 224 282 332 404
#     4  11  21  41  71  95 130 180 231 271 333 416
#
# _framework density 18.971057999999999
#
# number of rings (size 3 to 8) (size 9 to 14) (size 15 to 20)
#    0.000    1.000    7.500    0.000    0.000    1.333 
#    1.500    0.000    1.833    0.000    0.000    0.000 
#    0.000    0.000    0.000    0.000    0.000    0.000 
#
# Total GULP energy -200587.450737 kJ/mol
# GULP energy per Si atom -5571.873632 kJ/mol
# Density = 1.892788 g / cm^3
# Si number density = 18.971058 Si / 1000 Ang^3
#
#
#
# Elastic Constant Matrix: (Units=GPa)
#
#
# Indices 1 2 3 4 5 6 
#
# 1 99.0738 24.7613 48.1100 -0.0002 1.0692 0.0000
# 2 24.7613 99.0738 48.1100 0.0002 -1.0692 0.0000
# 3 48.1100 48.1100 117.8429 0.0000 0.0000 0.0000
# 4 -0.0002 0.0002 0.0000 20.3798 0.0000 -1.0692
# 5 1.0692 -1.0692 0.0000 0.0000 20.3798 -0.0002
# 6 0.0000 0.0000 0.0000 -1.0692 -0.0002 37.1563
#
#
#
# Elastic Compliance Matrix: (Units=1/GPa)
#
#
# Indices 1 2 3 4 5 6 
#
# 1 0.012652 -0.000825 -0.004828 0.000000 -0.000707 0.000000
# 2 -0.000825 0.012652 -0.004828 0.000000 0.000707 0.000000
# 3 -0.004828 -0.004828 0.012428 0.000000 0.000000 0.000000
# 4 0.000000 0.000000 0.000000 0.049142 0.000000 0.001414
# 5 -0.000707 0.000707 0.000000 0.000000 0.049142 0.000000
# 6 0.000000 0.000000 0.000000 0.001414 0.000000 0.026954
#
#
# Mechanical properties :
#
#
# Convention : Reuss Voigt Hill
#
# Bulk Modulus (GPa) = 59.63542 61.99478 60.81510
# Shear Modulus (GPa) = 26.38184 28.58378 27.48281
#
# Velocity S-wave (km/s) = 3.73317 3.88584 3.81027
# Velocity P-wave (km/s) = 7.07709 7.27204 7.17523
#
# Compressibility (1/GPa) = 0.01676856
#
# Stress axis : x y z
#
# Youngs Moduli (GPa) = 79.03894 79.03894 80.46127
#
# Poissons Ratio (x) = 0.06521 0.38850
# Poissons Ratio (y) = 0.06521 0.38850
# Poissons Ratio (z) = 0.38163 0.38163
#
# Static dielectric constant tensor:
#      x y z
#    x 1.658870 0.000000 0.000000 
#    y 0.000000 1.658870 0.000000 
#    z 0.000000 0.000000 1.734120 
# 
# From -- ./inp_files/4777.got.cif
#   From: 2010.05.17/outbox.cif.g08.bks.cpg/sg153_3_cif.got.tgz:4777.got - 2010.05.20 10:38:56.
