data_PCOD9576643
_publ_section_title
;
Structure prediction by ZEFSAII (Michael W. Deem and Ramdas Pophale) SiO2 
 PCOD9576643
Probable space group: P 32 2 1
;
_chemical_formula_sum "Si O2"
_cell_formula_units_Z 24
_cell_length_a 11.555656
_cell_length_b 11.555656
_cell_length_c 10.413462
_cell_angle_alpha 90.000000
_cell_angle_beta 90.000000
_cell_angle_gamma 120.000000
_cell_volume 1204.245350
_symmetry_space_group_name_H-M "P 32 2 1"
_symmetry_group_IT_number 154
_symmetry_cell_setting 'hexagonal'
loop_
_space_group_symop_operation_xyz
x,y,z
-y,x-y,2/3+z
-x+y,-x,1/3+z
x-y,-y,1/3-z
-x,-x+y,2/3-z
y,x,-z
loop_
_atom_site_type_symbol
_atom_site_label
_atom_site_fract_x
_atom_site_fract_y
_atom_site_fract_z
Si Si1 0.000000 0.231302 0.333334
Si Si2 0.000000 0.813252 0.833334
Si Si3 0.659986 0.086924 0.974921
Si Si4 0.459543 0.709195 0.589682
Si Si5 0.794666 0.531491 0.125280
O O1 0.874596 0.240589 0.386821
O O2 0.054119 0.174822 0.443593
O O3 0.936874 0.697979 0.726181
O O4 0.735377 0.201197 0.867086
O O5 0.566263 0.943913 0.908679
O O6 0.575352 0.131856 0.064341
O O7 0.315493 0.700454 0.587659
O O8 0.534677 0.778962 0.721519
#
# Coordination Sequence:
#
# PCOD9576643 Si02
#       5
#     3   3   6   6   6
#     4  10  24  46  68  88 134 180 214 274 316 394
#     4  10  24  48  66  94 128 176 218 268 330 386
#     4  10  23  40  64  96 133 164 221 268 326 390
#     4  10  23  39  67  99 129 176 217 272 327 399
#     4  10  23  41  66  96 137 175 219 269 334 386
#
# _framework density 19.929493000000001
#
# number of rings (size 3 to 8) (size 9 to 14) (size 15 to 20)
#    0.000    2.000    0.000    0.750   21.000    0.000 
#    9.000    0.000    0.000    0.000    0.000    0.000 
#    0.000    0.000    0.000    0.000    0.000    0.000 
#
# Total GULP energy -134065.907154 kJ/mol
# GULP energy per Si atom -5586.079465 kJ/mol
# Density = 1.988413 g / cm^3
# Si number density = 19.929493 Si / 1000 Ang^3
#
#
#
# Elastic Constant Matrix: (Units=GPa)
#
#
# Indices 1 2 3 4 5 6 
#
# 1 58.0977 37.5491 8.6329 4.2385 0.0003 0.0000
# 2 37.5491 58.0977 8.6329 -4.2385 -0.0003 0.0000
# 3 8.6329 8.6329 52.6580 0.0000 0.0000 0.0000
# 4 4.2385 -4.2385 0.0000 30.6154 0.0000 -0.0003
# 5 0.0003 -0.0003 0.0000 0.0000 30.6154 4.2385
# 6 0.0000 0.0000 0.0000 -0.0003 4.2385 10.2743
#
#
#
# Elastic Compliance Matrix: (Units=1/GPa)
#
#
# Indices 1 2 3 4 5 6 
#
# 1 0.031193 -0.020420 -0.001766 -0.007145 0.000000 0.000000
# 2 -0.020420 0.031193 -0.001766 0.007145 0.000000 0.000000
# 3 -0.001766 -0.001766 0.019570 0.000000 0.000000 0.000000
# 4 -0.007145 0.007145 0.000000 0.034642 0.000000 0.000001
# 5 0.000000 0.000000 0.000000 0.000000 0.034642 -0.014291
# 6 0.000000 0.000000 0.000000 0.000001 -0.014291 0.103226
#
#
# Mechanical properties :
#
#
# Convention : Reuss Voigt Hill
#
# Bulk Modulus (GPa) = 29.36656 30.94257 30.15457
# Shear Modulus (GPa) = 15.93772 21.90357 18.92064
#
# Velocity S-wave (km/s) = 2.83097 3.31879 3.08454
# Velocity P-wave (km/s) = 5.04511 5.49960 5.27725
#
# Compressibility (1/GPa) = 0.03405233
#
# Stress axis : x y z
#
# Youngs Moduli (GPa) = 32.05797 32.05797 51.09960
#
# Poissons Ratio (x) = 0.65461 0.09026
# Poissons Ratio (y) = 0.65461 0.09026
# Poissons Ratio (z) = 0.05662 0.05662
#
# Static dielectric constant tensor:
#      x y z
#    x 1.683060 0.000000 0.000000 
#    y 0.000000 1.683060 0.000000 
#    z 0.000000 0.000000 1.742740 
# 
# From -- ./inp_files/1613.got.cif
#   From: 2010.05.17/outbox.cif.g08.bks.cpg/sg154_1_cif.got.tgz:1613.got - 2010.05.20 10:41:43.
