data_PCOD9576516
_publ_section_title
;
Structure prediction by ZEFSAII (Michael W. Deem and Ramdas Pophale) SiO2 
 PCOD9576516
Probable space group: P 32 2 1
;
_chemical_formula_sum "Si O2"
_cell_formula_units_Z 39
_cell_length_a 8.672332
_cell_length_b 8.672332
_cell_length_c 29.391493
_cell_angle_alpha 90.000000
_cell_angle_beta 90.000000
_cell_angle_gamma 120.000000
_cell_volume 1914.362023
_symmetry_space_group_name_H-M "P 32 2 1"
_symmetry_group_IT_number 154
_symmetry_cell_setting 'hexagonal'
loop_
_space_group_symop_operation_xyz
x,y,z
-y,x-y,2/3+z
-x+y,-x,1/3+z
x-y,-y,1/3-z
-x,-x+y,2/3-z
y,x,-z
loop_
_atom_site_type_symbol
_atom_site_label
_atom_site_fract_x
_atom_site_fract_y
_atom_site_fract_z
Si Si1 0.204198 0.942276 0.747196
Si Si2 0.461834 0.000000 0.666667
Si Si3 0.479275 0.219320 0.064593
Si Si4 0.526054 0.475716 0.232371
Si Si5 0.153992 0.804744 0.944038
Si Si6 0.509967 0.199866 0.808016
Si Si7 0.862260 0.119986 0.951784
O O1 0.308402 0.913324 0.705237
O O2 0.013247 0.771814 0.754609
O O3 0.336548 0.021349 0.789754
O O4 0.165917 0.098095 0.731533
O O5 0.499012 0.861995 0.639772
O O6 0.627429 0.166725 0.052848
O O7 0.540980 0.323709 0.112513
O O8 0.284904 0.048064 0.064473
O O9 0.625003 0.659952 0.259674
O O10 0.651347 0.464519 0.194427
O O11 0.364492 0.483792 0.206341
O O12 0.436261 0.304852 0.264901
O O13 0.118732 0.854474 0.993848
#
# Coordination Sequence:
#
# PCOD9576516 Si02
#       7
#     6   3   6   6   6   6   6
#     4  10  21  39  65  85 129 159 200 254 313 363
#     4  10  20  40  56  86 126 162 192 256 300 366
#     4  10  24  37  61  89 125 159 213 245 312 371
#     4  10  23  42  63  84 129 157 210 253 306 375
#     4  11  22  39  62  94 121 160 203 257 313 367
#     4   9  22  44  59  88 118 171 201 252 310 366
#     4  11  22  40  61  94 124 161 200 263 309 370
#
# _framework density 20.372320999999999
#
# number of rings (size 3 to 8) (size 9 to 14) (size 15 to 20)
#    0.000    1.846    1.538    1.846    4.308    3.692 
#    5.538    6.154    0.000    0.000    0.000    0.000 
#    0.000    0.000    0.000    0.000    0.000    0.000 
#
# Total GULP energy -218041.897520 kJ/mol
# GULP energy per Si atom -5590.817885 kJ/mol
# Density = 2.032595 g / cm^3
# Si number density = 20.372321 Si / 1000 Ang^3
#
#
#
# Elastic Constant Matrix: (Units=GPa)
#
#
# Indices 1 2 3 4 5 6 
#
# 1 83.7795 19.2025 3.6919 3.0047 0.0001 0.0000
# 2 19.2025 83.7795 3.6919 -3.0047 -0.0001 0.0000
# 3 3.6919 3.6919 13.2420 0.0000 0.0000 0.0000
# 4 3.0047 -3.0047 0.0000 14.9058 0.0000 -0.0001
# 5 0.0001 -0.0001 0.0000 0.0000 14.9058 3.0047
# 6 0.0000 0.0000 0.0000 -0.0001 3.0047 32.2885
#
#
#
# Elastic Compliance Matrix: (Units=1/GPa)
#
#
# Indices 1 2 3 4 5 6 
#
# 1 0.012845 -0.002936 -0.002762 -0.003181 0.000000 0.000000
# 2 -0.002936 0.012845 -0.002762 0.003181 0.000000 0.000000
# 3 -0.002762 -0.002762 0.077058 0.000000 0.000000 0.000000
# 4 -0.003181 0.003181 0.000000 0.068371 0.000000 0.000000
# 5 0.000000 0.000000 0.000000 0.000000 0.068371 -0.006362
# 6 0.000000 0.000000 0.000000 0.000000 -0.006362 0.031563
#
#
# Mechanical properties :
#
#
# Convention : Reuss Voigt Hill
#
# Bulk Modulus (GPa) = 11.65166 25.99707 18.82436
# Shear Modulus (GPa) = 15.79366 22.70100 19.24733
#
# Velocity S-wave (km/s) = 2.78735 3.34174 3.07706
# Velocity P-wave (km/s) = 4.01135 5.26102 4.67810
#
# Compressibility (1/GPa) = 0.08582468
#
# Stress axis : x y z
#
# Youngs Moduli (GPa) = 77.85155 77.85155 12.97729
#
# Poissons Ratio (x) = 0.22861 0.03585
# Poissons Ratio (y) = 0.22861 0.03585
# Poissons Ratio (z) = 0.21506 0.21506
#
# Static dielectric constant tensor:
#      x y z
#    x 1.731840 0.000000 0.000000 
#    y 0.000000 1.731840 0.000000 
#    z 0.000000 0.000000 1.701370 
# 
# From -- ./inp_files/3697.got.cif
#   From: 2010.05.17/outbox.cif.g08.bks.cpg/sg154_2_cif.got.tgz:3697.got - 2010.05.20 10:41:43.
