data_PCOD9576850
_publ_section_title
;
Structure prediction by ZEFSAII (Michael W. Deem and Ramdas Pophale) SiO2 
 PCOD9576850
Probable space group: R 3 2
;
_chemical_formula_sum "Si O2"
_cell_formula_units_Z 69
_cell_length_a 21.794720
_cell_length_b 21.794720
_cell_length_c 10.525254
_cell_angle_alpha 90.000000
_cell_angle_beta 90.000000
_cell_angle_gamma 120.000000
_cell_volume 4329.779749
_symmetry_space_group_name_H-M "R 3 2"
_symmetry_group_IT_number 155
_symmetry_cell_setting 'hexagonal'
loop_
_space_group_symop_operation_xyz
x,y,z
-y,x-y,z
-x+y,-x,z
x-y,-y,-z
-x,-x+y,-z
y,x,-z
2/3+x,1/3+y,1/3+z
2/3-y,1/3+x-y,1/3+z
2/3-x+y,1/3-x,1/3+z
2/3+x-y,1/3-y,1/3-z
2/3-x,1/3-x+y,1/3-z
2/3+y,1/3+x,1/3-z
1/3+x,2/3+y,2/3+z
1/3-y,2/3+x-y,2/3+z
1/3-x+y,2/3-x,2/3+z
1/3+x-y,2/3-y,2/3-z
1/3-x,2/3-x+y,2/3-z
1/3+y,2/3+x,2/3-z
loop_
_atom_site_type_symbol
_atom_site_label
_atom_site_fract_x
_atom_site_fract_y
_atom_site_fract_z
Si Si1 0.588253 0.450877 0.871501
Si Si2 0.534557 0.315608 0.039407
Si Si3 0.336977 0.419908 0.516866
Si Si4 0.333333 0.666667 0.514524
Si Si5 0.333334 0.203221 0.666667
O O1 0.666667 0.512883 0.833334
O O2 0.565365 0.403798 0.743750
O O3 0.533425 0.473450 0.927588
O O4 0.582200 0.393879 0.977147
O O5 0.471268 0.310201 0.123203
O O6 0.588118 0.303107 0.123978
O O7 0.391858 0.391858 0.500000
O O8 0.333334 0.426094 0.666667
O O9 0.264568 0.366592 0.441307
O O10 0.333334 0.666668 0.666667
#
# Coordination Sequence:
#
# PCOD9576850 Si02
#       5
#    18  18  18   6   9
#     4  10  19  35  58  79 111 143 193 239 284 354
#     4  10  21  33  54  84 110 154 188 231 297 349
#     4  11  20  34  53  80 118 150 183 240 296 342
#     4  12  21  34  50  82 123 150 196 242 280 354
#     4  10  22  34  56  90 108 146 204 238 288 360
#
# _framework density 15.936145
#
# number of rings (size 3 to 8) (size 9 to 14) (size 15 to 20)
#    0.000    1.565    3.913    2.348    3.652    0.000 
#    0.000    0.000    0.000    4.696    0.000    0.000 
#    0.000    0.000    0.000    0.000    0.000    0.000 
#
# Total GULP energy -128036.830506 kJ/mol
# GULP energy per Si atom -5566.818718 kJ/mol
# Density = 1.589987 g / cm^3
# Si number density = 15.936145 Si / 1000 Ang^3
#
#
#
# Elastic Constant Matrix: (Units=GPa)
#
#
# Indices 1 2 3 4 5 6 
#
# 1 108.4799 59.3783 64.7058 -2.3345 -0.0006 0.0000
# 2 59.3783 108.4803 64.7063 2.3345 0.0007 0.0001
# 3 64.7058 64.7063 147.1813 0.0001 0.0002 0.0001
# 4 -2.3345 2.3345 0.0001 25.5887 0.0000 0.0006
# 5 -0.0006 0.0007 0.0002 0.0000 25.5887 -2.3345
# 6 0.0000 0.0001 0.0001 0.0006 -2.3345 24.5509
#
#
#
# Elastic Compliance Matrix: (Units=1/GPa)
#
#
# Indices 1 2 3 4 5 6 
#
# 1 0.014778 -0.005766 -0.003962 0.001874 0.000001 0.000000
# 2 -0.005766 0.014778 -0.003962 -0.001874 0.000000 0.000000
# 3 -0.003962 -0.003962 0.010278 0.000000 0.000000 0.000000
# 4 0.001874 -0.001874 0.000000 0.039422 0.000000 -0.000001
# 5 0.000001 0.000000 0.000000 0.000000 0.039422 0.003748
# 6 0.000000 0.000000 0.000000 -0.000001 0.003748 0.041088
#
#
# Mechanical properties :
#
#
# Convention : Reuss Voigt Hill
#
# Bulk Modulus (GPa) = 80.29560 82.41357 81.35459
# Shear Modulus (GPa) = 26.13739 26.83574 26.48657
#
# Velocity S-wave (km/s) = 4.05425 4.10805 4.08124
# Velocity P-wave (km/s) = 8.50947 8.62140 8.56562
#
# Compressibility (1/GPa) = 0.01245398
#
# Stress axis : x y z
#
# Youngs Moduli (GPa) = 67.66823 67.66822 97.29554
#
# Poissons Ratio (x) = 0.39018 0.38548
# Poissons Ratio (y) = 0.39018 0.38548
# Poissons Ratio (z) = 0.26810 0.26810
#
# Static dielectric constant tensor:
#      x y z
#    x 1.519110 0.000000 0.000000 
#    y 0.000000 1.519110 0.000000 
#    z 0.000000 0.000000 1.462390 
# 
# From -- ./inp_files/2180.got.cif
#   From: 2010.05.17/outbox.cif.g08.bks.cpg/sg155_2_cif.got.tgz:2180.got - 2010.05.20 10:44:35.
