data_PCOD9576237
_publ_section_title
;
Structure prediction by ZEFSAII (Michael W. Deem and Ramdas Pophale) SiO2 
 PCOD9576237
Probable space group: P 32 1 2
;
_chemical_formula_sum "Si O2"
_cell_formula_units_Z 30
_cell_length_a 15.504043
_cell_length_b 15.504043
_cell_length_c 8.244974
_cell_angle_alpha 90.000000
_cell_angle_beta 90.000000
_cell_angle_gamma 120.000000
_cell_volume 1716.365793
_symmetry_space_group_name_H-M "P 32 1 2"
_symmetry_group_IT_number 153
_symmetry_cell_setting 'hexagonal'
loop_
_space_group_symop_operation_xyz
x,y,z
-y,x-y,2/3+z
-x+y,-x,1/3+z
-y,-x,1/3-z
-x+y,y,2/3-z
x,x-y,-z
loop_
_atom_site_type_symbol
_atom_site_label
_atom_site_fract_x
_atom_site_fract_y
_atom_site_fract_z
Si Si1 0.246259 0.370264 0.487026
Si Si2 0.193840 0.606327 0.685418
Si Si3 0.578955 0.157910 0.333334
Si Si4 0.218017 0.436034 0.833334
Si Si5 0.702402 0.096509 0.117779
Si Si6 0.791569 0.293672 0.500675
O O1 0.171766 0.343532 0.333334
O O2 0.333970 0.482353 0.441869
O O3 0.208286 0.376898 0.666799
O O4 0.296909 0.302537 0.491147
O O5 0.311520 0.688481 0.666667
O O6 0.156030 0.578015 0.500000
O O7 0.177795 0.510916 0.784070
O O8 0.609050 0.099042 0.204904
O O9 0.685793 0.230287 0.410908
O O10 0.806013 0.193988 0.166667
O O11 0.698048 0.115275 0.927652
O O12 0.766055 0.233946 0.666667
O O13 0.808067 0.404034 0.500000
#
# Coordination Sequence:
#
# PCOD9576237 Si02
#       6
#     6   6   3   3   6   6
#     4  11  24  40  57  84 117 156 198 251 300 347
#     4  11  18  32  53  79 119 160 192 225 279 340
#     4  10  18  32  54  80 120 158 186 232 284 336
#     4  12  20  36  58  80 120 160 196 236 286 356
#     4  10  23  39  55  85 118 153 197 245 295 347
#     4  11  17  32  54  80 119 162 194 228 278 347
#
# _framework density 17.478791999999999
#
# number of rings (size 3 to 8) (size 9 to 14) (size 15 to 20)
#    0.000    1.200    8.000    1.200    2.800    0.800 
#    7.200    0.000    0.000    0.000    2.600    0.000 
#    0.000    0.000    0.000    0.000    0.000    0.000 
#
# Total GULP energy -167113.160165 kJ/mol
# GULP energy per Si atom -5570.438672 kJ/mol
# Density = 1.743901 g / cm^3
# Si number density = 17.478792 Si / 1000 Ang^3
#
#
#
# Elastic Constant Matrix: (Units=GPa)
#
#
# Indices 1 2 3 4 5 6 
#
# 1 50.4592 24.4402 23.1112 0.0001 2.1204 0.0000
# 2 24.4402 50.4592 23.1112 -0.0001 -2.1204 0.0000
# 3 23.1112 23.1112 118.4733 0.0000 0.0000 0.0000
# 4 0.0001 -0.0001 0.0000 21.9172 0.0000 -2.1204
# 5 2.1204 -2.1204 0.0000 0.0000 21.9172 0.0001
# 6 0.0000 0.0000 0.0000 -2.1204 0.0001 13.0095
#
#
#
# Elastic Compliance Matrix: (Units=1/GPa)
#
#
# Indices 1 2 3 4 5 6 
#
# 1 0.027114 -0.011935 -0.002961 0.000000 -0.003778 0.000000
# 2 -0.011935 0.027114 -0.002961 0.000000 0.003778 0.000000
# 3 -0.002961 -0.002961 0.009596 0.000000 0.000000 0.000000
# 4 0.000000 0.000000 0.000000 0.046357 0.000000 0.007556
# 5 -0.003778 0.003778 0.000000 0.000000 0.046357 0.000000
# 6 0.000000 0.000000 0.000000 0.007556 0.000000 0.078098
#
#
# Mechanical properties :
#
#
# Convention : Reuss Voigt Hill
#
# Bulk Modulus (GPa) = 35.57557 40.07965 37.82761
# Shear Modulus (GPa) = 17.87499 21.28407 19.57953
#
# Velocity S-wave (km/s) = 3.20139 3.49335 3.35055
# Velocity P-wave (km/s) = 5.83634 6.26511 6.05452
#
# Compressibility (1/GPa) = 0.02810918
#
# Stress axis : x y z
#
# Youngs Moduli (GPa) = 36.88152 36.88152 104.21080
#
# Poissons Ratio (x) = 0.44019 0.30856
# Poissons Ratio (y) = 0.44019 0.30856
# Poissons Ratio (z) = 0.10920 0.10920
#
# Static dielectric constant tensor:
#      x y z
#    x 1.588140 0.000000 0.000000 
#    y 0.000000 1.588140 0.000000 
#    z 0.000000 0.000000 1.697850 
# 
# From -- ./inp_files/1596.got.cif
#   From: 2010.05.17/outbox.cif.g08.bks.cpg/sg153_1_cif.got.tgz:1596.got - 2010.05.20 10:38:56.
