data_PCOD9576555
_publ_section_title
;
Structure prediction by ZEFSAII (Michael W. Deem and Ramdas Pophale) SiO2 
 PCOD9576555
Probable space group: P 32 2 1
;
_chemical_formula_sum "Si O2"
_cell_formula_units_Z 30
_cell_length_a 8.606865
_cell_length_b 8.606865
_cell_length_c 22.269235
_cell_angle_alpha 90.000000
_cell_angle_beta 90.000000
_cell_angle_gamma 120.000000
_cell_volume 1428.650219
_symmetry_space_group_name_H-M "P 32 2 1"
_symmetry_group_IT_number 154
_symmetry_cell_setting 'hexagonal'
loop_
_space_group_symop_operation_xyz
x,y,z
-y,x-y,2/3+z
-x+y,-x,1/3+z
x-y,-y,1/3-z
-x,-x+y,2/3-z
y,x,-z
loop_
_atom_site_type_symbol
_atom_site_label
_atom_site_fract_x
_atom_site_fract_y
_atom_site_fract_z
Si Si1 0.000000 0.432392 0.833334
Si Si2 0.747859 0.375306 0.542760
Si Si3 0.984721 0.494107 0.422830
Si Si4 0.688664 0.557208 0.378020
Si Si5 0.773721 0.773721 0.000000
Si Si6 0.857663 0.629518 0.659094
O O1 0.182831 0.605838 0.812749
O O2 0.059073 0.359416 0.889694
O O3 0.880500 0.426195 0.486340
O O4 0.831947 0.516208 0.597621
O O5 0.671080 0.174474 0.565601
O O6 0.854396 0.524567 0.377950
O O7 0.016460 0.345585 0.391177
O O8 0.506533 0.365685 0.374887
O O9 0.665054 0.691420 0.334377
O O10 0.962936 0.782196 0.006661
#
# Coordination Sequence:
#
# PCOD9576555 Si02
#       6
#     3   6   6   6   3   6
#     4   8  18  38  60  84 116 154 200 248 298 352
#     4  10  21  39  63  88 120 162 204 252 309 368
#     4  11  22  40  64  91 125 164 205 252 310 370
#     4  10  21  40  64  89 123 165 205 255 306 364
#     4  12  24  38  58  90 126 164 210 256 304 366
#     4  11  23  40  62  90 123 163 209 257 308 363
#
# _framework density 20.998843000000001
#
# number of rings (size 3 to 8) (size 9 to 14) (size 15 to 20)
#    0.000    1.600    0.000    6.000    0.000    4.000 
#    0.000    2.000    0.000    4.800    0.000    0.000 
#    0.000    0.000    0.000    0.000    0.000    0.000 
#
# Total GULP energy -167384.532250 kJ/mol
# GULP energy per Si atom -5579.484408 kJ/mol
# Density = 2.095105 g / cm^3
# Si number density = 20.998843 Si / 1000 Ang^3
#
#
#
# Elastic Constant Matrix: (Units=GPa)
#
#
# Indices 1 2 3 4 5 6 
#
# 1 143.2385 74.5109 29.0910 -3.6103 0.0001 0.0000
# 2 74.5109 143.2385 29.0910 3.6103 -0.0001 0.0000
# 3 29.0910 29.0910 60.6759 0.0000 0.0000 0.0000
# 4 -3.6103 3.6103 0.0000 29.3453 0.0000 -0.0001
# 5 0.0001 -0.0001 0.0000 0.0000 29.3453 -3.6103
# 6 0.0000 0.0000 0.0000 -0.0001 -3.6103 34.3638
#
#
#
# Elastic Compliance Matrix: (Units=1/GPa)
#
#
# Indices 1 2 3 4 5 6 
#
# 1 0.010004 -0.004737 -0.002525 0.001814 0.000000 0.000000
# 2 -0.004737 0.010004 -0.002525 -0.001814 0.000000 0.000000
# 3 -0.002525 -0.002525 0.018903 0.000000 0.000000 0.000000
# 4 0.001814 -0.001814 0.000000 0.034523 0.000000 0.000000
# 5 0.000000 0.000000 0.000000 0.000000 0.034523 0.003627
# 6 0.000000 0.000000 0.000000 0.000000 0.003627 0.029481
#
#
# Mechanical properties :
#
#
# Convention : Reuss Voigt Hill
#
# Bulk Modulus (GPa) = 51.71823 68.05986 59.88905
# Shear Modulus (GPa) = 30.58877 32.90819 31.74848
#
# Velocity S-wave (km/s) = 3.82080 3.96301 3.89255
# Velocity P-wave (km/s) = 6.64434 7.30905 6.98461
#
# Compressibility (1/GPa) = 0.01933554
#
# Stress axis : x y z
#
# Youngs Moduli (GPa) = 99.96031 99.96031 52.90290
#
# Poissons Ratio (x) = 0.47349 0.13360
# Poissons Ratio (y) = 0.47349 0.13360
# Poissons Ratio (z) = 0.25244 0.25244
#
# Static dielectric constant tensor:
#      x y z
#    x 1.757950 0.000000 0.000000 
#    y 0.000000 1.757950 0.000000 
#    z 0.000000 0.000000 1.840550 
# 
# From -- ./inp_files/3118.got.cif
#   From: 2010.05.17/outbox.cif.g08.bks.cpg/sg154_2_cif.got.tgz:3118.got - 2010.05.20 10:41:43.
