data_PCOD9576251
_publ_section_title
;
Structure prediction by ZEFSAII (Michael W. Deem and Ramdas Pophale) SiO2 
 PCOD9576251
Probable space group: P 32 1 2
;
_chemical_formula_sum "Si O2"
_cell_formula_units_Z 24
_cell_length_a 14.558220
_cell_length_b 14.558220
_cell_length_c 7.756828
_cell_angle_alpha 90.000000
_cell_angle_beta 90.000000
_cell_angle_gamma 120.000000
_cell_volume 1423.742172
_symmetry_space_group_name_H-M "P 32 1 2"
_symmetry_group_IT_number 153
_symmetry_cell_setting 'hexagonal'
loop_
_space_group_symop_operation_xyz
x,y,z
-y,x-y,2/3+z
-x+y,-x,1/3+z
-y,-x,1/3-z
-x+y,y,2/3-z
x,x-y,-z
loop_
_atom_site_type_symbol
_atom_site_label
_atom_site_fract_x
_atom_site_fract_y
_atom_site_fract_z
Si Si1 0.581785 0.290893 0.000000
Si Si2 0.456427 0.096781 0.229173
Si Si3 0.749437 0.776604 0.443887
Si Si4 0.353021 0.176511 0.500000
Si Si5 0.973178 0.152232 0.403654
O O1 0.649774 0.299548 0.833334
O O2 0.512684 0.342211 0.935697
O O3 0.533586 0.067171 0.333334
O O4 0.426590 0.163987 0.361261
O O5 0.341933 0.007341 0.165128
O O6 0.709656 0.854828 0.500000
O O7 0.777629 0.789408 0.242177
O O8 0.862953 0.815887 0.541422
O O9 0.272082 0.066012 0.594970
O O10 0.065228 0.130455 0.333334
#
# Coordination Sequence:
#
# PCOD9576251 Si02
#       5
#     3   6   6   3   6
#     4  12  22  38  56  86 116 150 190 228 290 354
#     4  11  21  36  55  78 111 151 190 236 283 331
#     4  10  22  34  50  79 111 146 192 227 271 336
#     4  10  20  34  50  82 108 144 192 224 276 342
#     4  10  19  32  52  78 115 147 176 220 281 348
#
# _framework density 16.856983
#
# number of rings (size 3 to 8) (size 9 to 14) (size 15 to 20)
#    0.000    1.500    1.250    7.500    5.250    0.000 
#    0.000    0.000    0.000    0.000    0.000    7.000 
#    0.000    0.000    0.000    0.000    0.000    0.000 
#
# Total GULP energy -133941.146508 kJ/mol
# GULP energy per Si atom -5580.881105 kJ/mol
# Density = 1.681862 g / cm^3
# Si number density = 16.856983 Si / 1000 Ang^3
#
#
#
# Elastic Constant Matrix: (Units=GPa)
#
#
# Indices 1 2 3 4 5 6 
#
# 1 102.1707 50.3860 38.6803 -0.0002 1.9982 0.0000
# 2 50.3860 102.1707 38.6803 0.0002 -1.9982 0.0000
# 3 38.6803 38.6803 109.4989 0.0000 0.0000 0.0000
# 4 -0.0002 0.0002 0.0000 17.2689 0.0000 -1.9982
# 5 1.9982 -1.9982 0.0000 0.0000 17.2689 -0.0002
# 6 0.0000 0.0000 0.0000 -1.9982 -0.0002 25.8923
#
#
#
# Elastic Compliance Matrix: (Units=1/GPa)
#
#
# Indices 1 2 3 4 5 6 
#
# 1 0.013735 -0.005750 -0.002821 0.000000 -0.002255 0.000000
# 2 -0.005750 0.013735 -0.002821 0.000000 0.002255 0.000000
# 3 -0.002821 -0.002821 0.011125 0.000000 0.000000 0.000000
# 4 0.000000 0.000000 0.000000 0.058429 0.000000 0.004509
# 5 -0.002255 0.002255 0.000000 0.000000 0.058429 0.000000
# 6 0.000000 0.000000 0.000000 0.004509 0.000000 0.038969
#
#
# Mechanical properties :
#
#
# Convention : Reuss Voigt Hill
#
# Bulk Modulus (GPa) = 63.23966 63.25930 63.24948
# Shear Modulus (GPa) = 22.47423 24.49228 23.48326
#
# Velocity S-wave (km/s) = 3.65530 3.81589 3.73646
# Velocity P-wave (km/s) = 7.44391 7.55137 7.49783
#
# Compressibility (1/GPa) = 0.01581286
#
# Stress axis : x y z
#
# Youngs Moduli (GPa) = 72.80646 72.80646 89.88430
#
# Poissons Ratio (x) = 0.41861 0.25355
# Poissons Ratio (y) = 0.41861 0.25355
# Poissons Ratio (z) = 0.20537 0.20537
#
# Static dielectric constant tensor:
#      x y z
#    x 1.578420 0.000000 0.000000 
#    y 0.000000 1.578420 0.000000 
#    z 0.000000 0.000000 1.630160 
# 
# From -- ./inp_files/1470.got.cif
#   From: 2010.05.17/outbox.cif.g08.bks.cpg/sg153_1_cif.got.tgz:1470.got - 2010.05.20 10:38:56.
