data_PCOD9576504
_publ_section_title
;
Structure prediction by ZEFSAII (Michael W. Deem and Ramdas Pophale) SiO2 
 PCOD9576504
Probable space group: P 32 2 1
;
_chemical_formula_sum "Si O2"
_cell_formula_units_Z 36
_cell_length_a 7.613872
_cell_length_b 7.613872
_cell_length_c 28.406634
_cell_angle_alpha 90.000000
_cell_angle_beta 90.000000
_cell_angle_gamma 120.000000
_cell_volume 1426.137994
_symmetry_space_group_name_H-M "P 32 2 1"
_symmetry_group_IT_number 154
_symmetry_cell_setting 'hexagonal'
loop_
_space_group_symop_operation_xyz
x,y,z
-y,x-y,2/3+z
-x+y,-x,1/3+z
x-y,-y,1/3-z
-x,-x+y,2/3-z
y,x,-z
loop_
_atom_site_type_symbol
_atom_site_label
_atom_site_fract_x
_atom_site_fract_y
_atom_site_fract_z
Si Si1 0.917124 0.756022 0.400347
Si Si2 0.640102 0.301568 0.389924
Si Si3 0.093992 0.000000 0.166667
Si Si4 0.092085 0.405416 0.194233
Si Si5 0.452387 0.724409 0.765766
Si Si6 0.099844 0.000000 0.666667
Si Si7 0.109278 0.641995 0.703817
O O1 0.815896 0.533030 0.377601
O O2 0.843268 0.761259 0.453821
O O3 0.154155 0.823762 0.406480
O O4 0.883471 0.906967 0.367545
O O5 0.724185 0.252658 0.436262
O O6 0.458670 0.348566 0.393786
O O7 0.592199 0.135623 0.350011
O O8 0.878845 0.814059 0.149365
O O9 0.144126 0.524503 0.144898
O O10 0.898152 0.407378 0.214745
O O11 0.264663 0.598920 0.732063
O O12 0.166265 0.874106 0.699556
#
# Coordination Sequence:
#
# PCOD9576504 Si02
#       7
#     6   6   3   6   6   3   6
#     4  10  21  39  63  89 126 167 212 265 322 382
#     4  11  25  42  61  93 129 166 212 268 326 384
#     4  10  20  38  66  94 126 172 216 264 326 386
#     4  10  23  41  64  94 129 168 214 263 319 384
#     4  10  23  41  63  93 128 167 210 263 316 380
#     4  12  22  40  68  94 124 170 218 262 320 392
#     4  12  25  41  64  92 127 167 213 266 324 389
#
# _framework density 25.242999999999999
#
# number of rings (size 3 to 8) (size 9 to 14) (size 15 to 20)
#    0.000    1.333    0.000    6.000    0.000   10.000 
#    0.000    0.000    0.000    0.000    0.000    0.000 
#    0.000    0.000    0.000    0.000    0.000    0.000 
#
# Total GULP energy -201496.266423 kJ/mol
# GULP energy per Si atom -5597.118512 kJ/mol
# Density = 2.518555 g / cm^3
# Si number density = 25.243000 Si / 1000 Ang^3
#
#
#
# Elastic Constant Matrix: (Units=GPa)
#
#
# Indices 1 2 3 4 5 6 
#
# 1 88.8852 20.9358 31.2824 4.6823 -0.0001 0.0000
# 2 20.9358 88.8852 31.2824 -4.6823 0.0001 0.0000
# 3 31.2824 31.2824 86.3970 0.0000 0.0000 0.0000
# 4 4.6823 -4.6823 0.0000 39.0439 0.0000 0.0001
# 5 -0.0001 0.0001 0.0000 0.0000 39.0439 4.6823
# 6 0.0000 0.0000 0.0000 0.0001 4.6823 33.9747
#
#
#
# Elastic Compliance Matrix: (Units=1/GPa)
#
#
# Indices 1 2 3 4 5 6 
#
# 1 0.013218 -0.001746 -0.004154 -0.001795 0.000000 0.000000
# 2 -0.001746 0.013218 -0.004154 0.001795 0.000000 0.000000
# 3 -0.004154 -0.004154 0.014582 0.000000 0.000000 0.000000
# 4 -0.001795 0.001795 0.000000 0.026043 0.000000 0.000000
# 5 0.000000 0.000000 0.000000 0.000000 0.026043 -0.003589
# 6 0.000000 0.000000 0.000000 0.000000 -0.003589 0.029928
#
#
# Mechanical properties :
#
#
# Convention : Reuss Voigt Hill
#
# Bulk Modulus (GPa) = 47.82050 47.90764 47.86407
# Shear Modulus (GPa) = 33.30889 34.45696 33.88292
#
# Velocity S-wave (km/s) = 3.63647 3.69861 3.66767
# Velocity P-wave (km/s) = 6.05121 6.10405 6.07769
#
# Compressibility (1/GPa) = 0.02091154
#
# Stress axis : x y z
#
# Youngs Moduli (GPa) = 75.65352 75.65352 68.57544
#
# Poissons Ratio (x) = 0.13209 0.28485
# Poissons Ratio (y) = 0.13209 0.28485
# Poissons Ratio (z) = 0.31425 0.31425
#
# Static dielectric constant tensor:
#      x y z
#    x 2.020840 0.000000 0.000000 
#    y 0.000000 2.020840 0.000000 
#    z 0.000000 0.000000 1.997890 
# 
# From -- ./inp_files/3484.got.cif
#   From: 2010.05.17/outbox.cif.g08.bks.cpg/sg154_2_cif.got.tgz:3484.got - 2010.05.20 10:41:43.
