data_PCOD9576477
_publ_section_title
;
Structure prediction by ZEFSAII (Michael W. Deem and Ramdas Pophale) SiO2 
 PCOD9576477
Probable space group: P 32 2 1
;
_chemical_formula_sum "Si O2"
_cell_formula_units_Z 33
_cell_length_a 7.908682
_cell_length_b 7.908682
_cell_length_c 25.137461
_cell_angle_alpha 90.000000
_cell_angle_beta 90.000000
_cell_angle_gamma 120.000000
_cell_volume 1361.633627
_symmetry_space_group_name_H-M "P 32 2 1"
_symmetry_group_IT_number 154
_symmetry_cell_setting 'hexagonal'
loop_
_space_group_symop_operation_xyz
x,y,z
-y,x-y,2/3+z
-x+y,-x,1/3+z
x-y,-y,1/3-z
-x,-x+y,2/3-z
y,x,-z
loop_
_atom_site_type_symbol
_atom_site_label
_atom_site_fract_x
_atom_site_fract_y
_atom_site_fract_z
Si Si1 0.655740 0.289985 0.159437
Si Si2 0.272763 0.877912 0.355242
Si Si3 0.631643 0.996443 0.557742
Si Si4 0.732483 0.961469 0.247513
Si Si5 0.487053 0.653994 0.394966
Si Si6 0.020251 0.000000 0.166667
O O1 0.839564 0.458785 0.189825
O O2 0.572052 0.373619 0.115337
O O3 0.709447 0.148246 0.128935
O O4 0.504059 0.191965 0.208460
O O5 0.283941 0.063159 0.386583
O O6 0.326575 0.977320 0.296836
O O7 0.080138 0.704200 0.383472
O O8 0.428626 0.804885 0.368718
O O9 0.793696 0.965767 0.528036
O O10 0.933925 0.070997 0.214988
O O11 0.684875 0.111608 0.277849
#
# Coordination Sequence:
#
# PCOD9576477 Si02
#       6
#     6   6   6   6   6   3
#     4  11  22  40  64  94 125 168 221 263 323 386
#     4  10  22  38  62  96 126 168 216 271 330 399
#     4  10  23  38  63  95 127 160 216 272 317 395
#     4  11  21  39  63  91 122 173 216 260 324 387
#     4  11  20  36  66  88 129 166 214 263 334 389
#     4  10  20  36  60  92 122 158 208 266 314 382
#
# _framework density 24.235592
#
# number of rings (size 3 to 8) (size 9 to 14) (size 15 to 20)
#    0.000    1.455    3.636    3.273    5.091    0.000 
#    0.000    0.909    0.000    0.000    0.000    0.000 
#    0.000    0.000    0.000    0.000    0.000    0.000 
#
# Total GULP energy -184202.236600 kJ/mol
# GULP energy per Si atom -5581.885958 kJ/mol
# Density = 2.418043 g / cm^3
# Si number density = 24.235592 Si / 1000 Ang^3
#
#
#
# Elastic Constant Matrix: (Units=GPa)
#
#
# Indices 1 2 3 4 5 6 
#
# 1 66.4899 10.6257 10.1983 -1.6692 -0.0001 0.0000
# 2 10.6257 66.4899 10.1983 1.6692 0.0001 0.0000
# 3 10.1983 10.1983 69.7124 0.0000 0.0000 0.0000
# 4 -1.6692 1.6692 0.0000 34.4853 0.0000 0.0001
# 5 -0.0001 0.0001 0.0000 0.0000 34.4853 -1.6692
# 6 0.0000 0.0000 0.0000 0.0001 -1.6692 27.9321
#
#
#
# Elastic Compliance Matrix: (Units=1/GPa)
#
#
# Indices 1 2 3 4 5 6 
#
# 1 0.015721 -0.002231 -0.001973 0.000869 0.000000 0.000000
# 2 -0.002231 0.015721 -0.001973 -0.000869 0.000000 0.000000
# 3 -0.001973 -0.001973 0.014922 0.000000 0.000000 0.000000
# 4 0.000869 -0.000869 0.000000 0.029082 0.000000 0.000000
# 5 0.000000 0.000000 0.000000 0.000000 0.029082 0.001738
# 6 0.000000 0.000000 0.000000 0.000000 0.001738 0.035905
#
#
# Mechanical properties :
#
#
# Convention : Reuss Voigt Hill
#
# Bulk Modulus (GPa) = 29.40533 29.41521 29.41027
# Shear Modulus (GPa) = 30.46453 30.82519 30.64486
#
# Velocity S-wave (km/s) = 3.54929 3.57024 3.55978
# Velocity P-wave (km/s) = 5.38108 5.39991 5.39050
#
# Compressibility (1/GPa) = 0.03400744
#
# Stress axis : x y z
#
# Youngs Moduli (GPa) = 63.60929 63.60929 67.01503
#
# Poissons Ratio (x) = 0.14194 0.13225
# Poissons Ratio (y) = 0.14194 0.13225
# Poissons Ratio (z) = 0.12553 0.12553
#
# Static dielectric constant tensor:
#      x y z
#    x 1.974880 0.000000 0.000000 
#    y 0.000000 1.974880 0.000000 
#    z 0.000000 0.000000 1.954930 
# 
# From -- ./inp_files/3411.got.cif
#   From: 2010.05.17/outbox.cif.g08.bks.cpg/sg154_2_cif.got.tgz:3411.got - 2010.05.20 10:41:43.
