data_PCOD9576979
_publ_section_title
;
Structure prediction by ZEFSAII (Michael W. Deem and Ramdas Pophale) SiO2 
 PCOD9576979
Probable space group: R 3 2
;
_chemical_formula_sum "Si O2"
_cell_formula_units_Z 54
_cell_length_a 16.614585
_cell_length_b 16.614585
_cell_length_c 10.278605
_cell_angle_alpha 90.000000
_cell_angle_beta 90.000000
_cell_angle_gamma 120.000000
_cell_volume 2457.218658
_symmetry_space_group_name_H-M "R 3 2"
_symmetry_group_IT_number 155
_symmetry_cell_setting 'hexagonal'
loop_
_space_group_symop_operation_xyz
x,y,z
-y,x-y,z
-x+y,-x,z
x-y,-y,-z
-x,-x+y,-z
y,x,-z
2/3+x,1/3+y,1/3+z
2/3-y,1/3+x-y,1/3+z
2/3-x+y,1/3-x,1/3+z
2/3+x-y,1/3-y,1/3-z
2/3-x,1/3-x+y,1/3-z
2/3+y,1/3+x,1/3-z
1/3+x,2/3+y,2/3+z
1/3-y,2/3+x-y,2/3+z
1/3-x+y,2/3-x,2/3+z
1/3+x-y,2/3-y,2/3-z
1/3-x,2/3-x+y,2/3-z
1/3+y,2/3+x,2/3-z
loop_
_atom_site_type_symbol
_atom_site_label
_atom_site_fract_x
_atom_site_fract_y
_atom_site_fract_z
Si Si1 0.430841 0.563370 0.381714
Si Si2 0.152071 0.899042 0.999014
Si Si3 0.110041 0.553898 0.963182
O O1 0.429860 0.569171 0.539934
O O2 0.484981 0.508711 0.353170
O O3 0.496546 0.668542 0.332181
O O4 0.327511 0.503520 0.326632
O O5 0.108600 0.887009 0.139603
O O6 0.245620 0.000000 0.000000
O O7 0.000000 0.497047 0.000000
#
# Coordination Sequence:
#
# PCOD9576979 Si02
#       3
#    18  18  18
#     4  10  21  38  60  85 120 157 201 251 305 364
#     4   9  20  39  60  83 113 157 206 252 299 355
#     4  11  23  38  61  90 122 160 203 252 307 366
#
# _framework density 21.976068000000001
#
# number of rings (size 3 to 8) (size 9 to 14) (size 15 to 20)
#    0.000    2.000    0.000    2.667    0.000   10.667 
#    0.000    3.333    0.000    4.000    0.000    0.000 
#    0.000    0.000    0.000    0.000    0.000    0.000 
#
# Total GULP energy -100415.845240 kJ/mol
# GULP energy per Si atom -5578.658069 kJ/mol
# Density = 2.192605 g / cm^3
# Si number density = 21.976068 Si / 1000 Ang^3
#
#
#
# Elastic Constant Matrix: (Units=GPa)
#
#
# Indices 1 2 3 4 5 6 
#
# 1 148.9391 82.2674 10.4288 -5.1419 0.0000 0.0000
# 2 82.2674 148.9391 10.4288 5.1419 0.0000 0.0000
# 3 10.4288 10.4288 74.8988 0.0000 0.0000 0.0000
# 4 -5.1419 5.1419 0.0000 9.7616 0.0000 0.0000
# 5 0.0000 0.0000 0.0000 0.0000 9.7616 -5.1419
# 6 0.0000 0.0000 0.0000 0.0000 -5.1419 33.3358
#
#
#
# Elastic Compliance Matrix: (Units=1/GPa)
#
#
# Indices 1 2 3 4 5 6 
#
# 1 0.010353 -0.005973 -0.000610 0.008599 0.000000 0.000000
# 2 -0.005973 0.010353 -0.000610 -0.008599 0.000000 0.000000
# 3 -0.000610 -0.000610 0.013521 0.000000 0.000000 0.000000
# 4 0.008599 -0.008599 0.000000 0.111502 0.000000 0.000000
# 5 0.000000 0.000000 0.000000 0.000000 0.111502 0.017199
# 6 0.000000 0.000000 0.000000 0.000000 0.017199 0.032651
#
#
# Mechanical properties :
#
#
# Convention : Reuss Voigt Hill
#
# Bulk Modulus (GPa) = 50.39829 64.33636 57.36732
# Shear Modulus (GPa) = 16.08343 28.54860 22.31602
#
# Velocity S-wave (km/s) = 2.70823 3.60818 3.19010
# Velocity P-wave (km/s) = 5.72384 6.83358 6.30318
#
# Compressibility (1/GPa) = 0.01984194
#
# Stress axis : x y z
#
# Youngs Moduli (GPa) = 96.59296 96.59296 73.95802
#
# Poissons Ratio (x) = 0.57691 0.04511
# Poissons Ratio (y) = 0.57691 0.04511
# Poissons Ratio (z) = 0.05891 0.05891
#
# Static dielectric constant tensor:
#      x y z
#    x 1.798910 0.000000 0.000000 
#    y 0.000000 1.798910 0.000000 
#    z 0.000000 0.000000 1.881460 
# 
# From -- ./inp_files/4665.got.cif
#   From: 2010.05.17/outbox.cif.g08.bks.cpg/sg155_3_cif.got.tgz:4665.got - 2010.05.20 10:44:35.
