data_PCOD9576787
_publ_section_title
;
Structure prediction by ZEFSAII (Michael W. Deem and Ramdas Pophale) SiO2 
 PCOD9576787
Probable space group: R 3 2
;
_chemical_formula_sum "Si O2"
_cell_formula_units_Z 126
_cell_length_a 30.723780
_cell_length_b 30.723780
_cell_length_c 9.943256
_cell_angle_alpha 90.000000
_cell_angle_beta 90.000000
_cell_angle_gamma 120.000000
_cell_volume 8128.465110
_symmetry_space_group_name_H-M "R 3 2"
_symmetry_group_IT_number 155
_symmetry_cell_setting 'hexagonal'
loop_
_space_group_symop_operation_xyz
x,y,z
-y,x-y,z
-x+y,-x,z
x-y,-y,-z
-x,-x+y,-z
y,x,-z
2/3+x,1/3+y,1/3+z
2/3-y,1/3+x-y,1/3+z
2/3-x+y,1/3-x,1/3+z
2/3+x-y,1/3-y,1/3-z
2/3-x,1/3-x+y,1/3-z
2/3+y,1/3+x,1/3-z
1/3+x,2/3+y,2/3+z
1/3-y,2/3+x-y,2/3+z
1/3-x+y,2/3-x,2/3+z
1/3+x-y,2/3-y,2/3-z
1/3-x,2/3-x+y,2/3-z
1/3+y,2/3+x,2/3-z
loop_
_atom_site_type_symbol
_atom_site_label
_atom_site_fract_x
_atom_site_fract_y
_atom_site_fract_z
Si Si1 0.640158 0.607951 0.121252
Si Si2 0.094524 0.690796 0.530720
Si Si3 0.480070 0.955246 0.191292
Si Si4 0.193155 0.787483 0.441643
Si Si5 0.536560 0.590274 0.427743
Si Si6 0.610571 0.513217 0.302327
Si Si7 0.046899 0.623488 0.275243
O O1 0.665458 0.666667 0.166667
O O2 0.686141 0.600768 0.070620
O O3 0.617072 0.566386 0.240347
O O4 0.602922 0.602922 0.000000
O O5 0.100482 0.666667 0.666667
O O6 0.147886 0.731459 0.468360
O O7 0.061858 0.649037 0.420525
O O8 0.065152 0.720205 0.572448
O O9 0.435883 0.943958 0.293403
O O10 0.520567 0.943396 0.259019
O O11 0.510350 0.014788 0.158562
O O12 0.462997 0.927130 0.049288
O O13 0.243011 0.804957 0.528665
O O14 0.562424 0.562424 0.500000
O O15 0.500761 0.586915 0.549696
O O16 0.666667 0.525717 0.333334
O O17 0.078329 0.666667 0.166667
#
# Coordination Sequence:
#
# PCOD9576787 Si02
#       7
#    18  18  18  18  18  18  18
#     4  10  20  30  47  68  91 121 164 213 249 285
#     4  11  22  33  52  74  94 127 165 210 246 299
#     4  10  21  32  50  65  92 128 156 205 252 293
#     4  10  21  35  47  68  94 123 163 200 251 300
#     4  10  18  32  46  65  87 115 160 199 245 292
#     4  10  21  34  48  67  94 122 160 209 251 289
#     4  11  20  35  48  71  99 124 165 206 254 283
#
# _framework density 15.501082
#
# number of rings (size 3 to 8) (size 9 to 14) (size 15 to 20)
#    0.000    1.714    2.857    3.857    4.000    0.000 
#    0.000    2.143    0.000    0.000    0.000    0.000 
#    0.000    0.000    0.000    0.429    0.286    0.000 
#
# Total GULP energy -234306.879932 kJ/mol
# GULP energy per Si atom -5578.735236 kJ/mol
# Density = 1.546580 g / cm^3
# Si number density = 15.501082 Si / 1000 Ang^3
#
#
#
# Elastic Constant Matrix: (Units=GPa)
#
#
# Indices 1 2 3 4 5 6 
#
# 1 51.0583 22.2582 40.2336 0.1193 -0.0128 0.0015
# 2 22.2582 51.0704 40.2459 -0.1249 -0.0060 -0.0001
# 3 40.2336 40.2459 138.0794 0.0095 -0.0107 0.0048
# 4 0.1193 -0.1249 0.0095 20.1835 0.0013 -0.0021
# 5 -0.0128 -0.0060 -0.0107 0.0013 20.1950 0.1218
# 6 0.0015 -0.0001 0.0048 -0.0021 0.1218 14.4042
#
#
#
# Elastic Compliance Matrix: (Units=1/GPa)
#
#
# Indices 1 2 3 4 5 6 
#
# 1 0.027386 -0.007332 -0.005843 -0.000204 0.000012 -0.000001
# 2 -0.007332 0.027383 -0.005845 0.000215 0.000000 0.000003
# 3 -0.005843 -0.005845 0.010648 -0.000007 0.000000 -0.000003
# 4 -0.000204 0.000215 -0.000007 0.049548 -0.000003 0.000007
# 5 0.000012 0.000000 0.000000 -0.000003 0.049520 -0.000419
# 6 -0.000001 0.000003 -0.000003 0.000007 -0.000419 0.069428
#
#
# Mechanical properties :
#
#
# Convention : Reuss Voigt Hill
#
# Bulk Modulus (GPa) = 36.52543 49.52040 43.02292
# Shear Modulus (GPa) = 17.78866 20.12124 18.95495
#
# Velocity S-wave (km/s) = 3.39126 3.60676 3.50067
# Velocity P-wave (km/s) = 6.24088 7.02572 6.64489
#
# Compressibility (1/GPa) = 0.02737819
#
# Stress axis : x y z
#
# Youngs Moduli (GPa) = 36.51468 36.51915 93.91186
#
# Poissons Ratio (x) = 0.26776 0.54870
# Poissons Ratio (y) = 0.26772 0.54890
# Poissons Ratio (z) = 0.21335 0.21345
#
# Static dielectric constant tensor:
#      x y z
#    x 1.523160 0.000000 -0.000010 
#    y 0.000000 1.523160 0.000000 
#    z -0.000010 0.000000 1.559170 
# 
# From -- ./inp_files/2986.got.cif
#   From: 2010.05.17/outbox.cif.g08.bks.cpg/sg155_2_cif.got.tgz:2986.got - 2010.05.20 10:44:35.
