data_PCOD9576981
_publ_section_title
;
Structure prediction by ZEFSAII (Michael W. Deem and Ramdas Pophale) SiO2 
 PCOD9576981
Probable space group: R 3 2
;
_chemical_formula_sum "Si O2"
_cell_formula_units_Z 84
_cell_length_a 14.352799
_cell_length_b 14.352799
_cell_length_c 21.838133
_cell_angle_alpha 90.000000
_cell_angle_beta 90.000000
_cell_angle_gamma 120.000000
_cell_volume 3896.003552
_symmetry_space_group_name_H-M "R 3 2"
_symmetry_group_IT_number 155
_symmetry_cell_setting 'hexagonal'
loop_
_space_group_symop_operation_xyz
x,y,z
-y,x-y,z
-x+y,-x,z
x-y,-y,-z
-x,-x+y,-z
y,x,-z
2/3+x,1/3+y,1/3+z
2/3-y,1/3+x-y,1/3+z
2/3-x+y,1/3-x,1/3+z
2/3+x-y,1/3-y,1/3-z
2/3-x,1/3-x+y,1/3-z
2/3+y,1/3+x,1/3-z
1/3+x,2/3+y,2/3+z
1/3-y,2/3+x-y,2/3+z
1/3-x+y,2/3-x,2/3+z
1/3+x-y,2/3-y,2/3-z
1/3-x,2/3-x+y,2/3-z
1/3+y,2/3+x,2/3-z
loop_
_atom_site_type_symbol
_atom_site_label
_atom_site_fract_x
_atom_site_fract_y
_atom_site_fract_z
Si Si1 0.078379 0.296080 0.659846
Si Si2 0.000000 0.000000 0.186274
Si Si3 0.174562 0.917333 0.452614
Si Si4 0.673215 0.116894 0.704630
Si Si5 0.000000 0.000000 0.667618
Si Si6 0.184580 0.958723 0.800534
O O1 0.186052 0.304320 0.633641
O O2 0.059531 0.241264 0.727012
O O3 0.069386 0.402719 0.666667
O O4 0.983525 0.225866 0.610831
O O5 0.961183 0.083732 0.171358
O O6 0.000000 0.000000 0.259937
O O7 0.062783 0.814868 0.436682
O O8 0.259419 0.884645 0.477387
O O9 0.171070 0.000000 0.500000
O O10 0.744501 0.077834 0.666667
O O11 0.673354 0.227867 0.685858
O O12 0.204657 0.871323 0.833334
#
# Coordination Sequence:
#
# PCOD9576981 Si02
#       6
#    18   6  18  18   6  18
#     4  10  21  40  63  92 136 177 215 282 346 407
#     4  12  18  36  72  94 122 175 246 285 331 428
#     4  10  21  38  61  97 147 177 215 279 360 415
#     4  12  22  37  65 101 133 185 236 269 349 439
#     4  12  21  36  64  97 132 178 220 282 346 395
#     4  10  22  39  64  96 132 179 229 292 342 398
#
# _framework density 21.560555000000001
#
# number of rings (size 3 to 8) (size 9 to 14) (size 15 to 20)
#    0.000    1.286    4.286    3.214    0.000    0.857 
#    0.000    6.429    0.000    0.429    0.000    0.000 
#    0.000    0.000    0.000    0.000    0.000    0.000 
#
# Total GULP energy -156195.661988 kJ/mol
# GULP energy per Si atom -5578.416500 kJ/mol
# Density = 2.151148 g / cm^3
# Si number density = 21.560555 Si / 1000 Ang^3
#
#
#
# Elastic Constant Matrix: (Units=GPa)
#
#
# Indices 1 2 3 4 5 6 
#
# 1 102.4047 41.6517 23.8763 6.7172 -0.0002 0.0000
# 2 41.6517 102.4047 23.8763 -6.7172 0.0002 0.0000
# 3 23.8763 23.8763 61.0210 0.0000 0.0000 0.0000
# 4 6.7172 -6.7172 0.0000 20.3867 0.0000 0.0002
# 5 -0.0002 0.0002 0.0000 0.0000 20.3867 6.7172
# 6 0.0000 0.0000 0.0000 0.0002 6.7172 30.3765
#
#
#
# Elastic Compliance Matrix: (Units=1/GPa)
#
#
# Indices 1 2 3 4 5 6 
#
# 1 0.012865 -0.004889 -0.003121 -0.005850 0.000000 0.000000
# 2 -0.004889 0.012865 -0.003121 0.005850 0.000000 0.000000
# 3 -0.003121 -0.003121 0.018830 0.000000 0.000000 0.000000
# 4 -0.005850 0.005850 0.000000 0.052906 0.000000 0.000000
# 5 0.000000 0.000000 0.000000 0.000000 0.052906 -0.011699
# 6 0.000000 0.000000 0.000000 0.000000 -0.011699 0.035507
#
#
# Mechanical properties :
#
#
# Convention : Reuss Voigt Hill
#
# Bulk Modulus (GPa) = 44.84536 49.40434 47.12485
# Shear Modulus (GPa) = 23.19387 25.99173 24.59280
#
# Velocity S-wave (km/s) = 3.28343 3.47583 3.38100
# Velocity P-wave (km/s) = 5.93459 6.25080 6.09475
#
# Compressibility (1/GPa) = 0.02229885
#
# Stress axis : x y z
#
# Youngs Moduli (GPa) = 77.73055 77.73055 53.10640
#
# Poissons Ratio (x) = 0.38000 0.16574
# Poissons Ratio (y) = 0.38000 0.16574
# Poissons Ratio (z) = 0.24259 0.24259
#
# Static dielectric constant tensor:
#      x y z
#    x 1.851540 0.000000 0.000000 
#    y 0.000000 1.851540 0.000000 
#    z 0.000000 0.000000 1.829590 
# 
# From -- ./inp_files/7408.got.cif
#   From: 2010.05.17/outbox.cif.g08.bks.cpg/sg155_4_cif.got.tgz:7408.got - 2010.05.20 10:44:35.
