data_PCOD9576372
_publ_section_title
;
Structure prediction by ZEFSAII (Michael W. Deem and Ramdas Pophale) SiO2 
 PCOD9576372
Probable space group: P 32 1 2
;
_chemical_formula_sum "Si O2"
_cell_formula_units_Z 45
_cell_length_a 11.652441
_cell_length_b 11.652441
_cell_length_c 17.801965
_cell_angle_alpha 90.000000
_cell_angle_beta 90.000000
_cell_angle_gamma 120.000000
_cell_volume 2093.304465
_symmetry_space_group_name_H-M "P 32 1 2"
_symmetry_group_IT_number 153
_symmetry_cell_setting 'hexagonal'
loop_
_space_group_symop_operation_xyz
x,y,z
-y,x-y,2/3+z
-x+y,-x,1/3+z
-y,-x,1/3-z
-x+y,y,2/3-z
x,x-y,-z
loop_
_atom_site_type_symbol
_atom_site_label
_atom_site_fract_x
_atom_site_fract_y
_atom_site_fract_z
Si Si1 0.252175 0.005325 0.135488
Si Si2 0.967507 0.703852 0.792070
Si Si3 0.005022 0.504965 0.121915
Si Si4 0.077519 0.425688 0.657364
Si Si5 0.737441 0.779436 0.174972
Si Si6 0.230990 0.615495 0.000000
Si Si7 0.951574 0.344026 0.369385
Si Si8 0.673372 0.280808 0.415168
O O1 0.117402 0.882599 0.166667
O O2 0.284651 0.976904 0.051632
O O3 0.372921 0.008300 0.181293
O O4 0.240578 0.136694 0.143690
O O5 0.830208 0.660416 0.833334
O O6 0.015496 0.600680 0.814150
O O7 0.952074 0.690503 0.702664
O O8 0.069885 0.846739 0.825671
O O9 0.865503 0.412038 0.080795
O O10 0.132000 0.556003 0.070147
O O11 0.077689 0.359946 0.578399
O O12 0.226926 0.540351 0.675758
O O13 0.990707 0.497304 0.651517
O O14 0.658839 0.704052 0.100099
O O15 0.808169 0.278052 0.407491
O O16 0.673340 0.346680 0.333334
O O17 0.673564 0.336782 0.500000
#
# Coordination Sequence:
#
# PCOD9576372 Si02
#       8
#     6   6   6   6   6   3   6   6
#     4  12  26  47  75 108 146 198 247 316 381 459
#     4  12  27  48  75 109 145 199 251 316 382 459
#     4  12  23  47  72 107 147 185 254 312 374 459
#     4  12  27  47  75 110 151 197 252 311 384 462
#     4  12  27  49  72 107 154 195 252 306 385 466
#     4  12  26  46  78 108 150 198 252 314 378 468
#     4  12  27  47  71 108 152 194 250 309 383 460
#     4  12  25  43  74 111 149 194 247 322 385 460
#
# _framework density 21.497111
#
# number of rings (size 3 to 8) (size 9 to 14) (size 15 to 20)
#    0.000    0.000    6.000    4.400    1.867    1.067 
#    2.400    2.667    0.000    0.000    0.000    0.000 
#    0.000    0.000    0.000    0.000    0.000    0.000 
#
# Total GULP energy -251526.334190 kJ/mol
# GULP energy per Si atom -5589.474093 kJ/mol
# Density = 2.144818 g / cm^3
# Si number density = 21.497111 Si / 1000 Ang^3
#
#
#
# Elastic Constant Matrix: (Units=GPa)
#
#
# Indices 1 2 3 4 5 6 
#
# 1 104.7908 16.9911 21.4522 -0.0005 -2.2896 0.0000
# 2 16.9911 104.7908 21.4522 0.0005 2.2896 0.0000
# 3 21.4522 21.4522 146.2049 0.0000 0.0000 0.0000
# 4 -0.0005 0.0005 0.0000 24.0837 0.0000 2.2896
# 5 -2.2896 2.2896 0.0000 0.0000 24.0837 -0.0005
# 6 0.0000 0.0000 0.0000 2.2896 -0.0005 43.8998
#
#
#
# Elastic Compliance Matrix: (Units=1/GPa)
#
#
# Indices 1 2 3 4 5 6 
#
# 1 0.010053 -0.001394 -0.001271 0.000000 0.001088 0.000000
# 2 -0.001394 0.010053 -0.001271 0.000000 -0.001088 0.000000
# 3 -0.001271 -0.001271 0.007213 0.000000 0.000000 0.000000
# 4 0.000000 0.000000 0.000000 0.041729 0.000000 -0.002176
# 5 0.001088 -0.001088 0.000000 0.000000 0.041729 0.000000
# 6 0.000000 0.000000 0.000000 -0.002176 0.000000 0.022893
#
#
# Mechanical properties :
#
#
# Convention : Reuss Voigt Hill
#
# Bulk Modulus (GPa) = 51.41778 52.84196 52.12987
# Shear Modulus (GPa) = 33.77915 38.13951 35.95933
#
# Velocity S-wave (km/s) = 3.96831 4.21666 4.09437
# Velocity P-wave (km/s) = 6.70574 6.95279 6.83038
#
# Compressibility (1/GPa) = 0.01944853
#
# Stress axis : x y z
#
# Youngs Moduli (GPa) = 99.47612 99.47612 138.64720
#
# Poissons Ratio (x) = 0.13864 0.17615
# Poissons Ratio (y) = 0.13864 0.17615
# Poissons Ratio (z) = 0.12639 0.12639
#
# Static dielectric constant tensor:
#      x y z
#    x 1.797940 0.000000 0.000000 
#    y 0.000000 1.797940 0.000000 
#    z 0.000000 0.000000 1.820090 
# 
# From -- ./inp_files/3624.got.cif
#   From: 2010.05.17/outbox.cif.g08.bks.cpg/sg153_2_cif.got.tgz:3624.got - 2010.05.20 10:38:56.
