data_PCOD9576266
_publ_section_title
;
Structure prediction by ZEFSAII (Michael W. Deem and Ramdas Pophale) SiO2 
 PCOD9576266
Probable space group: P 32 1 2
;
_chemical_formula_sum "Si O2"
_cell_formula_units_Z 39
_cell_length_a 8.576119
_cell_length_b 8.576119
_cell_length_c 31.679828
_cell_angle_alpha 90.000000
_cell_angle_beta 90.000000
_cell_angle_gamma 120.000000
_cell_volume 2017.878643
_symmetry_space_group_name_H-M "P 32 1 2"
_symmetry_group_IT_number 153
_symmetry_cell_setting 'hexagonal'
loop_
_space_group_symop_operation_xyz
x,y,z
-y,x-y,2/3+z
-x+y,-x,1/3+z
-y,-x,1/3-z
-x+y,y,2/3-z
x,x-y,-z
loop_
_atom_site_type_symbol
_atom_site_label
_atom_site_fract_x
_atom_site_fract_y
_atom_site_fract_z
Si Si1 0.923250 0.461625 0.500000
Si Si2 0.067818 0.135635 0.333334
Si Si3 0.267331 0.219265 0.733958
Si Si4 0.297135 0.494021 0.971450
Si Si5 0.651041 0.365757 0.255071
Si Si6 0.815661 0.184340 0.666667
Si Si7 0.670160 0.017465 0.070373
Si Si8 0.821494 0.961638 0.859467
O O1 0.805347 0.380621 0.542526
O O2 0.026438 0.680725 0.505112
O O3 0.110880 0.035624 0.296547
O O4 0.251938 0.247282 0.359026
O O5 0.295831 0.410660 0.721812
O O6 0.454283 0.224500 0.726949
O O7 0.210231 0.148260 0.781290
O O8 0.291998 0.325289 0.996758
O O9 0.458854 0.563147 0.938164
O O10 0.318750 0.659375 0.000000
O O11 0.747716 0.520354 0.289803
O O12 0.780889 0.280853 0.251880
O O13 0.734809 0.931781 0.106075
O O14 0.967421 0.934841 0.833334
#
# Coordination Sequence:
#
# PCOD9576266 Si02
#       8
#     3   3   6   6   6   3   6   6
#     4  10  24  44  68  88 128 176 214 270 338 408
#     4  10  19  38  61  86 130 164 202 261 332 383
#     4  10  22  39  61  97 123 165 210 272 324 393
#     4  11  23  37  63  97 132 162 218 273 332 403
#     4  10  22  41  67  89 129 170 217 267 342 392
#     4  10  23  40  65  90 130 178 210 269 340 403
#     4  10  22  40  61  89 125 167 209 269 324 396
#     4  10  24  45  66  88 126 172 222 267 334 405
#
# _framework density 19.327226
#
# number of rings (size 3 to 8) (size 9 to 14) (size 15 to 20)
#    0.000    1.846    0.769    2.308   12.923    0.000 
#    2.769    0.000    0.000    0.000    0.000    0.000 
#    0.000    0.000    0.000    0.000    0.000    0.000 
#
# Total GULP energy -217113.985797 kJ/mol
# GULP energy per Si atom -5567.025277 kJ/mol
# Density = 1.928324 g / cm^3
# Si number density = 19.327226 Si / 1000 Ang^3
#
#
#
# Elastic Constant Matrix: (Units=GPa)
#
#
# Indices 1 2 3 4 5 6 
#
# 1 79.3799 32.8871 38.3782 -0.0001 -8.0343 0.0000
# 2 32.8871 79.3799 38.3782 0.0001 8.0343 0.0000
# 3 38.3782 38.3782 85.3191 0.0000 0.0000 0.0000
# 4 -0.0001 0.0001 0.0000 20.0707 0.0000 8.0343
# 5 -8.0343 8.0343 0.0000 0.0000 20.0707 -0.0001
# 6 0.0000 0.0000 0.0000 8.0343 -0.0001 23.2464
#
#
#
# Elastic Compliance Matrix: (Units=1/GPa)
#
#
# Indices 1 2 3 4 5 6 
#
# 1 0.018913 -0.006049 -0.005786 0.000000 0.009992 0.000000
# 2 -0.006049 0.018913 -0.005786 0.000000 -0.009992 0.000000
# 3 -0.005786 -0.005786 0.016926 0.000000 0.000000 0.000000
# 4 0.000000 0.000000 0.000000 0.057824 0.000000 -0.019985
# 5 0.009992 -0.009992 0.000000 0.000000 0.057824 0.000000
# 6 0.000000 0.000000 0.000000 -0.019985 0.000000 0.049925
#
#
# Mechanical properties :
#
#
# Convention : Reuss Voigt Hill
#
# Bulk Modulus (GPa) = 51.26073 51.48511 51.37292
# Shear Modulus (GPa) = 19.07883 21.63991 20.35937
#
# Velocity S-wave (km/s) = 3.14530 3.34976 3.24914
# Velocity P-wave (km/s) = 6.30640 6.45428 6.38077
#
# Compressibility (1/GPa) = 0.01950811
#
# Stress axis : x y z
#
# Youngs Moduli (GPa) = 52.87424 52.87424 59.08016
#
# Poissons Ratio (x) = 0.31986 0.34185
# Poissons Ratio (y) = 0.31986 0.34185
# Poissons Ratio (z) = 0.30594 0.30594
#
# Static dielectric constant tensor:
#      x y z
#    x 1.713090 0.000000 0.000000 
#    y 0.000000 1.713090 0.000000 
#    z 0.000000 0.000000 1.676920 
# 
# From -- ./inp_files/5132.got.cif
#   From: 2010.05.17/outbox.cif.g08.bks.cpg/sg153_3_cif.got.tgz:5132.got - 2010.05.20 10:38:56.
