data_PCOD9576936
_publ_section_title
;
Structure prediction by ZEFSAII (Michael W. Deem and Ramdas Pophale) SiO2 
 PCOD9576936
Probable space group: R 3 2
;
_chemical_formula_sum "Si O2"
_cell_formula_units_Z 114
_cell_length_a 21.460619
_cell_length_b 21.460619
_cell_length_c 15.142839
_cell_angle_alpha 90.000000
_cell_angle_beta 90.000000
_cell_angle_gamma 120.000000
_cell_volume 6039.798159
_symmetry_space_group_name_H-M "R 3 2"
_symmetry_group_IT_number 155
_symmetry_cell_setting 'hexagonal'
loop_
_space_group_symop_operation_xyz
x,y,z
-y,x-y,z
-x+y,-x,z
x-y,-y,-z
-x,-x+y,-z
y,x,-z
2/3+x,1/3+y,1/3+z
2/3-y,1/3+x-y,1/3+z
2/3-x+y,1/3-x,1/3+z
2/3+x-y,1/3-y,1/3-z
2/3-x,1/3-x+y,1/3-z
2/3+y,1/3+x,1/3-z
1/3+x,2/3+y,2/3+z
1/3-y,2/3+x-y,2/3+z
1/3-x+y,2/3-x,2/3+z
1/3+x-y,2/3-y,2/3-z
1/3-x,2/3-x+y,2/3-z
1/3+y,2/3+x,2/3-z
loop_
_atom_site_type_symbol
_atom_site_label
_atom_site_fract_x
_atom_site_fract_y
_atom_site_fract_z
Si Si1 0.766340 0.855273 0.659184
Si Si2 0.165031 0.746863 0.831351
Si Si3 0.749111 0.154361 0.813982
Si Si4 0.914413 0.760991 0.837902
Si Si5 0.000000 0.000000 0.607024
Si Si6 0.837622 0.904560 0.333163
Si Si7 0.816538 0.732100 0.008862
O O1 0.777430 0.909228 0.739503
O O2 0.760474 0.888838 0.567189
O O3 0.828981 0.835878 0.655505
O O4 0.687561 0.787389 0.678100
O O5 0.106642 0.773308 0.833334
O O6 0.127525 0.664351 0.804384
O O7 0.224346 0.800240 0.762109
O O8 0.666667 0.095643 0.833334
O O9 0.797023 0.116816 0.800480
O O10 0.754853 0.204867 0.733059
O O11 0.908939 0.812173 0.764979
O O12 0.867995 0.752248 0.924224
O O13 0.081335 0.046918 0.642347
O O14 0.000000 0.000000 0.500000
O O15 0.769247 0.769247 0.000000
#
# Coordination Sequence:
#
# PCOD9576936 Si02
#       7
#    18  18  18  18   6  18  18
#     4  10  22  38  59  84 114 152 194 236 288 355
#     4  10  20  39  62  84 113 150 192 242 295 352
#     4  11  22  38  58  84 117 151 190 239 293 351
#     4  11  23  37  59  88 115 149 194 245 293 348
#     4  12  24  39  63  87 121 170 202 240 297 366
#     4  12  23  38  58  87 121 154 195 241 295 355
#     4  10  22  39  60  84 115 154 195 241 295 353
#
# _framework density 18.874803
#
# number of rings (size 3 to 8) (size 9 to 14) (size 15 to 20)
#    0.000    1.263    0.000    7.105    0.000    1.263 
#    0.000    9.474    0.000    4.421    0.000    0.000 
#    0.000    0.000    0.000    0.000    0.000    0.000 
#
# Total GULP energy -212510.592093 kJ/mol
# GULP energy per Si atom -5592.384002 kJ/mol
# Density = 1.883184 g / cm^3
# Si number density = 18.874803 Si / 1000 Ang^3
#
#
#
# Elastic Constant Matrix: (Units=GPa)
#
#
# Indices 1 2 3 4 5 6 
#
# 1 68.0733 25.0860 -9.5677 4.6871 0.0005 0.0000
# 2 25.0860 68.0733 -9.5677 -4.6871 -0.0005 0.0000
# 3 -9.5677 -9.5677 45.5233 0.0000 0.0000 0.0000
# 4 4.6871 -4.6871 0.0000 24.5464 0.0000 -0.0005
# 5 0.0005 -0.0005 0.0000 0.0000 24.5464 4.6871
# 6 0.0000 0.0000 0.0000 -0.0005 4.6871 21.4936
#
#
#
# Elastic Compliance Matrix: (Units=1/GPa)
#
#
# Indices 1 2 3 4 5 6 
#
# 1 0.017746 -0.006527 0.002358 -0.004635 0.000000 0.000000
# 2 -0.006527 0.017746 0.002358 0.004635 0.000000 0.000000
# 3 0.002358 0.002358 0.022958 0.000000 0.000000 0.000000
# 4 -0.004635 0.004635 0.000000 0.042509 0.000000 0.000001
# 5 0.000000 0.000000 0.000000 0.000000 0.042509 -0.009270
# 6 0.000000 0.000000 0.000000 0.000001 -0.009270 0.048547
#
#
# Mechanical properties :
#
#
# Convention : Reuss Voigt Hill
#
# Bulk Modulus (GPa) = 18.23938 21.50791 19.87364
# Shear Modulus (GPa) = 23.37382 25.83190 24.60286
#
# Velocity S-wave (km/s) = 3.52285 3.70346 3.61429
# Velocity P-wave (km/s) = 5.12168 5.45044 5.28862
#
# Compressibility (1/GPa) = 0.05482642
#
# Stress axis : x y z
#
# Youngs Moduli (GPa) = 56.35062 56.35062 43.55805
#
# Poissons Ratio (x) = 0.36782 -0.10270
# Poissons Ratio (y) = 0.36782 -0.10270
# Poissons Ratio (z) = -0.13287 -0.13287
#
# Static dielectric constant tensor:
#      x y z
#    x 1.629710 0.000000 0.000000 
#    y 0.000000 1.629710 0.000000 
#    z 0.000000 0.000000 1.637100 
# 
# From -- ./inp_files/5198.got.cif
#   From: 2010.05.17/outbox.cif.g08.bks.cpg/sg155_3_cif.got.tgz:5198.got - 2010.05.20 10:44:35.
