data_PCOD9576220
_publ_section_title
;
Structure prediction by ZEFSAII (Michael W. Deem and Ramdas Pophale) SiO2 
 PCOD9576220
Probable space group: P 32 1 2
;
_chemical_formula_sum "Si O2"
_cell_formula_units_Z 30
_cell_length_a 17.642850
_cell_length_b 17.642850
_cell_length_c 5.331454
_cell_angle_alpha 90.000000
_cell_angle_beta 90.000000
_cell_angle_gamma 120.000000
_cell_volume 1437.188660
_symmetry_space_group_name_H-M "P 32 1 2"
_symmetry_group_IT_number 153
_symmetry_cell_setting 'hexagonal'
loop_
_space_group_symop_operation_xyz
x,y,z
-y,x-y,2/3+z
-x+y,-x,1/3+z
-y,-x,1/3-z
-x+y,y,2/3-z
x,x-y,-z
loop_
_atom_site_type_symbol
_atom_site_label
_atom_site_fract_x
_atom_site_fract_y
_atom_site_fract_z
Si Si1 0.683296 0.755410 0.075314
Si Si2 0.448052 0.803136 0.570697
Si Si3 0.927870 0.813727 0.586896
Si Si4 0.350568 0.964442 0.242143
Si Si5 0.766279 0.616456 0.582046
O O1 0.784714 0.784111 0.057554
O O2 0.658994 0.724044 0.360615
O O3 0.670817 0.835409 0.000000
O O4 0.627786 0.683225 0.862624
O O5 0.383797 0.767594 0.333334
O O6 0.498535 0.749268 0.500000
O O7 0.514664 0.905364 0.517535
O O8 0.396347 0.792694 0.833334
O O9 0.930219 0.860437 0.333334
O O10 0.832245 0.723039 0.583971
O O11 0.932596 0.865191 0.833334
O O12 0.401840 0.069728 0.232637
O O13 0.792367 0.584734 0.333334
O O14 0.792658 0.585316 0.833334
#
# Coordination Sequence:
#
# PCOD9576220 Si02
#       5
#     6   6   6   6   6
#     4  12  21  31  50  81 108 142 188 243 279 330
#     4  12  26  45  64  83 112 155 209 266 337 388
#     4  10  16  30  48  69 102 141 171 208 283 332
#     4  12  22  37  58  85 110 141 197 248 293 372
#     4  10  16  31  54  80 110 141 167 217 291 344
#
# _framework density 20.874085999999998
#
# number of rings (size 3 to 8) (size 9 to 14) (size 15 to 20)
#    0.000    0.800    8.000    4.200    0.000    0.000 
#    0.000    0.000    0.000    1.200    0.000    0.000 
#    0.000    0.000    0.000    9.000    0.000    0.200 
#
# Total GULP energy -167115.544673 kJ/mol
# GULP energy per Si atom -5570.518156 kJ/mol
# Density = 2.082658 g / cm^3
# Si number density = 20.874086 Si / 1000 Ang^3
#
#
#
# Elastic Constant Matrix: (Units=GPa)
#
#
# Indices 1 2 3 4 5 6 
#
# 1 54.1702 16.6763 28.8358 0.0006 4.1033 0.0000
# 2 16.6763 54.1702 28.8358 -0.0006 -4.1033 0.0000
# 3 28.8358 28.8358 168.3184 0.0000 0.0000 0.0000
# 4 0.0006 -0.0006 0.0000 22.5092 0.0000 -4.1033
# 5 4.1033 -4.1033 0.0000 0.0000 22.5092 0.0006
# 6 0.0000 0.0000 0.0000 -4.1033 0.0006 18.7469
#
#
#
# Elastic Compliance Matrix: (Units=1/GPa)
#
#
# Indices 1 2 3 4 5 6 
#
# 1 0.022091 -0.005688 -0.002810 -0.000001 -0.005064 0.000000
# 2 -0.005688 0.022091 -0.002810 0.000001 0.005064 0.000000
# 3 -0.002810 -0.002810 0.006904 0.000000 0.000000 0.000000
# 4 -0.000001 0.000001 0.000000 0.046273 0.000000 0.010128
# 5 -0.005064 0.005064 0.000000 0.000000 0.046273 -0.000001
# 6 0.000000 0.000000 0.000000 0.010128 -0.000001 0.055559
#
#
# Mechanical properties :
#
#
# Convention : Reuss Voigt Hill
#
# Bulk Modulus (GPa) = 35.12618 47.26164 41.19391
# Shear Modulus (GPa) = 21.61726 26.24045 23.92885
#
# Velocity S-wave (km/s) = 3.22157 3.54938 3.38944
# Velocity P-wave (km/s) = 5.54096 6.28394 5.92411
#
# Compressibility (1/GPa) = 0.02846879
#
# Stress axis : x y z
#
# Youngs Moduli (GPa) = 45.26736 45.26736 144.84504
#
# Poissons Ratio (x) = 0.25750 0.40702
# Poissons Ratio (y) = 0.25750 0.40702
# Poissons Ratio (z) = 0.12720 0.12720
#
# Static dielectric constant tensor:
#      x y z
#    x 1.777850 0.000000 0.000000 
#    y 0.000000 1.777850 0.000000 
#    z 0.000000 0.000000 1.843030 
# 
# From -- ./inp_files/486.got.cif
#   From: 2010.05.17/outbox.cif.g08.bks.cpg/sg153_1_cif.got.tgz:486.got - 2010.05.20 10:38:56.
