data_PCOD9576396
_publ_section_title
;
Structure prediction by ZEFSAII (Michael W. Deem and Ramdas Pophale) SiO2 
 PCOD9576396
Probable space group: P 32 2 1
;
_chemical_formula_sum "Si O2"
_cell_formula_units_Z 39
_cell_length_a 8.770361
_cell_length_b 8.770361
_cell_length_c 30.477725
_cell_angle_alpha 90.000000
_cell_angle_beta 90.000000
_cell_angle_gamma 120.000000
_cell_volume 2030.243448
_symmetry_space_group_name_H-M "P 32 2 1"
_symmetry_group_IT_number 154
_symmetry_cell_setting 'hexagonal'
loop_
_space_group_symop_operation_xyz
x,y,z
-y,x-y,2/3+z
-x+y,-x,1/3+z
x-y,-y,1/3-z
-x,-x+y,2/3-z
y,x,-z
loop_
_atom_site_type_symbol
_atom_site_label
_atom_site_fract_x
_atom_site_fract_y
_atom_site_fract_z
Si Si1 0.275347 0.154895 0.768880
Si Si2 0.982177 0.661114 0.191806
Si Si3 0.405708 0.320647 0.430376
Si Si4 0.000000 0.693044 0.333334
Si Si5 0.198784 0.457992 0.474071
Si Si6 0.967711 0.072255 0.592926
Si Si7 0.768143 0.409681 0.403830
O O1 0.296412 0.291303 0.807045
O O2 0.456510 0.227406 0.742008
O O3 0.258444 0.980007 0.793217
O O4 0.096002 0.090891 0.741760
O O5 0.834696 0.455484 0.196781
O O6 0.938815 0.797304 0.215951
O O7 0.145437 0.670249 0.218348
O O8 0.349723 0.463386 0.443239
O O9 0.439439 0.248855 0.476387
O O10 0.576082 0.384047 0.401561
O O11 0.242476 0.157330 0.407868
O O12 0.082864 0.851036 0.368345
O O13 0.122530 0.646359 0.304094
#
# Coordination Sequence:
#
# PCOD9576396 Si02
#       7
#     6   6   6   3   6   6   6
#     4  10  18  35  59  90 109 157 188 240 308 362
#     4  10  18  34  56  90 121 149 179 244 304 366
#     4  10  18  36  57  87 112 156 183 247 291 360
#     4  10  24  46  52  80 114 168 202 248 282 346
#     4   9  18  31  56  86 126 139 182 229 312 359
#     4  10  21  38  62  77 119 155 205 236 290 358
#     4  10  22  38  60  84 123 153 198 247 298 352
#
# _framework density 19.209517000000002
#
# number of rings (size 3 to 8) (size 9 to 14) (size 15 to 20)
#    0.000    2.154    3.077    0.462    0.000    0.615 
#   11.077    7.692    0.000    0.000    0.000    0.000 
#    0.000    0.000    0.000    0.000    0.000    0.000 
#
# Total GULP energy -217439.225496 kJ/mol
# GULP energy per Si atom -5575.364756 kJ/mol
# Density = 1.916580 g / cm^3
# Si number density = 19.209517 Si / 1000 Ang^3
#
#
#
# Elastic Constant Matrix: (Units=GPa)
#
#
# Indices 1 2 3 4 5 6 
#
# 1 50.6231 8.4588 0.5689 0.5230 0.0000 0.0000
# 2 8.4588 50.6231 0.5689 -0.5230 0.0000 0.0000
# 3 0.5689 0.5689 40.4972 0.0000 0.0000 0.0000
# 4 0.5230 -0.5230 0.0000 17.5434 0.0000 0.0000
# 5 0.0000 0.0000 0.0000 0.0000 17.5434 0.5230
# 6 0.0000 0.0000 0.0000 0.0000 0.5230 21.0822
#
#
#
# Elastic Compliance Matrix: (Units=1/GPa)
#
#
# Indices 1 2 3 4 5 6 
#
# 1 0.020332 -0.003402 -0.000238 -0.000708 0.000000 0.000000
# 2 -0.003402 0.020332 -0.000238 0.000708 0.000000 0.000000
# 3 -0.000238 -0.000238 0.024700 0.000000 0.000000 0.000000
# 4 -0.000708 0.000708 0.000000 0.057044 0.000000 0.000000
# 5 0.000000 0.000000 0.000000 0.000000 0.057044 -0.001415
# 6 0.000000 0.000000 0.000000 0.000000 -0.001415 0.047469
#
#
# Mechanical properties :
#
#
# Convention : Reuss Voigt Hill
#
# Bulk Modulus (GPa) = 17.35845 17.88186 17.62016
# Shear Modulus (GPa) = 19.69449 20.04361 19.86905
#
# Velocity S-wave (km/s) = 3.20542 3.23371 3.21959
# Velocity P-wave (km/s) = 4.77029 4.82406 4.79725
#
# Compressibility (1/GPa) = 0.05760882
#
# Stress axis : x y z
#
# Youngs Moduli (GPa) = 49.18294 49.18294 40.48629
#
# Poissons Ratio (x) = 0.16732 0.00963
# Poissons Ratio (y) = 0.16732 0.00963
# Poissons Ratio (z) = 0.01170 0.01170
#
# Static dielectric constant tensor:
#      x y z
#    x 1.680160 0.000000 0.000000 
#    y 0.000000 1.680160 0.000000 
#    z 0.000000 0.000000 1.688110 
# 
# From -- ./inp_files/3681.got.cif
#   From: 2010.05.17/outbox.cif.g08.bks.cpg/sg154_2_cif.got.tgz:3681.got - 2010.05.20 10:41:43.
