data_PCOD9576028
_publ_section_title
;
Structure prediction by ZEFSAII (Michael W. Deem and Ramdas Pophale) SiO2 
 PCOD9576028
Probable space group: P 31 2 1
;
_chemical_formula_sum "Si O2"
_cell_formula_units_Z 36
_cell_length_a 8.344785
_cell_length_b 8.344785
_cell_length_c 25.838949
_cell_angle_alpha 90.000000
_cell_angle_beta 90.000000
_cell_angle_gamma 120.000000
_cell_volume 1558.245136
_symmetry_space_group_name_H-M "P 31 2 1"
_symmetry_group_IT_number 152
_symmetry_cell_setting 'hexagonal'
loop_
_space_group_symop_operation_xyz
x,y,z
-y,x-y,1/3+z
-x+y,-x,2/3+z
x-y,-y,2/3-z
-x,-x+y,1/3-z
y,x,-z
loop_
_atom_site_type_symbol
_atom_site_label
_atom_site_fract_x
_atom_site_fract_y
_atom_site_fract_z
Si Si1 0.643936 0.495627 0.406253
Si Si2 0.607693 0.492124 0.676271
Si Si3 0.201494 0.201494 0.000000
Si Si4 0.869248 0.362464 0.887293
Si Si5 0.116585 0.018501 0.901609
Si Si6 0.000000 0.833258 0.166667
Si Si7 0.494160 0.799726 0.488512
O O1 0.715569 0.392093 0.370510
O O2 0.474808 0.491276 0.375587
O O3 0.818476 0.705095 0.406354
O O4 0.645717 0.449453 0.466065
O O5 0.551534 0.589930 0.722040
O O6 0.816199 0.611630 0.656535
O O7 0.123126 0.084985 0.051588
O O8 0.678451 0.368218 0.883238
O O9 0.025356 0.522484 0.849602
O O10 0.827466 0.164025 0.863893
O O11 0.302307 0.166283 0.869280
O O12 0.922902 0.913535 0.872405
#
# Coordination Sequence:
#
# PCOD9576028 Si02
#       7
#     6   6   3   6   6   3   6
#     4  10  23  40  66  92 128 168 218 263 329 392
#     4  10  23  41  64  92 130 169 223 262 334 389
#     4  10  22  42  64  90 126 176 206 270 326 396
#     4  11  26  40  66  96 132 172 228 278 327 401
#     4  11  22  43  68  90 132 174 213 272 334 391
#     4  12  22  40  66 100 126 168 224 272 330 388
#     4  11  24  44  66  93 132 180 223 273 334 395
#
# _framework density 23.102910999999999
#
# number of rings (size 3 to 8) (size 9 to 14) (size 15 to 20)
#    0.000    1.333    3.333    1.000   11.667    0.000 
#    0.000    0.000    0.000    1.000    0.000    0.000 
#    0.000    0.000    0.000    0.000    0.000    0.000 
#
# Total GULP energy -200610.607709 kJ/mol
# GULP energy per Si atom -5572.516881 kJ/mol
# Density = 2.305033 g / cm^3
# Si number density = 23.102911 Si / 1000 Ang^3
#
#
#
# Elastic Constant Matrix: (Units=GPa)
#
#
# Indices 1 2 3 4 5 6 
#
# 1 171.0171 -102.4328 19.6684 -65.9601 -0.0017 0.0000
# 2 -102.4328 171.0171 19.6684 65.9601 0.0017 0.0000
# 3 19.6684 19.6684 98.9576 0.0000 0.0000 0.0000
# 4 -65.9601 65.9601 0.0000 80.4101 0.0000 0.0017
# 5 -0.0017 0.0017 0.0000 0.0000 80.4101 -65.9601
# 6 0.0000 0.0000 0.0000 0.0017 -65.9601 136.7249
#
#
#
# Elastic Compliance Matrix: (Units=1/GPa)
#
#
# Indices 1 2 3 4 5 6 
#
# 1 0.011254 0.005202 -0.003271 0.004964 0.000000 0.000000
# 2 0.005202 0.011254 -0.003271 -0.004964 0.000000 0.000000
# 3 -0.003271 -0.003271 0.011406 0.000000 0.000000 0.000000
# 4 0.004964 -0.004964 0.000000 0.020581 0.000000 0.000000
# 5 0.000000 0.000000 0.000000 0.000000 0.020581 0.009929
# 6 0.000000 0.000000 0.000000 0.000000 0.009929 0.012104
#
#
# Mechanical properties :
#
#
# Convention : Reuss Voigt Hill
#
# Bulk Modulus (GPa) = 32.01501 34.97776 33.49638
# Shear Modulus (GPa) = 49.86537 93.11486 71.49012
#
# Velocity S-wave (km/s) = 4.65090 6.35546 5.56879
# Velocity P-wave (km/s) = 6.53673 8.30835 7.47521
#
# Compressibility (1/GPa) = 0.03123535
#
# Stress axis : x y z
#
# Youngs Moduli (GPa) = 88.85523 88.85523 87.67672
#
# Poissons Ratio (x) = -0.46225 0.28678
# Poissons Ratio (y) = -0.46225 0.28678
# Poissons Ratio (z) = 0.29063 0.29063
#
# Static dielectric constant tensor:
#      x y z
#    x 1.720150 0.000000 0.000000 
#    y 0.000000 1.720150 0.000000 
#    z 0.000000 0.000000 2.247560 
# 
# From -- ./inp_files/3436.got.cif
#   From: 2010.05.17/outbox.cif.g08.bks.cpg/sg152_2_cif.got.tgz:3436.got - 2010.05.20 10:36:06.
