data_PCOD9576888
_publ_section_title
;
Structure prediction by ZEFSAII (Michael W. Deem and Ramdas Pophale) SiO2 
 PCOD9576888
Probable space group: R 3 2
;
_chemical_formula_sum "Si O2"
_cell_formula_units_Z 108
_cell_length_a 22.290089
_cell_length_b 22.290089
_cell_length_c 12.987910
_cell_angle_alpha 90.000000
_cell_angle_beta 90.000000
_cell_angle_gamma 120.000000
_cell_volume 5588.477507
_symmetry_space_group_name_H-M "R 3 2"
_symmetry_group_IT_number 155
_symmetry_cell_setting 'hexagonal'
loop_
_space_group_symop_operation_xyz
x,y,z
-y,x-y,z
-x+y,-x,z
x-y,-y,-z
-x,-x+y,-z
y,x,-z
2/3+x,1/3+y,1/3+z
2/3-y,1/3+x-y,1/3+z
2/3-x+y,1/3-x,1/3+z
2/3+x-y,1/3-y,1/3-z
2/3-x,1/3-x+y,1/3-z
2/3+y,1/3+x,1/3-z
1/3+x,2/3+y,2/3+z
1/3-y,2/3+x-y,2/3+z
1/3-x+y,2/3-x,2/3+z
1/3+x-y,2/3-y,2/3-z
1/3-x,2/3-x+y,2/3-z
1/3+y,2/3+x,2/3-z
loop_
_atom_site_type_symbol
_atom_site_label
_atom_site_fract_x
_atom_site_fract_y
_atom_site_fract_z
Si Si1 0.851654 0.258166 0.464439
Si Si2 0.249705 0.078746 0.518575
Si Si3 0.088236 0.619582 0.265907
Si Si4 0.081056 0.259998 0.884809
Si Si5 0.728897 0.106572 0.260073
Si Si6 0.922315 0.499066 0.038081
O O1 0.904487 0.232937 0.502371
O O2 0.852727 0.256579 0.341394
O O3 0.872895 0.337555 0.490179
O O4 0.780498 0.198048 0.515122
O O5 0.231640 0.125331 0.444196
O O6 0.243080 0.102363 0.632097
O O7 0.198661 0.000000 0.500000
O O8 0.093219 0.666667 0.166667
O O9 0.140867 0.677542 0.344652
O O10 0.016051 0.577119 0.323940
O O11 0.102186 0.333334 0.833334
O O12 0.150688 0.254460 0.874633
O O13 0.719951 0.053285 0.166667
O O14 0.666667 0.095890 0.333334
O O15 0.000000 0.557943 0.000000
#
# Coordination Sequence:
#
# PCOD9576888 Si02
#       6
#    18  18  18  18  18  18
#     4  10  20  36  56  79 121 157 193 234 297 349
#     4  10  20  34  58  86 119 154 189 235 296 353
#     4  10  20  37  56  84 119 149 189 239 285 351
#     4  10  22  36  52  82 119 154 194 247 289 344
#     4  11  23  35  56  83 118 158 193 240 295 347
#     4   9  20  34  58  85 109 156 192 230 285 354
#
# _framework density 19.325478
#
# number of rings (size 3 to 8) (size 9 to 14) (size 15 to 20)
#    0.000    2.000    1.667    1.500    4.667    0.000 
#    0.000    0.000    0.000    9.000    0.000    0.000 
#    6.667    0.000    0.000    0.000    0.000    0.000 
#
# Total GULP energy -200533.568229 kJ/mol
# GULP energy per Si atom -5570.376895 kJ/mol
# Density = 1.928149 g / cm^3
# Si number density = 19.325478 Si / 1000 Ang^3
#
#
#
# Elastic Constant Matrix: (Units=GPa)
#
#
# Indices 1 2 3 4 5 6 
#
# 1 80.2541 52.8118 38.2701 -2.3071 -0.0001 0.0000
# 2 52.8118 80.2541 38.2701 2.3071 0.0001 0.0000
# 3 38.2701 38.2701 78.2468 0.0000 0.0000 0.0000
# 4 -2.3071 2.3071 0.0000 26.6065 0.0000 0.0001
# 5 -0.0001 0.0001 0.0000 0.0000 26.6065 -2.3071
# 6 0.0000 0.0000 0.0000 0.0001 -2.3071 13.7211
#
#
#
# Elastic Compliance Matrix: (Units=1/GPa)
#
#
# Indices 1 2 3 4 5 6 
#
# 1 0.023718 -0.013261 -0.005114 0.003207 0.000000 0.000000
# 2 -0.013261 0.023718 -0.005114 -0.003207 0.000000 0.000000
# 3 -0.005114 -0.005114 0.017783 0.000000 0.000000 0.000000
# 4 0.003207 -0.003207 0.000000 0.038141 0.000000 0.000000
# 5 0.000000 0.000000 0.000000 0.000000 0.038141 0.006413
# 6 0.000000 0.000000 0.000000 0.000000 0.006413 0.073959
#
#
# Mechanical properties :
#
#
# Convention : Reuss Voigt Hill
#
# Bulk Modulus (GPa) = 54.82731 55.27324 55.05028
# Shear Modulus (GPa) = 18.62063 20.68036 19.65049
#
# Velocity S-wave (km/s) = 3.10744 3.27480 3.19222
# Velocity P-wave (km/s) = 6.42705 6.55457 6.49112
#
# Compressibility (1/GPa) = 0.01823908
#
# Stress axis : x y z
#
# Youngs Moduli (GPa) = 42.16183 42.16183 56.23355
#
# Poissons Ratio (x) = 0.55912 0.28760
# Poissons Ratio (y) = 0.55912 0.28760
# Poissons Ratio (z) = 0.21563 0.21563
#
# Static dielectric constant tensor:
#      x y z
#    x 1.699060 0.000000 0.000000 
#    y 0.000000 1.699060 0.000000 
#    z 0.000000 0.000000 1.806560 
# 
# From -- ./inp_files/5128.got.cif
#   From: 2010.05.17/outbox.cif.g08.bks.cpg/sg155_3_cif.got.tgz:5128.got - 2010.05.20 10:44:35.
