data_PCOD9576286
_publ_section_title
;
Structure prediction by ZEFSAII (Michael W. Deem and Ramdas Pophale) SiO2 
 PCOD9576286
Probable space group: P 32 1 2
;
_chemical_formula_sum "Si O2"
_cell_formula_units_Z 42
_cell_length_a 9.002714
_cell_length_b 9.002714
_cell_length_c 24.588338
_cell_angle_alpha 90.000000
_cell_angle_beta 90.000000
_cell_angle_gamma 120.000000
_cell_volume 1725.864570
_symmetry_space_group_name_H-M "P 32 1 2"
_symmetry_group_IT_number 153
_symmetry_cell_setting 'hexagonal'
loop_
_space_group_symop_operation_xyz
x,y,z
-y,x-y,2/3+z
-x+y,-x,1/3+z
-y,-x,1/3-z
-x+y,y,2/3-z
x,x-y,-z
loop_
_atom_site_type_symbol
_atom_site_label
_atom_site_fract_x
_atom_site_fract_y
_atom_site_fract_z
Si Si1 0.142046 0.908447 0.082100
Si Si2 0.438870 0.532860 0.573732
Si Si3 0.046571 0.953430 0.666667
Si Si4 0.172820 0.586410 0.500000
Si Si5 0.659105 0.294838 0.244029
Si Si6 0.292360 0.879788 0.972774
Si Si7 0.660644 0.572998 0.005286
Si Si8 0.894570 0.650652 0.467252
O O1 0.098190 0.713837 0.091671
O O2 0.226106 0.040192 0.132136
O O3 0.264070 0.950348 0.029004
O O4 0.000715 0.942777 0.054309
O O5 0.307032 0.567452 0.538564
O O6 0.497827 0.395424 0.557913
O O7 0.313990 0.458128 0.626948
O O8 0.242339 0.037235 0.651406
O O9 0.032245 0.650569 0.510061
O O10 0.805703 0.355537 0.289537
O O11 0.494678 0.278160 0.276791
O O12 0.726622 0.460901 0.206140
O O13 0.485650 0.917261 0.977789
O O14 0.302847 0.999254 0.922779
#
# Coordination Sequence:
#
# PCOD9576286 Si02
#       8
#     6   6   3   3   6   6   6   6
#     4  12  21  37  61  96 125 162 199 260 329 384
#     4  11  24  39  64  88 126 165 215 257 314 381
#     4  12  22  32  54  98 132 156 188 246 318 378
#     4  10  26  46  62  84 112 176 222 268 306 368
#     4  10  20  38  60  89 120 161 197 246 310 372
#     4  10  20  37  59  94 128 160 191 250 321 393
#     4  10  21  33  54  94 132 153 184 237 310 387
#     4  10  21  40  65  83 123 162 211 254 313 377
#
# _framework density 24.335629999999998
#
# number of rings (size 3 to 8) (size 9 to 14) (size 15 to 20)
#    0.000    1.429    4.286    1.286    6.000    1.143 
#    0.000    0.000    0.000    1.714    0.000    0.000 
#    0.000    0.000    0.000    0.000    0.000    0.000 
#
# Total GULP energy -234055.204496 kJ/mol
# GULP energy per Si atom -5572.742964 kJ/mol
# Density = 2.428024 g / cm^3
# Si number density = 24.335630 Si / 1000 Ang^3
#
#
#
# Elastic Constant Matrix: (Units=GPa)
#
#
# Indices 1 2 3 4 5 6 
#
# 1 158.9014 68.4255 21.6597 -0.0004 23.2077 0.0000
# 2 68.4255 158.9014 21.6597 0.0004 -23.2077 0.0000
# 3 21.6597 21.6597 24.4226 0.0000 0.0000 0.0000
# 4 -0.0004 0.0004 0.0000 93.7218 0.0000 -23.2077
# 5 23.2077 -23.2077 0.0000 0.0000 93.7218 -0.0004
# 6 0.0000 0.0000 0.0000 -23.2077 -0.0004 45.2379
#
#
#
# Elastic Compliance Matrix: (Units=1/GPa)
#
#
# Indices 1 2 3 4 5 6 
#
# 1 0.008977 -0.003684 -0.004695 0.000000 -0.003135 0.000000
# 2 -0.003684 0.008977 -0.004695 0.000000 0.003135 0.000000
# 3 -0.004695 -0.004695 0.049273 0.000000 0.000000 0.000000
# 4 0.000000 0.000000 0.000000 0.012223 0.000000 0.006270
# 5 -0.003135 0.003135 0.000000 0.000000 0.012223 0.000000
# 6 0.000000 0.000000 0.000000 0.006270 0.000000 0.025322
#
#
# Mechanical properties :
#
#
# Convention : Reuss Voigt Hill
#
# Bulk Modulus (GPa) = 24.34205 62.85722 43.59964
# Shear Modulus (GPa) = 31.88068 61.90169 46.89118
#
# Velocity S-wave (km/s) = 3.62338 5.04895 4.39436
# Velocity P-wave (km/s) = 5.24686 7.73786 6.61075
#
# Compressibility (1/GPa) = 0.04108117
#
# Stress axis : x y z
#
# Youngs Moduli (GPa) = 111.39182 111.39182 20.29515
#
# Poissons Ratio (x) = 0.41034 0.09528
# Poissons Ratio (y) = 0.41034 0.09528
# Poissons Ratio (z) = 0.52295 0.52295
#
# Static dielectric constant tensor:
#      x y z
#    x 1.957410 0.000000 0.000000 
#    y 0.000000 1.957410 0.000000 
#    z 0.000000 0.000000 2.079160 
# 
# From -- ./inp_files/5214.got.cif
#   From: 2010.05.17/outbox.cif.g08.bks.cpg/sg153_3_cif.got.tgz:5214.got - 2010.05.20 10:38:56.
