data_PCOD9576219
_publ_section_title
;
Structure prediction by ZEFSAII (Michael W. Deem and Ramdas Pophale) SiO2 
 PCOD9576219
Probable space group: P 32 1 2
;
_chemical_formula_sum "Si O2"
_cell_formula_units_Z 42
_cell_length_a 11.789938
_cell_length_b 11.789938
_cell_length_c 19.947063
_cell_angle_alpha 90.000000
_cell_angle_beta 90.000000
_cell_angle_gamma 120.000000
_cell_volume 2401.223768
_symmetry_space_group_name_H-M "P 32 1 2"
_symmetry_group_IT_number 153
_symmetry_cell_setting 'hexagonal'
loop_
_space_group_symop_operation_xyz
x,y,z
-y,x-y,2/3+z
-x+y,-x,1/3+z
-y,-x,1/3-z
-x+y,y,2/3-z
x,x-y,-z
loop_
_atom_site_type_symbol
_atom_site_label
_atom_site_fract_x
_atom_site_fract_y
_atom_site_fract_z
Si Si1 0.710787 0.022198 0.691170
Si Si2 0.630346 0.369655 0.666667
Si Si3 0.116385 0.963807 0.315247
Si Si4 0.293166 0.225170 0.170974
Si Si5 0.656478 0.458580 0.520667
Si Si6 0.559548 0.077742 0.053963
Si Si7 0.894332 0.947166 0.500000
Si Si8 0.261075 0.258070 0.319481
O O1 0.843596 0.156405 0.666667
O O2 0.691739 0.033571 0.769896
O O3 0.596088 0.012046 0.644879
O O4 0.738407 0.902305 0.684946
O O5 0.614284 0.431736 0.598155
O O6 0.783189 0.426936 0.682300
O O7 0.106690 0.928602 0.236672
O O8 0.985675 0.971350 0.333334
O O9 0.235068 0.109318 0.328611
O O10 0.395384 0.172946 0.179239
O O11 0.298774 0.292312 0.241476
O O12 0.142499 0.105806 0.160483
O O13 0.695698 0.347849 0.500000
O O14 0.549989 0.441185 0.465500
O O15 0.638091 0.005265 0.035653
O O16 0.125339 0.250677 0.333334
#
# Coordination Sequence:
#
# PCOD9576219 Si02
#       8
#     6   3   6   6   6   6   3   6
#     4  11  17  30  54  87 107 132 190 250 280 329
#     4  10  18  32  48  82 116 140 178 234 300 350
#     4   9  17  31  47  72 109 139 181 227 282 337
#     4  11  19  31  55  80 113 146 188 236 287 332
#     4  10  19  31  53  82 113 143 181 240 294 339
#     4  11  19  33  57  84 115 143 191 242 295 338
#     4  10  16  26  48  72 104 142 168 220 280 326
#     4  10  23  37  51  79 120 162 182 222 298 359
#
# _framework density 17.491081000000001
#
# number of rings (size 3 to 8) (size 9 to 14) (size 15 to 20)
#    0.000    1.714    6.429    0.857    0.000    0.000 
#    0.000    4.286    0.000    0.000    1.857   10.000 
#    0.000    0.000    0.000    0.000    0.000    0.000 
#
# Total GULP energy -233804.951106 kJ/mol
# GULP energy per Si atom -5566.784550 kJ/mol
# Density = 1.745127 g / cm^3
# Si number density = 17.491081 Si / 1000 Ang^3
#
#
#
# Elastic Constant Matrix: (Units=GPa)
#
#
# Indices 1 2 3 4 5 6 
#
# 1 32.1687 37.6050 23.6255 0.0006 -1.8444 0.0000
# 2 37.6050 32.1687 23.6255 -0.0006 1.8444 0.0000
# 3 23.6255 23.6255 144.3637 0.0000 0.0000 0.0000
# 4 0.0006 -0.0006 0.0000 16.6233 0.0000 1.8444
# 5 -1.8444 1.8444 0.0000 0.0000 16.6233 0.0006
# 6 0.0000 0.0000 0.0000 1.8444 0.0006 -2.7182
#
#
#
# Elastic Compliance Matrix: (Units=1/GPa)
#
#
# Indices 1 2 3 4 5 6 
#
# 1 -0.077476 0.093594 -0.002638 0.000006 -0.018980 0.000000
# 2 0.093594 -0.077476 -0.002638 -0.000006 0.018980 0.000000
# 3 -0.002638 -0.002638 0.007790 0.000000 0.000000 0.000000
# 4 0.000006 -0.000006 0.000000 0.055945 0.000000 0.037961
# 5 -0.018980 0.018980 0.000000 0.000000 0.055945 0.000012
# 6 0.000000 0.000000 0.000000 0.037961 0.000012 -0.342139
#
#
# Mechanical properties :
#
#
# Convention : Reuss Voigt Hill
#
# Bulk Modulus (GPa) = 33.92614 42.04592 37.98603
# Shear Modulus (GPa) = -9.18743 14.36202 2.58729
#
# Velocity S-wave (km/s) = -2.29435 2.86860 1.21755
# Velocity P-wave (km/s) = 3.52415 5.92136 4.87248
#
# Compressibility (1/GPa) = 0.02947580
#
# Stress axis : x y z
#
# Youngs Moduli (GPa) = -12.90729 -12.90729 128.36439
#
# Poissons Ratio (x) = 1.20804 0.33860
# Poissons Ratio (y) = 1.20804 0.33860
# Poissons Ratio (z) = -0.03405 -0.03405
#
# Static dielectric constant tensor:
#      x y z
#    x 1.615030 0.000000 0.000000 
#    y 0.000000 1.615030 0.000000 
#    z 0.000000 0.000000 1.647040 
# 
# From -- ./inp_files/4026.got.cif
#   From: 2010.05.17/outbox.cif.g08.bks.cpg/sg153_3_cif.got.tgz:4026.got - 2010.05.20 10:38:56.
