data_PCOD9576156
_publ_section_title
;
Structure prediction by ZEFSAII (Michael W. Deem and Ramdas Pophale) SiO2 
 PCOD9576156
Probable space group: P 31 2 1
;
_chemical_formula_sum "Si O2"
_cell_formula_units_Z 24
_cell_length_a 7.383108
_cell_length_b 7.383108
_cell_length_c 19.494261
_cell_angle_alpha 90.000000
_cell_angle_beta 90.000000
_cell_angle_gamma 120.000000
_cell_volume 920.271242
_symmetry_space_group_name_H-M "P 31 2 1"
_symmetry_group_IT_number 152
_symmetry_cell_setting 'hexagonal'
loop_
_space_group_symop_operation_xyz
x,y,z
-y,x-y,1/3+z
-x+y,-x,2/3+z
x-y,-y,2/3-z
-x,-x+y,1/3-z
y,x,-z
loop_
_atom_site_type_symbol
_atom_site_label
_atom_site_fract_x
_atom_site_fract_y
_atom_site_fract_z
Si Si1 0.415674 0.337593 0.360904
Si Si2 0.272036 0.827917 0.774648
Si Si3 0.429558 0.577174 0.236946
Si Si4 0.911099 0.927873 0.243430
O O1 0.410390 0.538793 0.392973
O O2 0.404771 0.377733 0.280057
O O3 0.622072 0.345888 0.394441
O O4 0.201739 0.145060 0.386704
O O5 0.153606 0.626074 0.822717
O O6 0.126840 0.893125 0.732495
O O7 0.381270 0.000000 0.833334
O O8 0.671188 0.746379 0.242192
O O9 0.000000 0.984716 0.166667
#
# Coordination Sequence:
#
# PCOD9576156 Si02
#       4
#     6   6   6   6
#     4  11  23  46  71 101 147 186 235 307 357 426
#     4   9  23  43  66 101 141 182 239 298 349 427
#     4  11  23  42  73 105 142 187 243 295 363 427
#     4  11  24  43  70  99 139 189 235 289 363 426
#
# _framework density 26.079264999999999
#
# number of rings (size 3 to 8) (size 9 to 14) (size 15 to 20)
#    0.000    1.500    2.500    2.250    7.000    1.000 
#    4.500    0.000   22.000    0.000    0.000    0.000 
#    0.000    0.000    0.000    0.000    0.000    0.000 
#
# Total GULP energy -134200.320784 kJ/mol
# GULP energy per Si atom -5591.680033 kJ/mol
# Density = 2.601991 g / cm^3
# Si number density = 26.079265 Si / 1000 Ang^3
#
#
#
# Elastic Constant Matrix: (Units=GPa)
#
#
# Indices 1 2 3 4 5 6 
#
# 1 116.1638 38.9778 39.7468 -7.6485 0.0000 0.0000
# 2 38.9778 116.1638 39.7468 7.6485 0.0000 0.0000
# 3 39.7468 39.7468 103.2525 0.0000 0.0000 0.0000
# 4 -7.6485 7.6485 0.0000 45.6854 0.0000 0.0000
# 5 0.0000 0.0000 0.0000 0.0000 45.6854 -7.6485
# 6 0.0000 0.0000 0.0000 0.0000 -7.6485 38.5930
#
#
#
# Elastic Compliance Matrix: (Units=1/GPa)
#
#
# Indices 1 2 3 4 5 6 
#
# 1 0.010715 -0.002685 -0.003091 0.002243 0.000000 0.000000
# 2 -0.002685 0.010715 -0.003091 -0.002243 0.000000 0.000000
# 3 -0.003091 -0.003091 0.012065 0.000000 0.000000 0.000000
# 4 0.002243 -0.002243 0.000000 0.022640 0.000000 0.000000
# 5 0.000000 0.000000 0.000000 0.000000 0.022640 0.004487
# 6 0.000000 0.000000 0.000000 0.000000 0.004487 0.026801
#
#
# Mechanical properties :
#
#
# Convention : Reuss Voigt Hill
#
# Bulk Modulus (GPa) = 63.45201 63.61368 63.53284
# Shear Modulus (GPa) = 38.89140 40.46667 39.67904
#
# Velocity S-wave (km/s) = 3.86589 3.94341 3.90484
# Velocity P-wave (km/s) = 6.65658 6.72156 6.68915
#
# Compressibility (1/GPa) = 0.01575994
#
# Stress axis : x y z
#
# Youngs Moduli (GPa) = 93.32783 93.32783 82.88645
#
# Poissons Ratio (x) = 0.25062 0.25620
# Poissons Ratio (y) = 0.25062 0.25620
# Poissons Ratio (z) = 0.28847 0.28847
#
# Static dielectric constant tensor:
#      x y z
#    x 2.052730 0.000000 0.000000 
#    y 0.000000 2.052730 0.000000 
#    z 0.000000 0.000000 2.185220 
# 
# From -- ./inp_files/2626.got.cif
#   From: 2010.05.17/outbox.cif.g08.bks.cpg/sg152_2_cif.got.tgz:2626.got - 2010.05.20 10:36:06.
