data_PCOD9576221
_publ_section_title
;
Structure prediction by ZEFSAII (Michael W. Deem and Ramdas Pophale) SiO2 
 PCOD9576221
Probable space group: P 32 1 2
;
_chemical_formula_sum "Si O2"
_cell_formula_units_Z 48
_cell_length_a 20.702647
_cell_length_b 20.702647
_cell_length_c 7.231160
_cell_angle_alpha 90.000000
_cell_angle_beta 90.000000
_cell_angle_gamma 120.000000
_cell_volume 2684.048486
_symmetry_space_group_name_H-M "P 32 1 2"
_symmetry_group_IT_number 153
_symmetry_cell_setting 'hexagonal'
loop_
_space_group_symop_operation_xyz
x,y,z
-y,x-y,2/3+z
-x+y,-x,1/3+z
-y,-x,1/3-z
-x+y,y,2/3-z
x,x-y,-z
loop_
_atom_site_type_symbol
_atom_site_label
_atom_site_fract_x
_atom_site_fract_y
_atom_site_fract_z
Si Si1 0.925196 0.889690 0.035070
Si Si2 0.646980 0.518506 0.486903
Si Si3 0.718366 0.425765 0.597261
Si Si4 0.329358 0.223647 0.772084
Si Si5 0.049768 0.240050 0.319348
Si Si6 0.026520 0.195439 0.889132
Si Si7 0.737913 0.082356 0.995103
Si Si8 0.877716 0.378949 0.250789
O O1 0.982041 0.875553 0.148318
O O2 0.928469 0.856937 0.833334
O O3 0.839358 0.851006 0.095364
O O4 0.949240 0.974620 0.000000
O O5 0.698191 0.479843 0.488374
O O6 0.706891 0.604209 0.452472
O O7 0.622063 0.516242 0.700291
O O8 0.570930 0.462085 0.378771
O O9 0.636803 0.363198 0.666667
O O10 0.741308 0.370654 0.500000
O O11 0.789961 0.471766 0.724393
O O12 0.252138 0.216848 0.840574
O O13 0.339418 0.243136 0.550510
O O14 0.334086 0.147079 0.773645
O O15 0.138957 0.277914 0.333334
O O16 0.000449 0.276277 0.375688
O O17 0.034805 0.217618 0.104907
O O18 0.112307 0.224614 0.833334
O O19 0.662252 0.086130 0.970734
#
# Coordination Sequence:
#
# PCOD9576221 Si02
#       8
#     6   6   6   6   6   6   6   6
#     4   9  15  23  36  55  73  95 129 168 204 240
#     4  10  17  26  41  60  83 102 141 187 216 241
#     4  12  18  24  36  55  83 110 142 178 217 254
#     4   9  16  26  42  61  81 108 137 183 218 256
#     4   9  17  29  44  60  79 104 139 179 214 258
#     4  10  18  28  43  61  82 107 137 174 224 270
#     4   9  15  26  45  60  77 104 148 181 215 253
#     4  10  18  26  41  62  76 107 145 183 215 247
#
# _framework density 17.883433
#
# number of rings (size 3 to 8) (size 9 to 14) (size 15 to 20)
#    0.000    2.250    5.000    0.750    0.000    0.000 
#    0.000    0.000    2.750    0.000    0.000    0.000 
#    0.000    0.000    0.000    0.000   14.250    0.000 
#
# Total GULP energy -267279.616874 kJ/mol
# GULP energy per Si atom -5568.325352 kJ/mol
# Density = 1.784273 g / cm^3
# Si number density = 17.883433 Si / 1000 Ang^3
#
#
#
# Elastic Constant Matrix: (Units=GPa)
#
#
# Indices 1 2 3 4 5 6 
#
# 1 124.5835 77.1221 14.5612 0.0000 -0.4486 0.0000
# 2 77.1221 124.5835 14.5612 0.0000 0.4486 0.0000
# 3 14.5612 14.5612 34.6881 0.0000 0.0000 0.0000
# 4 0.0000 0.0000 0.0000 14.7334 0.0000 0.4486
# 5 -0.4486 0.4486 0.0000 0.0000 14.7334 0.0000
# 6 0.0000 0.0000 0.0000 0.4486 0.0000 23.7307
#
#
#
# Elastic Compliance Matrix: (Units=1/GPa)
#
#
# Indices 1 2 3 4 5 6 
#
# 1 0.013180 -0.007902 -0.002215 0.000000 0.000642 0.000000
# 2 -0.007902 0.013180 -0.002215 0.000000 -0.000642 0.000000
# 3 -0.002215 -0.002215 0.030688 0.000000 0.000000 0.000000
# 4 0.000000 0.000000 0.000000 0.067912 0.000000 -0.001284
# 5 0.000642 -0.000642 0.000000 0.000000 0.067912 0.000000
# 6 0.000000 0.000000 0.000000 -0.001284 0.000000 0.042164
#
#
# Mechanical properties :
#
#
# Convention : Reuss Voigt Hill
#
# Bulk Modulus (GPa) = 30.88154 55.14937 43.01546
# Shear Modulus (GPa) = 18.48461 22.48021 20.48241
#
# Velocity S-wave (km/s) = 3.21848 3.54932 3.38794
# Velocity P-wave (km/s) = 5.57828 6.90667 6.27771
#
# Compressibility (1/GPa) = 0.03238180
#
# Stress axis : x y z
#
# Youngs Moduli (GPa) = 75.87401 75.87401 32.58577
#
# Poissons Ratio (x) = 0.59957 0.07219
# Poissons Ratio (y) = 0.59957 0.07219
# Poissons Ratio (z) = 0.16809 0.16809
#
# Static dielectric constant tensor:
#      x y z
#    x 1.637620 0.000000 0.000000 
#    y 0.000000 1.637620 0.000000 
#    z 0.000000 0.000000 1.885380 
# 
# From -- ./inp_files/2005.got.cif
#   From: 2010.05.17/outbox.cif.g08.bks.cpg/sg153_2_cif.got.tgz:2005.got - 2010.05.20 10:38:56.
