data_PCOD9576472
_publ_section_title
;
Structure prediction by ZEFSAII (Michael W. Deem and Ramdas Pophale) SiO2 
 PCOD9576472
Probable space group: P 32 2 1
;
_chemical_formula_sum "Si O2"
_cell_formula_units_Z 42
_cell_length_a 12.110490
_cell_length_b 12.110490
_cell_length_c 15.222715
_cell_angle_alpha 90.000000
_cell_angle_beta 90.000000
_cell_angle_gamma 120.000000
_cell_volume 1933.508916
_symmetry_space_group_name_H-M "P 32 2 1"
_symmetry_group_IT_number 154
_symmetry_cell_setting 'hexagonal'
loop_
_space_group_symop_operation_xyz
x,y,z
-y,x-y,2/3+z
-x+y,-x,1/3+z
x-y,-y,1/3-z
-x,-x+y,2/3-z
y,x,-z
loop_
_atom_site_type_symbol
_atom_site_label
_atom_site_fract_x
_atom_site_fract_y
_atom_site_fract_z
Si Si1 0.610883 0.217139 0.393442
Si Si2 0.019461 0.019461 0.500000
Si Si3 0.843324 0.843324 0.000000
Si Si4 0.053972 0.731501 0.602133
Si Si5 0.224407 0.885791 0.104928
Si Si6 0.260074 0.184653 0.913580
Si Si7 0.757983 0.406973 0.550059
Si Si8 0.009591 0.384140 0.058226
O O1 0.648018 0.111799 0.361016
O O2 0.696908 0.304965 0.472515
O O3 0.620375 0.301278 0.308849
O O4 0.468122 0.129012 0.433146
O O5 0.050602 0.111348 0.416473
O O6 0.895912 0.013204 0.542988
O O7 0.721287 0.845106 0.962960
O O8 0.060694 0.720537 0.496993
O O9 0.910594 0.711091 0.615060
O O10 0.233378 0.771015 0.150805
O O11 0.240792 0.000000 0.166667
O O12 0.346284 0.962281 0.041869
O O13 0.306829 0.083301 0.925604
O O14 0.255263 0.255263 0.000000
O O15 0.891483 0.418651 0.578413
#
# Coordination Sequence:
#
# PCOD9576472 Si02
#       8
#     6   3   3   6   6   6   6   6
#     4  11  25  47  69  98 138 184 236 298 355 431
#     4  10  20  36  56  94 138 172 222 272 344 422
#     4  10  22  34  60  90 136 178 212 286 348 424
#     4  11  23  41  63  99 140 171 230 293 354 431
#     4  11  23  40  70  96 133 187 239 293 354 420
#     4  11  22  37  63  96 133 177 226 281 358 413
#     4  11  24  47  71  97 141 183 246 291 353 434
#     4  11  23  43  67  96 135 182 231 300 352 424
#
# _framework density 21.722165
#
# number of rings (size 3 to 8) (size 9 to 14) (size 15 to 20)
#    0.000    1.143    3.571    2.571    6.000    2.286 
#    0.000    0.000    1.571    0.000    0.000    0.000 
#    0.000    0.000    0.000    0.000    0.000    0.000 
#
# Total GULP energy -233914.606326 kJ/mol
# GULP energy per Si atom -5569.395389 kJ/mol
# Density = 2.167272 g / cm^3
# Si number density = 21.722165 Si / 1000 Ang^3
#
#
#
# Elastic Constant Matrix: (Units=GPa)
#
#
# Indices 1 2 3 4 5 6 
#
# 1 101.6724 34.8995 18.0259 -5.0659 0.0001 0.0000
# 2 34.8995 101.6724 18.0259 5.0659 -0.0001 0.0000
# 3 18.0259 18.0259 72.6749 0.0000 0.0000 0.0000
# 4 -5.0659 5.0659 0.0000 21.1850 0.0000 -0.0001
# 5 0.0001 -0.0001 0.0000 0.0000 21.1850 -5.0659
# 6 0.0000 0.0000 0.0000 -0.0001 -5.0659 33.3865
#
#
#
# Elastic Compliance Matrix: (Units=1/GPa)
#
#
# Indices 1 2 3 4 5 6 
#
# 1 0.011688 -0.003852 -0.001943 0.003716 0.000000 0.000000
# 2 -0.003852 0.011688 -0.001943 -0.003716 0.000000 0.000000
# 3 -0.001943 -0.001943 0.014724 0.000000 0.000000 0.000000
# 4 0.003716 -0.003716 0.000000 0.048980 0.000000 0.000000
# 5 0.000000 0.000000 0.000000 0.000000 0.048980 0.007432
# 6 0.000000 0.000000 0.000000 0.000000 0.007432 0.031080
#
#
# Mechanical properties :
#
#
# Convention : Reuss Voigt Hill
#
# Bulk Modulus (GPa) = 44.20723 46.43579 45.32151
# Shear Modulus (GPa) = 26.29384 28.82252 27.55818
#
# Velocity S-wave (km/s) = 3.48294 3.64658 3.56570
# Velocity P-wave (km/s) = 6.04731 6.25728 6.15319
#
# Compressibility (1/GPa) = 0.02262073
#
# Stress axis : x y z
#
# Youngs Moduli (GPa) = 85.56101 85.56101 67.91647
#
# Poissons Ratio (x) = 0.32962 0.13199
# Poissons Ratio (y) = 0.32962 0.13199
# Poissons Ratio (z) = 0.16628 0.16628
#
# Static dielectric constant tensor:
#      x y z
#    x 1.880670 0.000000 0.000000 
#    y 0.000000 1.880670 0.000000 
#    z 0.000000 0.000000 1.850390 
# 
# From -- ./inp_files/2484.got.cif
#   From: 2010.05.17/outbox.cif.g08.bks.cpg/sg154_2_cif.got.tgz:2484.got - 2010.05.20 10:41:43.
