data_PCOD9576500
_publ_section_title
;
Structure prediction by ZEFSAII (Michael W. Deem and Ramdas Pophale) SiO2 
 PCOD9576500
Probable space group: P 32 2 1
;
_chemical_formula_sum "Si O2"
_cell_formula_units_Z 30
_cell_length_a 9.340447
_cell_length_b 9.340447
_cell_length_c 19.010926
_cell_angle_alpha 90.000000
_cell_angle_beta 90.000000
_cell_angle_gamma 120.000000
_cell_volume 1436.379585
_symmetry_space_group_name_H-M "P 32 2 1"
_symmetry_group_IT_number 154
_symmetry_cell_setting 'hexagonal'
loop_
_space_group_symop_operation_xyz
x,y,z
-y,x-y,2/3+z
-x+y,-x,1/3+z
x-y,-y,1/3-z
-x,-x+y,2/3-z
y,x,-z
loop_
_atom_site_type_symbol
_atom_site_label
_atom_site_fract_x
_atom_site_fract_y
_atom_site_fract_z
Si Si1 0.738312 0.489529 0.803685
Si Si2 0.363050 0.249115 0.839532
Si Si3 0.238908 0.862466 0.221346
Si Si4 0.979366 0.220525 0.036890
Si Si5 0.881697 0.820006 0.895312
O O1 0.556700 0.353684 0.827758
O O2 0.836991 0.395498 0.785912
O O3 0.728900 0.577482 0.732031
O O4 0.817605 0.634678 0.863720
O O5 0.299105 0.373872 0.861189
O O6 0.306602 0.124921 0.905550
O O7 0.271028 0.125132 0.773350
O O8 0.262602 0.000000 0.166667
O O9 0.225455 0.933268 0.296472
O O10 0.877352 0.019601 0.043862
O O11 0.000000 0.936891 0.833334
#
# Coordination Sequence:
#
# PCOD9576500 Si02
#       5
#     6   6   6   6   6
#     4  10  21  39  63  93 125 156 201 269 328 371
#     4  10  20  38  64  91 119 157 205 262 316 378
#     4  12  23  38  62  91 120 162 217 263 303 375
#     4  10  22  40  59  85 125 169 202 245 320 392
#     4   8  17  39  61  82 121 164 195 243 312 382
#
# _framework density 20.885843999999999
#
# number of rings (size 3 to 8) (size 9 to 14) (size 15 to 20)
#    0.000    2.400    0.000    6.600    0.000    3.200 
#    0.000    4.000    0.000    9.600    0.000    0.000 
#    0.000    0.000    0.000    0.000    0.000    0.000 
#
# Total GULP energy -167186.790237 kJ/mol
# GULP energy per Si atom -5572.893008 kJ/mol
# Density = 2.083831 g / cm^3
# Si number density = 20.885844 Si / 1000 Ang^3
#
#
#
# Elastic Constant Matrix: (Units=GPa)
#
#
# Indices 1 2 3 4 5 6 
#
# 1 147.2113 30.6988 41.2119 26.7023 0.0011 0.0000
# 2 30.6988 147.2113 41.2119 -26.7023 -0.0011 0.0000
# 3 41.2119 41.2119 96.3551 0.0000 0.0000 0.0000
# 4 26.7023 -26.7023 0.0000 69.0692 0.0000 -0.0011
# 5 0.0011 -0.0011 0.0000 0.0000 69.0692 26.7023
# 6 0.0000 0.0000 0.0000 -0.0011 26.7023 58.2563
#
#
#
# Elastic Compliance Matrix: (Units=1/GPa)
#
#
# Indices 1 2 3 4 5 6 
#
# 1 0.008721 -0.001711 -0.002998 -0.004033 0.000000 0.000000
# 2 -0.001711 0.008721 -0.002998 0.004033 0.000000 0.000000
# 3 -0.002998 -0.002998 0.012943 0.000000 0.000000 0.000000
# 4 -0.004033 0.004033 0.000000 0.017596 0.000000 0.000000
# 5 0.000000 0.000000 0.000000 0.000000 0.017596 -0.008065
# 6 0.000000 0.000000 0.000000 0.000000 -0.008065 0.020862
#
#
# Mechanical properties :
#
#
# Convention : Reuss Voigt Hill
#
# Bulk Modulus (GPa) = 66.80043 68.55810 67.67926
# Shear Modulus (GPa) = 46.79761 57.78929 52.29345
#
# Velocity S-wave (km/s) = 4.73867 5.26585 5.00920
# Velocity P-wave (km/s) = 7.87357 8.35875 8.11978
#
# Compressibility (1/GPa) = 0.01496996
#
# Stress axis : x y z
#
# Youngs Moduli (GPa) = 114.67211 114.67211 77.26207
#
# Poissons Ratio (x) = 0.19617 0.23164
# Poissons Ratio (y) = 0.19617 0.23164
# Poissons Ratio (z) = 0.34381 0.34381
#
# Static dielectric constant tensor:
#      x y z
#    x 1.727830 0.000000 0.000000 
#    y 0.000000 1.727830 0.000000 
#    z 0.000000 0.000000 1.842570 
# 
# From -- ./inp_files/3057.got.cif
#   From: 2010.05.17/outbox.cif.g08.bks.cpg/sg154_2_cif.got.tgz:3057.got - 2010.05.20 10:41:43.
