data_PCOD9576238
_publ_section_title
;
Structure prediction by ZEFSAII (Michael W. Deem and Ramdas Pophale) SiO2 
 PCOD9576238
Probable space group: P 32 1 2
;
_chemical_formula_sum "Si O2"
_cell_formula_units_Z 39
_cell_length_a 8.415778
_cell_length_b 8.415778
_cell_length_c 25.677433
_cell_angle_alpha 90.000000
_cell_angle_beta 90.000000
_cell_angle_gamma 120.000000
_cell_volume 1574.964531
_symmetry_space_group_name_H-M "P 32 1 2"
_symmetry_group_IT_number 153
_symmetry_cell_setting 'hexagonal'
loop_
_space_group_symop_operation_xyz
x,y,z
-y,x-y,2/3+z
-x+y,-x,1/3+z
-y,-x,1/3-z
-x+y,y,2/3-z
x,x-y,-z
loop_
_atom_site_type_symbol
_atom_site_label
_atom_site_fract_x
_atom_site_fract_y
_atom_site_fract_z
Si Si1 0.233370 0.283922 0.644328
Si Si2 0.423625 0.891281 0.928230
Si Si3 0.822703 0.257822 0.765136
Si Si4 0.444047 0.090368 0.640160
Si Si5 0.772267 0.544534 0.833334
Si Si6 0.129886 0.804597 0.791341
Si Si7 0.896450 0.940971 0.582226
O O1 0.235490 0.465052 0.623512
O O2 0.064400 0.116491 0.612343
O O3 0.185465 0.234927 0.704992
O O4 0.413210 0.264240 0.637939
O O5 0.419321 0.062879 0.903517
O O6 0.490453 0.809718 0.882835
O O7 0.583455 0.981174 0.972489
O O8 0.871372 0.355575 0.708763
O O9 0.783730 0.399824 0.795487
O O10 0.985363 0.221725 0.781111
O O11 0.307072 0.968079 0.594748
O O12 0.991997 0.692404 0.838766
O O13 0.143792 0.001794 0.784393
#
# Coordination Sequence:
#
# PCOD9576238 Si02
#       7
#     6   6   6   6   3   6   6
#     4   9  17  29  53  88 120 140 174 223 295 367
#     4  11  19  33  59  90 112 147 192 240 297 356
#     4  10  21  36  58  80 114 149 192 242 290 340
#     4  10  18  34  55  86 122 144 175 239 304 355
#     4  10  24  42  54  76 112 162 202 240 282 334
#     4  10  21  36  59  80 114 153 195 236 286 354
#     4   9  16  32  56  83 107 145 185 227 279 356
#
# _framework density 24.762460999999998
#
# number of rings (size 3 to 8) (size 9 to 14) (size 15 to 20)
#    0.000    2.154    3.077    0.923    0.000    1.231 
#    0.000    6.154    0.000    7.385    0.000    0.000 
#    0.000    0.000    0.000    0.000    0.000    0.000 
#
# Total GULP energy -217519.443103 kJ/mol
# GULP energy per Si atom -5577.421618 kJ/mol
# Density = 2.470610 g / cm^3
# Si number density = 24.762461 Si / 1000 Ang^3
#
#
#
# Elastic Constant Matrix: (Units=GPa)
#
#
# Indices 1 2 3 4 5 6 
#
# 1 94.1802 37.5174 19.8052 0.0002 0.8557 0.0000
# 2 37.5174 94.1802 19.8052 -0.0002 -0.8557 0.0000
# 3 19.8052 19.8052 59.9918 0.0000 0.0000 0.0000
# 4 0.0002 -0.0002 0.0000 35.5587 0.0000 -0.8557
# 5 0.8557 -0.8557 0.0000 0.0000 35.5587 0.0002
# 6 0.0000 0.0000 0.0000 -0.8557 0.0002 28.3314
#
#
#
# Elastic Compliance Matrix: (Units=1/GPa)
#
#
# Indices 1 2 3 4 5 6 
#
# 1 0.013046 -0.004615 -0.002783 0.000000 -0.000425 0.000000
# 2 -0.004615 0.013046 -0.002783 0.000000 0.000425 0.000000
# 3 -0.002783 -0.002783 0.018507 0.000000 0.000000 0.000000
# 4 0.000000 0.000000 0.000000 0.028143 0.000000 0.000850
# 5 -0.000425 0.000425 0.000000 0.000000 0.028143 0.000000
# 6 0.000000 0.000000 0.000000 0.000850 0.000000 0.035322
#
#
# Mechanical properties :
#
#
# Convention : Reuss Voigt Hill
#
# Bulk Modulus (GPa) = 41.26331 44.73420 42.99876
# Shear Modulus (GPa) = 30.36791 31.30470 30.83631
#
# Velocity S-wave (km/s) = 3.50575 3.55942 3.53269
# Velocity P-wave (km/s) = 5.75212 5.91584 5.83455
#
# Compressibility (1/GPa) = 0.02423461
#
# Stress axis : x y z
#
# Youngs Moduli (GPa) = 76.65382 76.65382 54.03507
#
# Poissons Ratio (x) = 0.35379 0.15038
# Poissons Ratio (y) = 0.35379 0.15038
# Poissons Ratio (z) = 0.21333 0.21333
#
# Static dielectric constant tensor:
#      x y z
#    x 2.010240 0.000000 0.000000 
#    y 0.000000 2.010240 0.000000 
#    z 0.000000 0.000000 2.086730 
# 
# From -- ./inp_files/5124.got.cif
#   From: 2010.05.17/outbox.cif.g08.bks.cpg/sg153_3_cif.got.tgz:5124.got - 2010.05.20 10:38:56.
