data_PCOD9576552
_publ_section_title
;
Structure prediction by ZEFSAII (Michael W. Deem and Ramdas Pophale) SiO2 
 PCOD9576552
Probable space group: P 32 2 1
;
_chemical_formula_sum "Si O2"
_cell_formula_units_Z 48
_cell_length_a 11.209463
_cell_length_b 11.209463
_cell_length_c 19.380442
_cell_angle_alpha 90.000000
_cell_angle_beta 90.000000
_cell_angle_gamma 120.000000
_cell_volume 2108.938547
_symmetry_space_group_name_H-M "P 32 2 1"
_symmetry_group_IT_number 154
_symmetry_cell_setting 'hexagonal'
loop_
_space_group_symop_operation_xyz
x,y,z
-y,x-y,2/3+z
-x+y,-x,1/3+z
x-y,-y,1/3-z
-x,-x+y,2/3-z
y,x,-z
loop_
_atom_site_type_symbol
_atom_site_label
_atom_site_fract_x
_atom_site_fract_y
_atom_site_fract_z
Si Si1 0.620187 0.572359 0.710924
Si Si2 0.625564 0.216084 0.030965
Si Si3 0.181927 0.032325 0.027875
Si Si4 0.840959 0.466917 0.276987
Si Si5 0.928940 0.064263 0.452827
Si Si6 0.373929 0.738612 0.512764
Si Si7 0.994936 0.357873 0.459006
Si Si8 0.262097 0.329559 0.874355
O O1 0.692519 0.484694 0.683556
O O2 0.475221 0.540926 0.671957
O O3 0.732934 0.729278 0.691288
O O4 0.613063 0.577051 0.795484
O O5 0.549576 0.302784 0.010610
O O6 0.629630 0.240383 0.113554
O O7 0.280975 0.114088 0.091507
O O8 0.139574 0.139574 0.000000
O O9 0.036909 0.908522 0.054102
O O10 0.721303 0.412187 0.219972
O O11 0.910519 0.375964 0.265069
O O12 0.965636 0.617104 0.258868
O O13 0.011160 0.226307 0.447146
O O14 0.794090 0.034616 0.493713
O O15 0.011951 0.011951 0.500000
O O16 0.326358 0.837987 0.550581
O O17 0.533536 0.842525 0.498006
#
# Coordination Sequence:
#
# PCOD9576552 Si02
#       8
#     6   6   6   6   6   6   6   6
#     4  12  25  45  73 101 144 186 233 291 365 419
#     4  12  26  46  68 109 139 185 236 298 356 433
#     4  11  23  40  66  96 129 176 230 286 334 410
#     4  11  23  43  70  98 134 178 229 286 346 419
#     4  10  21  40  62  96 131 170 224 278 349 411
#     4  11  22  40  72  97 129 171 238 279 342 407
#     4  11  23  44  70  95 136 188 227 288 354 426
#     4  10  21  38  70  92 124 174 230 283 329 409
#
# _framework density 22.760263999999999
#
# number of rings (size 3 to 8) (size 9 to 14) (size 15 to 20)
#    0.000    1.000    5.000    2.250    1.750    2.500 
#    6.750    0.625    0.000    0.000    0.000    0.000 
#    0.000    0.000    0.000    0.000    0.000    0.000 
#
# Total GULP energy -267598.817660 kJ/mol
# GULP energy per Si atom -5574.975368 kJ/mol
# Density = 2.270846 g / cm^3
# Si number density = 22.760264 Si / 1000 Ang^3
#
#
#
# Elastic Constant Matrix: (Units=GPa)
#
#
# Indices 1 2 3 4 5 6 
#
# 1 60.5815 85.3181 7.8474 -27.4568 0.0000 0.0000
# 2 85.3181 60.5815 7.8474 27.4568 0.0000 0.0000
# 3 7.8474 7.8474 34.2658 0.0000 0.0000 0.0000
# 4 -27.4568 27.4568 0.0000 3.6228 0.0000 0.0000
# 5 0.0000 0.0000 0.0000 0.0000 3.6228 -27.4568
# 6 0.0000 0.0000 0.0000 0.0000 -27.4568 -12.3683
#
#
#
# Elastic Compliance Matrix: (Units=1/GPa)
#
#
# Indices 1 2 3 4 5 6 
#
# 1 0.002380 0.004648 -0.001609 -0.017189 0.000000 0.000000
# 2 0.004648 0.002380 -0.001609 0.017189 0.000000 0.000000
# 3 -0.001609 -0.001609 0.029921 0.000000 0.000000 0.000000
# 4 -0.017189 0.017189 0.000000 0.015486 0.000000 0.000000
# 5 0.000000 0.000000 0.000000 0.000000 0.015486 -0.034378
# 6 0.000000 0.000000 0.000000 0.000000 -0.034378 -0.004536
#
#
# Mechanical properties :
#
#
# Convention : Reuss Voigt Hill
#
# Bulk Modulus (GPa) = 26.63989 39.71719 33.17854
# Shear Modulus (GPa) = 70.65118 2.60320 36.62719
#
# Velocity S-wave (km/s) = 5.57753 1.07062 4.01591
# Velocity P-wave (km/s) = 7.29441 4.36078 6.00936
#
# Compressibility (1/GPa) = 0.03753769
#
# Stress axis : x y z
#
# Youngs Moduli (GPa) = 420.24318 420.24318 33.42168
#
# Poissons Ratio (x) = -1.95311 0.05379
# Poissons Ratio (y) = -1.95311 0.05379
# Poissons Ratio (z) = 0.67631 0.67631
#
# Static dielectric constant tensor:
#      x y z
#    x 1.896550 0.000000 0.000000 
#    y 0.000000 1.896550 0.000000 
#    z 0.000000 0.000000 2.004540 
# 
# From -- ./inp_files/2880.got.cif
#   From: 2010.05.17/outbox.cif.g08.bks.cpg/sg154_2_cif.got.tgz:2880.got - 2010.05.20 10:41:43.
