data_PCOD9576925
_publ_section_title
;
Structure prediction by ZEFSAII (Michael W. Deem and Ramdas Pophale) SiO2 
 PCOD9576925
Probable space group: R 3 2
;
_chemical_formula_sum "Si O2"
_cell_formula_units_Z 81
_cell_length_a 20.757059
_cell_length_b 20.757059
_cell_length_c 11.529384
_cell_angle_alpha 90.000000
_cell_angle_beta 90.000000
_cell_angle_gamma 120.000000
_cell_volume 4301.979885
_symmetry_space_group_name_H-M "R 3 2"
_symmetry_group_IT_number 155
_symmetry_cell_setting 'hexagonal'
loop_
_space_group_symop_operation_xyz
x,y,z
-y,x-y,z
-x+y,-x,z
x-y,-y,-z
-x,-x+y,-z
y,x,-z
2/3+x,1/3+y,1/3+z
2/3-y,1/3+x-y,1/3+z
2/3-x+y,1/3-x,1/3+z
2/3+x-y,1/3-y,1/3-z
2/3-x,1/3-x+y,1/3-z
2/3+y,1/3+x,1/3-z
1/3+x,2/3+y,2/3+z
1/3-y,2/3+x-y,2/3+z
1/3-x+y,2/3-x,2/3+z
1/3+x-y,2/3-y,2/3-z
1/3-x,2/3-x+y,2/3-z
1/3+y,2/3+x,2/3-z
loop_
_atom_site_type_symbol
_atom_site_label
_atom_site_fract_x
_atom_site_fract_y
_atom_site_fract_z
Si Si1 0.192052 0.745535 0.906555
Si Si2 0.548567 0.662888 0.960845
Si Si3 0.416944 0.467593 0.667498
Si Si4 0.316565 0.000000 0.500000
Si Si5 0.589541 0.833893 0.396466
O O1 0.275943 0.800105 0.945944
O O2 0.186544 0.746223 0.766122
O O3 0.146082 0.660898 0.950180
O O4 0.144339 0.781074 0.957153
O O5 0.595275 0.659480 0.851455
O O6 0.481190 0.580683 0.982639
O O7 0.608812 0.681679 0.061375
O O8 0.333334 0.396140 0.666667
O O9 0.433264 0.496472 0.798327
O O10 0.666667 0.892562 0.333334
#
# Coordination Sequence:
#
# PCOD9576925 Si02
#       5
#    18  18  18   9  18
#     4  10  21  36  60  85 115 156 194 250 297 358
#     4  11  22  38  57  91 116 160 202 248 311 353
#     4   9  19  37  58  86 113 145 198 241 303 352
#     4  10  20  38  60  82 126 148 202 258 292 370
#     4  11  22  39  58  87 122 158 198 252 298 366
#
# _framework density 18.828538999999999
#
# number of rings (size 3 to 8) (size 9 to 14) (size 15 to 20)
#    0.000    1.778    2.222    3.333    0.000    5.333 
#    1.333    0.000    0.000    0.000    0.000    0.000 
#    0.000    0.000    0.000    0.000    0.000    0.000 
#
# Total GULP energy -150567.632884 kJ/mol
# GULP energy per Si atom -5576.578996 kJ/mol
# Density = 1.878568 g / cm^3
# Si number density = 18.828539 Si / 1000 Ang^3
#
#
#
# Elastic Constant Matrix: (Units=GPa)
#
#
# Indices 1 2 3 4 5 6 
#
# 1 93.8324 31.6715 18.3005 0.0650 0.0000 0.0000
# 2 31.6715 93.8324 18.3005 -0.0650 0.0000 0.0000
# 3 18.3005 18.3005 56.8980 0.0000 0.0000 0.0000
# 4 0.0650 -0.0650 0.0000 15.4976 0.0000 0.0000
# 5 0.0000 0.0000 0.0000 0.0000 15.4976 0.0650
# 6 0.0000 0.0000 0.0000 0.0000 0.0650 31.0804
#
#
#
# Elastic Compliance Matrix: (Units=1/GPa)
#
#
# Indices 1 2 3 4 5 6 
#
# 1 0.012440 -0.003647 -0.002828 -0.000067 0.000000 0.000000
# 2 -0.003647 0.012440 -0.002828 0.000067 0.000000 0.000000
# 3 -0.002828 -0.002828 0.019394 0.000000 0.000000 0.000000
# 4 -0.000067 0.000067 0.000000 0.064527 0.000000 0.000000
# 5 0.000000 0.000000 0.000000 0.000000 0.064527 -0.000135
# 6 0.000000 0.000000 0.000000 0.000000 -0.000135 0.032175
#
#
# Mechanical properties :
#
#
# Convention : Reuss Voigt Hill
#
# Bulk Modulus (GPa) = 38.95957 42.34531 40.65244
# Shear Modulus (GPa) = 21.49007 24.16782 22.82894
#
# Velocity S-wave (km/s) = 3.38206 3.58659 3.48582
# Velocity P-wave (km/s) = 5.99898 6.30002 6.15134
#
# Compressibility (1/GPa) = 0.02566763
#
# Stress axis : x y z
#
# Youngs Moduli (GPa) = 80.38571 80.38571 51.56105
#
# Poissons Ratio (x) = 0.29320 0.14582
# Poissons Ratio (y) = 0.29320 0.14582
# Poissons Ratio (z) = 0.22733 0.22733
#
# Static dielectric constant tensor:
#      x y z
#    x 1.655680 0.000000 0.000000 
#    y 0.000000 1.655680 0.000000 
#    z 0.000000 0.000000 1.841970 
# 
# From -- ./inp_files/3788.got.cif
#   From: 2010.05.17/outbox.cif.g08.bks.cpg/sg155_2_cif.got.tgz:3788.got - 2010.05.20 10:44:35.
