data_PCOD9576648
_publ_section_title
;
Structure prediction by ZEFSAII (Michael W. Deem and Ramdas Pophale) SiO2 
 PCOD9576648
Probable space group: P 32 2 1
;
_chemical_formula_sum "Si O2"
_cell_formula_units_Z 18
_cell_length_a 9.802595
_cell_length_b 9.802595
_cell_length_c 9.485054
_cell_angle_alpha 90.000000
_cell_angle_beta 90.000000
_cell_angle_gamma 120.000000
_cell_volume 789.319004
_symmetry_space_group_name_H-M "P 32 2 1"
_symmetry_group_IT_number 154
_symmetry_cell_setting 'hexagonal'
loop_
_space_group_symop_operation_xyz
x,y,z
-y,x-y,2/3+z
-x+y,-x,1/3+z
x-y,-y,1/3-z
-x,-x+y,2/3-z
y,x,-z
loop_
_atom_site_type_symbol
_atom_site_label
_atom_site_fract_x
_atom_site_fract_y
_atom_site_fract_z
Si Si1 0.985123 0.415951 0.666657
Si Si2 0.992525 0.175910 0.491108
Si Si3 0.439666 0.317967 0.886670
O O1 0.801045 0.300891 0.611141
O O2 0.057863 0.311820 0.607093
O O3 0.087142 0.581386 0.587584
O O4 0.000000 0.436362 0.833334
O O5 0.082310 0.082310 0.500000
O O6 0.000000 0.238528 0.333334
O O7 0.808861 0.066856 0.522421
O O8 0.438470 0.438470 0.000000
#
# Coordination Sequence:
#
# PCOD9576648 Si02
#       3
#     6   6   6
#     4  10  25  49  74 105 150 198 242 302 375 441
#     4  10  23  41  79 106 145 186 253 294 366 434
#     4  10  24  48  73 105 148 196 242 301 371 445
#
# _framework density 22.804465
#
# number of rings (size 3 to 8) (size 9 to 14) (size 15 to 20)
#    2.000    0.000    0.000    2.000    4.667    1.333 
#    6.000    0.000    0.000    2.000    0.000    0.000 
#    0.000    0.000    0.000    0.000    0.000    0.000 
#
# Total GULP energy -100236.260435 kJ/mol
# GULP energy per Si atom -5568.681135 kJ/mol
# Density = 2.275256 g / cm^3
# Si number density = 22.804465 Si / 1000 Ang^3
#
#
#
# Elastic Constant Matrix: (Units=GPa)
#
#
# Indices 1 2 3 4 5 6 
#
# 1 118.4950 58.2674 58.0183 8.9268 0.0000 0.0000
# 2 58.2674 118.4950 58.0183 -8.9268 0.0000 0.0000
# 3 58.0183 58.0183 220.6916 0.0000 0.0000 0.0000
# 4 8.9268 -8.9268 0.0000 35.3320 0.0000 0.0000
# 5 0.0000 0.0000 0.0000 0.0000 35.3320 8.9268
# 6 0.0000 0.0000 0.0000 0.0000 8.9268 30.1138
#
#
#
# Elastic Compliance Matrix: (Units=1/GPa)
#
#
# Indices 1 2 3 4 5 6 
#
# 1 0.012393 -0.005555 -0.001797 -0.004535 0.000000 0.000000
# 2 -0.005555 0.012393 -0.001797 0.004535 0.000000 0.000000
# 3 -0.001797 -0.001797 0.005476 0.000000 0.000000 0.000000
# 4 -0.004535 0.004535 0.000000 0.030594 0.000000 0.000000
# 5 0.000000 0.000000 0.000000 0.000000 0.030594 -0.009069
# 6 0.000000 0.000000 0.000000 0.000000 -0.009069 0.035896
#
#
# Mechanical properties :
#
#
# Convention : Reuss Voigt Hill
#
# Bulk Modulus (GPa) = 83.60541 89.58776 86.59658
# Shear Modulus (GPa) = 33.41496 39.04739 36.23117
#
# Velocity S-wave (km/s) = 3.83205 4.14245 3.99027
# Velocity P-wave (km/s) = 7.50473 7.88989 7.69972
#
# Compressibility (1/GPa) = 0.01196095
#
# Stress axis : x y z
#
# Youngs Moduli (GPa) = 80.69333 80.69333 182.60512
#
# Poissons Ratio (x) = 0.44828 0.32823
# Poissons Ratio (y) = 0.44828 0.32823
# Poissons Ratio (z) = 0.14504 0.14504
#
# Static dielectric constant tensor:
#      x y z
#    x 1.875560 0.000000 0.000000 
#    y 0.000000 1.875560 0.000000 
#    z 0.000000 0.000000 1.949890 
# 
# From -- ./inp_files/753.got.cif
#   From: 2010.05.17/outbox.cif.g08.bks.cpg/sg154_1_cif.got.tgz:753.got - 2010.05.20 10:41:43.
