data_PCOD9576878
_publ_section_title
;
Structure prediction by ZEFSAII (Michael W. Deem and Ramdas Pophale) SiO2 
 PCOD9576878
Probable space group: R 3 2
;
_chemical_formula_sum "Si O2"
_cell_formula_units_Z 96
_cell_length_a 23.809753
_cell_length_b 23.809753
_cell_length_c 9.991526
_cell_angle_alpha 90.000000
_cell_angle_beta 90.000000
_cell_angle_gamma 120.000000
_cell_volume 4905.375241
_symmetry_space_group_name_H-M "R 3 2"
_symmetry_group_IT_number 155
_symmetry_cell_setting 'hexagonal'
loop_
_space_group_symop_operation_xyz
x,y,z
-y,x-y,z
-x+y,-x,z
x-y,-y,-z
-x,-x+y,-z
y,x,-z
2/3+x,1/3+y,1/3+z
2/3-y,1/3+x-y,1/3+z
2/3-x+y,1/3-x,1/3+z
2/3+x-y,1/3-y,1/3-z
2/3-x,1/3-x+y,1/3-z
2/3+y,1/3+x,1/3-z
1/3+x,2/3+y,2/3+z
1/3-y,2/3+x-y,2/3+z
1/3-x+y,2/3-x,2/3+z
1/3+x-y,2/3-y,2/3-z
1/3-x,2/3-x+y,2/3-z
1/3+y,2/3+x,2/3-z
loop_
_atom_site_type_symbol
_atom_site_label
_atom_site_fract_x
_atom_site_fract_y
_atom_site_fract_z
Si Si1 0.029573 0.134219 0.352857
Si Si2 0.295599 0.000000 0.500000
Si Si3 0.666667 0.945969 0.333334
Si Si4 0.333334 0.666668 0.002701
Si Si5 0.626377 0.878973 0.055967
Si Si6 0.666667 0.813614 0.833334
Si Si7 0.998323 0.231238 0.222511
Si Si8 0.666667 0.179663 0.833334
O O1 0.992087 0.060871 0.297274
O O2 0.098789 0.142352 0.393454
O O3 0.000000 0.135364 0.500000
O O4 0.027530 0.184115 0.247401
O O5 0.256886 0.998759 0.371172
O O6 0.365973 0.064844 0.481338
O O7 0.659313 0.905028 0.200670
O O8 0.605511 0.956703 0.344675
O O9 0.333334 0.666668 0.166667
O O10 0.551107 0.830884 0.089940
O O11 0.659368 0.849676 0.962943
O O12 0.730034 0.805324 0.831146
#
# Coordination Sequence:
#
# PCOD9576878 Si02
#       8
#    18   9   9   6  18   9  18   9
#     4  11  17  32  53  85 116 160 194 266 321 373
#     4   9  20  40  53  79 110 160 215 268 304 388
#     4   8  18  38  58  80 116 166 196 250 312 356
#     4   9  18  27  51  75 117 139 188 250 318 349
#     4  10  20  36  57  84 120 157 207 259 304 384
#     4  11  22  35  56  88 123 162 203 260 324 394
#     4  10  21  36  58  78 118 161 207 258 330 376
#     4  10  20  33  53  89 119 154 218 258 318 382
#
# _framework density 19.570367000000001
#
# number of rings (size 3 to 8) (size 9 to 14) (size 15 to 20)
#    0.000    2.250    3.750    2.250    0.000    0.000 
#    6.750    0.000    0.000    0.000    0.000    0.000 
#    0.000    0.000    2.250    0.000    0.000    0.000 
#
# Total GULP energy -178223.844539 kJ/mol
# GULP energy per Si atom -5569.495142 kJ/mol
# Density = 1.952582 g / cm^3
# Si number density = 19.570367 Si / 1000 Ang^3
#
#
#
# Elastic Constant Matrix: (Units=GPa)
#
#
# Indices 1 2 3 4 5 6 
#
# 1 83.8563 64.3476 24.6523 -7.6142 -0.0001 -0.0004
# 2 64.3476 83.8566 24.6539 7.6138 -0.0003 0.0000
# 3 24.6523 24.6539 60.6561 0.0004 0.0052 0.0003
# 4 -7.6142 7.6138 0.0004 13.3376 0.0010 -0.0001
# 5 -0.0001 -0.0003 0.0052 0.0010 13.3429 -7.6112
# 6 -0.0004 0.0000 0.0003 -0.0001 -7.6112 9.7575
#
#
#
# Elastic Compliance Matrix: (Units=1/GPa)
#
#
# Indices 1 2 3 4 5 6 
#
# 1 0.050130 -0.042328 -0.003170 0.052782 -0.000003 0.000000
# 2 -0.042328 0.050131 -0.003172 -0.052781 0.000008 0.000005
# 3 -0.003170 -0.003172 0.019064 0.000000 -0.000014 -0.000012
# 4 0.052782 -0.052781 0.000000 0.135239 -0.000016 -0.000009
# 5 -0.000003 0.000008 -0.000014 -0.000016 0.135029 0.105328
# 6 0.000000 0.000005 -0.000012 -0.000009 0.105328 0.184646
#
#
# Mechanical properties :
#
#
# Convention : Reuss Voigt Hill
#
# Bulk Modulus (GPa) = 45.48715 50.63074 48.05895
# Shear Modulus (GPa) = 7.36477 14.93527 11.15002
#
# Velocity S-wave (km/s) = 1.94201 2.76553 2.38951
# Velocity P-wave (km/s) = 5.32183 6.01039 5.67656
#
# Compressibility (1/GPa) = 0.02198423
#
# Stress axis : x y z
#
# Youngs Moduli (GPa) = 19.94795 19.94790 52.45418
#
# Poissons Ratio (x) = 0.84436 0.16630
# Poissons Ratio (y) = 0.84436 0.16639
# Poissons Ratio (z) = 0.06324 0.06328
#
# Static dielectric constant tensor:
#      x y z
#    x 1.751050 0.000000 0.000000 
#    y 0.000000 1.751050 0.000000 
#    z 0.000000 0.000000 1.810410 
# 
# From -- ./inp_files/4053.got.cif
#   From: 2010.05.17/outbox.cif.g08.bks.cpg/sg155_3_cif.got.tgz:4053.got - 2010.05.20 10:44:35.
