data_PCOD9576964
_publ_section_title
;
Structure prediction by ZEFSAII (Michael W. Deem and Ramdas Pophale) SiO2 
 PCOD9576964
Probable space group: R 3 2
;
_chemical_formula_sum "Si O2"
_cell_formula_units_Z 63
_cell_length_a 18.977470
_cell_length_b 18.977470
_cell_length_c 11.037769
_cell_angle_alpha 90.000000
_cell_angle_beta 90.000000
_cell_angle_gamma 120.000000
_cell_volume 3442.615816
_symmetry_space_group_name_H-M "R 3 2"
_symmetry_group_IT_number 155
_symmetry_cell_setting 'hexagonal'
loop_
_space_group_symop_operation_xyz
x,y,z
-y,x-y,z
-x+y,-x,z
x-y,-y,-z
-x,-x+y,-z
y,x,-z
2/3+x,1/3+y,1/3+z
2/3-y,1/3+x-y,1/3+z
2/3-x+y,1/3-x,1/3+z
2/3+x-y,1/3-y,1/3-z
2/3-x,1/3-x+y,1/3-z
2/3+y,1/3+x,1/3-z
1/3+x,2/3+y,2/3+z
1/3-y,2/3+x-y,2/3+z
1/3-x+y,2/3-x,2/3+z
1/3+x-y,2/3-y,2/3-z
1/3-x,2/3-x+y,2/3-z
1/3+y,2/3+x,2/3-z
loop_
_atom_site_type_symbol
_atom_site_label
_atom_site_fract_x
_atom_site_fract_y
_atom_site_fract_z
Si Si1 0.773978 0.384999 0.015239
Si Si2 0.333334 0.849499 0.166667
Si Si3 0.335089 0.096302 0.020558
Si Si4 0.577977 0.153709 0.276643
O O1 0.712470 0.420271 0.015158
O O2 0.825923 0.412647 0.135523
O O3 0.830304 0.396979 0.901863
O O4 0.287647 0.870862 0.060457
O O5 0.274136 0.124384 0.967456
O O6 0.333334 0.106035 0.166667
O O7 0.291139 0.000000 0.000000
O O8 0.666667 0.187799 0.333334
O O9 0.537820 0.204486 0.333334
#
# Coordination Sequence:
#
# PCOD9576964 Si02
#       4
#    18   9  18  18
#     4  10  21  36  60  96 119 150 205 257 312 353
#     4  12  22  38  60  86 130 160 192 252 318 368
#     4  11  24  38  57  88 124 163 204 248 303 371
#     4  11  19  36  61  88 117 154 204 260 302 355
#
# _framework density 18.300038000000001
#
# number of rings (size 3 to 8) (size 9 to 14) (size 15 to 20)
#    0.571    0.571    4.286    4.571    0.000    0.000 
#    0.000    0.000    0.000    3.429    0.000    0.000 
#    0.000    0.000    0.000    0.000    0.000    0.000 
#
# Total GULP energy -116960.010067 kJ/mol
# GULP energy per Si atom -5569.524289 kJ/mol
# Density = 1.825839 g / cm^3
# Si number density = 18.300038 Si / 1000 Ang^3
#
#
#
# Elastic Constant Matrix: (Units=GPa)
#
#
# Indices 1 2 3 4 5 6 
#
# 1 47.7711 45.1349 42.4103 -8.3799 -0.0002 0.0000
# 2 45.1349 47.7711 42.4103 8.3799 0.0002 0.0000
# 3 42.4103 42.4103 175.2108 0.0000 0.0000 0.0000
# 4 -8.3799 8.3799 0.0000 26.1499 0.0000 0.0002
# 5 -0.0002 0.0002 0.0000 0.0000 26.1499 -8.3799
# 6 0.0000 0.0000 0.0000 0.0002 -8.3799 1.3181
#
#
#
# Elastic Compliance Matrix: (Units=1/GPa)
#
#
# Indices 1 2 3 4 5 6 
#
# 1 -0.175932 0.189749 -0.003344 -0.117185 -0.000002 0.000000
# 2 0.189749 -0.175932 -0.003344 0.117185 0.000002 0.000000
# 3 -0.003344 -0.003344 0.007326 0.000000 0.000000 0.000000
# 4 -0.117185 0.117185 0.000000 -0.036864 0.000000 0.000004
# 5 -0.000002 0.000002 0.000000 0.000000 -0.036865 -0.234370
# 6 0.000000 0.000000 0.000000 0.000004 -0.234370 -0.731365
#
#
# Mechanical properties :
#
#
# Convention : Reuss Voigt Hill
#
# Bulk Modulus (GPa) = 46.33360 58.96268 52.64814
# Shear Modulus (GPa) = -3.31442 20.11009 8.39783
#
# Velocity S-wave (km/s) = -1.34725 3.31858 2.14451
# Velocity P-wave (km/s) = 4.79100 6.85375 5.91302
#
# Compressibility (1/GPa) = 0.02158261
#
# Stress axis : x y z
#
# Youngs Moduli (GPa) = -5.68401 -5.68401 136.49136
#
# Poissons Ratio (x) = 1.07854 0.45649
# Poissons Ratio (y) = 1.07854 0.45648
# Poissons Ratio (z) = -0.01901 -0.01901
#
# Static dielectric constant tensor:
#      x y z
#    x 1.644580 0.000000 0.000000 
#    y 0.000000 1.644580 0.000000 
#    z 0.000000 0.000000 1.689500 
# 
# From -- ./inp_files/1985.got.cif
#   From: 2010.05.17/outbox.cif.g08.bks.cpg/sg155_1_cif.got.tgz:1985.got - 2010.05.20 10:44:35.
