data_PCOD9576387
_publ_section_title
;
Structure prediction by ZEFSAII (Michael W. Deem and Ramdas Pophale) SiO2 
 PCOD9576387
Probable space group: P 32 2 1
;
_chemical_formula_sum "Si O2"
_cell_formula_units_Z 48
_cell_length_a 11.567274
_cell_length_b 11.567274
_cell_length_c 24.693724
_cell_angle_alpha 90.000000
_cell_angle_beta 90.000000
_cell_angle_gamma 120.000000
_cell_volume 2861.404578
_symmetry_space_group_name_H-M "P 32 2 1"
_symmetry_group_IT_number 154
_symmetry_cell_setting 'hexagonal'
loop_
_space_group_symop_operation_xyz
x,y,z
-y,x-y,2/3+z
-x+y,-x,1/3+z
x-y,-y,1/3-z
-x,-x+y,2/3-z
y,x,-z
loop_
_atom_site_type_symbol
_atom_site_label
_atom_site_fract_x
_atom_site_fract_y
_atom_site_fract_z
Si Si1 0.430133 0.094490 0.438905
Si Si2 0.297795 0.802537 0.458109
Si Si3 0.560465 0.495343 0.558922
Si Si4 0.175643 0.859074 0.679221
Si Si5 0.575566 0.847571 0.422377
Si Si6 0.509824 0.193767 0.560869
Si Si7 0.906189 0.593042 0.702503
Si Si8 0.856795 0.580115 0.097206
O O1 0.448231 0.127002 0.503137
O O2 0.405759 0.199063 0.406184
O O3 0.574728 0.118762 0.421125
O O4 0.319729 0.938973 0.431460
O O5 0.448287 0.825945 0.457560
O O6 0.208714 0.655754 0.431899
O O7 0.236057 0.786504 0.517682
O O8 0.525342 0.525342 0.500000
O O9 0.717280 0.589153 0.570646
O O10 0.535312 0.344632 0.559476
O O11 0.457491 0.495499 0.602738
O O12 0.283440 0.876322 0.724062
O O13 0.203051 0.805776 0.623568
O O14 0.031299 0.743107 0.698267
O O15 0.187988 0.000000 0.666667
O O16 0.547003 0.856097 0.358638
O O17 0.697909 0.992700 0.437862
#
# Coordination Sequence:
#
# PCOD9576387 Si02
#       8
#     6   6   6   6   6   6   6   6
#     4  10  18  31  52  79 105 137 173 225 271 316
#     4   9  18  31  52  72 106 137 173 216 264 322
#     4  10  18  33  52  79 107 133 176 228 270 314
#     4  10  20  34  53  73 104 140 178 222 267 317
#     4   9  20  32  51  77 106 139 172 219 272 323
#     4   9  18  31  49  79 104 132 174 217 265 314
#     4  10  21  32  54  82 108 136 181 226 276 322
#     4   9  19  34  50  77 103 138 175 215 271 326
#
# _framework density 16.774978999999998
#
# number of rings (size 3 to 8) (size 9 to 14) (size 15 to 20)
#    0.000    2.500    1.250    0.750    8.750    0.000 
#    0.000    0.000    5.500    0.750    0.000    0.000 
#    0.000    0.000    0.000    0.000    0.000    0.000 
#
# Total GULP energy -267284.972305 kJ/mol
# GULP energy per Si atom -5568.436923 kJ/mol
# Density = 1.673680 g / cm^3
# Si number density = 16.774979 Si / 1000 Ang^3
#
#
#
# Elastic Constant Matrix: (Units=GPa)
#
#
# Indices 1 2 3 4 5 6 
#
# 1 66.5309 36.7158 39.8886 2.1733 -0.0001 0.0000
# 2 36.7158 66.5309 39.8886 -2.1733 0.0001 0.0000
# 3 39.8886 39.8886 68.7412 0.0000 0.0000 0.0000
# 4 2.1733 -2.1733 0.0000 18.4030 0.0000 0.0001
# 5 -0.0001 0.0001 0.0000 0.0000 18.4030 2.1733
# 6 0.0000 0.0000 0.0000 0.0001 2.1733 14.9076
#
#
#
# Elastic Compliance Matrix: (Units=1/GPa)
#
#
# Indices 1 2 3 4 5 6 
#
# 1 0.025843 -0.008285 -0.010188 -0.004030 0.000000 0.000000
# 2 -0.008285 0.025843 -0.010188 0.004030 0.000000 0.000000
# 3 -0.010188 -0.010188 0.026371 0.000000 0.000000 0.000000
# 4 -0.004030 0.004030 0.000000 0.055291 0.000000 0.000000
# 5 0.000000 0.000000 0.000000 0.000000 0.055291 -0.008061
# 6 0.000000 0.000000 0.000000 0.000000 -0.008061 0.068255
#
#
# Mechanical properties :
#
#
# Convention : Reuss Voigt Hill
#
# Bulk Modulus (GPa) = 48.23058 48.30991 48.27025
# Shear Modulus (GPa) = 15.57010 16.03006 15.80008
#
# Velocity S-wave (km/s) = 3.04990 3.09462 3.07234
# Velocity P-wave (km/s) = 6.42000 6.45215 6.43610
#
# Compressibility (1/GPa) = 0.02073373
#
# Stress axis : x y z
#
# Youngs Moduli (GPa) = 38.69553 38.69553 37.91985
#
# Poissons Ratio (x) = 0.32059 0.38634
# Poissons Ratio (y) = 0.32059 0.38634
# Poissons Ratio (z) = 0.39425 0.39425
#
# Static dielectric constant tensor:
#      x y z
#    x 1.581580 0.000000 0.000000 
#    y 0.000000 1.581580 0.000000 
#    z 0.000000 0.000000 1.559050 
# 
# From -- ./inp_files/3544.got.cif
#   From: 2010.05.17/outbox.cif.g08.bks.cpg/sg154_2_cif.got.tgz:3544.got - 2010.05.20 10:41:43.
