data_PCOD9576831
_publ_section_title
;
Structure prediction by ZEFSAII (Michael W. Deem and Ramdas Pophale) SiO2 
 PCOD9576831
Probable space group: R 3 2
;
_chemical_formula_sum "Si O2"
_cell_formula_units_Z 108
_cell_length_a 17.524130
_cell_length_b 17.524130
_cell_length_c 22.753264
_cell_angle_alpha 90.000000
_cell_angle_beta 90.000000
_cell_angle_gamma 120.000000
_cell_volume 6051.280297
_symmetry_space_group_name_H-M "R 3 2"
_symmetry_group_IT_number 155
_symmetry_cell_setting 'hexagonal'
loop_
_space_group_symop_operation_xyz
x,y,z
-y,x-y,z
-x+y,-x,z
x-y,-y,-z
-x,-x+y,-z
y,x,-z
2/3+x,1/3+y,1/3+z
2/3-y,1/3+x-y,1/3+z
2/3-x+y,1/3-x,1/3+z
2/3+x-y,1/3-y,1/3-z
2/3-x,1/3-x+y,1/3-z
2/3+y,1/3+x,1/3-z
1/3+x,2/3+y,2/3+z
1/3-y,2/3+x-y,2/3+z
1/3-x+y,2/3-x,2/3+z
1/3+x-y,2/3-y,2/3-z
1/3-x,2/3-x+y,2/3-z
1/3+y,2/3+x,2/3-z
loop_
_atom_site_type_symbol
_atom_site_label
_atom_site_fract_x
_atom_site_fract_y
_atom_site_fract_z
Si Si1 0.379226 0.095662 0.396073
Si Si2 0.668368 0.512725 0.513139
Si Si3 0.331027 0.487951 0.843666
Si Si4 0.224523 0.275788 0.056910
Si Si5 0.633441 0.912491 0.226324
Si Si6 0.320465 0.090358 0.597268
O O1 0.409541 0.076208 0.333334
O O2 0.442353 0.108301 0.451391
O O3 0.378596 0.185978 0.392509
O O4 0.282168 0.014649 0.409360
O O5 0.743103 0.484317 0.507606
O O6 0.573469 0.429068 0.525230
O O7 0.706424 0.587569 0.563465
O O8 0.332092 0.446356 0.780521
O O9 0.364772 0.437976 0.886486
O O10 0.312276 0.371021 0.059128
O O11 0.224266 0.224266 0.000000
O O12 0.590124 0.923457 0.166667
O O13 0.613206 0.814043 0.237623
O O14 0.333334 0.110015 0.666667
#
# Coordination Sequence:
#
# PCOD9576831 Si02
#       6
#    18  18  18  18  18  18
#     4  10  21  34  53  82 111 143 179 217 267 329
#     4  10  19  34  54  77 110 146 179 223 274 325
#     4   9  19  32  50  77 105 140 180 218 270 327
#     4  10  19  32  52  78 107 138 175 219 265 322
#     4   9  19  34  52  75 102 138 182 225 271 316
#     4  10  21  36  53  77 108 143 184 230 276 323
#
# _framework density 17.847462
#
# number of rings (size 3 to 8) (size 9 to 14) (size 15 to 20)
#    0.000    2.333    0.000    3.333    0.000    6.667 
#    0.000    0.000    0.000    6.000    0.000    4.667 
#    0.000    0.000    0.000    0.000    0.000    0.000 
#
# Total GULP energy -200718.150470 kJ/mol
# GULP energy per Si atom -5575.504180 kJ/mol
# Density = 1.780684 g / cm^3
# Si number density = 17.847462 Si / 1000 Ang^3
#
#
#
# Elastic Constant Matrix: (Units=GPa)
#
#
# Indices 1 2 3 4 5 6 
#
# 1 70.9430 37.5765 20.1628 3.3995 -0.0004 0.0000
# 2 37.5765 70.9430 20.1628 -3.3995 0.0004 0.0000
# 3 20.1628 20.1628 68.4754 0.0000 0.0000 0.0000
# 4 3.3995 -3.3995 0.0000 18.5860 0.0000 0.0004
# 5 -0.0004 0.0004 0.0000 0.0000 18.5860 3.3995
# 6 0.0000 0.0000 0.0000 0.0004 3.3995 16.6833
#
#
#
# Elastic Compliance Matrix: (Units=1/GPa)
#
#
# Indices 1 2 3 4 5 6 
#
# 1 0.020739 -0.010392 -0.003047 -0.005694 0.000001 0.000000
# 2 -0.010392 0.020739 -0.003047 0.005694 -0.000001 0.000000
# 3 -0.003047 -0.003047 0.016398 0.000000 0.000000 0.000000
# 4 -0.005694 0.005694 0.000000 0.055887 0.000000 -0.000001
# 5 0.000001 -0.000001 0.000000 0.000000 0.055887 -0.011388
# 6 0.000000 0.000000 0.000000 -0.000001 -0.011388 0.062261
#
#
# Mechanical properties :
#
#
# Convention : Reuss Voigt Hill
#
# Bulk Modulus (GPa) = 40.15211 40.68503 40.41857
# Shear Modulus (GPa) = 18.30281 19.60168 18.95225
#
# Velocity S-wave (km/s) = 3.20584 3.31764 3.26222
# Velocity P-wave (km/s) = 6.02075 6.12545 6.07332
#
# Compressibility (1/GPa) = 0.02490529
#
# Stress axis : x y z
#
# Youngs Moduli (GPa) = 48.21891 48.21891 60.98297
#
# Poissons Ratio (x) = 0.50107 0.18580
# Poissons Ratio (y) = 0.50107 0.18580
# Poissons Ratio (z) = 0.14691 0.14691
#
# Static dielectric constant tensor:
#      x y z
#    x 1.605090 0.000000 0.000000 
#    y 0.000000 1.605090 0.000000 
#    z 0.000000 0.000000 1.645560 
# 
# From -- ./inp_files/6957.got.cif
#   From: 2010.05.17/outbox.cif.g08.bks.cpg/sg155_4_cif.got.tgz:6957.got - 2010.05.20 10:44:35.
