data_PCOD9576142
_publ_section_title
;
Structure prediction by ZEFSAII (Michael W. Deem and Ramdas Pophale) SiO2 
 PCOD9576142
Probable space group: P 31 2 1
;
_chemical_formula_sum "Si O2"
_cell_formula_units_Z 24
_cell_length_a 14.479951
_cell_length_b 14.479951
_cell_length_c 6.902356
_cell_angle_alpha 90.000000
_cell_angle_beta 90.000000
_cell_angle_gamma 120.000000
_cell_volume 1253.320580
_symmetry_space_group_name_H-M "P 31 2 1"
_symmetry_group_IT_number 152
_symmetry_cell_setting 'hexagonal'
loop_
_space_group_symop_operation_xyz
x,y,z
-y,x-y,1/3+z
-x+y,-x,2/3+z
x-y,-y,2/3-z
-x,-x+y,1/3-z
y,x,-z
loop_
_atom_site_type_symbol
_atom_site_label
_atom_site_fract_x
_atom_site_fract_y
_atom_site_fract_z
Si Si1 0.722941 0.611726 0.909803
Si Si2 0.598962 0.476525 0.563212
Si Si3 0.235296 0.115030 0.925055
Si Si4 0.435260 0.234917 0.635108
O O1 0.664971 0.514332 0.762587
O O2 0.802961 0.709090 0.774878
O O3 0.635555 0.635555 0.000000
O O4 0.782630 0.596433 0.088434
O O5 0.557517 0.557517 0.500000
O O6 0.499614 0.361114 0.604794
O O7 0.683672 0.488025 0.399708
O O8 0.330541 0.186443 0.772641
O O9 0.155829 0.000000 0.833334
O O10 0.175943 0.175943 0.000000
#
# Coordination Sequence:
#
# PCOD9576142 Si02
#       4
#     6   6   6   6
#     4  11  21  45  69  83 132 177 207 265 321 379
#     4  11  25  42  65  98 129 168 218 262 323 390
#     4  11  25  44  65  98 131 169 221 265 321 390
#     4  11  25  43  66  98 130 170 217 263 325 386
#
# _framework density 19.14913
#
# number of rings (size 3 to 8) (size 9 to 14) (size 15 to 20)
#    0.000    1.000    5.000    1.500    7.000    4.000 
#    0.000    0.000    0.000    0.000    0.000    0.000 
#    0.000    0.000    0.000    0.000    0.000    0.000 
#
# Total GULP energy -134061.781200 kJ/mol
# GULP energy per Si atom -5585.907550 kJ/mol
# Density = 1.910555 g / cm^3
# Si number density = 19.149130 Si / 1000 Ang^3
#
#
#
# Elastic Constant Matrix: (Units=GPa)
#
#
# Indices 1 2 3 4 5 6 
#
# 1 79.9094 15.0872 28.6878 8.3951 0.0000 0.0000
# 2 15.0872 79.9094 28.6878 -8.3951 0.0000 0.0000
# 3 28.6878 28.6878 132.4742 0.0000 0.0000 0.0000
# 4 8.3951 -8.3951 0.0000 13.9016 0.0000 0.0000
# 5 0.0000 0.0000 0.0000 0.0000 13.9016 8.3951
# 6 0.0000 0.0000 0.0000 0.0000 8.3951 32.4111
#
#
#
# Elastic Compliance Matrix: (Units=1/GPa)
#
#
# Indices 1 2 3 4 5 6 
#
# 1 0.015199 -0.003088 -0.002623 -0.011044 0.000000 0.000000
# 2 -0.003088 0.015199 -0.002623 0.011044 0.000000 0.000000
# 3 -0.002623 -0.002623 0.008685 0.000000 0.000000 0.000000
# 4 -0.011044 0.011044 0.000000 0.085272 0.000000 0.000000
# 5 0.000000 0.000000 0.000000 0.000000 0.085272 -0.022087
# 6 0.000000 0.000000 0.000000 0.000000 -0.022087 0.036575
#
#
# Mechanical properties :
#
#
# Convention : Reuss Voigt Hill
#
# Bulk Modulus (GPa) = 44.61214 48.57984 46.59599
# Shear Modulus (GPa) = 18.49516 26.69822 22.59669
#
# Velocity S-wave (km/s) = 3.11118 3.73798 3.43889
# Velocity P-wave (km/s) = 6.02111 6.63734 6.33672
#
# Compressibility (1/GPa) = 0.02241542
#
# Stress axis : x y z
#
# Youngs Moduli (GPa) = 65.79380 65.79380 115.14752
#
# Poissons Ratio (x) = 0.20319 0.30199
# Poissons Ratio (y) = 0.20319 0.30199
# Poissons Ratio (z) = 0.17255 0.17255
#
# Static dielectric constant tensor:
#      x y z
#    x 1.697210 0.000000 0.000000 
#    y 0.000000 1.697210 0.000000 
#    z 0.000000 0.000000 1.651010 
# 
# From -- ./inp_files/133.got.cif
#   From: 2010.05.17/outbox.cif.g08.bks.cpg/sg152_1_cif.got.tgz:133.got - 2010.05.20 10:36:06.
