data_PCOD9576772
_publ_section_title
;
Structure prediction by ZEFSAII (Michael W. Deem and Ramdas Pophale) SiO2 
 PCOD9576772
Probable space group: R 3 2
;
_chemical_formula_sum "Si O2"
_cell_formula_units_Z 90
_cell_length_a 25.602125
_cell_length_b 25.602125
_cell_length_c 7.274002
_cell_angle_alpha 90.000000
_cell_angle_beta 90.000000
_cell_angle_gamma 120.000000
_cell_volume 4129.106410
_symmetry_space_group_name_H-M "R 3 2"
_symmetry_group_IT_number 155
_symmetry_cell_setting 'hexagonal'
loop_
_space_group_symop_operation_xyz
x,y,z
-y,x-y,z
-x+y,-x,z
x-y,-y,-z
-x,-x+y,-z
y,x,-z
2/3+x,1/3+y,1/3+z
2/3-y,1/3+x-y,1/3+z
2/3-x+y,1/3-x,1/3+z
2/3+x-y,1/3-y,1/3-z
2/3-x,1/3-x+y,1/3-z
2/3+y,1/3+x,1/3-z
1/3+x,2/3+y,2/3+z
1/3-y,2/3+x-y,2/3+z
1/3-x+y,2/3-x,2/3+z
1/3+x-y,2/3-y,2/3-z
1/3-x,2/3-x+y,2/3-z
1/3+y,2/3+x,2/3-z
loop_
_atom_site_type_symbol
_atom_site_label
_atom_site_fract_x
_atom_site_fract_y
_atom_site_fract_z
Si Si1 0.866203 0.135227 0.160868
Si Si2 0.934169 0.441326 0.061690
Si Si3 0.471149 0.741894 0.874182
Si Si4 0.416681 0.067943 0.535806
Si Si5 0.926563 0.864010 0.760036
O O1 0.805698 0.139031 0.166667
O O2 0.873264 0.080587 0.234493
O O3 0.921130 0.193544 0.263348
O O4 0.882046 0.147016 0.946152
O O5 0.931531 0.377517 0.021520
O O6 0.869218 0.431899 0.004914
O O7 0.000000 0.493660 0.000000
O O8 0.469326 0.734447 0.651045
O O9 0.425495 0.761989 0.951501
O O10 0.449842 0.674917 0.946723
O O11 0.431539 0.098205 0.333334
O O12 0.363538 0.000000 0.500000
#
# Coordination Sequence:
#
# PCOD9576772 Si02
#       5
#    18  18  18  18  18
#     4   9  17  29  45  66  94 128 161 195 234 288
#     4  10  18  28  43  69 101 126 157 197 243 289
#     4   9  15  27  46  70 100 125 163 199 246 293
#     4   9  15  24  38  58  91 126 151 181 224 275
#     4   9  16  26  45  73  98 129 157 205 247 287
#
# _framework density 21.796482999999998
#
# number of rings (size 3 to 8) (size 9 to 14) (size 15 to 20)
#    0.000    2.800    2.000    1.000    0.000    1.600 
#    0.000    0.000    0.000    1.200   10.400    0.000 
#    0.000    3.200    0.000    0.000    0.000    0.000 
#
# Total GULP energy -167057.797753 kJ/mol
# GULP energy per Si atom -5568.593258 kJ/mol
# Density = 2.174687 g / cm^3
# Si number density = 21.796483 Si / 1000 Ang^3
#
#
#
# Elastic Constant Matrix: (Units=GPa)
#
#
# Indices 1 2 3 4 5 6 
#
# 1 99.5625 37.2839 0.1999 1.5597 0.0181 -0.0069
# 2 37.2839 99.5068 0.1823 -1.5522 0.0041 0.0016
# 3 0.1999 0.1823 58.0743 -0.0147 0.0033 -0.0196
# 4 1.5597 -1.5522 -0.0147 8.3165 0.0067 0.0155
# 5 0.0181 0.0041 0.0033 0.0067 8.3057 1.5426
# 6 -0.0069 0.0016 -0.0196 0.0155 1.5426 31.1384
#
#
#
# Elastic Compliance Matrix: (Units=1/GPa)
#
#
# Indices 1 2 3 4 5 6 
#
# 1 0.011759 -0.004453 -0.000027 -0.003037 -0.000022 0.000005
# 2 -0.004453 0.011765 -0.000021 0.003031 0.000002 -0.000003
# 3 -0.000027 -0.000021 0.017219 0.000032 -0.000009 0.000011
# 4 -0.003037 0.003031 0.000032 0.121378 -0.000083 -0.000057
# 5 -0.000022 0.000002 -0.000009 -0.000083 0.121517 -0.006020
# 6 0.000005 -0.000003 0.000011 -0.000057 -0.006020 0.032413
#
#
# Mechanical properties :
#
#
# Convention : Reuss Voigt Hill
#
# Bulk Modulus (GPa) = 31.50465 36.94174 34.22319
# Shear Modulus (GPa) = 14.89709 24.18395 19.54052
#
# Velocity S-wave (km/s) = 2.61715 3.33458 2.99741
# Velocity P-wave (km/s) = 4.85984 5.64014 5.26447
#
# Compressibility (1/GPa) = 0.03174135
#
# Stress axis : x y z
#
# Youngs Moduli (GPa) = 85.03943 84.99428 58.07371
#
# Poissons Ratio (x) = 0.37851 0.00158
# Poissons Ratio (y) = 0.37871 0.00121
# Poissons Ratio (z) = 0.00232 0.00177
#
# Static dielectric constant tensor:
#      x y z
#    x 1.821000 -0.000020 -0.000060 
#    y -0.000020 1.821050 -0.000070 
#    z -0.000060 -0.000070 1.936810 
# 
# From -- ./inp_files/2777.got.cif
#   From: 2010.05.17/outbox.cif.g08.bks.cpg/sg155_2_cif.got.tgz:2777.got - 2010.05.20 10:44:35.
