data_PCOD9576533
_publ_section_title
;
Structure prediction by ZEFSAII (Michael W. Deem and Ramdas Pophale) SiO2 
 PCOD9576533
Probable space group: P 32 2 1
;
_chemical_formula_sum "Si O2"
_cell_formula_units_Z 21
_cell_length_a 13.520226
_cell_length_b 13.520226
_cell_length_c 5.925830
_cell_angle_alpha 90.000000
_cell_angle_beta 90.000000
_cell_angle_gamma 120.000000
_cell_volume 938.096947
_symmetry_space_group_name_H-M "P 32 2 1"
_symmetry_group_IT_number 154
_symmetry_cell_setting 'hexagonal'
loop_
_space_group_symop_operation_xyz
x,y,z
-y,x-y,2/3+z
-x+y,-x,1/3+z
x-y,-y,1/3-z
-x,-x+y,2/3-z
y,x,-z
loop_
_atom_site_type_symbol
_atom_site_label
_atom_site_fract_x
_atom_site_fract_y
_atom_site_fract_z
Si Si1 0.587538 0.000000 0.166667
Si Si2 0.744098 0.212029 0.896518
Si Si3 0.725855 0.725855 0.500000
Si Si4 0.000000 0.296466 0.333334
Si Si5 0.552226 0.151671 0.532346
O O1 0.548405 0.057869 0.358131
O O2 0.601995 0.902738 0.289813
O O3 0.876104 0.265096 0.829064
O O4 0.655664 0.181381 0.696534
O O5 0.743723 0.306743 0.056427
O O6 0.763743 0.764348 0.236358
O O7 0.103435 0.428736 0.347639
#
# Coordination Sequence:
#
# PCOD9576533 Si02
#       5
#     3   6   3   3   6
#     4  12  25  46  68  98 141 186 241 296 350 426
#     4  11  26  44  67 101 144 190 236 293 349 435
#     4  10  25  44  68  98 143 188 235 282 354 418
#     4  10  20  44  62  92 140 180 228 282 338 416
#     4  11  24  43  64  97 142 183 235 284 355 416
#
# _framework density 22.385746000000001
#
# number of rings (size 3 to 8) (size 9 to 14) (size 15 to 20)
#    0.000    1.143    2.857    3.429    8.000    2.286 
#    0.000    0.000    0.000    0.000    0.000   10.000 
#    0.000    0.000    0.000    0.000    0.000    0.000 
#
# Total GULP energy -117093.635339 kJ/mol
# GULP energy per Si atom -5575.887397 kJ/mol
# Density = 2.233479 g / cm^3
# Si number density = 22.385746 Si / 1000 Ang^3
#
#
#
# Elastic Constant Matrix: (Units=GPa)
#
#
# Indices 1 2 3 4 5 6 
#
# 1 77.1275 45.8536 39.6225 -9.4511 0.0000 0.0000
# 2 45.8536 77.1275 39.6225 9.4511 0.0000 0.0000
# 3 39.6225 39.6225 181.5831 0.0000 0.0000 0.0000
# 4 -9.4511 9.4511 0.0000 35.6908 0.0000 0.0000
# 5 0.0000 0.0000 0.0000 0.0000 35.6908 -9.4511
# 6 0.0000 0.0000 0.0000 0.0000 -9.4511 15.6370
#
#
#
# Elastic Compliance Matrix: (Units=1/GPa)
#
#
# Indices 1 2 3 4 5 6 
#
# 1 0.023765 -0.014303 -0.002065 0.010081 0.000000 0.000000
# 2 -0.014303 0.023765 -0.002065 -0.010081 0.000000 0.000000
# 3 -0.002065 -0.002065 0.006408 0.000000 0.000000 0.000000
# 4 0.010081 -0.010081 0.000000 0.033357 0.000000 0.000000
# 5 0.000000 0.000000 0.000000 0.000000 0.033357 0.020161
# 6 0.000000 0.000000 0.000000 0.000000 0.020161 0.076137
#
#
# Mechanical properties :
#
#
# Convention : Reuss Voigt Hill
#
# Bulk Modulus (GPa) = 58.57156 65.11501 61.84328
# Shear Modulus (GPa) = 20.89033 31.45303 26.17168
#
# Velocity S-wave (km/s) = 3.05814 3.75246 3.42295
# Velocity P-wave (km/s) = 6.22022 6.92282 6.58090
#
# Compressibility (1/GPa) = 0.01707313
#
# Stress axis : x y z
#
# Youngs Moduli (GPa) = 42.07869 42.07869 156.05172
#
# Poissons Ratio (x) = 0.60186 0.32218
# Poissons Ratio (y) = 0.60186 0.32218
# Poissons Ratio (z) = 0.08688 0.08688
#
# Static dielectric constant tensor:
#      x y z
#    x 1.825040 0.000000 0.000000 
#    y 0.000000 1.825040 0.000000 
#    z 0.000000 0.000000 1.965860 
# 
# From -- ./inp_files/205.got.cif
#   From: 2010.05.17/outbox.cif.g08.bks.cpg/sg154_1_cif.got.tgz:205.got - 2010.05.20 10:41:43.
