data_PCOD9576421
_publ_section_title
;
Structure prediction by ZEFSAII (Michael W. Deem and Ramdas Pophale) SiO2 
 PCOD9576421
Probable space group: P 32 2 1
;
_chemical_formula_sum "Si O2"
_cell_formula_units_Z 30
_cell_length_a 18.947093
_cell_length_b 18.947093
_cell_length_c 4.891925
_cell_angle_alpha 90.000000
_cell_angle_beta 90.000000
_cell_angle_gamma 120.000000
_cell_volume 1520.882264
_symmetry_space_group_name_H-M "P 32 2 1"
_symmetry_group_IT_number 154
_symmetry_cell_setting 'hexagonal'
loop_
_space_group_symop_operation_xyz
x,y,z
-y,x-y,2/3+z
-x+y,-x,1/3+z
x-y,-y,1/3-z
-x,-x+y,2/3-z
y,x,-z
loop_
_atom_site_type_symbol
_atom_site_label
_atom_site_fract_x
_atom_site_fract_y
_atom_site_fract_z
Si Si1 0.739339 0.643671 0.970881
Si Si2 0.225581 0.699990 0.269466
Si Si3 0.347033 0.188005 0.142345
Si Si4 0.329510 0.794518 0.777879
Si Si5 0.187030 0.187030 0.000000
Si Si6 0.083045 0.083045 0.500000
O O1 0.816068 0.675394 0.764188
O O2 0.676484 0.552511 0.863804
O O3 0.701176 0.701176 0.000000
O O4 0.768379 0.637219 0.271485
O O5 0.162962 0.728946 0.168792
O O6 0.258942 0.738527 0.565122
O O7 0.192726 0.605210 0.314875
O O8 0.301928 0.743671 0.059744
O O9 0.276890 0.198583 0.001253
O O10 0.124929 0.146730 0.745910
O O11 0.000000 0.061475 0.333334
#
# Coordination Sequence:
#
# PCOD9576421 Si02
#       6
#     6   6   6   6   3   3
#     4  10  21  38  57  83 114 148 198 235 285 344
#     4  10  19  34  54  84 116 147 195 237 288 333
#     4  10  23  38  56  84 116 151 191 237 281 365
#     4  10  19  32  56  82 113 150 190 243 282 338
#     4  12  24  40  64  86 118 158 186 232 312 352
#     4  12  24  44  62  90 118 136 192 254 286 354
#
# _framework density 19.725390000000001
#
# number of rings (size 3 to 8) (size 9 to 14) (size 15 to 20)
#    0.000    1.600    1.000    4.200    0.000    4.800 
#    1.800    0.000    0.000    0.000    0.000    0.000 
#    0.000    0.000    0.000    0.000    0.000    0.000 
#
# Total GULP energy -167107.240427 kJ/mol
# GULP energy per Si atom -5570.241348 kJ/mol
# Density = 1.968049 g / cm^3
# Si number density = 19.725390 Si / 1000 Ang^3
#
#
#
# Elastic Constant Matrix: (Units=GPa)
#
#
# Indices 1 2 3 4 5 6 
#
# 1 113.4996 23.1112 5.9026 32.4233 0.0001 0.0000
# 2 23.1112 113.4996 5.9026 -32.4233 -0.0001 0.0000
# 3 5.9026 5.9026 102.0024 0.0000 0.0000 0.0000
# 4 32.4233 -32.4233 0.0000 51.5914 0.0000 -0.0001
# 5 0.0001 -0.0001 0.0000 0.0000 51.5914 32.4233
# 6 0.0000 0.0000 0.0000 -0.0001 32.4233 45.1942
#
#
#
# Elastic Compliance Matrix: (Units=1/GPa)
#
#
# Indices 1 2 3 4 5 6 
#
# 1 0.013752 -0.006395 -0.000426 -0.012662 0.000000 0.000000
# 2 -0.006395 0.013752 -0.000426 0.012662 0.000000 0.000000
# 3 -0.000426 -0.000426 0.009853 0.000000 0.000000 0.000000
# 4 -0.012662 0.012662 0.000000 0.035298 0.000000 0.000000
# 5 0.000000 0.000000 0.000000 0.000000 0.035298 -0.025323
# 6 0.000000 0.000000 0.000000 0.000000 -0.025323 0.040294
#
#
# Mechanical properties :
#
#
# Convention : Reuss Voigt Hill
#
# Bulk Modulus (GPa) = 43.73727 44.31491 44.02609
# Shear Modulus (GPa) = 29.34939 49.28111 39.31525
#
# Velocity S-wave (km/s) = 3.86151 5.00378 4.46929
# Velocity P-wave (km/s) = 6.48868 7.47653 7.00005
#
# Compressibility (1/GPa) = 0.02286380
#
# Stress axis : x y z
#
# Youngs Moduli (GPa) = 72.71674 72.71674 101.49233
#
# Poissons Ratio (x) = 0.46503 0.04321
# Poissons Ratio (y) = 0.46503 0.04321
# Poissons Ratio (z) = 0.03096 0.03096
#
# Static dielectric constant tensor:
#      x y z
#    x 1.683140 0.000000 0.000000 
#    y 0.000000 1.683140 0.000000 
#    z 0.000000 0.000000 1.686120 
# 
# From -- ./inp_files/369.got.cif
#   From: 2010.05.17/outbox.cif.g08.bks.cpg/sg154_1_cif.got.tgz:369.got - 2010.05.20 10:41:43.
