data_PCOD9576827
_publ_section_title
;
Structure prediction by ZEFSAII (Michael W. Deem and Ramdas Pophale) SiO2 
 PCOD9576827
Probable space group: R 3 2
;
_chemical_formula_sum "Si O2"
_cell_formula_units_Z 81
_cell_length_a 22.022430
_cell_length_b 22.022430
_cell_length_c 11.296697
_cell_angle_alpha 90.000000
_cell_angle_beta 90.000000
_cell_angle_gamma 120.000000
_cell_volume 4744.741849
_symmetry_space_group_name_H-M "R 3 2"
_symmetry_group_IT_number 155
_symmetry_cell_setting 'hexagonal'
loop_
_space_group_symop_operation_xyz
x,y,z
-y,x-y,z
-x+y,-x,z
x-y,-y,-z
-x,-x+y,-z
y,x,-z
2/3+x,1/3+y,1/3+z
2/3-y,1/3+x-y,1/3+z
2/3-x+y,1/3-x,1/3+z
2/3+x-y,1/3-y,1/3-z
2/3-x,1/3-x+y,1/3-z
2/3+y,1/3+x,1/3-z
1/3+x,2/3+y,2/3+z
1/3-y,2/3+x-y,2/3+z
1/3-x+y,2/3-x,2/3+z
1/3+x-y,2/3-y,2/3-z
1/3-x,2/3-x+y,2/3-z
1/3+y,2/3+x,2/3-z
loop_
_atom_site_type_symbol
_atom_site_label
_atom_site_fract_x
_atom_site_fract_y
_atom_site_fract_z
Si Si1 0.514524 0.514524 0.000000
Si Si2 0.744180 0.109371 0.885317
Si Si3 0.000000 0.781008 0.000000
Si Si4 0.749206 0.892529 0.794320
Si Si5 0.333334 0.952369 0.666667
Si Si6 0.230176 0.002793 0.757608
O O1 0.465666 0.484844 0.114870
O O2 0.590648 0.521458 0.022614
O O3 0.666667 0.070856 0.833334
O O4 0.763818 0.052118 0.928164
O O5 0.745525 0.152793 0.001281
O O6 0.049710 0.836589 0.898805
O O7 0.666667 0.840628 0.833334
O O8 0.789116 0.849037 0.769559
O O9 0.310007 0.900516 0.557808
O O10 0.270400 0.964761 0.703244
#
# Coordination Sequence:
#
# PCOD9576827 Si02
#       6
#     9  18   9  18   9  18
#     4  11  23  32  56  88 122 152 186 230 302 371
#     4  11  21  37  54  79 116 153 194 242 293 354
#     4  10  21  34  55  76 108 159 201 238 290 346
#     4  10  19  33  52  76 113 157 196 240 297 350
#     4   9  16  30  47  70 118 157 175 216 280 345
#     4  10  19  31  49  81 116 155 184 227 289 362
#
# _framework density 17.071529999999999
#
# number of rings (size 3 to 8) (size 9 to 14) (size 15 to 20)
#    0.000    1.778    2.222    5.333    3.111    2.667 
#    0.000    0.000    0.000    0.000    0.000    0.000 
#   44.444    0.000    0.000    0.000    0.000    0.000 
#
# Total GULP energy -150380.395222 kJ/mol
# GULP energy per Si atom -5569.644267 kJ/mol
# Density = 1.703267 g / cm^3
# Si number density = 17.071530 Si / 1000 Ang^3
#
#
#
# Elastic Constant Matrix: (Units=GPa)
#
#
# Indices 1 2 3 4 5 6 
#
# 1 82.2965 42.1173 53.2661 -0.0722 -0.0004 0.0000
# 2 42.1173 82.2965 53.2661 0.0722 0.0004 0.0000
# 3 53.2661 53.2661 118.1042 -0.0001 0.0000 0.0000
# 4 -0.0722 0.0722 -0.0001 9.2439 0.0000 0.0004
# 5 -0.0004 0.0004 0.0000 0.0000 9.2440 -0.0722
# 6 0.0000 0.0000 0.0000 0.0004 -0.0722 20.0896
#
#
#
# Elastic Compliance Matrix: (Units=1/GPa)
#
#
# Indices 1 2 3 4 5 6 
#
# 1 0.018992 -0.005897 -0.005906 0.000194 0.000001 0.000000
# 2 -0.005897 0.018992 -0.005906 -0.000194 -0.000001 0.000000
# 3 -0.005906 -0.005906 0.013794 0.000000 0.000000 0.000000
# 4 0.000194 -0.000194 0.000000 0.108182 0.000000 -0.000002
# 5 0.000001 -0.000001 0.000000 0.000000 0.108182 0.000389
# 6 0.000000 0.000000 0.000000 -0.000002 0.000389 0.049778
#
#
# Mechanical properties :
#
#
# Convention : Reuss Voigt Hill
#
# Bulk Modulus (GPa) = 61.12342 64.44403 62.78373
# Shear Modulus (GPa) = 13.93568 16.65203 15.29385
#
# Velocity S-wave (km/s) = 2.86022 3.12657 2.99635
# Velocity P-wave (km/s) = 6.84031 7.13199 6.98767
#
# Compressibility (1/GPa) = 0.01636034
#
# Stress axis : x y z
#
# Youngs Moduli (GPa) = 52.65396 52.65394 72.49384
#
# Poissons Ratio (x) = 0.31051 0.42814
# Poissons Ratio (y) = 0.31051 0.42814
# Poissons Ratio (z) = 0.31097 0.31097
#
# Static dielectric constant tensor:
#      x y z
#    x 1.598540 0.000000 0.000000 
#    y 0.000000 1.598540 0.000000 
#    z 0.000000 0.000000 1.656500 
# 
# From -- ./inp_files/3847.got.cif
#   From: 2010.05.17/outbox.cif.g08.bks.cpg/sg155_2_cif.got.tgz:3847.got - 2010.05.20 10:44:35.
