data_PCOD9576886
_publ_section_title
;
Structure prediction by ZEFSAII (Michael W. Deem and Ramdas Pophale) SiO2 
 PCOD9576886
Probable space group: R 3 2
;
_chemical_formula_sum "Si O2"
_cell_formula_units_Z 81
_cell_length_a 22.161876
_cell_length_b 22.161876
_cell_length_c 11.022916
_cell_angle_alpha 90.000000
_cell_angle_beta 90.000000
_cell_angle_gamma 120.000000
_cell_volume 4688.567478
_symmetry_space_group_name_H-M "R 3 2"
_symmetry_group_IT_number 155
_symmetry_cell_setting 'hexagonal'
loop_
_space_group_symop_operation_xyz
x,y,z
-y,x-y,z
-x+y,-x,z
x-y,-y,-z
-x,-x+y,-z
y,x,-z
2/3+x,1/3+y,1/3+z
2/3-y,1/3+x-y,1/3+z
2/3-x+y,1/3-x,1/3+z
2/3+x-y,1/3-y,1/3-z
2/3-x,1/3-x+y,1/3-z
2/3+y,1/3+x,1/3-z
1/3+x,2/3+y,2/3+z
1/3-y,2/3+x-y,2/3+z
1/3-x+y,2/3-x,2/3+z
1/3+x-y,2/3-y,2/3-z
1/3-x,2/3-x+y,2/3-z
1/3+y,2/3+x,2/3-z
loop_
_atom_site_type_symbol
_atom_site_label
_atom_site_fract_x
_atom_site_fract_y
_atom_site_fract_z
Si Si1 0.311229 0.403033 0.417051
Si Si2 0.198026 0.127797 0.559844
Si Si3 0.078542 0.323331 0.977743
Si Si4 0.549407 0.666667 0.166667
Si Si5 0.327013 0.214582 0.376467
O O1 0.279581 0.333334 0.333334
O O2 0.283168 0.450374 0.355930
O O3 0.283118 0.381385 0.551661
O O4 0.393358 0.439421 0.399216
O O5 0.134596 0.134596 0.500000
O O6 0.263875 0.175160 0.473033
O O7 0.198437 0.055901 0.560187
O O8 0.081770 0.333334 0.833334
O O9 0.092804 0.390066 0.063239
O O10 0.140606 0.309304 0.013426
O O11 0.000000 0.262914 0.000000
#
# Coordination Sequence:
#
# PCOD9576886 Si02
#       5
#    18  18  18   9  18
#     4   9  16  30  53  77 108 143 183 223 286 336
#     4   8  16  30  48  75 105 140 188 229 275 333
#     4  11  23  36  52  79 111 146 190 226 267 339
#     4  10  20  34  56  76 112 152 184 234 286 320
#     4   9  19  32  50  77 108 144 182 228 276 337
#
# _framework density 17.276066
#
# number of rings (size 3 to 8) (size 9 to 14) (size 15 to 20)
#    0.000    2.667    1.111    2.000    3.111    2.667 
#    0.667    0.000    0.000    0.000    0.000    0.000 
#    0.000    0.000    0.000    0.667    0.000    0.000 
#
# Total GULP energy -150336.363532 kJ/mol
# GULP energy per Si atom -5568.013464 kJ/mol
# Density = 1.723675 g / cm^3
# Si number density = 17.276066 Si / 1000 Ang^3
#
#
#
# Elastic Constant Matrix: (Units=GPa)
#
#
# Indices 1 2 3 4 5 6 
#
# 1 95.7908 50.6934 38.1047 -1.4071 0.0002 0.0000
# 2 50.6934 95.7908 38.1046 1.4071 -0.0001 0.0000
# 3 38.1047 38.1046 93.1115 0.0002 0.0005 0.0001
# 4 -1.4071 1.4071 0.0002 22.4951 0.0001 -0.0001
# 5 0.0002 -0.0001 0.0005 0.0001 22.4953 -1.4071
# 6 0.0000 0.0000 0.0001 -0.0001 -1.4071 22.5487
#
#
#
# Elastic Compliance Matrix: (Units=1/GPa)
#
#
# Indices 1 2 3 4 5 6 
#
# 1 0.015467 -0.006794 -0.003549 0.001393 0.000000 0.000000
# 2 -0.006794 0.015467 -0.003549 -0.001392 0.000000 0.000000
# 3 -0.003549 -0.003549 0.013645 0.000000 0.000000 0.000000
# 4 0.001393 -0.001392 0.000000 0.044628 0.000000 0.000000
# 5 0.000000 0.000000 0.000000 0.000000 0.044628 0.002785
# 6 0.000000 0.000000 0.000000 0.000000 0.002785 0.044522
#
#
# Mechanical properties :
#
#
# Convention : Reuss Voigt Hill
#
# Bulk Modulus (GPa) = 59.54583 59.83316 59.68949
# Shear Modulus (GPa) = 23.61372 24.02718 23.82045
#
# Velocity S-wave (km/s) = 3.70110 3.73336 3.71726
# Velocity P-wave (km/s) = 7.26679 7.30019 7.28351
#
# Compressibility (1/GPa) = 0.01679379
#
# Stress axis : x y z
#
# Youngs Moduli (GPa) = 64.65295 64.65299 73.28729
#
# Poissons Ratio (x) = 0.43925 0.26013
# Poissons Ratio (y) = 0.43925 0.26013
# Poissons Ratio (z) = 0.22948 0.22948
#
# Static dielectric constant tensor:
#      x y z
#    x 1.608900 0.000000 0.000000 
#    y 0.000000 1.608900 0.000000 
#    z 0.000000 0.000000 1.624230 
# 
# From -- ./inp_files/3810.got.cif
#   From: 2010.05.17/outbox.cif.g08.bks.cpg/sg155_2_cif.got.tgz:3810.got - 2010.05.20 10:44:35.
