data_PCOD9576696
_publ_section_title
;
Structure prediction by ZEFSAII (Michael W. Deem and Ramdas Pophale) SiO2 
 PCOD9576696
Probable space group: P 32 2 1
;
_chemical_formula_sum "Si O2"
_cell_formula_units_Z 39
_cell_length_a 7.554719
_cell_length_b 7.554719
_cell_length_c 27.865042
_cell_angle_alpha 90.000000
_cell_angle_beta 90.000000
_cell_angle_gamma 120.000000
_cell_volume 1377.294979
_symmetry_space_group_name_H-M "P 32 2 1"
_symmetry_group_IT_number 154
_symmetry_cell_setting 'hexagonal'
loop_
_space_group_symop_operation_xyz
x,y,z
-y,x-y,2/3+z
-x+y,-x,1/3+z
x-y,-y,1/3-z
-x,-x+y,2/3-z
y,x,-z
loop_
_atom_site_type_symbol
_atom_site_label
_atom_site_fract_x
_atom_site_fract_y
_atom_site_fract_z
Si Si1 0.034768 0.252046 0.887419
Si Si2 0.221399 0.488454 0.984103
Si Si3 0.910039 0.498997 0.558919
Si Si4 0.342349 0.145476 0.378534
Si Si5 0.649591 0.751631 0.042204
Si Si6 0.505590 0.599408 0.132106
Si Si7 0.114787 0.114787 0.500000
O O1 0.424269 0.441226 0.829433
O O2 0.000000 0.321633 0.833334
O O3 0.809333 0.145289 0.910854
O O4 0.071294 0.065212 0.874003
O O5 0.158492 0.661488 0.986892
O O6 0.182247 0.405843 0.928557
O O7 0.438581 0.623558 0.011981
O O8 0.065722 0.291254 0.015371
O O9 0.079978 0.470742 0.586454
O O10 0.695350 0.287411 0.555055
O O11 0.236432 0.266476 0.401034
O O12 0.606442 0.634259 0.914493
O O13 0.810827 0.810827 0.000000
O O14 0.665674 0.804184 0.158952
#
# Coordination Sequence:
#
# PCOD9576696 Si02
#       7
#     6   6   6   6   6   6   3
#     4  10  27  48  80 127 162 228 285 367 449 531
#     4  12  25  51  85 117 173 218 299 349 443 533
#     4  12  27  47  83 113 171 224 288 360 440 532
#     4  12  26  52  81 125 163 231 284 355 441 531
#     4  12  30  47  81 117 169 223 280 368 436 523
#     4  12  27  51  73 122 161 222 287 359 436 522
#     4  10  26  48  82 116 174 206 288 364 442 526
#
# _framework density 28.316376000000002
#
# number of rings (size 3 to 8) (size 9 to 14) (size 15 to 20)
#    0.462    0.000    3.077    3.692    7.538    0.615 
#    0.000    0.000    0.000    0.000    0.000    0.000 
#    0.000    0.000    0.000    0.000    0.000    0.000 
#
# Total GULP energy -217723.030003 kJ/mol
# GULP energy per Si atom -5582.641795 kJ/mol
# Density = 2.825193 g / cm^3
# Si number density = 28.316376 Si / 1000 Ang^3
#
#
#
# Elastic Constant Matrix: (Units=GPa)
#
#
# Indices 1 2 3 4 5 6 
#
# 1 157.2078 60.9376 32.1540 8.4281 0.0000 0.0000
# 2 60.9376 157.2078 32.1540 -8.4281 0.0000 0.0000
# 3 32.1540 32.1540 135.5850 0.0000 0.0000 0.0000
# 4 8.4281 -8.4281 0.0000 32.1064 0.0000 0.0000
# 5 0.0000 0.0000 0.0000 0.0000 32.1064 8.4281
# 6 0.0000 0.0000 0.0000 0.0000 8.4281 48.1351
#
#
#
# Elastic Compliance Matrix: (Units=1/GPa)
#
#
# Indices 1 2 3 4 5 6 
#
# 1 0.007908 -0.002980 -0.001169 -0.002858 0.000000 0.000000
# 2 -0.002980 0.007908 -0.001169 0.002858 0.000000 0.000000
# 3 -0.001169 -0.001169 0.007930 0.000000 0.000000 0.000000
# 4 -0.002858 0.002858 0.000000 0.032647 0.000000 0.000000
# 5 0.000000 0.000000 0.000000 0.000000 0.032647 -0.005716
# 6 0.000000 0.000000 0.000000 0.000000 -0.005716 0.021776
#
#
# Mechanical properties :
#
#
# Convention : Reuss Voigt Hill
#
# Bulk Modulus (GPa) = 76.26707 77.83242 77.04975
# Shear Modulus (GPa) = 39.73890 44.11988 41.92939
#
# Velocity S-wave (km/s) = 3.75025 3.95157 3.85222
# Velocity P-wave (km/s) = 6.76349 6.95458 6.85970
#
# Compressibility (1/GPa) = 0.01311182
#
# Stress axis : x y z
#
# Youngs Moduli (GPa) = 126.44992 126.44992 126.10618
#
# Poissons Ratio (x) = 0.37677 0.14740
# Poissons Ratio (y) = 0.37677 0.14740
# Poissons Ratio (z) = 0.14780 0.14780
#
# Static dielectric constant tensor:
#      x y z
#    x 2.250270 0.000000 0.000000 
#    y 0.000000 2.250270 0.000000 
#    z 0.000000 0.000000 2.363440 
# 
# From -- ./inp_files/3686.got.cif
#   From: 2010.05.17/outbox.cif.g08.bks.cpg/sg154_2_cif.got.tgz:3686.got - 2010.05.20 10:41:43.
