data_PCOD9576187
_publ_section_title
;
Structure prediction by ZEFSAII (Michael W. Deem and Ramdas Pophale) SiO2 
 PCOD9576187
Probable space group: P 31 2 1
;
_chemical_formula_sum "Si O2"
_cell_formula_units_Z 42
_cell_length_a 7.978211
_cell_length_b 7.978211
_cell_length_c 30.448782
_cell_angle_alpha 90.000000
_cell_angle_beta 90.000000
_cell_angle_gamma 120.000000
_cell_volume 1678.462305
_symmetry_space_group_name_H-M "P 31 2 1"
_symmetry_group_IT_number 152
_symmetry_cell_setting 'hexagonal'
loop_
_space_group_symop_operation_xyz
x,y,z
-y,x-y,1/3+z
-x+y,-x,2/3+z
x-y,-y,2/3-z
-x,-x+y,1/3-z
y,x,-z
loop_
_atom_site_type_symbol
_atom_site_label
_atom_site_fract_x
_atom_site_fract_y
_atom_site_fract_z
Si Si1 0.700203 0.929608 0.238644
Si Si2 0.846234 0.274950 0.863017
Si Si3 0.331836 0.327666 0.774244
Si Si4 0.781254 0.181682 0.022913
Si Si5 0.284462 0.917503 0.234980
Si Si6 0.459399 0.410718 0.605276
Si Si7 0.000000 0.899191 0.666667
Si Si8 0.764907 0.764907 0.500000
O O1 0.699309 0.736314 0.221258
O O2 0.497609 0.935703 0.238562
O O3 0.772093 0.961151 0.289230
O O4 0.861985 0.083878 0.204900
O O5 0.886992 0.491765 0.861077
O O6 0.838134 0.206472 0.813963
O O7 0.656752 0.155546 0.892399
O O8 0.440789 0.371801 0.727716
O O9 0.111990 0.270361 0.763065
O O10 0.373180 0.175674 0.800530
O O11 0.945003 0.372359 0.045496
O O12 0.892910 0.071697 0.009908
O O13 0.698647 0.203492 0.977217
O O14 0.130796 0.759371 0.267985
#
# Coordination Sequence:
#
# PCOD9576187 Si02
#       8
#     6   6   6   6   6   6   3   3
#     4  12  26  47  76 111 155 198 252 316 384 458
#     4  12  24  48  75 112 149 194 250 317 377 451
#     4  12  26  44  77 109 149 191 252 305 379 444
#     4  12  27  48  73 108 145 203 246 311 381 456
#     4  12  26  47  77 110 146 202 251 312 379 458
#     4  12  28  48  75 103 153 193 252 311 386 453
#     4  12  26  46  74 104 150 198 252 298 390 448
#     4  12  22  46  72 106 152 192 244 308 372 448
#
# _framework density 25.022907
#
# number of rings (size 3 to 8) (size 9 to 14) (size 15 to 20)
#    0.000    0.000    5.714    3.857    4.000    1.143 
#    5.143    0.000    0.000    0.000    0.000    0.000 
#    0.000    0.000    0.000    0.000    0.000    0.000 
#
# Total GULP energy -234529.291571 kJ/mol
# GULP energy per Si atom -5584.030752 kJ/mol
# Density = 2.496595 g / cm^3
# Si number density = 25.022907 Si / 1000 Ang^3
#
#
#
# Elastic Constant Matrix: (Units=GPa)
#
#
# Indices 1 2 3 4 5 6 
#
# 1 57.7432 -8.0430 20.1989 -0.1692 0.0000 0.0000
# 2 -8.0430 57.7432 20.1989 0.1692 0.0000 0.0000
# 3 20.1989 20.1989 181.7307 0.0000 0.0000 0.0000
# 4 -0.1692 0.1692 0.0000 27.7336 0.0000 0.0000
# 5 0.0000 0.0000 0.0000 0.0000 27.7336 -0.1692
# 6 0.0000 0.0000 0.0000 0.0000 -0.1692 32.8931
#
#
#
# Elastic Compliance Matrix: (Units=1/GPa)
#
#
# Indices 1 2 3 4 5 6 
#
# 1 0.018660 0.003459 -0.002458 0.000093 0.000000 0.000000
# 2 0.003459 0.018660 -0.002458 -0.000093 0.000000 0.000000
# 3 -0.002458 -0.002458 0.006049 0.000000 0.000000 0.000000
# 4 0.000093 -0.000093 0.000000 0.036059 0.000000 0.000000
# 5 0.000000 0.000000 0.000000 0.000000 0.036059 0.000185
# 6 0.000000 0.000000 0.000000 0.000000 0.000185 0.030402
#
#
# Mechanical properties :
#
#
# Convention : Reuss Voigt Hill
#
# Bulk Modulus (GPa) = 24.71988 40.21406 32.46697
# Shear Modulus (GPa) = 30.80915 35.32952 33.06934
#
# Velocity S-wave (km/s) = 3.51271 3.76159 3.63927
# Velocity P-wave (km/s) = 5.13347 5.91370 5.53734
#
# Compressibility (1/GPa) = 0.04045327
#
# Stress axis : x y z
#
# Youngs Moduli (GPa) = 53.59024 53.59024 165.31236
#
# Poissons Ratio (x) = -0.18536 0.40642
# Poissons Ratio (y) = -0.18536 0.40642
# Poissons Ratio (z) = 0.13175 0.13175
#
# Static dielectric constant tensor:
#      x y z
#    x 2.027160 0.000000 0.000000 
#    y 0.000000 2.027160 0.000000 
#    z 0.000000 0.000000 1.961940 
# 
# From -- ./inp_files/3754.got.cif
#   From: 2010.05.17/outbox.cif.g08.bks.cpg/sg152_2_cif.got.tgz:3754.got - 2010.05.20 10:36:06.
