data_PCOD9576579
_publ_section_title
;
Structure prediction by ZEFSAII (Michael W. Deem and Ramdas Pophale) SiO2 
 PCOD9576579
Probable space group: P 32 2 1
;
_chemical_formula_sum "Si O2"
_cell_formula_units_Z 30
_cell_length_a 8.306541
_cell_length_b 8.306541
_cell_length_c 23.175707
_cell_angle_alpha 90.000000
_cell_angle_beta 90.000000
_cell_angle_gamma 120.000000
_cell_volume 1384.854190
_symmetry_space_group_name_H-M "P 32 2 1"
_symmetry_group_IT_number 154
_symmetry_cell_setting 'hexagonal'
loop_
_space_group_symop_operation_xyz
x,y,z
-y,x-y,2/3+z
-x+y,-x,1/3+z
x-y,-y,1/3-z
-x,-x+y,2/3-z
y,x,-z
loop_
_atom_site_type_symbol
_atom_site_label
_atom_site_fract_x
_atom_site_fract_y
_atom_site_fract_z
Si Si1 0.680786 0.809544 0.452951
Si Si2 0.716129 0.204156 0.181256
Si Si3 0.928860 0.470098 0.076194
Si Si4 0.370105 0.204926 0.642120
Si Si5 0.223453 0.003121 0.994971
O O1 0.833852 0.833852 0.500000
O O2 0.484266 0.672682 0.481980
O O3 0.704814 0.723401 0.393670
O O4 0.663102 0.983365 0.432755
O O5 0.828176 0.342665 0.130529
O O6 0.793324 0.241614 0.245804
O O7 0.679441 0.000000 0.166667
O O8 0.057316 0.393108 0.048818
O O9 0.815617 0.471526 0.019719
O O10 0.200930 0.252996 0.641566
O O11 0.276802 0.000000 0.666667
O O12 0.140342 0.140342 0.000000
#
# Coordination Sequence:
#
# PCOD9576579 Si02
#       5
#     6   6   6   6   6
#     4  10  24  42  64  96 140 175 226 290 344 410
#     4  11  22  41  68  93 136 183 227 281 350 417
#     4  11  23  41  71 101 134 188 238 284 360 417
#     4  10  22  42  65  99 137 178 231 287 345 414
#     4  10  21  43  68  96 134 179 224 295 350 406
#
# _framework density 21.662928999999998
#
# number of rings (size 3 to 8) (size 9 to 14) (size 15 to 20)
#    0.000    1.600    4.000    0.000    2.800    1.600 
#    7.200    1.000    0.000    0.000    0.000    0.000 
#    0.000    0.000    0.000    0.000    0.000    0.000 
#
# Total GULP energy -167427.278057 kJ/mol
# GULP energy per Si atom -5580.909269 kJ/mol
# Density = 2.161362 g / cm^3
# Si number density = 21.662929 Si / 1000 Ang^3
#
#
#
# Elastic Constant Matrix: (Units=GPa)
#
#
# Indices 1 2 3 4 5 6 
#
# 1 52.8231 13.1607 47.9781 -4.2030 0.0000 0.0000
# 2 13.1607 52.8231 47.9781 4.2030 0.0000 0.0000
# 3 47.9781 47.9781 186.5749 0.0000 0.0000 0.0000
# 4 -4.2030 4.2030 0.0000 28.3989 0.0000 0.0000
# 5 0.0000 0.0000 0.0000 0.0000 28.3989 -4.2030
# 6 0.0000 0.0000 0.0000 0.0000 -4.2030 19.8312
#
#
#
# Elastic Compliance Matrix: (Units=1/GPa)
#
#
# Indices 1 2 3 4 5 6 
#
# 1 0.025119 -0.000911 -0.006225 0.003852 0.000000 0.000000
# 2 -0.000911 0.025119 -0.006225 -0.003852 0.000000 0.000000
# 3 -0.006225 -0.006225 0.008561 0.000000 0.000000 0.000000
# 4 0.003852 -0.003852 0.000000 0.036353 0.000000 0.000000
# 5 0.000000 0.000000 0.000000 0.000000 0.036353 0.007705
# 6 0.000000 0.000000 0.000000 0.000000 0.007705 0.052058
#
#
# Mechanical properties :
#
#
# Convention : Reuss Voigt Hill
#
# Bulk Modulus (GPa) = 31.17499 56.71719 43.94609
# Shear Modulus (GPa) = 22.62679 27.53278 25.07978
#
# Velocity S-wave (km/s) = 3.23537 3.56892 3.40623
# Velocity P-wave (km/s) = 5.32719 6.57430 5.98333
#
# Compressibility (1/GPa) = 0.03207699
#
# Stress axis : x y z
#
# Youngs Moduli (GPa) = 39.81102 39.81102 116.80338
#
# Poissons Ratio (x) = 0.03625 0.72712
# Poissons Ratio (y) = 0.03625 0.72712
# Poissons Ratio (z) = 0.24783 0.24783
#
# Static dielectric constant tensor:
#      x y z
#    x 1.831870 0.000000 0.000000 
#    y 0.000000 1.831870 0.000000 
#    z 0.000000 0.000000 1.839140 
# 
# From -- ./inp_files/3042.got.cif
#   From: 2010.05.17/outbox.cif.g08.bks.cpg/sg154_2_cif.got.tgz:3042.got - 2010.05.20 10:41:43.
