data_PCOD9576070
_publ_section_title
;
Structure prediction by ZEFSAII (Michael W. Deem and Ramdas Pophale) SiO2 
 PCOD9576070
Probable space group: P 31 2 1
;
_chemical_formula_sum "Si O2"
_cell_formula_units_Z 18
_cell_length_a 10.335463
_cell_length_b 10.335463
_cell_length_c 9.495405
_cell_angle_alpha 90.000000
_cell_angle_beta 90.000000
_cell_angle_gamma 120.000000
_cell_volume 878.423606
_symmetry_space_group_name_H-M "P 31 2 1"
_symmetry_group_IT_number 152
_symmetry_cell_setting 'hexagonal'
loop_
_space_group_symop_operation_xyz
x,y,z
-y,x-y,1/3+z
-x+y,-x,2/3+z
x-y,-y,2/3-z
-x,-x+y,1/3-z
y,x,-z
loop_
_atom_site_type_symbol
_atom_site_label
_atom_site_fract_x
_atom_site_fract_y
_atom_site_fract_z
Si Si1 0.440789 0.364307 0.852601
Si Si2 0.093314 0.412860 0.026387
Si Si3 0.089366 0.177927 0.805210
O O1 0.542271 0.482172 0.737783
O O2 0.270228 0.260064 0.795263
O O3 0.437247 0.437247 0.000000
O O4 0.502272 0.258826 0.908264
O O5 0.071003 0.271909 0.932363
O O6 0.000000 0.360076 0.166667
O O7 0.000000 0.181131 0.666667
O O8 0.014463 0.000000 0.833334
#
# Coordination Sequence:
#
# PCOD9576070 Si02
#       3
#     6   6   6
#     4  10  23  41  61  93 130 167 213 266 319 385
#     4  11  24  41  62  92 130 170 215 266 320 381
#     4  11  22  42  71  99 126 167 219 270 324 388
#
# _framework density 20.491251999999999
#
# number of rings (size 3 to 8) (size 9 to 14) (size 15 to 20)
#    0.000    1.333    0.000    7.000    0.000    9.333 
#    0.000    0.000    0.000    0.000    0.000    0.000 
#    0.000    0.000    0.000    0.000    0.000    0.000 
#
# Total GULP energy -100425.267682 kJ/mol
# GULP energy per Si atom -5579.181538 kJ/mol
# Density = 2.044461 g / cm^3
# Si number density = 20.491252 Si / 1000 Ang^3
#
#
#
# Elastic Constant Matrix: (Units=GPa)
#
#
# Indices 1 2 3 4 5 6 
#
# 1 99.1511 76.3240 60.6834 3.0246 0.0009 0.0000
# 2 76.3240 99.1511 60.6834 -3.0246 -0.0009 0.0000
# 3 60.6834 60.6834 117.4039 0.0000 0.0000 0.0000
# 4 3.0246 -3.0246 0.0000 18.4876 0.0000 -0.0009
# 5 0.0009 -0.0009 0.0000 0.0000 18.4876 3.0246
# 6 0.0000 0.0000 0.0000 -0.0009 3.0246 11.4135
#
#
#
# Elastic Compliance Matrix: (Units=1/GPa)
#
#
# Indices 1 2 3 4 5 6 
#
# 1 0.027331 -0.018462 -0.004585 -0.007492 -0.000002 0.000000
# 2 -0.018462 0.027331 -0.004585 0.007492 0.000002 0.000000
# 3 -0.004585 -0.004585 0.013257 0.000000 0.000000 0.000000
# 4 -0.007492 0.007492 0.000000 0.056542 0.000000 0.000004
# 5 -0.000002 0.000002 0.000000 0.000000 0.056542 -0.014984
# 6 0.000000 0.000000 0.000000 0.000004 -0.014984 0.091586
#
#
# Mechanical properties :
#
#
# Convention : Reuss Voigt Hill
#
# Bulk Modulus (GPa) = 79.00067 79.00972 79.00520
# Shear Modulus (GPa) = 15.05709 17.54544 16.30126
#
# Velocity S-wave (km/s) = 2.71367 2.92933 2.82356
# Velocity P-wave (km/s) = 6.96102 7.07692 7.01921
#
# Compressibility (1/GPa) = 0.01265812
#
# Stress axis : x y z
#
# Youngs Moduli (GPa) = 36.58805 36.58805 75.43246
#
# Poissons Ratio (x) = 0.67548 0.34582
# Poissons Ratio (y) = 0.67548 0.34582
# Poissons Ratio (z) = 0.16774 0.16774
#
# Static dielectric constant tensor:
#      x y z
#    x 1.815810 0.000000 0.000000 
#    y 0.000000 1.815810 0.000000 
#    z 0.000000 0.000000 1.695700 
# 
# From -- ./inp_files/821.got.cif
#   From: 2010.05.17/outbox.cif.g08.bks.cpg/sg152_1_cif.got.tgz:821.got - 2010.05.20 10:36:06.
