data_PCOD9576990
_publ_section_title
;
Structure prediction by ZEFSAII (Michael W. Deem and Ramdas Pophale) SiO2 
 PCOD9576990
Probable space group: R 3 2
;
_chemical_formula_sum "Si O2"
_cell_formula_units_Z 81
_cell_length_a 15.457977
_cell_length_b 15.457977
_cell_length_c 16.600921
_cell_angle_alpha 90.000000
_cell_angle_beta 90.000000
_cell_angle_gamma 120.000000
_cell_volume 3435.327359
_symmetry_space_group_name_H-M "R 3 2"
_symmetry_group_IT_number 155
_symmetry_cell_setting 'hexagonal'
loop_
_space_group_symop_operation_xyz
x,y,z
-y,x-y,z
-x+y,-x,z
x-y,-y,-z
-x,-x+y,-z
y,x,-z
2/3+x,1/3+y,1/3+z
2/3-y,1/3+x-y,1/3+z
2/3-x+y,1/3-x,1/3+z
2/3+x-y,1/3-y,1/3-z
2/3-x,1/3-x+y,1/3-z
2/3+y,1/3+x,1/3-z
1/3+x,2/3+y,2/3+z
1/3-y,2/3+x-y,2/3+z
1/3-x+y,2/3-x,2/3+z
1/3+x-y,2/3-y,2/3-z
1/3-x,2/3-x+y,2/3-z
1/3+y,2/3+x,2/3-z
loop_
_atom_site_type_symbol
_atom_site_label
_atom_site_fract_x
_atom_site_fract_y
_atom_site_fract_z
Si Si1 0.658405 0.000000 0.000000
Si Si2 0.446591 0.249403 0.771100
Si Si3 0.544838 0.047972 0.241200
Si Si4 0.547411 0.642778 0.333959
Si Si5 0.342589 0.784250 0.843586
O O1 0.546689 0.915779 0.029365
O O2 0.721065 0.983780 0.072138
O O3 0.518687 0.333334 0.833334
O O4 0.345569 0.186572 0.823686
O O5 0.484450 0.179051 0.735244
O O6 0.529666 0.143278 0.232825
O O7 0.470715 0.979563 0.311307
O O8 0.666667 0.702149 0.333334
O O9 0.508421 0.661059 0.417062
O O10 0.245151 0.675169 0.847420
#
# Coordination Sequence:
#
# PCOD9576990 Si02
#       5
#     9  18  18  18  18
#     4  10  22  40  70  98 138 184 248 290 374 436
#     4  10  21  38  66  99 146 180 235 306 370 447
#     4  11  24  43  70 107 138 199 243 311 367 457
#     4  12  24  41  71 104 142 186 255 306 378 452
#     4  10  26  46  72 100 153 195 246 314 381 443
#
# _framework density 23.578538999999999
#
# number of rings (size 3 to 8) (size 9 to 14) (size 15 to 20)
#    0.444    0.889    3.333    0.667    9.333    1.778 
#    0.000    0.000    0.000    0.000    0.000    0.000 
#    0.000    0.000    0.000    0.000    0.000    0.000 
#
# Total GULP energy -150350.432554 kJ/mol
# GULP energy per Si atom -5568.534539 kJ/mol
# Density = 2.352487 g / cm^3
# Si number density = 23.578539 Si / 1000 Ang^3
#
#
#
# Elastic Constant Matrix: (Units=GPa)
#
#
# Indices 1 2 3 4 5 6 
#
# 1 81.0119 26.1618 37.9152 0.7684 0.0001 0.0000
# 2 26.1618 81.0119 37.9152 -0.7684 -0.0001 0.0000
# 3 37.9152 37.9152 63.2822 0.0000 0.0000 0.0000
# 4 0.7684 -0.7684 0.0000 22.6890 0.0000 -0.0001
# 5 0.0001 -0.0001 0.0000 0.0000 22.6890 0.7684
# 6 0.0000 0.0000 0.0000 -0.0001 0.7684 27.4250
#
#
#
# Elastic Compliance Matrix: (Units=1/GPa)
#
#
# Indices 1 2 3 4 5 6 
#
# 1 0.017223 -0.001026 -0.009704 -0.000618 0.000000 0.000000
# 2 -0.001026 0.017223 -0.009704 0.000618 0.000000 0.000000
# 3 -0.009704 -0.009704 0.027431 0.000000 0.000000 0.000000
# 4 -0.000618 0.000618 0.000000 0.044116 0.000000 0.000000
# 5 0.000000 0.000000 0.000000 0.000000 0.044116 -0.001236
# 6 0.000000 0.000000 0.000000 0.000000 -0.001236 0.036498
#
#
# Mechanical properties :
#
#
# Convention : Reuss Voigt Hill
#
# Bulk Modulus (GPa) = 47.60225 47.69895 47.65060
# Shear Modulus (GPa) = 21.32397 22.78152 22.05274
#
# Velocity S-wave (km/s) = 3.01055 3.11174 3.06157
# Velocity P-wave (km/s) = 5.68482 5.76058 5.72283
#
# Compressibility (1/GPa) = 0.02100741
#
# Stress axis : x y z
#
# Youngs Moduli (GPa) = 58.06239 58.06239 36.45543
#
# Poissons Ratio (x) = 0.05957 0.35377
# Poissons Ratio (y) = 0.05957 0.35377
# Poissons Ratio (z) = 0.56345 0.56345
#
# Static dielectric constant tensor:
#      x y z
#    x 1.970990 0.000000 0.000000 
#    y 0.000000 1.970990 0.000000 
#    z 0.000000 0.000000 1.878550 
# 
# From -- ./inp_files/4988.got.cif
#   From: 2010.05.17/outbox.cif.g08.bks.cpg/sg155_3_cif.got.tgz:4988.got - 2010.05.20 10:44:35.
