data_PCOD9576908
_publ_section_title
;
Structure prediction by ZEFSAII (Michael W. Deem and Ramdas Pophale) SiO2 
 PCOD9576908
Probable space group: R 3 2
;
_chemical_formula_sum "Si O2"
_cell_formula_units_Z 105
_cell_length_a 19.471819
_cell_length_b 19.471819
_cell_length_c 14.470739
_cell_angle_alpha 90.000000
_cell_angle_beta 90.000000
_cell_angle_gamma 120.000000
_cell_volume 4751.540004
_symmetry_space_group_name_H-M "R 3 2"
_symmetry_group_IT_number 155
_symmetry_cell_setting 'hexagonal'
loop_
_space_group_symop_operation_xyz
x,y,z
-y,x-y,z
-x+y,-x,z
x-y,-y,-z
-x,-x+y,-z
y,x,-z
2/3+x,1/3+y,1/3+z
2/3-y,1/3+x-y,1/3+z
2/3-x+y,1/3-x,1/3+z
2/3+x-y,1/3-y,1/3-z
2/3-x,1/3-x+y,1/3-z
2/3+y,1/3+x,1/3-z
1/3+x,2/3+y,2/3+z
1/3-y,2/3+x-y,2/3+z
1/3-x+y,2/3-x,2/3+z
1/3+x-y,2/3-y,2/3-z
1/3-x,2/3-x+y,2/3-z
1/3+y,2/3+x,2/3-z
loop_
_atom_site_type_symbol
_atom_site_label
_atom_site_fract_x
_atom_site_fract_y
_atom_site_fract_z
Si Si1 0.248262 0.057482 0.320419
Si Si2 0.000000 0.658023 0.000000
Si Si3 0.093028 0.426362 0.666667
Si Si4 0.114602 0.302237 0.240239
Si Si5 0.088840 0.186273 0.855753
Si Si6 0.666668 0.333334 0.446913
Si Si7 0.870145 0.333334 0.833334
Si Si8 0.371185 0.443790 0.811638
O O1 0.165374 0.832041 0.333334
O O2 0.217051 0.973365 0.271133
O O3 0.191129 0.039495 0.409200
O O4 0.233315 0.105083 0.241307
O O5 0.046274 0.647616 0.911719
O O6 0.942089 0.676155 0.936963
O O7 0.004736 0.414851 0.682897
O O8 0.123511 0.493525 0.587497
O O9 0.119207 0.381134 0.203238
O O10 0.142383 0.259175 0.169288
O O11 0.177393 0.211433 0.888718
O O12 0.041359 0.090705 0.851233
O O13 0.666668 0.333334 0.333334
#
# Coordination Sequence:
#
# PCOD9576908 Si02
#       8
#    18   9   9  18  18   6   9  18
#     4  11  23  40  65 103 137 182 241 311 368 427
#     4  10  26  43  63 106 146 186 246 282 374 448
#     4  12  24  41  65 104 152 182 256 314 360 444
#     4  10  20  41  65  94 132 177 233 306 377 421
#     4  12  28  44  74 102 148 200 249 300 385 453
#     4  12  27  57  69 106 140 205 249 294 393 472
#     4  10  20  36  64  98 130 172 232 306 386 404
#     4  11  25  46  70 101 142 196 239 305 365 458
#
# _framework density 22.098099999999999
#
# number of rings (size 3 to 8) (size 9 to 14) (size 15 to 20)
#    0.000    1.029    4.286    2.571    8.400    1.371 
#    0.000    0.000    0.000    3.086    0.000    0.000 
#    0.000    0.000    0.000    0.000    0.000    0.000 
#
# Total GULP energy -194997.716798 kJ/mol
# GULP energy per Si atom -5571.363337 kJ/mol
# Density = 2.204780 g / cm^3
# Si number density = 22.098100 Si / 1000 Ang^3
#
#
#
# Elastic Constant Matrix: (Units=GPa)
#
#
# Indices 1 2 3 4 5 6 
#
# 1 77.1605 17.3502 33.8326 7.6416 -0.0001 0.0000
# 2 17.3502 77.1601 33.8328 -7.6415 0.0001 0.0000
# 3 33.8326 33.8328 128.1675 0.0001 0.0000 0.0000
# 4 7.6416 -7.6415 0.0001 41.5921 -0.0001 0.0001
# 5 -0.0001 0.0001 0.0000 -0.0001 41.5922 7.6416
# 6 0.0000 0.0000 0.0000 0.0001 7.6416 29.9050
#
#
#
# Elastic Compliance Matrix: (Units=1/GPa)
#
#
# Indices 1 2 3 4 5 6 
#
# 1 0.015295 -0.002248 -0.003444 -0.003223 0.000000 0.000000
# 2 -0.002248 0.015295 -0.003444 0.003223 0.000000 0.000000
# 3 -0.003444 -0.003444 0.009620 0.000000 0.000000 0.000000
# 4 -0.003223 0.003223 0.000000 0.025227 0.000000 0.000000
# 5 0.000000 0.000000 0.000000 0.000000 0.025227 -0.006446
# 6 0.000000 0.000000 0.000000 0.000000 -0.006446 0.035086
#
#
# Mechanical properties :
#
#
# Convention : Reuss Voigt Hill
#
# Bulk Modulus (GPa) = 45.58331 50.27993 47.93162
# Shear Modulus (GPa) = 33.03898 35.78269 34.41083
#
# Velocity S-wave (km/s) = 3.87085 4.02838 3.95040
# Velocity P-wave (km/s) = 6.37577 6.66630 6.52265
#
# Compressibility (1/GPa) = 0.02193786
#
# Stress axis : x y z
#
# Youngs Moduli (GPa) = 65.38161 65.38122 103.94471
#
# Poissons Ratio (x) = 0.14700 0.35798
# Poissons Ratio (y) = 0.14700 0.35798
# Poissons Ratio (z) = 0.22517 0.22517
#
# Static dielectric constant tensor:
#      x y z
#    x 1.818120 0.000000 0.000000 
#    y 0.000000 1.818120 0.000000 
#    z 0.000000 0.000000 1.936400 
# 
# From -- ./inp_files/5192.got.cif
#   From: 2010.05.17/outbox.cif.g08.bks.cpg/sg155_3_cif.got.tgz:5192.got - 2010.05.20 10:44:35.
