data_PCOD9576184
_publ_section_title
;
Structure prediction by ZEFSAII (Michael W. Deem and Ramdas Pophale) SiO2 
 PCOD9576184
Probable space group: P 31 2 1
;
_chemical_formula_sum "Si O2"
_cell_formula_units_Z 30
_cell_length_a 17.526612
_cell_length_b 17.526612
_cell_length_c 5.106429
_cell_angle_alpha 90.000000
_cell_angle_beta 90.000000
_cell_angle_gamma 120.000000
_cell_volume 1358.450677
_symmetry_space_group_name_H-M "P 31 2 1"
_symmetry_group_IT_number 152
_symmetry_cell_setting 'hexagonal'
loop_
_space_group_symop_operation_xyz
x,y,z
-y,x-y,1/3+z
-x+y,-x,2/3+z
x-y,-y,2/3-z
-x,-x+y,1/3-z
y,x,-z
loop_
_atom_site_type_symbol
_atom_site_label
_atom_site_fract_x
_atom_site_fract_y
_atom_site_fract_z
Si Si1 0.501725 0.754654 0.133203
Si Si2 0.000000 0.146760 0.166667
Si Si3 0.152284 0.152284 0.500000
Si Si4 0.000000 0.680937 0.666667
Si Si5 0.146811 0.850384 0.524999
Si Si6 0.818326 0.445225 0.372105
Si Si7 0.000000 0.577900 0.166667
O O1 0.604503 0.781652 0.112107
O O2 0.438239 0.655979 0.232234
O O3 0.490644 0.812764 0.360305
O O4 0.465123 0.766949 0.856378
O O5 0.946063 0.175525 0.361391
O O6 0.071974 0.128634 0.302759
O O7 0.164349 0.239584 0.638679
O O8 0.915970 0.691301 0.600292
O O9 0.022981 0.642449 0.413937
O O10 0.916876 0.488995 0.262236
#
# Coordination Sequence:
#
# PCOD9576184 Si02
#       7
#     6   3   3   3   6   6   3
#     4  12  27  46  76 110 147 192 245 308 385 448
#     4  12  28  44  73 109 152 200 258 313 371 449
#     4  12  27  49  70 108 150 204 256 310 380 452
#     4  12  22  44  74 106 136 188 248 294 364 438
#     4  12  26  44  75 106 147 199 251 314 371 456
#     4  12  25  46  73 107 147 189 243 308 371 458
#     4  12  23  43  77 105 138 192 246 305 365 449
#
# _framework density 22.083981999999999
#
# number of rings (size 3 to 8) (size 9 to 14) (size 15 to 20)
#    0.000    0.000    6.000    3.600    2.800    4.800 
#    0.000    0.000    8.800    0.000    0.000    0.000 
#    0.000    0.000    0.000    0.000    0.000    0.000 
#
# Total GULP energy -167869.962554 kJ/mol
# GULP energy per Si atom -5595.665418 kJ/mol
# Density = 2.203372 g / cm^3
# Si number density = 22.083982 Si / 1000 Ang^3
#
#
#
# Elastic Constant Matrix: (Units=GPa)
#
#
# Indices 1 2 3 4 5 6 
#
# 1 132.0449 45.8865 53.2059 -2.8570 0.0000 0.0000
# 2 45.8865 132.0449 53.2059 2.8570 0.0000 0.0000
# 3 53.2059 53.2059 136.5829 0.0000 0.0000 0.0000
# 4 -2.8570 2.8570 0.0000 34.0548 0.0000 0.0000
# 5 0.0000 0.0000 0.0000 0.0000 34.0548 -2.8570
# 6 0.0000 0.0000 0.0000 0.0000 -2.8570 43.0792
#
#
#
# Elastic Compliance Matrix: (Units=1/GPa)
#
#
# Indices 1 2 3 4 5 6 
#
# 1 0.009499 -0.002172 -0.002854 0.000979 0.000000 0.000000
# 2 -0.002172 0.009499 -0.002854 -0.000979 0.000000 0.000000
# 3 -0.002854 -0.002854 0.009545 0.000000 0.000000 0.000000
# 4 0.000979 -0.000979 0.000000 0.029529 0.000000 0.000000
# 5 0.000000 0.000000 0.000000 0.000000 0.029529 0.001958
# 6 0.000000 0.000000 0.000000 0.000000 0.001958 0.023343
#
#
# Mechanical properties :
#
#
# Convention : Reuss Voigt Hill
#
# Bulk Modulus (GPa) = 78.23214 78.36326 78.29770
# Shear Modulus (GPa) = 38.17765 38.79605 38.48685
#
# Velocity S-wave (km/s) = 4.16233 4.19591 4.17915
# Velocity P-wave (km/s) = 7.65518 7.68345 7.66933
#
# Compressibility (1/GPa) = 0.01278247
#
# Stress axis : x y z
#
# Youngs Moduli (GPa) = 105.27081 105.27081 104.76311
#
# Poissons Ratio (x) = 0.22866 0.29903
# Poissons Ratio (y) = 0.22866 0.29903
# Poissons Ratio (z) = 0.30047 0.30047
#
# Static dielectric constant tensor:
#      x y z
#    x 1.844860 0.000000 0.000000 
#    y 0.000000 1.844860 0.000000 
#    z 0.000000 0.000000 1.861170 
# 
# From -- ./inp_files/408.got.cif
#   From: 2010.05.17/outbox.cif.g08.bks.cpg/sg152_1_cif.got.tgz:408.got - 2010.05.20 10:36:06.
