data_PCOD9576492
_publ_section_title
;
Structure prediction by ZEFSAII (Michael W. Deem and Ramdas Pophale) SiO2 
 PCOD9576492
Probable space group: P 32 2 1
;
_chemical_formula_sum "Si O2"
_cell_formula_units_Z 36
_cell_length_a 11.693717
_cell_length_b 11.693717
_cell_length_c 14.680388
_cell_angle_alpha 90.000000
_cell_angle_beta 90.000000
_cell_angle_gamma 120.000000
_cell_volume 1738.494513
_symmetry_space_group_name_H-M "P 32 2 1"
_symmetry_group_IT_number 154
_symmetry_cell_setting 'hexagonal'
loop_
_space_group_symop_operation_xyz
x,y,z
-y,x-y,2/3+z
-x+y,-x,1/3+z
x-y,-y,1/3-z
-x,-x+y,2/3-z
y,x,-z
loop_
_atom_site_type_symbol
_atom_site_label
_atom_site_fract_x
_atom_site_fract_y
_atom_site_fract_z
Si Si1 0.885584 0.278810 0.771954
Si Si2 0.637533 0.592417 0.135400
Si Si3 0.782889 0.319587 0.290264
Si Si4 0.233167 0.391561 0.081877
Si Si5 0.426491 0.409059 0.601032
Si Si6 0.420676 0.342375 0.210252
O O1 0.836880 0.187731 0.682520
O O2 0.762404 0.222141 0.841351
O O3 0.000000 0.279416 0.833334
O O4 0.940803 0.430997 0.743282
O O5 0.576715 0.680999 0.105796
O O6 0.778967 0.663042 0.178985
O O7 0.541984 0.490311 0.209946
O O8 0.642770 0.501896 0.053890
O O9 0.773084 0.447186 0.259808
O O10 0.656368 0.174401 0.289195
O O11 0.330541 0.349231 0.128581
O O12 0.364557 0.364557 0.500000
O O13 0.326228 0.369261 0.686504
#
# Coordination Sequence:
#
# PCOD9576492 Si02
#       6
#     6   6   6   6   6   6
#     4  11  25  38  58  97 135 171 217 276 350 407
#     4  10  20  37  66  97 124 175 222 283 335 412
#     4  10  22  39  62  98 135 171 232 273 344 413
#     4  11  21  39  72  93 131 178 222 278 344 418
#     4  11  25  40  59  97 139 179 216 286 343 407
#     4  11  22  43  63  94 135 176 228 279 349 421
#
# _framework density 20.707573
#
# number of rings (size 3 to 8) (size 9 to 14) (size 15 to 20)
#    0.000    1.333    5.000    0.500    4.667    1.333 
#    3.000    0.000    0.000    5.000    0.000    0.000 
#    0.000    0.000    0.000    0.000    0.000    0.000 
#
# Total GULP energy -200421.571146 kJ/mol
# GULP energy per Si atom -5567.265865 kJ/mol
# Density = 2.066044 g / cm^3
# Si number density = 20.707573 Si / 1000 Ang^3
#
#
#
# Elastic Constant Matrix: (Units=GPa)
#
#
# Indices 1 2 3 4 5 6 
#
# 1 73.5729 22.5933 39.3422 2.9269 0.0000 0.0000
# 2 22.5933 73.5729 39.3422 -2.9269 0.0000 0.0000
# 3 39.3422 39.3422 116.3233 0.0000 0.0000 0.0000
# 4 2.9269 -2.9269 0.0000 30.6517 0.0000 0.0000
# 5 0.0000 0.0000 0.0000 0.0000 30.6517 2.9269
# 6 0.0000 0.0000 0.0000 0.0000 2.9269 25.4898
#
#
#
# Elastic Compliance Matrix: (Units=1/GPa)
#
#
# Indices 1 2 3 4 5 6 
#
# 1 0.017105 -0.002728 -0.004863 -0.001894 0.000000 0.000000
# 2 -0.002728 0.017105 -0.004863 0.001894 0.000000 0.000000
# 3 -0.004863 -0.004863 0.011886 0.000000 0.000000 0.000000
# 4 -0.001894 0.001894 0.000000 0.032986 0.000000 0.000000
# 5 0.000000 0.000000 0.000000 0.000000 0.032986 -0.003788
# 6 0.000000 0.000000 0.000000 0.000000 -0.003788 0.039666
#
#
# Mechanical properties :
#
#
# Convention : Reuss Voigt Hill
#
# Bulk Modulus (GPa) = 47.19179 51.78050 49.48615
# Shear Modulus (GPa) = 27.21753 28.17139 27.69446
#
# Velocity S-wave (km/s) = 3.62937 3.69241 3.66103
# Velocity P-wave (km/s) = 6.35627 6.57559 6.46686
#
# Compressibility (1/GPa) = 0.02119012
#
# Stress axis : x y z
#
# Youngs Moduli (GPa) = 58.46156 58.46156 84.13288
#
# Poissons Ratio (x) = 0.15948 0.40911
# Poissons Ratio (y) = 0.15948 0.40911
# Poissons Ratio (z) = 0.28428 0.28428
#
# Static dielectric constant tensor:
#      x y z
#    x 1.761150 0.000000 0.000000 
#    y 0.000000 1.761150 0.000000 
#    z 0.000000 0.000000 1.837950 
# 
# From -- ./inp_files/1991.got.cif
#   From: 2010.05.17/outbox.cif.g08.bks.cpg/sg154_1_cif.got.tgz:1991.got - 2010.05.20 10:41:43.
