data_PCOD9576868
_publ_section_title
;
Structure prediction by ZEFSAII (Michael W. Deem and Ramdas Pophale) SiO2 
 PCOD9576868
Probable space group: R 3 2
;
_chemical_formula_sum "Si O2"
_cell_formula_units_Z 144
_cell_length_a 30.386526
_cell_length_b 30.386526
_cell_length_c 9.099783
_cell_angle_alpha 90.000000
_cell_angle_beta 90.000000
_cell_angle_gamma 120.000000
_cell_volume 7276.520720
_symmetry_space_group_name_H-M "R 3 2"
_symmetry_group_IT_number 155
_symmetry_cell_setting 'hexagonal'
loop_
_space_group_symop_operation_xyz
x,y,z
-y,x-y,z
-x+y,-x,z
x-y,-y,-z
-x,-x+y,-z
y,x,-z
2/3+x,1/3+y,1/3+z
2/3-y,1/3+x-y,1/3+z
2/3-x+y,1/3-x,1/3+z
2/3+x-y,1/3-y,1/3-z
2/3-x,1/3-x+y,1/3-z
2/3+y,1/3+x,1/3-z
1/3+x,2/3+y,2/3+z
1/3-y,2/3+x-y,2/3+z
1/3-x+y,2/3-x,2/3+z
1/3+x-y,2/3-y,2/3-z
1/3-x,2/3-x+y,2/3-z
1/3+y,2/3+x,2/3-z
loop_
_atom_site_type_symbol
_atom_site_label
_atom_site_fract_x
_atom_site_fract_y
_atom_site_fract_z
Si Si1 0.210495 0.135671 0.294699
Si Si2 0.534600 0.701243 0.028643
Si Si3 0.279019 0.254723 0.344877
Si Si4 0.944564 0.564136 0.252813
Si Si5 0.098946 0.093323 0.178076
Si Si6 0.092755 0.006205 0.677598
Si Si7 0.720681 0.767686 0.893128
Si Si8 0.046715 0.527530 0.613521
O O1 0.209493 0.091173 0.396199
O O2 0.246838 0.193325 0.345198
O O3 0.154665 0.124523 0.252277
O O4 0.235754 0.130621 0.145273
O O5 0.531068 0.666667 0.166667
O O6 0.477434 0.672955 0.964354
O O7 0.576274 0.707032 0.911141
O O8 0.274482 0.274482 0.500000
O O9 0.253206 0.275764 0.234636
O O10 0.338652 0.275582 0.323948
O O11 0.896326 0.562993 0.333334
O O12 0.949281 0.514145 0.257052
O O13 0.060816 0.107644 0.258717
O O14 0.080137 0.035415 0.229384
O O15 0.098846 0.098846 0.000000
O O16 0.081553 0.000000 0.500000
O O17 0.666667 0.724621 0.833334
O O18 0.710167 0.808054 0.980431
O O19 0.746653 0.746653 0.000000
O O20 0.000000 0.513227 0.500000
#
# Coordination Sequence:
#
# PCOD9576868 Si02
#       8
#    18  18  18  18  18  18  18  18
#     4  10  22  39  59  91 128 169 208 265 321 367
#     4   9  21  42  67  90 123 167 212 258 325 388
#     4  12  25  38  58  92 133 171 218 271 305 368
#     4  12  21  39  65  89 125 176 226 252 312 365
#     4  11  23  36  60  90 124 162 222 273 310 374
#     4  10  21  39  60  84 126 175 213 257 326 385
#     4  10  23  43  70  98 125 156 203 259 331 402
#     4  10  19  40  67  88 124 170 209 257 319 383
#
# _framework density 19.789679
#
# number of rings (size 3 to 8) (size 9 to 14) (size 15 to 20)
#    0.000    1.500    2.500    2.500    1.750    6.500 
#    2.250    0.000    0.000    0.000    0.000    0.000 
#    0.000    0.000    0.000    0.000    0.000    0.000 
#
# Total GULP energy -267702.917329 kJ/mol
# GULP energy per Si atom -5577.144111 kJ/mol
# Density = 1.974464 g / cm^3
# Si number density = 19.789679 Si / 1000 Ang^3
#
#
#
# Elastic Constant Matrix: (Units=GPa)
#
#
# Indices 1 2 3 4 5 6 
#
# 1 102.8447 32.1541 17.4381 -5.8455 0.0416 0.0092
# 2 32.1541 102.8849 17.4289 5.8926 0.0028 0.0175
# 3 17.4381 17.4289 65.8982 0.0274 0.1322 0.0268
# 4 -5.8455 5.8926 0.0274 21.0707 0.0077 0.0067
# 5 0.0416 0.0028 0.1322 0.0077 21.2939 -5.8705
# 6 0.0092 0.0175 0.0268 0.0067 -5.8705 35.3832
#
#
#
# Elastic Compliance Matrix: (Units=1/GPa)
#
#
# Indices 1 2 3 4 5 6 
#
# 1 0.011390 -0.003439 -0.002106 0.004124 -0.000011 -0.000002
# 2 -0.003439 0.011387 -0.002100 -0.004136 0.000020 0.000001
# 3 -0.002106 -0.002100 0.016288 -0.000018 -0.000104 -0.000028
# 4 0.004124 -0.004136 -0.000018 0.049760 -0.000029 -0.000013
# 5 -0.000011 0.000020 -0.000104 -0.000029 0.049213 0.008165
# 6 -0.000002 0.000001 -0.000028 -0.000013 0.008165 0.029617
#
#
# Mechanical properties :
#
#
# Convention : Reuss Voigt Hill
#
# Bulk Modulus (GPa) = 42.06169 45.07443 43.56806
# Shear Modulus (GPa) = 26.19574 29.19003 27.69289
#
# Velocity S-wave (km/s) = 3.64223 3.84476 3.74486
# Velocity P-wave (km/s) = 6.24406 6.52194 6.38451
#
# Compressibility (1/GPa) = 0.02377460
#
# Stress axis : x y z
#
# Youngs Moduli (GPa) = 87.79492 87.81930 61.39534
#
# Poissons Ratio (x) = 0.30202 0.12931
# Poissons Ratio (y) = 0.30194 0.12892
# Poissons Ratio (z) = 0.18491 0.18441
#
# Static dielectric constant tensor:
#      x y z
#    x 1.738910 0.000020 -0.000040 
#    y 0.000020 1.738850 -0.000040 
#    z -0.000040 -0.000040 1.706720 
# 
# From -- ./inp_files/3065.got.cif
#   From: 2010.05.17/outbox.cif.g08.bks.cpg/sg155_2_cif.got.tgz:3065.got - 2010.05.20 10:44:35.
