data_PCOD9576033
_publ_section_title
;
Structure prediction by ZEFSAII (Michael W. Deem and Ramdas Pophale) SiO2 
 PCOD9576033
Probable space group: P 31 2 1
;
_chemical_formula_sum "Si O2"
_cell_formula_units_Z 42
_cell_length_a 9.185146
_cell_length_b 9.185146
_cell_length_c 27.866745
_cell_angle_alpha 90.000000
_cell_angle_beta 90.000000
_cell_angle_gamma 120.000000
_cell_volume 2036.052645
_symmetry_space_group_name_H-M "P 31 2 1"
_symmetry_group_IT_number 152
_symmetry_cell_setting 'hexagonal'
loop_
_space_group_symop_operation_xyz
x,y,z
-y,x-y,1/3+z
-x+y,-x,2/3+z
x-y,-y,2/3-z
-x,-x+y,1/3-z
y,x,-z
loop_
_atom_site_type_symbol
_atom_site_label
_atom_site_fract_x
_atom_site_fract_y
_atom_site_fract_z
Si Si1 0.177164 0.282236 0.175523
Si Si2 0.481229 0.029477 0.204550
Si Si3 0.275413 0.684457 0.384792
Si Si4 0.266312 0.348928 0.384838
Si Si5 0.832672 0.787228 0.193438
Si Si6 0.432697 0.704518 0.942255
Si Si7 0.703642 0.086790 0.056579
O O1 0.345469 0.441112 0.156971
O O2 0.201898 0.264425 0.231946
O O3 0.000000 0.273594 0.166667
O O4 0.167154 0.127268 0.146240
O O5 0.332822 0.980225 0.166541
O O6 0.422646 0.868279 0.238994
O O7 0.512277 0.179277 0.240256
O O8 0.334431 0.548063 0.391465
O O9 0.334658 0.768011 0.332314
O O10 0.072336 0.588546 0.385596
O O11 0.107796 0.255958 0.419298
O O12 0.407855 0.300246 0.397223
O O13 0.218881 0.312357 0.328857
O O14 0.000000 0.814347 0.166667
O O15 0.260145 0.705782 0.934653
#
# Coordination Sequence:
#
# PCOD9576033 Si02
#       7
#     6   6   6   6   6   6   6
#     4  11  27  44  63  96 136 175 226 275 344 402
#     4  12  24  42  68  96 135 177 216 285 335 408
#     4  10  22  42  67 100 137 175 220 274 342 406
#     4  10  22  42  69  96 132 174 228 273 332 416
#     4  11  23  44  64  99 130 170 227 274 337 408
#     4  10  23  41  69 101 130 177 229 272 337 410
#     4  10  22  44  67  94 133 176 217 281 338 395
#
# _framework density 20.628150000000002
#
# number of rings (size 3 to 8) (size 9 to 14) (size 15 to 20)
#    0.000    1.429    2.857    1.286    6.000    0.000 
#    0.000    4.286    0.000    0.000    0.000    0.000 
#    0.000    0.000    0.000    0.000    0.000    0.000 
#
# Total GULP energy -234642.351049 kJ/mol
# GULP energy per Si atom -5586.722644 kJ/mol
# Density = 2.058120 g / cm^3
# Si number density = 20.628150 Si / 1000 Ang^3
#
#
#
# Elastic Constant Matrix: (Units=GPa)
#
#
# Indices 1 2 3 4 5 6 
#
# 1 80.8130 19.7929 44.0961 -5.1616 0.0000 0.0000
# 2 19.7929 80.8130 44.0961 5.1616 0.0000 0.0000
# 3 44.0961 44.0961 112.6754 0.0000 0.0000 0.0000
# 4 -5.1616 5.1616 0.0000 29.6762 0.0000 0.0000
# 5 0.0000 0.0000 0.0000 0.0000 29.6762 -5.1616
# 6 0.0000 0.0000 0.0000 0.0000 -5.1616 30.5101
#
#
#
# Elastic Compliance Matrix: (Units=1/GPa)
#
#
# Indices 1 2 3 4 5 6 
#
# 1 0.016008 -0.000877 -0.005921 0.002937 0.000000 0.000000
# 2 -0.000877 0.016008 -0.005921 -0.002937 0.000000 0.000000
# 3 -0.005921 -0.005921 0.013510 0.000000 0.000000 0.000000
# 4 0.002937 -0.002937 0.000000 0.034719 0.000000 0.000000
# 5 0.000000 0.000000 0.000000 0.000000 0.034719 0.005874
# 6 0.000000 0.000000 0.000000 0.000000 0.005874 0.033770
#
#
# Mechanical properties :
#
#
# Convention : Reuss Voigt Hill
#
# Bulk Modulus (GPa) = 49.78783 54.47464 52.13124
# Shear Modulus (GPa) = 27.64458 29.06026 28.35242
#
# Velocity S-wave (km/s) = 3.66476 3.75743 3.71138
# Velocity P-wave (km/s) = 6.48811 6.72975 6.61004
#
# Compressibility (1/GPa) = 0.02008523
#
# Stress axis : x y z
#
# Youngs Moduli (GPa) = 62.46989 62.46989 74.02025
#
# Poissons Ratio (x) = 0.05480 0.43831
# Poissons Ratio (y) = 0.05480 0.43831
# Poissons Ratio (z) = 0.36991 0.36991
#
# Static dielectric constant tensor:
#      x y z
#    x 1.736360 0.000000 0.000000 
#    y 0.000000 1.736360 0.000000 
#    z 0.000000 0.000000 1.747000 
# 
# From -- ./inp_files/3692.got.cif
#   From: 2010.05.17/outbox.cif.g08.bks.cpg/sg152_2_cif.got.tgz:3692.got - 2010.05.20 10:36:06.
