data_PCOD9576718
_publ_section_title
;
Structure prediction by ZEFSAII (Michael W. Deem and Ramdas Pophale) SiO2 
 PCOD9576718
Probable space group: P 32 2 1
;
_chemical_formula_sum "Si O2"
_cell_formula_units_Z 21
_cell_length_a 14.650452
_cell_length_b 14.650452
_cell_length_c 5.125267
_cell_angle_alpha 90.000000
_cell_angle_beta 90.000000
_cell_angle_gamma 120.000000
_cell_volume 952.684664
_symmetry_space_group_name_H-M "P 32 2 1"
_symmetry_group_IT_number 154
_symmetry_cell_setting 'hexagonal'
loop_
_space_group_symop_operation_xyz
x,y,z
-y,x-y,2/3+z
-x+y,-x,1/3+z
x-y,-y,1/3-z
-x,-x+y,2/3-z
y,x,-z
loop_
_atom_site_type_symbol
_atom_site_label
_atom_site_fract_x
_atom_site_fract_y
_atom_site_fract_z
Si Si1 0.179328 0.843054 0.992596
Si Si2 0.503632 0.576527 0.248731
Si Si3 0.889486 0.597845 0.175640
Si Si4 0.105789 0.000000 0.166667
O O1 0.299827 0.881755 0.925077
O O2 0.113039 0.757876 0.770919
O O3 0.174001 0.801204 0.286559
O O4 0.139564 0.927761 0.000541
O O5 0.522011 0.522011 0.500000
O O6 0.377933 0.524548 0.208331
O O7 0.540865 0.540865 0.000000
O O8 0.000000 0.649374 0.333334
O O9 0.000000 0.925714 0.333334
#
# Coordination Sequence:
#
# PCOD9576718 Si02
#       4
#     6   6   6   3
#     4  12  26  48  74 106 153 199 243 319 389 434
#     4  11  23  46  73 102 140 189 246 301 381 455
#     4  11  25  45  74 102 139 193 250 304 375 458
#     4  12  32  46  72 112 162 204 266 304 370 472
#
# _framework density 22.04297
#
# number of rings (size 3 to 8) (size 9 to 14) (size 15 to 20)
#    0.000    0.571    1.429    6.857    8.000    0.000 
#    5.143    0.000    0.000    0.000    0.000    0.000 
#    0.000    0.000    0.000    0.000    0.000    0.000 
#
# Total GULP energy -117240.139019 kJ/mol
# GULP energy per Si atom -5582.863763 kJ/mol
# Density = 2.199280 g / cm^3
# Si number density = 22.042970 Si / 1000 Ang^3
#
#
#
# Elastic Constant Matrix: (Units=GPa)
#
#
# Indices 1 2 3 4 5 6 
#
# 1 118.3115 69.4420 30.7963 -14.0762 -0.0001 0.0000
# 2 69.4420 118.3115 30.7963 14.0762 0.0001 0.0000
# 3 30.7963 30.7963 111.8280 0.0000 0.0000 0.0000
# 4 -14.0762 14.0762 0.0000 32.0367 0.0000 0.0001
# 5 -0.0001 0.0001 0.0000 0.0000 32.0367 -14.0762
# 6 0.0000 0.0000 0.0000 0.0001 -14.0762 24.4348
#
#
#
# Elastic Compliance Matrix: (Units=1/GPa)
#
#
# Indices 1 2 3 4 5 6 
#
# 1 0.016626 -0.010771 -0.001612 0.012038 0.000000 0.000000
# 2 -0.010771 0.016626 -0.001612 -0.012038 0.000000 0.000000
# 3 -0.001612 -0.001612 0.009830 0.000000 0.000000 0.000000
# 4 0.012038 -0.012038 0.000000 0.041792 0.000000 0.000000
# 5 0.000000 0.000000 0.000000 0.000000 0.041792 0.024076
# 6 0.000000 0.000000 0.000000 0.000000 0.024076 0.054795
#
#
# Mechanical properties :
#
#
# Convention : Reuss Voigt Hill
#
# Bulk Modulus (GPa) = 66.26531 67.83557 67.05044
# Shear Modulus (GPa) = 23.31173 32.19608 27.75390
#
# Velocity S-wave (km/s) = 3.25554 3.82593 3.55220
# Velocity P-wave (km/s) = 6.65271 7.09634 6.87810
#
# Compressibility (1/GPa) = 0.01509085
#
# Stress axis : x y z
#
# Youngs Moduli (GPa) = 60.14610 60.14610 101.72525
#
# Poissons Ratio (x) = 0.64784 0.16403
# Poissons Ratio (y) = 0.64784 0.16403
# Poissons Ratio (z) = 0.09698 0.09698
#
# Static dielectric constant tensor:
#      x y z
#    x 1.895380 0.000000 0.000000 
#    y 0.000000 1.895380 0.000000 
#    z 0.000000 0.000000 1.789270 
# 
# From -- ./inp_files/155.got.cif
#   From: 2010.05.17/outbox.cif.g08.bks.cpg/sg154_1_cif.got.tgz:155.got - 2010.05.20 10:41:43.
