data_PCOD9576771
_publ_section_title
;
Structure prediction by ZEFSAII (Michael W. Deem and Ramdas Pophale) SiO2 
 PCOD9576771
Probable space group: R 3 2
;
_chemical_formula_sum "Si O2"
_cell_formula_units_Z 105
_cell_length_a 16.406080
_cell_length_b 16.406080
_cell_length_c 20.789467
_cell_angle_alpha 90.000000
_cell_angle_beta 90.000000
_cell_angle_gamma 120.000000
_cell_volume 4846.002531
_symmetry_space_group_name_H-M "R 3 2"
_symmetry_group_IT_number 155
_symmetry_cell_setting 'hexagonal'
loop_
_space_group_symop_operation_xyz
x,y,z
-y,x-y,z
-x+y,-x,z
x-y,-y,-z
-x,-x+y,-z
y,x,-z
2/3+x,1/3+y,1/3+z
2/3-y,1/3+x-y,1/3+z
2/3-x+y,1/3-x,1/3+z
2/3+x-y,1/3-y,1/3-z
2/3-x,1/3-x+y,1/3-z
2/3+y,1/3+x,1/3-z
1/3+x,2/3+y,2/3+z
1/3-y,2/3+x-y,2/3+z
1/3-x+y,2/3-x,2/3+z
1/3+x-y,2/3-y,2/3-z
1/3-x,2/3-x+y,2/3-z
1/3+y,2/3+x,2/3-z
loop_
_atom_site_type_symbol
_atom_site_label
_atom_site_fract_x
_atom_site_fract_y
_atom_site_fract_z
Si Si1 0.531862 0.032320 0.254655
Si Si2 0.947443 0.454578 0.101278
Si Si3 0.185416 0.000247 0.578084
Si Si4 0.308192 0.357892 0.910020
Si Si5 0.000000 0.000000 0.421052
Si Si6 0.292180 0.086375 0.238562
Si Si7 0.549660 0.666667 0.666667
O O1 0.521959 0.050030 0.178887
O O2 0.621376 0.020251 0.268793
O O3 0.536500 0.116761 0.297292
O O4 0.433507 0.935978 0.267893
O O5 0.940670 0.542070 0.074398
O O6 0.872191 0.344785 0.089432
O O7 0.045725 0.466891 0.075449
O O8 0.100043 0.014444 0.600210
O O9 0.182904 0.000000 0.500000
O O10 0.298730 0.333334 0.833334
O O11 0.219532 0.370437 0.925062
O O12 0.000000 0.000000 0.500000
O O13 0.333334 0.100803 0.166667
O O14 0.370559 0.081576 0.280074
#
# Coordination Sequence:
#
# PCOD9576771 Si02
#       7
#    18  18  18  18   6  18   9
#     4  10  19  35  58  94 122 171 213 264 325 390
#     4  10  17  37  62  90 121 168 217 261 329 399
#     4   9  15  26  50  81 118 155 200 255 311 384
#     4   9  21  36  63  95 132 166 215 274 329 393
#     4   9  15  21  42  84 120 147 192 255 321 364
#     4  11  21  41  63  93 127 173 218 270 334 403
#     4  12  22  36  68  90 124 168 214 266 322 400
#
# _framework density 21.667342999999999
#
# number of rings (size 3 to 8) (size 9 to 14) (size 15 to 20)
#    0.000    2.057    3.429    1.543    0.000    4.800 
#    1.029    1.714    0.000    2.743    0.000    0.000 
#    0.000    0.000    0.000    0.000    0.000    0.000 
#
# Total GULP energy -195388.458241 kJ/mol
# GULP energy per Si atom -5582.527378 kJ/mol
# Density = 2.161803 g / cm^3
# Si number density = 21.667343 Si / 1000 Ang^3
#
#
#
# Elastic Constant Matrix: (Units=GPa)
#
#
# Indices 1 2 3 4 5 6 
#
# 1 157.8175 100.7154 22.0956 0.0938 -0.0001 0.0000
# 2 100.7154 157.8175 22.0956 -0.0938 0.0001 0.0000
# 3 22.0956 22.0956 62.3625 0.0000 0.0000 0.0000
# 4 0.0938 -0.0938 0.0000 23.0349 0.0000 0.0001
# 5 -0.0001 0.0001 0.0000 0.0000 23.0349 0.0938
# 6 0.0000 0.0000 0.0000 0.0001 0.0938 28.5511
#
#
#
# Elastic Compliance Matrix: (Units=1/GPa)
#
#
# Indices 1 2 3 4 5 6 
#
# 1 0.010815 -0.006698 -0.001459 -0.000071 0.000000 0.000000
# 2 -0.006698 0.010815 -0.001459 0.000071 0.000000 0.000000
# 3 -0.001459 -0.001459 0.017069 0.000000 0.000000 0.000000
# 4 -0.000071 0.000071 0.000000 0.043413 0.000000 0.000000
# 5 0.000000 0.000000 0.000000 0.000000 0.043413 -0.000143
# 6 0.000000 0.000000 0.000000 0.000000 -0.000143 0.035025
#
#
# Mechanical properties :
#
#
# Convention : Reuss Voigt Hill
#
# Bulk Modulus (GPa) = 51.36513 74.20117 62.78315
# Shear Modulus (GPa) = 26.84270 30.46359 28.65315
#
# Velocity S-wave (km/s) = 3.52356 3.75369 3.64044
# Velocity P-wave (km/s) = 6.34914 7.28745 6.83442
#
# Compressibility (1/GPa) = 0.01946846
#
# Stress axis : x y z
#
# Youngs Moduli (GPa) = 92.46400 92.46400 58.58568
#
# Poissons Ratio (x) = 0.61929 0.08547
# Poissons Ratio (y) = 0.61929 0.08547
# Poissons Ratio (z) = 0.13489 0.13489
#
# Static dielectric constant tensor:
#      x y z
#    x 1.773430 0.000000 0.000000 
#    y 0.000000 1.773430 0.000000 
#    z 0.000000 0.000000 1.870650 
# 
# From -- ./inp_files/7006.got.cif
#   From: 2010.05.17/outbox.cif.g08.bks.cpg/sg155_4_cif.got.tgz:7006.got - 2010.05.20 10:44:35.
