data_PCOD9576804
_publ_section_title
;
Structure prediction by ZEFSAII (Michael W. Deem and Ramdas Pophale) SiO2 
 PCOD9576804
Probable space group: R 3 2
;
_chemical_formula_sum "Si O2"
_cell_formula_units_Z 99
_cell_length_a 27.347854
_cell_length_b 27.347854
_cell_length_c 7.595130
_cell_angle_alpha 90.000000
_cell_angle_beta 90.000000
_cell_angle_gamma 120.000000
_cell_volume 4919.402402
_symmetry_space_group_name_H-M "R 3 2"
_symmetry_group_IT_number 155
_symmetry_cell_setting 'hexagonal'
loop_
_space_group_symop_operation_xyz
x,y,z
-y,x-y,z
-x+y,-x,z
x-y,-y,-z
-x,-x+y,-z
y,x,-z
2/3+x,1/3+y,1/3+z
2/3-y,1/3+x-y,1/3+z
2/3-x+y,1/3-x,1/3+z
2/3+x-y,1/3-y,1/3-z
2/3-x,1/3-x+y,1/3-z
2/3+y,1/3+x,1/3-z
1/3+x,2/3+y,2/3+z
1/3-y,2/3+x-y,2/3+z
1/3-x+y,2/3-x,2/3+z
1/3+x-y,2/3-y,2/3-z
1/3-x,2/3-x+y,2/3-z
1/3+y,2/3+x,2/3-z
loop_
_atom_site_type_symbol
_atom_site_label
_atom_site_fract_x
_atom_site_fract_y
_atom_site_fract_z
Si Si1 0.249951 0.935595 0.525689
Si Si2 0.632572 0.965905 0.666667
Si Si3 0.231236 0.374963 0.597860
Si Si4 0.604607 0.508438 0.273764
Si Si5 0.129089 0.523385 0.135152
Si Si6 0.849739 0.582854 0.800733
O O1 0.239584 0.906251 0.333334
O O2 0.269552 0.899562 0.636837
O O3 0.193950 0.937361 0.577163
O O4 0.297172 0.000000 0.500000
O O5 0.620762 0.903605 0.705657
O O6 0.670210 0.000000 0.500000
O O7 0.202986 0.410333 0.670920
O O8 0.255321 0.399867 0.404400
O O9 0.194020 0.307097 0.566434
O O10 0.666667 0.521747 0.333334
O O11 0.603810 0.492135 0.068790
O O12 0.183027 0.516360 0.166667
O O13 0.129596 0.580805 0.173293
O O14 0.890200 0.556866 0.833334
#
# Coordination Sequence:
#
# PCOD9576804 Si02
#       6
#    18   9  18  18  18  18
#     4   9  15  26  43  65  98 141 181 217 262 318
#     4  12  24  42  62  90 128 166 210 260 312 370
#     4  10  20  36  54  83 119 151 198 247 292 364
#     4  10  19  33  50  75 113 153 183 230 291 348
#     4   9  18  33  51  75 107 143 191 238 281 348
#     4  10  18  34  61  81 110 159 199 243 304 351
#
# _framework density 20.124395
#
# number of rings (size 3 to 8) (size 9 to 14) (size 15 to 20)
#    0.000    2.182    1.818    3.273    0.000    0.000 
#    6.545    0.000    0.000    0.364    0.000    0.000 
#    0.909    0.000    0.000    0.000    0.000    0.000 
#
# Total GULP energy -183764.967251 kJ/mol
# GULP energy per Si atom -5568.635371 kJ/mol
# Density = 2.007859 g / cm^3
# Si number density = 20.124395 Si / 1000 Ang^3
#
#
#
# Elastic Constant Matrix: (Units=GPa)
#
#
# Indices 1 2 3 4 5 6 
#
# 1 119.3764 60.6806 15.5544 -2.3710 0.0236 -0.0131
# 2 60.6806 119.3335 15.5006 2.3993 0.0024 -0.0041
# 3 15.5544 15.5006 30.2897 0.0489 -0.0205 -0.0103
# 4 -2.3710 2.3993 0.0489 19.7104 0.0310 0.0057
# 5 0.0236 0.0024 -0.0205 0.0310 19.6831 -2.3913
# 6 -0.0131 -0.0041 -0.0103 0.0057 -2.3913 29.3373
#
#
#
# Elastic Compliance Matrix: (Units=1/GPa)
#
#
# Indices 1 2 3 4 5 6 
#
# 1 0.011654 -0.005560 -0.003143 0.002086 -0.000020 0.000001
# 2 -0.005560 0.011652 -0.003104 -0.002079 0.000005 -0.000001
# 3 -0.003143 -0.003104 0.036217 -0.000090 0.000044 0.000014
# 4 0.002086 -0.002079 -0.000090 0.051239 -0.000085 -0.000016
# 5 -0.000020 0.000005 0.000044 -0.000085 0.051313 0.004183
# 6 0.000001 -0.000001 0.000014 -0.000016 0.004183 0.034427
#
#
# Mechanical properties :
#
#
# Convention : Reuss Voigt Hill
#
# Bulk Modulus (GPa) = 27.84795 50.27456 39.06125
# Shear Modulus (GPa) = 21.54371 25.56376 23.55374
#
# Velocity S-wave (km/s) = 3.27544 3.56798 3.42483
# Velocity P-wave (km/s) = 5.30779 6.48152 5.92380
#
# Compressibility (1/GPa) = 0.03590929
#
# Stress axis : x y z
#
# Youngs Moduli (GPa) = 85.80844 85.82209 27.61114
#
# Poissons Ratio (x) = 0.47714 0.08678
# Poissons Ratio (y) = 0.47707 0.08572
# Poissons Ratio (z) = 0.26967 0.26643
#
# Static dielectric constant tensor:
#      x y z
#    x 1.765360 0.000000 -0.000070 
#    y 0.000000 1.765410 -0.000050 
#    z -0.000070 -0.000050 1.816650 
# 
# From -- ./inp_files/2880.got.cif
#   From: 2010.05.17/outbox.cif.g08.bks.cpg/sg155_2_cif.got.tgz:2880.got - 2010.05.20 10:44:35.
