data_PCOD9576736
_publ_section_title
;
Structure prediction by ZEFSAII (Michael W. Deem and Ramdas Pophale) SiO2 
 PCOD9576736
Probable space group: P 32 2 1
;
_chemical_formula_sum "Si O2"
_cell_formula_units_Z 15
_cell_length_a 7.105567
_cell_length_b 7.105567
_cell_length_c 14.699991
_cell_angle_alpha 90.000000
_cell_angle_beta 90.000000
_cell_angle_gamma 120.000000
_cell_volume 642.754578
_symmetry_space_group_name_H-M "P 32 2 1"
_symmetry_group_IT_number 154
_symmetry_cell_setting 'hexagonal'
loop_
_space_group_symop_operation_xyz
x,y,z
-y,x-y,2/3+z
-x+y,-x,1/3+z
x-y,-y,1/3-z
-x,-x+y,2/3-z
y,x,-z
loop_
_atom_site_type_symbol
_atom_site_label
_atom_site_fract_x
_atom_site_fract_y
_atom_site_fract_z
Si Si1 0.024176 0.000000 0.166667
Si Si2 0.524618 0.706263 0.202898
Si Si3 0.444647 0.251139 0.259149
O O1 0.970715 0.191536 0.151017
O O2 0.199083 0.052636 0.246901
O O3 0.435400 0.451776 0.213887
O O4 0.398754 0.764588 0.127574
O O5 0.499184 0.788718 0.301678
#
# Coordination Sequence:
#
# PCOD9576736 Si02
#       3
#     3   6   6
#     4  12  24  48  72 110 148 198 240 312 376 430
#     4  12  26  47  74 109 149 194 250 306 369 445
#     4  12  26  47  74 109 149 194 250 306 369 445
#
# _framework density 23.337054999999999
#
# number of rings (size 3 to 8) (size 9 to 14) (size 15 to 20)
#    0.000    0.000    4.000    7.200    0.000    1.600 
#    0.000    0.000    0.000    0.000    0.000    0.000 
#    0.000    0.000    0.000    0.000    0.000    0.000 
#
# Total GULP energy -83915.831277 kJ/mol
# GULP energy per Si atom -5594.388752 kJ/mol
# Density = 2.328394 g / cm^3
# Si number density = 23.337055 Si / 1000 Ang^3
#
#
#
# Elastic Constant Matrix: (Units=GPa)
#
#
# Indices 1 2 3 4 5 6 
#
# 1 108.2953 58.4462 34.5502 -0.4565 0.0000 0.0000
# 2 58.4462 108.2953 34.5502 0.4565 0.0000 0.0000
# 3 34.5502 34.5502 121.4378 0.0000 0.0000 0.0000
# 4 -0.4565 0.4565 0.0000 32.4085 0.0000 0.0000
# 5 0.0000 0.0000 0.0000 0.0000 32.4085 -0.4565
# 6 0.0000 0.0000 0.0000 0.0000 -0.4565 24.9245
#
#
#
# Elastic Compliance Matrix: (Units=1/GPa)
#
#
# Indices 1 2 3 4 5 6 
#
# 1 0.013432 -0.006633 -0.001934 0.000283 0.000000 0.000000
# 2 -0.006633 0.013432 -0.001934 -0.000283 0.000000 0.000000
# 3 -0.001934 -0.001934 0.009335 0.000000 0.000000 0.000000
# 4 0.000283 -0.000283 0.000000 0.030864 0.000000 0.000000
# 5 0.000000 0.000000 0.000000 0.000000 0.030864 0.000565
# 6 0.000000 0.000000 0.000000 0.000000 0.000565 0.040132
#
#
# Mechanical properties :
#
#
# Convention : Reuss Voigt Hill
#
# Bulk Modulus (GPa) = 65.80774 65.90241 65.85507
# Shear Modulus (GPa) = 30.46381 31.98042 31.22212
#
# Velocity S-wave (km/s) = 3.61693 3.70587 3.66167
# Velocity P-wave (km/s) = 6.76039 6.82730 6.79393
#
# Compressibility (1/GPa) = 0.01519578
#
# Stress axis : x y z
#
# Youngs Moduli (GPa) = 74.44716 74.44716 107.11966
#
# Poissons Ratio (x) = 0.49384 0.20721
# Poissons Ratio (y) = 0.49384 0.20721
# Poissons Ratio (z) = 0.14401 0.14401
#
# Static dielectric constant tensor:
#      x y z
#    x 1.569500 0.000000 0.000000 
#    y 0.000000 1.569500 0.000000 
#    z 0.000000 0.000000 1.869330 
# 
# From -- ./inp_files/1340.got.cif
#   From: 2010.05.17/outbox.cif.g08.bks.cpg/sg154_1_cif.got.tgz:1340.got - 2010.05.20 10:41:43.
