data_PCOD9576750
_publ_section_title
;
Structure prediction by ZEFSAII (Michael W. Deem and Ramdas Pophale) SiO2 
 PCOD9576750
Probable space group: P 32 2 1
;
_chemical_formula_sum "Si O2"
_cell_formula_units_Z 45
_cell_length_a 15.000000
_cell_length_b 15.000000
_cell_length_c 12.000000
_cell_angle_alpha 90.000000
_cell_angle_beta 90.000000
_cell_angle_gamma 120.000000
_cell_volume 2338.268590
_symmetry_space_group_name_H-M "P 32 2 1"
_symmetry_group_IT_number 154
_symmetry_cell_setting 'hexagonal'
loop_
_space_group_symop_operation_xyz
x,y,z
-y,x-y,2/3+z
-x+y,-x,1/3+z
x-y,-y,1/3-z
-x,-x+y,2/3-z
y,x,-z
loop_
_atom_site_type_symbol
_atom_site_label
_atom_site_fract_x
_atom_site_fract_y
_atom_site_fract_z
Si Si1 0.873657 0.055926 0.978438
Si Si2 0.823456 0.405250 0.991140
Si Si3 0.299700 0.364316 0.272371
Si Si4 0.009813 0.009813 0.500000
Si Si5 0.188269 0.406163 0.069539
Si Si6 0.301595 0.965043 0.037898
Si Si7 0.085534 0.634514 0.246525
Si Si8 0.654262 0.372708 0.172436
O O1 0.905925 0.176373 0.968992
O O2 0.749555 0.987134 0.993556
O O3 0.909611 0.012726 0.873250
O O4 0.941966 0.041593 0.073649
O O5 0.887903 0.531178 0.985778
O O6 0.748814 0.385011 0.097194
O O7 0.896450 0.354046 0.996565
O O8 0.739702 0.344818 0.894448
O O9 0.221476 0.375319 0.185855
O O10 0.390521 0.366560 0.196564
O O11 0.233801 0.529470 0.077432
O O12 0.254231 0.390265 0.973271
O O13 0.068444 0.347477 0.037828
O O14 0.331711 0.000000 0.166667
O O15 0.179784 0.615189 0.221729
O O16 0.000000 0.554801 0.333334
#
# Coordination Sequence:
#
# PCOD9576750 Si02
#       8
#     6   6   6   3   6   6   6   6
#     4  11  22  43  65  93 128 167 215 272 325 387
#     4  11  25  40  64  94 132 168 215 255 335 390
#     4  10  22  40  62  92 127 169 213 269 319 395
#     4  10  24  40  68  94 122 168 220 270 332 382
#     4  10  21  38  63  91 121 166 218 262 319 380
#     4  12  24  39  63  96 124 169 210 268 321 392
#     4  10  20  38  66  93 123 169 220 265 320 384
#     4  11  21  42  64  90 130 170 209 270 313 395
#
# _framework density 19.245009
#
# number of rings (size 3 to 8) (size 9 to 14) (size 15 to 20)
#    0.000    1.333    2.000    4.000    0.000    1.067 
#    1.200    0.000    5.867    0.000    0.000    0.000 
#    0.000    0.000    0.000    0.000    0.000    0.000 
#
# Total GULP energy -251174.849864 kJ/mol
# GULP energy per Si atom -5581.663330 kJ/mol
# Density = 1.920121 g / cm^3
# Si number density = 19.245009 Si / 1000 Ang^3
#
#
#
# Elastic Constant Matrix: (Units=GPa)
#
#
# Indices 1 2 3 4 5 6 
#
# 1 168.3881 72.5167 35.5987 4.3376 0.0000 0.0000
# 2 72.5167 168.3881 35.5987 -4.3376 0.0000 0.0000
# 3 35.5987 35.5987 41.9908 0.0000 0.0000 0.0000
# 4 4.3376 -4.3376 0.0000 29.5366 0.0000 0.0000
# 5 0.0000 0.0000 0.0000 0.0000 29.5366 4.3376
# 6 0.0000 0.0000 0.0000 0.0000 4.3376 47.9357
#
#
#
# Elastic Compliance Matrix: (Units=1/GPa)
#
#
# Indices 1 2 3 4 5 6 
#
# 1 0.008055 -0.002516 -0.004696 -0.001552 0.000000 0.000000
# 2 -0.002516 0.008055 -0.004696 0.001552 0.000000 0.000000
# 3 -0.004696 -0.004696 0.031776 0.000000 0.000000 0.000000
# 4 -0.001552 0.001552 0.000000 0.034312 0.000000 0.000000
# 5 0.000000 0.000000 0.000000 0.000000 0.034312 -0.003105
# 6 0.000000 0.000000 0.000000 0.000000 -0.003105 0.021142
#
#
# Mechanical properties :
#
#
# Convention : Reuss Voigt Hill
#
# Bulk Modulus (GPa) = 41.54301 74.02168 57.78234
# Shear Modulus (GPa) = 29.49998 37.07198 33.28598
#
# Velocity S-wave (km/s) = 3.91943 4.39374 4.16335
# Velocity P-wave (km/s) = 6.48967 8.01787 7.29390
#
# Compressibility (1/GPa) = 0.02407144
#
# Stress axis : x y z
#
# Youngs Moduli (GPa) = 124.14746 124.14746 31.46994
#
# Poissons Ratio (x) = 0.31238 0.14777
# Poissons Ratio (y) = 0.31238 0.14777
# Poissons Ratio (z) = 0.58295 0.58295
#
# Static dielectric constant tensor:
#      x y z
#    x 1.657350 0.000000 0.000000 
#    y 0.000000 1.657350 0.000000 
#    z 0.000000 0.000000 1.736470 
# 
# From -- ./inp_files/1805.got.cif
#   From: 2010.05.17/outbox.ucp.g08.bks.cvg/sg154_1_cif.got.tgz:1805.got - 2010.06.11 15:13:38.
