data_PCOD9576100
_publ_section_title
;
Structure prediction by ZEFSAII (Michael W. Deem and Ramdas Pophale) SiO2 
 PCOD9576100
Probable space group: P 31 2 1
;
_chemical_formula_sum "Si O2"
_cell_formula_units_Z 30
_cell_length_a 8.674046
_cell_length_b 8.674046
_cell_length_c 20.854795
_cell_angle_alpha 90.000000
_cell_angle_beta 90.000000
_cell_angle_gamma 120.000000
_cell_volume 1358.876533
_symmetry_space_group_name_H-M "P 31 2 1"
_symmetry_group_IT_number 152
_symmetry_cell_setting 'hexagonal'
loop_
_space_group_symop_operation_xyz
x,y,z
-y,x-y,1/3+z
-x+y,-x,2/3+z
x-y,-y,2/3-z
-x,-x+y,1/3-z
y,x,-z
loop_
_atom_site_type_symbol
_atom_site_label
_atom_site_fract_x
_atom_site_fract_y
_atom_site_fract_z
Si Si1 0.364744 0.688071 0.959341
Si Si2 0.393705 0.930905 0.722117
Si Si3 0.736610 0.736610 0.000000
Si Si4 0.772723 0.320967 0.852017
Si Si5 0.000000 0.183966 0.166667
Si Si6 0.812323 0.697747 0.866669
O O1 0.546372 0.700164 0.978513
O O2 0.362718 0.686847 0.882208
O O3 0.394309 0.879633 0.977601
O O4 0.208741 0.525045 0.997166
O O5 0.482419 0.842089 0.768386
O O6 0.277247 0.972314 0.771162
O O7 0.847675 0.795835 0.935581
O O8 0.799953 0.507816 0.878761
O O9 0.955191 0.321485 0.833304
O O10 0.174293 0.164640 0.162979
#
# Coordination Sequence:
#
# PCOD9576100 Si02
#       6
#     6   6   3   6   3   6
#     4  11  26  43  72 105 145 192 243 303 366 449
#     4  12  26  47  74 108 149 191 251 302 377 439
#     4  10  24  46  70 102 144 180 244 294 364 430
#     4  11  24  48  74 103 146 196 239 306 374 444
#     4  12  28  48  72 110 148 196 252 308 364 452
#     4  11  26  46  75 104 146 189 246 299 372 437
#
# _framework density 22.077062000000002
#
# number of rings (size 3 to 8) (size 9 to 14) (size 15 to 20)
#    0.000    0.800    4.000    1.200   14.000    0.000 
#    3.600    0.000    0.000    0.000    0.000    0.000 
#    0.000    0.000    0.000    0.000    0.000    0.000 
#
# Total GULP energy -167392.478623 kJ/mol
# GULP energy per Si atom -5579.749287 kJ/mol
# Density = 2.202681 g / cm^3
# Si number density = 22.077062 Si / 1000 Ang^3
#
#
#
# Elastic Constant Matrix: (Units=GPa)
#
#
# Indices 1 2 3 4 5 6 
#
# 1 76.1675 19.3227 4.3858 -9.8684 0.0001 0.0000
# 2 19.3227 76.1675 4.3858 9.8684 -0.0001 0.0000
# 3 4.3858 4.3858 65.8649 0.0000 0.0000 0.0000
# 4 -9.8684 9.8684 0.0000 40.4801 0.0000 -0.0001
# 5 0.0001 -0.0001 0.0000 0.0000 40.4801 -9.8684
# 6 0.0000 0.0000 0.0000 -0.0001 -9.8684 28.4224
#
#
#
# Elastic Compliance Matrix: (Units=1/GPa)
#
#
# Indices 1 2 3 4 5 6 
#
# 1 0.014878 -0.004341 -0.000702 0.004685 0.000000 0.000000
# 2 -0.004341 0.014878 -0.000702 -0.004685 0.000000 0.000000
# 3 -0.000702 -0.000702 0.015276 0.000000 0.000000 0.000000
# 4 0.004685 -0.004685 0.000000 0.026988 0.000000 0.000000
# 5 0.000000 0.000000 0.000000 0.000000 0.026988 0.009370
# 6 0.000000 0.000000 0.000000 0.000000 0.009370 0.038437
#
#
# Mechanical properties :
#
#
# Convention : Reuss Voigt Hill
#
# Bulk Modulus (GPa) = 29.81248 30.48762 30.15005
# Shear Modulus (GPa) = 31.22795 34.55024 32.88909
#
# Velocity S-wave (km/s) = 3.76506 3.96028 3.86390
# Velocity P-wave (km/s) = 5.69509 5.89503 5.79592
#
# Compressibility (1/GPa) = 0.03354300
#
# Stress axis : x y z
#
# Youngs Moduli (GPa) = 67.21519 67.21519 65.46203
#
# Poissons Ratio (x) = 0.29177 0.04593
# Poissons Ratio (y) = 0.29177 0.04593
# Poissons Ratio (z) = 0.04716 0.04716
#
# Static dielectric constant tensor:
#      x y z
#    x 1.785550 0.000000 0.000000 
#    y 0.000000 1.785550 0.000000 
#    z 0.000000 0.000000 1.905400 
# 
# From -- ./inp_files/3060.got.cif
#   From: 2010.05.17/outbox.cif.g08.bks.cpg/sg152_2_cif.got.tgz:3060.got - 2010.05.20 10:36:06.
