data_PCOD9576227
_publ_section_title
;
Structure prediction by ZEFSAII (Michael W. Deem and Ramdas Pophale) SiO2 
 PCOD9576227
Probable space group: P 32 1 2
;
_chemical_formula_sum "Si O2"
_cell_formula_units_Z 33
_cell_length_a 10.105411
_cell_length_b 10.105411
_cell_length_c 16.183427
_cell_angle_alpha 90.000000
_cell_angle_beta 90.000000
_cell_angle_gamma 120.000000
_cell_volume 1431.228870
_symmetry_space_group_name_H-M "P 32 1 2"
_symmetry_group_IT_number 153
_symmetry_cell_setting 'hexagonal'
loop_
_space_group_symop_operation_xyz
x,y,z
-y,x-y,2/3+z
-x+y,-x,1/3+z
-y,-x,1/3-z
-x+y,y,2/3-z
x,x-y,-z
loop_
_atom_site_type_symbol
_atom_site_label
_atom_site_fract_x
_atom_site_fract_y
_atom_site_fract_z
Si Si1 0.315031 0.358808 0.230443
Si Si2 0.444519 0.889037 0.333334
Si Si3 0.770410 0.385205 0.500000
Si Si4 0.488379 0.244189 0.000000
Si Si5 0.078395 0.651672 0.836740
Si Si6 0.914542 0.829084 0.833334
Si Si7 0.046692 0.093384 0.333334
Si Si8 0.373752 0.897960 0.020159
O O1 0.439585 0.325595 0.191993
O O2 0.234149 0.415614 0.163826
O O3 0.198425 0.209413 0.281746
O O4 0.398397 0.500387 0.292371
O O5 0.539878 0.978480 0.254787
O O6 0.516954 0.780624 0.351282
O O7 0.698221 0.294625 0.584698
O O8 0.384366 0.324462 0.997707
O O9 0.095803 0.539503 0.776196
O O10 0.970147 0.712894 0.806305
O O11 0.934484 0.922921 0.746873
#
# Coordination Sequence:
#
# PCOD9576227 Si02
#       8
#     6   3   3   3   6   3   3   6
#     4  10  17  36  67  92 122 177 237 270 337 436
#     4  12  23  38  71 104 133 171 230 306 340 410
#     4  10  22  39  62  96 139 180 230 290 350 433
#     4  10  24  40  58 100 140 190 228 282 372 437
#     4  11  21  39  65 100 131 176 230 292 354 413
#     4  10  22  41  66  94 139 188 238 292 354 451
#     4  10  19  40  65  94 123 187 242 282 354 435
#     4  11  20  39  66  97 133 175 228 289 348 422
#
# _framework density 23.057110999999999
#
# number of rings (size 3 to 8) (size 9 to 14) (size 15 to 20)
#    0.000    1.455    5.455    2.727    0.000    0.727 
#    3.273    9.091    0.000    0.000    0.000    0.000 
#    0.000    0.000    0.000    0.000    0.000    0.000 
#
# Total GULP energy -183921.242691 kJ/mol
# GULP energy per Si atom -5573.370991 kJ/mol
# Density = 2.300463 g / cm^3
# Si number density = 23.057111 Si / 1000 Ang^3
#
#
#
# Elastic Constant Matrix: (Units=GPa)
#
#
# Indices 1 2 3 4 5 6 
#
# 1 26.2181 13.1006 -11.1542 -0.0001 2.6662 0.0000
# 2 13.1006 26.2181 -11.1542 0.0001 -2.6662 0.0000
# 3 -11.1542 -11.1542 118.8996 0.0000 0.0000 0.0000
# 4 -0.0001 0.0001 0.0000 31.9559 0.0000 -2.6662
# 5 2.6662 -2.6662 0.0000 0.0000 31.9559 -0.0001
# 6 0.0000 0.0000 0.0000 -2.6662 -0.0001 6.5588
#
#
#
# Elastic Compliance Matrix: (Units=1/GPa)
#
#
# Indices 1 2 3 4 5 6 
#
# 1 0.052887 -0.026024 0.002520 0.000000 -0.006584 0.000000
# 2 -0.026024 0.052887 0.002520 0.000000 0.006584 0.000000
# 3 0.002520 0.002520 0.008883 0.000000 0.000000 0.000000
# 4 0.000000 0.000000 0.000000 0.032392 0.000000 0.013168
# 5 -0.006584 0.006584 0.000000 0.000000 0.032392 0.000000
# 6 0.000000 0.000000 0.000000 0.013168 0.000000 0.157821
#
#
# Mechanical properties :
#
#
# Convention : Reuss Voigt Hill
#
# Bulk Modulus (GPa) = 13.75715 16.99116 15.37415
# Shear Modulus (GPa) = 12.39288 26.13033 19.26161
#
# Velocity S-wave (km/s) = 2.32089 3.37009 2.89344
# Velocity P-wave (km/s) = 3.62788 4.74642 4.22433
#
# Compressibility (1/GPa) = 0.07268950
#
# Stress axis : x y z
#
# Youngs Moduli (GPa) = 18.90837 18.90837 112.57104
#
# Poissons Ratio (x) = 0.49206 -0.28369
# Poissons Ratio (y) = 0.49206 -0.28369
# Poissons Ratio (z) = -0.04765 -0.04765
#
# Static dielectric constant tensor:
#      x y z
#    x 1.900330 0.000000 0.000000 
#    y 0.000000 1.900330 0.000000 
#    z 0.000000 0.000000 1.991290 
# 
# From -- ./inp_files/3019.got.cif
#   From: 2010.05.17/outbox.cif.g08.bks.cpg/sg153_2_cif.got.tgz:3019.got - 2010.05.20 10:38:56.
