data_PCOD9576655
_publ_section_title
;
Structure prediction by ZEFSAII (Michael W. Deem and Ramdas Pophale) SiO2 
 PCOD9576655
Probable space group: P 32 2 1
;
_chemical_formula_sum "Si O2"
_cell_formula_units_Z 27
_cell_length_a 10.837876
_cell_length_b 10.837876
_cell_length_c 12.223994
_cell_angle_alpha 90.000000
_cell_angle_beta 90.000000
_cell_angle_gamma 120.000000
_cell_volume 1243.460848
_symmetry_space_group_name_H-M "P 32 2 1"
_symmetry_group_IT_number 154
_symmetry_cell_setting 'hexagonal'
loop_
_space_group_symop_operation_xyz
x,y,z
-y,x-y,2/3+z
-x+y,-x,1/3+z
x-y,-y,1/3-z
-x,-x+y,2/3-z
y,x,-z
loop_
_atom_site_type_symbol
_atom_site_label
_atom_site_fract_x
_atom_site_fract_y
_atom_site_fract_z
Si Si1 0.757476 0.433504 0.982828
Si Si2 0.105884 0.369721 0.627363
Si Si3 0.322420 0.322420 0.500000
Si Si4 0.000000 0.212613 0.833334
Si Si5 0.248931 0.788522 0.461687
Si Si6 0.228437 0.228437 0.000000
O O1 0.733211 0.526279 0.074328
O O2 0.050668 0.374458 0.082616
O O3 0.804737 0.341246 0.055773
O O4 0.891344 0.542295 0.907659
O O5 0.185342 0.294866 0.571067
O O6 0.101152 0.344796 0.757311
O O7 0.385286 0.699526 0.742471
O O8 0.094246 0.187870 0.921478
O O9 0.090074 0.731733 0.415723
#
# Coordination Sequence:
#
# PCOD9576655 Si02
#       6
#     6   6   3   3   6   3
#     4  12  25  46  70 108 141 196 238 311 366 444
#     4  11  25  45  71 106 144 195 238 310 362 446
#     4  12  25  45  76 106 150 187 253 300 372 441
#     4  10  23  43  72 100 146 193 241 296 380 433
#     4  11  27  42  74 102 147 186 247 301 367 438
#     4  10  24  46  70 108 142 196 244 312 366 454
#
# _framework density 21.713588000000001
#
# number of rings (size 3 to 8) (size 9 to 14) (size 15 to 20)
#    0.000    0.889    2.222    3.333    9.333    4.444 
#    0.000    0.000    0.000    0.000    0.000    0.000 
#    0.000    0.000    0.000    0.000    0.000    0.000 
#
# Total GULP energy -150658.427334 kJ/mol
# GULP energy per Si atom -5579.941753 kJ/mol
# Density = 2.166417 g / cm^3
# Si number density = 21.713588 Si / 1000 Ang^3
#
#
#
# Elastic Constant Matrix: (Units=GPa)
#
#
# Indices 1 2 3 4 5 6 
#
# 1 95.0160 42.8980 44.7682 19.5393 0.0000 0.0000
# 2 42.8980 95.0160 44.7682 -19.5393 0.0000 0.0000
# 3 44.7682 44.7682 101.1440 0.0000 0.0000 0.0000
# 4 19.5393 -19.5393 0.0000 -13.3626 0.0000 0.0000
# 5 0.0000 0.0000 0.0000 0.0000 -13.3626 19.5393
# 6 0.0000 0.0000 0.0000 0.0000 19.5393 26.0590
#
#
#
# Elastic Compliance Matrix: (Units=1/GPa)
#
#
# Indices 1 2 3 4 5 6 
#
# 1 0.009664 0.000511 -0.004503 0.013383 0.000000 0.000000
# 2 0.000511 0.009664 -0.004503 -0.013383 0.000000 0.000000
# 3 -0.004503 -0.004503 0.013874 0.000000 0.000000 0.000000
# 4 0.013383 -0.013383 0.000000 -0.035697 0.000000 0.000000
# 5 0.000000 0.000000 0.000000 0.000000 -0.035697 0.026766
# 6 0.000000 0.000000 0.000000 0.000000 0.026766 0.018305
#
#
# Mechanical properties :
#
#
# Convention : Reuss Voigt Hill
#
# Bulk Modulus (GPa) = 61.69452 61.78275 61.73863
# Shear Modulus (GPa) = 1995.24845 10.44951 1002.84898
#
# Velocity S-wave (km/s) = 30.34615 2.19611 21.51408
# Velocity P-wave (km/s) = 35.44469 5.91149 25.40937
#
# Compressibility (1/GPa) = 0.01620890
#
# Stress axis : x y z
#
# Youngs Moduli (GPa) = 103.48142 103.48142 72.07957
#
# Poissons Ratio (x) = -0.05289 0.32461
# Poissons Ratio (y) = -0.05289 0.32461
# Poissons Ratio (z) = 0.46603 0.46603
#
# Static dielectric constant tensor:
#      x y z
#    x 1.809070 0.000000 0.000000 
#    y 0.000000 1.809070 0.000000 
#    z 0.000000 0.000000 1.873590 
# 
# From -- ./inp_files/1630.got.cif
#   From: 2010.05.17/outbox.cif.g08.bks.cpg/sg154_1_cif.got.tgz:1630.got - 2010.05.20 10:41:43.
