data_PCOD9576670
_publ_section_title
;
Structure prediction by ZEFSAII (Michael W. Deem and Ramdas Pophale) SiO2 
 PCOD9576670
Probable space group: P 32 2 1
;
_chemical_formula_sum "Si O2"
_cell_formula_units_Z 42
_cell_length_a 8.568951
_cell_length_b 8.568951
_cell_length_c 28.469769
_cell_angle_alpha 90.000000
_cell_angle_beta 90.000000
_cell_angle_gamma 120.000000
_cell_volume 1810.380628
_symmetry_space_group_name_H-M "P 32 2 1"
_symmetry_group_IT_number 154
_symmetry_cell_setting 'hexagonal'
loop_
_space_group_symop_operation_xyz
x,y,z
-y,x-y,2/3+z
-x+y,-x,1/3+z
x-y,-y,1/3-z
-x,-x+y,2/3-z
y,x,-z
loop_
_atom_site_type_symbol
_atom_site_label
_atom_site_fract_x
_atom_site_fract_y
_atom_site_fract_z
Si Si1 0.631071 0.971797 0.873446
Si Si2 0.355329 0.279007 0.353208
Si Si3 0.265192 0.702620 0.626725
Si Si4 0.277385 0.043360 0.261401
Si Si5 0.459309 0.741829 0.788139
Si Si6 0.661170 0.002612 0.717657
Si Si7 0.428144 0.352998 0.553129
O O1 0.825264 0.060643 0.897181
O O2 0.598276 0.138494 0.866499
O O3 0.482898 0.834608 0.910062
O O4 0.603117 0.869523 0.825625
O O5 0.315080 0.426490 0.329139
O O6 0.564267 0.331876 0.358365
O O7 0.288230 0.116973 0.314893
O O8 0.290612 0.270784 0.407486
O O9 0.442012 0.896635 0.620730
O O10 0.466063 0.061616 0.243504
O O11 0.130367 0.838019 0.253359
O O12 0.289159 0.772942 0.786951
O O13 0.548011 0.803621 0.737469
O O14 0.730676 0.000000 0.666667
O O15 0.386974 0.386974 0.500000
#
# Coordination Sequence:
#
# PCOD9576670 Si02
#       7
#     6   6   6   6   6   6   6
#     4  10  24  44  72  98 132 182 233 287 350 432
#     4  11  20  39  70  96 136 179 247 278 351 413
#     4  11  21  39  70  96 132 183 231 286 337 430
#     4  10  24  41  70  97 136 187 234 289 348 447
#     4  11  25  43  70 101 138 179 233 293 365 431
#     4  12  26  42  66 102 139 182 235 293 362 421
#     4  11  22  39  71 105 133 184 246 293 347 432
#
# _framework density 23.199539000000001
#
# number of rings (size 3 to 8) (size 9 to 14) (size 15 to 20)
#    0.000    1.143    2.857    2.571   10.000    0.000 
#    0.000    7.143    3.143    0.000    0.000    0.000 
#    0.000    0.000    0.000    0.000    0.000    0.000 
#
# Total GULP energy -234564.580986 kJ/mol
# GULP energy per Si atom -5584.870976 kJ/mol
# Density = 2.314674 g / cm^3
# Si number density = 23.199539 Si / 1000 Ang^3
#
#
#
# Elastic Constant Matrix: (Units=GPa)
#
#
# Indices 1 2 3 4 5 6 
#
# 1 37.5952 6.8511 14.6175 -1.0845 -0.0001 0.0000
# 2 6.8511 37.5952 14.6175 1.0845 0.0001 0.0000
# 3 14.6175 14.6175 141.0898 0.0000 0.0000 0.0000
# 4 -1.0845 1.0845 0.0000 27.6387 0.0000 0.0001
# 5 -0.0001 0.0001 0.0000 0.0000 27.6387 -1.0845
# 6 0.0000 0.0000 0.0000 0.0001 -1.0845 15.3721
#
#
#
# Elastic Compliance Matrix: (Units=1/GPa)
#
#
# Indices 1 2 3 4 5 6 
#
# 1 0.028381 -0.004236 -0.002501 0.001280 0.000000 0.000000
# 2 -0.004236 0.028381 -0.002501 -0.001280 0.000000 0.000000
# 3 -0.002501 -0.002501 0.007606 0.000000 0.000000 0.000000
# 4 0.001280 -0.001280 0.000000 0.036282 0.000000 0.000000
# 5 0.000000 0.000000 0.000000 0.000000 0.036282 0.002560
# 6 0.000000 0.000000 0.000000 0.000000 0.002560 0.065234
#
#
# Mechanical properties :
#
#
# Convention : Reuss Voigt Hill
#
# Bulk Modulus (GPa) = 21.79171 32.05028 26.92099
# Shear Modulus (GPa) = 21.19193 26.14282 23.66738
#
# Velocity S-wave (km/s) = 3.02563 3.36053 3.19747
# Velocity P-wave (km/s) = 4.64968 5.37611 5.02604
#
# Compressibility (1/GPa) = 0.04588900
#
# Stress axis : x y z
#
# Youngs Moduli (GPa) = 35.23529 35.23529 131.47500
#
# Poissons Ratio (x) = 0.14926 0.32888
# Poissons Ratio (y) = 0.14926 0.32888
# Poissons Ratio (z) = 0.08814 0.08814
#
# Static dielectric constant tensor:
#      x y z
#    x 1.878190 0.000000 0.000000 
#    y 0.000000 1.878190 0.000000 
#    z 0.000000 0.000000 1.909120 
# 
# From -- ./inp_files/3761.got.cif
#   From: 2010.05.17/outbox.cif.g08.bks.cpg/sg154_2_cif.got.tgz:3761.got - 2010.05.20 10:41:43.
