data_PCOD9576276
_publ_section_title
;
Structure prediction by ZEFSAII (Michael W. Deem and Ramdas Pophale) SiO2 
 PCOD9576276
Probable space group: P 32 1 2
;
_chemical_formula_sum "Si O2"
_cell_formula_units_Z 45
_cell_length_a 12.954563
_cell_length_b 12.954563
_cell_length_c 16.075472
_cell_angle_alpha 90.000000
_cell_angle_beta 90.000000
_cell_angle_gamma 120.000000
_cell_volume 2336.360740
_symmetry_space_group_name_H-M "P 32 1 2"
_symmetry_group_IT_number 153
_symmetry_cell_setting 'hexagonal'
loop_
_space_group_symop_operation_xyz
x,y,z
-y,x-y,2/3+z
-x+y,-x,1/3+z
-y,-x,1/3-z
-x+y,y,2/3-z
x,x-y,-z
loop_
_atom_site_type_symbol
_atom_site_label
_atom_site_fract_x
_atom_site_fract_y
_atom_site_fract_z
Si Si1 0.933269 0.678470 0.899507
Si Si2 0.476819 0.029896 0.554289
Si Si3 0.715611 0.439468 0.428126
Si Si4 0.833661 0.129529 0.809707
Si Si5 0.640838 0.720075 0.448581
Si Si6 0.116416 0.193389 0.024608
Si Si7 0.760631 0.071640 0.994868
Si Si8 0.045055 0.090109 0.333334
O O1 0.838423 0.676845 0.833334
O O2 0.982828 0.598107 0.861951
O O3 0.848975 0.638382 0.980703
O O4 0.040778 0.809453 0.917195
O O5 0.591735 0.160547 0.548831
O O6 0.395871 0.028251 0.631618
O O7 0.531291 0.943828 0.562239
O O8 0.696968 0.393935 0.333334
O O9 0.743055 0.371528 0.500000
O O10 0.820173 0.577081 0.430781
O O11 0.962386 0.247330 0.823784
O O12 0.846298 0.037304 0.750070
O O13 0.770702 0.066442 0.895879
O O14 0.607143 0.803572 0.500000
O O15 0.698535 0.788265 0.362996
O O16 0.012067 0.087003 0.967636
O O17 0.818584 0.995596 0.034422
#
# Coordination Sequence:
#
# PCOD9576276 Si02
#       8
#     6   6   6   6   6   6   6   3
#     4   9  20  37  59  87 121 156 204 263 324 380
#     4  10  22  41  61  83 124 163 216 272 309 389
#     4  11  22  38  61  87 121 171 215 266 320 387
#     4  11  22  33  58  93 130 163 198 254 332 411
#     4  11  22  40  62  86 122 168 217 261 322 389
#     4  11  21  36  58  96 132 157 198 265 340 403
#     4  10  21  35  58  94 122 160 205 256 330 389
#     4  10  20  34  60  92 128 160 192 270 326 412
#
# _framework density 19.260725000000001
#
# number of rings (size 3 to 8) (size 9 to 14) (size 15 to 20)
#    0.000    1.600    1.333    5.200    5.600    0.000 
#    0.000    5.333    2.933    0.800    0.000    0.000 
#    0.000    0.000    0.000    0.000    0.000    0.000 
#
# Total GULP energy -250565.324064 kJ/mol
# GULP energy per Si atom -5568.118313 kJ/mol
# Density = 1.921689 g / cm^3
# Si number density = 19.260725 Si / 1000 Ang^3
#
#
#
# Elastic Constant Matrix: (Units=GPa)
#
#
# Indices 1 2 3 4 5 6 
#
# 1 116.0638 55.2875 27.2897 0.0001 -0.8797 0.0000
# 2 55.2875 116.0638 27.2897 -0.0001 0.8797 0.0000
# 3 27.2897 27.2897 71.9871 0.0000 0.0000 0.0000
# 4 0.0001 -0.0001 0.0000 19.6916 0.0000 0.8797
# 5 -0.8797 0.8797 0.0000 0.0000 19.6916 0.0001
# 6 0.0000 0.0000 0.0000 0.8797 0.0001 30.3882
#
#
#
# Elastic Compliance Matrix: (Units=1/GPa)
#
#
# Indices 1 2 3 4 5 6 
#
# 1 0.011556 -0.004919 -0.002516 0.000000 0.000736 0.000000
# 2 -0.004919 0.011556 -0.002516 0.000000 -0.000736 0.000000
# 3 -0.002516 -0.002516 0.015799 0.000000 0.000000 0.000000
# 4 0.000000 0.000000 0.000000 0.050849 0.000000 -0.001472
# 5 0.000736 -0.000736 0.000000 0.000000 0.050849 0.000000
# 6 0.000000 0.000000 0.000000 -0.001472 0.000000 0.032950
#
#
# Mechanical properties :
#
#
# Convention : Reuss Voigt Hill
#
# Bulk Modulus (GPa) = 52.60611 58.20538 55.40575
# Shear Modulus (GPa) = 25.02525 26.90414 25.96469
#
# Velocity S-wave (km/s) = 3.60848 3.74149 3.67558
# Velocity P-wave (km/s) = 6.68830 6.99645 6.84411
#
# Compressibility (1/GPa) = 0.01900920
#
# Stress axis : x y z
#
# Youngs Moduli (GPa) = 86.53324 86.53324 63.29470
#
# Poissons Ratio (x) = 0.42564 0.15926
# Poissons Ratio (y) = 0.42564 0.15926
# Poissons Ratio (z) = 0.21773 0.21773
#
# Static dielectric constant tensor:
#      x y z
#    x 1.687780 0.000000 0.000000 
#    y 0.000000 1.687780 0.000000 
#    z 0.000000 0.000000 1.765600 
# 
# From -- ./inp_files/3634.got.cif
#   From: 2010.05.17/outbox.cif.g08.bks.cpg/sg153_2_cif.got.tgz:3634.got - 2010.05.20 10:38:56.
