data_PCOD9576381
_publ_section_title
;
Structure prediction by ZEFSAII (Michael W. Deem and Ramdas Pophale) SiO2 
 PCOD9576381
Probable space group: P 32 2 1
;
_chemical_formula_sum "Si O2"
_cell_formula_units_Z 48
_cell_length_a 11.255544
_cell_length_b 11.255544
_cell_length_c 24.910869
_cell_angle_alpha 90.000000
_cell_angle_beta 90.000000
_cell_angle_gamma 120.000000
_cell_volume 2733.080916
_symmetry_space_group_name_H-M "P 32 2 1"
_symmetry_group_IT_number 154
_symmetry_cell_setting 'hexagonal'
loop_
_space_group_symop_operation_xyz
x,y,z
-y,x-y,2/3+z
-x+y,-x,1/3+z
x-y,-y,1/3-z
-x,-x+y,2/3-z
y,x,-z
loop_
_atom_site_type_symbol
_atom_site_label
_atom_site_fract_x
_atom_site_fract_y
_atom_site_fract_z
Si Si1 0.967721 0.977133 0.563976
Si Si2 0.281906 0.139146 0.411488
Si Si3 0.711980 0.028171 0.761253
Si Si4 0.837013 0.699556 0.621194
Si Si5 0.283540 0.854275 0.418344
Si Si6 0.505647 0.310596 0.194125
Si Si7 0.444471 0.153701 0.035542
Si Si8 0.388124 0.529187 0.531335
O O1 0.959929 0.959929 0.500000
O O2 0.830621 0.981155 0.578764
O O3 0.951407 0.844841 0.595296
O O4 0.097914 0.124036 0.577948
O O5 0.316174 0.186328 0.349397
O O6 0.393289 0.247890 0.452379
O O7 0.282124 0.996458 0.418091
O O8 0.713530 0.106698 0.815507
O O9 0.726331 0.135230 0.715247
O O10 0.596360 0.869561 0.761337
O O11 0.812053 0.579075 0.580579
O O12 0.696222 0.705167 0.623976
O O13 0.394144 0.863100 0.460033
O O14 0.326241 0.835780 0.358644
O O15 0.602573 0.252422 0.172940
O O16 0.546771 0.152954 0.079398
O O17 0.482363 0.482363 0.500000
#
# Coordination Sequence:
#
# PCOD9576381 Si02
#       8
#     6   6   6   6   6   6   6   6
#     4  10  17  32  56  82 107 135 175 223 273 316
#     4  10  22  34  52  81 114 138 172 223 274 330
#     4   9  19  32  54  79 103 138 179 224 264 310
#     4  10  18  34  56  81 104 137 183 224 268 314
#     4  10  21  35  52  79 109 139 176 220 276 317
#     4  11  21  33  57  76 106 147 179 225 264 328
#     4   9  18  34  57  78 102 134 182 230 262 312
#     4  11  21  36  55  79 107 141 179 218 273 320
#
# _framework density 17.562597
#
# number of rings (size 3 to 8) (size 9 to 14) (size 15 to 20)
#    0.000    2.000    2.500    1.875    1.750    3.000 
#    0.000    0.000    0.000    0.000    0.000    1.750 
#    0.000    0.000    0.000    0.000    0.000    0.000 
#
# Total GULP energy -267372.800857 kJ/mol
# GULP energy per Si atom -5570.266685 kJ/mol
# Density = 1.752262 g / cm^3
# Si number density = 17.562597 Si / 1000 Ang^3
#
#
#
# Elastic Constant Matrix: (Units=GPa)
#
#
# Indices 1 2 3 4 5 6 
#
# 1 54.8043 16.2610 9.9340 -3.8616 0.0000 0.0000
# 2 16.2610 54.8043 9.9340 3.8616 0.0000 0.0000
# 3 9.9340 9.9340 33.0919 0.0000 0.0000 0.0000
# 4 -3.8616 3.8616 0.0000 17.2301 0.0000 0.0000
# 5 0.0000 0.0000 0.0000 0.0000 17.2301 -3.8616
# 6 0.0000 0.0000 0.0000 0.0000 -3.8616 19.2717
#
#
#
# Elastic Compliance Matrix: (Units=1/GPa)
#
#
# Indices 1 2 3 4 5 6 
#
# 1 0.021263 -0.005902 -0.004611 0.006088 0.000000 0.000000
# 2 -0.005902 0.021263 -0.004611 -0.006088 0.000000 0.000000
# 3 -0.004611 -0.004611 0.032987 0.000000 0.000000 0.000000
# 4 0.006088 -0.006088 0.000000 0.060767 0.000000 0.000000
# 5 0.000000 0.000000 0.000000 0.000000 0.060767 0.012176
# 6 0.000000 0.000000 0.000000 0.000000 0.012176 0.054329
#
#
# Mechanical properties :
#
#
# Convention : Reuss Voigt Hill
#
# Bulk Modulus (GPa) = 22.09260 23.88428 22.98844
# Shear Modulus (GPa) = 16.85132 17.85115 17.35123
#
# Velocity S-wave (km/s) = 3.10094 3.19161 3.14660
# Velocity P-wave (km/s) = 5.04259 5.21640 5.13024
#
# Compressibility (1/GPa) = 0.04526403
#
# Stress axis : x y z
#
# Youngs Moduli (GPa) = 47.03065 47.03065 30.31460
#
# Poissons Ratio (x) = 0.27757 0.13979
# Poissons Ratio (y) = 0.27757 0.13979
# Poissons Ratio (z) = 0.21687 0.21687
#
# Static dielectric constant tensor:
#      x y z
#    x 1.602480 0.000000 0.000000 
#    y 0.000000 1.602480 0.000000 
#    z 0.000000 0.000000 1.602830 
# 
# From -- ./inp_files/3206.got.cif
#   From: 2010.05.17/outbox.cif.g08.bks.cpg/sg154_2_cif.got.tgz:3206.got - 2010.05.20 10:41:43.
