data_PCOD9576999
_publ_section_title
;
Structure prediction by ZEFSAII (Michael W. Deem and Ramdas Pophale) SiO2 
 PCOD9576999
Probable space group: R 3 2
;
_chemical_formula_sum "Si O2"
_cell_formula_units_Z 75
_cell_length_a 13.660784
_cell_length_b 13.660784
_cell_length_c 20.021657
_cell_angle_alpha 90.000000
_cell_angle_beta 90.000000
_cell_angle_gamma 120.000000
_cell_volume 3235.801691
_symmetry_space_group_name_H-M "R 3 2"
_symmetry_group_IT_number 155
_symmetry_cell_setting 'hexagonal'
loop_
_space_group_symop_operation_xyz
x,y,z
-y,x-y,z
-x+y,-x,z
x-y,-y,-z
-x,-x+y,-z
y,x,-z
2/3+x,1/3+y,1/3+z
2/3-y,1/3+x-y,1/3+z
2/3-x+y,1/3-x,1/3+z
2/3+x-y,1/3-y,1/3-z
2/3-x,1/3-x+y,1/3-z
2/3+y,1/3+x,1/3-z
1/3+x,2/3+y,2/3+z
1/3-y,2/3+x-y,2/3+z
1/3-x+y,2/3-x,2/3+z
1/3+x-y,2/3-y,2/3-z
1/3-x,2/3-x+y,2/3-z
1/3+y,2/3+x,2/3-z
loop_
_atom_site_type_symbol
_atom_site_label
_atom_site_fract_x
_atom_site_fract_y
_atom_site_fract_z
Si Si1 0.666668 0.333334 0.413678
Si Si2 0.877626 0.466158 0.656018
Si Si3 0.333333 0.666666 0.247803
Si Si4 0.567495 0.498864 0.065177
Si Si5 0.512981 0.096811 0.271643
Si Si6 0.666667 0.627337 0.833334
O O1 0.666668 0.333334 0.333334
O O2 0.748275 0.464428 0.432355
O O3 0.788658 0.410176 0.717529
O O4 0.849067 0.549218 0.614558
O O5 0.854610 0.362591 0.605963
O O6 0.997317 0.525290 0.694259
O O7 0.333334 0.666668 0.166667
O O8 0.535452 0.558836 0.124150
O O9 0.561455 0.561455 0.000000
O O10 0.481576 0.148243 0.333334
O O11 0.404972 0.048099 0.223848
#
# Coordination Sequence:
#
# PCOD9576999 Si02
#       6
#     6  18   6  18  18   9
#     4   9  24  42  70  98 130 201 243 307 344 433
#     4  10  21  41  65  98 145 182 230 309 368 425
#     4   9  21  33  64 101 139 180 241 287 367 450
#     4  11  23  43  68 103 139 185 236 303 368 436
#     4  11  22  44  69  97 144 188 242 296 362 431
#     4  12  22  40  76  94 142 190 240 294 372 444
#
# _framework density 23.178180000000001
#
# number of rings (size 3 to 8) (size 9 to 14) (size 15 to 20)
#    0.000    1.440    4.800    0.480    1.680    4.800 
#    0.000    0.000    2.640    0.000    0.000    0.000 
#    0.000    0.000    0.000    0.000    0.000    0.000 
#
# Total GULP energy -139175.639585 kJ/mol
# GULP energy per Si atom -5567.025583 kJ/mol
# Density = 2.312543 g / cm^3
# Si number density = 23.178180 Si / 1000 Ang^3
#
#
#
# Elastic Constant Matrix: (Units=GPa)
#
#
# Indices 1 2 3 4 5 6 
#
# 1 111.0763 59.0912 11.1613 -9.3756 0.0034 0.0003
# 2 59.0912 111.0772 11.1612 9.3760 -0.0037 -0.0003
# 3 11.1613 11.1612 62.7948 0.0001 -0.0001 -0.0001
# 4 -9.3756 9.3760 0.0001 -16.0025 0.0014 -0.0024
# 5 0.0034 -0.0037 -0.0001 0.0014 -16.0033 -9.3763
# 6 0.0003 -0.0003 -0.0001 -0.0024 -9.3763 25.9922
#
#
#
# Elastic Compliance Matrix: (Units=1/GPa)
#
#
# Indices 1 2 3 4 5 6 
#
# 1 0.010949 -0.004932 -0.001069 -0.009304 0.000003 0.000000
# 2 -0.004932 0.010948 -0.001069 0.009304 -0.000003 0.000000
# 3 -0.001069 -0.001069 0.016305 0.000000 0.000000 0.000000
# 4 -0.009304 0.009304 0.000000 -0.051588 -0.000005 -0.000006
# 5 0.000003 -0.000003 0.000000 -0.000005 -0.051585 -0.018608
# 6 0.000000 0.000000 0.000000 -0.000006 -0.018608 0.031760
#
#
# Mechanical properties :
#
#
# Convention : Reuss Voigt Hill
#
# Bulk Modulus (GPa) = 41.56111 49.75285 45.65698
# Shear Modulus (GPa) = -452.53743 12.36626 -220.08558
#
# Velocity S-wave (km/s) = -13.98809 2.31233 -9.75499
# Velocity P-wave (km/s) = 15.58586 5.35174 10.35079
#
# Compressibility (1/GPa) = 0.02406095
#
# Stress axis : x y z
#
# Youngs Moduli (GPa) = 91.33664 91.33773 61.33071
#
# Poissons Ratio (x) = 0.45044 0.06559
# Poissons Ratio (y) = 0.45044 0.06559
# Poissons Ratio (z) = 0.09768 0.09768
#
# Static dielectric constant tensor:
#      x y z
#    x 1.983850 0.000000 0.000000 
#    y 0.000000 1.983840 0.000000 
#    z 0.000000 0.000000 2.185460 
# 
# From -- ./inp_files/6844.got.cif
#   From: 2010.05.17/outbox.cif.g08.bks.cpg/sg155_4_cif.got.tgz:6844.got - 2010.05.20 10:44:35.
