data_PCOD9576644
_publ_section_title
;
Structure prediction by ZEFSAII (Michael W. Deem and Ramdas Pophale) SiO2 
 PCOD9576644
Probable space group: P 32 2 1
;
_chemical_formula_sum "Si O2"
_cell_formula_units_Z 36
_cell_length_a 8.646177
_cell_length_b 8.646177
_cell_length_c 28.199529
_cell_angle_alpha 90.000000
_cell_angle_beta 90.000000
_cell_angle_gamma 120.000000
_cell_volume 1825.663489
_symmetry_space_group_name_H-M "P 32 2 1"
_symmetry_group_IT_number 154
_symmetry_cell_setting 'hexagonal'
loop_
_space_group_symop_operation_xyz
x,y,z
-y,x-y,2/3+z
-x+y,-x,1/3+z
x-y,-y,1/3-z
-x,-x+y,2/3-z
y,x,-z
loop_
_atom_site_type_symbol
_atom_site_label
_atom_site_fract_x
_atom_site_fract_y
_atom_site_fract_z
Si Si1 0.741825 0.318314 0.450614
Si Si2 0.818636 0.954545 0.222205
Si Si3 0.909037 0.465057 0.730756
Si Si4 0.548865 0.618009 0.782057
Si Si5 0.740239 0.844483 0.951619
Si Si6 0.477017 0.270594 0.299243
O O1 0.684751 0.460643 0.434101
O O2 0.561188 0.124811 0.451903
O O3 0.833082 0.357106 0.501512
O O4 0.862750 0.294353 0.411493
O O5 0.654744 0.970757 0.244251
O O6 0.772091 0.750744 0.227549
O O7 0.837304 0.000000 0.166667
O O8 0.991572 0.090868 0.251074
O O9 0.788157 0.451216 0.685339
O O10 0.079512 0.454859 0.713073
O O11 0.415419 0.597722 0.740091
O O12 0.733182 0.022089 0.963798
O O13 0.762241 0.762241 0.000000
#
# Coordination Sequence:
#
# PCOD9576644 Si02
#       6
#     6   6   6   6   6   6
#     4  10  23  42  61  93 126 164 211 263 320 387
#     4  11  22  40  67  92 126 172 211 260 331 392
#     4  11  24  42  65  92 127 167 218 264 326 384
#     4  10  23  40  64  90 129 162 212 261 318 384
#     4  11  22  41  67  91 130 169 208 267 328 387
#     4  11  24  42  64  93 127 170 214 272 321 388
#
# _framework density 19.718858999999998
#
# number of rings (size 3 to 8) (size 9 to 14) (size 15 to 20)
#    0.000    1.333    3.333    3.000    4.667    1.333 
#    0.000    0.833    0.000    0.000    0.000    0.000 
#    0.000    0.000    0.000    0.000    0.000    0.000 
#
# Total GULP energy -201254.967445 kJ/mol
# GULP energy per Si atom -5590.415762 kJ/mol
# Density = 1.967398 g / cm^3
# Si number density = 19.718859 Si / 1000 Ang^3
#
#
#
# Elastic Constant Matrix: (Units=GPa)
#
#
# Indices 1 2 3 4 5 6 
#
# 1 54.3185 -0.8099 4.5975 1.6924 -0.0001 0.0000
# 2 -0.8099 54.3185 4.5975 -1.6924 0.0001 0.0000
# 3 4.5975 4.5975 85.2902 0.0000 0.0000 0.0000
# 4 1.6924 -1.6924 0.0000 40.7499 0.0000 0.0001
# 5 -0.0001 0.0001 0.0000 0.0000 40.7499 1.6924
# 6 0.0000 0.0000 0.0000 0.0001 1.6924 27.5642
#
#
#
# Elastic Compliance Matrix: (Units=1/GPa)
#
#
# Indices 1 2 3 4 5 6 
#
# 1 0.018525 0.000339 -0.001017 -0.000755 0.000000 0.000000
# 2 0.000339 0.018525 -0.001017 0.000755 0.000000 0.000000
# 3 -0.001017 -0.001017 0.011834 0.000000 0.000000 0.000000
# 4 -0.000755 0.000755 0.000000 0.024603 0.000000 0.000000
# 5 0.000000 0.000000 0.000000 0.000000 0.024603 -0.001511
# 6 0.000000 0.000000 0.000000 0.000000 -0.001511 0.036372
#
#
# Mechanical properties :
#
#
# Convention : Reuss Voigt Hill
#
# Bulk Modulus (GPa) = 21.98109 23.41083 22.69596
# Shear Modulus (GPa) = 32.67657 34.18227 33.42942
#
# Velocity S-wave (km/s) = 4.07519 4.16803 4.12187
# Velocity P-wave (km/s) = 5.77186 5.92126 5.84704
#
# Compressibility (1/GPa) = 0.04549366
#
# Stress axis : x y z
#
# Youngs Moduli (GPa) = 53.98234 53.98234 84.50012
#
# Poissons Ratio (x) = -0.01829 0.08592
# Poissons Ratio (y) = -0.01829 0.08592
# Poissons Ratio (z) = 0.05489 0.05489
#
# Static dielectric constant tensor:
#      x y z
#    x 1.691530 0.000000 0.000000 
#    y 0.000000 1.691530 0.000000 
#    z 0.000000 0.000000 1.669060 
# 
# From -- ./inp_files/3460.got.cif
#   From: 2010.05.17/outbox.cif.g08.bks.cpg/sg154_2_cif.got.tgz:3460.got - 2010.05.20 10:41:43.
