data_PCOD9576530
_publ_section_title
;
Structure prediction by ZEFSAII (Michael W. Deem and Ramdas Pophale) SiO2 
 PCOD9576530
Probable space group: P 32 2 1
;
_chemical_formula_sum "Si O2"
_cell_formula_units_Z 27
_cell_length_a 7.234622
_cell_length_b 7.234622
_cell_length_c 21.651104
_cell_angle_alpha 90.000000
_cell_angle_beta 90.000000
_cell_angle_gamma 120.000000
_cell_volume 981.391670
_symmetry_space_group_name_H-M "P 32 2 1"
_symmetry_group_IT_number 154
_symmetry_cell_setting 'hexagonal'
loop_
_space_group_symop_operation_xyz
x,y,z
-y,x-y,2/3+z
-x+y,-x,1/3+z
x-y,-y,1/3-z
-x,-x+y,2/3-z
y,x,-z
loop_
_atom_site_type_symbol
_atom_site_label
_atom_site_fract_x
_atom_site_fract_y
_atom_site_fract_z
Si Si1 0.581558 0.768588 0.282609
Si Si2 0.365126 0.882778 0.082870
Si Si3 0.009351 0.000000 0.666667
Si Si4 0.378755 0.166164 0.767400
Si Si5 0.719391 0.086202 0.798684
O O1 0.482558 0.724322 0.352285
O O2 0.409095 0.570664 0.244122
O O3 0.608553 0.987411 0.254790
O O4 0.816782 0.810057 0.296019
O O5 0.251387 0.752713 0.144120
O O6 0.319661 0.082733 0.088746
O O7 0.098720 0.892332 0.618527
O O8 0.496122 0.028204 0.767842
O O9 0.277931 0.171937 0.832860
#
# Coordination Sequence:
#
# PCOD9576530 Si02
#       5
#     6   6   3   6   6
#     4  11  22  42  70  99 137 187 235 298 345 447
#     4  10  20  42  66  90 142 174 228 296 354 409
#     4  12  24  42  74 102 136 192 236 282 360 448
#     4  11  25  44  68 105 140 184 242 291 366 433
#     4  10  23  41  66  98 138 180 223 307 355 421
#
# _framework density 27.511949999999999
#
# number of rings (size 3 to 8) (size 9 to 14) (size 15 to 20)
#    0.000    1.333    4.444    0.000    3.111    1.778 
#    0.000    4.444    0.000    0.000    0.000    0.000 
#    0.000    0.000    0.000    0.000    0.000    0.000 
#
# Total GULP energy -151166.252464 kJ/mol
# GULP energy per Si atom -5598.750091 kJ/mol
# Density = 2.744933 g / cm^3
# Si number density = 27.511950 Si / 1000 Ang^3
#
#
#
# Elastic Constant Matrix: (Units=GPa)
#
#
# Indices 1 2 3 4 5 6 
#
# 1 70.2322 -1.3600 9.4591 4.4680 -0.0002 0.0000
# 2 -1.3600 70.2322 9.4591 -4.4680 0.0002 0.0000
# 3 9.4591 9.4591 103.1306 0.0000 0.0000 0.0000
# 4 4.4680 -4.4680 0.0000 45.5598 0.0000 0.0002
# 5 -0.0002 0.0002 0.0000 0.0000 45.5598 4.4680
# 6 0.0000 0.0000 0.0000 0.0002 4.4680 35.7961
#
#
#
# Elastic Compliance Matrix: (Units=1/GPa)
#
#
# Indices 1 2 3 4 5 6 
#
# 1 0.014518 0.000377 -0.001366 -0.001387 0.000000 0.000000
# 2 0.000377 0.014518 -0.001366 0.001387 0.000000 0.000000
# 3 -0.001366 -0.001366 0.009947 0.000000 0.000000 0.000000
# 4 -0.001387 0.001387 0.000000 0.022221 0.000000 0.000000
# 5 0.000000 0.000000 0.000000 0.000000 0.022221 -0.002774
# 6 0.000000 0.000000 0.000000 0.000000 -0.002774 0.028282
#
#
# Mechanical properties :
#
#
# Convention : Reuss Voigt Hill
#
# Bulk Modulus (GPa) = 29.17816 30.96796 30.07306
# Shear Modulus (GPa) = 39.11062 40.45226 39.78144
#
# Velocity S-wave (km/s) = 3.77448 3.83868 3.80672
# Velocity P-wave (km/s) = 5.44282 5.56128 5.50237
#
# Compressibility (1/GPa) = 0.03427221
#
# Stress axis : x y z
#
# Youngs Moduli (GPa) = 68.88003 68.88003 100.53229
#
# Poissons Ratio (x) = -0.02596 0.13734
# Poissons Ratio (y) = -0.02596 0.13734
# Poissons Ratio (z) = 0.09410 0.09410
#
# Static dielectric constant tensor:
#      x y z
#    x 2.216490 0.000000 0.000000 
#    y 0.000000 2.216490 0.000000 
#    z 0.000000 0.000000 2.067630 
# 
# From -- ./inp_files/3286.got.cif
#   From: 2010.05.17/outbox.cif.g08.bks.cpg/sg154_2_cif.got.tgz:3286.got - 2010.05.20 10:41:43.
