data_PCOD9576233
_publ_section_title
;
Structure prediction by ZEFSAII (Michael W. Deem and Ramdas Pophale) SiO2 
 PCOD9576233
Probable space group: P 32 1 2
;
_chemical_formula_sum "Si O2"
_cell_formula_units_Z 33
_cell_length_a 14.809604
_cell_length_b 14.809604
_cell_length_c 9.965876
_cell_angle_alpha 90.000000
_cell_angle_beta 90.000000
_cell_angle_gamma 120.000000
_cell_volume 1892.923238
_symmetry_space_group_name_H-M "P 32 1 2"
_symmetry_group_IT_number 153
_symmetry_cell_setting 'hexagonal'
loop_
_space_group_symop_operation_xyz
x,y,z
-y,x-y,2/3+z
-x+y,-x,1/3+z
-y,-x,1/3-z
-x+y,y,2/3-z
x,x-y,-z
loop_
_atom_site_type_symbol
_atom_site_label
_atom_site_fract_x
_atom_site_fract_y
_atom_site_fract_z
Si Si1 0.156478 0.190276 0.205698
Si Si2 0.408895 0.297426 0.720849
Si Si3 0.689578 0.086315 0.863141
Si Si4 0.724810 0.449620 0.833334
Si Si5 0.185484 0.155796 0.631407
Si Si6 0.539111 0.430512 0.947132
O O1 0.110260 0.220520 0.333334
O O2 0.276219 0.275447 0.185486
O O3 0.153041 0.083728 0.252567
O O4 0.081540 0.174243 0.081562
O O5 0.400037 0.196789 0.797334
O O6 0.480467 0.302930 0.596239
O O7 0.291851 0.259290 0.672323
O O8 0.466218 0.398473 0.815203
O O9 0.626710 0.089139 0.735900
O O10 0.619149 0.072490 0.995336
O O11 0.619003 0.388610 0.915057
O O12 0.209805 0.104903 0.500000
#
# Coordination Sequence:
#
# PCOD9576233 Si02
#       6
#     6   6   6   3   6   6
#     4   9  18  34  56  74 103 139 180 220 267 319
#     4  10  18  31  50  73 106 143 176 218 254 313
#     4   9  20  35  49  74 110 138 179 222 258 318
#     4  10  20  32  48  74 108 144 182 210 252 314
#     4   9  17  33  52  73 103 136 179 217 267 318
#     4  10  20  32  50  73 107 143 178 213 264 307
#
# _framework density 17.433353
#
# number of rings (size 3 to 8) (size 9 to 14) (size 15 to 20)
#    0.000    2.545    0.909    1.091    2.545    5.818 
#    0.000   20.909    0.000    0.000    0.000    0.000 
#   21.818    0.000    0.000    0.000    0.000    0.000 
#
# Total GULP energy -183862.943168 kJ/mol
# GULP energy per Si atom -5571.604338 kJ/mol
# Density = 1.739367 g / cm^3
# Si number density = 17.433353 Si / 1000 Ang^3
#
#
#
# Elastic Constant Matrix: (Units=GPa)
#
#
# Indices 1 2 3 4 5 6 
#
# 1 87.3710 57.3938 40.5022 0.0000 -1.9205 0.0000
# 2 57.3938 87.3710 40.5022 0.0000 1.9205 0.0000
# 3 40.5022 40.5022 78.3440 0.0000 0.0000 0.0000
# 4 0.0000 0.0000 0.0000 18.6617 0.0000 1.9205
# 5 -1.9205 1.9205 0.0000 0.0000 18.6617 0.0000
# 6 0.0000 0.0000 0.0000 1.9205 0.0000 14.9886
#
#
#
# Elastic Compliance Matrix: (Units=1/GPa)
#
#
# Indices 1 2 3 4 5 6 
#
# 1 0.021762 -0.012043 -0.005025 0.000000 0.003479 0.000000
# 2 -0.012043 0.021762 -0.005025 0.000000 -0.003479 0.000000
# 3 -0.005025 -0.005025 0.017960 0.000000 0.000000 0.000000
# 4 0.000000 0.000000 0.000000 0.054302 0.000000 -0.006958
# 5 0.003479 -0.003479 0.000000 0.000000 0.054302 0.000000
# 6 0.000000 0.000000 0.000000 -0.006958 0.000000 0.067609
#
#
# Mechanical properties :
#
#
# Convention : Reuss Voigt Hill
#
# Bulk Modulus (GPa) = 57.80524 58.87581 58.34053
# Shear Modulus (GPa) = 17.38244 18.10823 17.74533
#
# Velocity S-wave (km/s) = 3.16108 3.22640 3.19391
# Velocity P-wave (km/s) = 6.82298 6.90831 6.86578
#
# Compressibility (1/GPa) = 0.01729947
#
# Stress axis : x y z
#
# Youngs Moduli (GPa) = 45.95177 45.95177 55.68063
#
# Poissons Ratio (x) = 0.55338 0.27978
# Poissons Ratio (y) = 0.55338 0.27978
# Poissons Ratio (z) = 0.23089 0.23089
#
# Static dielectric constant tensor:
#      x y z
#    x 1.603940 0.000000 0.000000 
#    y 0.000000 1.603940 0.000000 
#    z 0.000000 0.000000 1.701300 
# 
# From -- ./inp_files/1683.got.cif
#   From: 2010.05.17/outbox.cif.g08.bks.cpg/sg153_1_cif.got.tgz:1683.got - 2010.05.20 10:38:56.
