data_PCOD9576716
_publ_section_title
;
Structure prediction by ZEFSAII (Michael W. Deem and Ramdas Pophale) SiO2 
 PCOD9576716
Probable space group: P 32 2 1
;
_chemical_formula_sum "Si O2"
_cell_formula_units_Z 27
_cell_length_a 9.235412
_cell_length_b 9.235412
_cell_length_c 13.786322
_cell_angle_alpha 90.000000
_cell_angle_beta 90.000000
_cell_angle_gamma 120.000000
_cell_volume 1018.337176
_symmetry_space_group_name_H-M "P 32 2 1"
_symmetry_group_IT_number 154
_symmetry_cell_setting 'hexagonal'
loop_
_space_group_symop_operation_xyz
x,y,z
-y,x-y,2/3+z
-x+y,-x,1/3+z
x-y,-y,1/3-z
-x,-x+y,2/3-z
y,x,-z
loop_
_atom_site_type_symbol
_atom_site_label
_atom_site_fract_x
_atom_site_fract_y
_atom_site_fract_z
Si Si1 0.880505 0.434514 0.199126
Si Si2 0.273407 0.100526 0.836721
Si Si3 0.407572 0.407572 0.500000
Si Si4 0.457199 0.664183 0.355465
Si Si5 0.965101 0.795458 0.679173
O O1 0.915891 0.621915 0.200365
O O2 0.722793 0.342879 0.271271
O O3 0.034656 0.398420 0.202246
O O4 0.803666 0.359227 0.093209
O O5 0.168570 0.992905 0.928621
O O6 0.838200 0.931164 0.922083
O O7 0.506948 0.546037 0.415714
O O8 0.243234 0.312076 0.426499
O O9 0.609567 0.850019 0.367315
#
# Coordination Sequence:
#
# PCOD9576716 Si02
#       5
#     6   6   3   6   6
#     4  11  24  42  83 118 170 211 293 341 431 513
#     4  11  24  49  78 129 161 233 275 361 425 514
#     4  12  22  46  76 112 162 222 266 336 424 504
#     4  11  23  44  76 121 152 221 274 350 413 507
#     4  11  26  45  82 119 169 221 285 351 433 499
#
# _framework density 26.513811
#
# number of rings (size 3 to 8) (size 9 to 14) (size 15 to 20)
#    0.000    0.889    6.667    1.333    3.111    3.556 
#    0.000    3.333    0.000   20.000    0.000    0.000 
#    0.000    0.000    0.000    0.000    0.000    0.000 
#
# Total GULP energy -150326.479386 kJ/mol
# GULP energy per Si atom -5567.647385 kJ/mol
# Density = 2.645346 g / cm^3
# Si number density = 26.513811 Si / 1000 Ang^3
#
#
#
# Elastic Constant Matrix: (Units=GPa)
#
#
# Indices 1 2 3 4 5 6 
#
# 1 102.5536 -5.4573 23.4027 -5.1946 0.0000 0.0000
# 2 -5.4573 102.5536 23.4027 5.1946 0.0000 0.0000
# 3 23.4027 23.4027 92.8322 0.0000 0.0000 0.0000
# 4 -5.1946 5.1946 0.0000 53.6929 0.0000 0.0000
# 5 0.0000 0.0000 0.0000 0.0000 53.6929 -5.1946
# 6 0.0000 0.0000 0.0000 0.0000 -5.1946 54.0055
#
#
#
# Elastic Compliance Matrix: (Units=1/GPa)
#
#
# Indices 1 2 3 4 5 6 
#
# 1 0.010535 0.001189 -0.002956 0.000904 0.000000 0.000000
# 2 0.001189 0.010535 -0.002956 -0.000904 0.000000 0.000000
# 3 -0.002956 -0.002956 0.012262 0.000000 0.000000 0.000000
# 4 0.000904 -0.000904 0.000000 0.018799 0.000000 0.000000
# 5 0.000000 0.000000 0.000000 0.000000 0.018799 0.001808
# 6 0.000000 0.000000 0.000000 0.000000 0.001808 0.018691
#
#
# Mechanical properties :
#
#
# Convention : Reuss Voigt Hill
#
# Bulk Modulus (GPa) = 41.86250 42.29283 42.07767
# Shear Modulus (GPa) = 46.71724 49.38434 48.05079
#
# Velocity S-wave (km/s) = 4.20217 4.32045 4.26172
# Velocity P-wave (km/s) = 6.27435 6.39330 6.33411
#
# Compressibility (1/GPa) = 0.02388773
#
# Stress axis : x y z
#
# Youngs Moduli (GPa) = 94.92594 94.92594 81.55089
#
# Poissons Ratio (x) = -0.11289 0.24103
# Poissons Ratio (y) = -0.11289 0.24103
# Poissons Ratio (z) = 0.28056 0.28056
#
# Static dielectric constant tensor:
#      x y z
#    x 2.023190 0.000000 0.000000 
#    y 0.000000 2.023190 0.000000 
#    z 0.000000 0.000000 2.018560 
# 
# From -- ./inp_files/1829.got.cif
#   From: 2010.05.17/outbox.cif.g08.bks.cpg/sg154_1_cif.got.tgz:1829.got - 2010.05.20 10:41:43.
