data_PCOD9576557
_publ_section_title
;
Structure prediction by ZEFSAII (Michael W. Deem and Ramdas Pophale) SiO2 
 PCOD9576557
Probable space group: P 32 2 1
;
_chemical_formula_sum "Si O2"
_cell_formula_units_Z 24
_cell_length_a 12.550204
_cell_length_b 12.550204
_cell_length_c 6.655133
_cell_angle_alpha 90.000000
_cell_angle_beta 90.000000
_cell_angle_gamma 120.000000
_cell_volume 907.797414
_symmetry_space_group_name_H-M "P 32 2 1"
_symmetry_group_IT_number 154
_symmetry_cell_setting 'hexagonal'
loop_
_space_group_symop_operation_xyz
x,y,z
-y,x-y,2/3+z
-x+y,-x,1/3+z
x-y,-y,1/3-z
-x,-x+y,2/3-z
y,x,-z
loop_
_atom_site_type_symbol
_atom_site_label
_atom_site_fract_x
_atom_site_fract_y
_atom_site_fract_z
Si Si1 0.549262 0.515454 0.766770
Si Si2 0.566893 0.282691 0.871729
Si Si3 0.710090 0.834605 0.872573
Si Si4 0.266718 0.000000 0.166667
Si Si5 0.647871 0.000000 0.166667
O O1 0.560184 0.393301 0.762945
O O2 0.674786 0.619368 0.659118
O O3 0.418534 0.471290 0.652031
O O4 0.532199 0.532199 0.000000
O O5 0.674713 0.274378 0.763423
O O6 0.433298 0.167073 0.839959
O O7 0.758797 0.848873 0.640784
O O8 0.786062 0.786062 0.000000
O O9 0.694434 0.930778 0.013356
#
# Coordination Sequence:
#
# PCOD9576557 Si02
#       5
#     6   6   6   3   3
#     4  10  21  39  63  94 141 192 243 301 365 441
#     4  11  22  36  59  95 136 180 227 286 359 431
#     4  11  24  42  67  98 136 185 242 303 370 441
#     4  11  20  36  62  97 136 180 230 295 364 429
#     4   9  24  44  66  97 136 188 246 307 370 443
#
# _framework density 26.437615999999998
#
# number of rings (size 3 to 8) (size 9 to 14) (size 15 to 20)
#    0.000    1.500    0.000    5.250    0.000    8.000 
#    0.000    0.000    0.000    7.500    0.000    0.000 
#    0.000    2.000    0.000    0.000    0.000    0.250 
#
# Total GULP energy -133706.546387 kJ/mol
# GULP energy per Si atom -5571.106099 kJ/mol
# Density = 2.637744 g / cm^3
# Si number density = 26.437616 Si / 1000 Ang^3
#
#
#
# Elastic Constant Matrix: (Units=GPa)
#
#
# Indices 1 2 3 4 5 6 
#
# 1 52.3647 14.6149 53.2678 6.0278 -0.0001 0.0000
# 2 14.6149 52.3647 53.2678 -6.0278 0.0001 0.0000
# 3 53.2678 53.2678 227.4644 0.0000 0.0000 0.0000
# 4 6.0278 -6.0278 0.0000 49.5620 0.0000 0.0001
# 5 -0.0001 0.0001 0.0000 0.0000 49.5620 6.0278
# 6 0.0000 0.0000 0.0000 0.0001 6.0278 18.8749
#
#
#
# Elastic Compliance Matrix: (Units=1/GPa)
#
#
# Indices 1 2 3 4 5 6 
#
# 1 0.025676 -0.001884 -0.005572 -0.003352 0.000000 0.000000
# 2 -0.001884 0.025676 -0.005572 0.003352 0.000000 0.000000
# 3 -0.005572 -0.005572 0.007006 0.000000 0.000000 0.000000
# 4 -0.003352 0.003352 0.000000 0.020992 0.000000 0.000000
# 5 0.000000 0.000000 0.000000 0.000000 0.020992 -0.006704
# 6 0.000000 0.000000 0.000000 0.000000 -0.006704 0.055121
#
#
# Mechanical properties :
#
#
# Convention : Reuss Voigt Hill
#
# Bulk Modulus (GPa) = 30.95666 63.83275 47.39470
# Shear Modulus (GPa) = 26.00280 37.66935 31.83607
#
# Velocity S-wave (km/s) = 3.13957 3.77880 3.47392
# Velocity P-wave (km/s) = 4.98771 6.57542 5.83581
#
# Compressibility (1/GPa) = 0.03230323
#
# Stress axis : x y z
#
# Youngs Moduli (GPa) = 38.94640 38.94640 142.73849
#
# Poissons Ratio (x) = 0.07339 0.79528
# Poissons Ratio (y) = 0.07339 0.79528
# Poissons Ratio (z) = 0.21699 0.21699
#
# Static dielectric constant tensor:
#      x y z
#    x 2.181050 0.000000 0.000000 
#    y 0.000000 2.181050 0.000000 
#    z 0.000000 0.000000 2.133740 
# 
# From -- ./inp_files/220.got.cif
#   From: 2010.05.17/outbox.cif.g08.bks.cpg/sg154_1_cif.got.tgz:220.got - 2010.05.20 10:41:43.
