data_PCOD9576355
_publ_section_title
;
Structure prediction by ZEFSAII (Michael W. Deem and Ramdas Pophale) SiO2 
 PCOD9576355
Probable space group: P 32 1 2
;
_chemical_formula_sum "Si O2"
_cell_formula_units_Z 24
_cell_length_a 7.731051
_cell_length_b 7.731051
_cell_length_c 21.291944
_cell_angle_alpha 90.000000
_cell_angle_beta 90.000000
_cell_angle_gamma 120.000000
_cell_volume 1102.105129
_symmetry_space_group_name_H-M "P 32 1 2"
_symmetry_group_IT_number 153
_symmetry_cell_setting 'hexagonal'
loop_
_space_group_symop_operation_xyz
x,y,z
-y,x-y,2/3+z
-x+y,-x,1/3+z
-y,-x,1/3-z
-x+y,y,2/3-z
x,x-y,-z
loop_
_atom_site_type_symbol
_atom_site_label
_atom_site_fract_x
_atom_site_fract_y
_atom_site_fract_z
Si Si1 0.804954 0.981793 0.310422
Si Si2 0.230513 0.427409 0.901935
Si Si3 0.153148 0.740552 0.467923
Si Si4 0.673526 0.099551 0.111756
O O1 0.672931 0.905191 0.372169
O O2 0.734676 0.805974 0.257849
O O3 0.025668 0.051335 0.333334
O O4 0.805070 0.164135 0.275533
O O5 0.162422 0.324844 0.833334
O O6 0.245662 0.642569 0.892573
O O7 0.448806 0.455482 0.912194
O O8 0.043980 0.521990 0.500000
O O9 0.230733 0.915300 0.520390
O O10 0.736968 0.263033 0.166667
#
# Coordination Sequence:
#
# PCOD9576355 Si02
#       4
#     6   6   6   6
#     4  11  21  32  52  86 115 137 177 233 290 337
#     4   9  19  37  58  78 105 148 195 230 274 343
#     4   8  17  36  59  75  99 145 192 223 262 337
#     4   8  17  35  56  77 104 144 187 228 276 335
#
# _framework density 21.776508
#
# number of rings (size 3 to 8) (size 9 to 14) (size 15 to 20)
#    0.000    3.500    0.000    0.750    0.000    7.000 
#    0.000    8.750    0.000    0.000    0.000    0.000 
#    0.000    0.000    0.000    0.000    0.000    0.000 
#
# Total GULP energy -133811.348292 kJ/mol
# GULP energy per Si atom -5575.472845 kJ/mol
# Density = 2.172694 g / cm^3
# Si number density = 21.776508 Si / 1000 Ang^3
#
#
#
# Elastic Constant Matrix: (Units=GPa)
#
#
# Indices 1 2 3 4 5 6 
#
# 1 58.7510 27.1497 41.3969 0.0001 9.9457 0.0000
# 2 27.1497 58.7510 41.3969 -0.0001 -9.9457 0.0000
# 3 41.3969 41.3969 150.9988 0.0000 0.0000 0.0000
# 4 0.0001 -0.0001 0.0000 22.3577 0.0000 -9.9457
# 5 9.9457 -9.9457 0.0000 0.0000 22.3577 0.0001
# 6 0.0000 0.0000 0.0000 -9.9457 0.0001 15.8007
#
#
#
# Elastic Compliance Matrix: (Units=1/GPa)
#
#
# Indices 1 2 3 4 5 6 
#
# 1 0.029886 -0.014064 -0.004338 0.000000 -0.019551 0.000000
# 2 -0.014064 0.029886 -0.004338 0.000000 0.019551 0.000000
# 3 -0.004338 -0.004338 0.009001 0.000000 0.000000 0.000000
# 4 0.000000 0.000000 0.000000 0.062122 0.000000 0.039102
# 5 -0.019551 0.019551 0.000000 0.000000 0.062122 0.000000
# 6 0.000000 0.000000 0.000000 0.039102 0.000000 0.087901
#
#
# Mechanical properties :
#
#
# Convention : Reuss Voigt Hill
#
# Bulk Modulus (GPa) = 42.92867 54.26532 48.59700
# Shear Modulus (GPa) = 14.96278 22.67370 18.81824
#
# Velocity S-wave (km/s) = 2.62412 3.23026 2.94284
# Velocity P-wave (km/s) = 5.37935 6.23587 5.82338
#
# Compressibility (1/GPa) = 0.02329445
#
# Stress axis : x y z
#
# Youngs Moduli (GPa) = 33.46003 33.46003 111.09916
#
# Poissons Ratio (x) = 0.47059 0.48192
# Poissons Ratio (y) = 0.47059 0.48192
# Poissons Ratio (z) = 0.14514 0.14514
#
# Static dielectric constant tensor:
#      x y z
#    x 1.836500 0.000000 0.000000 
#    y 0.000000 1.836500 0.000000 
#    z 0.000000 0.000000 1.834640 
# 
# From -- ./inp_files/3789.got.cif
#   From: 2010.05.17/outbox.cif.g08.bks.cpg/sg153_2_cif.got.tgz:3789.got - 2010.05.20 10:38:56.
