data_PCOD9576945
_publ_section_title
;
Structure prediction by ZEFSAII (Michael W. Deem and Ramdas Pophale) SiO2 
 PCOD9576945
Probable space group: R 3 2
;
_chemical_formula_sum "Si O2"
_cell_formula_units_Z 108
_cell_length_a 22.327235
_cell_length_b 22.327235
_cell_length_c 12.338588
_cell_angle_alpha 90.000000
_cell_angle_beta 90.000000
_cell_angle_gamma 120.000000
_cell_volume 5326.794976
_symmetry_space_group_name_H-M "R 3 2"
_symmetry_group_IT_number 155
_symmetry_cell_setting 'hexagonal'
loop_
_space_group_symop_operation_xyz
x,y,z
-y,x-y,z
-x+y,-x,z
x-y,-y,-z
-x,-x+y,-z
y,x,-z
2/3+x,1/3+y,1/3+z
2/3-y,1/3+x-y,1/3+z
2/3-x+y,1/3-x,1/3+z
2/3+x-y,1/3-y,1/3-z
2/3-x,1/3-x+y,1/3-z
2/3+y,1/3+x,1/3-z
1/3+x,2/3+y,2/3+z
1/3-y,2/3+x-y,2/3+z
1/3-x+y,2/3-x,2/3+z
1/3+x-y,2/3-y,2/3-z
1/3-x,2/3-x+y,2/3-z
1/3+y,2/3+x,2/3-z
loop_
_atom_site_type_symbol
_atom_site_label
_atom_site_fract_x
_atom_site_fract_y
_atom_site_fract_z
Si Si1 0.158116 0.438595 0.976748
Si Si2 0.000000 0.922627 0.500000
Si Si3 0.412511 0.239915 0.205596
Si Si4 0.471550 0.960337 0.145987
Si Si5 0.382509 0.000000 0.000000
Si Si6 0.582090 0.162716 0.008700
Si Si7 0.835870 0.070005 0.876937
O O1 0.199220 0.439962 0.868980
O O2 0.073684 0.387375 0.975892
O O3 0.186056 0.413221 0.076287
O O4 0.170830 0.514685 0.001962
O O5 0.985545 0.882696 0.612805
O O6 0.935507 0.935507 0.500000
O O7 0.333334 0.205285 0.166667
O O8 0.447979 0.322702 0.194996
O O9 0.425860 0.236091 0.333599
O O10 0.468105 0.907985 0.055381
O O11 0.547256 0.023245 0.163683
O O12 0.421013 0.987520 0.101596
O O13 0.588198 0.153157 0.135266
#
# Coordination Sequence:
#
# PCOD9576945 Si02
#       7
#    18   9  18  18   9  18  18
#     4  11  23  41  71  98 144 179 228 301 357 434
#     4  10  24  38  64 104 134 176 242 286 356 428
#     4  11  26  45  68  98 138 194 244 285 345 439
#     4  11  20  42  63  98 135 173 222 291 353 424
#     4  10  20  40  64 110 146 170 224 298 378 450
#     4  11  23  42  68 103 135 176 229 296 369 429
#     4  11  24  46  64  95 144 183 237 289 349 431
#
# _framework density 20.274856
#
# number of rings (size 3 to 8) (size 9 to 14) (size 15 to 20)
#    0.167    1.000    5.000    3.000    4.667    2.000 
#    7.500    0.000    0.000    0.000    0.000    0.000 
#    0.000    0.000    0.000    0.000    0.000    0.000 
#
# Total GULP energy -200623.231611 kJ/mol
# GULP energy per Si atom -5572.867545 kJ/mol
# Density = 2.022871 g / cm^3
# Si number density = 20.274856 Si / 1000 Ang^3
#
#
#
# Elastic Constant Matrix: (Units=GPa)
#
#
# Indices 1 2 3 4 5 6 
#
# 1 83.3802 36.8826 62.1169 2.1105 -0.0002 0.0000
# 2 36.8826 83.3802 62.1169 -2.1105 0.0002 0.0000
# 3 62.1169 62.1169 160.5809 0.0000 0.0000 0.0000
# 4 2.1105 -2.1105 0.0000 30.4325 0.0000 0.0002
# 5 -0.0002 0.0002 0.0000 0.0000 30.4325 2.1105
# 6 0.0000 0.0000 0.0000 0.0002 2.1105 23.2488
#
#
#
# Elastic Compliance Matrix: (Units=1/GPa)
#
#
# Indices 1 2 3 4 5 6 
#
# 1 0.017746 -0.003897 -0.005357 -0.001501 0.000000 0.000000
# 2 -0.003897 0.017746 -0.005357 0.001501 0.000000 0.000000
# 3 -0.005357 -0.005357 0.010372 0.000000 0.000000 0.000000
# 4 -0.001501 0.001501 0.000000 0.033068 0.000000 0.000000
# 5 0.000000 0.000000 0.000000 0.000000 0.033068 -0.003002
# 6 0.000000 0.000000 0.000000 0.000000 -0.003002 0.043285
#
#
# Mechanical properties :
#
#
# Convention : Reuss Voigt Hill
#
# Bulk Modulus (GPa) = 60.09052 72.17489 66.13271
# Shear Modulus (GPa) = 26.30821 27.90443 27.10632
#
# Velocity S-wave (km/s) = 3.60610 3.71389 3.66039
# Velocity P-wave (km/s) = 6.85864 7.35297 7.11010
#
# Compressibility (1/GPa) = 0.01664156
#
# Stress axis : x y z
#
# Youngs Moduli (GPa) = 56.35073 56.35072 96.41288
#
# Poissons Ratio (x) = 0.21958 0.51651
# Poissons Ratio (y) = 0.21958 0.51651
# Poissons Ratio (z) = 0.30189 0.30189
#
# Static dielectric constant tensor:
#      x y z
#    x 1.765850 0.000000 0.000000 
#    y 0.000000 1.765850 0.000000 
#    z 0.000000 0.000000 1.794550 
# 
# From -- ./inp_files/4136.got.cif
#   From: 2010.05.17/outbox.cif.g08.bks.cpg/sg155_3_cif.got.tgz:4136.got - 2010.05.20 10:44:35.
