data_PCOD9576459
_publ_section_title
;
Structure prediction by ZEFSAII (Michael W. Deem and Ramdas Pophale) SiO2 
 PCOD9576459
Probable space group: P 32 2 1
;
_chemical_formula_sum "Si O2"
_cell_formula_units_Z 33
_cell_length_a 14.376972
_cell_length_b 14.376972
_cell_length_c 8.089196
_cell_angle_alpha 90.000000
_cell_angle_beta 90.000000
_cell_angle_gamma 120.000000
_cell_volume 1448.007609
_symmetry_space_group_name_H-M "P 32 2 1"
_symmetry_group_IT_number 154
_symmetry_cell_setting 'hexagonal'
loop_
_space_group_symop_operation_xyz
x,y,z
-y,x-y,2/3+z
-x+y,-x,1/3+z
x-y,-y,1/3-z
-x,-x+y,2/3-z
y,x,-z
loop_
_atom_site_type_symbol
_atom_site_label
_atom_site_fract_x
_atom_site_fract_y
_atom_site_fract_z
Si Si1 0.945846 0.249012 0.990404
Si Si2 0.004309 0.767639 0.012832
Si Si3 0.941817 0.941817 0.000000
Si Si4 0.657144 0.537377 0.935216
Si Si5 0.585242 0.308562 0.031708
Si Si6 0.180543 0.360807 0.110347
O O1 0.886356 0.296304 0.094878
O O2 0.056167 0.268577 0.078471
O O3 0.861661 0.125333 0.951442
O O4 0.000000 0.321581 0.833334
O O5 0.943709 0.691793 0.167529
O O6 0.000000 0.715307 0.833334
O O7 0.937018 0.829032 0.982448
O O8 0.000000 0.006345 0.833334
O O9 0.590328 0.411900 0.947839
O O10 0.587070 0.587070 0.000000
O O11 0.757632 0.578555 0.056778
O O12 0.656240 0.286862 0.889171
O O13 0.457787 0.221769 0.022695
#
# Coordination Sequence:
#
# PCOD9576459 Si02
#       6
#     6   6   3   6   6   6
#     4  11  23  36  60  92 132 174 215 270 329 413
#     4  11  20  35  57  85 122 175 207 262 322 406
#     4  10  20  30  52  78 114 160 210 244 298 382
#     4   9  20  42  65  91 128 173 214 276 349 400
#     4  10  23  44  74  98 129 175 232 295 349 406
#     4  10  21  41  63  92 128 172 222 274 337 402
#
# _framework density 22.789933999999999
#
# number of rings (size 3 to 8) (size 9 to 14) (size 15 to 20)
#    0.000    1.818    1.818    2.727    3.818    0.727 
#    3.273    2.727    0.000    0.000    0.000    0.000 
#    0.000    0.000    0.000    0.000    0.000    0.000 
#
# Total GULP energy -183926.537783 kJ/mol
# GULP energy per Si atom -5573.531448 kJ/mol
# Density = 2.273806 g / cm^3
# Si number density = 22.789934 Si / 1000 Ang^3
#
#
#
# Elastic Constant Matrix: (Units=GPa)
#
#
# Indices 1 2 3 4 5 6 
#
# 1 76.0127 32.9152 4.5997 -3.2195 -0.0003 0.0000
# 2 32.9152 76.0127 4.5997 3.2195 0.0003 0.0000
# 3 4.5997 4.5997 70.0352 0.0000 0.0000 0.0000
# 4 -3.2195 3.2195 0.0000 17.9894 0.0000 0.0003
# 5 -0.0003 0.0003 0.0000 0.0000 17.9894 -3.2195
# 6 0.0000 0.0000 0.0000 0.0003 -3.2195 21.5487
#
#
#
# Elastic Compliance Matrix: (Units=1/GPa)
#
#
# Indices 1 2 3 4 5 6 
#
# 1 0.016536 -0.007305 -0.000606 0.004267 0.000000 0.000000
# 2 -0.007305 0.016536 -0.000606 -0.004267 0.000000 0.000000
# 3 -0.000606 -0.000606 0.014358 0.000000 0.000000 0.000000
# 4 0.004267 -0.004267 0.000000 0.057115 0.000000 -0.000001
# 5 0.000000 0.000000 0.000000 0.000000 0.057115 0.008533
# 6 0.000000 0.000000 0.000000 -0.000001 0.008533 0.047681
#
#
# Mechanical properties :
#
#
# Convention : Reuss Voigt Hill
#
# Bulk Modulus (GPa) = 32.89889 34.03218 33.46554
# Shear Modulus (GPa) = 21.14084 23.50191 22.32138
#
# Velocity S-wave (km/s) = 3.04902 3.21478 3.13300
# Velocity P-wave (km/s) = 5.18290 5.36145 5.27293
#
# Compressibility (1/GPa) = 0.03039616
#
# Stress axis : x y z
#
# Youngs Moduli (GPa) = 60.47365 60.47365 69.64669
#
# Poissons Ratio (x) = 0.44173 0.04223
# Poissons Ratio (y) = 0.44173 0.04223
# Poissons Ratio (z) = 0.03667 0.03667
#
# Static dielectric constant tensor:
#      x y z
#    x 1.957640 0.000000 0.000000 
#    y 0.000000 1.957640 0.000000 
#    z 0.000000 0.000000 2.035240 
# 
# From -- ./inp_files/1146.got.cif
#   From: 2010.05.17/outbox.cif.g08.bks.cpg/sg154_1_cif.got.tgz:1146.got - 2010.05.20 10:41:43.
