data_PCOD9576528
_publ_section_title
;
Structure prediction by ZEFSAII (Michael W. Deem and Ramdas Pophale) SiO2 
 PCOD9576528
Probable space group: P 32 2 1
;
_chemical_formula_sum "Si O2"
_cell_formula_units_Z 45
_cell_length_a 13.314477
_cell_length_b 13.314477
_cell_length_c 12.301548
_cell_angle_alpha 90.000000
_cell_angle_beta 90.000000
_cell_angle_gamma 120.000000
_cell_volume 1888.594066
_symmetry_space_group_name_H-M "P 32 2 1"
_symmetry_group_IT_number 154
_symmetry_cell_setting 'hexagonal'
loop_
_space_group_symop_operation_xyz
x,y,z
-y,x-y,2/3+z
-x+y,-x,1/3+z
x-y,-y,1/3-z
-x,-x+y,2/3-z
y,x,-z
loop_
_atom_site_type_symbol
_atom_site_label
_atom_site_fract_x
_atom_site_fract_y
_atom_site_fract_z
Si Si1 0.706668 0.246716 0.468611
Si Si2 0.222353 0.081554 0.313468
Si Si3 0.456399 0.966100 0.286480
Si Si4 0.149667 0.149667 0.500000
Si Si5 0.454868 0.154882 0.422104
Si Si6 0.169482 0.264155 0.906992
Si Si7 0.525173 0.284787 0.051788
Si Si8 0.736753 0.125588 0.286580
O O1 0.591429 0.218458 0.398768
O O2 0.680056 0.209086 0.592466
O O3 0.775871 0.383441 0.455445
O O4 0.760773 0.180126 0.406083
O O5 0.138011 0.054713 0.416547
O O6 0.355158 0.159338 0.352569
O O7 0.204747 0.145010 0.210870
O O8 0.196022 0.956384 0.277309
O O9 0.427131 0.023811 0.389765
O O10 0.598557 0.028223 0.283583
O O11 0.431214 0.000000 0.166667
O O12 0.371245 0.827528 0.285460
O O13 0.257579 0.189794 0.581287
O O14 0.449682 0.214453 0.535760
O O15 0.246750 0.401063 0.898329
O O16 0.219313 0.219313 0.000000
#
# Coordination Sequence:
#
# PCOD9576528 Si02
#       8
#     6   6   6   3   6   6   6   6
#     4  11  25  41  64  97 146 181 234 281 358 416
#     4  10  23  45  73 103 131 183 238 298 359 424
#     4  11  21  37  67  94 132 181 233 274 346 421
#     4  10  22  38  76 102 130 170 246 290 360 414
#     4  10  20  41  66  96 136 174 231 291 332 427
#     4  11  26  48  71 100 144 183 241 299 358 431
#     4  12  26  43  65 105 137 196 230 290 358 430
#     4  10  21  39  61 100 132 174 223 295 344 412
#
# _framework density 23.827247
#
# number of rings (size 3 to 8) (size 9 to 14) (size 15 to 20)
#    0.000    1.333    3.333    1.600    7.467    1.067 
#    2.400    0.667    0.000    0.000    0.000    0.000 
#    0.000    0.000    0.000    0.000    0.000    0.000 
#
# Total GULP energy -250859.251137 kJ/mol
# GULP energy per Si atom -5574.650025 kJ/mol
# Density = 2.377302 g / cm^3
# Si number density = 23.827247 Si / 1000 Ang^3
#
#
#
# Elastic Constant Matrix: (Units=GPa)
#
#
# Indices 1 2 3 4 5 6 
#
# 1 30.2823 1.5598 -3.2136 -5.7895 0.0000 0.0000
# 2 1.5598 30.2823 -3.2136 5.7895 0.0000 0.0000
# 3 -3.2136 -3.2136 72.9938 0.0000 0.0000 0.0000
# 4 -5.7895 5.7895 0.0000 29.8129 0.0000 0.0000
# 5 0.0000 0.0000 0.0000 0.0000 29.8129 -5.7895
# 6 0.0000 0.0000 0.0000 0.0000 -5.7895 14.3613
#
#
#
# Elastic Compliance Matrix: (Units=1/GPa)
#
#
# Indices 1 2 3 4 5 6 
#
# 1 0.034730 -0.003043 0.001395 0.007335 0.000000 0.000000
# 2 -0.003043 0.034730 0.001395 -0.007335 0.000000 0.000000
# 3 0.001395 0.001395 0.013823 0.000000 0.000000 0.000000
# 4 0.007335 -0.007335 0.000000 0.036392 0.000000 0.000000
# 5 0.000000 0.000000 0.000000 0.000000 0.036392 0.014671
# 6 0.000000 0.000000 0.000000 0.000000 0.014671 0.075546
#
#
# Mechanical properties :
#
#
# Convention : Reuss Voigt Hill
#
# Bulk Modulus (GPa) = 12.08083 13.75818 12.91951
# Shear Modulus (GPa) = 19.25229 24.02580 21.63904
#
# Velocity S-wave (km/s) = 2.84561 3.17887 3.01684
# Velocity P-wave (km/s) = 3.98470 4.38866 4.19155
#
# Compressibility (1/GPa) = 0.08277578
#
# Stress axis : x y z
#
# Youngs Moduli (GPa) = 28.79375 28.79375 72.34515
#
# Poissons Ratio (x) = 0.08763 -0.10092
# Poissons Ratio (y) = 0.08763 -0.10092
# Poissons Ratio (z) = -0.04017 -0.04017
#
# Static dielectric constant tensor:
#      x y z
#    x 1.966440 0.000000 0.000000 
#    y 0.000000 1.966440 0.000000 
#    z 0.000000 0.000000 1.905530 
# 
# From -- ./inp_files/1782.got.cif
#   From: 2010.05.17/outbox.cif.g08.bks.cpg/sg154_1_cif.got.tgz:1782.got - 2010.05.20 10:41:43.
