data_PCOD9576507
_publ_section_title
;
Structure prediction by ZEFSAII (Michael W. Deem and Ramdas Pophale) SiO2 
 PCOD9576507
Probable space group: P 32 2 1
;
_chemical_formula_sum "Si O2"
_cell_formula_units_Z 39
_cell_length_a 7.787498
_cell_length_b 7.787498
_cell_length_c 32.295926
_cell_angle_alpha 90.000000
_cell_angle_beta 90.000000
_cell_angle_gamma 120.000000
_cell_volume 1696.189105
_symmetry_space_group_name_H-M "P 32 2 1"
_symmetry_group_IT_number 154
_symmetry_cell_setting 'hexagonal'
loop_
_space_group_symop_operation_xyz
x,y,z
-y,x-y,2/3+z
-x+y,-x,1/3+z
x-y,-y,1/3-z
-x,-x+y,2/3-z
y,x,-z
loop_
_atom_site_type_symbol
_atom_site_label
_atom_site_fract_x
_atom_site_fract_y
_atom_site_fract_z
Si Si1 0.413450 0.787035 0.307327
Si Si2 0.157741 0.973049 0.591920
Si Si3 0.082704 0.826332 0.285334
Si Si4 0.604732 0.604732 0.000000
Si Si5 0.631487 0.782361 0.159139
Si Si6 0.758557 0.201642 0.547983
Si Si7 0.532830 0.999920 0.941096
O O1 0.317818 0.902056 0.284321
O O2 0.527463 0.697068 0.282252
O O3 0.528265 0.908260 0.347435
O O4 0.200740 0.593751 0.320192
O O5 0.956617 0.962033 0.604483
O O6 0.109762 0.748148 0.588601
O O7 0.311756 0.067590 0.628964
O O8 0.250874 0.078757 0.550123
O O9 0.000000 0.776200 0.333334
O O10 0.974372 0.659609 0.249269
O O11 0.746350 0.709705 0.190739
O O12 0.413140 0.593527 0.149858
O O13 0.655394 0.000000 0.166667
O O14 0.827856 0.389024 0.577800
#
# Coordination Sequence:
#
# PCOD9576507 Si02
#       7
#     6   6   6   3   6   6   6
#     4  11  21  37  62 101 146 184 234 298 377 441
#     4  11  23  41  69 103 143 193 244 301 369 449
#     4  12  22  42  70 103 145 193 236 305 382 443
#     4  10  20  38  68  96 140 190 234 300 376 438
#     4  12  27  52  75 107 145 207 259 309 377 454
#     4  12  26  50  77 102 149 195 253 310 373 457
#     4  11  23  40  63 106 144 187 242 304 373 448
#
# _framework density 22.992721
#
# number of rings (size 3 to 8) (size 9 to 14) (size 15 to 20)
#    0.000    0.615    4.615    4.615    0.000    0.000 
#    8.308    0.000    0.000    0.000    0.000    0.000 
#    0.000    0.000    0.000    0.000    0.000    0.000 
#
# Total GULP energy -217770.975404 kJ/mol
# GULP energy per Si atom -5583.871164 kJ/mol
# Density = 2.294039 g / cm^3
# Si number density = 22.992721 Si / 1000 Ang^3
#
#
#
# Elastic Constant Matrix: (Units=GPa)
#
#
# Indices 1 2 3 4 5 6 
#
# 1 50.8530 2.8737 9.6692 -3.7378 -0.0003 0.0000
# 2 2.8737 50.8530 9.6692 3.7378 0.0003 0.0000
# 3 9.6692 9.6692 80.7043 0.0000 0.0000 0.0000
# 4 -3.7378 3.7378 0.0000 31.7335 0.0000 0.0003
# 5 -0.0003 0.0003 0.0000 0.0000 31.7335 -3.7378
# 6 0.0000 0.0000 0.0000 0.0003 -3.7378 23.9896
#
#
#
# Elastic Compliance Matrix: (Units=1/GPa)
#
#
# Indices 1 2 3 4 5 6 
#
# 1 0.020342 -0.000890 -0.002330 0.002501 0.000000 0.000000
# 2 -0.000890 0.020342 -0.002330 -0.002501 0.000000 0.000000
# 3 -0.002330 -0.002330 0.012949 0.000000 0.000000 0.000000
# 4 0.002501 -0.002501 0.000000 0.032102 0.000000 0.000000
# 5 0.000000 0.000000 0.000000 0.000000 0.032102 0.005002
# 6 0.000000 0.000000 0.000000 0.000000 0.005002 0.042464
#
#
# Mechanical properties :
#
#
# Convention : Reuss Voigt Hill
#
# Bulk Modulus (GPa) = 23.51256 25.20384 24.35820
# Shear Modulus (GPa) = 26.94265 28.17118 27.55692
#
# Velocity S-wave (km/s) = 3.42686 3.50411 3.46570
# Velocity P-wave (km/s) = 5.08980 5.23041 5.16059
#
# Compressibility (1/GPa) = 0.04253047
#
# Stress axis : x y z
#
# Youngs Moduli (GPa) = 49.15991 49.15991 77.22397
#
# Poissons Ratio (x) = 0.04376 0.17997
# Poissons Ratio (y) = 0.04376 0.17997
# Poissons Ratio (z) = 0.11457 0.11457
#
# Static dielectric constant tensor:
#      x y z
#    x 1.974250 0.000000 0.000000 
#    y 0.000000 1.974250 0.000000 
#    z 0.000000 0.000000 1.861440 
# 
# From -- ./inp_files/3719.got.cif
#   From: 2010.05.17/outbox.cif.g08.bks.cpg/sg154_2_cif.got.tgz:3719.got - 2010.05.20 10:41:43.
