data_PCOD9576600
_publ_section_title
;
Structure prediction by ZEFSAII (Michael W. Deem and Ramdas Pophale) SiO2 
 PCOD9576600
Probable space group: P 32 2 1
;
_chemical_formula_sum "Si O2"
_cell_formula_units_Z 27
_cell_length_a 7.988253
_cell_length_b 7.988253
_cell_length_c 25.263609
_cell_angle_alpha 90.000000
_cell_angle_beta 90.000000
_cell_angle_gamma 120.000000
_cell_volume 1396.142171
_symmetry_space_group_name_H-M "P 32 2 1"
_symmetry_group_IT_number 154
_symmetry_cell_setting 'hexagonal'
loop_
_space_group_symop_operation_xyz
x,y,z
-y,x-y,2/3+z
-x+y,-x,1/3+z
x-y,-y,1/3-z
-x,-x+y,2/3-z
y,x,-z
loop_
_atom_site_type_symbol
_atom_site_label
_atom_site_fract_x
_atom_site_fract_y
_atom_site_fract_z
Si Si1 0.206048 0.503014 0.072624
Si Si2 0.146075 0.925189 0.495254
Si Si3 0.546803 0.321736 0.499292
Si Si4 0.446082 0.000000 0.666667
Si Si5 0.835594 0.521998 0.079182
O O1 0.135282 0.302072 0.103191
O O2 0.309015 0.660615 0.119593
O O3 0.363603 0.525426 0.030302
O O4 0.016650 0.512064 0.054575
O O5 0.993143 0.993143 0.500000
O O6 0.094725 0.756121 0.536587
O O7 0.357345 0.109515 0.507873
O O8 0.475664 0.475664 0.500000
O O9 0.630432 0.310814 0.441831
O O10 0.274536 0.868246 0.626061
#
# Coordination Sequence:
#
# PCOD9576600 Si02
#       5
#     6   6   6   3   6
#     4  10  22  40  62  90 121 164 208 250 321 377
#     4   9  18  39  65  91 116 154 209 266 307 370
#     4   9  18  37  69  91 114 158 212 262 308 375
#     4  12  24  44  58  86 142 166 192 278 314 366
#     4  10  22  40  62  88 124 164 204 253 323 371
#
# _framework density 19.339003000000002
#
# number of rings (size 3 to 8) (size 9 to 14) (size 15 to 20)
#    0.000    2.222    2.222    0.000    3.111    2.667 
#    8.000    0.000    0.000    0.000    0.000    0.000 
#    0.000    0.000    0.000    0.000    0.000    0.000 
#
# Total GULP energy -150570.768199 kJ/mol
# GULP energy per Si atom -5576.695118 kJ/mol
# Density = 1.929499 g / cm^3
# Si number density = 19.339003 Si / 1000 Ang^3
#
#
#
# Elastic Constant Matrix: (Units=GPa)
#
#
# Indices 1 2 3 4 5 6 
#
# 1 54.7449 6.6933 12.3923 3.7810 0.0001 0.0000
# 2 6.6933 54.7449 12.3923 -3.7810 -0.0001 0.0000
# 3 12.3923 12.3923 47.1113 0.0000 0.0000 0.0000
# 4 3.7810 -3.7810 0.0000 13.9386 0.0000 -0.0001
# 5 0.0001 -0.0001 0.0000 0.0000 13.9386 3.7810
# 6 0.0000 0.0000 0.0000 -0.0001 3.7810 24.0258
#
#
#
# Elastic Compliance Matrix: (Units=1/GPa)
#
#
# Indices 1 2 3 4 5 6 
#
# 1 0.019974 -0.001765 -0.004790 -0.005897 0.000000 0.000000
# 2 -0.001765 0.019974 -0.004790 0.005897 0.000000 0.000000
# 3 -0.004790 -0.004790 0.023746 0.000000 0.000000 0.000000
# 4 -0.005897 0.005897 0.000000 0.074942 0.000000 0.000000
# 5 0.000000 0.000000 0.000000 0.000000 0.074942 -0.011794
# 6 0.000000 0.000000 0.000000 0.000000 -0.011794 0.043478
#
#
# Mechanical properties :
#
#
# Convention : Reuss Voigt Hill
#
# Bulk Modulus (GPa) = 24.38738 24.39522 24.39130
# Shear Modulus (GPa) = 17.04081 18.72216 17.88148
#
# Velocity S-wave (km/s) = 2.97166 3.11481 3.04408
# Velocity P-wave (km/s) = 4.94087 5.05747 4.99951
#
# Compressibility (1/GPa) = 0.04100482
#
# Stress axis : x y z
#
# Youngs Moduli (GPa) = 50.06546 50.06546 42.11216
#
# Poissons Ratio (x) = 0.08837 0.20170
# Poissons Ratio (y) = 0.08837 0.20170
# Poissons Ratio (z) = 0.23980 0.23980
#
# Static dielectric constant tensor:
#      x y z
#    x 1.686820 0.000000 0.000000 
#    y 0.000000 1.686820 0.000000 
#    z 0.000000 0.000000 1.693260 
# 
# From -- ./inp_files/3295.got.cif
#   From: 2010.05.17/outbox.cif.g08.bks.cpg/sg154_2_cif.got.tgz:3295.got - 2010.05.20 10:41:43.
