data_PCOD9576430
_publ_section_title
;
Structure prediction by ZEFSAII (Michael W. Deem and Ramdas Pophale) SiO2 
 PCOD9576430
Probable space group: P 32 2 1
;
_chemical_formula_sum "Si O2"
_cell_formula_units_Z 36
_cell_length_a 13.589431
_cell_length_b 13.589431
_cell_length_c 13.446180
_cell_angle_alpha 90.000000
_cell_angle_beta 90.000000
_cell_angle_gamma 120.000000
_cell_volume 2150.463612
_symmetry_space_group_name_H-M "P 32 2 1"
_symmetry_group_IT_number 154
_symmetry_cell_setting 'hexagonal'
loop_
_space_group_symop_operation_xyz
x,y,z
-y,x-y,2/3+z
-x+y,-x,1/3+z
x-y,-y,1/3-z
-x,-x+y,2/3-z
y,x,-z
loop_
_atom_site_type_symbol
_atom_site_label
_atom_site_fract_x
_atom_site_fract_y
_atom_site_fract_z
Si Si1 0.156219 0.689212 0.574542
Si Si2 0.861649 0.318503 0.092187
Si Si3 0.559303 0.625962 0.897534
Si Si4 0.351296 0.482230 0.475997
Si Si5 0.386076 0.329366 0.106475
Si Si6 0.571851 0.705262 0.478183
O O1 0.173823 0.585259 0.539915
O O2 0.261808 0.812451 0.555551
O O3 0.143655 0.668562 0.692000
O O4 0.042373 0.672247 0.522470
O O5 0.768829 0.202242 0.139454
O O6 0.986309 0.370560 0.138958
O O7 0.857747 0.298188 0.974781
O O8 0.432770 0.516565 0.898657
O O9 0.617793 0.617793 0.000000
O O10 0.408077 0.408077 0.500000
O O11 0.444119 0.609671 0.511638
O O12 0.389086 0.216566 0.139265
O O13 0.329515 0.329515 0.000000
O O14 0.656040 0.656040 0.500000
#
# Coordination Sequence:
#
# PCOD9576430 Si02
#       6
#     6   6   6   6   6   6
#     4  10  20  34  55  80 111 144 180 223 269 327
#     4  10  20  34  55  81 113 144 178 227 273 328
#     4  10  19  35  56  84 112 143 183 219 273 334
#     4  10  19  34  55  81 110 142 178 222 276 329
#     4  10  22  37  55  81 112 147 183 227 274 328
#     4  10  22  37  54  81 109 147 186 225 278 330
#
# _framework density 16.740576000000001
#
# number of rings (size 3 to 8) (size 9 to 14) (size 15 to 20)
#    0.000    2.000    1.667    2.000    2.333    1.333 
#    0.000    0.000    0.000    2.000    0.000    0.000 
#    0.000    0.000    0.000    0.000    0.000    0.000 
#
# Total GULP energy -200702.031462 kJ/mol
# GULP energy per Si atom -5575.056430 kJ/mol
# Density = 1.670247 g / cm^3
# Si number density = 16.740576 Si / 1000 Ang^3
#
#
#
# Elastic Constant Matrix: (Units=GPa)
#
#
# Indices 1 2 3 4 5 6 
#
# 1 109.3173 58.7045 34.7359 -0.9048 0.0000 0.0000
# 2 58.7045 109.3173 34.7359 0.9048 0.0000 0.0000
# 3 34.7359 34.7359 49.7247 0.0000 0.0000 0.0000
# 4 -0.9048 0.9048 0.0000 26.3498 0.0000 0.0000
# 5 0.0000 0.0000 0.0000 0.0000 26.3498 -0.9048
# 6 0.0000 0.0000 0.0000 0.0000 -0.9048 25.3064
#
#
#
# Elastic Compliance Matrix: (Units=1/GPa)
#
#
# Indices 1 2 3 4 5 6 
#
# 1 0.014075 -0.005707 -0.005846 0.000679 0.000000 0.000000
# 2 -0.005707 0.014075 -0.005846 -0.000679 0.000000 0.000000
# 3 -0.005846 -0.005846 0.028279 0.000000 0.000000 0.000000
# 4 0.000679 -0.000679 0.000000 0.037998 0.000000 0.000000
# 5 0.000000 0.000000 0.000000 0.000000 0.037998 0.001359
# 6 0.000000 0.000000 0.000000 0.000000 0.001359 0.039564
#
#
# Mechanical properties :
#
#
# Convention : Reuss Voigt Hill
#
# Bulk Modulus (GPa) = 46.22871 58.30132 52.26501
# Shear Modulus (GPa) = 23.36476 24.94673 24.15575
#
# Velocity S-wave (km/s) = 3.73996 3.86449 3.80273
# Velocity P-wave (km/s) = 6.80620 7.40367 7.11122
#
# Compressibility (1/GPa) = 0.02163158
#
# Stress axis : x y z
#
# Youngs Moduli (GPa) = 71.04561 71.04561 35.36245
#
# Poissons Ratio (x) = 0.40543 0.20673
# Poissons Ratio (y) = 0.40543 0.20673
# Poissons Ratio (z) = 0.41534 0.41534
#
# Static dielectric constant tensor:
#      x y z
#    x 1.550380 0.000000 0.000000 
#    y 0.000000 1.550380 0.000000 
#    z 0.000000 0.000000 1.593920 
# 
# From -- ./inp_files/1985.got.cif
#   From: 2010.05.17/outbox.cif.g08.bks.cpg/sg154_1_cif.got.tgz:1985.got - 2010.05.20 10:41:43.
