data_PCOD9576919
_publ_section_title
;
Structure prediction by ZEFSAII (Michael W. Deem and Ramdas Pophale) SiO2 
 PCOD9576919
Probable space group: R 3 2
;
_chemical_formula_sum "Si O2"
_cell_formula_units_Z 114
_cell_length_a 21.661692
_cell_length_b 21.661692
_cell_length_c 13.614626
_cell_angle_alpha 90.000000
_cell_angle_beta 90.000000
_cell_angle_gamma 120.000000
_cell_volume 5532.495893
_symmetry_space_group_name_H-M "R 3 2"
_symmetry_group_IT_number 155
_symmetry_cell_setting 'hexagonal'
loop_
_space_group_symop_operation_xyz
x,y,z
-y,x-y,z
-x+y,-x,z
x-y,-y,-z
-x,-x+y,-z
y,x,-z
2/3+x,1/3+y,1/3+z
2/3-y,1/3+x-y,1/3+z
2/3-x+y,1/3-x,1/3+z
2/3+x-y,1/3-y,1/3-z
2/3-x,1/3-x+y,1/3-z
2/3+y,1/3+x,1/3-z
1/3+x,2/3+y,2/3+z
1/3-y,2/3+x-y,2/3+z
1/3-x+y,2/3-x,2/3+z
1/3+x-y,2/3-y,2/3-z
1/3-x,2/3-x+y,2/3-z
1/3+y,2/3+x,2/3-z
loop_
_atom_site_type_symbol
_atom_site_label
_atom_site_fract_x
_atom_site_fract_y
_atom_site_fract_z
Si Si1 0.496386 0.413002 0.366982
Si Si2 0.333334 0.666668 0.285156
Si Si3 0.158466 0.293928 0.428109
Si Si4 0.442389 0.828156 0.986874
Si Si5 0.097315 0.510323 0.819253
Si Si6 0.404604 0.250992 0.974565
Si Si7 0.747038 0.831086 0.798606
O O1 0.467443 0.333334 0.333334
O O2 0.556058 0.467426 0.289986
O O3 0.432187 0.430786 0.362695
O O4 0.532676 0.430750 0.472726
O O5 0.333334 0.666668 0.166667
O O6 0.307010 0.586742 0.323046
O O7 0.208667 0.333334 0.333334
O O8 0.099256 0.216605 0.390466
O O9 0.138407 0.352633 0.463270
O O10 0.190782 0.280792 0.526172
O O11 0.522682 0.845993 0.007437
O O12 0.435983 0.852770 0.878479
O O13 0.133222 0.462825 0.835606
O O14 0.416853 0.187818 0.018924
O O15 0.666667 0.777388 0.833334
#
# Coordination Sequence:
#
# PCOD9576919 Si02
#       7
#    18   6  18  18  18  18  18
#     4  10  21  37  61  91 120 156 200 255 321 379
#     4  12  24  36  57  84 121 173 214 258 318 387
#     4   9  20  38  57  82 114 151 197 252 307 363
#     4  11  22  38  57  85 122 160 205 254 313 380
#     4  10  21  39  61  87 121 159 204 258 312 376
#     4  10  20  37  60  84 117 156 199 252 308 376
#     4  10  21  39  61  87 118 157 205 255 311 375
#
# _framework density 20.605528
#
# number of rings (size 3 to 8) (size 9 to 14) (size 15 to 20)
#    0.000    1.895    0.000    3.789    0.000    1.895 
#    0.000   25.263    0.000    4.421    0.000    0.000 
#    0.000    0.000    0.000    0.000    0.000    0.000 
#
# Total GULP energy -211943.233370 kJ/mol
# GULP energy per Si atom -5577.453510 kJ/mol
# Density = 2.055863 g / cm^3
# Si number density = 20.605528 Si / 1000 Ang^3
#
#
#
# Elastic Constant Matrix: (Units=GPa)
#
#
# Indices 1 2 3 4 5 6 
#
# 1 96.9612 52.2297 25.4993 0.2816 0.0006 0.0000
# 2 52.2297 96.9611 25.4991 -0.2813 -0.0006 0.0000
# 3 25.4993 25.4991 94.5472 0.0000 0.0000 0.0000
# 4 0.2816 -0.2813 0.0000 21.2139 0.0000 -0.0005
# 5 0.0006 -0.0006 0.0000 0.0000 21.2139 0.2815
# 6 0.0000 0.0000 0.0000 -0.0005 0.2815 22.3659
#
#
#
# Elastic Compliance Matrix: (Units=1/GPa)
#
#
# Indices 1 2 3 4 5 6 
#
# 1 0.014871 -0.007488 -0.001991 -0.000297 -0.000001 0.000000
# 2 -0.007488 0.014871 -0.001991 0.000297 0.000001 0.000000
# 3 -0.001991 -0.001991 0.011651 0.000000 0.000000 0.000000
# 4 -0.000297 0.000297 0.000000 0.047147 0.000000 0.000001
# 5 -0.000001 0.000001 0.000000 0.000000 0.047147 -0.000593
# 6 0.000000 0.000000 0.000000 0.000001 -0.000593 0.044718
#
#
# Mechanical properties :
#
#
# Convention : Reuss Voigt Hill
#
# Bulk Modulus (GPa) = 54.19289 54.99173 54.59231
# Shear Modulus (GPa) = 23.86662 25.30817 24.58739
#
# Velocity S-wave (km/s) = 3.40702 3.50840 3.45808
# Velocity P-wave (km/s) = 6.46794 6.56945 6.51889
#
# Compressibility (1/GPa) = 0.01845260
#
# Stress axis : x y z
#
# Youngs Moduli (GPa) = 67.24300 67.24299 85.83071
#
# Poissons Ratio (x) = 0.50351 0.17092
# Poissons Ratio (y) = 0.50351 0.17092
# Poissons Ratio (z) = 0.13390 0.13390
#
# Static dielectric constant tensor:
#      x y z
#    x 1.734190 0.000000 0.000000 
#    y 0.000000 1.734190 0.000000 
#    z 0.000000 0.000000 1.797600 
# 
# From -- ./inp_files/5209.got.cif
#   From: 2010.05.17/outbox.cif.g08.bks.cpg/sg155_3_cif.got.tgz:5209.got - 2010.05.20 10:44:35.
