data_PCOD9576277
_publ_section_title
;
Structure prediction by ZEFSAII (Michael W. Deem and Ramdas Pophale) SiO2 
 PCOD9576277
Probable space group: P 32 1 2
;
_chemical_formula_sum "Si O2"
_cell_formula_units_Z 45
_cell_length_a 12.648837
_cell_length_b 12.648837
_cell_length_c 14.046118
_cell_angle_alpha 90.000000
_cell_angle_beta 90.000000
_cell_angle_gamma 120.000000
_cell_volume 1946.202994
_symmetry_space_group_name_H-M "P 32 1 2"
_symmetry_group_IT_number 153
_symmetry_cell_setting 'hexagonal'
loop_
_space_group_symop_operation_xyz
x,y,z
-y,x-y,2/3+z
-x+y,-x,1/3+z
-y,-x,1/3-z
-x+y,y,2/3-z
x,x-y,-z
loop_
_atom_site_type_symbol
_atom_site_label
_atom_site_fract_x
_atom_site_fract_y
_atom_site_fract_z
Si Si1 0.194177 0.388353 0.833334
Si Si2 0.492542 0.151099 0.563825
Si Si3 0.816680 0.142223 0.384504
Si Si4 0.289542 0.757227 0.979491
Si Si5 0.409651 0.015350 0.890325
Si Si6 0.668044 0.948462 0.230238
Si Si7 0.697825 0.075861 0.579622
Si Si8 0.744436 0.819014 0.095012
O O1 0.257670 0.474788 0.743949
O O2 0.266098 0.321332 0.874011
O O3 0.547155 0.273578 0.500000
O O4 0.423808 0.169642 0.653272
O O5 0.587781 0.106585 0.582967
O O6 0.387096 0.044861 0.501807
O O7 0.775366 0.154930 0.489457
O O8 0.944914 0.144606 0.395051
O O9 0.722826 0.018776 0.329150
O O10 0.387347 0.893626 0.948073
O O11 0.175970 0.714496 0.906520
O O12 0.348098 0.674049 0.000000
O O13 0.537753 0.075505 0.833334
O O14 0.310363 0.964418 0.807420
O O15 0.364738 0.076414 0.971835
O O16 0.759923 0.914054 0.176801
O O17 0.694492 0.847246 0.000000
#
# Coordination Sequence:
#
# PCOD9576277 Si02
#       8
#     3   6   6   6   6   6   6   6
#     4  10  20  38  62  96 136 180 224 298 376 416
#     4  10  22  40  71 107 138 187 242 301 365 433
#     4  11  23  43  73 101 139 184 242 303 368 432
#     4  10  20  34  60  94 134 174 223 290 360 436
#     4  10  24  41  63 100 139 185 234 282 360 437
#     4  10  21  39  66  97 129 172 239 290 354 428
#     4  11  23  44  71 102 145 183 241 303 368 444
#     4  11  23  43  68  91 135 181 228 292 355 421
#
# _framework density 23.121945
#
# number of rings (size 3 to 8) (size 9 to 14) (size 15 to 20)
#    0.000    1.600    2.667    1.600    0.933    2.667 
#    0.000    4.667    2.933    0.000    0.000    0.000 
#    0.000    0.000    0.000    0.000    0.000    0.000 
#
# Total GULP energy -250689.766462 kJ/mol
# GULP energy per Si atom -5570.883699 kJ/mol
# Density = 2.306932 g / cm^3
# Si number density = 23.121945 Si / 1000 Ang^3
#
#
#
# Elastic Constant Matrix: (Units=GPa)
#
#
# Indices 1 2 3 4 5 6 
#
# 1 52.0211 -22.8570 22.8418 -0.0013 7.0981 0.0000
# 2 -22.8570 52.0211 22.8418 0.0013 -7.0981 0.0000
# 3 22.8418 22.8418 165.3751 0.0000 0.0000 0.0000
# 4 -0.0013 0.0013 0.0000 24.6447 0.0000 -7.0981
# 5 7.0981 -7.0981 0.0000 0.0000 24.6447 -0.0013
# 6 0.0000 0.0000 0.0000 -7.0981 -0.0013 37.4391
#
#
#
# Elastic Compliance Matrix: (Units=1/GPa)
#
#
# Indices 1 2 3 4 5 6 
#
# 1 0.028941 0.014815 -0.006044 0.000001 -0.004069 0.000000
# 2 0.014815 0.028941 -0.006044 -0.000001 0.004069 0.000000
# 3 -0.006044 -0.006044 0.007716 0.000000 0.000000 0.000000
# 4 0.000001 -0.000001 0.000000 0.042920 0.000000 0.008137
# 5 -0.004069 0.004069 0.000000 0.000000 0.042920 0.000001
# 6 0.000000 0.000000 0.000000 0.008137 0.000001 0.028253
#
#
# Mechanical properties :
#
#
# Convention : Reuss Voigt Hill
#
# Bulk Modulus (GPa) = 14.07395 35.00781 24.54088
# Shear Modulus (GPa) = 25.26257 33.78509 29.52383
#
# Velocity S-wave (km/s) = 3.30901 3.82667 3.57722
# Velocity P-wave (km/s) = 4.54966 5.89050 5.26295
#
# Compressibility (1/GPa) = 0.07105324
#
# Stress axis : x y z
#
# Youngs Moduli (GPa) = 34.55307 34.55307 129.59502
#
# Poissons Ratio (x) = -0.51189 0.78322
# Poissons Ratio (y) = -0.51189 0.78322
# Poissons Ratio (z) = 0.20882 0.20882
#
# Static dielectric constant tensor:
#      x y z
#    x 1.842570 0.000000 0.000000 
#    y 0.000000 1.842570 0.000000 
#    z 0.000000 0.000000 1.958690 
# 
# From -- ./inp_files/2686.got.cif
#   From: 2010.05.17/outbox.cif.g08.bks.cpg/sg153_2_cif.got.tgz:2686.got - 2010.05.20 10:38:56.
