data_PCOD9576798
_publ_section_title
;
Structure prediction by ZEFSAII (Michael W. Deem and Ramdas Pophale) SiO2 
 PCOD9576798
Probable space group: R 3 2
;
_chemical_formula_sum "Si O2"
_cell_formula_units_Z 63
_cell_length_a 13.154368
_cell_length_b 13.154368
_cell_length_c 16.039962
_cell_angle_alpha 90.000000
_cell_angle_beta 90.000000
_cell_angle_gamma 120.000000
_cell_volume 2403.665009
_symmetry_space_group_name_H-M "R 3 2"
_symmetry_group_IT_number 155
_symmetry_cell_setting 'hexagonal'
loop_
_space_group_symop_operation_xyz
x,y,z
-y,x-y,z
-x+y,-x,z
x-y,-y,-z
-x,-x+y,-z
y,x,-z
2/3+x,1/3+y,1/3+z
2/3-y,1/3+x-y,1/3+z
2/3-x+y,1/3-x,1/3+z
2/3+x-y,1/3-y,1/3-z
2/3-x,1/3-x+y,1/3-z
2/3+y,1/3+x,1/3-z
1/3+x,2/3+y,2/3+z
1/3-y,2/3+x-y,2/3+z
1/3-x+y,2/3-x,2/3+z
1/3+x-y,2/3-y,2/3-z
1/3-x,2/3-x+y,2/3-z
1/3+y,2/3+x,2/3-z
loop_
_atom_site_type_symbol
_atom_site_label
_atom_site_fract_x
_atom_site_fract_y
_atom_site_fract_z
Si Si1 0.176981 0.000000 0.500000
Si Si2 0.392995 0.211330 0.256560
Si Si3 0.436288 0.893520 0.806508
Si Si4 0.490284 0.141368 0.012701
O O1 0.194395 0.888580 0.513982
O O2 0.141190 0.025696 0.590359
O O3 0.333334 0.180046 0.166667
O O4 0.488762 0.170391 0.247186
O O5 0.465924 0.352008 0.248736
O O6 0.279750 0.119947 0.309264
O O7 0.402379 0.838589 0.901151
O O8 0.421005 0.000000 0.000000
#
# Coordination Sequence:
#
# PCOD9576798 Si02
#       4
#     9  18  18  18
#     4  10  18  36  60  76 116 176 210 244 318 416
#     4  10  19  34  57  94 125 155 216 276 324 383
#     4  10  18  33  60  86 122 162 204 268 328 378
#     4   9  17  35  57  83 119 167 211 247 317 402
#
# _framework density 26.209976999999999
#
# number of rings (size 3 to 8) (size 9 to 14) (size 15 to 20)
#    0.000    2.286    7.143    0.571    0.000    1.143 
#    0.000    0.000   37.714    0.000    0.000    0.000 
#    1.429    0.000    0.000    0.000    0.000    0.000 
#
# Total GULP energy -117125.849762 kJ/mol
# GULP energy per Si atom -5577.421417 kJ/mol
# Density = 2.615032 g / cm^3
# Si number density = 26.209977 Si / 1000 Ang^3
#
#
#
# Elastic Constant Matrix: (Units=GPa)
#
#
# Indices 1 2 3 4 5 6 
#
# 1 111.3342 38.9155 2.4106 13.8445 -0.0003 0.0000
# 2 38.9155 111.3342 2.4106 -13.8445 0.0003 0.0000
# 3 2.4106 2.4106 314.2514 0.0000 0.0000 0.0000
# 4 13.8445 -13.8445 0.0000 11.3343 0.0000 0.0003
# 5 -0.0003 0.0003 0.0000 0.0000 11.3343 13.8445
# 6 0.0000 0.0000 0.0000 0.0003 13.8445 36.2094
#
#
#
# Elastic Compliance Matrix: (Units=1/GPa)
#
#
# Indices 1 2 3 4 5 6 
#
# 1 0.016283 -0.009626 -0.000051 -0.031646 0.000001 0.000000
# 2 -0.009626 0.016283 -0.000051 0.031646 -0.000001 0.000000
# 3 -0.000051 -0.000051 0.003183 0.000000 0.000000 0.000000
# 4 -0.031646 0.031646 0.000000 0.165538 0.000000 -0.000001
# 5 0.000001 -0.000001 0.000000 0.000000 0.165538 -0.063293
# 6 0.000000 0.000000 0.000000 -0.000001 -0.063293 0.051817
#
#
# Mechanical properties :
#
#
# Convention : Reuss Voigt Hill
#
# Bulk Modulus (GPa) = 61.37555 69.37702 65.37629
# Shear Modulus (GPa) = 11.27326 44.65448 27.96387
#
# Velocity S-wave (km/s) = 2.07617 4.13209 3.26991
# Velocity P-wave (km/s) = 5.40509 7.02088 6.26529
#
# Compressibility (1/GPa) = 0.01629313
#
# Stress axis : x y z
#
# Youngs Moduli (GPa) = 61.41431 61.41431 314.17405
#
# Poissons Ratio (x) = 0.59115 0.01604
# Poissons Ratio (y) = 0.59115 0.01604
# Poissons Ratio (z) = 0.00314 0.00314
#
# Static dielectric constant tensor:
#      x y z
#    x 1.989350 0.000000 0.000000 
#    y 0.000000 1.989350 0.000000 
#    z 0.000000 0.000000 2.007420 
# 
# From -- ./inp_files/5803.got.cif
#   From: 2010.05.17/outbox.cif.g08.bks.cpg/sg155_3_cif.got.tgz:5803.got - 2010.05.20 10:44:35.
