data_PCOD9576829
_publ_section_title
;
Structure prediction by ZEFSAII (Michael W. Deem and Ramdas Pophale) SiO2 
 PCOD9576829
Probable space group: R 3 2
;
_chemical_formula_sum "Si O2"
_cell_formula_units_Z 99
_cell_length_a 25.346341
_cell_length_b 25.346341
_cell_length_c 8.529546
_cell_angle_alpha 90.000000
_cell_angle_beta 90.000000
_cell_angle_gamma 120.000000
_cell_volume 4745.555908
_symmetry_space_group_name_H-M "R 3 2"
_symmetry_group_IT_number 155
_symmetry_cell_setting 'hexagonal'
loop_
_space_group_symop_operation_xyz
x,y,z
-y,x-y,z
-x+y,-x,z
x-y,-y,-z
-x,-x+y,-z
y,x,-z
2/3+x,1/3+y,1/3+z
2/3-y,1/3+x-y,1/3+z
2/3-x+y,1/3-x,1/3+z
2/3+x-y,1/3-y,1/3-z
2/3-x,1/3-x+y,1/3-z
2/3+y,1/3+x,1/3-z
1/3+x,2/3+y,2/3+z
1/3-y,2/3+x-y,2/3+z
1/3-x+y,2/3-x,2/3+z
1/3+x-y,2/3-y,2/3-z
1/3-x,2/3-x+y,2/3-z
1/3+y,2/3+x,2/3-z
loop_
_atom_site_type_symbol
_atom_site_label
_atom_site_fract_x
_atom_site_fract_y
_atom_site_fract_z
Si Si1 0.134030 0.026962 0.171298
Si Si2 0.159199 0.656837 0.496487
Si Si3 0.666667 0.033052 0.833334
Si Si4 0.175375 0.942626 0.591339
Si Si5 0.077917 0.137698 0.391431
Si Si6 0.476049 0.438808 0.665124
O O1 0.137852 0.091451 0.153281
O O2 0.197587 0.036222 0.242071
O O3 0.080977 0.983003 0.291321
O O4 0.123610 0.000000 0.000000
O O5 0.140194 0.666667 0.666667
O O6 0.203995 0.716315 0.401805
O O7 0.103152 0.614145 0.390474
O O8 0.599588 0.026301 0.800335
O O9 0.674325 0.007658 0.666667
O O10 0.116202 0.932178 0.494467
O O11 0.163404 0.873893 0.611825
O O12 0.231035 0.000000 0.500000
O O13 0.102049 0.102049 0.500000
O O14 0.455167 0.455167 0.500000
#
# Coordination Sequence:
#
# PCOD9576829 Si02
#       6
#    18  18   9  18  18  18
#     4  10  19  32  49  75 107 146 205 251 299 372
#     4  11  22  36  55  79 119 165 208 260 312 374
#     4  12  26  46  64  98 148 192 240 288 344 420
#     4   9  20  38  58  83 118 162 214 271 331 400
#     4  11  18  33  52  75 109 165 203 247 308 369
#     4  11  23  40  63  92 127 176 232 278 341 403
#
# _framework density 20.861623999999999
#
# number of rings (size 3 to 8) (size 9 to 14) (size 15 to 20)
#    0.000    1.455    6.364    1.091    2.545    0.000 
#    1.091    3.636    0.000    0.000    0.000    0.000 
#    0.000   42.182    0.000    0.000    0.000    0.000 
#
# Total GULP energy -183785.499203 kJ/mol
# GULP energy per Si atom -5569.257552 kJ/mol
# Density = 2.081414 g / cm^3
# Si number density = 20.861624 Si / 1000 Ang^3
#
#
#
# Elastic Constant Matrix: (Units=GPa)
#
#
# Indices 1 2 3 4 5 6 
#
# 1 34.2521 15.8293 14.3426 -1.4048 -0.0677 -0.0167
# 2 15.8293 34.2977 14.4213 1.4076 -0.0003 0.0077
# 3 14.3426 14.4213 115.5382 -0.0223 -0.1206 -0.0353
# 4 -1.4048 1.4076 -0.0223 17.6328 -0.0125 0.0005
# 5 -0.0677 -0.0003 -0.1206 -0.0125 17.5335 -1.4301
# 6 -0.0167 0.0077 -0.0353 0.0005 -1.4301 9.2286
#
#
#
# Elastic Compliance Matrix: (Units=1/GPa)
#
#
# Indices 1 2 3 4 5 6 
#
# 1 0.038203 -0.016693 -0.002658 0.004373 0.000140 0.000095
# 2 -0.016693 0.038173 -0.002693 -0.004381 -0.000092 -0.000087
# 3 -0.002658 -0.002693 0.009321 0.000015 0.000057 0.000042
# 4 0.004373 -0.004381 0.000015 0.057411 0.000059 0.000018
# 5 0.000140 -0.000092 0.000057 0.000059 0.057765 0.008952
# 6 0.000095 -0.000087 0.000042 0.000018 0.008952 0.109746
#
#
# Mechanical properties :
#
#
# Convention : Reuss Voigt Hill
#
# Bulk Modulus (GPa) = 24.03382 30.36381 27.19882
# Shear Modulus (GPa) = 13.56569 18.17866 15.87217
#
# Velocity S-wave (km/s) = 2.55281 2.95514 2.76131
# Velocity P-wave (km/s) = 4.49830 5.12155 4.82001
#
# Compressibility (1/GPa) = 0.04160803
#
# Stress axis : x y z
#
# Youngs Moduli (GPa) = 26.17629 26.19634 107.28085
#
# Poissons Ratio (x) = 0.43731 0.28512
# Poissons Ratio (y) = 0.43697 0.28895
# Poissons Ratio (z) = 0.06957 0.07056
#
# Static dielectric constant tensor:
#      x y z
#    x 1.825310 -0.000010 0.000090 
#    y -0.000010 1.825300 -0.000040 
#    z 0.000090 -0.000040 1.840160 
# 
# From -- ./inp_files/2895.got.cif
#   From: 2010.05.17/outbox.cif.g08.bks.cpg/sg155_2_cif.got.tgz:2895.got - 2010.05.20 10:44:35.
