data_PCOD9576601
_publ_section_title
;
Structure prediction by ZEFSAII (Michael W. Deem and Ramdas Pophale) SiO2 
 PCOD9576601
Probable space group: P 32 2 1
;
_chemical_formula_sum "Si O2"
_cell_formula_units_Z 18
_cell_length_a 7.418980
_cell_length_b 7.418980
_cell_length_c 13.785630
_cell_angle_alpha 90.000000
_cell_angle_beta 90.000000
_cell_angle_gamma 120.000000
_cell_volume 657.121460
_symmetry_space_group_name_H-M "P 32 2 1"
_symmetry_group_IT_number 154
_symmetry_cell_setting 'hexagonal'
loop_
_space_group_symop_operation_xyz
x,y,z
-y,x-y,2/3+z
-x+y,-x,1/3+z
x-y,-y,1/3-z
-x,-x+y,2/3-z
y,x,-z
loop_
_atom_site_type_symbol
_atom_site_label
_atom_site_fract_x
_atom_site_fract_y
_atom_site_fract_z
Si Si1 0.604951 0.915441 0.436647
Si Si2 0.712006 0.000000 0.166667
Si Si3 0.676668 0.306475 0.722176
Si Si4 0.930536 0.930536 0.000000
O O1 0.554926 0.882643 0.551578
O O2 0.380134 0.760831 0.386792
O O3 0.682847 0.151188 0.404864
O O4 0.788548 0.883074 0.386814
O O5 0.507929 0.849188 0.222584
O O6 0.781894 0.882885 0.091820
#
# Coordination Sequence:
#
# PCOD9576601 Si02
#       4
#     6   3   6   3
#     4  11  24  43  68 100 137 187 234 292 348 416
#     4  10  22  40  64  98 134 178 228 288 346 426
#     4  11  24  42  68  99 138 182 235 290 351 413
#     4  10  22  40  64  92 132 174 226 278 340 404
#
# _framework density 27.392196999999999
#
# number of rings (size 3 to 8) (size 9 to 14) (size 15 to 20)
#    0.000    1.333    0.000    6.000    0.000    8.000 
#    0.000    0.000    0.000    2.000    0.000    0.000 
#    0.000    0.000    0.000    0.000    0.000    0.000 
#
# Total GULP energy -100444.113755 kJ/mol
# GULP energy per Si atom -5580.228542 kJ/mol
# Density = 2.732985 g / cm^3
# Si number density = 27.392197 Si / 1000 Ang^3
#
#
#
# Elastic Constant Matrix: (Units=GPa)
#
#
# Indices 1 2 3 4 5 6 
#
# 1 108.3730 14.4641 14.9990 -2.8616 -0.0001 0.0000
# 2 14.4641 108.3730 14.9990 2.8616 0.0001 0.0000
# 3 14.9990 14.9990 82.8983 0.0000 0.0000 0.0000
# 4 -2.8616 2.8616 0.0000 47.5428 0.0000 0.0001
# 5 -0.0001 0.0001 0.0000 0.0000 47.5428 -2.8616
# 6 0.0000 0.0000 0.0000 0.0001 -2.8616 46.9545
#
#
#
# Elastic Compliance Matrix: (Units=1/GPa)
#
#
# Indices 1 2 3 4 5 6 
#
# 1 0.009603 -0.001085 -0.001541 0.000643 0.000000 0.000000
# 2 -0.001085 0.009603 -0.001541 -0.000643 0.000000 0.000000
# 3 -0.001541 -0.001541 0.012621 0.000000 0.000000 0.000000
# 4 0.000643 -0.000643 0.000000 0.021111 0.000000 0.000000
# 5 0.000000 0.000000 0.000000 0.000000 0.021111 0.001287
# 6 0.000000 0.000000 0.000000 0.000000 0.001287 0.021376
#
#
# Mechanical properties :
#
#
# Convention : Reuss Voigt Hill
#
# Bulk Modulus (GPa) = 42.56974 43.17427 42.87201
# Shear Modulus (GPa) = 44.80743 45.42014 45.11379
#
# Velocity S-wave (km/s) = 4.04886 4.07645 4.06268
# Velocity P-wave (km/s) = 6.11819 6.16054 6.13940
#
# Compressibility (1/GPa) = 0.02349087
#
# Stress axis : x y z
#
# Youngs Moduli (GPa) = 104.13943 104.13943 79.23540
#
# Poissons Ratio (x) = 0.11302 0.12210
# Poissons Ratio (y) = 0.11302 0.12210
# Poissons Ratio (z) = 0.16048 0.16048
#
# Static dielectric constant tensor:
#      x y z
#    x 2.285950 0.000000 0.000000 
#    y 0.000000 2.285950 0.000000 
#    z 0.000000 0.000000 2.382590 
# 
# From -- ./inp_files/1485.got.cif
#   From: 2010.05.17/outbox.cif.g08.bks.cpg/sg154_1_cif.got.tgz:1485.got - 2010.05.20 10:41:43.
