data_PCOD9576125
_publ_section_title
;
Structure prediction by ZEFSAII (Michael W. Deem and Ramdas Pophale) SiO2 
 PCOD9576125
Probable space group: P 31 2 1
;
_chemical_formula_sum "Si O2"
_cell_formula_units_Z 36
_cell_length_a 10.515034
_cell_length_b 10.515034
_cell_length_c 15.494235
_cell_angle_alpha 90.000000
_cell_angle_beta 90.000000
_cell_angle_gamma 120.000000
_cell_volume 1483.618134
_symmetry_space_group_name_H-M "P 31 2 1"
_symmetry_group_IT_number 152
_symmetry_cell_setting 'hexagonal'
loop_
_space_group_symop_operation_xyz
x,y,z
-y,x-y,1/3+z
-x+y,-x,2/3+z
x-y,-y,2/3-z
-x,-x+y,1/3-z
y,x,-z
loop_
_atom_site_type_symbol
_atom_site_label
_atom_site_fract_x
_atom_site_fract_y
_atom_site_fract_z
Si Si1 0.864931 0.581193 0.600821
Si Si2 0.071898 0.071898 0.500000
Si Si3 0.044573 0.368576 0.320235
Si Si4 0.768605 0.585552 0.186565
Si Si5 0.984557 0.765170 0.422529
Si Si6 0.173560 0.460331 0.675905
Si Si7 0.511338 0.000000 0.833334
O O1 0.748115 0.622377 0.639925
O O2 0.926640 0.668958 0.510705
O O3 0.801942 0.404941 0.603806
O O4 0.000000 0.644663 0.666667
O O5 0.236899 0.100897 0.514034
O O6 0.015848 0.931491 0.437178
O O7 0.087990 0.446987 0.412559
O O8 0.147756 0.298087 0.309703
O O9 0.081649 0.470078 0.237383
O O10 0.883805 0.537837 0.217196
O O11 0.722533 0.512155 0.092518
O O12 0.127883 0.766400 0.385653
O O13 0.000000 0.353066 0.666667
#
# Coordination Sequence:
#
# PCOD9576125 Si02
#       7
#     6   3   6   6   6   6   3
#     4  11  25  47  71 118 161 205 263 323 414 477
#     4  11  19  40  78 116 147 189 274 328 394 451
#     4  12  25  49  81 114 152 207 279 329 399 479
#     4  11  26  46  75 113 154 212 258 336 398 470
#     4  12  22  46  83 116 156 201 266 346 385 483
#     4  11  26  49  70 120 164 202 267 317 415 491
#     4  11  25  52  66 122 153 197 276 322 404 487
#
# _framework density 24.265004000000001
#
# number of rings (size 3 to 8) (size 9 to 14) (size 15 to 20)
#    0.000    0.667    5.000    3.000    0.000    1.333 
#   18.000    0.000    0.000    0.000    0.000    0.000 
#    0.000    0.000    0.000    0.000    0.000    0.000 
#
# Total GULP energy -201133.468596 kJ/mol
# GULP energy per Si atom -5587.040794 kJ/mol
# Density = 2.420978 g / cm^3
# Si number density = 24.265004 Si / 1000 Ang^3
#
#
#
# Elastic Constant Matrix: (Units=GPa)
#
#
# Indices 1 2 3 4 5 6 
#
# 1 104.1543 56.1869 24.2212 -7.1716 0.0004 0.0000
# 2 56.1869 104.1543 24.2212 7.1716 -0.0004 0.0000
# 3 24.2212 24.2212 91.7433 0.0000 0.0000 0.0000
# 4 -7.1716 7.1716 0.0000 23.9593 0.0000 -0.0004
# 5 0.0004 -0.0004 0.0000 0.0000 23.9593 -7.1716
# 6 0.0000 0.0000 0.0000 -0.0004 -7.1716 23.9837
#
#
#
# Elastic Compliance Matrix: (Units=1/GPa)
#
#
# Indices 1 2 3 4 5 6 
#
# 1 0.014837 -0.008060 -0.001789 0.006854 0.000000 0.000000
# 2 -0.008060 0.014837 -0.001789 -0.006854 0.000000 0.000000
# 3 -0.001789 -0.001789 0.011845 0.000000 0.000000 0.000000
# 4 0.006854 -0.006854 0.000000 0.045840 0.000000 0.000001
# 5 0.000000 0.000000 0.000000 0.000000 0.045840 0.013707
# 6 0.000000 0.000000 0.000000 0.000001 0.013707 0.045794
#
#
# Mechanical properties :
#
#
# Convention : Reuss Voigt Hill
#
# Bulk Modulus (GPa) = 54.81791 56.59005 55.70398
# Shear Modulus (GPa) = 23.99801 27.40863 25.70332
#
# Velocity S-wave (km/s) = 3.14824 3.36453 3.25818
# Velocity P-wave (km/s) = 5.98796 6.20207 6.09596
#
# Compressibility (1/GPa) = 0.01824221
#
# Stress axis : x y z
#
# Youngs Moduli (GPa) = 67.39878 67.39878 84.42557
#
# Poissons Ratio (x) = 0.54322 0.15106
# Poissons Ratio (y) = 0.54322 0.15106
# Poissons Ratio (z) = 0.12059 0.12059
#
# Static dielectric constant tensor:
#      x y z
#    x 1.964260 0.000000 0.000000 
#    y 0.000000 1.964260 0.000000 
#    z 0.000000 0.000000 1.670340 
# 
# From -- ./inp_files/2079.got.cif
#   From: 2010.05.17/outbox.cif.g08.bks.cpg/sg152_2_cif.got.tgz:2079.got - 2010.05.20 10:36:06.
