data_PCOD9576934
_publ_section_title
;
Structure prediction by ZEFSAII (Michael W. Deem and Ramdas Pophale) SiO2 
 PCOD9576934
Probable space group: R 3 2
;
_chemical_formula_sum "Si O2"
_cell_formula_units_Z 69
_cell_length_a 14.471309
_cell_length_b 14.471309
_cell_length_c 17.781480
_cell_angle_alpha 90.000000
_cell_angle_beta 90.000000
_cell_angle_gamma 120.000000
_cell_volume 3224.884547
_symmetry_space_group_name_H-M "R 3 2"
_symmetry_group_IT_number 155
_symmetry_cell_setting 'hexagonal'
loop_
_space_group_symop_operation_xyz
x,y,z
-y,x-y,z
-x+y,-x,z
x-y,-y,-z
-x,-x+y,-z
y,x,-z
2/3+x,1/3+y,1/3+z
2/3-y,1/3+x-y,1/3+z
2/3-x+y,1/3-x,1/3+z
2/3+x-y,1/3-y,1/3-z
2/3-x,1/3-x+y,1/3-z
2/3+y,1/3+x,1/3-z
1/3+x,2/3+y,2/3+z
1/3-y,2/3+x-y,2/3+z
1/3-x+y,2/3-x,2/3+z
1/3+x-y,2/3-y,2/3-z
1/3-x,2/3-x+y,2/3-z
1/3+y,2/3+x,2/3-z
loop_
_atom_site_type_symbol
_atom_site_label
_atom_site_fract_x
_atom_site_fract_y
_atom_site_fract_z
Si Si1 0.247638 0.115633 0.322294
Si Si2 0.000000 0.000000 0.912547
Si Si3 0.879695 0.213028 0.166667
Si Si4 0.893359 0.136779 0.878517
Si Si5 0.897978 0.463749 0.040511
O O1 0.298519 0.159136 0.239919
O O2 0.335341 0.169366 0.389178
O O3 0.148721 0.136730 0.321113
O O4 0.195108 0.987406 0.316578
O O5 0.958604 0.877883 0.891102
O O6 0.000000 0.000000 0.000000
O O7 0.899173 0.324444 0.200276
O O8 0.848604 0.112465 0.794478
O O9 0.000000 0.553909 0.000000
#
# Coordination Sequence:
#
# PCOD9576934 Si02
#       5
#    18   6   9  18  18
#     4  11  23  43  65  92 131 169 210 265 319 376
#     4  12  24  39  66 102 129 163 209 265 333 393
#     4  10  20  38  66  94 126 170 208 258 326 386
#     4  11  23  42  65  93 132 169 211 264 322 382
#     4  11  25  42  65  94 125 169 217 258 313 382
#
# _framework density 21.396115000000002
#
# number of rings (size 3 to 8) (size 9 to 14) (size 15 to 20)
#    0.000    1.043    0.000    9.130    0.000    6.261 
#    0.000    0.000    0.000    3.130    0.000    0.000 
#    0.000    0.000    0.000    0.000    0.000    0.000 
#
# Total GULP energy -128231.936898 kJ/mol
# GULP energy per Si atom -5575.301604 kJ/mol
# Density = 2.134742 g / cm^3
# Si number density = 21.396115 Si / 1000 Ang^3
#
#
#
# Elastic Constant Matrix: (Units=GPa)
#
#
# Indices 1 2 3 4 5 6 
#
# 1 74.6050 12.7969 47.0257 1.5895 0.0000 0.0000
# 2 12.7969 74.6050 47.0257 -1.5895 0.0000 0.0000
# 3 47.0257 47.0257 146.3062 0.0000 0.0000 0.0000
# 4 1.5895 -1.5895 0.0000 28.4453 0.0000 0.0000
# 5 0.0000 0.0000 0.0000 0.0000 28.4453 1.5895
# 6 0.0000 0.0000 0.0000 0.0000 1.5895 30.9040
#
#
#
# Elastic Compliance Matrix: (Units=1/GPa)
#
#
# Indices 1 2 3 4 5 6 
#
# 1 0.016858 0.000633 -0.005622 -0.000907 0.000000 0.000000
# 2 0.000633 0.016858 -0.005622 0.000907 0.000000 0.000000
# 3 -0.005622 -0.005622 0.010449 0.000000 0.000000 0.000000
# 4 -0.000907 0.000907 0.000000 0.035257 0.000000 0.000000
# 5 0.000000 0.000000 0.000000 0.000000 0.035257 -0.001813
# 6 0.000000 0.000000 0.000000 0.000000 -0.001813 0.032451
#
#
# Mechanical properties :
#
#
# Convention : Reuss Voigt Hill
#
# Bulk Modulus (GPa) = 43.58574 56.57919 50.08247
# Shear Modulus (GPa) = 28.40896 30.13678 29.27287
#
# Velocity S-wave (km/s) = 3.64780 3.75709 3.70285
# Velocity P-wave (km/s) = 6.17714 6.73217 6.46062
#
# Compressibility (1/GPa) = 0.02294328
#
# Stress axis : x y z
#
# Youngs Moduli (GPa) = 59.31750 59.31750 95.70273
#
# Poissons Ratio (x) = -0.03753 0.53804
# Poissons Ratio (y) = -0.03753 0.53804
# Poissons Ratio (z) = 0.33348 0.33348
#
# Static dielectric constant tensor:
#      x y z
#    x 1.796460 0.000000 0.000000 
#    y 0.000000 1.796460 0.000000 
#    z 0.000000 0.000000 1.820420 
# 
# From -- ./inp_files/5895.got.cif
#   From: 2010.05.17/outbox.cif.g08.bks.cpg/sg155_3_cif.got.tgz:5895.got - 2010.05.20 10:44:35.
