data_PCOD9576915
_publ_section_title
;
Structure prediction by ZEFSAII (Michael W. Deem and Ramdas Pophale) SiO2 
 PCOD9576915
Probable space group: R 3 2
;
_chemical_formula_sum "Si O2"
_cell_formula_units_Z 144
_cell_length_a 20.746872
_cell_length_b 20.746872
_cell_length_c 19.165582
_cell_angle_alpha 90.000000
_cell_angle_beta 90.000000
_cell_angle_gamma 120.000000
_cell_volume 7144.270649
_symmetry_space_group_name_H-M "R 3 2"
_symmetry_group_IT_number 155
_symmetry_cell_setting 'hexagonal'
loop_
_space_group_symop_operation_xyz
x,y,z
-y,x-y,z
-x+y,-x,z
x-y,-y,-z
-x,-x+y,-z
y,x,-z
2/3+x,1/3+y,1/3+z
2/3-y,1/3+x-y,1/3+z
2/3-x+y,1/3-x,1/3+z
2/3+x-y,1/3-y,1/3-z
2/3-x,1/3-x+y,1/3-z
2/3+y,1/3+x,1/3-z
1/3+x,2/3+y,2/3+z
1/3-y,2/3+x-y,2/3+z
1/3-x+y,2/3-x,2/3+z
1/3+x-y,2/3-y,2/3-z
1/3-x,2/3-x+y,2/3-z
1/3+y,2/3+x,2/3-z
loop_
_atom_site_type_symbol
_atom_site_label
_atom_site_fract_x
_atom_site_fract_y
_atom_site_fract_z
Si Si1 0.427829 0.498137 0.043351
Si Si2 0.510585 0.943190 0.566007
Si Si3 0.775660 0.697323 0.288403
Si Si4 0.603881 0.434838 0.537382
Si Si5 0.896365 0.061662 0.749888
Si Si6 0.609558 0.621963 0.229994
Si Si7 0.370095 0.366146 0.754133
Si Si8 0.188062 0.355065 0.503995
O O1 0.354297 0.414628 0.047275
O O2 0.461535 0.512956 0.121022
O O3 0.489318 0.489318 0.000000
O O4 0.415142 0.555574 0.997365
O O5 0.445369 0.864689 0.533864
O O6 0.588489 0.954622 0.596565
O O7 0.537543 0.000000 0.500000
O O8 0.470847 0.971877 0.618651
O O9 0.831501 0.766940 0.243337
O O10 0.694953 0.660261 0.252674
O O11 0.768366 0.717906 0.367153
O O12 0.556357 0.358899 0.579447
O O13 0.690649 0.459065 0.544249
O O14 0.843144 0.084762 0.792592
O O15 0.601337 0.666667 0.166667
O O16 0.579640 0.540662 0.198129
O O17 0.351976 0.333334 0.833334
O O18 0.440418 0.446835 0.764582
#
# Coordination Sequence:
#
# PCOD9576915 Si02
#       8
#    18  18  18  18  18  18  18  18
#     4   9  21  33  54  86 123 157 195 249 310 370
#     4   9  17  34  61  86 117 156 200 256 313 360
#     4  10  23  38  62  90 118 163 203 262 315 374
#     4  11  22  38  61  87 123 164 214 260 304 372
#     4  11  22  37  58  86 119 165 208 256 307 370
#     4  11  23  39  59  88 125 158 203 255 313 377
#     4   9  17  32  55  85 120 151 194 250 308 364
#     4  10  20  37  58  87 119 157 196 253 317 371
#
# _framework density 20.156010999999999
#
# number of rings (size 3 to 8) (size 9 to 14) (size 15 to 20)
#    0.000    2.000    1.250    2.875    8.750    0.000 
#    0.000    0.000    0.000    0.000    0.000    0.000 
#    0.000    0.000    0.000    0.000    0.000    0.000 
#
# Total GULP energy -267449.801752 kJ/mol
# GULP energy per Si atom -5571.870870 kJ/mol
# Density = 2.011014 g / cm^3
# Si number density = 20.156011 Si / 1000 Ang^3
#
#
#
# Elastic Constant Matrix: (Units=GPa)
#
#
# Indices 1 2 3 4 5 6 
#
# 1 63.5230 13.6121 5.9283 1.1100 0.0000 0.0000
# 2 13.6121 63.5230 5.9283 -1.1100 0.0000 0.0000
# 3 5.9283 5.9283 59.0800 0.0000 0.0000 0.0000
# 4 1.1100 -1.1100 0.0000 23.1843 0.0000 0.0000
# 5 0.0000 0.0000 0.0000 0.0000 23.1843 1.1100
# 6 0.0000 0.0000 0.0000 0.0000 1.1100 24.9555
#
#
#
# Elastic Compliance Matrix: (Units=1/GPa)
#
#
# Indices 1 2 3 4 5 6 
#
# 1 0.016623 -0.003456 -0.001321 -0.000961 0.000000 0.000000
# 2 -0.003456 0.016623 -0.001321 0.000961 0.000000 0.000000
# 3 -0.001321 -0.001321 0.017191 0.000000 0.000000 0.000000
# 4 -0.000961 0.000961 0.000000 0.043225 0.000000 0.000000
# 5 0.000000 0.000000 0.000000 0.000000 0.043225 -0.001923
# 6 0.000000 0.000000 0.000000 0.000000 -0.001923 0.040157
#
#
# Mechanical properties :
#
#
# Convention : Reuss Voigt Hill
#
# Bulk Modulus (GPa) = 26.14990 26.34037 26.24513
# Shear Modulus (GPa) = 24.75410 24.97529 24.86469
#
# Velocity S-wave (km/s) = 3.50826 3.52390 3.51609
# Velocity P-wave (km/s) = 5.42333 5.44553 5.43444
#
# Compressibility (1/GPa) = 0.03824107
#
# Stress axis : x y z
#
# Youngs Moduli (GPa) = 60.15796 60.15796 58.16874
#
# Poissons Ratio (x) = 0.20788 0.07686
# Poissons Ratio (y) = 0.20788 0.07686
# Poissons Ratio (z) = 0.07948 0.07948
#
# Static dielectric constant tensor:
#      x y z
#    x 1.751120 0.000000 0.000000 
#    y 0.000000 1.751120 0.000000 
#    z 0.000000 0.000000 1.800500 
# 
# From -- ./inp_files/7057.got.cif
#   From: 2010.05.17/outbox.cif.g08.bks.cpg/sg155_4_cif.got.tgz:7057.got - 2010.05.20 10:44:35.
