data_PCOD9576480
_publ_section_title
;
Structure prediction by ZEFSAII (Michael W. Deem and Ramdas Pophale) SiO2 
 PCOD9576480
Probable space group: P 32 2 1
;
_chemical_formula_sum "Si O2"
_cell_formula_units_Z 45
_cell_length_a 12.310303
_cell_length_b 12.310303
_cell_length_c 17.734567
_cell_angle_alpha 90.000000
_cell_angle_beta 90.000000
_cell_angle_gamma 120.000000
_cell_volume 2327.494730
_symmetry_space_group_name_H-M "P 32 2 1"
_symmetry_group_IT_number 154
_symmetry_cell_setting 'hexagonal'
loop_
_space_group_symop_operation_xyz
x,y,z
-y,x-y,2/3+z
-x+y,-x,1/3+z
x-y,-y,1/3-z
-x,-x+y,2/3-z
y,x,-z
loop_
_atom_site_type_symbol
_atom_site_label
_atom_site_fract_x
_atom_site_fract_y
_atom_site_fract_z
Si Si1 0.107306 0.827262 0.274472
Si Si2 0.217501 0.217501 0.500000
Si Si3 0.552529 0.488454 0.730328
Si Si4 0.088390 0.141521 0.658825
Si Si5 0.280303 0.484341 0.526556
Si Si6 0.356168 0.830341 0.311139
Si Si7 0.273549 0.335026 0.775318
Si Si8 0.579214 0.250140 0.266318
O O1 0.234198 0.819963 0.274203
O O2 0.059459 0.789508 0.188391
O O3 0.000000 0.734865 0.333334
O O4 0.141253 0.965748 0.305344
O O5 0.123319 0.174567 0.570991
O O6 0.243609 0.357174 0.483137
O O7 0.679462 0.523599 0.773491
O O8 0.535907 0.606158 0.711554
O O9 0.423222 0.389413 0.770526
O O10 0.578232 0.448326 0.648566
O O11 0.204960 0.237314 0.708450
O O12 0.057494 0.000000 0.666667
O O13 0.387022 0.522752 0.591525
O O14 0.346976 0.603834 0.473958
O O15 0.334396 0.703126 0.348159
O O16 0.250724 0.451871 0.755822
#
# Coordination Sequence:
#
# PCOD9576480 Si02
#       8
#     6   3   6   6   6   6   6   6
#     4  11  24  39  65  92 127 176 217 271 321 391
#     4  12  24  42  68  94 128 164 214 268 326 380
#     4  10  22  37  62  92 126 160 209 266 321 385
#     4  11  26  42  66  92 126 164 220 271 320 390
#     4  11  21  38  64  93 121 166 205 261 317 386
#     4  10  20  38  59  91 124 161 208 258 320 379
#     4  11  22  43  65  96 127 171 217 269 331 391
#     4  10  20  36  63  90 125 159 210 261 318 390
#
# _framework density 19.334092999999999
#
# number of rings (size 3 to 8) (size 9 to 14) (size 15 to 20)
#    0.000    1.333    1.333    6.000    5.600    0.000 
#    0.000    0.000    2.933    0.000    0.000    0.000 
#    0.000    0.000    0.000    0.000    0.000    0.000 
#
# Total GULP energy -250820.791023 kJ/mol
# GULP energy per Si atom -5573.795356 kJ/mol
# Density = 1.929009 g / cm^3
# Si number density = 19.334093 Si / 1000 Ang^3
#
#
#
# Elastic Constant Matrix: (Units=GPa)
#
#
# Indices 1 2 3 4 5 6 
#
# 1 54.2073 23.9121 10.7655 -0.5952 -0.0001 0.0000
# 2 23.9121 54.2073 10.7655 0.5952 0.0001 0.0000
# 3 10.7655 10.7655 89.1153 0.0000 0.0000 0.0000
# 4 -0.5952 0.5952 0.0000 21.2914 0.0000 0.0001
# 5 -0.0001 0.0001 0.0000 0.0000 21.2914 -0.5952
# 6 0.0000 0.0000 0.0000 0.0001 -0.5952 15.1476
#
#
#
# Elastic Compliance Matrix: (Units=1/GPa)
#
#
# Indices 1 2 3 4 5 6 
#
# 1 0.023143 -0.009902 -0.001600 0.000924 0.000000 0.000000
# 2 -0.009902 0.023143 -0.001600 -0.000924 0.000000 0.000000
# 3 -0.001600 -0.001600 0.011608 0.000000 0.000000 0.000000
# 4 0.000924 -0.000924 0.000000 0.047019 0.000000 0.000000
# 5 0.000000 0.000000 0.000000 0.000000 0.047019 0.001848
# 6 0.000000 0.000000 0.000000 0.000000 0.001848 0.066090
#
#
# Mechanical properties :
#
#
# Convention : Reuss Voigt Hill
#
# Bulk Modulus (GPa) = 31.55283 32.04623 31.79953
# Shear Modulus (GPa) = 19.62415 21.68522 20.65469
#
# Velocity S-wave (km/s) = 3.18937 3.35267 3.27204
# Velocity P-wave (km/s) = 5.46973 5.62122 5.54600
#
# Compressibility (1/GPa) = 0.03169288
#
# Stress axis : x y z
#
# Youngs Moduli (GPa) = 43.20898 43.20898 86.14818
#
# Poissons Ratio (x) = 0.42783 0.13781
# Poissons Ratio (y) = 0.42783 0.13781
# Poissons Ratio (z) = 0.06912 0.06912
#
# Static dielectric constant tensor:
#      x y z
#    x 1.740140 0.000000 0.000000 
#    y 0.000000 1.740140 0.000000 
#    z 0.000000 0.000000 1.778260 
# 
# From -- ./inp_files/2515.got.cif
#   From: 2010.05.17/outbox.cif.g08.bks.cpg/sg154_2_cif.got.tgz:2515.got - 2010.05.20 10:41:43.
