data_PCOD9576588
_publ_section_title
;
Structure prediction by ZEFSAII (Michael W. Deem and Ramdas Pophale) SiO2 
 PCOD9576588
Probable space group: P 32 2 1
;
_chemical_formula_sum "Si O2"
_cell_formula_units_Z 42
_cell_length_a 14.182127
_cell_length_b 14.182127
_cell_length_c 12.544429
_cell_angle_alpha 90.000000
_cell_angle_beta 90.000000
_cell_angle_gamma 120.000000
_cell_volume 2185.064543
_symmetry_space_group_name_H-M "P 32 2 1"
_symmetry_group_IT_number 154
_symmetry_cell_setting 'hexagonal'
loop_
_space_group_symop_operation_xyz
x,y,z
-y,x-y,2/3+z
-x+y,-x,1/3+z
x-y,-y,1/3-z
-x,-x+y,2/3-z
y,x,-z
loop_
_atom_site_type_symbol
_atom_site_label
_atom_site_fract_x
_atom_site_fract_y
_atom_site_fract_z
Si Si1 0.321003 0.742013 0.784949
Si Si2 0.690633 0.497940 0.649277
Si Si3 0.601743 0.708470 0.946533
Si Si4 0.581042 0.853866 0.780658
Si Si5 0.766154 0.559491 0.435565
Si Si6 0.495133 0.424619 0.159962
Si Si7 0.481204 0.964816 0.280264
O O1 0.258626 0.619675 0.741512
O O2 0.277610 0.755892 0.900174
O O3 0.303089 0.818939 0.703450
O O4 0.448952 0.779010 0.792144
O O5 0.769519 0.587783 0.561539
O O6 0.589146 0.518132 0.659932
O O7 0.627624 0.812910 0.875697
O O8 0.538421 0.598445 0.873656
O O9 0.700219 0.700219 0.000000
O O10 0.624752 0.830984 0.669704
O O11 0.594842 0.973530 0.787520
O O12 0.816468 0.480155 0.441071
O O13 0.641400 0.513562 0.408882
O O14 0.481294 0.405270 0.286219
O O15 0.542425 0.000000 0.166667
#
# Coordination Sequence:
#
# PCOD9576588 Si02
#       7
#     6   6   6   6   6   6   6
#     4  12  20  33  50  78 105 151 202 237 287 357
#     4  11  23  35  52  77 112 154 200 240 291 358
#     4  12  21  34  55  77 112 153 198 249 297 347
#     4  12  22  36  54  81 114 151 199 253 289 351
#     4  11  23  34  56  76 106 153 194 239 301 340
#     4  12  21  38  56  83 115 155 207 254 295 360
#     4  10  22  38  51  76 117 153 194 250 296 351
#
# _framework density 19.221399000000002
#
# number of rings (size 3 to 8) (size 9 to 14) (size 15 to 20)
#    0.000    0.571    7.143    2.143    4.000    0.000 
#    0.000    0.000    0.000    0.000    0.000    0.000 
#    0.000   20.571    0.000    0.000    0.000    0.000 
#
# Total GULP energy -234031.046354 kJ/mol
# GULP energy per Si atom -5572.167770 kJ/mol
# Density = 1.917765 g / cm^3
# Si number density = 19.221399 Si / 1000 Ang^3
#
#
#
# Elastic Constant Matrix: (Units=GPa)
#
#
# Indices 1 2 3 4 5 6 
#
# 1 52.0814 25.2107 18.3265 -1.9486 0.0001 0.0000
# 2 25.2107 52.0814 18.3265 1.9486 -0.0001 0.0000
# 3 18.3265 18.3265 161.9470 0.0000 0.0000 0.0000
# 4 -1.9486 1.9486 0.0000 29.6686 0.0000 -0.0001
# 5 0.0001 -0.0001 0.0000 0.0000 29.6686 -1.9486
# 6 0.0000 0.0000 0.0000 -0.0001 -1.9486 13.4353
#
#
#
# Elastic Compliance Matrix: (Units=1/GPa)
#
#
# Indices 1 2 3 4 5 6 
#
# 1 0.025622 -0.011951 -0.001547 0.002468 0.000000 0.000000
# 2 -0.011951 0.025622 -0.001547 -0.002468 0.000000 0.000000
# 3 -0.001547 -0.001547 0.006525 0.000000 0.000000 0.000000
# 4 0.002468 -0.002468 0.000000 0.034030 0.000000 0.000000
# 5 0.000000 0.000000 0.000000 0.000000 0.034030 0.004935
# 6 0.000000 0.000000 0.000000 0.000000 0.004935 0.075146
#
#
# Mechanical properties :
#
#
# Convention : Reuss Voigt Hill
#
# Bulk Modulus (GPa) = 36.12758 43.31528 39.72143
# Shear Modulus (GPa) = 20.80797 28.17090 24.48944
#
# Velocity S-wave (km/s) = 3.29377 3.83247 3.57329
# Velocity P-wave (km/s) = 5.77075 6.49366 6.14285
#
# Compressibility (1/GPa) = 0.02767969
#
# Stress axis : x y z
#
# Youngs Moduli (GPa) = 39.02838 39.02838 153.25633
#
# Poissons Ratio (x) = 0.46642 0.23711
# Poissons Ratio (y) = 0.46642 0.23711
# Poissons Ratio (z) = 0.06038 0.06038
#
# Static dielectric constant tensor:
#      x y z
#    x 1.688290 0.000000 0.000000 
#    y 0.000000 1.688290 0.000000 
#    z 0.000000 0.000000 1.821910 
# 
# From -- ./inp_files/1741.got.cif
#   From: 2010.05.17/outbox.cif.g08.bks.cpg/sg154_1_cif.got.tgz:1741.got - 2010.05.20 10:41:43.
