data_PCOD9576383
_publ_section_title
;
Structure prediction by ZEFSAII (Michael W. Deem and Ramdas Pophale) SiO2 
 PCOD9576383
Probable space group: P 32 2 1
;
_chemical_formula_sum "Si O2"
_cell_formula_units_Z 33
_cell_length_a 10.326531
_cell_length_b 10.326531
_cell_length_c 14.866536
_cell_angle_alpha 90.000000
_cell_angle_beta 90.000000
_cell_angle_gamma 120.000000
_cell_volume 1372.932940
_symmetry_space_group_name_H-M "P 32 2 1"
_symmetry_group_IT_number 154
_symmetry_cell_setting 'hexagonal'
loop_
_space_group_symop_operation_xyz
x,y,z
-y,x-y,2/3+z
-x+y,-x,1/3+z
x-y,-y,1/3-z
-x,-x+y,2/3-z
y,x,-z
loop_
_atom_site_type_symbol
_atom_site_label
_atom_site_fract_x
_atom_site_fract_y
_atom_site_fract_z
Si Si1 0.868734 0.726316 0.551214
Si Si2 0.875388 0.475308 0.484987
Si Si3 0.000000 0.467561 0.833334
Si Si4 0.778145 0.147983 0.074305
Si Si5 0.357762 0.090764 0.584003
Si Si6 0.340684 0.666368 0.343119
O O1 0.856357 0.856357 0.500000
O O2 0.957113 0.653060 0.505195
O O3 0.696306 0.583686 0.540203
O O4 0.904982 0.739409 0.656144
O O5 0.766839 0.441336 0.399170
O O6 0.786381 0.386449 0.575533
O O7 0.987491 0.421684 0.452617
O O8 0.938581 0.538513 0.760337
O O9 0.866366 0.162156 0.164646
O O10 0.793276 0.306467 0.045544
O O11 0.500688 0.244495 0.616720
O O12 0.252233 0.000000 0.666667
#
# Coordination Sequence:
#
# PCOD9576383 Si02
#       6
#     6   6   3   6   6   6
#     4   9  20  32  51  81 114 158 199 232 296 362
#     4  10  19  31  52  75 114 153 189 235 295 354
#     4  10  20  36  56  86 116 164 200 232 312 358
#     4  11  19  34  58  80 121 156 195 243 288 376
#     4  10  22  33  50  81 119 153 192 239 305 349
#     4  10  17  35  48  74 111 152 184 239 283 353
#
# _framework density 24.036131999999998
#
# number of rings (size 3 to 8) (size 9 to 14) (size 15 to 20)
#    0.545    1.455    3.636    1.091    7.636    0.000 
#    0.000    0.000    0.000    0.000    0.000    0.000 
#   10.909    1.455    0.000    0.000    0.000    0.000 
#
# Total GULP energy -184011.124402 kJ/mol
# GULP energy per Si atom -5576.094679 kJ/mol
# Density = 2.398142 g / cm^3
# Si number density = 24.036132 Si / 1000 Ang^3
#
#
#
# Elastic Constant Matrix: (Units=GPa)
#
#
# Indices 1 2 3 4 5 6 
#
# 1 58.6707 15.3506 26.2914 -9.8238 -0.0001 0.0000
# 2 15.3506 58.6707 26.2914 9.8238 0.0001 0.0000
# 3 26.2914 26.2914 153.6986 0.0000 0.0000 0.0000
# 4 -9.8238 9.8238 0.0000 19.8606 0.0000 0.0001
# 5 -0.0001 0.0001 0.0000 0.0000 19.8606 -9.8238
# 6 0.0000 0.0000 0.0000 0.0001 -9.8238 21.6600
#
#
#
# Elastic Compliance Matrix: (Units=1/GPa)
#
#
# Indices 1 2 3 4 5 6 
#
# 1 0.022569 -0.007191 -0.002631 0.014721 0.000000 0.000000
# 2 -0.007191 0.022569 -0.002631 -0.014721 0.000000 0.000000
# 3 -0.002631 -0.002631 0.007406 0.000000 0.000000 0.000000
# 4 0.014721 -0.014721 0.000000 0.064914 0.000000 0.000000
# 5 0.000000 0.000000 0.000000 0.000000 0.064914 0.029441
# 6 0.000000 0.000000 0.000000 0.000000 0.029441 0.059521
#
#
# Mechanical properties :
#
#
# Convention : Reuss Voigt Hill
#
# Bulk Modulus (GPa) = 36.17879 45.21187 40.69533
# Shear Modulus (GPa) = 18.11514 25.81666 21.96590
#
# Velocity S-wave (km/s) = 2.74827 3.28087 3.02631
# Velocity P-wave (km/s) = 5.01549 5.76220 5.40176
#
# Compressibility (1/GPa) = 0.02764050
#
# Stress axis : x y z
#
# Youngs Moduli (GPa) = 44.30772 44.30772 135.02187
#
# Poissons Ratio (x) = 0.31862 0.35519
# Poissons Ratio (y) = 0.31862 0.35519
# Poissons Ratio (z) = 0.11656 0.11656
#
# Static dielectric constant tensor:
#      x y z
#    x 1.995760 0.000000 0.000000 
#    y 0.000000 1.995760 0.000000 
#    z 0.000000 0.000000 1.972240 
# 
# From -- ./inp_files/2001.got.cif
#   From: 2010.05.17/outbox.cif.g08.bks.cpg/sg154_2_cif.got.tgz:2001.got - 2010.05.20 10:41:43.
