data_PCOD9576391
_publ_section_title
;
Structure prediction by ZEFSAII (Michael W. Deem and Ramdas Pophale) SiO2 
 PCOD9576391
Probable space group: P 32 2 1
;
_chemical_formula_sum "Si O2"
_cell_formula_units_Z 27
_cell_length_a 8.004138
_cell_length_b 8.004138
_cell_length_c 20.651513
_cell_angle_alpha 90.000000
_cell_angle_beta 90.000000
_cell_angle_gamma 120.000000
_cell_volume 1145.807451
_symmetry_space_group_name_H-M "P 32 2 1"
_symmetry_group_IT_number 154
_symmetry_cell_setting 'hexagonal'
loop_
_space_group_symop_operation_xyz
x,y,z
-y,x-y,2/3+z
-x+y,-x,1/3+z
x-y,-y,1/3-z
-x,-x+y,2/3-z
y,x,-z
loop_
_atom_site_type_symbol
_atom_site_label
_atom_site_fract_x
_atom_site_fract_y
_atom_site_fract_z
Si Si1 0.390074 0.570443 0.046713
Si Si2 0.964665 0.369762 0.079093
Si Si3 0.398158 0.405260 0.574800
Si Si4 0.116841 0.747810 0.510528
Si Si5 0.720448 0.720448 0.500000
O O1 0.158170 0.482994 0.036045
O O2 0.497332 0.799126 0.058540
O O3 0.385382 0.472445 0.115116
O O4 0.498151 0.498151 0.000000
O O5 0.056122 0.340298 0.146089
O O6 0.861058 0.492999 0.096639
O O7 0.794446 0.164127 0.056497
O O8 0.562290 0.625117 0.557240
O O9 0.335237 0.335237 0.500000
O O10 0.922620 0.750720 0.522847
#
# Coordination Sequence:
#
# PCOD9576391 Si02
#       5
#     6   6   6   6   3
#     4  10  22  36  59  86 127 153 197 258 325 363
#     4  10  19  35  60  86 114 160 199 253 303 372
#     4  10  18  35  61  84 114 156 206 249 291 374
#     4  10  19  34  60  85 120 150 204 250 298 371
#     4  10  18  32  60  90 106 150 210 244 284 364
#
# _framework density 23.564170000000001
#
# number of rings (size 3 to 8) (size 9 to 14) (size 15 to 20)
#    2.000    0.000    4.444    1.333    1.556    0.889 
#    0.000    0.000    9.778    0.000    0.000    0.000 
#    0.000    0.000    0.000    0.000    0.000    0.000 
#
# Total GULP energy -150352.126300 kJ/mol
# GULP energy per Si atom -5568.597270 kJ/mol
# Density = 2.351054 g / cm^3
# Si number density = 23.564170 Si / 1000 Ang^3
#
#
#
# Elastic Constant Matrix: (Units=GPa)
#
#
# Indices 1 2 3 4 5 6 
#
# 1 108.4368 56.4604 8.0059 -18.6706 0.0000 0.0000
# 2 56.4604 108.4368 8.0059 18.6706 0.0000 0.0000
# 3 8.0059 8.0059 56.2345 0.0000 0.0000 0.0000
# 4 -18.6706 18.6706 0.0000 13.4640 0.0000 0.0000
# 5 0.0000 0.0000 0.0000 0.0000 13.4640 -18.6706
# 6 0.0000 0.0000 0.0000 0.0000 -18.6706 25.9882
#
#
#
# Elastic Compliance Matrix: (Units=1/GPa)
#
#
# Indices 1 2 3 4 5 6 
#
# 1 2.563614 -2.557464 -0.000875 7.101417 -0.000019 -0.000013
# 2 -2.557464 2.563614 -0.000875 -7.101417 0.000019 0.000013
# 3 -0.000875 -0.000875 0.018032 0.000000 0.000000 0.000000
# 4 7.101417 -7.101417 0.000000 19.769390 -0.000052 -0.000037
# 5 -0.000019 0.000019 0.000000 -0.000052 19.769450 14.202877
# 6 -0.000013 0.000013 0.000000 -0.000037 14.202877 10.242187
#
#
# Mechanical properties :
#
#
# Convention : Reuss Voigt Hill
#
# Bulk Modulus (GPa) = 37.27327 46.45026 41.86176
# Shear Modulus (GPa) = 0.08326 23.95897 12.02111
#
# Velocity S-wave (km/s) = 0.18817 3.19212 2.26109
# Velocity P-wave (km/s) = 3.98740 5.77418 4.96188
#
# Compressibility (1/GPa) = 0.02682888
#
# Stress axis : x y z
#
# Youngs Moduli (GPa) = 0.39007 0.39007 55.45711
#
# Poissons Ratio (x) = 0.99760 0.04855
# Poissons Ratio (y) = 0.99760 0.04855
# Poissons Ratio (z) = 0.00034 0.00034
#
# Static dielectric constant tensor:
#      x y z
#    x 1.900170 0.000000 0.000000 
#    y 0.000000 1.900170 0.000000 
#    z 0.000000 0.000000 1.940660 
# 
# From -- ./inp_files/3303.got.cif
#   From: 2010.05.17/outbox.cif.g08.bks.cpg/sg154_2_cif.got.tgz:3303.got - 2010.05.20 10:41:43.
