data_PCOD9576737
_publ_section_title
;
Structure prediction by ZEFSAII (Michael W. Deem and Ramdas Pophale) SiO2 
 PCOD9576737
Probable space group: P 32 2 1
;
_chemical_formula_sum "Si O2"
_cell_formula_units_Z 33
_cell_length_a 10.989513
_cell_length_b 10.989513
_cell_length_c 13.937473
_cell_angle_alpha 90.000000
_cell_angle_beta 90.000000
_cell_angle_gamma 120.000000
_cell_volume 1457.711450
_symmetry_space_group_name_H-M "P 32 2 1"
_symmetry_group_IT_number 154
_symmetry_cell_setting 'hexagonal'
loop_
_space_group_symop_operation_xyz
x,y,z
-y,x-y,2/3+z
-x+y,-x,1/3+z
x-y,-y,1/3-z
-x,-x+y,2/3-z
y,x,-z
loop_
_atom_site_type_symbol
_atom_site_label
_atom_site_fract_x
_atom_site_fract_y
_atom_site_fract_z
Si Si1 0.370476 0.735033 0.241965
Si Si2 0.837169 0.672178 0.670505
Si Si3 0.723041 0.899882 0.892348
Si Si4 0.489860 0.821498 0.757099
Si Si5 0.000000 0.363553 0.833334
Si Si6 0.613492 0.613492 0.000000
Si Si7 0.090197 0.090197 0.500000
O O1 0.516627 0.760349 0.286087
O O2 0.257143 0.704597 0.323545
O O3 0.317998 0.607035 0.169641
O O4 0.386747 0.870009 0.187758
O O5 0.736747 0.692751 0.594581
O O6 0.909922 0.785466 0.756703
O O7 0.969614 0.692480 0.608434
O O8 0.647973 0.876849 0.790153
O O9 0.882377 0.933317 0.883796
O O10 0.643074 0.761485 0.957703
O O11 0.445570 0.940191 0.748268
#
# Coordination Sequence:
#
# PCOD9576737 Si02
#       7
#     6   6   6   6   3   3   3
#     4  12  27  49  73 112 148 204 254 321 388 467
#     4  12  27  45  79 108 154 204 257 328 386 482
#     4  12  27  48  76 110 151 198 253 316 390 468
#     4  12  28  49  78 108 152 196 262 319 391 463
#     4  12  28  48  74 116 158 201 271 326 400 474
#     4  12  26  50  76 110 146 202 250 316 384 468
#     4  12  24  52  76 112 152 209 255 316 404 476
#
# _framework density 22.638224999999998
#
# number of rings (size 3 to 8) (size 9 to 14) (size 15 to 20)
#    0.000    0.000    5.455    3.273   10.182    0.000 
#    3.273    0.000    0.000    0.000    0.000    0.000 
#    0.000    0.000    0.000    0.000    0.000    0.000 
#
# Total GULP energy -184749.215330 kJ/mol
# GULP energy per Si atom -5598.461071 kJ/mol
# Density = 2.258670 g / cm^3
# Si number density = 22.638225 Si / 1000 Ang^3
#
#
#
# Elastic Constant Matrix: (Units=GPa)
#
#
# Indices 1 2 3 4 5 6 
#
# 1 50.2214 13.2965 4.0247 -4.2872 0.0001 0.0000
# 2 13.2965 50.2214 4.0247 4.2872 -0.0001 0.0000
# 3 4.0247 4.0247 74.2826 0.0000 0.0000 0.0000
# 4 -4.2872 4.2872 0.0000 44.9146 0.0000 -0.0001
# 5 0.0001 -0.0001 0.0000 0.0000 44.9146 -4.2872
# 6 0.0000 0.0000 0.0000 -0.0001 -4.2872 18.4624
#
#
#
# Elastic Compliance Matrix: (Units=1/GPa)
#
#
# Indices 1 2 3 4 5 6 
#
# 1 0.021774 -0.005922 -0.000859 0.002644 0.000000 0.000000
# 2 -0.005922 0.021774 -0.000859 -0.002644 0.000000 0.000000
# 3 -0.000859 -0.000859 0.013555 0.000000 0.000000 0.000000
# 4 0.002644 -0.002644 0.000000 0.022769 0.000000 0.000000
# 5 0.000000 0.000000 0.000000 0.000000 0.022769 0.005287
# 6 0.000000 0.000000 0.000000 0.000000 0.005287 0.055392
#
#
# Mechanical properties :
#
#
# Convention : Reuss Voigt Hill
#
# Bulk Modulus (GPa) = 23.90946 24.15746 24.03346
# Shear Modulus (GPa) = 26.70166 31.88362 29.29264
#
# Velocity S-wave (km/s) = 3.43810 3.75693 3.60105
# Velocity P-wave (km/s) = 5.13276 5.43265 5.28483
#
# Compressibility (1/GPa) = 0.04182446
#
# Stress axis : x y z
#
# Youngs Moduli (GPa) = 45.92594 45.92595 73.77252
#
# Poissons Ratio (x) = 0.27196 0.06336
# Poissons Ratio (y) = 0.27196 0.06336
# Poissons Ratio (z) = 0.03945 0.03945
#
# Static dielectric constant tensor:
#      x y z
#    x 1.818020 0.000000 0.000000 
#    y 0.000000 1.818020 0.000000 
#    z 0.000000 0.000000 1.325080 
# 
# From -- ./inp_files/1930.got.cif
#   From: 2010.05.17/outbox.cif.g08.bks.cpg/sg154_1_cif.got.tgz:1930.got - 2010.05.20 10:41:43.
