data_PCOD9576309
_publ_section_title
;
Structure prediction by ZEFSAII (Michael W. Deem and Ramdas Pophale) SiO2 
 PCOD9576309
Probable space group: P 32 1 2
;
_chemical_formula_sum "Si O2"
_cell_formula_units_Z 45
_cell_length_a 14.149450
_cell_length_b 14.149450
_cell_length_c 11.361691
_cell_angle_alpha 90.000000
_cell_angle_beta 90.000000
_cell_angle_gamma 120.000000
_cell_volume 1969.938750
_symmetry_space_group_name_H-M "P 32 1 2"
_symmetry_group_IT_number 153
_symmetry_cell_setting 'hexagonal'
loop_
_space_group_symop_operation_xyz
x,y,z
-y,x-y,2/3+z
-x+y,-x,1/3+z
-y,-x,1/3-z
-x+y,y,2/3-z
x,x-y,-z
loop_
_atom_site_type_symbol
_atom_site_label
_atom_site_fract_x
_atom_site_fract_y
_atom_site_fract_z
Si Si1 0.731830 0.268170 0.666667
Si Si2 0.716316 0.785880 0.247463
Si Si3 0.997290 0.868561 0.061923
Si Si4 0.497840 0.173250 0.602070
Si Si5 0.027931 0.522285 0.136722
Si Si6 0.261919 0.434300 0.458764
Si Si7 0.252702 0.027216 0.653460
Si Si8 0.345660 0.073052 0.118899
O O1 0.602567 0.219672 0.687280
O O2 0.808749 0.262692 0.770273
O O3 0.595240 0.767730 0.227331
O O4 0.748590 0.775646 0.115245
O O5 0.729319 0.697073 0.321057
O O6 0.790424 0.897169 0.319067
O O7 0.899250 0.841526 0.971997
O O8 0.944937 0.754916 0.134876
O O9 0.040562 0.959439 0.166667
O O10 0.521885 0.260943 0.500000
O O11 0.375517 0.130458 0.648755
O O12 0.491129 0.066974 0.543616
O O13 0.136422 0.519392 0.167874
O O14 0.016675 0.625319 0.168033
O O15 0.003945 0.501973 0.000000
O O16 0.232686 0.465372 0.333334
O O17 0.253528 0.315874 0.433813
#
# Coordination Sequence:
#
# PCOD9576309 Si02
#       8
#     3   6   6   6   6   6   6   6
#     4  10  22  40  60  94 138 168 216 272 324 418
#     4  10  21  40  61  85 120 167 212 262 326 393
#     4  10  22  38  61  88 119 167 217 264 326 397
#     4  10  24  37  61  95 130 174 216 262 331 398
#     4  10  21  38  63  91 119 162 210 261 320 387
#     4   9  20  40  60  88 120 159 210 259 322 391
#     4  10  22  40  61  90 128 169 213 279 331 383
#     4  10  21  38  62  91 126 166 210 267 329 390
#
# _framework density 22.843349
#
# number of rings (size 3 to 8) (size 9 to 14) (size 15 to 20)
#    0.000    2.133    0.000    1.600    6.533    3.733 
#    7.200   12.667    0.000    7.200    0.000    0.000 
#    0.000    0.000    0.000    0.000    0.000    0.000 
#
# Total GULP energy -251140.097072 kJ/mol
# GULP energy per Si atom -5580.891046 kJ/mol
# Density = 2.279136 g / cm^3
# Si number density = 22.843349 Si / 1000 Ang^3
#
#
#
# Elastic Constant Matrix: (Units=GPa)
#
#
# Indices 1 2 3 4 5 6 
#
# 1 89.3186 34.2140 8.8583 0.0008 15.9949 0.0000
# 2 34.2140 89.3186 8.8583 -0.0008 -15.9949 0.0000
# 3 8.8583 8.8583 59.7497 0.0000 0.0000 0.0000
# 4 0.0008 -0.0008 0.0000 -149.9715 0.0000 -15.9949
# 5 15.9949 -15.9949 0.0000 0.0000 -149.9715 0.0008
# 6 0.0000 0.0000 0.0000 -15.9949 0.0008 27.5523
#
#
#
# Elastic Compliance Matrix: (Units=1/GPa)
#
#
# Indices 1 2 3 4 5 6 
#
# 1 0.012680 -0.004409 -0.001226 0.000000 0.001823 0.000000
# 2 -0.004409 0.012680 -0.001226 0.000000 -0.001823 0.000000
# 3 -0.001226 -0.001226 0.017100 0.000000 0.000000 0.000000
# 4 0.000000 0.000000 0.000000 -0.006279 0.000000 -0.003645
# 5 0.001823 -0.001823 0.000000 0.000000 -0.006279 0.000000
# 6 0.000000 0.000000 0.000000 -0.003645 0.000000 0.034178
#
#
# Mechanical properties :
#
#
# Convention : Reuss Voigt Hill
#
# Bulk Modulus (GPa) = 34.79836 38.02757 36.41297
# Shear Modulus (GPa) = 57.21966 -42.04773 7.58596
#
# Velocity S-wave (km/s) = 5.01030 -4.29499 1.82430
# Velocity P-wave (km/s) = 6.98121 2.81295 4.51800
#
# Compressibility (1/GPa) = 0.02873698
#
# Stress axis : x y z
#
# Youngs Moduli (GPa) = 78.86396 78.86396 58.47928
#
# Poissons Ratio (x) = 0.34772 0.07171
# Poissons Ratio (y) = 0.34772 0.07171
# Poissons Ratio (z) = 0.09670 0.09670
#
# Static dielectric constant tensor:
#      x y z
#    x 1.981460 0.000000 0.000000 
#    y 0.000000 1.981460 0.000000 
#    z 0.000000 0.000000 1.595630 
# 
# From -- ./inp_files/2662.got.cif
#   From: 2010.05.17/outbox.cif.g08.bks.cpg/sg153_2_cif.got.tgz:2662.got - 2010.05.20 10:38:56.
