data_PCOD9576883
_publ_section_title
;
Structure prediction by ZEFSAII (Michael W. Deem and Ramdas Pophale) SiO2 
 PCOD9576883
Probable space group: R 3 2
;
_chemical_formula_sum "Si O2"
_cell_formula_units_Z 54
_cell_length_a 21.641208
_cell_length_b 21.641208
_cell_length_c 8.059938
_cell_angle_alpha 90.000000
_cell_angle_beta 90.000000
_cell_angle_gamma 120.000000
_cell_volume 3269.078363
_symmetry_space_group_name_H-M "R 3 2"
_symmetry_group_IT_number 155
_symmetry_cell_setting 'hexagonal'
loop_
_space_group_symop_operation_xyz
x,y,z
-y,x-y,z
-x+y,-x,z
x-y,-y,-z
-x,-x+y,-z
y,x,-z
2/3+x,1/3+y,1/3+z
2/3-y,1/3+x-y,1/3+z
2/3-x+y,1/3-x,1/3+z
2/3+x-y,1/3-y,1/3-z
2/3-x,1/3-x+y,1/3-z
2/3+y,1/3+x,1/3-z
1/3+x,2/3+y,2/3+z
1/3-y,2/3+x-y,2/3+z
1/3-x+y,2/3-x,2/3+z
1/3+x-y,2/3-y,2/3-z
1/3-x,2/3-x+y,2/3-z
1/3+y,2/3+x,2/3-z
loop_
_atom_site_type_symbol
_atom_site_label
_atom_site_fract_x
_atom_site_fract_y
_atom_site_fract_z
Si Si1 0.107101 0.480188 0.335319
Si Si2 0.038224 0.477521 0.833500
Si Si3 0.166668 0.583678 0.624751
O O1 0.149311 0.482644 0.166667
O O2 0.108306 0.418330 0.444395
O O3 0.140750 0.553471 0.438568
O O4 0.026450 0.453965 0.285255
O O5 0.096049 0.547586 0.739550
O O6 0.000000 0.483747 0.000000
O O7 0.208987 0.666667 0.666667
O O8 0.216861 0.550194 0.666667
#
# Coordination Sequence:
#
# PCOD9576883 Si02
#       3
#    18  18  18
#     4   9  18  31  52  81 106 128 162 211 265 312
#     4   9  18  31  51  80 105 128 162 211 266 313
#     4  10  20  34  51  71 100 140 175 208 250 301
#
# _framework density 16.518415999999998
#
# number of rings (size 3 to 8) (size 9 to 14) (size 15 to 20)
#    0.000    2.667    0.000    1.333    0.000   22.667 
#    0.000   15.000    0.000    8.000    0.000    0.000 
#    0.000    0.000    0.000    0.000    0.000    0.000 
#
# Total GULP energy -100240.641681 kJ/mol
# GULP energy per Si atom -5568.924538 kJ/mol
# Density = 1.648082 g / cm^3
# Si number density = 16.518416 Si / 1000 Ang^3
#
#
#
# Elastic Constant Matrix: (Units=GPa)
#
#
# Indices 1 2 3 4 5 6 
#
# 1 90.4731 44.6855 62.4718 -2.8914 -0.0199 -0.0016
# 2 44.6855 90.4784 62.4808 2.8806 -0.0047 0.0003
# 3 62.4718 62.4808 102.8105 -0.0249 -0.0583 -0.0017
# 4 -2.8914 2.8806 -0.0249 14.8297 -0.0220 0.0009
# 5 -0.0199 -0.0047 -0.0583 -0.0220 14.7874 -2.8853
# 6 -0.0016 0.0003 -0.0017 0.0009 -2.8853 22.8957
#
#
#
# Elastic Compliance Matrix: (Units=1/GPa)
#
#
# Indices 1 2 3 4 5 6 
#
# 1 0.019633 -0.002752 -0.010256 0.004345 -0.000009 -0.000001
# 2 -0.002752 0.019638 -0.010263 -0.004369 -0.000046 -0.000007
# 3 -0.010256 -0.010263 0.022196 0.000031 0.000073 0.000010
# 4 0.004345 -0.004369 0.000031 0.069128 0.000110 0.000011
# 5 -0.000009 -0.000046 0.000073 0.000110 0.069330 0.008737
# 6 -0.000001 -0.000007 0.000010 0.000011 0.008737 0.044777
#
#
# Mechanical properties :
#
#
# Convention : Reuss Voigt Hill
#
# Bulk Modulus (GPa) = 67.00721 69.22647 68.11684
# Shear Modulus (GPa) = 16.87924 18.11082 17.49503
#
# Velocity S-wave (km/s) = 3.20010 3.31479 3.25795
# Velocity P-wave (km/s) = 7.36935 7.52662 7.44840
#
# Compressibility (1/GPa) = 0.01492377
#
# Stress axis : x y z
#
# Youngs Moduli (GPa) = 50.93413 50.92109 45.05281
#
# Poissons Ratio (x) = 0.14015 0.46207
# Poissons Ratio (y) = 0.14018 0.46240
# Poissons Ratio (z) = 0.52239 0.52262
#
# Static dielectric constant tensor:
#      x y z
#    x 1.529580 0.000000 0.000000 
#    y 0.000000 1.529580 0.000000 
#    z 0.000000 0.000000 1.635420 
# 
# From -- ./inp_files/1853.got.cif
#   From: 2010.05.17/outbox.cif.g08.bks.cpg/sg155_1_cif.got.tgz:1853.got - 2010.05.20 10:44:35.
