data_PCOD9576085
_publ_section_title
;
Structure prediction by ZEFSAII (Michael W. Deem and Ramdas Pophale) SiO2 
 PCOD9576085
Probable space group: P 31 2 1
;
_chemical_formula_sum "Si O2"
_cell_formula_units_Z 27
_cell_length_a 14.902861
_cell_length_b 14.902861
_cell_length_c 5.247929
_cell_angle_alpha 90.000000
_cell_angle_beta 90.000000
_cell_angle_gamma 120.000000
_cell_volume 1009.387411
_symmetry_space_group_name_H-M "P 31 2 1"
_symmetry_group_IT_number 152
_symmetry_cell_setting 'hexagonal'
loop_
_space_group_symop_operation_xyz
x,y,z
-y,x-y,1/3+z
-x+y,-x,2/3+z
x-y,-y,2/3-z
-x,-x+y,1/3-z
y,x,-z
loop_
_atom_site_type_symbol
_atom_site_label
_atom_site_fract_x
_atom_site_fract_y
_atom_site_fract_z
Si Si1 0.617481 0.222943 0.667860
Si Si2 0.489628 0.000000 0.333334
Si Si3 0.899956 0.899956 0.500000
Si Si4 0.533543 0.706458 0.263054
Si Si5 0.898759 0.705911 0.482417
Si Si6 0.000000 0.612514 0.166667
O O1 0.703210 0.231607 0.464199
O O2 0.583179 0.302016 0.562764
O O3 0.516940 0.146420 0.830657
O O4 0.355140 0.153001 0.991383
O O5 0.376434 0.899370 0.382250
O O6 0.543613 0.979684 0.087907
O O7 0.886793 0.798493 0.360456
O O8 0.932919 0.000000 0.333334
O O9 0.000000 0.747487 0.666667
O O10 0.910767 0.636065 0.265016
#
# Coordination Sequence:
#
# PCOD9576085 Si02
#       6
#     6   3   3   6   6   3
#     4   9  22  40  75 104 155 215 277 330 410 504
#     4  12  32  52  82 122 190 220 298 354 440 514
#     4  10  23  53  86 126 164 228 286 377 453 532
#     4  11  27  48  75 124 163 235 281 361 422 526
#     4  11  27  51  86 123 170 221 295 367 438 523
#     4  12  29  53  82 128 164 238 274 365 427 530
#
# _framework density 26.748898000000001
#
# number of rings (size 3 to 8) (size 9 to 14) (size 15 to 20)
#    0.000    1.333    1.111    0.667   15.556    2.667 
#   12.000    0.000    0.000    0.000    0.000    0.000 
#    0.000    0.000    0.000    0.000    0.000    0.000 
#
# Total GULP energy -150692.286309 kJ/mol
# GULP energy per Si atom -5581.195789 kJ/mol
# Density = 2.668802 g / cm^3
# Si number density = 26.748898 Si / 1000 Ang^3
#
#
#
# Elastic Constant Matrix: (Units=GPa)
#
#
# Indices 1 2 3 4 5 6 
#
# 1 124.6696 87.5676 36.7331 -0.0605 0.0000 0.0000
# 2 87.5676 124.6696 36.7331 0.0605 0.0000 0.0000
# 3 36.7331 36.7331 139.2324 0.0000 0.0000 0.0000
# 4 -0.0605 0.0605 0.0000 36.6133 0.0000 0.0000
# 5 0.0000 0.0000 0.0000 0.0000 36.6133 -0.0605
# 6 0.0000 0.0000 0.0000 0.0000 -0.0605 18.5510
#
#
#
# Elastic Compliance Matrix: (Units=1/GPa)
#
#
# Indices 1 2 3 4 5 6 
#
# 1 0.016069 -0.010884 -0.001368 0.000045 0.000000 0.000000
# 2 -0.010884 0.016069 -0.001368 -0.000045 0.000000 0.000000
# 3 -0.001368 -0.001368 0.007904 0.000000 0.000000 0.000000
# 4 0.000045 -0.000045 0.000000 0.027313 0.000000 0.000000
# 5 0.000000 0.000000 0.000000 0.000000 0.027313 0.000089
# 6 0.000000 0.000000 0.000000 0.000000 0.000089 0.053906
#
#
# Mechanical properties :
#
#
# Convention : Reuss Voigt Hill
#
# Bulk Modulus (GPa) = 78.10944 78.95990 78.53467
# Shear Modulus (GPa) = 27.76539 33.52470 30.64504
#
# Velocity S-wave (km/s) = 3.22530 3.54405 3.38843
# Velocity P-wave (km/s) = 6.56768 6.80662 6.68822
#
# Compressibility (1/GPa) = 0.01280255
#
# Stress axis : x y z
#
# Youngs Moduli (GPa) = 62.23142 62.23142 126.51725
#
# Poissons Ratio (x) = 0.67731 0.17308
# Poissons Ratio (y) = 0.67731 0.17308
# Poissons Ratio (z) = 0.08513 0.08513
#
# Static dielectric constant tensor:
#      x y z
#    x 2.687790 0.000000 0.000000 
#    y 0.000000 2.687790 0.000000 
#    z 0.000000 0.000000 2.091910 
# 
# From -- ./inp_files/1077.got.cif
#   From: 2010.05.17/outbox.cif.g08.bks.cpg/sg152_1_cif.got.tgz:1077.got - 2010.05.20 10:36:06.
