data_PCOD9576267
_publ_section_title
;
Structure prediction by ZEFSAII (Michael W. Deem and Ramdas Pophale) SiO2 
 PCOD9576267
Probable space group: P 32 1 2
;
_chemical_formula_sum "Si O2"
_cell_formula_units_Z 36
_cell_length_a 8.832028
_cell_length_b 8.832028
_cell_length_c 24.919656
_cell_angle_alpha 90.000000
_cell_angle_beta 90.000000
_cell_angle_gamma 120.000000
_cell_volume 1683.424134
_symmetry_space_group_name_H-M "P 32 1 2"
_symmetry_group_IT_number 153
_symmetry_cell_setting 'hexagonal'
loop_
_space_group_symop_operation_xyz
x,y,z
-y,x-y,2/3+z
-x+y,-x,1/3+z
-y,-x,1/3-z
-x+y,y,2/3-z
x,x-y,-z
loop_
_atom_site_type_symbol
_atom_site_label
_atom_site_fract_x
_atom_site_fract_y
_atom_site_fract_z
Si Si1 0.609985 0.030534 0.465518
Si Si2 0.659459 0.590958 0.410620
Si Si3 0.279371 0.127746 0.700719
Si Si4 0.938680 0.061321 0.666667
Si Si5 0.128131 0.374731 0.244542
Si Si6 0.326769 0.663385 0.500000
Si Si7 0.669065 0.338130 0.333334
Si Si8 0.807482 0.614964 0.833334
O O1 0.682710 0.058779 0.526232
O O2 0.755638 0.073007 0.421240
O O3 0.509382 0.141144 0.466081
O O4 0.456484 0.829219 0.463464
O O5 0.803650 0.759364 0.378931
O O6 0.447753 0.505681 0.399861
O O7 0.708254 0.452027 0.386996
O O8 0.463789 0.226842 0.671999
O O9 0.143436 0.131810 0.658413
O O10 0.207172 0.926742 0.719145
O O11 0.281189 0.498472 0.203696
O O12 0.965791 0.239943 0.207453
#
# Coordination Sequence:
#
# PCOD9576267 Si02
#       8
#     6   6   6   3   6   3   3   3
#     4  10  19  38  65  91 124 168 217 266 319 387
#     4   9  21  44  63  86 127 171 213 267 325 389
#     4  12  24  39  64  96 130 172 218 265 325 392
#     4  11  24  40  62  93 128 168 210 269 338 390
#     4  10  20  37  62  92 126 165 211 263 321 387
#     4   8  18  36  60  92 122 154 204 266 320 372
#     4  11  24  42  60  87 134 174 214 265 326 390
#     4   8  18  36  62  94 126 162 214 278 324 368
#
# _framework density 21.384983999999999
#
# number of rings (size 3 to 8) (size 9 to 14) (size 15 to 20)
#    0.000    2.333    0.000    5.000    0.000    4.000 
#    0.000   15.000    0.000    0.000    0.000    0.000 
#    0.000    0.000    0.000    0.000    0.000    0.000 
#
# Total GULP energy -200498.683803 kJ/mol
# GULP energy per Si atom -5569.407883 kJ/mol
# Density = 2.133631 g / cm^3
# Si number density = 21.384984 Si / 1000 Ang^3
#
#
#
# Elastic Constant Matrix: (Units=GPa)
#
#
# Indices 1 2 3 4 5 6 
#
# 1 113.3924 51.6945 36.4535 0.0003 25.8583 0.0000
# 2 51.6945 113.3924 36.4535 -0.0003 -25.8583 0.0000
# 3 36.4535 36.4535 82.9441 0.0000 0.0000 0.0000
# 4 0.0003 -0.0003 0.0000 71.8380 0.0000 -25.8583
# 5 25.8583 -25.8583 0.0000 0.0000 71.8380 0.0003
# 6 0.0000 0.0000 0.0000 -25.8583 0.0003 30.8490
#
#
#
# Elastic Compliance Matrix: (Units=1/GPa)
#
#
# Indices 1 2 3 4 5 6 
#
# 1 0.015364 -0.007848 -0.003303 0.000000 -0.008355 0.000000
# 2 -0.007848 0.015364 -0.003303 0.000000 0.008355 0.000000
# 3 -0.003303 -0.003303 0.014960 0.000000 0.000000 0.000000
# 4 0.000000 0.000000 0.000000 0.019935 0.000000 0.016710
# 5 -0.008355 0.008355 0.000000 0.000000 0.019935 0.000000
# 6 0.000000 0.000000 0.000000 0.016710 0.000000 0.046423
#
#
# Mechanical properties :
#
#
# Convention : Reuss Voigt Hill
#
# Bulk Modulus (GPa) = 59.59819 62.10353 60.85086
# Shear Modulus (GPa) = 30.03332 47.24682 38.64007
#
# Velocity S-wave (km/s) = 3.75161 4.70547 4.25535
# Velocity P-wave (km/s) = 6.83343 7.65674 7.25677
#
# Compressibility (1/GPa) = 0.01677903
#
# Stress axis : x y z
#
# Youngs Moduli (GPa) = 65.08803 65.08803 66.84520
#
# Poissons Ratio (x) = 0.51078 0.22081
# Poissons Ratio (y) = 0.51078 0.22081
# Poissons Ratio (z) = 0.21501 0.21501
#
# Static dielectric constant tensor:
#      x y z
#    x 1.814020 0.000000 0.000000 
#    y 0.000000 1.814020 0.000000 
#    z 0.000000 0.000000 1.826040 
# 
# From -- ./inp_files/4836.got.cif
#   From: 2010.05.17/outbox.cif.g08.bks.cpg/sg153_3_cif.got.tgz:4836.got - 2010.05.20 10:38:56.
