data_PCOD9576288
_publ_section_title
;
Structure prediction by ZEFSAII (Michael W. Deem and Ramdas Pophale) SiO2 
 PCOD9576288
Probable space group: P 32 1 2
;
_chemical_formula_sum "Si O2"
_cell_formula_units_Z 36
_cell_length_a 8.847357
_cell_length_b 8.847357
_cell_length_c 26.308599
_cell_angle_alpha 90.000000
_cell_angle_beta 90.000000
_cell_angle_gamma 120.000000
_cell_volume 1783.427491
_symmetry_space_group_name_H-M "P 32 1 2"
_symmetry_group_IT_number 153
_symmetry_cell_setting 'hexagonal'
loop_
_space_group_symop_operation_xyz
x,y,z
-y,x-y,2/3+z
-x+y,-x,1/3+z
-y,-x,1/3-z
-x+y,y,2/3-z
x,x-y,-z
loop_
_atom_site_type_symbol
_atom_site_label
_atom_site_fract_x
_atom_site_fract_y
_atom_site_fract_z
Si Si1 0.942585 0.170216 0.294021
Si Si2 0.046141 0.505763 0.729691
Si Si3 0.159119 0.618195 0.559003
Si Si4 0.184196 0.153653 0.214257
Si Si5 0.678794 0.787962 0.301451
Si Si6 0.216420 0.167327 0.896880
O O1 0.092440 0.184879 0.333334
O O2 0.934495 0.346756 0.293183
O O3 0.014666 0.152581 0.238560
O O4 0.762159 0.995940 0.305778
O O5 0.211751 0.669784 0.754121
O O6 0.098330 0.416554 0.684994
O O7 0.959843 0.352080 0.770909
O O8 0.171415 0.585708 0.500000
O O9 0.998578 0.658073 0.565596
O O10 0.149751 0.462035 0.591126
O O11 0.197540 0.141772 0.153623
O O12 0.141199 0.960457 0.231855
O O13 0.844059 0.776664 0.280018
#
# Coordination Sequence:
#
# PCOD9576288 Si02
#       6
#     6   6   6   6   6   6
#     4  10  21  41  66  94 125 175 220 261 320 407
#     4  11  23  38  63  96 129 162 214 273 327 390
#     4  11  22  39  61  91 128 172 215 267 326 387
#     4   9  19  37  61  86 124 167 215 253 314 398
#     4  11  21  40  66  91 123 172 217 261 327 395
#     4  10  20  37  64  93 122 167 215 265 327 391
#
# _framework density 20.185849000000001
#
# number of rings (size 3 to 8) (size 9 to 14) (size 15 to 20)
#    0.000    1.667    1.667    5.000    2.333    0.000 
#    0.000    5.000    3.667    0.000    0.000    0.000 
#    0.000    0.000    0.000    0.000    0.000    0.000 
#
# Total GULP energy -200537.119863 kJ/mol
# GULP energy per Si atom -5570.475552 kJ/mol
# Density = 2.013990 g / cm^3
# Si number density = 20.185849 Si / 1000 Ang^3
#
#
#
# Elastic Constant Matrix: (Units=GPa)
#
#
# Indices 1 2 3 4 5 6 
#
# 1 102.0815 35.5164 15.4129 0.0000 -4.5814 0.0000
# 2 35.5164 102.0815 15.4129 0.0000 4.5814 0.0000
# 3 15.4129 15.4129 89.7943 0.0000 0.0000 0.0000
# 4 0.0000 0.0000 0.0000 29.2284 0.0000 4.5814
# 5 -4.5814 4.5814 0.0000 0.0000 29.2284 0.0000
# 6 0.0000 0.0000 0.0000 4.5814 0.0000 33.2826
#
#
#
# Elastic Compliance Matrix: (Units=1/GPa)
#
#
# Indices 1 2 3 4 5 6 
#
# 1 0.011456 -0.003898 -0.001297 0.000000 0.002407 0.000000
# 2 -0.003898 0.011456 -0.001297 0.000000 -0.002407 0.000000
# 3 -0.001297 -0.001297 0.011582 0.000000 0.000000 0.000000
# 4 0.000000 0.000000 0.000000 0.034968 0.000000 -0.004813
# 5 0.002407 -0.002407 0.000000 0.000000 0.034968 0.000000
# 6 0.000000 0.000000 0.000000 -0.004813 0.000000 0.030708
#
#
# Mechanical properties :
#
#
# Convention : Reuss Voigt Hill
#
# Bulk Modulus (GPa) = 46.49224 47.40463 46.94844
# Shear Modulus (GPa) = 32.19715 33.52220 32.85967
#
# Velocity S-wave (km/s) = 3.99812 4.07956 4.03905
# Velocity P-wave (km/s) = 6.66299 6.76206 6.71271
#
# Compressibility (1/GPa) = 0.02150896
#
# Stress axis : x y z
#
# Youngs Moduli (GPa) = 87.28913 87.28913 86.34142
#
# Poissons Ratio (x) = 0.34025 0.11201
# Poissons Ratio (y) = 0.34025 0.11201
# Poissons Ratio (z) = 0.11324 0.11324
#
# Static dielectric constant tensor:
#      x y z
#    x 1.761700 0.000000 0.000000 
#    y 0.000000 1.761700 0.000000 
#    z 0.000000 0.000000 1.774520 
# 
# From -- ./inp_files/4718.got.cif
#   From: 2010.05.17/outbox.cif.g08.bks.cpg/sg153_3_cif.got.tgz:4718.got - 2010.05.20 10:38:56.
