data_PCOD9576086
_publ_section_title
;
Structure prediction by ZEFSAII (Michael W. Deem and Ramdas Pophale) SiO2 
 PCOD9576086
Probable space group: P 31 2 1
;
_chemical_formula_sum "Si O2"
_cell_formula_units_Z 33
_cell_length_a 11.577028
_cell_length_b 11.577028
_cell_length_c 15.968296
_cell_angle_alpha 90.000000
_cell_angle_beta 90.000000
_cell_angle_gamma 120.000000
_cell_volume 1853.460664
_symmetry_space_group_name_H-M "P 31 2 1"
_symmetry_group_IT_number 152
_symmetry_cell_setting 'hexagonal'
loop_
_space_group_symop_operation_xyz
x,y,z
-y,x-y,1/3+z
-x+y,-x,2/3+z
x-y,-y,2/3-z
-x,-x+y,1/3-z
y,x,-z
loop_
_atom_site_type_symbol
_atom_site_label
_atom_site_fract_x
_atom_site_fract_y
_atom_site_fract_z
Si Si1 0.112415 0.686535 0.519639
Si Si2 0.507268 0.592604 0.578748
Si Si3 0.722516 0.431790 0.969904
Si Si4 0.467451 0.000000 0.333334
Si Si5 0.865498 0.716825 0.508426
Si Si6 0.834732 0.283692 0.331077
O O1 0.182652 0.655731 0.443699
O O2 0.038236 0.565631 0.586288
O O3 0.228811 0.801817 0.575605
O O4 0.005543 0.727825 0.488891
O O5 0.504396 0.504396 0.500000
O O6 0.369763 0.568013 0.614588
O O7 0.601704 0.745119 0.547263
O O8 0.585931 0.562029 0.650446
O O9 0.667758 0.534269 0.978421
O O10 0.590970 0.285543 0.965600
O O11 0.843839 0.843839 0.500000
O O12 0.826694 0.662708 0.603375
#
# Coordination Sequence:
#
# PCOD9576086 Si02
#       6
#     6   6   6   3   6   6
#     4  11  20  35  62  85 115 153 191 244 294 343
#     4   9  22  36  57  83 122 150 197 241 293 352
#     4  11  23  34  63  81 122 152 195 248 291 359
#     4  10  24  38  54  90 120 150 204 242 294 360
#     4   9  18  37  57  81 115 148 193 236 280 355
#     4   9  20  36  53  89 110 147 196 240 291 338
#
# _framework density 17.804534
#
# number of rings (size 3 to 8) (size 9 to 14) (size 15 to 20)
#    0.000    2.545    3.636    0.000   15.273    0.000 
#    0.000    0.000    8.000    0.000    0.000    0.000 
#    0.000    0.000    0.000    0.000    0.000    0.000 
#
# Total GULP energy -183897.509928 kJ/mol
# GULP energy per Si atom -5572.651816 kJ/mol
# Density = 1.776401 g / cm^3
# Si number density = 17.804534 Si / 1000 Ang^3
#
#
#
# Elastic Constant Matrix: (Units=GPa)
#
#
# Indices 1 2 3 4 5 6 
#
# 1 54.3325 24.5120 29.1988 -8.1451 0.0001 0.0000
# 2 24.5120 54.3325 29.1988 8.1451 -0.0001 0.0000
# 3 29.1988 29.1988 76.4244 0.0000 0.0000 0.0000
# 4 -8.1451 8.1451 0.0000 25.4523 0.0000 -0.0001
# 5 0.0001 -0.0001 0.0000 0.0000 25.4523 -8.1451
# 6 0.0000 0.0000 0.0000 -0.0001 -8.1451 14.9102
#
#
#
# Elastic Compliance Matrix: (Units=1/GPa)
#
#
# Indices 1 2 3 4 5 6 
#
# 1 0.029163 -0.011475 -0.006758 0.013005 0.000000 0.000000
# 2 -0.011475 0.029163 -0.006758 -0.013005 0.000000 0.000000
# 3 -0.006758 -0.006758 0.018249 0.000000 0.000000 0.000000
# 4 0.013005 -0.013005 0.000000 0.047613 0.000000 0.000000
# 5 0.000000 0.000000 0.000000 0.000000 0.047613 0.026009
# 6 0.000000 0.000000 0.000000 0.000000 0.026009 0.081276
#
#
# Mechanical properties :
#
#
# Convention : Reuss Voigt Hill
#
# Bulk Modulus (GPa) = 37.60290 38.98983 38.29637
# Shear Modulus (GPa) = 16.02955 19.97494 18.00224
#
# Velocity S-wave (km/s) = 3.00377 3.35311 3.18324
# Velocity P-wave (km/s) = 5.76158 6.07763 5.92171
#
# Compressibility (1/GPa) = 0.02659369
#
# Stress axis : x y z
#
# Youngs Moduli (GPa) = 34.28948 34.28948 54.79779
#
# Poissons Ratio (x) = 0.39346 0.37033
# Poissons Ratio (y) = 0.39346 0.37033
# Poissons Ratio (z) = 0.23174 0.23174
#
# Static dielectric constant tensor:
#      x y z
#    x 1.622290 0.000000 0.000000 
#    y 0.000000 1.622290 0.000000 
#    z 0.000000 0.000000 1.623140 
# 
# From -- ./inp_files/2372.got.cif
#   From: 2010.05.17/outbox.cif.g08.bks.cpg/sg152_2_cif.got.tgz:2372.got - 2010.05.20 10:36:06.
