data_PCOD9576456
_publ_section_title
;
Structure prediction by ZEFSAII (Michael W. Deem and Ramdas Pophale) SiO2 
 PCOD9576456
Probable space group: P 32 2 1
;
_chemical_formula_sum "Si O2"
_cell_formula_units_Z 30
_cell_length_a 12.805357
_cell_length_b 12.805357
_cell_length_c 8.044021
_cell_angle_alpha 90.000000
_cell_angle_beta 90.000000
_cell_angle_gamma 120.000000
_cell_volume 1142.318496
_symmetry_space_group_name_H-M "P 32 2 1"
_symmetry_group_IT_number 154
_symmetry_cell_setting 'hexagonal'
loop_
_space_group_symop_operation_xyz
x,y,z
-y,x-y,2/3+z
-x+y,-x,1/3+z
x-y,-y,1/3-z
-x,-x+y,2/3-z
y,x,-z
loop_
_atom_site_type_symbol
_atom_site_label
_atom_site_fract_x
_atom_site_fract_y
_atom_site_fract_z
Si Si1 0.165997 0.709540 0.753127
Si Si2 0.826471 0.137451 0.689973
Si Si3 0.078909 0.283240 0.604895
Si Si4 0.488864 0.574806 0.153244
Si Si5 0.413172 0.660173 0.644143
O O1 0.136736 0.813810 0.804033
O O2 0.111158 0.624195 0.596853
O O3 0.147243 0.618585 0.904136
O O4 0.311939 0.794699 0.740831
O O5 0.790302 0.239410 0.653884
O O6 0.947144 0.168450 0.584536
O O7 0.725426 0.000000 0.666667
O O8 0.867339 0.154417 0.882138
O O9 0.605953 0.656051 0.265982
O O10 0.513393 0.513393 0.000000
O O11 0.384018 0.714550 0.476876
#
# Coordination Sequence:
#
# PCOD9576456 Si02
#       5
#     6   6   6   6   6
#     4  10  19  43  78 118 174 220 282 356 455 538
#     4  11  23  47  82 128 167 235 313 363 450 541
#     4   9  22  45  80 124 172 220 289 380 431 535
#     4  10  21  42  84 120 171 229 274 367 444 551
#     4  12  23  47  78 122 191 229 289 373 463 557
#
# _framework density 26.262374999999999
#
# number of rings (size 3 to 8) (size 9 to 14) (size 15 to 20)
#    1.200    0.400    6.000    0.000    0.000    1.600 
#    3.600    2.000    0.000    8.400   20.800    0.000 
#    0.000    0.000    0.000    0.000    0.000    0.000 
#
# Total GULP energy -167406.230544 kJ/mol
# GULP energy per Si atom -5580.207685 kJ/mol
# Density = 2.620260 g / cm^3
# Si number density = 26.262375 Si / 1000 Ang^3
#
#
#
# Elastic Constant Matrix: (Units=GPa)
#
#
# Indices 1 2 3 4 5 6 
#
# 1 126.5890 77.7389 47.7507 -8.1425 0.0000 0.0000
# 2 77.7389 126.5890 47.7507 8.1425 0.0000 0.0000
# 3 47.7507 47.7507 115.8707 0.0000 0.0000 0.0000
# 4 -8.1425 8.1425 0.0000 42.7442 0.0000 0.0000
# 5 0.0000 0.0000 0.0000 0.0000 42.7442 -8.1425
# 6 0.0000 0.0000 0.0000 0.0000 -8.1425 24.4250
#
#
#
# Elastic Compliance Matrix: (Units=1/GPa)
#
#
# Indices 1 2 3 4 5 6 
#
# 1 0.013960 -0.007899 -0.002498 0.004164 0.000000 0.000000
# 2 -0.007899 0.013960 -0.002498 -0.004164 0.000000 0.000000
# 3 -0.002498 -0.002498 0.010689 0.000000 0.000000 0.000000
# 4 0.004164 -0.004164 0.000000 0.024981 0.000000 0.000000
# 5 0.000000 0.000000 0.000000 0.000000 0.024981 0.008328
# 6 0.000000 0.000000 0.000000 0.000000 0.008328 0.043718
#
#
# Mechanical properties :
#
#
# Convention : Reuss Voigt Hill
#
# Bulk Modulus (GPa) = 78.00068 79.50324 78.75196
# Shear Modulus (GPa) = 30.79699 35.03655 32.91677
#
# Velocity S-wave (km/s) = 3.42814 3.65649 3.54415
# Velocity P-wave (km/s) = 6.74051 6.94010 6.84103
#
# Compressibility (1/GPa) = 0.01282040
#
# Stress axis : x y z
#
# Youngs Moduli (GPa) = 71.63166 71.63166 93.55231
#
# Poissons Ratio (x) = 0.56579 0.23370
# Poissons Ratio (y) = 0.56579 0.23370
# Poissons Ratio (z) = 0.17894 0.17894
#
# Static dielectric constant tensor:
#      x y z
#    x 2.207240 0.000000 0.000000 
#    y 0.000000 2.207240 0.000000 
#    z 0.000000 0.000000 2.382520 
# 
# From -- ./inp_files/1005.got.cif
#   From: 2010.05.17/outbox.cif.g08.bks.cpg/sg154_1_cif.got.tgz:1005.got - 2010.05.20 10:41:43.
