data_PCOD9576174
_publ_section_title
;
Structure prediction by ZEFSAII (Michael W. Deem and Ramdas Pophale) SiO2 
 PCOD9576174
Probable space group: P 31 2 1
;
_chemical_formula_sum "Si O2"
_cell_formula_units_Z 18
_cell_length_a 8.730955
_cell_length_b 8.730955
_cell_length_c 10.406960
_cell_angle_alpha 90.000000
_cell_angle_beta 90.000000
_cell_angle_gamma 120.000000
_cell_volume 687.033663
_symmetry_space_group_name_H-M "P 31 2 1"
_symmetry_group_IT_number 152
_symmetry_cell_setting 'hexagonal'
loop_
_space_group_symop_operation_xyz
x,y,z
-y,x-y,1/3+z
-x+y,-x,2/3+z
x-y,-y,2/3-z
-x,-x+y,1/3-z
y,x,-z
loop_
_atom_site_type_symbol
_atom_site_label
_atom_site_fract_x
_atom_site_fract_y
_atom_site_fract_z
Si Si1 0.141179 0.188604 0.765920
Si Si2 0.674231 0.531507 0.384129
Si Si3 0.463826 0.859647 0.221101
O O1 0.314776 0.193374 0.706776
O O2 0.217312 0.351248 0.862190
O O3 0.035854 0.000000 0.833334
O O4 0.000000 0.183981 0.666667
O O5 0.588980 0.588980 0.500000
O O6 0.646675 0.338067 0.415609
O O7 0.586865 0.502855 0.245182
O O8 0.508073 0.000000 0.333334
#
# Coordination Sequence:
#
# PCOD9576174 Si02
#       3
#     6   6   6
#     4  11  27  49  76 116 164 214 269 331 397 477
#     4  11  27  53  84 122 166 217 274 334 407 488
#     4  12  27  50  84 120 163 217 273 337 408 485
#
# _framework density 26.199591000000002
#
# number of rings (size 3 to 8) (size 9 to 14) (size 15 to 20)
#    0.000    0.667    0.000    5.000    0.000   24.000 
#    0.000    3.333    0.000    0.000    0.000    0.000 
#    0.000    0.000    0.000    0.000    0.000    0.000 
#
# Total GULP energy -101131.815379 kJ/mol
# GULP energy per Si atom -5618.434188 kJ/mol
# Density = 2.613996 g / cm^3
# Si number density = 26.199591 Si / 1000 Ang^3
#
#
#
# Elastic Constant Matrix: (Units=GPa)
#
#
# Indices 1 2 3 4 5 6 
#
# 1 212.4161 105.8874 96.2568 1.3532 0.0003 0.0000
# 2 105.8874 212.4161 96.2568 -1.3532 -0.0003 0.0000
# 3 96.2568 96.2568 195.6110 0.0000 0.0000 0.0000
# 4 1.3532 -1.3532 0.0000 52.0537 0.0000 -0.0003
# 5 0.0003 -0.0003 0.0000 0.0000 52.0537 1.3532
# 6 0.0000 0.0000 0.0000 -0.0003 1.3532 53.2644
#
#
#
# Elastic Compliance Matrix: (Units=1/GPa)
#
#
# Indices 1 2 3 4 5 6 
#
# 1 0.006933 -0.002460 -0.002201 -0.000244 0.000000 0.000000
# 2 -0.002460 0.006933 -0.002201 0.000244 0.000000 0.000000
# 3 -0.002201 -0.002201 0.007278 0.000000 0.000000 0.000000
# 4 -0.000244 0.000244 0.000000 0.019224 0.000000 0.000000
# 5 0.000000 0.000000 0.000000 0.000000 0.019224 -0.000488
# 6 0.000000 0.000000 0.000000 0.000000 -0.000488 0.018787
#
#
# Mechanical properties :
#
#
# Convention : Reuss Voigt Hill
#
# Bulk Modulus (GPa) = 134.77087 135.24946 135.01016
# Shear Modulus (GPa) = 52.86734 52.94384 52.90559
#
# Velocity S-wave (km/s) = 4.49694 4.50020 4.49857
# Velocity P-wave (km/s) = 8.86087 8.87340 8.86714
#
# Compressibility (1/GPa) = 0.00742000
#
# Stress axis : x y z
#
# Youngs Moduli (GPa) = 144.23567 144.23567 137.39378
#
# Poissons Ratio (x) = 0.35485 0.30241
# Poissons Ratio (y) = 0.35485 0.30241
# Poissons Ratio (z) = 0.31746 0.31746
#
# Static dielectric constant tensor:
#      x y z
#    x 2.052120 0.000000 0.000000 
#    y 0.000000 2.052120 0.000000 
#    z 0.000000 0.000000 2.316000 
# 
# From -- ./inp_files/1523.got.cif
#   From: 2010.05.17/outbox.cif.g08.bks.cpg/sg152_1_cif.got.tgz:1523.got - 2010.05.20 10:36:06.
