data_PCOD9576005
_publ_section_title
;
Structure prediction by ZEFSAII (Michael W. Deem and Ramdas Pophale) SiO2 
 PCOD9576005
Probable space group: P 31 2 1
;
_chemical_formula_sum "Si O2"
_cell_formula_units_Z 39
_cell_length_a 9.310780
_cell_length_b 9.310780
_cell_length_c 26.696836
_cell_angle_alpha 90.000000
_cell_angle_beta 90.000000
_cell_angle_gamma 120.000000
_cell_volume 2004.299210
_symmetry_space_group_name_H-M "P 31 2 1"
_symmetry_group_IT_number 152
_symmetry_cell_setting 'hexagonal'
loop_
_space_group_symop_operation_xyz
x,y,z
-y,x-y,1/3+z
-x+y,-x,2/3+z
x-y,-y,2/3-z
-x,-x+y,1/3-z
y,x,-z
loop_
_atom_site_type_symbol
_atom_site_label
_atom_site_fract_x
_atom_site_fract_y
_atom_site_fract_z
Si Si1 0.138790 0.000000 0.333334
Si Si2 0.658830 0.175569 0.510875
Si Si3 0.406075 0.065027 0.104340
Si Si4 0.749607 0.494864 0.093378
Si Si5 0.379725 0.627129 0.323056
Si Si6 0.304045 0.216071 0.605997
Si Si7 0.654867 0.531970 0.940391
O O1 0.196126 0.888433 0.365240
O O2 0.980207 0.866976 0.303444
O O3 0.792192 0.190742 0.469368
O O4 0.581092 0.271712 0.481145
O O5 0.762035 0.271999 0.559110
O O6 0.511236 0.999306 0.530438
O O7 0.475981 0.124268 0.048195
O O8 0.231040 0.903699 0.097412
O O9 0.750322 0.370503 0.051830
O O10 0.606633 0.538093 0.076001
O O11 0.927200 0.653639 0.090867
O O12 0.306930 0.464002 0.357411
O O13 0.416016 0.786361 0.357353
#
# Coordination Sequence:
#
# PCOD9576005 Si02
#       7
#     3   6   6   6   6   6   6
#     4  10  22  40  62  94 126 168 206 260 332 368
#     4  11  22  41  59  95 124 172 205 260 309 390
#     4  11  24  38  64  95 127 165 215 262 317 370
#     4  10  22  39  66  93 127 172 213 250 329 383
#     4  11  20  38  67  97 119 167 221 259 302 378
#     4  11  21  40  63  96 126 165 212 270 312 379
#     4  11  18  39  66  88 125 167 214 256 302 384
#
# _framework density 19.458172000000001
#
# number of rings (size 3 to 8) (size 9 to 14) (size 15 to 20)
#    0.000    1.231    6.154    1.846    0.000    0.615 
#    5.538    0.000    0.000    0.000   16.000    0.000 
#    0.000    0.000    0.000    0.000    0.000    0.000 
#
# Total GULP energy -217333.998986 kJ/mol
# GULP energy per Si atom -5572.666641 kJ/mol
# Density = 1.941388 g / cm^3
# Si number density = 19.458172 Si / 1000 Ang^3
#
#
#
# Elastic Constant Matrix: (Units=GPa)
#
#
# Indices 1 2 3 4 5 6 
#
# 1 79.3470 40.4846 37.2092 -1.3360 -0.0001 0.0000
# 2 40.4846 79.3470 37.2092 1.3360 0.0001 0.0000
# 3 37.2092 37.2092 86.7757 0.0000 0.0000 0.0000
# 4 -1.3360 1.3360 0.0000 18.8344 0.0000 0.0001
# 5 -0.0001 0.0001 0.0000 0.0000 18.8344 -1.3360
# 6 0.0000 0.0000 0.0000 0.0001 -1.3360 19.4312
#
#
#
# Elastic Compliance Matrix: (Units=1/GPa)
#
#
# Indices 1 2 3 4 5 6 
#
# 1 0.018616 -0.007242 -0.004877 0.001834 0.000000 0.000000
# 2 -0.007242 0.018616 -0.004877 -0.001834 0.000000 0.000000
# 3 -0.004877 -0.004877 0.015707 0.000000 0.000000 0.000000
# 4 0.001834 -0.001834 0.000000 0.053355 0.000000 0.000000
# 5 0.000000 0.000000 0.000000 0.000000 0.053355 0.003669
# 6 0.000000 0.000000 0.000000 0.000000 0.003669 0.051716
#
#
# Mechanical properties :
#
#
# Convention : Reuss Voigt Hill
#
# Bulk Modulus (GPa) = 52.78187 52.80839 52.79513
# Shear Modulus (GPa) = 19.86722 20.12446 19.99584
#
# Velocity S-wave (km/s) = 3.19881 3.21945 3.20915
# Velocity P-wave (km/s) = 6.38967 6.40454 6.39711
#
# Compressibility (1/GPa) = 0.01894590
#
# Stress axis : x y z
#
# Youngs Moduli (GPa) = 53.71768 53.71768 63.66789
#
# Poissons Ratio (x) = 0.38903 0.31051
# Poissons Ratio (y) = 0.38903 0.31051
# Poissons Ratio (z) = 0.26198 0.26198
#
# Static dielectric constant tensor:
#      x y z
#    x 1.701570 0.000000 0.000000 
#    y 0.000000 1.701570 0.000000 
#    z 0.000000 0.000000 1.733320 
# 
# From -- ./inp_files/3658.got.cif
#   From: 2010.05.17/outbox.cif.g08.bks.cpg/sg152_2_cif.got.tgz:3658.got - 2010.05.20 10:36:06.
