data_PCOD9576747
_publ_section_title
;
Structure prediction by ZEFSAII (Michael W. Deem and Ramdas Pophale) SiO2 
 PCOD9576747
Probable space group: P 32 2 1
;
_chemical_formula_sum "Si O2"
_cell_formula_units_Z 24
_cell_length_a 7.506694
_cell_length_b 7.506694
_cell_length_c 21.270880
_cell_angle_alpha 90.000000
_cell_angle_beta 90.000000
_cell_angle_gamma 120.000000
_cell_volume 1038.038628
_symmetry_space_group_name_H-M "P 32 2 1"
_symmetry_group_IT_number 154
_symmetry_cell_setting 'hexagonal'
loop_
_space_group_symop_operation_xyz
x,y,z
-y,x-y,2/3+z
-x+y,-x,1/3+z
x-y,-y,1/3-z
-x,-x+y,2/3-z
y,x,-z
loop_
_atom_site_type_symbol
_atom_site_label
_atom_site_fract_x
_atom_site_fract_y
_atom_site_fract_z
Si Si1 0.758280 0.155539 0.851868
Si Si2 0.271045 0.594099 0.580745
Si Si3 0.840701 0.491366 0.950181
Si Si4 0.740131 0.757846 0.148247
O O1 0.657042 0.219190 0.795526
O O2 0.749987 0.272742 0.914193
O O3 0.000000 0.276169 0.833334
O O4 0.702836 0.920274 0.857074
O O5 0.387922 0.472663 0.603875
O O6 0.205770 0.662249 0.643348
O O7 0.082965 0.426123 0.537884
O O8 0.749756 0.618222 0.914903
O O9 0.860594 0.000000 0.166667
#
# Coordination Sequence:
#
# PCOD9576747 Si02
#       4
#     6   6   6   6
#     4   8  15  31  56  88 124 165 209 261 325 391
#     4   9  17  31  57  90 125 163 209 272 323 382
#     4   9  17  31  57  90 125 163 209 272 323 382
#     4   8  15  31  56  88 124 165 209 261 325 391
#
# _framework density 23.120528
#
# number of rings (size 3 to 8) (size 9 to 14) (size 15 to 20)
#    0.000    3.500    0.000    3.000    0.000    0.000 
#    0.000   20.000   11.000    3.000    0.000    0.000 
#    0.000    0.000    0.000    0.000    0.000    0.000 
#
# Total GULP energy -134296.430130 kJ/mol
# GULP energy per Si atom -5595.684589 kJ/mol
# Density = 2.306790 g / cm^3
# Si number density = 23.120528 Si / 1000 Ang^3
#
#
#
# Elastic Constant Matrix: (Units=GPa)
#
#
# Indices 1 2 3 4 5 6 
#
# 1 164.6841 72.0347 92.2018 4.5520 0.0000 0.0000
# 2 72.0347 164.6841 92.2018 -4.5520 0.0000 0.0000
# 3 92.2018 92.2018 229.2636 0.0000 0.0000 0.0000
# 4 4.5520 -4.5520 0.0000 30.6018 0.0000 0.0000
# 5 0.0000 0.0000 0.0000 0.0000 30.6018 4.5520
# 6 0.0000 0.0000 0.0000 0.0000 4.5520 46.3247
#
#
#
# Elastic Compliance Matrix: (Units=1/GPa)
#
#
# Indices 1 2 3 4 5 6 
#
# 1 0.008553 -0.002401 -0.002474 -0.001629 0.000000 0.000000
# 2 -0.002401 0.008553 -0.002474 0.001629 0.000000 0.000000
# 3 -0.002474 -0.002474 0.006352 0.000000 0.000000 0.000000
# 4 -0.001629 0.001629 0.000000 0.033163 0.000000 0.000000
# 5 0.000000 0.000000 0.000000 0.000000 0.033163 -0.003259
# 6 0.000000 0.000000 0.000000 0.000000 -0.003259 0.021907
#
#
# Mechanical properties :
#
#
# Convention : Reuss Voigt Hill
#
# Bulk Modulus (GPa) = 114.16737 119.05648 116.61193
# Shear Modulus (GPa) = 38.66787 41.65188 40.15988
#
# Velocity S-wave (km/s) = 4.09399 4.24903 4.17223
# Velocity P-wave (km/s) = 8.47550 8.69931 8.58813
#
# Compressibility (1/GPa) = 0.00875907
#
# Stress axis : x y z
#
# Youngs Moduli (GPa) = 116.92399 116.92399 157.43855
#
# Poissons Ratio (x) = 0.28073 0.38950
# Poissons Ratio (y) = 0.28073 0.38950
# Poissons Ratio (z) = 0.28927 0.28927
#
# Static dielectric constant tensor:
#      x y z
#    x 1.933940 0.000000 0.000000 
#    y 0.000000 1.933940 0.000000 
#    z 0.000000 0.000000 1.780270 
# 
# From -- ./inp_files/2658.got.cif
#   From: 2010.05.17/outbox.cif.g08.bks.cpg/sg154_2_cif.got.tgz:2658.got - 2010.05.20 10:41:43.
