data_PCOD9576245
_publ_section_title
;
Structure prediction by ZEFSAII (Michael W. Deem and Ramdas Pophale) SiO2 
 PCOD9576245
Probable space group: P 32 1 2
;
_chemical_formula_sum "Si O2"
_cell_formula_units_Z 36
_cell_length_a 9.099773
_cell_length_b 9.099773
_cell_length_c 26.758552
_cell_angle_alpha 90.000000
_cell_angle_beta 90.000000
_cell_angle_gamma 120.000000
_cell_volume 1918.908902
_symmetry_space_group_name_H-M "P 32 1 2"
_symmetry_group_IT_number 153
_symmetry_cell_setting 'hexagonal'
loop_
_space_group_symop_operation_xyz
x,y,z
-y,x-y,2/3+z
-x+y,-x,1/3+z
-y,-x,1/3-z
-x+y,y,2/3-z
x,x-y,-z
loop_
_atom_site_type_symbol
_atom_site_label
_atom_site_fract_x
_atom_site_fract_y
_atom_site_fract_z
Si Si1 0.293887 0.639508 0.280065
Si Si2 0.515702 0.292297 0.943034
Si Si3 0.685448 0.896585 0.557350
Si Si4 0.553757 0.550504 0.110577
Si Si5 0.866187 0.845907 0.071222
Si Si6 0.331126 0.281358 0.368105
O O1 0.363786 0.727571 0.333334
O O2 0.246656 0.749468 0.244426
O O3 0.408039 0.574523 0.253208
O O4 0.118324 0.467252 0.294078
O O5 0.377214 0.303144 0.907238
O O6 0.677510 0.481833 0.950577
O O7 0.562696 0.163059 0.917332
O O8 0.452225 0.226113 0.000000
O O9 0.699503 0.849752 0.500000
O O10 0.837282 0.893054 0.586413
O O11 0.495394 0.504607 0.166667
O O12 0.737811 0.718219 0.111872
O O13 0.839489 0.008051 0.068450
O O14 0.792629 0.735860 0.020233
#
# Coordination Sequence:
#
# PCOD9576245 Si02
#       6
#     6   6   6   6   6   6
#     4  10  18  40  61  84 110 159 209 238 286 368
#     4  11  21  38  61  87 113 156 207 245 295 370
#     4  11  24  38  57  90 128 154 192 257 316 364
#     4  11  20  35  61  86 115 154 197 243 301 362
#     4  10  19  38  57  81 116 153 195 240 307 353
#     4   9  18  37  62  80 107 155 200 242 289 358
#
# _framework density 18.760660000000001
#
# number of rings (size 3 to 8) (size 9 to 14) (size 15 to 20)
#    0.000    1.667    5.000    2.500    2.333    0.000 
#    3.000    0.833    0.000    0.000    0.000    0.000 
#    0.000    0.000    0.000    0.000    0.000    0.000 
#
# Total GULP energy -200677.914512 kJ/mol
# GULP energy per Si atom -5574.386514 kJ/mol
# Density = 1.871796 g / cm^3
# Si number density = 18.760660 Si / 1000 Ang^3
#
#
#
# Elastic Constant Matrix: (Units=GPa)
#
#
# Indices 1 2 3 4 5 6 
#
# 1 79.7259 34.7841 19.4729 0.0009 0.8215 0.0000
# 2 34.7841 79.7259 19.4729 -0.0009 -0.8215 0.0000
# 3 19.4729 19.4729 81.5846 0.0000 0.0000 0.0000
# 4 0.0009 -0.0009 0.0000 4.5312 0.0000 -0.8215
# 5 0.8215 -0.8215 0.0000 0.0000 4.5312 0.0009
# 6 0.0000 0.0000 0.0000 -0.8215 0.0009 22.4709
#
#
#
# Elastic Compliance Matrix: (Units=1/GPa)
#
#
# Indices 1 2 3 4 5 6 
#
# 1 0.015952 -0.006448 -0.002269 -0.000004 -0.004061 0.000000
# 2 -0.006448 0.015952 -0.002269 0.000004 0.004061 0.000000
# 3 -0.002269 -0.002269 0.013340 0.000000 0.000000 0.000000
# 4 -0.000004 0.000004 0.000000 0.222164 0.000000 0.008122
# 5 -0.004061 0.004061 0.000000 0.000000 0.222164 -0.000009
# 6 0.000000 0.000000 0.000000 0.008122 -0.000009 0.044799
#
#
# Mechanical properties :
#
#
# Convention : Reuss Voigt Hill
#
# Bulk Modulus (GPa) = 42.96495 43.16624 43.06560
# Shear Modulus (GPa) = 8.86369 17.46042 13.16205
#
# Velocity S-wave (km/s) = 2.17598 3.05404 2.65160
# Velocity P-wave (km/s) = 5.40967 5.95777 5.69032
#
# Compressibility (1/GPa) = 0.02327478
#
# Stress axis : x y z
#
# Youngs Moduli (GPa) = 62.68831 62.68831 74.96164
#
# Poissons Ratio (x) = 0.40418 0.17005
# Poissons Ratio (y) = 0.40418 0.17005
# Poissons Ratio (z) = 0.14221 0.14221
#
# Static dielectric constant tensor:
#      x y z
#    x 1.659060 0.000000 0.000000 
#    y 0.000000 1.659060 0.000000 
#    z 0.000000 0.000000 1.683240 
# 
# From -- ./inp_files/4728.got.cif
#   From: 2010.05.17/outbox.cif.g08.bks.cpg/sg153_3_cif.got.tgz:4728.got - 2010.05.20 10:38:56.
