data_PCOD9576263
_publ_section_title
;
Structure prediction by ZEFSAII (Michael W. Deem and Ramdas Pophale) SiO2 
 PCOD9576263
Probable space group: P 32 1 2
;
_chemical_formula_sum "Si O2"
_cell_formula_units_Z 30
_cell_length_a 8.437414
_cell_length_b 8.437414
_cell_length_c 21.559495
_cell_angle_alpha 90.000000
_cell_angle_beta 90.000000
_cell_angle_gamma 120.000000
_cell_volume 1329.192659
_symmetry_space_group_name_H-M "P 32 1 2"
_symmetry_group_IT_number 153
_symmetry_cell_setting 'hexagonal'
loop_
_space_group_symop_operation_xyz
x,y,z
-y,x-y,2/3+z
-x+y,-x,1/3+z
-y,-x,1/3-z
-x+y,y,2/3-z
x,x-y,-z
loop_
_atom_site_type_symbol
_atom_site_label
_atom_site_fract_x
_atom_site_fract_y
_atom_site_fract_z
Si Si1 0.596973 0.297774 0.232361
Si Si2 0.703676 0.774683 0.321262
Si Si3 0.024774 0.279059 0.888164
Si Si4 0.901160 0.041056 0.100855
Si Si5 0.615955 0.058586 0.018109
O O1 0.606409 0.393592 0.166667
O O2 0.472376 0.085635 0.214919
O O3 0.473478 0.302456 0.288301
O O4 0.793844 0.372814 0.263599
O O5 0.511766 0.588469 0.327326
O O6 0.858574 0.717148 0.333334
O O7 0.693865 0.890032 0.377781
O O8 0.796337 0.912686 0.263820
O O9 0.171120 0.342239 0.833334
O O10 0.916296 0.055285 0.883475
O O11 0.881809 0.118192 0.166667
O O12 0.739251 0.989833 0.051928
#
# Coordination Sequence:
#
# PCOD9576263 Si02
#       5
#     6   6   6   6   6
#     4  11  22  36  63  92 122 161 218 259 321 380
#     4  10  19  37  61  90 120 161 214 259 317 389
#     4  10  21  37  64  90 122 162 210 260 317 384
#     4  10  22  38  64  93 126 167 210 268 332 386
#     4  11  22  39  63  89 126 166 211 268 324 389
#
# _framework density 22.570088999999999
#
# number of rings (size 3 to 8) (size 9 to 14) (size 15 to 20)
#    0.000    1.600    4.000    1.800    5.600    0.000 
#    0.000    0.000    8.800    1.200    5.200    0.000 
#    0.000    0.000    0.000    0.000    0.000    0.000 
#
# Total GULP energy -167062.700155 kJ/mol
# GULP energy per Si atom -5568.756672 kJ/mol
# Density = 2.251872 g / cm^3
# Si number density = 22.570089 Si / 1000 Ang^3
#
#
#
# Elastic Constant Matrix: (Units=GPa)
#
#
# Indices 1 2 3 4 5 6 
#
# 1 54.0083 15.7023 19.8827 0.0002 2.3729 0.0000
# 2 15.7023 54.0083 19.8827 -0.0002 -2.3729 0.0000
# 3 19.8827 19.8827 154.7989 0.0000 0.0000 0.0000
# 4 0.0002 -0.0002 0.0000 21.9715 0.0000 -2.3729
# 5 2.3729 -2.3729 0.0000 0.0000 21.9715 0.0002
# 6 0.0000 0.0000 0.0000 -2.3729 0.0002 19.1530
#
#
#
# Elastic Compliance Matrix: (Units=1/GPa)
#
#
# Indices 1 2 3 4 5 6 
#
# 1 0.020969 -0.005490 -0.001988 0.000000 -0.002858 0.000000
# 2 -0.005490 0.020969 -0.001988 0.000000 0.002858 0.000000
# 3 -0.001988 -0.001988 0.006971 0.000000 0.000000 0.000000
# 4 0.000000 0.000000 0.000000 0.046131 0.000000 0.005715
# 5 -0.002858 0.002858 0.000000 0.000000 0.046131 -0.000001
# 6 0.000000 0.000000 0.000000 0.005715 -0.000001 0.052919
#
#
# Mechanical properties :
#
#
# Convention : Reuss Voigt Hill
#
# Bulk Modulus (GPa) = 33.35967 41.52789 37.44378
# Shear Modulus (GPa) = 22.41996 26.44237 24.43117
#
# Velocity S-wave (km/s) = 3.15516 3.42653 3.29364
# Velocity P-wave (km/s) = 5.29962 5.83903 5.57585
#
# Compressibility (1/GPa) = 0.02997632
#
# Stress axis : x y z
#
# Youngs Moduli (GPa) = 47.68854 47.68854 143.45713
#
# Poissons Ratio (x) = 0.26182 0.28522
# Poissons Ratio (y) = 0.26182 0.28522
# Poissons Ratio (z) = 0.09481 0.09481
#
# Static dielectric constant tensor:
#      x y z
#    x 2.062280 0.000000 0.000000 
#    y 0.000000 2.062280 0.000000 
#    z 0.000000 0.000000 1.843040 
# 
# From -- ./inp_files/4239.got.cif
#   From: 2010.05.17/outbox.cif.g08.bks.cpg/sg153_3_cif.got.tgz:4239.got - 2010.05.20 10:38:56.
