data_PCOD9576583
_publ_section_title
;
Structure prediction by ZEFSAII (Michael W. Deem and Ramdas Pophale) SiO2 
 PCOD9576583
Probable space group: P 32 2 1
;
_chemical_formula_sum "Si O2"
_cell_formula_units_Z 36
_cell_length_a 11.138826
_cell_length_b 11.138826
_cell_length_c 15.530195
_cell_angle_alpha 90.000000
_cell_angle_beta 90.000000
_cell_angle_gamma 120.000000
_cell_volume 1668.731178
_symmetry_space_group_name_H-M "P 32 2 1"
_symmetry_group_IT_number 154
_symmetry_cell_setting 'hexagonal'
loop_
_space_group_symop_operation_xyz
x,y,z
-y,x-y,2/3+z
-x+y,-x,1/3+z
x-y,-y,1/3-z
-x,-x+y,2/3-z
y,x,-z
loop_
_atom_site_type_symbol
_atom_site_label
_atom_site_fract_x
_atom_site_fract_y
_atom_site_fract_z
Si Si1 0.078601 0.078601 0.000000
Si Si2 0.535952 0.306949 0.526068
Si Si3 0.395051 0.530524 0.821257
Si Si4 0.000000 0.898671 0.833334
Si Si5 0.569347 0.054121 0.037429
Si Si6 0.304795 0.975195 0.766849
Si Si7 0.883192 0.214449 0.759036
O O1 0.093019 0.225066 0.981847
O O2 0.015740 0.986350 0.917163
O O3 0.700290 0.388352 0.529909
O O4 0.482882 0.309023 0.428829
O O5 0.473288 0.380853 0.585919
O O6 0.482687 0.155978 0.560999
O O7 0.408334 0.468128 0.730449
O O8 0.547150 0.639692 0.860142
O O9 0.277305 0.402722 0.877237
O O10 0.845253 0.763329 0.851181
O O11 0.446463 0.085125 0.056712
O O12 0.286651 0.000000 0.666667
O O13 0.000000 0.252466 0.833334
#
# Coordination Sequence:
#
# PCOD9576583 Si02
#       7
#     3   6   6   3   6   6   6
#     4  12  26  44  76 106 148 200 246 302 370 464
#     4  10  24  45  70 103 142 186 242 307 369 444
#     4  11  26  42  77 109 143 191 250 312 377 450
#     4  12  26  52  70 104 152 198 248 298 382 474
#     4  10  21  45  72 103 138 193 248 297 370 453
#     4  12  29  47  71 111 148 191 247 319 387 447
#     4  11  23  46  73 109 147 193 254 307 381 458
#
# _framework density 21.573277000000001
#
# number of rings (size 3 to 8) (size 9 to 14) (size 15 to 20)
#    0.000    1.000    5.000    2.000    8.167    5.333 
#    0.000    0.000    0.000    0.000    0.000    0.000 
#    0.000    0.000    0.000    0.000    0.000    0.000 
#
# Total GULP energy -200755.718088 kJ/mol
# GULP energy per Si atom -5576.547725 kJ/mol
# Density = 2.152418 g / cm^3
# Si number density = 21.573277 Si / 1000 Ang^3
#
#
#
# Elastic Constant Matrix: (Units=GPa)
#
#
# Indices 1 2 3 4 5 6 
#
# 1 53.5797 9.5693 12.1458 -1.0628 -0.0001 0.0000
# 2 9.5693 53.5797 12.1458 1.0628 0.0001 0.0000
# 3 12.1458 12.1458 90.9187 0.0000 0.0000 0.0000
# 4 -1.0628 1.0628 0.0000 25.3314 0.0000 0.0001
# 5 -0.0001 0.0001 0.0000 0.0000 25.3314 -1.0628
# 6 0.0000 0.0000 0.0000 0.0001 -1.0628 22.0052
#
#
#
# Elastic Compliance Matrix: (Units=1/GPa)
#
#
# Indices 1 2 3 4 5 6 
#
# 1 0.019731 -0.003037 -0.002230 0.000955 0.000000 0.000000
# 2 -0.003037 0.019731 -0.002230 -0.000955 0.000000 0.000000
# 3 -0.002230 -0.002230 0.011595 0.000000 0.000000 0.000000
# 4 0.000955 -0.000955 0.000000 0.039557 0.000000 0.000000
# 5 0.000000 0.000000 0.000000 0.000000 0.039557 0.001910
# 6 0.000000 0.000000 0.000000 0.000000 0.001910 0.045536
#
#
# Mechanical properties :
#
#
# Convention : Reuss Voigt Hill
#
# Bulk Modulus (GPa) = 27.73062 29.53331 28.63196
# Shear Modulus (GPa) = 24.66445 25.48145 25.07295
#
# Velocity S-wave (km/s) = 3.38492 3.44053 3.41284
# Velocity P-wave (km/s) = 5.30650 5.43162 5.36942
#
# Compressibility (1/GPa) = 0.03606123
#
# Stress axis : x y z
#
# Youngs Moduli (GPa) = 50.68242 50.68242 86.24660
#
# Poissons Ratio (x) = 0.15394 0.19234
# Poissons Ratio (y) = 0.15394 0.19234
# Poissons Ratio (z) = 0.11302 0.11302
#
# Static dielectric constant tensor:
#      x y z
#    x 1.856310 0.000000 0.000000 
#    y 0.000000 1.856310 0.000000 
#    z 0.000000 0.000000 1.368220 
# 
# From -- ./inp_files/2014.got.cif
#   From: 2010.05.17/outbox.cif.g08.bks.cpg/sg154_2_cif.got.tgz:2014.got - 2010.05.20 10:41:43.
