data_PCOD9576905
_publ_section_title
;
Structure prediction by ZEFSAII (Michael W. Deem and Ramdas Pophale) SiO2 
 PCOD9576905
Probable space group: R 3 2
;
_chemical_formula_sum "Si O2"
_cell_formula_units_Z 72
_cell_length_a 22.315481
_cell_length_b 22.315481
_cell_length_c 8.216327
_cell_angle_alpha 90.000000
_cell_angle_beta 90.000000
_cell_angle_gamma 120.000000
_cell_volume 3543.405473
_symmetry_space_group_name_H-M "R 3 2"
_symmetry_group_IT_number 155
_symmetry_cell_setting 'hexagonal'
loop_
_space_group_symop_operation_xyz
x,y,z
-y,x-y,z
-x+y,-x,z
x-y,-y,-z
-x,-x+y,-z
y,x,-z
2/3+x,1/3+y,1/3+z
2/3-y,1/3+x-y,1/3+z
2/3-x+y,1/3-x,1/3+z
2/3+x-y,1/3-y,1/3-z
2/3-x,1/3-x+y,1/3-z
2/3+y,1/3+x,1/3-z
1/3+x,2/3+y,2/3+z
1/3-y,2/3+x-y,2/3+z
1/3-x+y,2/3-x,2/3+z
1/3+x-y,2/3-y,2/3-z
1/3-x,2/3-x+y,2/3-z
1/3+y,2/3+x,2/3-z
loop_
_atom_site_type_symbol
_atom_site_label
_atom_site_fract_x
_atom_site_fract_y
_atom_site_fract_z
Si Si1 0.045490 0.784375 0.661332
Si Si2 0.590948 0.379339 0.675142
Si Si3 0.283545 0.188674 0.823152
Si Si4 0.806007 0.382548 0.176878
O O1 0.062660 0.862786 0.648074
O O2 0.114770 0.781133 0.645206
O O3 0.000000 0.746327 0.500000
O O4 0.987656 0.748673 0.798309
O O5 0.573369 0.325824 0.524034
O O6 0.661837 0.448278 0.639228
O O7 0.583486 0.333334 0.833334
O O8 0.333334 0.199108 0.666667
O O9 0.218464 0.111539 0.837508
O O10 0.787077 0.333334 0.333334
#
# Coordination Sequence:
#
# PCOD9576905 Si02
#       4
#    18  18  18  18
#     4   8  16  33  55  81 109 143 190 237 284 344
#     4  10  20  36  59  84 115 158 200 240 295 370
#     4   9  18  36  59  84 117 155 196 243 296 363
#     4  11  22  37  59  89 122 154 193 254 315 357
#
# _framework density 20.319437000000001
#
# number of rings (size 3 to 8) (size 9 to 14) (size 15 to 20)
#    0.000    2.500    0.000    3.500    0.000    0.000 
#    0.000   31.250    0.000    4.500    0.000    0.000 
#    0.000    0.000    0.000    0.000    0.000    0.000 
#
# Total GULP energy -133866.888863 kJ/mol
# GULP energy per Si atom -5577.787036 kJ/mol
# Density = 2.027319 g / cm^3
# Si number density = 20.319437 Si / 1000 Ang^3
#
#
#
# Elastic Constant Matrix: (Units=GPa)
#
#
# Indices 1 2 3 4 5 6 
#
# 1 141.7179 87.3784 49.5103 9.2929 -0.0058 -0.0062
# 2 87.3784 141.7257 49.5200 -9.2971 0.0027 0.0004
# 3 49.5103 49.5200 109.1764 -0.0003 -0.0144 -0.0063
# 4 9.2929 -9.2971 -0.0003 24.0285 -0.0008 -0.0035
# 5 -0.0058 0.0027 -0.0144 -0.0008 24.0185 9.2945
# 6 -0.0062 0.0004 -0.0063 -0.0035 9.2945 27.1683
#
#
#
# Elastic Compliance Matrix: (Units=1/GPa)
#
#
# Indices 1 2 3 4 5 6 
#
# 1 0.013318 -0.007889 -0.002461 -0.008203 0.000002 0.000001
# 2 -0.007889 0.013319 -0.002463 0.008204 -0.000005 0.000000
# 3 -0.002461 -0.002463 0.011393 -0.000001 0.000007 0.000000
# 4 -0.008203 0.008204 -0.000001 0.047964 -0.000003 0.000005
# 5 0.000002 -0.000005 0.000007 -0.000003 0.047988 -0.016417
# 6 0.000001 0.000000 0.000000 0.000005 -0.016417 0.042424
#
#
# Mechanical properties :
#
#
# Convention : Reuss Voigt Hill
#
# Bulk Modulus (GPa) = 80.63130 85.04860 82.83995
# Shear Modulus (GPa) = 24.25202 28.79046 26.52124
#
# Velocity S-wave (km/s) = 3.45851 3.76825 3.61670
# Velocity P-wave (km/s) = 7.46434 7.80254 7.63531
#
# Compressibility (1/GPa) = 0.01240213
#
# Stress axis : x y z
#
# Youngs Moduli (GPa) = 75.08409 75.08151 87.77307
#
# Poissons Ratio (x) = 0.59234 0.21604
# Poissons Ratio (y) = 0.59236 0.21622
# Poissons Ratio (z) = 0.18481 0.18495
#
# Static dielectric constant tensor:
#      x y z
#    x 1.718260 0.000000 0.000000 
#    y 0.000000 1.718260 0.000000 
#    z 0.000000 0.000000 1.936360 
# 
# From -- ./inp_files/2109.got.cif
#   From: 2010.05.17/outbox.cif.g08.bks.cpg/sg155_2_cif.got.tgz:2109.got - 2010.05.20 10:44:35.
