data_PCOD9576119
_publ_section_title
;
Structure prediction by ZEFSAII (Michael W. Deem and Ramdas Pophale) SiO2 
 PCOD9576119
Probable space group: P 31 2 1
;
_chemical_formula_sum "Si O2"
_cell_formula_units_Z 15
_cell_length_a 12.551390
_cell_length_b 12.551390
_cell_length_c 4.667196
_cell_angle_alpha 90.000000
_cell_angle_beta 90.000000
_cell_angle_gamma 120.000000
_cell_volume 636.752003
_symmetry_space_group_name_H-M "P 31 2 1"
_symmetry_group_IT_number 152
_symmetry_cell_setting 'hexagonal'
loop_
_space_group_symop_operation_xyz
x,y,z
-y,x-y,1/3+z
-x+y,-x,2/3+z
x-y,-y,2/3-z
-x,-x+y,1/3-z
y,x,-z
loop_
_atom_site_type_symbol
_atom_site_label
_atom_site_fract_x
_atom_site_fract_y
_atom_site_fract_z
Si Si1 0.874605 0.874605 0.500000
Si Si2 0.359795 0.232140 0.826625
Si Si3 0.281429 0.524840 0.681208
O O1 0.854989 0.749703 0.359684
O O2 0.000000 0.915394 0.666667
O O3 0.451669 0.304369 0.569848
O O4 0.309302 0.309302 0.000000
O O5 0.430185 0.200229 0.071708
O O6 0.400883 0.626644 0.851585
#
# Coordination Sequence:
#
# PCOD9576119 Si02
#       3
#     3   6   6
#     4  10  26  46  76 104 144 182 236 308 364 424
#     4  11  25  45  74 108 142 190 239 291 368 429
#     4  12  23  49  67 102 150 191 232 300 344 416
#
# _framework density 23.557053
#
# number of rings (size 3 to 8) (size 9 to 14) (size 15 to 20)
#    0.000    0.800    4.000    1.200   11.200    0.000 
#   14.400    0.000    0.000    0.000    0.000    0.000 
#    0.000    0.000    0.000    0.000    0.000    0.000 
#
# Total GULP energy -83684.262962 kJ/mol
# GULP energy per Si atom -5578.950864 kJ/mol
# Density = 2.350344 g / cm^3
# Si number density = 23.557053 Si / 1000 Ang^3
#
#
#
# Elastic Constant Matrix: (Units=GPa)
#
#
# Indices 1 2 3 4 5 6 
#
# 1 94.3079 51.0934 45.5865 -7.0359 0.0000 0.0000
# 2 51.0934 94.3079 45.5865 7.0359 0.0000 0.0000
# 3 45.5865 45.5865 132.3696 0.0000 0.0000 0.0000
# 4 -7.0359 7.0359 0.0000 38.7309 0.0000 0.0000
# 5 0.0000 0.0000 0.0000 0.0000 38.7309 -7.0359
# 6 0.0000 0.0000 0.0000 0.0000 -7.0359 21.6072
#
#
#
# Elastic Compliance Matrix: (Units=1/GPa)
#
#
# Indices 1 2 3 4 5 6 
#
# 1 0.016684 -0.007912 -0.003021 0.004468 0.000000 0.000000
# 2 -0.007912 0.016684 -0.003021 -0.004468 0.000000 0.000000
# 3 -0.003021 -0.003021 0.009635 0.000000 0.000000 0.000000
# 4 0.004468 -0.004468 0.000000 0.027442 0.000000 0.000000
# 5 0.000000 0.000000 0.000000 0.000000 0.027442 0.008936
# 6 0.000000 0.000000 0.000000 0.000000 0.008936 0.049191
#
#
# Mechanical properties :
#
#
# Convention : Reuss Voigt Hill
#
# Bulk Modulus (GPa) = 66.24592 67.27981 66.76287
# Shear Modulus (GPa) = 27.77517 31.72840 29.75179
#
# Velocity S-wave (km/s) = 3.43747 3.67396 3.55768
# Velocity P-wave (km/s) = 6.62853 6.82786 6.72894
#
# Compressibility (1/GPa) = 0.01509527
#
# Stress axis : x y z
#
# Youngs Moduli (GPa) = 59.93935 59.93935 103.78485
#
# Poissons Ratio (x) = 0.47423 0.31352
# Poissons Ratio (y) = 0.47423 0.31352
# Poissons Ratio (z) = 0.18107 0.18107
#
# Static dielectric constant tensor:
#      x y z
#    x 2.020870 0.000000 0.000000 
#    y 0.000000 2.020870 0.000000 
#    z 0.000000 0.000000 1.929410 
# 
# From -- ./inp_files/71.got.cif
#   From: 2010.05.17/outbox.cif.g08.bks.cpg/sg152_1_cif.got.tgz:71.got - 2010.05.20 10:36:06.
