data_PCOD9576495
_publ_section_title
;
Structure prediction by ZEFSAII (Michael W. Deem and Ramdas Pophale) SiO2 
 PCOD9576495
Probable space group: P 32 2 1
;
_chemical_formula_sum "Si O2"
_cell_formula_units_Z 33
_cell_length_a 14.052154
_cell_length_b 14.052154
_cell_length_c 8.302520
_cell_angle_alpha 90.000000
_cell_angle_beta 90.000000
_cell_angle_gamma 120.000000
_cell_volume 1419.797357
_symmetry_space_group_name_H-M "P 32 2 1"
_symmetry_group_IT_number 154
_symmetry_cell_setting 'hexagonal'
loop_
_space_group_symop_operation_xyz
x,y,z
-y,x-y,2/3+z
-x+y,-x,1/3+z
x-y,-y,1/3-z
-x,-x+y,2/3-z
y,x,-z
loop_
_atom_site_type_symbol
_atom_site_label
_atom_site_fract_x
_atom_site_fract_y
_atom_site_fract_z
Si Si1 0.784258 0.476153 0.997789
Si Si2 0.292427 0.000000 0.666667
Si Si3 0.994448 0.655424 0.155415
Si Si4 0.845533 0.663550 0.749017
Si Si5 0.873512 0.343001 0.854209
Si Si6 0.393975 0.869426 0.492528
O O1 0.659963 0.431222 0.047166
O O2 0.869441 0.564000 0.123999
O O3 0.817769 0.550386 0.837560
O O4 0.814954 0.383252 0.977562
O O5 0.191712 0.913830 0.780750
O O6 0.339945 0.942876 0.546460
O O7 0.065966 0.592297 0.157049
O O8 0.000000 0.702006 0.333334
O O9 0.038568 0.743673 0.009222
O O10 0.763909 0.631495 0.595748
O O11 0.825045 0.341844 0.681119
O O12 0.000000 0.435480 0.833334
#
# Coordination Sequence:
#
# PCOD9576495 Si02
#       6
#     6   3   6   6   6   6
#     4  11  24  40  61  90 131 186 236 288 359 421
#     4  10  20  38  60  88 124 172 248 286 350 442
#     4  12  23  42  63  94 139 181 239 309 349 424
#     4  11  23  38  63  90 124 184 233 295 363 420
#     4  12  21  41  60  86 132 181 237 297 345 413
#     4  11  22  39  61  88 130 187 233 293 356 416
#
# _framework density 23.242756
#
# number of rings (size 3 to 8) (size 9 to 14) (size 15 to 20)
#    0.000    0.727    6.364    1.636    2.545    1.455 
#    0.000    0.000    0.000    0.000    0.000    0.000 
#    0.000   52.364    0.000    0.000    0.000    0.364 
#
# Total GULP energy -184423.722841 kJ/mol
# GULP energy per Si atom -5588.597662 kJ/mol
# Density = 2.318985 g / cm^3
# Si number density = 23.242756 Si / 1000 Ang^3
#
#
#
# Elastic Constant Matrix: (Units=GPa)
#
#
# Indices 1 2 3 4 5 6 
#
# 1 75.9653 31.4298 14.1119 -0.3414 0.0000 0.0000
# 2 31.4298 75.9653 14.1119 0.3414 0.0000 0.0000
# 3 14.1119 14.1119 95.9062 0.0000 0.0000 0.0000
# 4 -0.3414 0.3414 0.0000 28.7261 0.0000 0.0000
# 5 0.0000 0.0000 0.0000 0.0000 28.7261 -0.3414
# 6 0.0000 0.0000 0.0000 0.0000 -0.3414 22.2677
#
#
#
# Elastic Compliance Matrix: (Units=1/GPa)
#
#
# Indices 1 2 3 4 5 6 
#
# 1 0.016072 -0.006386 -0.001425 0.000267 0.000000 0.000000
# 2 -0.006386 0.016072 -0.001425 -0.000267 0.000000 0.000000
# 3 -0.001425 -0.001425 0.010846 0.000000 0.000000 0.000000
# 4 0.000267 -0.000267 0.000000 0.034818 0.000000 0.000000
# 5 0.000000 0.000000 0.000000 0.000000 0.034818 0.000534
# 6 0.000000 0.000000 0.000000 0.000000 0.000534 0.044916
#
#
# Mechanical properties :
#
#
# Convention : Reuss Voigt Hill
#
# Bulk Modulus (GPa) = 40.78747 40.79377 40.79062
# Shear Modulus (GPa) = 27.14621 28.48954 27.81788
#
# Velocity S-wave (km/s) = 3.42123 3.50485 3.46329
# Velocity P-wave (km/s) = 5.76133 5.82820 5.79486
#
# Compressibility (1/GPa) = 0.02451733
#
# Stress axis : x y z
#
# Youngs Moduli (GPa) = 62.21988 62.21988 92.19753
#
# Poissons Ratio (x) = 0.39734 0.13140
# Poissons Ratio (y) = 0.39734 0.13140
# Poissons Ratio (z) = 0.08868 0.08868
#
# Static dielectric constant tensor:
#      x y z
#    x 1.893370 0.000000 0.000000 
#    y 0.000000 1.893370 0.000000 
#    z 0.000000 0.000000 1.959570 
# 
# From -- ./inp_files/1131.got.cif
#   From: 2010.05.17/outbox.cif.g08.bks.cpg/sg154_1_cif.got.tgz:1131.got - 2010.05.20 10:41:43.
