data_PCOD9576244
_publ_section_title
;
Structure prediction by ZEFSAII (Michael W. Deem and Ramdas Pophale) SiO2 
 PCOD9576244
Probable space group: P 32 1 2
;
_chemical_formula_sum "Si O2"
_cell_formula_units_Z 30
_cell_length_a 7.539967
_cell_length_b 7.539967
_cell_length_c 25.505562
_cell_angle_alpha 90.000000
_cell_angle_beta 90.000000
_cell_angle_gamma 120.000000
_cell_volume 1255.753564
_symmetry_space_group_name_H-M "P 32 1 2"
_symmetry_group_IT_number 153
_symmetry_cell_setting 'hexagonal'
loop_
_space_group_symop_operation_xyz
x,y,z
-y,x-y,2/3+z
-x+y,-x,1/3+z
-y,-x,1/3-z
-x+y,y,2/3-z
x,x-y,-z
loop_
_atom_site_type_symbol
_atom_site_label
_atom_site_fract_x
_atom_site_fract_y
_atom_site_fract_z
Si Si1 0.963107 0.815307 0.397172
Si Si2 0.092282 0.523964 0.370339
Si Si3 0.678916 0.548326 0.488448
Si Si4 0.909821 0.220013 0.931057
Si Si5 0.142644 0.660990 0.890543
O O1 0.023244 0.689200 0.356575
O O2 0.780875 0.647002 0.433964
O O3 0.894244 0.975020 0.382561
O O4 0.174835 0.929109 0.431129
O O5 0.257740 0.515480 0.333334
O O6 0.888420 0.308611 0.375401
O O7 0.204127 0.619539 0.426404
O O8 0.665549 0.332775 0.500000
O O9 0.457208 0.520462 0.502425
O O10 0.819064 0.697135 0.534997
O O11 0.036684 0.467485 0.931245
#
# Coordination Sequence:
#
# PCOD9576244 Si02
#       5
#     6   6   6   6   6
#     4  10  20  42  60  93 126 165 203 260 319 371
#     4  10  22  44  64  89 130 168 216 264 307 380
#     4  10  18  39  62  93 128 155 208 260 314 385
#     4  10  21  41  63  93 120 165 207 256 318 371
#     4   8  22  40  59  94 126 158 210 256 317 368
#
# _framework density 23.890034
#
# number of rings (size 3 to 8) (size 9 to 14) (size 15 to 20)
#    2.400    0.000    2.000    0.600    0.000    3.200 
#   18.000    0.000    0.000    0.000    0.000    0.000 
#    0.000    0.000    0.000    0.000    0.000    0.000 
#
# Total GULP energy -167103.181810 kJ/mol
# GULP energy per Si atom -5570.106060 kJ/mol
# Density = 2.383566 g / cm^3
# Si number density = 23.890034 Si / 1000 Ang^3
#
#
#
# Elastic Constant Matrix: (Units=GPa)
#
#
# Indices 1 2 3 4 5 6 
#
# 1 90.5457 57.8762 1.7876 -0.0003 14.2676 0.0000
# 2 57.8762 90.5457 1.7876 0.0003 -14.2676 0.0000
# 3 1.7876 1.7876 40.7580 0.0000 0.0000 0.0000
# 4 -0.0003 0.0003 0.0000 0.2345 0.0000 -14.2676
# 5 14.2676 -14.2676 0.0000 0.0000 0.2345 -0.0003
# 6 0.0000 0.0000 0.0000 -14.2676 -0.0003 16.3348
#
#
#
# Elastic Compliance Matrix: (Units=1/GPa)
#
#
# Indices 1 2 3 4 5 6 
#
# 1 0.003079 0.003666 -0.000296 -0.000001 0.035717 0.000000
# 2 0.003666 0.003079 -0.000296 0.000001 -0.035717 0.000000
# 3 -0.000296 -0.000296 0.024561 0.000000 0.000000 0.000000
# 4 -0.000001 0.000001 0.000000 -0.081783 0.000000 -0.071433
# 5 0.035717 -0.035717 0.000000 0.000000 -0.081783 -0.000001
# 6 0.000000 0.000000 0.000000 -0.071433 -0.000001 -0.001174
#
#
# Mechanical properties :
#
#
# Convention : Reuss Voigt Hill
#
# Bulk Modulus (GPa) = 27.12447 38.30581 32.71514
# Shear Modulus (GPa) = -39.09908 14.05397 -12.52256
#
# Velocity S-wave (km/s) = -4.04991 2.42807 -2.29197
# Velocity P-wave (km/s) = 3.23891 4.89181 2.59222
#
# Compressibility (1/GPa) = 0.03686709
#
# Stress axis : x y z
#
# Youngs Moduli (GPa) = 324.80207 324.80207 40.71499
#
# Poissons Ratio (x) = -1.19068 0.01204
# Poissons Ratio (y) = -1.19068 0.01204
# Poissons Ratio (z) = 0.09608 0.09608
#
# Static dielectric constant tensor:
#      x y z
#    x 1.928800 0.000000 0.000000 
#    y 0.000000 1.928800 0.000000 
#    z 0.000000 0.000000 2.088140 
# 
# From -- ./inp_files/4627.got.cif
#   From: 2010.05.17/outbox.cif.g08.bks.cpg/sg153_3_cif.got.tgz:4627.got - 2010.05.20 10:38:56.
