data_PCOD9576786
_publ_section_title
;
Structure prediction by ZEFSAII (Michael W. Deem and Ramdas Pophale) SiO2 
 PCOD9576786
Probable space group: R 3 2
;
_chemical_formula_sum "Si O2"
_cell_formula_units_Z 117
_cell_length_a 14.734864
_cell_length_b 14.734864
_cell_length_c 29.766756
_cell_angle_alpha 90.000000
_cell_angle_beta 90.000000
_cell_angle_gamma 120.000000
_cell_volume 5596.988347
_symmetry_space_group_name_H-M "R 3 2"
_symmetry_group_IT_number 155
_symmetry_cell_setting 'hexagonal'
loop_
_space_group_symop_operation_xyz
x,y,z
-y,x-y,z
-x+y,-x,z
x-y,-y,-z
-x,-x+y,-z
y,x,-z
2/3+x,1/3+y,1/3+z
2/3-y,1/3+x-y,1/3+z
2/3-x+y,1/3-x,1/3+z
2/3+x-y,1/3-y,1/3-z
2/3-x,1/3-x+y,1/3-z
2/3+y,1/3+x,1/3-z
1/3+x,2/3+y,2/3+z
1/3-y,2/3+x-y,2/3+z
1/3-x+y,2/3-x,2/3+z
1/3+x-y,2/3-y,2/3-z
1/3-x,2/3-x+y,2/3-z
1/3+y,2/3+x,2/3-z
loop_
_atom_site_type_symbol
_atom_site_label
_atom_site_fract_x
_atom_site_fract_y
_atom_site_fract_z
Si Si1 0.333334 0.909965 0.666667
Si Si2 0.885804 0.457658 0.975810
Si Si3 0.885310 0.768545 0.222372
Si Si4 0.101972 0.437018 0.566309
Si Si5 0.115937 0.905557 0.676656
Si Si6 0.380938 0.903148 0.121557
Si Si7 0.788413 0.896293 0.182394
O O1 0.332753 0.864154 0.617710
O O2 0.229164 0.918598 0.668182
O O3 0.874533 0.412349 0.925624
O O4 0.805844 0.356782 0.004979
O O5 0.841321 0.536723 0.976376
O O6 0.000000 0.509217 0.000000
O O7 0.786774 0.650845 0.218055
O O8 0.920404 0.780236 0.273890
O O9 0.845460 0.851526 0.214523
O O10 0.984889 0.806902 0.190864
O O11 0.199751 0.476727 0.533419
O O12 0.033323 0.310252 0.559283
O O13 0.333334 0.832514 0.166667
O O14 0.488030 0.000813 0.139449
#
# Coordination Sequence:
#
# PCOD9576786 Si02
#       7
#     9  18  18  18  18  18  18
#     4  10  18  38  62  86 124 172 222 256 340 422
#     4  12  21  37  61  96 136 170 231 285 330 416
#     4  10  18  31  53  93 124 153 214 276 327 388
#     4   9  18  34  61  85 119 174 216 259 331 406
#     4  11  21  33  62  95 129 177 213 273 340 389
#     4   9  18  34  57  85 124 175 215 262 328 406
#     4  10  19  33  60  90 120 162 214 275 339 386
#
# _framework density 20.904098000000001
#
# number of rings (size 3 to 8) (size 9 to 14) (size 15 to 20)
#    0.000    1.846    2.308    5.692    0.000    0.000 
#    0.000    0.769   16.923    0.000    0.000    0.000 
#    0.769    0.000    0.000    0.000    0.000    0.000 
#
# Total GULP energy -217458.570413 kJ/mol
# GULP energy per Si atom -5575.860780 kJ/mol
# Density = 2.085652 g / cm^3
# Si number density = 20.904098 Si / 1000 Ang^3
#
#
#
# Elastic Constant Matrix: (Units=GPa)
#
#
# Indices 1 2 3 4 5 6 
#
# 1 64.6477 29.2039 45.2233 0.1601 0.0001 0.0000
# 2 29.2039 64.6477 45.2233 -0.1601 -0.0001 0.0000
# 3 45.2233 45.2233 165.6487 0.0000 0.0000 0.0000
# 4 0.1601 -0.1601 0.0000 28.1934 0.0000 -0.0001
# 5 0.0001 -0.0001 0.0000 0.0000 28.1934 0.1601
# 6 0.0000 0.0000 0.0000 -0.0001 0.1601 17.7219
#
#
#
# Elastic Compliance Matrix: (Units=1/GPa)
#
#
# Indices 1 2 3 4 5 6 
#
# 1 0.021337 -0.006878 -0.003948 -0.000160 0.000000 0.000000
# 2 -0.006878 0.021337 -0.003948 0.000160 0.000000 0.000000
# 3 -0.003948 -0.003948 0.008192 0.000000 0.000000 0.000000
# 4 -0.000160 0.000160 0.000000 0.035471 0.000000 0.000000
# 5 0.000000 0.000000 0.000000 0.000000 0.035471 -0.000320
# 6 0.000000 0.000000 0.000000 0.000000 -0.000320 0.056430
#
#
# Mechanical properties :
#
#
# Convention : Reuss Voigt Hill
#
# Bulk Modulus (GPa) = 46.90206 59.36055 53.13131
# Shear Modulus (GPa) = 23.26748 26.50798 24.88773
#
# Velocity S-wave (km/s) = 3.33987 3.56487 3.45420
# Velocity P-wave (km/s) = 6.11216 6.73815 6.43277
#
# Compressibility (1/GPa) = 0.02132102
#
# Stress axis : x y z
#
# Youngs Moduli (GPa) = 46.86629 46.86629 122.06613
#
# Poissons Ratio (x) = 0.32234 0.48186
# Poissons Ratio (y) = 0.32234 0.48186
# Poissons Ratio (z) = 0.18501 0.18501
#
# Static dielectric constant tensor:
#      x y z
#    x 1.761120 0.000000 0.000000 
#    y 0.000000 1.761120 0.000000 
#    z 0.000000 0.000000 1.826860 
# 
# From -- ./inp_files/8476.got.cif
#   From: 2010.05.17/outbox.cif.g08.bks.cpg/sg155_5_cif.got.tgz:8476.got - 2010.05.20 10:44:35.
