data_PCOD9576320
_publ_section_title
;
Structure prediction by ZEFSAII (Michael W. Deem and Ramdas Pophale) SiO2 
 PCOD9576320
Probable space group: P 32 1 2
;
_chemical_formula_sum "Si O2"
_cell_formula_units_Z 30
_cell_length_a 13.470556
_cell_length_b 13.470556
_cell_length_c 8.592053
_cell_angle_alpha 90.000000
_cell_angle_beta 90.000000
_cell_angle_gamma 120.000000
_cell_volume 1350.201613
_symmetry_space_group_name_H-M "P 32 1 2"
_symmetry_group_IT_number 153
_symmetry_cell_setting 'hexagonal'
loop_
_space_group_symop_operation_xyz
x,y,z
-y,x-y,2/3+z
-x+y,-x,1/3+z
-y,-x,1/3-z
-x+y,y,2/3-z
x,x-y,-z
loop_
_atom_site_type_symbol
_atom_site_label
_atom_site_fract_x
_atom_site_fract_y
_atom_site_fract_z
Si Si1 0.868851 0.434426 0.500000
Si Si2 0.053029 0.678319 0.465937
Si Si3 0.193755 0.155002 0.338565
Si Si4 0.275609 0.222987 0.881066
Si Si5 0.370928 0.629073 0.166667
Si Si6 0.805592 0.287570 0.999920
O O1 0.784261 0.469083 0.579062
O O2 0.960312 0.548947 0.408842
O O3 0.171419 0.681192 0.497859
O O4 0.994158 0.710384 0.609111
O O5 0.055930 0.754235 0.319520
O O6 0.210689 0.105345 0.500000
O O7 0.178220 0.061542 0.210125
O O8 0.082020 0.164040 0.333334
O O9 0.373509 0.281310 0.751337
O O10 0.320202 0.160101 0.000000
O O11 0.328001 0.656001 0.333334
O O12 0.772509 0.227492 0.166667
O O13 0.834811 0.417406 0.000000
#
# Coordination Sequence:
#
# PCOD9576320 Si02
#       6
#     3   6   6   6   3   6
#     4  11  20  36  58  92 142 188 227 288 366 426
#     4  10  23  45  73 100 149 190 243 320 378 442
#     4  11  24  44  69 104 145 196 248 305 370 453
#     4  10  21  42  61  98 142 188 235 296 370 446
#     4  11  26  56  84 114 146 200 269 334 398 466
#     4  12  22  30  55  93 141 194 241 289 358 459
#
# _framework density 22.218903999999998
#
# number of rings (size 3 to 8) (size 9 to 14) (size 15 to 20)
#    0.000    1.200    5.000    2.400    0.000    2.400 
#    7.200    0.000    0.000    0.000    0.000    0.000 
#    0.000    0.000    0.000    0.000    0.000    0.000 
#
# Total GULP energy -167138.814813 kJ/mol
# GULP energy per Si atom -5571.293827 kJ/mol
# Density = 2.216833 g / cm^3
# Si number density = 22.218904 Si / 1000 Ang^3
#
#
#
# Elastic Constant Matrix: (Units=GPa)
#
#
# Indices 1 2 3 4 5 6 
#
# 1 72.1191 28.4847 23.0680 -0.0009 -3.9259 0.0000
# 2 28.4847 72.1191 23.0680 0.0009 3.9259 0.0000
# 3 23.0680 23.0680 113.2259 0.0000 0.0000 0.0000
# 4 -0.0009 0.0009 0.0000 17.4699 0.0000 3.9259
# 5 -3.9259 3.9259 0.0000 0.0000 17.4699 -0.0009
# 6 0.0000 0.0000 0.0000 3.9259 -0.0009 21.8172
#
#
#
# Elastic Compliance Matrix: (Units=1/GPa)
#
#
# Indices 1 2 3 4 5 6 
#
# 1 0.017424 -0.006460 -0.002234 0.000001 0.005367 0.000000
# 2 -0.006460 0.017424 -0.002234 -0.000001 -0.005367 0.000000
# 3 -0.002234 -0.002234 0.009742 0.000000 0.000000 0.000000
# 4 0.000001 -0.000001 0.000000 0.059653 0.000000 -0.010734
# 5 0.005367 -0.005367 0.000000 0.000000 0.059653 0.000003
# 6 0.000000 0.000000 0.000000 -0.010734 0.000003 0.047767
#
#
# Mechanical properties :
#
#
# Convention : Reuss Voigt Hill
#
# Bulk Modulus (GPa) = 43.98386 45.18949 44.58668
# Shear Modulus (GPa) = 20.73858 23.54100 22.13979
#
# Velocity S-wave (km/s) = 3.05843 3.25853 3.16007
# Velocity P-wave (km/s) = 5.68425 5.87706 5.78146
#
# Compressibility (1/GPa) = 0.02273561
#
# Stress axis : x y z
#
# Youngs Moduli (GPa) = 57.39239 57.39239 102.64717
#
# Poissons Ratio (x) = 0.37073 0.22930
# Poissons Ratio (y) = 0.37073 0.22930
# Poissons Ratio (z) = 0.12820 0.12820
#
# Static dielectric constant tensor:
#      x y z
#    x 1.882280 0.000000 0.000000 
#    y 0.000000 1.882280 0.000000 
#    z 0.000000 0.000000 1.899930 
# 
# From -- ./inp_files/1594.got.cif
#   From: 2010.05.17/outbox.cif.g08.bks.cpg/sg153_1_cif.got.tgz:1594.got - 2010.05.20 10:38:56.
