data_PCOD9576408
_publ_section_title
;
Structure prediction by ZEFSAII (Michael W. Deem and Ramdas Pophale) SiO2 
 PCOD9576408
Probable space group: P 32 2 1
;
_chemical_formula_sum "Si O2"
_cell_formula_units_Z 27
_cell_length_a 9.470585
_cell_length_b 9.470585
_cell_length_c 12.440549
_cell_angle_alpha 90.000000
_cell_angle_beta 90.000000
_cell_angle_gamma 120.000000
_cell_volume 966.326279
_symmetry_space_group_name_H-M "P 32 2 1"
_symmetry_group_IT_number 154
_symmetry_cell_setting 'hexagonal'
loop_
_space_group_symop_operation_xyz
x,y,z
-y,x-y,2/3+z
-x+y,-x,1/3+z
x-y,-y,1/3-z
-x,-x+y,2/3-z
y,x,-z
loop_
_atom_site_type_symbol
_atom_site_label
_atom_site_fract_x
_atom_site_fract_y
_atom_site_fract_z
Si Si1 0.933497 0.160777 0.532697
Si Si2 0.419512 0.694966 0.853505
Si Si3 0.000000 0.735112 0.833334
Si Si4 0.000000 0.372487 0.333334
Si Si5 0.884585 0.403915 0.961889
Si Si6 0.215803 0.000000 0.166667
O O1 0.104354 0.194346 0.580812
O O2 0.030711 0.280288 0.430267
O O3 0.805048 0.221636 0.549266
O O4 0.852226 0.032211 0.817861
O O5 0.272078 0.574558 0.780946
O O6 0.464500 0.613990 0.953160
O O7 0.389044 0.827857 0.914815
O O8 0.044530 0.633968 0.742875
O O9 0.994476 0.325273 0.931727
#
# Coordination Sequence:
#
# PCOD9576408 Si02
#       6
#     6   6   3   3   6   3
#     4   9  19  41  67  88 126 183 227 264 332 427
#     4  10  22  42  69  94 135 186 229 271 351 417
#     4  10  18  40  66  88 130 178 224 274 338 404
#     4   8  18  40  64  90 118 180 234 242 334 420
#     4  11  23  41  64 103 138 172 226 296 348 393
#     4  10  24  36  60 104 130 164 230 288 342 386
#
# _framework density 27.940874999999998
#
# number of rings (size 3 to 8) (size 9 to 14) (size 15 to 20)
#    1.333    0.889    2.222    0.000    0.000    8.889 
#    0.000    7.778    0.000    0.000    0.000    0.000 
#    0.000    0.000    0.000    0.000    0.000    0.000 
#
# Total GULP energy -150502.771276 kJ/mol
# GULP energy per Si atom -5574.176714 kJ/mol
# Density = 2.787728 g / cm^3
# Si number density = 27.940875 Si / 1000 Ang^3
#
#
#
# Elastic Constant Matrix: (Units=GPa)
#
#
# Indices 1 2 3 4 5 6 
#
# 1 182.7707 59.3822 56.2293 3.0048 0.0001 0.0000
# 2 59.3822 182.7707 56.2293 -3.0048 -0.0001 0.0000
# 3 56.2293 56.2293 70.3493 0.0000 0.0000 0.0000
# 4 3.0048 -3.0048 0.0000 32.3464 0.0000 -0.0001
# 5 0.0001 -0.0001 0.0000 0.0000 32.3464 3.0048
# 6 0.0000 0.0000 0.0000 -0.0001 3.0048 61.6942
#
#
#
# Elastic Compliance Matrix: (Units=1/GPa)
#
#
# Indices 1 2 3 4 5 6 
#
# 1 0.007354 -0.000787 -0.005249 -0.000756 0.000000 0.000000
# 2 -0.000787 0.007354 -0.005249 0.000756 0.000000 0.000000
# 3 -0.005249 -0.005249 0.022606 0.000000 0.000000 0.000000
# 4 -0.000756 0.000756 0.000000 0.031056 0.000000 0.000000
# 5 0.000000 0.000000 0.000000 0.000000 0.031056 -0.001513
# 6 0.000000 0.000000 0.000000 0.000000 -0.001513 0.016283
#
#
# Mechanical properties :
#
#
# Convention : Reuss Voigt Hill
#
# Bulk Modulus (GPa) = 67.82451 86.61913 77.22182
# Shear Modulus (GPa) = 34.91741 42.88071 38.89906
#
# Velocity S-wave (km/s) = 3.53893 3.92177 3.73526
# Velocity P-wave (km/s) = 6.40513 7.18159 6.80444
#
# Compressibility (1/GPa) = 0.01474393
#
# Stress axis : x y z
#
# Youngs Moduli (GPa) = 135.97327 135.97327 44.23571
#
# Poissons Ratio (x) = 0.10700 0.23221
# Poissons Ratio (y) = 0.10700 0.23221
# Poissons Ratio (z) = 0.71376 0.71376
#
# Static dielectric constant tensor:
#      x y z
#    x 1.648490 0.000000 0.000000 
#    y 0.000000 1.648490 0.000000 
#    z 0.000000 0.000000 2.582730 
# 
# From -- ./inp_files/1633.got.cif
#   From: 2010.05.17/outbox.cif.g08.bks.cpg/sg154_1_cif.got.tgz:1633.got - 2010.05.20 10:41:43.
