data_PCOD9576788
_publ_section_title
;
Structure prediction by ZEFSAII (Michael W. Deem and Ramdas Pophale) SiO2 
 PCOD9576788
Probable space group: R 3 2
;
_chemical_formula_sum "Si O2"
_cell_formula_units_Z 81
_cell_length_a 21.571373
_cell_length_b 21.571373
_cell_length_c 8.877557
_cell_angle_alpha 90.000000
_cell_angle_beta 90.000000
_cell_angle_gamma 120.000000
_cell_volume 3577.500294
_symmetry_space_group_name_H-M "R 3 2"
_symmetry_group_IT_number 155
_symmetry_cell_setting 'hexagonal'
loop_
_space_group_symop_operation_xyz
x,y,z
-y,x-y,z
-x+y,-x,z
x-y,-y,-z
-x,-x+y,-z
y,x,-z
2/3+x,1/3+y,1/3+z
2/3-y,1/3+x-y,1/3+z
2/3-x+y,1/3-x,1/3+z
2/3+x-y,1/3-y,1/3-z
2/3-x,1/3-x+y,1/3-z
2/3+y,1/3+x,1/3-z
1/3+x,2/3+y,2/3+z
1/3-y,2/3+x-y,2/3+z
1/3-x+y,2/3-x,2/3+z
1/3+x-y,2/3-y,2/3-z
1/3-x,2/3-x+y,2/3-z
1/3+y,2/3+x,2/3-z
loop_
_atom_site_type_symbol
_atom_site_label
_atom_site_fract_x
_atom_site_fract_y
_atom_site_fract_z
Si Si1 0.000000 0.875443 0.000000
Si Si2 0.063290 0.413274 0.901460
Si Si3 0.218835 0.798556 0.992866
Si Si4 0.056077 0.090295 0.689979
Si Si5 0.868835 0.132309 0.963365
O O1 0.963776 0.898551 0.128989
O O2 0.943720 0.802151 0.915722
O O3 0.129321 0.424966 0.003079
O O4 0.082765 0.474024 0.778281
O O5 0.030473 0.333334 0.833334
O O6 0.000000 0.409849 0.000000
O O7 0.230823 0.733897 0.039921
O O8 0.157871 0.811081 0.065788
O O9 0.206659 0.795498 0.811505
O O10 0.076436 0.029063 0.654254
#
# Coordination Sequence:
#
# PCOD9576788 Si02
#       5
#     9  18  18  18  18
#     4  10  18  32  50  82 120 134 178 232 276 334
#     4  12  19  31  49  80 117 144 180 223 275 332
#     4  10  18  32  50  78 115 142 179 221 275 343
#     4   9  18  29  47  80 108 139 168 223 277 320
#     4  10  20  31  52  83 110 150 176 223 283 326
#
# _framework density 22.641508999999999
#
# number of rings (size 3 to 8) (size 9 to 14) (size 15 to 20)
#    0.444    1.333    4.444    2.667    0.000    3.556 
#    0.000    0.000    0.000    0.000   72.222   10.889 
#    0.000    0.000    0.000    0.000    0.000    0.000 
#
# Total GULP energy -150626.376587 kJ/mol
# GULP energy per Si atom -5578.754688 kJ/mol
# Density = 2.258998 g / cm^3
# Si number density = 22.641509 Si / 1000 Ang^3
#
#
#
# Elastic Constant Matrix: (Units=GPa)
#
#
# Indices 1 2 3 4 5 6 
#
# 1 125.9431 63.5365 14.9763 3.8007 0.0051 0.0011
# 2 63.5365 125.9389 14.9672 -3.7988 0.0002 0.0004
# 3 14.9763 14.9672 41.0752 0.0055 0.0148 0.0031
# 4 3.8007 -3.7988 0.0055 17.4643 0.0022 0.0015
# 5 0.0051 0.0002 0.0148 0.0022 17.4697 3.8013
# 6 0.0011 0.0004 0.0031 0.0015 3.8013 31.2021
#
#
#
# Elastic Compliance Matrix: (Units=1/GPa)
#
#
# Indices 1 2 3 4 5 6 
#
# 1 0.011031 -0.005430 -0.002043 -0.003581 -0.000001 0.000000
# 2 -0.005430 0.011030 -0.002040 0.003582 0.000003 0.000000
# 3 -0.002043 -0.002040 0.025834 -0.000007 -0.000021 0.000000
# 4 -0.003581 0.003582 -0.000007 0.058818 -0.000006 -0.000002
# 5 -0.000001 0.000003 -0.000021 -0.000006 0.058801 -0.007164
# 6 0.000000 0.000000 0.000000 -0.000002 -0.007164 0.032922
#
#
# Mechanical properties :
#
#
# Convention : Reuss Voigt Hill
#
# Bulk Modulus (GPa) = 34.63912 53.32415 43.98164
# Shear Modulus (GPa) = 22.01828 26.52568 24.27198
#
# Velocity S-wave (km/s) = 3.12183 3.42651 3.27771
# Velocity P-wave (km/s) = 5.32228 6.26556 5.81308
#
# Compressibility (1/GPa) = 0.02886909
#
# Stress axis : x y z
#
# Youngs Moduli (GPa) = 90.65763 90.65881 38.70915
#
# Poissons Ratio (x) = 0.49229 0.07907
# Poissons Ratio (y) = 0.49229 0.07896
# Poissons Ratio (z) = 0.18518 0.18494
#
# Static dielectric constant tensor:
#      x y z
#    x 1.873780 0.000000 0.000000 
#    y 0.000000 1.873770 0.000000 
#    z 0.000000 0.000000 1.921340 
# 
# From -- ./inp_files/3825.got.cif
#   From: 2010.05.17/outbox.cif.g08.bks.cpg/sg155_2_cif.got.tgz:3825.got - 2010.05.20 10:44:35.
