data_PCOD9576196
_publ_section_title
;
Structure prediction by ZEFSAII (Michael W. Deem and Ramdas Pophale) SiO2 
 PCOD9576196
Probable space group: P 31 2 1
;
_chemical_formula_sum "Si O2"
_cell_formula_units_Z 15
_cell_length_a 7.768683
_cell_length_b 7.768683
_cell_length_c 12.557102
_cell_angle_alpha 90.000000
_cell_angle_beta 90.000000
_cell_angle_gamma 120.000000
_cell_volume 656.318815
_symmetry_space_group_name_H-M "P 31 2 1"
_symmetry_group_IT_number 152
_symmetry_cell_setting 'hexagonal'
loop_
_space_group_symop_operation_xyz
x,y,z
-y,x-y,1/3+z
-x+y,-x,2/3+z
x-y,-y,2/3-z
-x,-x+y,1/3-z
y,x,-z
loop_
_atom_site_type_symbol
_atom_site_label
_atom_site_fract_x
_atom_site_fract_y
_atom_site_fract_z
Si Si1 0.403308 0.317163 0.224728
Si Si2 0.822983 0.822983 0.500000
Si Si3 0.249386 0.527881 0.997389
O O1 0.019535 0.848734 0.442880
O O2 0.412286 0.510345 0.276129
O O3 0.566080 0.283775 0.283303
O O4 0.461341 0.335254 0.100568
O O5 0.645740 0.759720 0.414394
#
# Coordination Sequence:
#
# PCOD9576196 Si02
#       3
#     6   3   6
#     4  12  25  48  79 108 163 213 263 336 411 473
#     4  12  26  50  76 114 156 208 274 324 406 488
#     4  12  25  49  76 113 162 211 266 339 403 479
#
# _framework density 22.854749000000002
#
# number of rings (size 3 to 8) (size 9 to 14) (size 15 to 20)
#    0.000    0.000    8.000    1.200    0.000    0.000 
#   14.400    0.000    0.000    0.000    0.000    0.000 
#    0.000    0.000    0.000    0.000    0.000    0.000 
#
# Total GULP energy -83906.894635 kJ/mol
# GULP energy per Si atom -5593.792976 kJ/mol
# Density = 2.280273 g / cm^3
# Si number density = 22.854749 Si / 1000 Ang^3
#
#
#
# Elastic Constant Matrix: (Units=GPa)
#
#
# Indices 1 2 3 4 5 6 
#
# 1 152.3463 76.4720 84.4478 9.9809 0.0000 0.0000
# 2 76.4720 152.3463 84.4478 -9.9809 0.0000 0.0000
# 3 84.4478 84.4478 158.0459 0.0000 0.0000 0.0000
# 4 9.9809 -9.9809 0.0000 45.2074 0.0000 0.0000
# 5 0.0000 0.0000 0.0000 0.0000 45.2074 9.9809
# 6 0.0000 0.0000 0.0000 0.0000 9.9809 37.9372
#
#
#
# Elastic Compliance Matrix: (Units=1/GPa)
#
#
# Indices 1 2 3 4 5 6 
#
# 1 0.010604 -0.003388 -0.003856 -0.003089 0.000000 0.000000
# 2 -0.003388 0.010604 -0.003856 0.003089 0.000000 0.000000
# 3 -0.003856 -0.003856 0.010448 0.000000 0.000000 0.000000
# 4 -0.003089 0.003089 0.000000 0.023484 0.000000 0.000000
# 5 0.000000 0.000000 0.000000 0.000000 0.023484 -0.006178
# 6 0.000000 0.000000 0.000000 0.000000 -0.006178 0.027985
#
#
# Mechanical properties :
#
#
# Convention : Reuss Voigt Hill
#
# Bulk Modulus (GPa) = 105.74089 105.94155 105.84122
# Shear Modulus (GPa) = 37.88962 40.16180 39.02571
#
# Velocity S-wave (km/s) = 4.07608 4.19652 4.13674
# Velocity P-wave (km/s) = 8.27765 8.36277 8.32032
#
# Compressibility (1/GPa) = 0.00945708
#
# Stress axis : x y z
#
# Youngs Moduli (GPa) = 94.30030 94.30030 95.71314
#
# Poissons Ratio (x) = 0.31949 0.36906
# Poissons Ratio (y) = 0.31949 0.36906
# Poissons Ratio (z) = 0.36361 0.36361
#
# Static dielectric constant tensor:
#      x y z
#    x 1.899280 0.000000 0.000000 
#    y 0.000000 1.899280 0.000000 
#    z 0.000000 0.000000 1.878560 
# 
# From -- ./inp_files/692.got.cif
#   From: 2010.05.17/outbox.cif.g08.bks.cpg/sg152_1_cif.got.tgz:692.got - 2010.05.20 10:36:06.
