data_PCOD9576662
_publ_section_title
;
Structure prediction by ZEFSAII (Michael W. Deem and Ramdas Pophale) SiO2 
 PCOD9576662
Probable space group: P 32 2 1
;
_chemical_formula_sum "Si O2"
_cell_formula_units_Z 24
_cell_length_a 15.206112
_cell_length_b 15.206112
_cell_length_c 5.168592
_cell_angle_alpha 90.000000
_cell_angle_beta 90.000000
_cell_angle_gamma 120.000000
_cell_volume 1034.997385
_symmetry_space_group_name_H-M "P 32 2 1"
_symmetry_group_IT_number 154
_symmetry_cell_setting 'hexagonal'
loop_
_space_group_symop_operation_xyz
x,y,z
-y,x-y,2/3+z
-x+y,-x,1/3+z
x-y,-y,1/3-z
-x,-x+y,2/3-z
y,x,-z
loop_
_atom_site_type_symbol
_atom_site_label
_atom_site_fract_x
_atom_site_fract_y
_atom_site_fract_z
Si Si1 0.069777 0.883165 0.088054
Si Si2 0.932234 0.446928 0.575956
Si Si3 0.390114 0.276997 0.390526
Si Si4 0.283353 0.730622 0.584500
O O1 0.000000 0.825637 0.333334
O O2 0.132678 0.000000 0.166667
O O3 0.139691 0.832579 0.043818
O O4 0.000000 0.866572 0.833334
O O5 0.898424 0.532246 0.535300
O O6 0.827742 0.340818 0.601979
O O7 0.000000 0.451876 0.333334
O O8 0.000000 0.477407 0.833334
O O9 0.320999 0.320999 0.500000
O O10 0.460880 0.270240 0.606929
O O11 0.253301 0.623575 0.456642
#
# Coordination Sequence:
#
# PCOD9576662 Si02
#       4
#     6   6   6   6
#     4  11  23  44  75 108 145 187 241 300 365 441
#     4  11  24  45  71 104 148 194 244 300 368 439
#     4  10  23  46  71 104 144 194 238 297 366 440
#     4  12  24  45  74 109 147 192 252 306 368 436
#
# _framework density 23.188465000000001
#
# number of rings (size 3 to 8) (size 9 to 14) (size 15 to 20)
#    0.000    1.000    2.500    5.250    0.000    2.000 
#    0.000   12.500    0.000    6.000    0.000    0.000 
#    0.000    0.000    0.000    0.000    0.000    0.000 
#
# Total GULP energy -134352.641631 kJ/mol
# GULP energy per Si atom -5598.026735 kJ/mol
# Density = 2.313569 g / cm^3
# Si number density = 23.188465 Si / 1000 Ang^3
#
#
#
# Elastic Constant Matrix: (Units=GPa)
#
#
# Indices 1 2 3 4 5 6 
#
# 1 117.2186 61.8167 43.6804 1.2100 0.0000 0.0000
# 2 61.8167 117.2186 43.6804 -1.2100 0.0000 0.0000
# 3 43.6804 43.6804 122.2349 0.0000 0.0000 0.0000
# 4 1.2100 -1.2100 0.0000 37.8173 0.0000 0.0000
# 5 0.0000 0.0000 0.0000 0.0000 37.8173 1.2100
# 6 0.0000 0.0000 0.0000 0.0000 1.2100 27.7009
#
#
#
# Elastic Compliance Matrix: (Units=1/GPa)
#
#
# Indices 1 2 3 4 5 6 
#
# 1 0.012420 -0.005655 -0.002418 -0.000578 0.000000 0.000000
# 2 -0.005655 0.012420 -0.002418 0.000578 0.000000 0.000000
# 3 -0.002418 -0.002418 0.009909 0.000000 0.000000 0.000000
# 4 -0.000578 0.000578 0.000000 0.026480 0.000000 0.000000
# 5 0.000000 0.000000 0.000000 0.000000 0.026480 -0.001157
# 6 0.000000 0.000000 0.000000 0.000000 -0.001157 0.036150
#
#
# Mechanical properties :
#
#
# Convention : Reuss Voigt Hill
#
# Bulk Modulus (GPa) = 72.62706 72.78081 72.70393
# Shear Modulus (GPa) = 33.46069 34.50007 33.98038
#
# Velocity S-wave (km/s) = 3.80279 3.86140 3.83221
# Velocity P-wave (km/s) = 7.11828 7.16487 7.14161
#
# Compressibility (1/GPa) = 0.01376897
#
# Stress axis : x y z
#
# Youngs Moduli (GPa) = 80.51432 80.51432 100.92085
#
# Poissons Ratio (x) = 0.45531 0.24398
# Poissons Ratio (y) = 0.45531 0.24398
# Poissons Ratio (z) = 0.19464 0.19464
#
# Static dielectric constant tensor:
#      x y z
#    x 1.879770 0.000000 0.000000 
#    y 0.000000 1.879770 0.000000 
#    z 0.000000 0.000000 1.908830 
# 
# From -- ./inp_files/186.got.cif
#   From: 2010.05.17/outbox.cif.g08.bks.cpg/sg154_1_cif.got.tgz:186.got - 2010.05.20 10:41:43.
