data_PCOD9576204
_publ_section_title
;
Structure prediction by ZEFSAII (Michael W. Deem and Ramdas Pophale) SiO2 
 PCOD9576204
Probable space group: P 31 2 1
;
_chemical_formula_sum "Si O2"
_cell_formula_units_Z 15
_cell_length_a 11.743827
_cell_length_b 11.743827
_cell_length_c 5.008336
_cell_angle_alpha 90.000000
_cell_angle_beta 90.000000
_cell_angle_gamma 120.000000
_cell_volume 598.195827
_symmetry_space_group_name_H-M "P 31 2 1"
_symmetry_group_IT_number 152
_symmetry_cell_setting 'hexagonal'
loop_
_space_group_symop_operation_xyz
x,y,z
-y,x-y,1/3+z
-x+y,-x,2/3+z
x-y,-y,2/3-z
-x,-x+y,1/3-z
y,x,-z
loop_
_atom_site_type_symbol
_atom_site_label
_atom_site_fract_x
_atom_site_fract_y
_atom_site_fract_z
Si Si1 0.868633 0.355150 0.027320
Si Si2 0.576875 0.813498 0.144805
Si Si3 0.867162 0.000000 0.333334
O O1 0.849959 0.294023 0.738508
O O2 0.873922 0.492522 0.979997
O O3 0.761658 0.252794 0.238020
O O4 0.000000 0.380024 0.166667
O O5 0.732527 0.910647 0.171257
O O6 0.907693 0.907693 0.500000
#
# Coordination Sequence:
#
# PCOD9576204 Si02
#       3
#     6   6   3
#     4  12  28  50  83 121 163 215 276 349 413 493
#     4  12  29  54  83 126 167 219 285 351 429 500
#     4  12  34  56  84 124 180 234 286 344 438 534
#
# _framework density 25.075403999999999
#
# number of rings (size 3 to 8) (size 9 to 14) (size 15 to 20)
#    0.000    0.000    0.000    7.200   22.400    0.000 
#    0.000    0.000    0.000    0.000    0.000    0.000 
#    0.000    0.000    0.000    0.000    0.000    0.000 
#
# Total GULP energy -84070.331263 kJ/mol
# GULP energy per Si atom -5604.688751 kJ/mol
# Density = 2.501833 g / cm^3
# Si number density = 25.075404 Si / 1000 Ang^3
#
#
#
# Elastic Constant Matrix: (Units=GPa)
#
#
# Indices 1 2 3 4 5 6 
#
# 1 141.8056 72.2571 52.9028 -3.8627 -0.0001 0.0000
# 2 72.2571 141.8056 52.9028 3.8627 0.0001 0.0000
# 3 52.9028 52.9028 136.4447 0.0000 0.0000 0.0000
# 4 -3.8627 3.8627 0.0000 28.1023 0.0000 0.0001
# 5 -0.0001 0.0001 0.0000 0.0000 28.1023 -3.8627
# 6 0.0000 0.0000 0.0000 0.0001 -3.8627 34.7743
#
#
#
# Elastic Compliance Matrix: (Units=1/GPa)
#
#
# Indices 1 2 3 4 5 6 
#
# 1 0.010190 -0.004411 -0.002241 0.002007 0.000000 0.000000
# 2 -0.004411 0.010190 -0.002241 -0.002007 0.000000 0.000000
# 3 -0.002241 -0.002241 0.009066 0.000000 0.000000 0.000000
# 4 0.002007 -0.002007 0.000000 0.036136 0.000000 0.000000
# 5 0.000000 0.000000 0.000000 0.000000 0.036136 0.004014
# 6 0.000000 0.000000 0.000000 0.000000 0.004014 0.029203
#
#
# Mechanical properties :
#
#
# Convention : Reuss Voigt Hill
#
# Bulk Modulus (GPa) = 85.74937 86.24237 85.99587
# Shear Modulus (GPa) = 32.76670 34.32866 33.54768
#
# Velocity S-wave (km/s) = 3.61879 3.70404 3.66166
# Velocity P-wave (km/s) = 7.19247 7.26368 7.22817
#
# Compressibility (1/GPa) = 0.01166189
#
# Stress axis : x y z
#
# Youngs Moduli (GPa) = 98.13346 98.13346 110.29626
#
# Poissons Ratio (x) = 0.43288 0.24714
# Poissons Ratio (y) = 0.43288 0.24714
# Poissons Ratio (z) = 0.21988 0.21988
#
# Static dielectric constant tensor:
#      x y z
#    x 2.082610 0.000000 0.000000 
#    y 0.000000 2.082610 0.000000 
#    z 0.000000 0.000000 1.972080 
# 
# From -- ./inp_files/76.got.cif
#   From: 2010.05.17/outbox.cif.g08.bks.cpg/sg152_1_cif.got.tgz:76.got - 2010.05.20 10:36:06.
