data_PCOD9576729
_publ_section_title
;
Structure prediction by ZEFSAII (Michael W. Deem and Ramdas Pophale) SiO2 
 PCOD9576729
Probable space group: P 32 2 1
;
_chemical_formula_sum "Si O2"
_cell_formula_units_Z 15
_cell_length_a 9.321288
_cell_length_b 9.321288
_cell_length_c 7.097476
_cell_angle_alpha 90.000000
_cell_angle_beta 90.000000
_cell_angle_gamma 120.000000
_cell_volume 534.055531
_symmetry_space_group_name_H-M "P 32 2 1"
_symmetry_group_IT_number 154
_symmetry_cell_setting 'hexagonal'
loop_
_space_group_symop_operation_xyz
x,y,z
-y,x-y,2/3+z
-x+y,-x,1/3+z
x-y,-y,1/3-z
-x,-x+y,2/3-z
y,x,-z
loop_
_atom_site_type_symbol
_atom_site_label
_atom_site_fract_x
_atom_site_fract_y
_atom_site_fract_z
Si Si1 0.437335 0.246742 0.012206
Si Si2 0.876526 0.000000 0.166667
Si Si3 0.687036 0.557244 0.762975
O O1 0.309618 0.161711 0.531957
O O2 0.330750 0.932569 0.394785
O O3 0.285416 0.285416 0.000000
O O4 0.572674 0.397398 0.885894
O O5 0.000000 0.022232 0.333334
O O6 0.752639 0.525720 0.564799
#
# Coordination Sequence:
#
# PCOD9576729 Si02
#       3
#     6   3   6
#     4  11  26  52  85 128 174 223 285 355 430 511
#     4  12  24  48  86 128 172 228 286 348 428 514
#     4  11  26  49  85 125 172 226 283 351 426 509
#
# _framework density 28.086966
#
# number of rings (size 3 to 8) (size 9 to 14) (size 15 to 20)
#    0.000    0.800    0.000    7.200    0.000    6.400 
#    0.000   20.000    0.000    9.600    0.000    0.000 
#    0.000    0.000    0.000    0.000    0.000    0.000 
#
# Total GULP energy -84103.890476 kJ/mol
# GULP energy per Si atom -5606.926032 kJ/mol
# Density = 2.802304 g / cm^3
# Si number density = 28.086966 Si / 1000 Ang^3
#
#
#
# Elastic Constant Matrix: (Units=GPa)
#
#
# Indices 1 2 3 4 5 6 
#
# 1 263.2798 98.1421 92.5296 7.4480 0.0000 0.0000
# 2 98.1421 263.2798 92.5296 -7.4480 0.0000 0.0000
# 3 92.5296 92.5296 211.0782 0.0000 0.0000 0.0000
# 4 7.4480 -7.4480 0.0000 59.1157 0.0000 0.0000
# 5 0.0000 0.0000 0.0000 0.0000 59.1157 7.4480
# 6 0.0000 0.0000 0.0000 0.0000 7.4480 82.5689
#
#
#
# Elastic Compliance Matrix: (Units=1/GPa)
#
#
# Indices 1 2 3 4 5 6 
#
# 1 0.004846 -0.001279 -0.001564 -0.000772 0.000000 0.000000
# 2 -0.001279 0.004846 -0.001564 0.000772 0.000000 0.000000
# 3 -0.001564 -0.001564 0.006109 0.000000 0.000000 0.000000
# 4 -0.000772 0.000772 0.000000 0.017110 0.000000 0.000000
# 5 0.000000 0.000000 0.000000 0.000000 0.017110 -0.001543
# 6 0.000000 0.000000 0.000000 0.000000 -0.001543 0.012250
#
#
# Mechanical properties :
#
#
# Convention : Reuss Voigt Hill
#
# Bulk Modulus (GPa) = 143.09689 144.89336 143.99513
# Shear Modulus (GPa) = 68.10561 70.45583 69.28072
#
# Velocity S-wave (km/s) = 4.92958 5.01391 4.97193
# Velocity P-wave (km/s) = 9.13561 9.23139 9.18362
#
# Compressibility (1/GPa) = 0.00698827
#
# Stress axis : x y z
#
# Youngs Moduli (GPa) = 206.33891 206.33891 163.70025
#
# Poissons Ratio (x) = 0.26386 0.25602
# Poissons Ratio (y) = 0.26386 0.25602
# Poissons Ratio (z) = 0.32270 0.32270
#
# Static dielectric constant tensor:
#      x y z
#    x 2.139820 0.000000 0.000000 
#    y 0.000000 2.139820 0.000000 
#    z 0.000000 0.000000 2.208800 
# 
# From -- ./inp_files/80.got.cif
#   From: 2010.05.17/outbox.cif.g08.bks.cpg/sg154_1_cif.got.tgz:80.got - 2010.05.20 10:41:43.
