data_PCOD9576997
_publ_section_title
;
Structure prediction by ZEFSAII (Michael W. Deem and Ramdas Pophale) SiO2 
 PCOD9576997
Probable space group: R 3 2
;
_chemical_formula_sum "Si O2"
_cell_formula_units_Z 54
_cell_length_a 11.468829
_cell_length_b 11.468829
_cell_length_c 25.208236
_cell_angle_alpha 90.000000
_cell_angle_beta 90.000000
_cell_angle_gamma 120.000000
_cell_volume 2871.516014
_symmetry_space_group_name_H-M "R 3 2"
_symmetry_group_IT_number 155
_symmetry_cell_setting 'hexagonal'
loop_
_space_group_symop_operation_xyz
x,y,z
-y,x-y,z
-x+y,-x,z
x-y,-y,-z
-x,-x+y,-z
y,x,-z
2/3+x,1/3+y,1/3+z
2/3-y,1/3+x-y,1/3+z
2/3-x+y,1/3-x,1/3+z
2/3+x-y,1/3-y,1/3-z
2/3-x,1/3-x+y,1/3-z
2/3+y,1/3+x,1/3-z
1/3+x,2/3+y,2/3+z
1/3-y,2/3+x-y,2/3+z
1/3-x+y,2/3-x,2/3+z
1/3+x-y,2/3-y,2/3-z
1/3-x,2/3-x+y,2/3-z
1/3+y,2/3+x,2/3-z
loop_
_atom_site_type_symbol
_atom_site_label
_atom_site_fract_x
_atom_site_fract_y
_atom_site_fract_z
Si Si1 0.859943 0.764885 0.447666
Si Si2 0.862165 0.701528 0.605929
Si Si3 0.273591 0.495141 0.487950
O O1 0.839462 0.839462 0.500000
O O2 0.746100 0.752506 0.407586
O O3 0.839477 0.625190 0.470339
O O4 0.999965 0.829617 0.415917
O O5 0.864447 0.666667 0.666667
O O6 0.825821 0.574180 0.568985
O O7 0.425888 0.615823 0.493583
#
# Coordination Sequence:
#
# PCOD9576997 Si02
#       3
#    18  18  18
#     4  10  21  40  61  89 120 166 203 248 305 372
#     4  11  24  37  64  92 122 156 201 269 302 352
#     4   9  21  39  62  87 118 161 201 239 295 385
#
# _framework density 18.805398
#
# number of rings (size 3 to 8) (size 9 to 14) (size 15 to 20)
#    0.667    1.333    0.000    4.667    4.667   10.667 
#    0.000    0.000    0.000    2.000    0.000    0.000 
#    0.000    0.000    0.000    0.000    0.000    0.000 
#
# Total GULP energy -100218.994425 kJ/mol
# GULP energy per Si atom -5567.721913 kJ/mol
# Density = 1.876260 g / cm^3
# Si number density = 18.805398 Si / 1000 Ang^3
#
#
#
# Elastic Constant Matrix: (Units=GPa)
#
#
# Indices 1 2 3 4 5 6 
#
# 1 66.8813 -1.4101 41.6164 -9.4514 -0.0004 0.0000
# 2 -1.4101 66.8813 41.6164 9.4514 0.0004 0.0000
# 3 41.6164 41.6164 114.6030 0.0000 0.0000 0.0000
# 4 -9.4514 9.4514 0.0000 14.4088 0.0000 0.0004
# 5 -0.0004 0.0004 0.0000 0.0000 14.4088 -9.4514
# 6 0.0000 0.0000 0.0000 0.0004 -9.4514 34.1457
#
#
#
# Elastic Compliance Matrix: (Units=1/GPa)
#
#
# Indices 1 2 3 4 5 6 
#
# 1 0.023132 0.005240 -0.010303 0.011736 0.000001 0.000000
# 2 0.005240 0.023132 -0.010303 -0.011736 -0.000001 0.000000
# 3 -0.010303 -0.010303 0.016208 0.000000 0.000000 0.000000
# 4 0.011736 -0.011736 0.000000 0.084798 0.000000 -0.000001
# 5 0.000001 -0.000001 0.000000 0.000000 0.084798 0.023472
# 6 0.000000 0.000000 0.000000 -0.000001 0.023472 0.035783
#
#
# Mechanical properties :
#
#
# Convention : Reuss Voigt Hill
#
# Bulk Modulus (GPa) = 31.50537 45.77900 38.64218
# Shear Modulus (GPa) = 16.17276 23.69554 19.93415
#
# Velocity S-wave (km/s) = 2.93577 3.55355 3.25933
# Velocity P-wave (km/s) = 5.31802 6.42132 5.89554
#
# Compressibility (1/GPa) = 0.03174062
#
# Stress axis : x y z
#
# Youngs Moduli (GPa) = 43.23094 43.23094 61.69665
#
# Poissons Ratio (x) = -0.22653 0.63564
# Poissons Ratio (y) = -0.22653 0.63564
# Poissons Ratio (z) = 0.44540 0.44540
#
# Static dielectric constant tensor:
#      x y z
#    x 1.684550 0.000000 0.000000 
#    y 0.000000 1.684550 0.000000 
#    z 0.000000 0.000000 1.632980 
# 
# From -- ./inp_files/6617.got.cif
#   From: 2010.05.17/outbox.cif.g08.bks.cpg/sg155_4_cif.got.tgz:6617.got - 2010.05.20 10:44:35.
