data_PCOD9576144
_publ_section_title
;
Structure prediction by ZEFSAII (Michael W. Deem and Ramdas Pophale) SiO2 
 PCOD9576144
Probable space group: P 31 2 1
;
_chemical_formula_sum "Si O2"
_cell_formula_units_Z 42
_cell_length_a 11.735223
_cell_length_b 11.735223
_cell_length_c 17.949469
_cell_angle_alpha 90.000000
_cell_angle_beta 90.000000
_cell_angle_gamma 120.000000
_cell_volume 2140.744962
_symmetry_space_group_name_H-M "P 31 2 1"
_symmetry_group_IT_number 152
_symmetry_cell_setting 'hexagonal'
loop_
_space_group_symop_operation_xyz
x,y,z
-y,x-y,1/3+z
-x+y,-x,2/3+z
x-y,-y,2/3-z
-x,-x+y,1/3-z
y,x,-z
loop_
_atom_site_type_symbol
_atom_site_label
_atom_site_fract_x
_atom_site_fract_y
_atom_site_fract_z
Si Si1 0.352389 0.045227 0.459365
Si Si2 0.651571 0.941468 0.954074
Si Si3 0.602174 0.034692 0.252471
Si Si4 0.095632 0.477921 0.231166
Si Si5 0.171931 0.408179 0.384052
Si Si6 0.752416 0.134787 0.541534
Si Si7 0.359725 0.680385 0.453650
O O1 0.347476 0.165375 0.418356
O O2 0.386555 0.078450 0.546126
O O3 0.466301 0.021974 0.424294
O O4 0.213441 0.910623 0.456788
O O5 0.532088 0.955751 0.921525
O O6 0.780778 0.082371 0.943083
O O7 0.626592 0.917317 0.041846
O O8 0.667127 0.190928 0.249988
O O9 0.630313 0.000000 0.333334
O O10 0.651048 0.976559 0.186588
O O11 0.112662 0.409452 0.304009
O O12 0.234938 0.576868 0.193550
O O13 0.000000 0.383100 0.166667
O O14 0.295792 0.553851 0.400216
O O15 0.712311 0.245656 0.526502
#
# Coordination Sequence:
#
# PCOD9576144 Si02
#       7
#     6   6   6   6   6   6   6
#     4  11  22  41  66  96 124 176 227 277 334 399
#     4  12  21  42  66  95 127 171 226 280 334 398
#     4  11  23  39  60  93 136 175 207 272 343 412
#     4  12  23  38  62  96 140 168 210 270 345 405
#     4  12  24  39  66  99 131 166 224 281 335 405
#     4  11  23  40  63  94 132 167 221 277 332 406
#     4  11  22  37  61  97 128 166 214 272 334 395
#
# _framework density 19.619337000000002
#
# number of rings (size 3 to 8) (size 9 to 14) (size 15 to 20)
#    0.000    0.571    5.714    3.429    2.000    2.286 
#    0.000    0.000    0.000   13.714    0.000    0.000 
#    0.000    0.000    0.000    0.000    0.000    0.000 
#
# Total GULP energy -234699.253552 kJ/mol
# GULP energy per Si atom -5588.077466 kJ/mol
# Density = 1.957468 g / cm^3
# Si number density = 19.619337 Si / 1000 Ang^3
#
#
#
# Elastic Constant Matrix: (Units=GPa)
#
#
# Indices 1 2 3 4 5 6 
#
# 1 46.9284 1.1957 12.0552 -4.6577 0.0002 0.0000
# 2 1.1957 46.9284 12.0552 4.6577 -0.0002 0.0000
# 3 12.0552 12.0552 140.1570 0.0000 0.0000 0.0000
# 4 -4.6577 4.6577 0.0000 9.8025 0.0000 -0.0002
# 5 0.0002 -0.0002 0.0000 0.0000 9.8025 -4.6577
# 6 0.0000 0.0000 0.0000 -0.0002 -4.6577 22.8664
#
#
#
# Elastic Compliance Matrix: (Units=1/GPa)
#
#
# Indices 1 2 3 4 5 6 
#
# 1 0.022962 -0.001247 -0.001868 0.011503 0.000000 0.000000
# 2 -0.001247 0.022962 -0.001868 -0.011503 0.000000 0.000000
# 3 -0.001868 -0.001868 0.007456 0.000000 0.000000 0.000000
# 4 0.011503 -0.011503 0.000000 0.112946 0.000000 0.000001
# 5 0.000000 0.000000 0.000000 0.000000 0.112946 0.023006
# 6 0.000000 0.000000 0.000000 0.000001 0.023006 0.048419
#
#
# Mechanical properties :
#
#
# Convention : Reuss Voigt Hill
#
# Bulk Modulus (GPa) = 23.03312 31.62512 27.32912
# Shear Modulus (GPa) = 14.19938 22.40814 18.30376
#
# Velocity S-wave (km/s) = 2.69317 3.38323 3.05773
# Velocity P-wave (km/s) = 4.62994 5.60500 5.14064
#
# Compressibility (1/GPa) = 0.04341574
#
# Stress axis : x y z
#
# Youngs Moduli (GPa) = 43.54961 43.54961 134.11731
#
# Poissons Ratio (x) = 0.05430 0.25050
# Poissons Ratio (y) = 0.05430 0.25050
# Poissons Ratio (z) = 0.08134 0.08134
#
# Static dielectric constant tensor:
#      x y z
#    x 1.708050 0.000000 0.000000 
#    y 0.000000 1.708050 0.000000 
#    z 0.000000 0.000000 1.695900 
# 
# From -- ./inp_files/2468.got.cif
#   From: 2010.05.17/outbox.cif.g08.bks.cpg/sg152_2_cif.got.tgz:2468.got - 2010.05.20 10:36:06.
