data_PCOD9576470
_publ_section_title
;
Structure prediction by ZEFSAII (Michael W. Deem and Ramdas Pophale) SiO2 
 PCOD9576470
Probable space group: P 32 2 1
;
_chemical_formula_sum "Si O2"
_cell_formula_units_Z 45
_cell_length_a 12.194518
_cell_length_b 12.194518
_cell_length_c 17.825007
_cell_angle_alpha 90.000000
_cell_angle_beta 90.000000
_cell_angle_gamma 120.000000
_cell_volume 2295.565129
_symmetry_space_group_name_H-M "P 32 2 1"
_symmetry_group_IT_number 154
_symmetry_cell_setting 'hexagonal'
loop_
_space_group_symop_operation_xyz
x,y,z
-y,x-y,2/3+z
-x+y,-x,1/3+z
x-y,-y,1/3-z
-x,-x+y,2/3-z
y,x,-z
loop_
_atom_site_type_symbol
_atom_site_label
_atom_site_fract_x
_atom_site_fract_y
_atom_site_fract_z
Si Si1 0.450432 0.568460 0.770742
Si Si2 0.472067 0.701850 0.929987
Si Si3 0.000000 0.734706 0.333334
Si Si4 0.820357 0.462840 0.269171
Si Si5 0.982461 0.863841 0.202414
Si Si6 0.850200 0.095457 0.096170
Si Si7 0.346139 0.844882 0.886371
Si Si8 0.706167 0.985288 0.938082
O O1 0.472603 0.625585 0.855861
O O2 0.433012 0.675857 0.730526
O O3 0.572602 0.558577 0.746419
O O4 0.340141 0.424149 0.754648
O O5 0.357594 0.732666 0.925309
O O6 0.588475 0.842317 0.945372
O O7 0.453654 0.613416 0.998924
O O8 0.905141 0.610386 0.287208
O O9 0.056321 0.840566 0.269266
O O10 0.852134 0.417524 0.191901
O O11 0.852443 0.850376 0.235622
O O12 0.966190 0.775832 0.132499
O O13 0.058759 0.000000 0.166667
O O14 0.818477 0.205168 0.115461
O O15 0.798751 0.000000 0.166667
O O16 0.786469 0.032590 0.015697
#
# Coordination Sequence:
#
# PCOD9576470 Si02
#       8
#     6   6   3   6   6   6   6   6
#     4  10  21  37  58  84 114 152 194 248 305 361
#     4  10  20  35  57  85 113 147 196 245 296 362
#     4  12  22  38  62  90 120 156 204 260 316 374
#     4  11  21  35  59  86 115 149 195 249 302 365
#     4  11  24  40  60  86 120 160 206 255 311 377
#     4  11  23  39  60  86 122 164 206 257 315 378
#     4  10  20  36  55  81 114 151 193 241 304 364
#     4  11  22  40  62  87 122 162 206 256 316 377
#
# _framework density 19.603016
#
# number of rings (size 3 to 8) (size 9 to 14) (size 15 to 20)
#    0.000    1.333    0.000    8.000    0.000    1.600 
#    0.000    4.000    0.000    8.000    0.000    0.000 
#    0.000    0.000    0.000    0.000    0.000    0.000 
#
# Total GULP energy -250811.779896 kJ/mol
# GULP energy per Si atom -5573.595109 kJ/mol
# Density = 1.955840 g / cm^3
# Si number density = 19.603016 Si / 1000 Ang^3
#
#
#
# Elastic Constant Matrix: (Units=GPa)
#
#
# Indices 1 2 3 4 5 6 
#
# 1 74.4770 45.1300 36.8131 21.2344 -0.0034 0.0000
# 2 45.1300 74.4770 36.8131 -21.2344 0.0034 0.0000
# 3 36.8131 36.8131 117.1637 0.0000 0.0000 0.0000
# 4 21.2344 -21.2344 0.0000 -77.1866 0.0000 0.0034
# 5 -0.0034 0.0034 0.0000 0.0000 -77.1866 21.2344
# 6 0.0000 0.0000 0.0000 0.0034 21.2344 14.6735
#
#
#
# Elastic Compliance Matrix: (Units=1/GPa)
#
#
# Indices 1 2 3 4 5 6 
#
# 1 0.017369 -0.007003 -0.003257 0.006705 -0.000001 0.000000
# 2 -0.007003 0.017369 -0.003257 -0.006705 0.000001 0.000000
# 3 -0.003257 -0.003257 0.010582 0.000000 0.000000 0.000000
# 4 0.006705 -0.006705 0.000000 -0.009267 0.000000 0.000002
# 5 -0.000001 0.000001 0.000000 0.000000 -0.009267 0.013410
# 6 0.000000 0.000000 0.000000 0.000002 0.013410 0.048744
#
#
# Mechanical properties :
#
#
# Convention : Reuss Voigt Hill
#
# Bulk Modulus (GPa) = 54.68883 55.95893 55.32388
# Shear Modulus (GPa) = 46.01510 -18.11583 13.94963
#
# Velocity S-wave (km/s) = 4.85020 -3.04326 2.67049
# Velocity P-wave (km/s) = 7.70225 4.03231 6.14753
#
# Compressibility (1/GPa) = 0.01828527
#
# Stress axis : x y z
#
# Youngs Moduli (GPa) = 57.57432 57.57432 94.50270
#
# Poissons Ratio (x) = 0.40321 0.30778
# Poissons Ratio (y) = 0.40321 0.30778
# Poissons Ratio (z) = 0.18751 0.18751
#
# Static dielectric constant tensor:
#      x y z
#    x 2.838660 0.000000 0.000000 
#    y 0.000000 2.838660 0.000000 
#    z 0.000000 0.000000 1.646000 
# 
# From -- ./inp_files/2489.got.cif
#   From: 2010.05.17/outbox.cif.g08.bks.cpg/sg154_2_cif.got.tgz:2489.got - 2010.05.20 10:41:43.
