data_PCOD9576765
_publ_section_title
;
Structure prediction by ZEFSAII (Michael W. Deem and Ramdas Pophale) SiO2 
 PCOD9576765
Probable space group: R 3 2
;
_chemical_formula_sum "Si O2"
_cell_formula_units_Z 144
_cell_length_a 23.603279
_cell_length_b 23.603279
_cell_length_c 16.565887
_cell_angle_alpha 90.000000
_cell_angle_beta 90.000000
_cell_angle_gamma 120.000000
_cell_volume 7992.635473
_symmetry_space_group_name_H-M "R 3 2"
_symmetry_group_IT_number 155
_symmetry_cell_setting 'hexagonal'
loop_
_space_group_symop_operation_xyz
x,y,z
-y,x-y,z
-x+y,-x,z
x-y,-y,-z
-x,-x+y,-z
y,x,-z
2/3+x,1/3+y,1/3+z
2/3-y,1/3+x-y,1/3+z
2/3-x+y,1/3-x,1/3+z
2/3+x-y,1/3-y,1/3-z
2/3-x,1/3-x+y,1/3-z
2/3+y,1/3+x,1/3-z
1/3+x,2/3+y,2/3+z
1/3-y,2/3+x-y,2/3+z
1/3-x+y,2/3-x,2/3+z
1/3+x-y,2/3-y,2/3-z
1/3-x,2/3-x+y,2/3-z
1/3+y,2/3+x,2/3-z
loop_
_atom_site_type_symbol
_atom_site_label
_atom_site_fract_x
_atom_site_fract_y
_atom_site_fract_z
Si Si1 0.096128 0.283204 0.106523
Si Si2 0.726867 0.071443 0.958946
Si Si3 0.544848 0.620117 0.497887
Si Si4 0.813955 0.715921 0.590079
Si Si5 0.920950 0.304226 0.990120
Si Si6 0.607657 0.079154 0.993800
Si Si7 0.618038 0.093948 0.181727
Si Si8 0.904348 0.722257 0.103084
O O1 0.128420 0.334583 0.180863
O O2 0.101275 0.332027 0.036041
O O3 0.129417 0.238395 0.108880
O O4 0.019778 0.234938 0.121851
O O5 0.750899 0.063795 0.871233
O O6 0.679664 0.101538 0.959840
O O7 0.789852 0.104741 0.018221
O O8 0.686825 0.000000 0.000000
O O9 0.602384 0.602384 0.500000
O O10 0.546109 0.634044 0.402504
O O11 0.482199 0.557824 0.536501
O O12 0.786623 0.666667 0.666667
O O13 0.772093 0.752675 0.593924
O O14 0.891415 0.758713 0.607399
O O15 0.000000 0.338535 0.000000
O O16 0.616057 0.103384 0.086377
O O17 0.570202 0.000000 0.000000
O O18 0.689367 0.139414 0.219817
O O19 0.895618 0.666667 0.166667
#
# Coordination Sequence:
#
# PCOD9576765 Si02
#       8
#    18  18  18  18  18  18  18  18
#     4  12  21  32  53  79 104 143 181 223 275 335
#     4   9  20  32  50  71 102 139 179 220 262 316
#     4  11  21  35  53  73 107 143 172 222 284 322
#     4  10  17  32  48  73 105 136 171 215 257 322
#     4  11  20  32  51  77 108 135 180 218 268 331
#     4  10  17  31  48  70 102 142 171 209 265 319
#     4  11  21  32  51  75 103 135 186 220 271 330
#     4  10  21  36  51  71 105 142 179 227 273 322
#
# _framework density 18.016584999999999
#
# number of rings (size 3 to 8) (size 9 to 14) (size 15 to 20)
#    0.000    1.500    7.500    0.375    3.500    0.000 
#    0.000    0.000    0.000    0.500    0.000    0.000 
#    0.000    1.250    0.000    0.000    0.000   12.375 
#
# Total GULP energy -267326.582167 kJ/mol
# GULP energy per Si atom -5569.303795 kJ/mol
# Density = 1.797558 g / cm^3
# Si number density = 18.016585 Si / 1000 Ang^3
#
#
#
# Elastic Constant Matrix: (Units=GPa)
#
#
# Indices 1 2 3 4 5 6 
#
# 1 98.1770 51.6345 10.6593 -1.6592 0.0000 0.0000
# 2 51.6345 98.1770 10.6593 1.6592 0.0000 0.0000
# 3 10.6593 10.6593 30.3590 0.0000 0.0000 0.0000
# 4 -1.6592 1.6592 0.0000 16.9609 0.0000 0.0000
# 5 0.0000 0.0000 0.0000 0.0000 16.9609 -1.6592
# 6 0.0000 0.0000 0.0000 0.0000 -1.6592 23.2712
#
#
#
# Elastic Compliance Matrix: (Units=1/GPa)
#
#
# Indices 1 2 3 4 5 6 
#
# 1 0.014331 -0.007305 -0.002467 0.002117 0.000000 0.000000
# 2 -0.007305 0.014331 -0.002467 -0.002117 0.000000 0.000000
# 3 -0.002467 -0.002467 0.034671 0.000000 0.000000 0.000000
# 4 0.002117 -0.002117 0.000000 0.059373 0.000000 0.000000
# 5 0.000000 0.000000 0.000000 0.000000 0.059373 0.004233
# 6 0.000000 0.000000 0.000000 0.000000 0.004233 0.043273
#
#
# Mechanical properties :
#
#
# Convention : Reuss Voigt Hill
#
# Bulk Modulus (GPa) = 25.73608 41.40216 33.56912
# Shear Modulus (GPa) = 19.02699 21.68925 20.35812
#
# Velocity S-wave (km/s) = 3.25327 3.47342 3.36514
# Velocity P-wave (km/s) = 5.33173 6.25428 5.81134
#
# Compressibility (1/GPa) = 0.03885595
#
# Stress axis : x y z
#
# Youngs Moduli (GPa) = 69.77688 69.77688 28.84216
#
# Poissons Ratio (x) = 0.50974 0.07115
# Poissons Ratio (y) = 0.50974 0.07115
# Poissons Ratio (z) = 0.17213 0.17213
#
# Static dielectric constant tensor:
#      x y z
#    x 1.660600 0.000000 0.000000 
#    y 0.000000 1.660600 0.000000 
#    z 0.000000 0.000000 1.758890 
# 
# From -- ./inp_files/6390.got.cif
#   From: 2010.05.17/outbox.cif.g08.bks.cpg/sg155_4_cif.got.tgz:6390.got - 2010.05.20 10:44:35.
