data_PCOD9576874
_publ_section_title
;
Structure prediction by ZEFSAII (Michael W. Deem and Ramdas Pophale) SiO2 
 PCOD9576874
Probable space group: R 3 2
;
_chemical_formula_sum "Si O2"
_cell_formula_units_Z 36
_cell_length_a 6.963728
_cell_length_b 6.963728
_cell_length_c 33.018550
_cell_angle_alpha 90.000000
_cell_angle_beta 90.000000
_cell_angle_gamma 120.000000
_cell_volume 1386.667152
_symmetry_space_group_name_H-M "R 3 2"
_symmetry_group_IT_number 155
_symmetry_cell_setting 'hexagonal'
loop_
_space_group_symop_operation_xyz
x,y,z
-y,x-y,z
-x+y,-x,z
x-y,-y,-z
-x,-x+y,-z
y,x,-z
2/3+x,1/3+y,1/3+z
2/3-y,1/3+x-y,1/3+z
2/3-x+y,1/3-x,1/3+z
2/3+x-y,1/3-y,1/3-z
2/3-x,1/3-x+y,1/3-z
2/3+y,1/3+x,1/3-z
1/3+x,2/3+y,2/3+z
1/3-y,2/3+x-y,2/3+z
1/3-x+y,2/3-x,2/3+z
1/3+x-y,2/3-y,2/3-z
1/3-x,2/3-x+y,2/3-z
1/3+y,2/3+x,2/3-z
loop_
_atom_site_type_symbol
_atom_site_label
_atom_site_fract_x
_atom_site_fract_y
_atom_site_fract_z
Si Si1 0.240249 0.265980 0.543783
Si Si2 0.456653 0.401550 0.626630
O O1 0.352205 0.352205 0.500000
O O2 0.355232 0.404122 0.583521
O O3 0.213384 0.019288 0.544948
O O4 0.438587 0.158382 0.627562
O O5 0.333334 0.411302 0.666667
#
# Coordination Sequence:
#
# PCOD9576874 Si02
#       2
#    18  18
#     4   8  16  34  57  76 103 145 174 210 269 322
#     4  10  20  32  54  80 105 141 180 218 263 318
#
# _framework density 25.96153
#
# number of rings (size 3 to 8) (size 9 to 14) (size 15 to 20)
#    2.000    1.000    0.000    3.000    0.000    0.000 
#    9.000    0.000    0.000   18.000    0.000    0.000 
#    0.000    0.000    0.000    0.000    0.000    0.000 
#
# Total GULP energy -66919.320672 kJ/mol
# GULP energy per Si atom -5576.610056 kJ/mol
# Density = 2.590244 g / cm^3
# Si number density = 25.961530 Si / 1000 Ang^3
#
#
#
# Elastic Constant Matrix: (Units=GPa)
#
#
# Indices 1 2 3 4 5 6 
#
# 1 76.0626 12.1668 45.4381 8.5479 0.0002 0.0000
# 2 12.1668 76.0626 45.4381 -8.5479 -0.0002 0.0000
# 3 45.4381 45.4381 286.0479 0.0000 0.0000 0.0000
# 4 8.5479 -8.5479 0.0000 25.3229 0.0000 -0.0002
# 5 0.0002 -0.0002 0.0000 0.0000 25.3229 8.5479
# 6 0.0000 0.0000 0.0000 -0.0002 8.5479 31.9479
#
#
#
# Elastic Compliance Matrix: (Units=1/GPa)
#
#
# Indices 1 2 3 4 5 6 
#
# 1 0.015378 -0.001827 -0.002153 -0.005807 0.000000 0.000000
# 2 -0.001827 0.015378 -0.002153 0.005807 0.000000 0.000000
# 3 -0.002153 -0.002153 0.004180 0.000000 0.000000 0.000000
# 4 -0.005807 0.005807 0.000000 0.043411 0.000000 0.000000
# 5 0.000000 0.000000 0.000000 0.000000 0.043411 -0.011615
# 6 0.000000 0.000000 0.000000 0.000000 -0.011615 0.034409
#
#
# Mechanical properties :
#
#
# Convention : Reuss Voigt Hill
#
# Bulk Modulus (GPa) = 44.10737 71.58435 57.84586
# Shear Modulus (GPa) = 28.41140 38.86076 33.63608
#
# Velocity S-wave (km/s) = 3.31171 3.87312 3.60337
# Velocity P-wave (km/s) = 5.62580 6.90178 6.29620
#
# Compressibility (1/GPa) = 0.02267195
#
# Stress axis : x y z
#
# Youngs Moduli (GPa) = 65.02891 65.02891 239.24662
#
# Poissons Ratio (x) = 0.11878 0.51500
# Poissons Ratio (y) = 0.11878 0.51500
# Poissons Ratio (z) = 0.13998 0.13998
#
# Static dielectric constant tensor:
#      x y z
#    x 2.057840 0.000000 0.000000 
#    y 0.000000 2.057840 0.000000 
#    z 0.000000 0.000000 1.990050 
# 
# From -- ./inp_files/7141.got.cif
#   From: 2010.05.17/outbox.cif.g08.bks.cpg/sg155_4_cif.got.tgz:7141.got - 2010.05.20 10:44:35.
