data_PCOD9576706
_publ_section_title
;
Structure prediction by ZEFSAII (Michael W. Deem and Ramdas Pophale) SiO2 
 PCOD9576706
Probable space group: P 32 2 1
;
_chemical_formula_sum "Si O2"
_cell_formula_units_Z 21
_cell_length_a 9.628930
_cell_length_b 9.628930
_cell_length_c 14.655136
_cell_angle_alpha 90.000000
_cell_angle_beta 90.000000
_cell_angle_gamma 120.000000
_cell_volume 1176.729236
_symmetry_space_group_name_H-M "P 32 2 1"
_symmetry_group_IT_number 154
_symmetry_cell_setting 'hexagonal'
loop_
_space_group_symop_operation_xyz
x,y,z
-y,x-y,2/3+z
-x+y,-x,1/3+z
x-y,-y,1/3-z
-x,-x+y,2/3-z
y,x,-z
loop_
_atom_site_type_symbol
_atom_site_label
_atom_site_fract_x
_atom_site_fract_y
_atom_site_fract_z
Si Si1 0.294564 0.337355 0.106803
Si Si2 0.000000 0.151594 0.833334
Si Si3 0.173136 0.584021 0.095216
Si Si4 0.396475 0.941844 0.069099
O O1 0.241447 0.468496 0.122580
O O2 0.459179 0.377866 0.158503
O O3 0.158120 0.164740 0.145388
O O4 0.320820 0.320820 0.000000
O O5 0.027599 0.273657 0.749642
O O6 0.319909 0.752622 0.061027
O O7 0.046534 0.501946 0.013599
O O8 0.485860 0.000000 0.166667
#
# Coordination Sequence:
#
# PCOD9576706 Si02
#       4
#     6   3   6   6
#     4  11  22  40  60  88 122 157 202 256 297 375
#     4   8  18  40  58  78 120 164 186 240 318 348
#     4  11  22  37  66  87 120 161 206 248 311 356
#     4   9  20  38  56  87 119 162 194 247 302 367
#
# _framework density 17.846076
#
# number of rings (size 3 to 8) (size 9 to 14) (size 15 to 20)
#    0.857    1.143    2.857    0.000    8.000    0.000 
#    0.000    4.286    0.000    0.000    0.000    0.000 
#    0.000    0.000    0.000    0.000    0.000    0.000 
#
# Total GULP energy -116992.255047 kJ/mol
# GULP energy per Si atom -5571.059764 kJ/mol
# Density = 1.780546 g / cm^3
# Si number density = 17.846076 Si / 1000 Ang^3
#
#
#
# Elastic Constant Matrix: (Units=GPa)
#
#
# Indices 1 2 3 4 5 6 
#
# 1 94.5766 39.8431 15.2365 -4.1406 -0.0001 0.0000
# 2 39.8431 94.5766 15.2365 4.1406 0.0001 0.0000
# 3 15.2365 15.2365 81.0942 0.0000 0.0000 0.0000
# 4 -4.1406 4.1406 0.0000 10.5850 0.0000 0.0001
# 5 -0.0001 0.0001 0.0000 0.0000 10.5850 -4.1406
# 6 0.0000 0.0000 0.0000 0.0001 -4.1406 27.3668
#
#
#
# Elastic Compliance Matrix: (Units=1/GPa)
#
#
# Indices 1 2 3 4 5 6 
#
# 1 0.013595 -0.005825 -0.001460 0.007596 0.000000 0.000000
# 2 -0.005825 0.013595 -0.001460 -0.007596 0.000000 0.000000
# 3 -0.001460 -0.001460 0.012880 0.000000 0.000000 0.000000
# 4 0.007596 -0.007596 0.000000 0.100416 0.000000 0.000000
# 5 0.000000 0.000000 0.000000 0.000000 0.100416 0.015193
# 6 0.000000 0.000000 0.000000 0.000000 0.015193 0.038839
#
#
# Mechanical properties :
#
#
# Convention : Reuss Voigt Hill
#
# Bulk Modulus (GPa) = 44.28522 45.65325 44.96924
# Shear Modulus (GPa) = 16.40649 23.03612 19.72131
#
# Velocity S-wave (km/s) = 3.03534 3.59670 3.32788
# Velocity P-wave (km/s) = 6.09536 6.54871 6.32609
#
# Compressibility (1/GPa) = 0.02258090
#
# Stress axis : x y z
#
# Youngs Moduli (GPa) = 73.55637 73.55637 77.64005
#
# Poissons Ratio (x) = 0.42844 0.11335
# Poissons Ratio (y) = 0.42844 0.11335
# Poissons Ratio (z) = 0.10739 0.10739
#
# Static dielectric constant tensor:
#      x y z
#    x 1.613530 0.000000 0.000000 
#    y 0.000000 1.613530 0.000000 
#    z 0.000000 0.000000 1.608230 
# 
# From -- ./inp_files/2296.got.cif
#   From: 2010.05.17/outbox.cif.g08.bks.cpg/sg154_2_cif.got.tgz:2296.got - 2010.05.20 10:41:43.
