data_PCOD9576971
_publ_section_title
;
Structure prediction by ZEFSAII (Michael W. Deem and Ramdas Pophale) SiO2 
 PCOD9576971
Probable space group: R 3 2
;
_chemical_formula_sum "Si O2"
_cell_formula_units_Z 54
_cell_length_a 17.127579
_cell_length_b 17.127579
_cell_length_c 9.288163
_cell_angle_alpha 90.000000
_cell_angle_beta 90.000000
_cell_angle_gamma 120.000000
_cell_volume 2359.676235
_symmetry_space_group_name_H-M "R 3 2"
_symmetry_group_IT_number 155
_symmetry_cell_setting 'hexagonal'
loop_
_space_group_symop_operation_xyz
x,y,z
-y,x-y,z
-x+y,-x,z
x-y,-y,-z
-x,-x+y,-z
y,x,-z
2/3+x,1/3+y,1/3+z
2/3-y,1/3+x-y,1/3+z
2/3-x+y,1/3-x,1/3+z
2/3+x-y,1/3-y,1/3-z
2/3-x,1/3-x+y,1/3-z
2/3+y,1/3+x,1/3-z
1/3+x,2/3+y,2/3+z
1/3-y,2/3+x-y,2/3+z
1/3-x+y,2/3-x,2/3+z
1/3+x-y,2/3-y,2/3-z
1/3-x,2/3-x+y,2/3-z
1/3+y,2/3+x,2/3-z
loop_
_atom_site_type_symbol
_atom_site_label
_atom_site_fract_x
_atom_site_fract_y
_atom_site_fract_z
Si Si1 0.582229 0.677333 0.916266
Si Si2 0.272569 0.450357 0.030416
Si Si3 0.939987 0.508760 0.148588
O O1 0.666667 0.756308 0.833334
O O2 0.503394 0.596140 0.826995
O O3 0.629420 0.629420 0.000000
O O4 0.541441 0.725550 0.012229
O O5 0.333334 0.506113 0.166667
O O6 0.236877 0.345450 0.067120
O O7 0.334364 0.477412 0.889267
O O8 0.000000 0.537973 0.000000
#
# Coordination Sequence:
#
# PCOD9576971 Si02
#       3
#    18  18  18
#     4  11  21  39  68  93 130 183 230 274 335 412
#     4  10  21  37  60  94 133 168 219 284 335 402
#     4   9  20  36  60  89 130 167 217 274 336 401
#
# _framework density 22.884497
#
# number of rings (size 3 to 8) (size 9 to 14) (size 15 to 20)
#    0.000    2.000    3.333    0.000    0.000    6.667 
#    2.000    0.000    7.333    0.000    0.000    0.000 
#    0.000    0.000    0.000    0.000    0.000    0.000 
#
# Total GULP energy -100554.613824 kJ/mol
# GULP energy per Si atom -5586.367435 kJ/mol
# Density = 2.283241 g / cm^3
# Si number density = 22.884497 Si / 1000 Ang^3
#
#
#
# Elastic Constant Matrix: (Units=GPa)
#
#
# Indices 1 2 3 4 5 6 
#
# 1 114.0798 52.1069 27.5682 -1.1928 -0.0002 0.0000
# 2 52.1069 114.0798 27.5682 1.1928 0.0002 0.0000
# 3 27.5682 27.5682 29.5906 0.0000 0.0000 0.0000
# 4 -1.1928 1.1928 0.0000 31.6007 0.0000 0.0002
# 5 -0.0002 0.0002 0.0000 0.0000 31.6007 -1.1928
# 6 0.0000 0.0000 0.0000 0.0002 -1.1928 30.9864
#
#
#
# Elastic Compliance Matrix: (Units=1/GPa)
#
#
# Indices 1 2 3 4 5 6 
#
# 1 0.012434 -0.003725 -0.008114 0.000610 0.000000 0.000000
# 2 -0.003725 0.012434 -0.008114 -0.000610 0.000000 0.000000
# 3 -0.008114 -0.008114 0.048914 0.000000 0.000000 0.000000
# 4 0.000610 -0.000610 0.000000 0.031691 0.000000 0.000000
# 5 0.000000 0.000000 0.000000 0.000000 0.031691 0.001220
# 6 0.000000 0.000000 0.000000 0.000000 0.001220 0.032319
#
#
# Mechanical properties :
#
#
# Convention : Reuss Voigt Hill
#
# Bulk Modulus (GPa) = 29.51949 52.47076 40.99513
# Shear Modulus (GPa) = 22.65698 28.87135 25.76417
#
# Velocity S-wave (km/s) = 3.14993 3.55577 3.35899
# Velocity P-wave (km/s) = 5.11437 6.31160 5.74426
#
# Compressibility (1/GPa) = 0.03387592
#
# Stress axis : x y z
#
# Youngs Moduli (GPa) = 80.42147 80.42148 20.44414
#
# Poissons Ratio (x) = 0.29958 0.16589
# Poissons Ratio (y) = 0.29958 0.16589
# Poissons Ratio (z) = 0.65255 0.65255
#
# Static dielectric constant tensor:
#      x y z
#    x 1.870600 0.000000 0.000000 
#    y 0.000000 1.870600 0.000000 
#    z 0.000000 0.000000 1.968930 
# 
# From -- ./inp_files/1660.got.cif
#   From: 2010.05.17/outbox.cif.g08.bks.cpg/sg155_1_cif.got.tgz:1660.got - 2010.05.20 10:44:35.
