data_PCOD9576875
_publ_section_title
;
Structure prediction by ZEFSAII (Michael W. Deem and Ramdas Pophale) SiO2 
 PCOD9576875
Probable space group: R 3 2
;
_chemical_formula_sum "Si O2"
_cell_formula_units_Z 108
_cell_length_a 25.049094
_cell_length_b 25.049094
_cell_length_c 11.088902
_cell_angle_alpha 90.000000
_cell_angle_beta 90.000000
_cell_angle_gamma 120.000000
_cell_volume 6025.640565
_symmetry_space_group_name_H-M "R 3 2"
_symmetry_group_IT_number 155
_symmetry_cell_setting 'hexagonal'
loop_
_space_group_symop_operation_xyz
x,y,z
-y,x-y,z
-x+y,-x,z
x-y,-y,-z
-x,-x+y,-z
y,x,-z
2/3+x,1/3+y,1/3+z
2/3-y,1/3+x-y,1/3+z
2/3-x+y,1/3-x,1/3+z
2/3+x-y,1/3-y,1/3-z
2/3-x,1/3-x+y,1/3-z
2/3+y,1/3+x,1/3-z
1/3+x,2/3+y,2/3+z
1/3-y,2/3+x-y,2/3+z
1/3-x+y,2/3-x,2/3+z
1/3+x-y,2/3-y,2/3-z
1/3-x,2/3-x+y,2/3-z
1/3+y,2/3+x,2/3-z
loop_
_atom_site_type_symbol
_atom_site_label
_atom_site_fract_x
_atom_site_fract_y
_atom_site_fract_z
Si Si1 0.348890 0.333334 0.833334
Si Si2 0.994260 0.763200 0.284835
Si Si3 0.894509 0.328368 0.690362
Si Si4 0.285950 0.110213 0.985052
Si Si5 0.778045 0.578061 0.087857
Si Si6 0.666667 0.640252 0.333334
Si Si7 0.459924 0.527286 0.944119
O O1 0.280762 0.273695 0.820976
O O2 0.396553 0.346578 0.725300
O O3 0.936537 0.772527 0.264813
O O4 0.055043 0.828314 0.307791
O O5 0.909659 0.333334 0.833334
O O6 0.878084 0.380027 0.649532
O O7 0.838760 0.260939 0.664301
O O8 0.957438 0.341729 0.619584
O O9 0.269012 0.134050 0.866502
O O10 0.352867 0.161009 0.033480
O O11 0.244242 0.097120 0.103369
O O12 0.289932 0.049943 0.948036
O O13 0.482948 0.482948 0.000000
#
# Coordination Sequence:
#
# PCOD9576875 Si02
#       7
#     9  18  18  18  18   9  18
#     4  10  20  36  56  84 112 156 190 234 298 348
#     4  11  23  37  59  82 119 157 197 247 293 350
#     4  11  24  35  58  86 121 152 199 237 297 362
#     4  10  21  34  55  82 118 148 195 230 292 366
#     4  10  22  37  53  82 116 156 190 241 290 351
#     4  10  20  32  56  84 116 158 168 236 296 354
#     4  12  22  38  56  86 111 157 202 247 299 353
#
# _framework density 17.923404999999999
#
# number of rings (size 3 to 8) (size 9 to 14) (size 15 to 20)
#    0.000    1.333    2.500    5.000    7.000    2.000 
#    0.000    0.000    0.000    0.667    0.000    0.000 
#    0.000    2.667    0.000    0.000    0.000    0.000 
#
# Total GULP energy -200573.735344 kJ/mol
# GULP energy per Si atom -5571.492648 kJ/mol
# Density = 1.788261 g / cm^3
# Si number density = 17.923405 Si / 1000 Ang^3
#
#
#
# Elastic Constant Matrix: (Units=GPa)
#
#
# Indices 1 2 3 4 5 6 
#
# 1 104.0607 51.8938 23.4543 2.1977 0.0003 -0.0001
# 2 51.8938 104.0604 23.4536 -2.1976 -0.0005 -0.0001
# 3 23.4543 23.4536 83.6134 -0.0002 -0.0017 -0.0007
# 4 2.1977 -2.1976 -0.0002 13.0144 -0.0001 0.0000
# 5 0.0003 -0.0005 -0.0017 -0.0001 13.0130 2.1975
# 6 -0.0001 -0.0001 -0.0007 0.0000 2.1975 26.0834
#
#
#
# Elastic Compliance Matrix: (Units=1/GPa)
#
#
# Indices 1 2 3 4 5 6 
#
# 1 0.013224 -0.006221 -0.001964 -0.003284 -0.000001 0.000000
# 2 -0.006221 0.013224 -0.001964 0.003284 0.000000 0.000000
# 3 -0.001964 -0.001964 0.013062 0.000000 0.000002 0.000000
# 4 -0.003284 0.003284 0.000000 0.077947 0.000001 0.000000
# 5 -0.000001 0.000000 0.000002 0.000001 0.077955 -0.006568
# 6 0.000000 0.000000 0.000000 0.000000 -0.006568 0.038892
#
#
# Mechanical properties :
#
#
# Convention : Reuss Voigt Hill
#
# Bulk Modulus (GPa) = 52.05538 54.37089 53.21314
# Shear Modulus (GPa) = 19.15646 23.28436 21.22041
#
# Velocity S-wave (km/s) = 3.27279 3.60822 3.44459
# Velocity P-wave (km/s) = 6.58694 6.91086 6.75084
#
# Compressibility (1/GPa) = 0.01921031
#
# Stress axis : x y z
#
# Youngs Moduli (GPa) = 75.61731 75.61745 76.55896
#
# Poissons Ratio (x) = 0.47045 0.15040
# Poissons Ratio (y) = 0.47045 0.15038
# Poissons Ratio (z) = 0.14855 0.14853
#
# Static dielectric constant tensor:
#      x y z
#    x 1.615580 0.000000 0.000000 
#    y 0.000000 1.615580 0.000000 
#    z 0.000000 0.000000 1.738280 
# 
# From -- ./inp_files/4125.got.cif
#   From: 2010.05.17/outbox.cif.g08.bks.cpg/sg155_3_cif.got.tgz:4125.got - 2010.05.20 10:44:35.
