data_PCOD9576585
_publ_section_title
;
Structure prediction by ZEFSAII (Michael W. Deem and Ramdas Pophale) SiO2 
 PCOD9576585
Probable space group: P 32 2 1
;
_chemical_formula_sum "Si O2"
_cell_formula_units_Z 18
_cell_length_a 6.907654
_cell_length_b 6.907654
_cell_length_c 15.221036
_cell_angle_alpha 90.000000
_cell_angle_beta 90.000000
_cell_angle_gamma 120.000000
_cell_volume 628.978784
_symmetry_space_group_name_H-M "P 32 2 1"
_symmetry_group_IT_number 154
_symmetry_cell_setting 'hexagonal'
loop_
_space_group_symop_operation_xyz
x,y,z
-y,x-y,2/3+z
-x+y,-x,1/3+z
x-y,-y,1/3-z
-x,-x+y,2/3-z
y,x,-z
loop_
_atom_site_type_symbol
_atom_site_label
_atom_site_fract_x
_atom_site_fract_y
_atom_site_fract_z
Si Si1 0.175296 0.466693 0.950817
Si Si2 0.157814 0.318954 0.136462
Si Si3 0.239489 0.469734 0.419247
O O1 0.210001 0.311525 0.881704
O O2 0.008610 0.550085 0.921541
O O3 0.060144 0.316701 0.039458
O O4 0.411082 0.646579 0.994862
O O5 0.338109 0.583759 0.150333
O O6 0.974053 0.219914 0.212104
#
# Coordination Sequence:
#
# PCOD9576585 Si02
#       3
#     6   6   6
#     4   9  22  47  81 120 175 225 295 366 437 525
#     4   9  22  45  81 121 171 231 287 360 450 515
#     4  10  21  48  81 118 174 231 295 369 437 540
#
# _framework density 28.617818
#
# number of rings (size 3 to 8) (size 9 to 14) (size 15 to 20)
#    2.000    0.667    0.000    0.000    0.000    5.333 
#    6.000   13.333    7.333    0.000    0.000    0.000 
#    0.000    0.000    0.000    0.000    0.000    0.000 
#
# Total GULP energy -100690.825807 kJ/mol
# GULP energy per Si atom -5593.934767 kJ/mol
# Density = 2.855268 g / cm^3
# Si number density = 28.617818 Si / 1000 Ang^3
#
#
#
# Elastic Constant Matrix: (Units=GPa)
#
#
# Indices 1 2 3 4 5 6 
#
# 1 236.5174 132.3518 86.7480 -1.4579 0.0000 0.0000
# 2 132.3518 236.5174 86.7480 1.4579 0.0000 0.0000
# 3 86.7480 86.7480 140.1417 0.0000 0.0000 0.0000
# 4 -1.4579 1.4579 0.0000 46.5339 0.0000 0.0000
# 5 0.0000 0.0000 0.0000 0.0000 46.5339 -1.4579
# 6 0.0000 0.0000 0.0000 0.0000 -1.4579 52.0828
#
#
#
# Elastic Compliance Matrix: (Units=1/GPa)
#
#
# Indices 1 2 3 4 5 6 
#
# 1 0.006716 -0.002892 -0.002367 0.000301 0.000000 0.000000
# 2 -0.002892 0.006716 -0.002367 -0.000301 0.000000 0.000000
# 3 -0.002367 -0.002367 0.010066 0.000000 0.000000 0.000000
# 4 0.000301 -0.000301 0.000000 0.021509 0.000000 0.000000
# 5 0.000000 0.000000 0.000000 0.000000 0.021509 0.000602
# 6 0.000000 0.000000 0.000000 0.000000 0.000602 0.019217
#
#
# Mechanical properties :
#
#
# Convention : Reuss Voigt Hill
#
# Bulk Modulus (GPa) = 121.27167 136.09687 128.68427
# Shear Modulus (GPa) = 48.19941 49.51870 48.85906
#
# Velocity S-wave (km/s) = 4.10841 4.16425 4.13643
# Velocity P-wave (km/s) = 8.06062 8.41316 8.23878
#
# Compressibility (1/GPa) = 0.00824595
#
# Stress axis : x y z
#
# Youngs Moduli (GPa) = 148.88723 148.88723 99.34017
#
# Poissons Ratio (x) = 0.43059 0.23517
# Poissons Ratio (y) = 0.43059 0.23517
# Poissons Ratio (z) = 0.35247 0.35247
#
# Static dielectric constant tensor:
#      x y z
#    x 2.236780 0.000000 0.000000 
#    y 0.000000 2.236780 0.000000 
#    z 0.000000 0.000000 2.423360 
# 
# From -- ./inp_files/2159.got.cif
#   From: 2010.05.17/outbox.cif.g08.bks.cpg/sg154_2_cif.got.tgz:2159.got - 2010.05.20 10:41:43.
