data_PCOD9576084
_publ_section_title
;
Structure prediction by ZEFSAII (Michael W. Deem and Ramdas Pophale) SiO2 
 PCOD9576084
Probable space group: P 31 2 1
;
_chemical_formula_sum "Si O2"
_cell_formula_units_Z 24
_cell_length_a 15.064569
_cell_length_b 15.064569
_cell_length_c 5.155187
_cell_angle_alpha 90.000000
_cell_angle_beta 90.000000
_cell_angle_gamma 120.000000
_cell_volume 1013.184360
_symmetry_space_group_name_H-M "P 31 2 1"
_symmetry_group_IT_number 152
_symmetry_cell_setting 'hexagonal'
loop_
_space_group_symop_operation_xyz
x,y,z
-y,x-y,1/3+z
-x+y,-x,2/3+z
x-y,-y,2/3-z
-x,-x+y,1/3-z
y,x,-z
loop_
_atom_site_type_symbol
_atom_site_label
_atom_site_fract_x
_atom_site_fract_y
_atom_site_fract_z
Si Si1 0.803657 0.289032 0.888326
Si Si2 0.422769 0.854321 0.631435
Si Si3 0.896806 0.703319 0.991655
Si Si4 0.100928 0.000000 0.333334
Si Si5 0.385743 0.385743 0.000000
O O1 0.683329 0.231445 0.957327
O O2 0.823366 0.355168 0.628869
O O3 0.831647 0.201330 0.829140
O O4 0.360485 0.863560 0.870045
O O5 0.529310 0.953473 0.554453
O O6 0.882808 0.794577 0.872938
O O7 0.912283 0.634753 0.778306
O O8 0.000000 0.750319 0.166667
O O9 0.065704 0.065704 0.500000
#
# Coordination Sequence:
#
# PCOD9576084 Si02
#       5
#     6   6   6   3   3
#     4  12  25  45  70 111 148 204 252 322 378 474
#     4  12  26  44  72 103 151 194 259 306 392 457
#     4  11  24  45  76 108 153 201 265 323 397 462
#     4  10  23  47  76 110 146 202 262 329 397 474
#     4  12  25  45  74 110 150 212 254 323 397 478
#
# _framework density 23.687691000000001
#
# number of rings (size 3 to 8) (size 9 to 14) (size 15 to 20)
#    0.000    0.500    2.500    6.750    0.000    1.000 
#    0.000    2.500    0.000    0.000    0.000    0.000 
#    0.000    0.000    0.000    0.000    0.000    0.000 
#
# Total GULP energy -134468.492867 kJ/mol
# GULP energy per Si atom -5602.853869 kJ/mol
# Density = 2.363378 g / cm^3
# Si number density = 23.687691 Si / 1000 Ang^3
#
#
#
# Elastic Constant Matrix: (Units=GPa)
#
#
# Indices 1 2 3 4 5 6 
#
# 1 127.1504 74.8418 58.6039 -3.6217 0.0000 0.0000
# 2 74.8418 127.1504 58.6039 3.6217 0.0000 0.0000
# 3 58.6039 58.6039 144.8489 0.0000 0.0000 0.0000
# 4 -3.6217 3.6217 0.0000 31.0203 0.0000 0.0000
# 5 0.0000 0.0000 0.0000 0.0000 31.0203 -3.6217
# 6 0.0000 0.0000 0.0000 0.0000 -3.6217 26.1543
#
#
#
# Elastic Compliance Matrix: (Units=1/GPa)
#
#
# Indices 1 2 3 4 5 6 
#
# 1 0.012950 -0.006481 -0.002617 0.002269 0.000000 0.000000
# 2 -0.006481 0.012950 -0.002617 -0.002269 0.000000 0.000000
# 3 -0.002617 -0.002617 0.009022 0.000000 0.000000 0.000000
# 4 0.002269 -0.002269 0.000000 0.032767 0.000000 0.000000
# 5 0.000000 0.000000 0.000000 0.000000 0.032767 0.004537
# 6 0.000000 0.000000 0.000000 0.000000 0.004537 0.038863
#
#
# Mechanical properties :
#
#
# Convention : Reuss Voigt Hill
#
# Bulk Modulus (GPa) = 87.02580 87.02764 87.02672
# Shear Modulus (GPa) = 30.01538 31.44564 30.73051
#
# Velocity S-wave (km/s) = 3.56354 3.64745 3.60574
# Velocity P-wave (km/s) = 7.33146 7.38633 7.35895
#
# Compressibility (1/GPa) = 0.01149085
#
# Stress axis : x y z
#
# Youngs Moduli (GPa) = 77.21716 77.21716 110.84345
#
# Poissons Ratio (x) = 0.50044 0.29013
# Poissons Ratio (y) = 0.50044 0.29013
# Poissons Ratio (z) = 0.20211 0.20211
#
# Static dielectric constant tensor:
#      x y z
#    x 1.919650 0.000000 0.000000 
#    y 0.000000 1.919650 0.000000 
#    z 0.000000 0.000000 1.880300 
# 
# From -- ./inp_files/217.got.cif
#   From: 2010.05.17/outbox.cif.g08.bks.cpg/sg152_1_cif.got.tgz:217.got - 2010.05.20 10:36:06.
