data_PCOD9576499
_publ_section_title
;
Structure prediction by ZEFSAII (Michael W. Deem and Ramdas Pophale) SiO2 
 PCOD9576499
Probable space group: P 32 2 1
;
_chemical_formula_sum "Si O2"
_cell_formula_units_Z 36
_cell_length_a 9.346679
_cell_length_b 9.346679
_cell_length_c 22.623752
_cell_angle_alpha 90.000000
_cell_angle_beta 90.000000
_cell_angle_gamma 120.000000
_cell_volume 1711.630113
_symmetry_space_group_name_H-M "P 32 2 1"
_symmetry_group_IT_number 154
_symmetry_cell_setting 'hexagonal'
loop_
_space_group_symop_operation_xyz
x,y,z
-y,x-y,2/3+z
-x+y,-x,1/3+z
x-y,-y,1/3-z
-x,-x+y,2/3-z
y,x,-z
loop_
_atom_site_type_symbol
_atom_site_label
_atom_site_fract_x
_atom_site_fract_y
_atom_site_fract_z
Si Si1 0.075234 0.357263 0.578789
Si Si2 0.599127 0.160301 0.210403
Si Si3 0.718658 0.387607 0.429578
Si Si4 0.017677 0.013924 0.765569
Si Si5 0.347599 0.019700 0.557047
Si Si6 0.290448 0.973152 0.293763
O O1 0.242373 0.533843 0.588343
O O2 0.074553 0.183063 0.574856
O O3 0.012970 0.368964 0.514052
O O4 0.971291 0.328981 0.637587
O O5 0.597060 0.293382 0.166314
O O6 0.783976 0.242729 0.236587
O O7 0.553004 0.000000 0.166667
O O8 0.456863 0.102315 0.258984
O O9 0.755116 0.555674 0.400471
O O10 0.877217 0.372358 0.415490
O O11 0.000000 0.060828 0.833334
O O12 0.195660 0.034040 0.761019
O O13 0.001427 0.137988 0.721027
#
# Coordination Sequence:
#
# PCOD9576499 Si02
#       6
#     6   6   6   6   6   6
#     4  10  23  41  62  88 123 159 200 250 299 356
#     4   9  19  39  62  86 123 164 200 240 299 370
#     4  10  22  39  61  90 121 158 202 247 299 358
#     4  10  20  38  64  88 118 163 204 238 295 370
#     4  10  21  40  64  86 116 164 208 240 290 364
#     4  11  22  39  64  94 122 154 197 253 306 352
#
# _framework density 21.032582000000001
#
# number of rings (size 3 to 8) (size 9 to 14) (size 15 to 20)
#    0.000    2.000    0.000    5.500    0.000   10.667 
#    0.000    4.167    0.000    6.000    0.000    0.000 
#    0.000    0.000    0.000    0.000    0.000    0.000 
#
# Total GULP energy -200733.912122 kJ/mol
# GULP energy per Si atom -5575.942003 kJ/mol
# Density = 2.098471 g / cm^3
# Si number density = 21.032582 Si / 1000 Ang^3
#
#
#
# Elastic Constant Matrix: (Units=GPa)
#
#
# Indices 1 2 3 4 5 6 
#
# 1 87.1023 67.5199 9.7765 31.7230 -0.0063 0.0000
# 2 67.5199 87.1023 9.7765 -31.7230 0.0063 0.0000
# 3 9.7765 9.7765 18.5804 0.0000 0.0000 0.0000
# 4 31.7230 -31.7230 0.0000 618.6554 0.0000 0.0063
# 5 -0.0063 0.0063 0.0000 0.0000 618.6554 31.7230
# 6 0.0000 0.0000 0.0000 0.0063 31.7230 9.7912
#
#
#
# Elastic Compliance Matrix: (Units=1/GPa)
#
#
# Indices 1 2 3 4 5 6 
#
# 1 0.034085 -0.027156 -0.003646 -0.003140 0.000001 0.000000
# 2 -0.027156 0.034085 -0.003646 0.003140 -0.000001 0.000000
# 3 -0.003646 -0.003646 0.057657 0.000000 0.000000 0.000000
# 4 -0.003140 0.003140 0.000000 0.001938 0.000000 -0.000001
# 5 0.000001 -0.000001 0.000000 0.000000 0.001938 -0.006281
# 6 0.000000 0.000000 0.000000 -0.000001 -0.006281 0.122481
#
#
# Mechanical properties :
#
#
# Convention : Reuss Voigt Hill
#
# Bulk Modulus (GPa) = 17.56505 40.77009 29.16757
# Shear Modulus (GPa) = 14.70349 256.46787 135.58568
#
# Velocity S-wave (km/s) = 2.64688 11.05455 8.03769
# Velocity P-wave (km/s) = 4.20842 13.50421 10.00186
#
# Compressibility (1/GPa) = 0.05693125
#
# Stress axis : x y z
#
# Youngs Moduli (GPa) = 29.33883 29.33883 17.34407
#
# Poissons Ratio (x) = 0.79673 0.06323
# Poissons Ratio (y) = 0.79673 0.06323
# Poissons Ratio (z) = 0.10696 0.10696
#
# Static dielectric constant tensor:
#      x y z
#    x 1.683230 0.000000 0.000000 
#    y 0.000000 1.683230 0.000000 
#    z 0.000000 0.000000 1.768590 
# 
# From -- ./inp_files/3413.got.cif
#   From: 2010.05.17/outbox.cif.g08.bks.cpg/sg154_2_cif.got.tgz:3413.got - 2010.05.20 10:41:43.
