data_PCOD9576668
_publ_section_title
;
Structure prediction by ZEFSAII (Michael W. Deem and Ramdas Pophale) SiO2 
 PCOD9576668
Probable space group: P 32 2 1
;
_chemical_formula_sum "Si O2"
_cell_formula_units_Z 42
_cell_length_a 14.841906
_cell_length_b 14.841906
_cell_length_c 10.876212
_cell_angle_alpha 90.000000
_cell_angle_beta 90.000000
_cell_angle_gamma 120.000000
_cell_volume 2074.854511
_symmetry_space_group_name_H-M "P 32 2 1"
_symmetry_group_IT_number 154
_symmetry_cell_setting 'hexagonal'
loop_
_space_group_symop_operation_xyz
x,y,z
-y,x-y,2/3+z
-x+y,-x,1/3+z
x-y,-y,1/3-z
-x,-x+y,2/3-z
y,x,-z
loop_
_atom_site_type_symbol
_atom_site_label
_atom_site_fract_x
_atom_site_fract_y
_atom_site_fract_z
Si Si1 0.235190 0.162004 0.109748
Si Si2 0.278757 0.000000 0.166667
Si Si3 0.552025 0.552025 0.000000
Si Si4 0.597790 0.077060 0.284973
Si Si5 0.719341 0.537929 0.637327
Si Si6 0.618927 0.779784 0.099192
Si Si7 0.450154 0.356575 0.177692
Si Si8 0.958320 0.840681 0.973182
O O1 0.349841 0.263806 0.110734
O O2 0.187758 0.157937 0.246030
O O3 0.241190 0.059584 0.076959
O O4 0.171205 0.171205 0.000000
O O5 0.291840 0.906638 0.121866
O O6 0.575049 0.660319 0.061550
O O7 0.519846 0.453134 0.089213
O O8 0.544863 0.144260 0.327327
O O9 0.717143 0.163334 0.264928
O O10 0.544429 0.000000 0.166667
O O11 0.590166 0.996921 0.388117
O O12 0.776706 0.611681 0.753084
O O13 0.793864 0.498491 0.579411
O O14 0.729259 0.852230 0.034652
O O15 0.000000 0.851937 0.833334
O O16 0.928795 0.928795 0.000000
#
# Coordination Sequence:
#
# PCOD9576668 Si02
#       8
#     6   3   3   6   6   6   6   6
#     4  11  25  42  69  97 135 182 229 284 352 415
#     4  10  24  40  64 100 136 176 224 286 342 408
#     4  12  26  46  68 106 142 178 230 304 356 420
#     4  12  23  45  72 102 137 187 238 292 353 429
#     4  11  24  43  72 103 137 186 237 290 349 432
#     4  12  25  44  72  99 136 182 234 286 355 425
#     4  11  23  47  68  98 142 179 228 289 359 418
#     4  12  27  44  67 100 138 183 231 285 348 424
#
# _framework density 20.242381999999999
#
# number of rings (size 3 to 8) (size 9 to 14) (size 15 to 20)
#    0.000    0.571    6.429    2.143    5.000    1.143 
#    0.000    0.000    0.000    0.000    0.000    0.000 
#    0.000    0.000    0.000    0.000    0.000    0.000 
#
# Total GULP energy -234152.580295 kJ/mol
# GULP energy per Si atom -5575.061436 kJ/mol
# Density = 2.019631 g / cm^3
# Si number density = 20.242382 Si / 1000 Ang^3
#
#
#
# Elastic Constant Matrix: (Units=GPa)
#
#
# Indices 1 2 3 4 5 6 
#
# 1 70.4573 48.4327 4.3987 12.0980 -0.0002 0.0000
# 2 48.4327 70.4573 4.3987 -12.0980 0.0002 0.0000
# 3 4.3987 4.3987 56.7109 0.0000 0.0000 0.0000
# 4 12.0980 -12.0980 0.0000 15.3856 0.0000 0.0002
# 5 -0.0002 0.0002 0.0000 0.0000 15.3856 12.0980
# 6 0.0000 0.0000 0.0000 0.0002 12.0980 11.0123
#
#
#
# Elastic Compliance Matrix: (Units=1/GPa)
#
#
# Indices 1 2 3 4 5 6 
#
# 1 0.170963 -0.162503 -0.000656 -0.262211 0.000003 0.000000
# 2 -0.162503 0.170963 -0.000656 0.262211 -0.000003 0.000000
# 3 -0.000656 -0.000656 0.017735 0.000000 0.000000 0.000000
# 4 -0.262211 0.262211 0.000000 0.477359 0.000000 -0.000007
# 5 0.000003 -0.000003 0.000000 0.000000 0.477359 -0.524422
# 6 0.000000 0.000000 0.000000 -0.000007 -0.524422 0.666933
#
#
# Mechanical properties :
#
#
# Convention : Reuss Voigt Hill
#
# Bulk Modulus (GPa) = 31.22089 34.67616 32.94852
# Shear Modulus (GPa) = 2.15553 17.71639 9.93596
#
# Velocity S-wave (km/s) = 1.03304 2.96161 2.21792
# Velocity P-wave (km/s) = 4.10852 5.37238 4.78238
#
# Compressibility (1/GPa) = 0.03202984
#
# Stress axis : x y z
#
# Youngs Moduli (GPa) = 5.84922 5.84922 56.38543
#
# Poissons Ratio (x) = 0.95052 0.03700
# Poissons Ratio (y) = 0.95052 0.03700
# Poissons Ratio (z) = 0.00384 0.00384
#
# Static dielectric constant tensor:
#      x y z
#    x 1.763930 0.000000 0.000000 
#    y 0.000000 1.763930 0.000000 
#    z 0.000000 0.000000 1.745080 
# 
# From -- ./inp_files/1770.got.cif
#   From: 2010.05.17/outbox.cif.g08.bks.cpg/sg154_1_cif.got.tgz:1770.got - 2010.05.20 10:41:43.
