data_PCOD9576071
_publ_section_title
;
Structure prediction by ZEFSAII (Michael W. Deem and Ramdas Pophale) SiO2 
 PCOD9576071
Probable space group: P 31 2 1
;
_chemical_formula_sum "Si O2"
_cell_formula_units_Z 18
_cell_length_a 5.242145
_cell_length_b 5.242145
_cell_length_c 26.652494
_cell_angle_alpha 90.000000
_cell_angle_beta 90.000000
_cell_angle_gamma 120.000000
_cell_volume 634.288073
_symmetry_space_group_name_H-M "P 31 2 1"
_symmetry_group_IT_number 152
_symmetry_cell_setting 'hexagonal'
loop_
_space_group_symop_operation_xyz
x,y,z
-y,x-y,1/3+z
-x+y,-x,2/3+z
x-y,-y,2/3-z
-x,-x+y,1/3-z
y,x,-z
loop_
_atom_site_type_symbol
_atom_site_label
_atom_site_fract_x
_atom_site_fract_y
_atom_site_fract_z
Si Si1 0.458477 0.844601 0.200897
Si Si2 0.620416 0.959758 0.018154
Si Si3 0.962281 0.977443 0.107725
O O1 0.239352 0.514475 0.342057
O O2 0.707110 0.913059 0.242650
O O3 0.146773 0.776289 0.224316
O O4 0.540435 0.150632 0.171174
O O5 0.726996 0.015137 0.076084
O O6 0.787131 0.787131 0.000000
O O7 0.000000 0.060228 0.166667
#
# Coordination Sequence:
#
# PCOD9576071 Si02
#       3
#     6   6   6
#     4  10  23  41  67 105 141 176 229 294 349 403
#     4  12  28  49  72 104 146 189 232 289 358 422
#     4  10  24  44  73 103 138 183 238 289 344 415
#
# _framework density 28.378267000000001
#
# number of rings (size 3 to 8) (size 9 to 14) (size 15 to 20)
#    0.000    1.333    0.000    3.000    0.000   33.333 
#    0.000    0.000    0.000    0.000    0.000    0.000 
#    0.000    0.000    0.000    0.000    0.000    0.000 
#
# Total GULP energy -100783.335270 kJ/mol
# GULP energy per Si atom -5599.074182 kJ/mol
# Density = 2.831368 g / cm^3
# Si number density = 28.378267 Si / 1000 Ang^3
#
#
#
# Elastic Constant Matrix: (Units=GPa)
#
#
# Indices 1 2 3 4 5 6 
#
# 1 219.7596 75.8036 16.3019 13.6227 0.0002 0.0000
# 2 75.8036 219.7596 16.3019 -13.6227 -0.0002 0.0000
# 3 16.3019 16.3019 113.9426 0.0000 0.0000 0.0000
# 4 13.6227 -13.6227 0.0000 45.1617 0.0000 -0.0002
# 5 0.0002 -0.0002 0.0000 0.0000 45.1617 13.6227
# 6 0.0000 0.0000 0.0000 -0.0002 13.6227 71.9780
#
#
#
# Elastic Compliance Matrix: (Units=1/GPa)
#
#
# Indices 1 2 3 4 5 6 
#
# 1 0.005402 -0.001965 -0.000492 -0.002222 0.000000 0.000000
# 2 -0.001965 0.005402 -0.000492 0.002222 0.000000 0.000000
# 3 -0.000492 -0.000492 0.008917 0.000000 0.000000 0.000000
# 4 -0.002222 0.002222 0.000000 0.023483 0.000000 0.000000
# 5 0.000000 0.000000 0.000000 0.000000 0.023483 -0.004444
# 6 0.000000 0.000000 0.000000 0.000000 -0.004444 0.014734
#
#
# Mechanical properties :
#
#
# Convention : Reuss Voigt Hill
#
# Bulk Modulus (GPa) = 72.33256 85.58630 78.95943
# Shear Modulus (GPa) = 54.39041 62.13057 58.26049
#
# Velocity S-wave (km/s) = 4.38267 4.68415 4.53592
# Velocity P-wave (km/s) = 7.15224 7.71230 7.43754
#
# Compressibility (1/GPa) = 0.01382503
#
# Stress axis : x y z
#
# Youngs Moduli (GPa) = 185.10329 185.10329 112.14428
#
# Poissons Ratio (x) = 0.36368 0.05516
# Poissons Ratio (y) = 0.36368 0.05516
# Poissons Ratio (z) = 0.09104 0.09104
#
# Static dielectric constant tensor:
#      x y z
#    x 2.402930 0.000000 0.000000 
#    y 0.000000 2.402930 0.000000 
#    z 0.000000 0.000000 2.491450 
# 
# From -- ./inp_files/3171.got.cif
#   From: 2010.05.17/outbox.cif.g08.bks.cpg/sg152_2_cif.got.tgz:3171.got - 2010.05.20 10:36:06.
