data_PCOD9576527
_publ_section_title
;
Structure prediction by ZEFSAII (Michael W. Deem and Ramdas Pophale) SiO2 
 PCOD9576527
Probable space group: P 32 2 1
;
_chemical_formula_sum "Si O2"
_cell_formula_units_Z 36
_cell_length_a 8.784152
_cell_length_b 8.784152
_cell_length_c 21.075204
_cell_angle_alpha 90.000000
_cell_angle_beta 90.000000
_cell_angle_gamma 120.000000
_cell_volume 1408.322452
_symmetry_space_group_name_H-M "P 32 2 1"
_symmetry_group_IT_number 154
_symmetry_cell_setting 'hexagonal'
loop_
_space_group_symop_operation_xyz
x,y,z
-y,x-y,2/3+z
-x+y,-x,1/3+z
x-y,-y,1/3-z
-x,-x+y,2/3-z
y,x,-z
loop_
_atom_site_type_symbol
_atom_site_label
_atom_site_fract_x
_atom_site_fract_y
_atom_site_fract_z
Si Si1 0.000000 0.722418 0.833334
Si Si2 0.281639 0.113265 0.795128
Si Si3 0.207688 0.000000 0.166667
Si Si4 0.510488 0.073058 0.256771
Si Si5 0.682813 0.723303 0.694568
Si Si6 0.417110 0.417110 0.000000
Si Si7 0.919433 0.919433 0.000000
Si Si8 0.785004 0.459839 0.214688
O O1 0.827786 0.734274 0.850239
O O2 0.035905 0.630122 0.893580
O O3 0.168521 0.186537 0.831667
O O4 0.226300 0.090888 0.720884
O O5 0.478182 0.276951 0.808827
O O6 0.311315 0.988799 0.107268
O O7 0.467836 0.067221 0.330424
O O8 0.635797 0.266220 0.230062
O O9 0.607099 0.832588 0.655873
O O10 0.594495 0.720559 0.760875
O O11 0.892720 0.848292 0.694222
O O12 0.510447 0.455126 0.929888
#
# Coordination Sequence:
#
# PCOD9576527 Si02
#       8
#     3   6   3   6   6   3   3   6
#     4  10  26  40  64  94 146 170 220 270 338 412
#     4  11  22  43  69  96 129 178 232 287 319 409
#     4  10  20  40  74  86 116 186 232 258 312 424
#     4  11  22  41  65 100 135 175 220 274 349 398
#     4   9  18  38  64 101 123 173 228 268 320 416
#     4   7  18  40  63 100 127 174 223 272 323 414
#     4  11  20  40  77  94 119 180 251 268 325 406
#     4  10  22  37  71  98 137 171 228 279 341 398
#
# _framework density 25.562329999999999
#
# number of rings (size 3 to 8) (size 9 to 14) (size 15 to 20)
#    1.000    1.000    1.667    3.000    0.000    4.000 
#    0.000    0.833   11.000    1.000    0.000    0.000 
#    0.000    0.000    0.000    0.000    0.000    0.000 
#
# Total GULP energy -200600.998703 kJ/mol
# GULP energy per Si atom -5572.249964 kJ/mol
# Density = 2.550415 g / cm^3
# Si number density = 25.562330 Si / 1000 Ang^3
#
#
#
# Elastic Constant Matrix: (Units=GPa)
#
#
# Indices 1 2 3 4 5 6 
#
# 1 47.7362 18.1352 11.6318 -0.8018 0.0006 0.0000
# 2 18.1352 47.7362 11.6318 0.8018 -0.0006 0.0000
# 3 11.6318 11.6318 40.5366 0.0000 0.0000 0.0000
# 4 -0.8018 0.8018 0.0000 16.7902 0.0000 -0.0006
# 5 0.0006 -0.0006 0.0000 0.0000 16.7902 -0.8018
# 6 0.0000 0.0000 0.0000 -0.0006 -0.8018 14.8005
#
#
#
# Elastic Compliance Matrix: (Units=1/GPa)
#
#
# Indices 1 2 3 4 5 6 
#
# 1 0.025382 -0.008489 -0.004847 0.001617 -0.000001 0.000000
# 2 -0.008489 0.025382 -0.004847 -0.001617 0.000001 0.000000
# 3 -0.004847 -0.004847 0.027451 0.000000 0.000000 0.000000
# 4 0.001617 -0.001617 0.000000 0.059713 0.000000 0.000003
# 5 -0.000001 0.000001 0.000000 0.000000 0.059713 0.003235
# 6 0.000000 0.000000 0.000000 0.000003 0.003235 0.067740
#
#
# Mechanical properties :
#
#
# Convention : Reuss Voigt Hill
#
# Bulk Modulus (GPa) = 23.89630 24.31183 24.10406
# Shear Modulus (GPa) = 15.83800 15.98354 15.91077
#
# Velocity S-wave (km/s) = 2.49184 2.50327 2.49756
# Velocity P-wave (km/s) = 4.20090 4.22925 4.21510
#
# Compressibility (1/GPa) = 0.04184749
#
# Stress axis : x y z
#
# Youngs Moduli (GPa) = 39.39854 39.39854 36.42864
#
# Poissons Ratio (x) = 0.33444 0.17658
# Poissons Ratio (y) = 0.33444 0.17658
# Poissons Ratio (z) = 0.19098 0.19098
#
# Static dielectric constant tensor:
#      x y z
#    x 2.055520 0.000000 0.000000 
#    y 0.000000 2.055520 0.000000 
#    z 0.000000 0.000000 3.022940 
# 
# From -- ./inp_files/3533.got.cif
#   From: 2010.05.17/outbox.cif.g08.bks.cpg/sg154_2_cif.got.tgz:3533.got - 2010.05.20 10:41:43.
