data_PCOD9576769
_publ_section_title
;
Structure prediction by ZEFSAII (Michael W. Deem and Ramdas Pophale) SiO2 
 PCOD9576769
Probable space group: R 3 2
;
_chemical_formula_sum "Si O2"
_cell_formula_units_Z 63
_cell_length_a 29.976342
_cell_length_b 29.976342
_cell_length_c 5.411479
_cell_angle_alpha 90.000000
_cell_angle_beta 90.000000
_cell_angle_gamma 120.000000
_cell_volume 4211.180718
_symmetry_space_group_name_H-M "R 3 2"
_symmetry_group_IT_number 155
_symmetry_cell_setting 'hexagonal'
loop_
_space_group_symop_operation_xyz
x,y,z
-y,x-y,z
-x+y,-x,z
x-y,-y,-z
-x,-x+y,-z
y,x,-z
2/3+x,1/3+y,1/3+z
2/3-y,1/3+x-y,1/3+z
2/3-x+y,1/3-x,1/3+z
2/3+x-y,1/3-y,1/3-z
2/3-x,1/3-x+y,1/3-z
2/3+y,1/3+x,1/3-z
1/3+x,2/3+y,2/3+z
1/3-y,2/3+x-y,2/3+z
1/3-x+y,2/3-x,2/3+z
1/3+x-y,2/3-y,2/3-z
1/3-x,2/3-x+y,2/3-z
1/3+y,2/3+x,2/3-z
loop_
_atom_site_type_symbol
_atom_site_label
_atom_site_fract_x
_atom_site_fract_y
_atom_site_fract_z
Si Si1 0.576627 0.608829 0.252817
Si Si2 0.392292 0.203754 0.945915
Si Si3 0.818855 0.093197 0.885529
Si Si4 0.950528 0.617194 0.333334
O O1 0.607097 0.607097 0.500000
O O2 0.595361 0.666667 0.166667
O O3 0.516916 0.573342 0.323035
O O4 0.584211 0.584211 0.000000
O O5 0.333327 0.192681 0.915545
O O6 0.416382 0.227731 0.682330
O O7 0.415973 0.240050 0.182173
O O8 0.766034 0.040058 0.848432
O O9 0.000000 0.632053 0.500000
#
# Coordination Sequence:
#
# PCOD9576769 Si02
#       4
#    18  18  18   9
#     4  12  21  32  47  65  86 108 151 197 233 265
#     4  10  17  35  44  55  84 123 131 174 251 269
#     4  10  19  31  46  56  84 119 138 178 235 265
#     4  12  22  28  44  70  86 108 164 204 210 248
#
# _framework density 14.960176000000001
#
# number of rings (size 3 to 8) (size 9 to 14) (size 15 to 20)
#    0.000    1.143    8.571    3.429    0.000    0.000 
#    0.000    0.000    0.000    0.000    0.000    0.000 
#    0.000    0.000    0.000    0.000    0.000    0.000 
#
# Total GULP energy -116930.183161 kJ/mol
# GULP energy per Si atom -5568.103960 kJ/mol
# Density = 1.492613 g / cm^3
# Si number density = 14.960176 Si / 1000 Ang^3
#
#
#
# Elastic Constant Matrix: (Units=GPa)
#
#
# Indices 1 2 3 4 5 6 
#
# 1 37.9081 36.9165 8.8867 -1.1528 0.4214 0.3391
# 2 36.9165 37.8598 8.8214 0.9410 0.1667 -0.1517
# 3 8.8867 8.8214 119.2584 -0.4052 -0.2255 -0.6965
# 4 -1.1528 0.9410 -0.4052 10.3334 -0.7913 -0.3708
# 5 0.4214 0.1667 -0.2255 -0.7913 10.7225 -1.9690
# 6 0.3391 -0.1517 -0.6965 -0.3708 -1.9690 -1.0284
#
#
#
# Elastic Compliance Matrix: (Units=1/GPa)
#
#
# Indices 1 2 3 4 5 6 
#
# 1 0.614862 -0.602291 0.000334 0.132427 0.029379 0.187360
# 2 -0.602291 0.616924 -0.002332 -0.132318 -0.029490 -0.183848
# 3 0.000334 -0.002332 0.008508 0.000383 -0.000569 -0.004356
# 4 0.132427 -0.132318 0.000383 0.124316 0.006924 0.004847
# 5 0.029379 -0.029490 -0.000569 0.006924 0.070477 -0.123005
# 6 0.187360 -0.183848 -0.004356 0.004847 -0.123005 -0.646766
#
#
# Mechanical properties :
#
#
# Convention : Reuss Voigt Hill
#
# Bulk Modulus (GPa) = 31.53120 33.80840 32.66980
# Shear Modulus (GPa) = 2.49070 13.36561 7.92816
#
# Velocity S-wave (km/s) = 1.29170 2.99224 2.30456
# Velocity P-wave (km/s) = 4.83189 5.88099 5.38206
#
# Compressibility (1/GPa) = 0.03171462
#
# Stress axis : x y z
#
# Youngs Moduli (GPa) = 1.62638 1.62095 117.54219
#
# Poissons Ratio (x) = 0.97628 -0.03920
# Poissons Ratio (y) = 0.97955 0.27410
# Poissons Ratio (z) = -0.00054 0.00378
#
# Static dielectric constant tensor:
#      x y z
#    x 1.496620 -0.000330 -0.000790 
#    y -0.000330 1.495470 -0.001310 
#    z -0.000790 -0.001310 1.662960 
# 
# From -- ./inp_files/834.got.cif
#   From: 2010.05.17/outbox.cif.g08.bks.cpg/sg155_1_cif.got.tgz:834.got - 2010.05.20 10:44:35.
