data_PCOD9576974
_publ_section_title
;
Structure prediction by ZEFSAII (Michael W. Deem and Ramdas Pophale) SiO2 
 PCOD9576974
Probable space group: R 3 2
;
_chemical_formula_sum "Si O2"
_cell_formula_units_Z 72
_cell_length_a 26.376110
_cell_length_b 26.376110
_cell_length_c 5.676000
_cell_angle_alpha 90.000000
_cell_angle_beta 90.000000
_cell_angle_gamma 120.000000
_cell_volume 3419.751188
_symmetry_space_group_name_H-M "R 3 2"
_symmetry_group_IT_number 155
_symmetry_cell_setting 'hexagonal'
loop_
_space_group_symop_operation_xyz
x,y,z
-y,x-y,z
-x+y,-x,z
x-y,-y,-z
-x,-x+y,-z
y,x,-z
2/3+x,1/3+y,1/3+z
2/3-y,1/3+x-y,1/3+z
2/3-x+y,1/3-x,1/3+z
2/3+x-y,1/3-y,1/3-z
2/3-x,1/3-x+y,1/3-z
2/3+y,1/3+x,1/3-z
1/3+x,2/3+y,2/3+z
1/3-y,2/3+x-y,2/3+z
1/3-x+y,2/3-x,2/3+z
1/3+x-y,2/3-y,2/3-z
1/3-x,2/3-x+y,2/3-z
1/3+y,2/3+x,2/3-z
loop_
_atom_site_type_symbol
_atom_site_label
_atom_site_fract_x
_atom_site_fract_y
_atom_site_fract_z
Si Si1 0.837176 0.277591 0.168418
Si Si2 0.841039 0.115021 0.797636
Si Si3 0.450010 0.333334 0.333334
Si Si4 0.390619 0.550989 0.264202
Si Si5 0.611140 0.666667 0.166667
O O1 0.867251 0.333334 0.333334
O O2 0.815747 0.219975 0.327129
O O3 0.778422 0.271719 0.054366
O O4 0.886300 0.289273 0.976497
O O5 0.822665 0.155998 0.666667
O O6 0.868735 0.089104 0.611205
O O7 0.784104 0.056744 0.897310
O O8 0.498990 0.361839 0.540282
O O9 0.333334 0.550937 0.166667
O O10 0.666667 0.703402 0.333334
#
# Coordination Sequence:
#
# PCOD9576974 Si02
#       5
#    18  18   9  18   9
#     4  11  24  39  59  91 127 165 227 268 324 388
#     4  10  21  37  63  87 123 169 214 264 318 392
#     4   8  18  36  58  84 120 152 208 258 316 372
#     4   9  19  38  61  85 120 155 212 264 323 384
#     4  12  28  44  58  86 144 188 226 276 328 392
#
# _framework density 21.054161000000001
#
# number of rings (size 3 to 8) (size 9 to 14) (size 15 to 20)
#    0.000    2.000    0.000    2.250    0.000   14.000 
#    0.000    0.000   27.500    0.000    0.000    0.000 
# 1028.750    0.000    0.000    0.000    0.000    0.000 
#
# Total GULP energy -133953.429416 kJ/mol
# GULP energy per Si atom -5581.392892 kJ/mol
# Density = 2.100624 g / cm^3
# Si number density = 21.054161 Si / 1000 Ang^3
#
#
#
# Elastic Constant Matrix: (Units=GPa)
#
#
# Indices 1 2 3 4 5 6 
#
# 1 101.3642 54.0249 49.3223 0.4009 -0.1522 -0.0531
# 2 54.0249 101.4401 49.4406 -0.4866 0.0259 -0.0084
# 3 49.3223 49.4406 106.8000 -0.1344 -0.2449 -0.0086
# 4 0.4009 -0.4866 -0.1344 24.2071 -0.0154 -0.0657
# 5 -0.1522 0.0259 -0.2449 -0.0154 24.0512 0.5593
# 6 -0.0531 -0.0084 -0.0086 -0.0657 0.5593 23.7028
#
#
#
# Elastic Compliance Matrix: (Units=1/GPa)
#
#
# Indices 1 2 3 4 5 6 
#
# 1 0.015110 -0.006002 -0.004200 -0.000394 0.000058 0.000028
# 2 -0.006002 0.015116 -0.004225 0.000380 -0.000097 -0.000006
# 3 -0.004200 -0.004225 0.013259 0.000058 0.000113 -0.000009
# 4 -0.000394 0.000380 0.000058 0.041325 0.000022 0.000113
# 5 0.000058 -0.000097 0.000113 0.000022 0.041602 -0.000981
# 6 0.000028 -0.000006 -0.000009 0.000113 -0.000981 0.042213
#
#
# Mechanical properties :
#
#
# Convention : Reuss Voigt Hill
#
# Bulk Modulus (GPa) = 68.35167 68.35332 68.35249
# Shear Modulus (GPa) = 24.70893 24.84664 24.77779
#
# Velocity S-wave (km/s) = 3.42948 3.43903 3.43426
# Velocity P-wave (km/s) = 6.94385 6.95019 6.94702
#
# Compressibility (1/GPa) = 0.01463022
#
# Stress axis : x y z
#
# Youngs Moduli (GPa) = 66.18318 66.15561 75.41931
#
# Poissons Ratio (x) = 0.39707 0.31674
# Poissons Ratio (y) = 0.39724 0.31868
# Poissons Ratio (z) = 0.27795 0.27954
#
# Static dielectric constant tensor:
#      x y z
#    x 1.754250 -0.000010 -0.000150 
#    y -0.000010 1.754240 -0.000080 
#    z -0.000150 -0.000080 1.844970 
# 
# From -- ./inp_files/934.got.cif
#   From: 2010.05.17/outbox.cif.g08.bks.cpg/sg155_1_cif.got.tgz:934.got - 2010.05.20 10:44:35.
