data_PCOD9576359
_publ_section_title
;
Structure prediction by ZEFSAII (Michael W. Deem and Ramdas Pophale) SiO2 
 PCOD9576359
Probable space group: P 32 1 2
;
_chemical_formula_sum "Si O2"
_cell_formula_units_Z 45
_cell_length_a 12.143505
_cell_length_b 12.143505
_cell_length_c 17.201766
_cell_angle_alpha 90.000000
_cell_angle_beta 90.000000
_cell_angle_gamma 120.000000
_cell_volume 2196.806370
_symmetry_space_group_name_H-M "P 32 1 2"
_symmetry_group_IT_number 153
_symmetry_cell_setting 'hexagonal'
loop_
_space_group_symop_operation_xyz
x,y,z
-y,x-y,2/3+z
-x+y,-x,1/3+z
-y,-x,1/3-z
-x+y,y,2/3-z
x,x-y,-z
loop_
_atom_site_type_symbol
_atom_site_label
_atom_site_fract_x
_atom_site_fract_y
_atom_site_fract_z
Si Si1 0.809592 0.937688 0.587202
Si Si2 0.696673 0.952822 0.917509
Si Si3 0.432479 0.982826 0.608177
Si Si4 0.483711 0.710506 0.825246
Si Si5 0.615848 0.270067 0.081987
Si Si6 0.042714 0.085428 0.333334
Si Si7 0.274723 0.416612 0.010956
Si Si8 0.338436 0.111331 0.895367
O O1 0.843535 0.921768 0.500000
O O2 0.662622 0.846014 0.607552
O O3 0.894909 0.911785 0.648944
O O4 0.835504 0.081698 0.585777
O O5 0.573040 0.838916 0.875875
O O6 0.813350 0.925261 0.929861
O O7 0.749403 0.074870 0.862050
O O8 0.651927 0.977315 0.000574
O O9 0.383163 0.910067 0.527080
O O10 0.485139 0.900238 0.650304
O O11 0.541680 0.125887 0.595061
O O12 0.337449 0.674897 0.833334
O O13 0.520046 0.741620 0.735737
O O14 0.679923 0.320078 0.166667
O O15 0.482903 0.270751 0.085397
O O16 0.680638 0.340319 0.000000
O O17 0.290599 0.311781 0.060395
#
# Coordination Sequence:
#
# PCOD9576359 Si02
#       8
#     6   6   6   6   6   3   6   6
#     4  12  23  40  64  99 139 183 223 283 359 422
#     4  11  23  41  65 101 135 180 230 290 351 424
#     4  12  23  44  68  98 137 179 236 290 356 433
#     4  11  24  42  70  98 129 180 237 290 351 424
#     4  12  25  46  72 101 137 187 238 301 363 437
#     4  12  22  40  62  94 144 172 222 286 348 420
#     4  11  23  41  67  97 133 173 231 291 339 422
#     4  11  21  40  68  99 127 173 241 283 344 417
#
# _framework density 20.484282
#
# number of rings (size 3 to 8) (size 9 to 14) (size 15 to 20)
#    0.000    0.533    8.000    0.800    0.000    0.533 
#    2.400    0.000    0.000    0.000    0.000    0.000 
#    0.000    0.000    0.000    0.000    0.000    0.000 
#
# Total GULP energy -250991.040253 kJ/mol
# GULP energy per Si atom -5577.578672 kJ/mol
# Density = 2.043766 g / cm^3
# Si number density = 20.484282 Si / 1000 Ang^3
#
#
#
# Elastic Constant Matrix: (Units=GPa)
#
#
# Indices 1 2 3 4 5 6 
#
# 1 56.1088 4.6179 29.0530 0.0000 -3.9839 0.0000
# 2 4.6179 56.1088 29.0530 0.0000 3.9839 0.0000
# 3 29.0530 29.0530 99.7747 0.0000 0.0000 0.0000
# 4 0.0000 0.0000 0.0000 33.3552 0.0000 3.9839
# 5 -3.9839 3.9839 0.0000 0.0000 33.3552 0.0000
# 6 0.0000 0.0000 0.0000 3.9839 0.0000 25.7454
#
#
#
# Elastic Compliance Matrix: (Units=1/GPa)
#
#
# Indices 1 2 3 4 5 6 
#
# 1 0.021307 0.001520 -0.006647 0.000000 0.002363 0.000000
# 2 0.001520 0.021307 -0.006647 0.000000 -0.002363 0.000000
# 3 -0.006647 -0.006647 0.013894 0.000000 0.000000 0.000000
# 4 0.000000 0.000000 0.000000 0.030545 0.000000 -0.004727
# 5 0.002363 -0.002363 0.000000 0.000000 0.030545 0.000000
# 6 0.000000 0.000000 0.000000 -0.004727 0.000000 0.039573
#
#
# Mechanical properties :
#
#
# Convention : Reuss Voigt Hill
#
# Bulk Modulus (GPa) = 30.33949 37.49335 33.91642
# Shear Modulus (GPa) = 26.08179 28.44240 27.26210
#
# Velocity S-wave (km/s) = 3.57215 3.73030 3.65208
# Velocity P-wave (km/s) = 5.64419 6.07427 5.86317
#
# Compressibility (1/GPa) = 0.03296034
#
# Stress axis : x y z
#
# Youngs Moduli (GPa) = 46.93290 46.93290 71.97546
#
# Poissons Ratio (x) = -0.07136 0.47842
# Poissons Ratio (y) = -0.07136 0.47842
# Poissons Ratio (z) = 0.31196 0.31196
#
# Static dielectric constant tensor:
#      x y z
#    x 1.722360 0.000000 0.000000 
#    y 0.000000 1.722360 0.000000 
#    z 0.000000 0.000000 1.864090 
# 
# From -- ./inp_files/3648.got.cif
#   From: 2010.05.17/outbox.cif.g08.bks.cpg/sg153_2_cif.got.tgz:3648.got - 2010.05.20 10:38:56.
