data_PCOD9576761
_publ_section_title
;
Structure prediction by ZEFSAII (Michael W. Deem and Ramdas Pophale) SiO2 
 PCOD9576761
Probable space group: R 3 2
;
_chemical_formula_sum "Si O2"
_cell_formula_units_Z 60
_cell_length_a 17.064856
_cell_length_b 17.064856
_cell_length_c 12.672027
_cell_angle_alpha 90.000000
_cell_angle_beta 90.000000
_cell_angle_gamma 120.000000
_cell_volume 3195.817548
_symmetry_space_group_name_H-M "R 3 2"
_symmetry_group_IT_number 155
_symmetry_cell_setting 'hexagonal'
loop_
_space_group_symop_operation_xyz
x,y,z
-y,x-y,z
-x+y,-x,z
x-y,-y,-z
-x,-x+y,-z
y,x,-z
2/3+x,1/3+y,1/3+z
2/3-y,1/3+x-y,1/3+z
2/3-x+y,1/3-x,1/3+z
2/3+x-y,1/3-y,1/3-z
2/3-x,1/3-x+y,1/3-z
2/3+y,1/3+x,1/3-z
1/3+x,2/3+y,2/3+z
1/3-y,2/3+x-y,2/3+z
1/3-x+y,2/3-x,2/3+z
1/3+x-y,2/3-y,2/3-z
1/3-x,2/3-x+y,2/3-z
1/3+y,2/3+x,2/3-z
loop_
_atom_site_type_symbol
_atom_site_label
_atom_site_fract_x
_atom_site_fract_y
_atom_site_fract_z
Si Si1 0.290874 0.049895 0.884665
Si Si2 0.990782 0.553899 0.332043
Si Si3 0.666668 0.333334 0.460273
Si Si4 0.098256 0.199683 0.809919
O O1 0.370671 0.037338 0.833334
O O2 0.201758 0.989203 0.813876
O O3 0.306362 0.150603 0.902892
O O4 0.267848 0.000000 0.000000
O O5 0.968528 0.635195 0.333334
O O6 0.922579 0.490309 0.423191
O O7 0.089836 0.582354 0.374626
O O8 0.666668 0.333334 0.333334
O O9 0.638620 0.235477 0.502478
#
# Coordination Sequence:
#
# PCOD9576761 Si02
#       4
#    18  18   6  18
#     4  10  16  31  54  83 117 152 187 236 292 348
#     4  10  19  33  56  80 120 152 184 243 297 351
#     4  12  21  33  60  90 106 149 193 252 309 351
#     4  10  19  32  54  83 114 142 186 240 296 351
#
# _framework density 18.774539000000001
#
# number of rings (size 3 to 8) (size 9 to 14) (size 15 to 20)
#    0.000    1.800    6.000    5.400    0.000    0.000 
#    0.000    0.000   19.800    1.800    0.000    0.000 
#    0.000    0.000    0.000    0.000    0.000    0.000 
#
# Total GULP energy -111390.190972 kJ/mol
# GULP energy per Si atom -5569.509549 kJ/mol
# Density = 1.873181 g / cm^3
# Si number density = 18.774539 Si / 1000 Ang^3
#
#
#
# Elastic Constant Matrix: (Units=GPa)
#
#
# Indices 1 2 3 4 5 6 
#
# 1 77.8777 55.8867 30.7018 2.2210 0.0004 -0.0001
# 2 55.8867 77.8784 30.7021 -2.2214 -0.0002 -0.0003
# 3 30.7018 30.7021 28.6756 0.0004 0.0000 0.0000
# 4 2.2210 -2.2214 0.0004 10.4603 0.0000 -0.0005
# 5 0.0004 -0.0002 0.0000 0.0000 10.4601 2.2223
# 6 -0.0001 -0.0003 0.0000 -0.0005 2.2223 10.9940
#
#
#
# Elastic Compliance Matrix: (Units=1/GPa)
#
#
# Indices 1 2 3 4 5 6 
#
# 1 0.031106 -0.016405 -0.015740 -0.010088 -0.000002 0.000000
# 2 -0.016405 0.031106 -0.015741 0.010090 0.000001 0.000001
# 3 -0.015740 -0.015741 0.068577 -0.000003 0.000001 -0.000001
# 4 -0.010088 0.010090 -0.000003 0.099884 -0.000001 0.000005
# 5 -0.000002 0.000001 0.000001 -0.000001 0.099892 -0.020192
# 6 0.000000 0.000001 -0.000001 0.000005 -0.020192 0.095041
#
#
# Mechanical properties :
#
#
# Convention : Reuss Voigt Hill
#
# Bulk Modulus (GPa) = 28.55540 46.55701 37.55620
# Shear Modulus (GPa) = 9.38003 10.85895 10.11949
#
# Velocity S-wave (km/s) = 2.23763 2.40758 2.32416
# Velocity P-wave (km/s) = 4.68173 5.70792 5.22011
#
# Compressibility (1/GPa) = 0.03501965
#
# Stress axis : x y z
#
# Youngs Moduli (GPa) = 32.14854 32.14823 14.58207
#
# Poissons Ratio (x) = 0.52738 0.22951
# Poissons Ratio (y) = 0.52738 0.22953
# Poissons Ratio (z) = 0.50600 0.50603
#
# Static dielectric constant tensor:
#      x y z
#    x 1.715360 0.000000 0.000000 
#    y 0.000000 1.715360 0.000000 
#    z 0.000000 0.000000 1.674790 
# 
# From -- ./inp_files/3555.got.cif
#   From: 2010.05.17/outbox.cif.g08.bks.cpg/sg155_2_cif.got.tgz:3555.got - 2010.05.20 10:44:35.
