data_PCOD9576124
_publ_section_title
;
Structure prediction by ZEFSAII (Michael W. Deem and Ramdas Pophale) SiO2 
 PCOD9576124
Probable space group: P 31 2 1
;
_chemical_formula_sum "Si O2"
_cell_formula_units_Z 42
_cell_length_a 14.579203
_cell_length_b 14.579203
_cell_length_c 12.860077
_cell_angle_alpha 90.000000
_cell_angle_beta 90.000000
_cell_angle_gamma 120.000000
_cell_volume 2367.237145
_symmetry_space_group_name_H-M "P 31 2 1"
_symmetry_group_IT_number 152
_symmetry_cell_setting 'hexagonal'
loop_
_space_group_symop_operation_xyz
x,y,z
-y,x-y,1/3+z
-x+y,-x,2/3+z
x-y,-y,2/3-z
-x,-x+y,1/3-z
y,x,-z
loop_
_atom_site_type_symbol
_atom_site_label
_atom_site_fract_x
_atom_site_fract_y
_atom_site_fract_z
Si Si1 0.485574 0.743512 0.899737
Si Si2 0.170748 0.762252 0.011259
Si Si3 0.602771 0.046633 0.660119
Si Si4 0.017980 0.374778 0.286816
Si Si5 0.500424 0.416590 0.091485
Si Si6 0.575390 0.314742 0.830489
Si Si7 0.513810 0.720767 0.282717
O O1 0.525634 0.779405 0.782838
O O2 0.472735 0.628487 0.917227
O O3 0.368018 0.724760 0.899284
O O4 0.546999 0.841161 0.977876
O O5 0.244372 0.889514 0.997400
O O6 0.195167 0.724750 0.902045
O O7 0.046279 0.674062 0.024371
O O8 0.497394 0.040947 0.711565
O O9 0.571258 0.038068 0.539463
O O10 0.000000 0.342050 0.166667
O O11 0.910180 0.310048 0.351931
O O12 0.450549 0.290322 0.080307
O O13 0.458793 0.458793 0.000000
O O14 0.646353 0.440665 0.811602
O O15 0.552600 0.263006 0.944008
#
# Coordination Sequence:
#
# PCOD9576124 Si02
#       7
#     6   6   6   6   6   6   6
#     4  11  21  37  56  85 118 163 205 246 302 365
#     4  12  21  35  57  85 121 154 207 249 300 362
#     4  12  23  39  57  85 126 161 204 253 301 371
#     4  12  22  35  57  87 117 160 206 246 303 370
#     4  11  26  39  58  87 127 165 206 251 315 370
#     4  11  18  32  53  81 113 160 197 244 289 358
#     4  11  23  34  57  78 120 160 200 245 305 359
#
# _framework density 17.742201999999999
#
# number of rings (size 3 to 8) (size 9 to 14) (size 15 to 20)
#    0.000    0.571    7.143    2.143    6.000    0.000 
#    0.000    0.000    0.000    0.000    0.000    1.000 
#    0.000    0.000    0.000    0.000    0.000    0.000 
#
# Total GULP energy -233924.037707 kJ/mol
# GULP energy per Si atom -5569.619945 kJ/mol
# Density = 1.770182 g / cm^3
# Si number density = 17.742202 Si / 1000 Ang^3
#
#
#
# Elastic Constant Matrix: (Units=GPa)
#
#
# Indices 1 2 3 4 5 6 
#
# 1 72.6743 38.8473 10.7268 -6.3421 -0.0001 0.0000
# 2 38.8473 72.6743 10.7268 6.3421 0.0001 0.0000
# 3 10.7268 10.7268 52.0867 0.0000 0.0000 0.0000
# 4 -6.3421 6.3421 0.0000 24.3433 0.0000 0.0001
# 5 -0.0001 0.0001 0.0000 0.0000 24.3433 -6.3421
# 6 0.0000 0.0000 0.0000 0.0001 -6.3421 16.9135
#
#
#
# Elastic Compliance Matrix: (Units=1/GPa)
#
#
# Indices 1 2 3 4 5 6 
#
# 1 0.021050 -0.011713 -0.001923 0.008536 0.000000 0.000000
# 2 -0.011713 0.021050 -0.001923 -0.008536 0.000000 0.000000
# 3 -0.001923 -0.001923 0.019991 0.000000 0.000000 0.000000
# 4 0.008536 -0.008536 0.000000 0.045526 0.000000 0.000000
# 5 0.000000 0.000000 0.000000 0.000000 0.045526 0.017071
# 6 0.000000 0.000000 0.000000 0.000000 0.017071 0.065526
#
#
# Mechanical properties :
#
#
# Convention : Reuss Voigt Hill
#
# Bulk Modulus (GPa) = 32.28623 35.33748 33.81186
# Shear Modulus (GPa) = 19.22259 22.26232 20.74246
#
# Velocity S-wave (km/s) = 3.29513 3.54611 3.42292
# Velocity P-wave (km/s) = 5.71963 6.06028 5.89241
#
# Compressibility (1/GPa) = 0.03097296
#
# Stress axis : x y z
#
# Youngs Moduli (GPa) = 47.50642 47.50642 50.02310
#
# Poissons Ratio (x) = 0.55644 0.09619
# Poissons Ratio (y) = 0.55644 0.09619
# Poissons Ratio (z) = 0.09135 0.09135
#
# Static dielectric constant tensor:
#      x y z
#    x 1.655850 0.000000 0.000000 
#    y 0.000000 1.655850 0.000000 
#    z 0.000000 0.000000 1.657260 
# 
# From -- ./inp_files/1797.got.cif
#   From: 2010.05.17/outbox.cif.g08.bks.cpg/sg152_1_cif.got.tgz:1797.got - 2010.05.20 10:36:06.
