data_PCOD9576763
_publ_section_title
;
Structure prediction by ZEFSAII (Michael W. Deem and Ramdas Pophale) SiO2 
 PCOD9576763
Probable space group: R 3 2
;
_chemical_formula_sum "Si O2"
_cell_formula_units_Z 81
_cell_length_a 19.712024
_cell_length_b 19.712024
_cell_length_c 13.975396
_cell_angle_alpha 90.000000
_cell_angle_beta 90.000000
_cell_angle_gamma 120.000000
_cell_volume 4702.807400
_symmetry_space_group_name_H-M "R 3 2"
_symmetry_group_IT_number 155
_symmetry_cell_setting 'hexagonal'
loop_
_space_group_symop_operation_xyz
x,y,z
-y,x-y,z
-x+y,-x,z
x-y,-y,-z
-x,-x+y,-z
y,x,-z
2/3+x,1/3+y,1/3+z
2/3-y,1/3+x-y,1/3+z
2/3-x+y,1/3-x,1/3+z
2/3+x-y,1/3-y,1/3-z
2/3-x,1/3-x+y,1/3-z
2/3+y,1/3+x,1/3-z
1/3+x,2/3+y,2/3+z
1/3-y,2/3+x-y,2/3+z
1/3-x+y,2/3-x,2/3+z
1/3+x-y,2/3-y,2/3-z
1/3-x,2/3-x+y,2/3-z
1/3+y,2/3+x,2/3-z
loop_
_atom_site_type_symbol
_atom_site_label
_atom_site_fract_x
_atom_site_fract_y
_atom_site_fract_z
Si Si1 0.000000 0.579730 0.000000
Si Si2 0.593694 0.805138 0.515231
Si Si3 0.388760 0.505653 0.531320
Si Si4 0.636787 0.886586 0.990717
Si Si5 0.442636 0.080580 0.438698
O O1 0.963342 0.518190 0.084368
O O2 0.933347 0.598142 0.963399
O O3 0.518856 0.816808 0.538003
O O4 0.659753 0.849486 0.596880
O O5 0.572271 0.716261 0.508728
O O6 0.412202 0.504606 0.420376
O O7 0.392139 0.436015 0.588494
O O8 0.463123 0.582709 0.573408
O O9 0.404577 0.071243 0.333334
O O10 0.408303 0.000000 0.500000
#
# Coordination Sequence:
#
# PCOD9576763 Si02
#       5
#     9  18  18  18  18
#     4  10  20  30  56  86 110 130 180 248 268 320
#     4  11  21  34  56  84 111 139 190 233 274 333
#     4  10  19  35  55  80 102 149 188 217 281 330
#     4  10  16  32  56  78 106 138 180 228 280 319
#     4  12  24  38  56  77 117 157 181 223 288 351
#
# _framework density 17.223755000000001
#
# number of rings (size 3 to 8) (size 9 to 14) (size 15 to 20)
#    0.000    1.333    6.667    0.667    1.556    0.000 
#    1.333    0.000    0.000    0.000    0.000    0.000 
#    0.000    0.000    0.444    0.000    0.000    0.000 
#
# Total GULP energy -150324.281946 kJ/mol
# GULP energy per Si atom -5567.565998 kJ/mol
# Density = 1.718455 g / cm^3
# Si number density = 17.223755 Si / 1000 Ang^3
#
#
#
# Elastic Constant Matrix: (Units=GPa)
#
#
# Indices 1 2 3 4 5 6 
#
# 1 77.1396 38.4907 21.5773 7.8336 0.0001 0.0000
# 2 38.4907 77.1396 21.5773 -7.8336 -0.0001 0.0000
# 3 21.5773 21.5773 61.4795 0.0000 0.0000 0.0000
# 4 7.8336 -7.8336 0.0000 24.7607 0.0000 -0.0001
# 5 0.0001 -0.0001 0.0000 0.0000 24.7607 7.8336
# 6 0.0000 0.0000 0.0000 -0.0001 7.8336 19.3245
#
#
#
# Elastic Compliance Matrix: (Units=1/GPa)
#
#
# Indices 1 2 3 4 5 6 
#
# 1 0.019816 -0.009864 -0.003493 -0.009390 0.000000 0.000000
# 2 -0.009864 0.019816 -0.003493 0.009390 0.000000 0.000000
# 3 -0.003493 -0.003493 0.018717 0.000000 0.000000 0.000000
# 4 -0.009390 0.009390 0.000000 0.046328 0.000000 0.000000
# 5 0.000000 0.000000 0.000000 0.000000 0.046328 -0.018780
# 6 0.000000 0.000000 0.000000 0.000000 -0.018780 0.059361
#
#
# Mechanical properties :
#
#
# Convention : Reuss Voigt Hill
#
# Bulk Modulus (GPa) = 40.56824 42.11660 41.34242
# Shear Modulus (GPa) = 19.81900 22.71006 21.26453
#
# Velocity S-wave (km/s) = 3.39585 3.63510 3.51751
# Velocity P-wave (km/s) = 6.24343 6.49032 6.36808
#
# Compressibility (1/GPa) = 0.02464983
#
# Stress axis : x y z
#
# Youngs Moduli (GPa) = 50.46393 50.46393 53.42655
#
# Poissons Ratio (x) = 0.49779 0.18661
# Poissons Ratio (y) = 0.49779 0.18661
# Poissons Ratio (z) = 0.17626 0.17626
#
# Static dielectric constant tensor:
#      x y z
#    x 1.596660 0.000000 0.000000 
#    y 0.000000 1.596660 0.000000 
#    z 0.000000 0.000000 1.641420 
# 
# From -- ./inp_files/4948.got.cif
#   From: 2010.05.17/outbox.cif.g08.bks.cpg/sg155_3_cif.got.tgz:4948.got - 2010.05.20 10:44:35.
