data_PCOD9576075
_publ_section_title
;
Structure prediction by ZEFSAII (Michael W. Deem and Ramdas Pophale) SiO2 
 PCOD9576075
Probable space group: P 31 2 1
;
_chemical_formula_sum "Si O2"
_cell_formula_units_Z 36
_cell_length_a 8.956281
_cell_length_b 8.956281
_cell_length_c 24.211880
_cell_angle_alpha 90.000000
_cell_angle_beta 90.000000
_cell_angle_gamma 120.000000
_cell_volume 1681.955752
_symmetry_space_group_name_H-M "P 31 2 1"
_symmetry_group_IT_number 152
_symmetry_cell_setting 'hexagonal'
loop_
_space_group_symop_operation_xyz
x,y,z
-y,x-y,1/3+z
-x+y,-x,2/3+z
x-y,-y,2/3-z
-x,-x+y,1/3-z
y,x,-z
loop_
_atom_site_type_symbol
_atom_site_label
_atom_site_fract_x
_atom_site_fract_y
_atom_site_fract_z
Si Si1 0.467220 0.864698 0.375727
Si Si2 0.635604 0.851521 0.880008
Si Si3 0.738748 0.066826 0.991027
Si Si4 0.333198 0.473538 0.867581
Si Si5 0.327670 0.183641 0.245125
Si Si6 0.334474 0.917314 0.629656
O O1 0.271219 0.754959 0.394262
O O2 0.567317 0.788812 0.342460
O O3 0.055339 0.702529 0.271679
O O4 0.461843 0.000000 0.333334
O O5 0.450535 0.682660 0.866211
O O6 0.030387 0.598662 0.762218
O O7 0.755306 0.766195 0.888908
O O8 0.705500 0.000000 0.833334
O O9 0.594157 0.087277 0.023762
O O10 0.790900 0.978490 0.039524
O O11 0.901181 0.245318 0.971699
O O12 0.299098 0.380461 0.809225
O O13 0.160934 0.424412 0.902509
#
# Coordination Sequence:
#
# PCOD9576075 Si02
#       6
#     6   6   6   6   6   6
#     4   9  20  41  63  90 128 174 222 276 343 413
#     4  11  25  43  66 102 135 181 230 289 348 418
#     4  12  25  41  68  97 135 177 234 290 348 421
#     4  10  23  42  68  95 135 180 224 281 352 417
#     4  11  23  40  68  94 138 177 225 281 355 417
#     4  11  24  43  67  97 132 181 230 287 351 415
#
# _framework density 21.403656000000002
#
# number of rings (size 3 to 8) (size 9 to 14) (size 15 to 20)
#    0.000    1.333    0.000    6.500    9.333    5.333 
#    0.000    0.000    0.000    0.000    0.000    0.000 
#    0.000    0.000    0.000    0.000    0.000    0.000 
#
# Total GULP energy -200934.488153 kJ/mol
# GULP energy per Si atom -5581.513560 kJ/mol
# Density = 2.135494 g / cm^3
# Si number density = 21.403656 Si / 1000 Ang^3
#
#
#
# Elastic Constant Matrix: (Units=GPa)
#
#
# Indices 1 2 3 4 5 6 
#
# 1 61.2743 19.3829 18.6344 -11.5353 0.0004 0.0000
# 2 19.3829 61.2743 18.6344 11.5353 -0.0004 0.0000
# 3 18.6344 18.6344 125.8038 0.0000 0.0000 0.0000
# 4 -11.5353 11.5353 0.0000 11.4843 0.0000 -0.0004
# 5 0.0004 -0.0004 0.0000 0.0000 11.4843 -11.5353
# 6 0.0000 0.0000 0.0000 -0.0004 -11.5353 20.9457
#
#
#
# Elastic Compliance Matrix: (Units=1/GPa)
#
#
# Indices 1 2 3 4 5 6 
#
# 1 0.033366 -0.020057 -0.001971 0.053661 -0.000002 0.000000
# 2 -0.020057 0.033366 -0.001971 -0.053661 0.000002 0.000000
# 3 -0.001971 -0.001971 0.008533 0.000000 0.000000 0.000000
# 4 0.053661 -0.053661 0.000000 0.194875 0.000000 0.000004
# 5 -0.000002 0.000002 0.000000 0.000000 0.194875 0.107322
# 6 0.000000 0.000000 0.000000 0.000004 0.107322 0.106847
#
#
# Mechanical properties :
#
#
# Convention : Reuss Voigt Hill
#
# Bulk Modulus (GPa) = 36.67637 40.18396 38.43016
# Shear Modulus (GPa) = 7.94974 21.56291 14.75633
#
# Velocity S-wave (km/s) = 1.92932 3.17746 2.62855
# Velocity P-wave (km/s) = 4.70487 5.68127 5.21596
#
# Compressibility (1/GPa) = 0.02726552
#
# Stress axis : x y z
#
# Youngs Moduli (GPa) = 29.97031 29.97031 117.19355
#
# Poissons Ratio (x) = 0.60112 0.23103
# Poissons Ratio (y) = 0.60112 0.23103
# Poissons Ratio (z) = 0.05908 0.05908
#
# Static dielectric constant tensor:
#      x y z
#    x 1.859050 0.000000 0.000000 
#    y 0.000000 1.859050 0.000000 
#    z 0.000000 0.000000 1.826060 
# 
# From -- ./inp_files/3370.got.cif
#   From: 2010.05.17/outbox.cif.g08.bks.cpg/sg152_2_cif.got.tgz:3370.got - 2010.05.20 10:36:06.
