data_PCOD9576145
_publ_section_title
;
Structure prediction by ZEFSAII (Michael W. Deem and Ramdas Pophale) SiO2 
 PCOD9576145
Probable space group: P 31 2 1
;
_chemical_formula_sum "Si O2"
_cell_formula_units_Z 33
_cell_length_a 13.374368
_cell_length_b 13.374368
_cell_length_c 9.351017
_cell_angle_alpha 90.000000
_cell_angle_beta 90.000000
_cell_angle_gamma 120.000000
_cell_volume 1448.558423
_symmetry_space_group_name_H-M "P 31 2 1"
_symmetry_group_IT_number 152
_symmetry_cell_setting 'hexagonal'
loop_
_space_group_symop_operation_xyz
x,y,z
-y,x-y,1/3+z
-x+y,-x,2/3+z
x-y,-y,2/3-z
-x,-x+y,1/3-z
y,x,-z
loop_
_atom_site_type_symbol
_atom_site_label
_atom_site_fract_x
_atom_site_fract_y
_atom_site_fract_z
Si Si1 0.066476 0.066476 0.500000
Si Si2 0.564424 0.572404 0.155535
Si Si3 0.730380 0.477727 0.771859
Si Si4 0.246620 0.752253 0.872411
Si Si5 0.888884 0.496049 0.027717
Si Si6 0.831139 0.168254 0.869768
O O1 0.199032 0.093054 0.518985
O O2 0.000000 0.019794 0.666667
O O3 0.564708 0.690920 0.171227
O O4 0.483987 0.485885 0.278209
O O5 0.696085 0.602666 0.166880
O O6 0.521758 0.521758 0.000000
O O7 0.612846 0.358332 0.743690
O O8 0.794280 0.522521 0.623213
O O9 0.800596 0.458994 0.894750
O O10 0.382051 0.851390 0.878282
O O11 0.172741 0.789300 0.969716
O O12 0.884639 0.599775 0.106288
#
# Coordination Sequence:
#
# PCOD9576145 Si02
#       6
#     3   6   6   6   6   6
#     4  12  32  60  88 100 140 198 272 338 384 414
#     4  11  23  39  66 103 142 184 234 284 355 438
#     4  12  21  37  65 100 147 191 228 278 356 450
#     4  11  22  38  67 108 153 190 225 279 363 457
#     4  11  22  40  66  99 152 190 221 283 365 435
#     4  11  25  48  72 105 141 189 245 308 362 431
#
# _framework density 22.781268000000001
#
# number of rings (size 3 to 8) (size 9 to 14) (size 15 to 20)
#    0.000    0.727    5.455    2.727    2.545    4.364 
#    0.000    0.000    0.000    0.000    0.000    0.000 
#    0.000    0.000    0.000    0.000    0.000    0.000 
#
# Total GULP energy -184074.547485 kJ/mol
# GULP energy per Si atom -5578.016590 kJ/mol
# Density = 2.272942 g / cm^3
# Si number density = 22.781268 Si / 1000 Ang^3
#
#
#
# Elastic Constant Matrix: (Units=GPa)
#
#
# Indices 1 2 3 4 5 6 
#
# 1 93.3168 27.6862 43.3712 5.1789 0.0000 0.0000
# 2 27.6862 93.3168 43.3712 -5.1789 0.0000 0.0000
# 3 43.3712 43.3712 158.0516 0.0000 0.0000 0.0000
# 4 5.1789 -5.1789 0.0000 31.6951 0.0000 0.0000
# 5 0.0000 0.0000 0.0000 0.0000 31.6951 5.1789
# 6 0.0000 0.0000 0.0000 0.0000 5.1789 32.8153
#
#
#
# Elastic Compliance Matrix: (Units=1/GPa)
#
#
# Indices 1 2 3 4 5 6 
#
# 1 0.012964 -0.002676 -0.002823 -0.002556 0.000000 0.000000
# 2 -0.002676 0.012964 -0.002823 0.002556 0.000000 0.000000
# 3 -0.002823 -0.002823 0.007876 0.000000 0.000000 0.000000
# 4 -0.002556 0.002556 0.000000 0.032386 0.000000 0.000000
# 5 0.000000 0.000000 0.000000 0.000000 0.032386 -0.005111
# 6 0.000000 0.000000 0.000000 0.000000 -0.005111 0.031280
#
#
# Mechanical properties :
#
#
# Convention : Reuss Voigt Hill
#
# Bulk Modulus (GPa) = 58.27521 63.72693 61.00107
# Shear Modulus (GPa) = 32.84694 34.59153 33.71924
#
# Velocity S-wave (km/s) = 3.80128 3.90092 3.85142
# Velocity P-wave (km/s) = 6.70090 6.95152 6.82736
#
# Compressibility (1/GPa) = 0.01715996
#
# Stress axis : x y z
#
# Youngs Moduli (GPa) = 77.13610 77.13610 126.96047
#
# Poissons Ratio (x) = 0.20642 0.35843
# Poissons Ratio (y) = 0.20642 0.35843
# Poissons Ratio (z) = 0.21777 0.21777
#
# Static dielectric constant tensor:
#      x y z
#    x 1.880880 0.000000 0.000000 
#    y 0.000000 1.880880 0.000000 
#    z 0.000000 0.000000 1.943310 
# 
# From -- ./inp_files/1164.got.cif
#   From: 2010.05.17/outbox.cif.g08.bks.cpg/sg152_1_cif.got.tgz:1164.got - 2010.05.20 10:36:06.
