data_PCOD9576185
_publ_section_title
;
Structure prediction by ZEFSAII (Michael W. Deem and Ramdas Pophale) SiO2 
 PCOD9576185
Probable space group: P 31 2 1
;
_chemical_formula_sum "Si O2"
_cell_formula_units_Z 48
_cell_length_a 11.042637
_cell_length_b 11.042637
_cell_length_c 20.896950
_cell_angle_alpha 90.000000
_cell_angle_beta 90.000000
_cell_angle_gamma 120.000000
_cell_volume 2206.780447
_symmetry_space_group_name_H-M "P 31 2 1"
_symmetry_group_IT_number 152
_symmetry_cell_setting 'hexagonal'
loop_
_space_group_symop_operation_xyz
x,y,z
-y,x-y,1/3+z
-x+y,-x,2/3+z
x-y,-y,2/3-z
-x,-x+y,1/3-z
y,x,-z
loop_
_atom_site_type_symbol
_atom_site_label
_atom_site_fract_x
_atom_site_fract_y
_atom_site_fract_z
Si Si1 0.624250 0.180487 0.600682
Si Si2 0.366454 0.058137 0.266490
Si Si3 0.595756 0.029768 0.464915
Si Si4 0.698759 0.228160 0.117969
Si Si5 0.504101 0.333963 0.534858
Si Si6 0.217907 0.059689 0.509148
Si Si7 0.608917 0.749124 0.273077
Si Si8 0.434686 0.026438 0.714773
O O1 0.786426 0.275720 0.612711
O O2 0.545671 0.267589 0.593673
O O3 0.551194 0.076516 0.658955
O O4 0.617311 0.110347 0.532211
O O5 0.442268 0.980176 0.236519
O O6 0.294731 0.000000 0.333334
O O7 0.252597 0.039865 0.214757
O O8 0.558137 0.877500 0.491303
O O9 0.722853 0.109084 0.415829
O O10 0.744953 0.377134 0.149442
O O11 0.543662 0.170550 0.087595
O O12 0.833080 0.269595 0.072794
O O13 0.358125 0.211744 0.508294
O O14 0.518573 0.475563 0.563391
O O15 0.092106 0.092106 0.500000
O O16 0.240259 0.984376 0.570697
O O17 0.616731 0.706399 0.346018
#
# Coordination Sequence:
#
# PCOD9576185 Si02
#       8
#     6   6   6   6   6   6   6   6
#     4  12  23  43  71 101 144 182 232 295 362 410
#     4  12  26  43  70 108 134 183 251 286 343 439
#     4  12  22  45  72  95 145 193 222 286 360 432
#     4  12  23  45  70 100 143 183 236 290 360 426
#     4  12  23  44  69 106 142 180 231 299 370 411
#     4  12  24  45  67 101 143 190 229 289 364 423
#     4  12  24  45  70 101 147 186 236 288 362 419
#     4  12  27  40  71 115 135 177 240 313 346 414
#
# _framework density 21.751142999999999
#
# number of rings (size 3 to 8) (size 9 to 14) (size 15 to 20)
#    0.000    0.000    8.750    1.875    7.000    0.000 
#    0.000    1.250    0.000    0.750    0.000    0.000 
#    0.000    0.000    0.000    0.000    0.000    0.000 
#
# Total GULP energy -268024.556077 kJ/mol
# GULP energy per Si atom -5583.844918 kJ/mol
# Density = 2.170164 g / cm^3
# Si number density = 21.751143 Si / 1000 Ang^3
#
#
#
# Elastic Constant Matrix: (Units=GPa)
#
#
# Indices 1 2 3 4 5 6 
#
# 1 66.1541 25.1122 -3.1011 -1.9333 0.0014 0.0000
# 2 25.1122 66.1541 -3.1011 1.9333 -0.0014 0.0000
# 3 -3.1011 -3.1011 61.8132 0.0000 0.0000 0.0000
# 4 -1.9333 1.9333 0.0000 24.8170 0.0000 -0.0014
# 5 0.0014 -0.0014 0.0000 0.0000 24.8170 -1.9333
# 6 0.0000 0.0000 0.0000 -0.0014 -1.9333 20.5209
#
#
#
# Elastic Compliance Matrix: (Units=1/GPa)
#
#
# Indices 1 2 3 4 5 6 
#
# 1 0.017770 -0.006776 0.000552 0.001912 -0.000001 0.000000
# 2 -0.006776 0.017770 0.000552 -0.001912 0.000001 0.000000
# 3 0.000552 0.000552 0.016233 0.000000 0.000000 0.000000
# 4 0.001912 -0.001912 0.000000 0.040593 0.000000 0.000003
# 5 -0.000001 0.000001 0.000000 0.000000 0.040593 0.003824
# 6 0.000000 0.000000 0.000000 0.000003 0.003824 0.049091
#
#
# Mechanical properties :
#
#
# Convention : Reuss Voigt Hill
#
# Bulk Modulus (GPa) = 24.73515 25.77127 25.25321
# Shear Modulus (GPa) = 24.16969 25.71174 24.94071
#
# Velocity S-wave (km/s) = 3.33707 3.44188 3.38988
# Velocity P-wave (km/s) = 5.12295 5.26016 5.19201
#
# Compressibility (1/GPa) = 0.04042829
#
# Stress axis : x y z
#
# Youngs Moduli (GPa) = 56.27475 56.27475 61.60242
#
# Poissons Ratio (x) = 0.38129 -0.03398
# Poissons Ratio (y) = 0.38129 -0.03398
# Poissons Ratio (z) = -0.03104 -0.03104
#
# Static dielectric constant tensor:
#      x y z
#    x 1.843390 0.000000 0.000000 
#    y 0.000000 1.843390 0.000000 
#    z 0.000000 0.000000 1.827020 
# 
# From -- ./inp_files/2839.got.cif
#   From: 2010.05.17/outbox.cif.g08.bks.cpg/sg152_2_cif.got.tgz:2839.got - 2010.05.20 10:36:06.
