data_PCOD9576382
_publ_section_title
;
Structure prediction by ZEFSAII (Michael W. Deem and Ramdas Pophale) SiO2 
 PCOD9576382
Probable space group: P 32 2 1
;
_chemical_formula_sum "Si O2"
_cell_formula_units_Z 45
_cell_length_a 14.185423
_cell_length_b 14.185423
_cell_length_c 12.896794
_cell_angle_alpha 90.000000
_cell_angle_beta 90.000000
_cell_angle_gamma 120.000000
_cell_volume 2247.485901
_symmetry_space_group_name_H-M "P 32 2 1"
_symmetry_group_IT_number 154
_symmetry_cell_setting 'hexagonal'
loop_
_space_group_symop_operation_xyz
x,y,z
-y,x-y,2/3+z
-x+y,-x,1/3+z
x-y,-y,1/3-z
-x,-x+y,2/3-z
y,x,-z
loop_
_atom_site_type_symbol
_atom_site_label
_atom_site_fract_x
_atom_site_fract_y
_atom_site_fract_z
Si Si1 0.529819 0.000000 0.666667
Si Si2 0.947106 0.905035 0.738147
Si Si3 0.804820 0.570477 0.263369
Si Si4 0.317683 0.158717 0.296273
Si Si5 0.218747 0.197780 0.878154
Si Si6 0.529771 0.908864 0.254279
Si Si7 0.566418 0.437506 0.196017
Si Si8 0.711150 0.526528 0.477940
O O1 0.642339 0.102452 0.623285
O O2 0.503086 0.049792 0.766408
O O3 0.864274 0.795458 0.679121
O O4 0.884188 0.962769 0.786026
O O5 0.000000 0.876293 0.833334
O O6 0.037765 0.000000 0.666667
O O7 0.864866 0.674401 0.189903
O O8 0.693209 0.480844 0.213709
O O9 0.759718 0.591784 0.371022
O O10 0.275972 0.207494 0.203311
O O11 0.393450 0.253347 0.377849
O O12 0.391877 0.118587 0.237999
O O13 0.232556 0.232556 0.000000
O O14 0.495944 0.937113 0.366463
O O15 0.408705 0.833817 0.206402
O O16 0.589680 0.000000 0.166667
O O17 0.516084 0.310144 0.171838
#
# Coordination Sequence:
#
# PCOD9576382 Si02
#       8
#     3   6   6   6   6   6   6   6
#     4  10  18  38  60  84 120 152 204 256 308 380
#     4  11  23  39  58  91 129 169 214 259 324 398
#     4  10  17  34  60  84 112 155 205 256 300 371
#     4  11  21  39  61  88 126 168 208 262 319 386
#     4  11  20  35  59  87 116 159 214 257 314 373
#     4  10  21  38  60  88 121 158 204 261 322 371
#     4   9  20  36  60  88 116 161 206 252 314 378
#     4   9  19  37  59  88 118 157 211 257 308 373
#
# _framework density 20.022373000000002
#
# number of rings (size 3 to 8) (size 9 to 14) (size 15 to 20)
#    0.000    1.867    3.333    2.000    0.000    2.133 
#    0.000   13.333    0.000    0.000    0.000    0.000 
#    0.000    0.000    0.000    0.000    0.000    0.000 
#
# Total GULP energy -250506.946227 kJ/mol
# GULP energy per Si atom -5566.821027 kJ/mol
# Density = 1.997680 g / cm^3
# Si number density = 20.022373 Si / 1000 Ang^3
#
#
#
# Elastic Constant Matrix: (Units=GPa)
#
#
# Indices 1 2 3 4 5 6 
#
# 1 72.6106 15.9639 34.0265 7.8668 0.0000 0.0000
# 2 15.9639 72.6106 34.0265 -7.8668 0.0000 0.0000
# 3 34.0265 34.0265 88.8345 0.0000 0.0000 0.0000
# 4 7.8668 -7.8668 0.0000 27.8577 0.0000 0.0000
# 5 0.0000 0.0000 0.0000 0.0000 27.8577 7.8668
# 6 0.0000 0.0000 0.0000 0.0000 7.8668 28.3233
#
#
#
# Elastic Compliance Matrix: (Units=1/GPa)
#
#
# Indices 1 2 3 4 5 6 
#
# 1 0.017577 -0.001579 -0.006128 -0.005409 0.000000 0.000000
# 2 -0.001579 0.017577 -0.006128 0.005409 0.000000 0.000000
# 3 -0.006128 -0.006128 0.015951 0.000000 0.000000 0.000000
# 4 -0.005409 0.005409 0.000000 0.038952 0.000000 0.000000
# 5 0.000000 0.000000 0.000000 0.000000 0.038952 -0.010819
# 6 0.000000 0.000000 0.000000 0.000000 -0.010819 0.038312
#
#
# Mechanical properties :
#
#
# Convention : Reuss Voigt Hill
#
# Bulk Modulus (GPa) = 42.66922 44.67661 43.67292
# Shear Modulus (GPa) = 24.65473 26.81032 25.73252
#
# Velocity S-wave (km/s) = 3.51288 3.66323 3.58884
# Velocity P-wave (km/s) = 6.14905 6.34461 6.24760
#
# Compressibility (1/GPa) = 0.02343610
#
# Stress axis : x y z
#
# Youngs Moduli (GPa) = 56.89297 56.89297 62.69144
#
# Poissons Ratio (x) = 0.08983 0.38416
# Poissons Ratio (y) = 0.08983 0.38416
# Poissons Ratio (z) = 0.34863 0.34863
#
# Static dielectric constant tensor:
#      x y z
#    x 1.725300 0.000000 0.000000 
#    y 0.000000 1.725300 0.000000 
#    z 0.000000 0.000000 1.788070 
# 
# From -- ./inp_files/1798.got.cif
#   From: 2010.05.17/outbox.cif.g08.bks.cpg/sg154_1_cif.got.tgz:1798.got - 2010.05.20 10:41:43.
