data_PCOD9576149
_publ_section_title
;
Structure prediction by ZEFSAII (Michael W. Deem and Ramdas Pophale) SiO2 
 PCOD9576149
Probable space group: P 31 2 1
;
_chemical_formula_sum "Si O2"
_cell_formula_units_Z 30
_cell_length_a 17.352476
_cell_length_b 17.352476
_cell_length_c 5.468243
_cell_angle_alpha 90.000000
_cell_angle_beta 90.000000
_cell_angle_gamma 120.000000
_cell_volume 1425.940297
_symmetry_space_group_name_H-M "P 31 2 1"
_symmetry_group_IT_number 152
_symmetry_cell_setting 'hexagonal'
loop_
_space_group_symop_operation_xyz
x,y,z
-y,x-y,1/3+z
-x+y,-x,2/3+z
x-y,-y,2/3-z
-x,-x+y,1/3-z
y,x,-z
loop_
_atom_site_type_symbol
_atom_site_label
_atom_site_fract_x
_atom_site_fract_y
_atom_site_fract_z
Si Si1 0.210337 0.303068 0.123504
Si Si2 0.237110 0.596029 0.899830
Si Si3 0.821541 0.227412 0.617581
Si Si4 0.545161 0.900567 0.766121
Si Si5 0.248893 0.053043 0.575628
O O1 0.300327 0.390503 0.208539
O O2 0.144009 0.250876 0.347292
O O3 0.237562 0.237562 0.000000
O O4 0.163327 0.342335 0.946958
O O5 0.283957 0.681585 0.723859
O O6 0.189436 0.500851 0.770875
O O7 0.164034 0.605738 0.052290
O O8 0.900861 0.251880 0.810203
O O9 0.725053 0.150946 0.710384
O O10 0.571321 0.000000 0.833334
O O11 0.193140 0.000000 0.333334
O O12 0.225128 0.000000 0.833334
#
# Coordination Sequence:
#
# PCOD9576149 Si02
#       5
#     6   6   6   6   6
#     4  11  22  41  75 104 142 190 244 299 363 435
#     4  12  24  42  66  96 146 198 240 299 375 431
#     4  11  23  42  69 101 141 195 241 295 366 437
#     4  11  23  40  67 101 143 187 253 307 355 432
#     4  11  24  46  70 105 147 184 237 304 361 436
#
# _framework density 21.038748999999999
#
# number of rings (size 3 to 8) (size 9 to 14) (size 15 to 20)
#    0.000    0.800    8.000    0.000    0.000    0.000 
#    3.600    1.000    0.000    0.000    5.200    0.000 
#    0.000    0.000    0.000    0.000    0.000    0.000 
#
# Total GULP energy -167270.974341 kJ/mol
# GULP energy per Si atom -5575.699145 kJ/mol
# Density = 2.099086 g / cm^3
# Si number density = 21.038749 Si / 1000 Ang^3
#
#
#
# Elastic Constant Matrix: (Units=GPa)
#
#
# Indices 1 2 3 4 5 6 
#
# 1 38.2675 34.9465 23.3181 -3.8409 -0.0001 0.0000
# 2 34.9465 38.2675 23.3181 3.8409 0.0001 0.0000
# 3 23.3181 23.3181 85.5516 0.0000 0.0000 0.0000
# 4 -3.8409 3.8409 0.0000 38.7560 0.0000 0.0001
# 5 -0.0001 0.0001 0.0000 0.0000 38.7560 -3.8409
# 6 0.0000 0.0000 0.0000 0.0001 -3.8409 1.6605
#
#
#
# Elastic Compliance Matrix: (Units=1/GPa)
#
#
# Indices 1 2 3 4 5 6 
#
# 1 0.203603 -0.187075 -0.004505 0.038718 0.000001 0.000000
# 2 -0.187075 0.203603 -0.004505 -0.038718 -0.000001 0.000000
# 3 -0.004505 -0.004505 0.014145 0.000000 0.000000 0.000000
# 4 0.038718 -0.038718 0.000000 0.033477 0.000000 -0.000002
# 5 0.000001 -0.000001 0.000000 0.000000 0.033477 0.077436
# 6 0.000000 0.000000 0.000000 -0.000002 0.077436 0.781355
#
#
# Mechanical properties :
#
#
# Convention : Reuss Voigt Hill
#
# Bulk Modulus (GPa) = 34.26872 36.13914 35.20393
# Shear Modulus (GPa) = 2.99123 21.20140 12.09631
#
# Velocity S-wave (km/s) = 1.19367 3.17792 2.40042
# Velocity P-wave (km/s) = 4.26891 5.53898 4.94489
#
# Compressibility (1/GPa) = 0.02918113
#
# Stress axis : x y z
#
# Youngs Moduli (GPa) = 4.91153 4.91153 70.69825
#
# Poissons Ratio (x) = 0.91882 0.31849
# Poissons Ratio (y) = 0.91882 0.31849
# Poissons Ratio (z) = 0.02213 0.02213
#
# Static dielectric constant tensor:
#      x y z
#    x 1.754580 0.000000 0.000000 
#    y 0.000000 1.754580 0.000000 
#    z 0.000000 0.000000 1.879210 
# 
# From -- ./inp_files/322.got.cif
#   From: 2010.05.17/outbox.cif.g08.bks.cpg/sg152_1_cif.got.tgz:322.got - 2010.05.20 10:36:06.
