data_PCOD9576398
_publ_section_title
;
Structure prediction by ZEFSAII (Michael W. Deem and Ramdas Pophale) SiO2 
 PCOD9576398
Probable space group: P 32 2 1
;
_chemical_formula_sum "Si O2"
_cell_formula_units_Z 30
_cell_length_a 8.986277
_cell_length_b 8.986277
_cell_length_c 17.061734
_cell_angle_alpha 90.000000
_cell_angle_beta 90.000000
_cell_angle_gamma 120.000000
_cell_volume 1193.200431
_symmetry_space_group_name_H-M "P 32 2 1"
_symmetry_group_IT_number 154
_symmetry_cell_setting 'hexagonal'
loop_
_space_group_symop_operation_xyz
x,y,z
-y,x-y,2/3+z
-x+y,-x,1/3+z
x-y,-y,1/3-z
-x,-x+y,2/3-z
y,x,-z
loop_
_atom_site_type_symbol
_atom_site_label
_atom_site_fract_x
_atom_site_fract_y
_atom_site_fract_z
Si Si1 0.739617 0.631787 0.271775
Si Si2 0.369209 0.015482 0.778134
Si Si3 0.745666 0.513277 0.603585
Si Si4 0.899713 0.621391 0.999353
Si Si5 0.887121 0.647969 0.435757
O O1 0.631453 0.658918 0.203375
O O2 0.654048 0.424333 0.262526
O O3 0.437928 0.561890 0.356803
O O4 0.931804 0.753504 0.237411
O O5 0.211520 0.866622 0.730566
O O6 0.559179 0.052884 0.755334
O O7 0.379718 0.192274 0.748813
O O8 0.898794 0.648735 0.659225
O O9 0.785812 0.595771 0.517320
O O10 0.654040 0.773870 0.635330
#
# Coordination Sequence:
#
# PCOD9576398 Si02
#       5
#     6   6   6   6   6
#     4  10  18  34  62  95 127 176 228 285 338 411
#     4  10  19  36  63  93 135 180 235 283 338 421
#     4  11  22  36  64  98 141 173 228 297 342 408
#     4  11  21  39  62 102 136 175 228 290 349 406
#     4  10  18  34  62  97 129 176 240 278 347 411
#
# _framework density 25.142461999999998
#
# number of rings (size 3 to 8) (size 9 to 14) (size 15 to 20)
#    0.000    1.600    6.000    1.200    0.000    0.000 
#    0.000    1.000    0.000    9.600   10.400    0.000 
#    0.000    0.000    0.000    0.000    0.000    0.000 
#
# Total GULP energy -167556.437646 kJ/mol
# GULP energy per Si atom -5585.214588 kJ/mol
# Density = 2.508524 g / cm^3
# Si number density = 25.142462 Si / 1000 Ang^3
#
#
#
# Elastic Constant Matrix: (Units=GPa)
#
#
# Indices 1 2 3 4 5 6 
#
# 1 84.0082 40.2673 47.8368 -0.9266 0.0000 0.0000
# 2 40.2673 84.0082 47.8368 0.9266 0.0000 0.0000
# 3 47.8368 47.8368 240.3646 0.0000 0.0000 0.0000
# 4 -0.9266 0.9266 0.0000 38.6586 0.0000 0.0000
# 5 0.0000 0.0000 0.0000 0.0000 38.6586 -0.9266
# 6 0.0000 0.0000 0.0000 0.0000 -0.9266 21.8705
#
#
#
# Elastic Compliance Matrix: (Units=1/GPa)
#
#
# Indices 1 2 3 4 5 6 
#
# 1 0.016194 -0.006691 -0.001891 0.000549 0.000000 0.000000
# 2 -0.006691 0.016194 -0.001891 -0.000549 0.000000 0.000000
# 3 -0.001891 -0.001891 0.004913 0.000000 0.000000 0.000000
# 4 0.000549 -0.000549 0.000000 0.025894 0.000000 0.000000
# 5 0.000000 0.000000 0.000000 0.000000 0.025894 0.001097
# 6 0.000000 0.000000 0.000000 0.000000 0.001097 0.045770
#
#
# Mechanical properties :
#
#
# Convention : Reuss Voigt Hill
#
# Bulk Modulus (GPa) = 61.14891 75.58474 68.36683
# Shear Modulus (GPa) = 31.00640 38.00021 34.50330
#
# Velocity S-wave (km/s) = 3.51554 3.89188 3.70849
# Velocity P-wave (km/s) = 6.39160 7.09391 6.75189
#
# Compressibility (1/GPa) = 0.01635352
#
# Stress axis : x y z
#
# Youngs Moduli (GPa) = 61.75185 61.75185 203.53748
#
# Poissons Ratio (x) = 0.41320 0.38493
# Poissons Ratio (y) = 0.41320 0.38493
# Poissons Ratio (z) = 0.11678 0.11678
#
# Static dielectric constant tensor:
#      x y z
#    x 2.033760 0.000000 0.000000 
#    y 0.000000 2.033760 0.000000 
#    z 0.000000 0.000000 2.020950 
# 
# From -- ./inp_files/3350.got.cif
#   From: 2010.05.17/outbox.cif.g08.bks.cpg/sg154_2_cif.got.tgz:3350.got - 2010.05.20 10:41:43.
