data_PCOD9576709
_publ_section_title
;
Structure prediction by ZEFSAII (Michael W. Deem and Ramdas Pophale) SiO2 
 PCOD9576709
Probable space group: P 32 2 1
;
_chemical_formula_sum "Si O2"
_cell_formula_units_Z 42
_cell_length_a 9.454673
_cell_length_b 9.454673
_cell_length_c 26.148767
_cell_angle_alpha 90.000000
_cell_angle_beta 90.000000
_cell_angle_gamma 120.000000
_cell_volume 2024.299989
_symmetry_space_group_name_H-M "P 32 2 1"
_symmetry_group_IT_number 154
_symmetry_cell_setting 'hexagonal'
loop_
_space_group_symop_operation_xyz
x,y,z
-y,x-y,2/3+z
-x+y,-x,1/3+z
x-y,-y,1/3-z
-x,-x+y,2/3-z
y,x,-z
loop_
_atom_site_type_symbol
_atom_site_label
_atom_site_fract_x
_atom_site_fract_y
_atom_site_fract_z
Si Si1 0.839906 0.554374 0.029211
Si Si2 0.677391 0.000000 0.166667
Si Si3 0.486541 0.118560 0.937664
Si Si4 0.144060 0.021557 0.424458
Si Si5 0.963773 0.215483 0.775311
Si Si6 0.471815 0.304592 0.033340
Si Si7 0.422355 0.597226 0.415582
Si Si8 0.894018 0.894018 0.000000
O O1 0.848621 0.505536 0.969791
O O2 0.861765 0.734277 0.031397
O O3 0.656021 0.434512 0.047069
O O4 0.969833 0.523551 0.059484
O O5 0.632125 0.108846 0.202904
O O6 0.826543 0.083699 0.126828
O O7 0.316696 0.077399 0.912665
O O8 0.635214 0.274346 0.911705
O O9 0.480652 0.175053 0.995481
O O10 0.954098 0.919159 0.440725
O O11 0.119903 0.071916 0.367726
O O12 0.788962 0.161555 0.750007
O O13 0.000000 0.274266 0.833334
O O14 0.087755 0.380108 0.744730
O O15 0.387431 0.387431 0.000000
#
# Coordination Sequence:
#
# PCOD9576709 Si02
#       8
#     6   3   6   6   6   6   6   3
#     4  11  24  41  71 108 142 182 242 303 358 426
#     4  12  26  48  68 100 152 190 234 294 374 434
#     4  11  25  43  70 103 137 179 246 292 359 423
#     4  12  26  45  70 106 141 189 239 305 360 437
#     4  12  24  44  71 100 141 194 240 289 372 446
#     4  11  22  42  68 103 141 180 235 308 360 422
#     4  11  25  46  68 101 143 192 233 291 362 446
#     4  12  24  42  74 106 142 184 246 304 358 426
#
# _framework density 20.747910999999998
#
# number of rings (size 3 to 8) (size 9 to 14) (size 15 to 20)
#    0.000    0.571    6.429    1.714    6.000    0.000 
#    2.571    0.000    0.000    0.000    0.000    0.000 
#    0.000    0.000    0.000    0.000    0.000    0.000 
#
# Total GULP energy -234484.709328 kJ/mol
# GULP energy per Si atom -5582.969270 kJ/mol
# Density = 2.070069 g / cm^3
# Si number density = 20.747911 Si / 1000 Ang^3
#
#
#
# Elastic Constant Matrix: (Units=GPa)
#
#
# Indices 1 2 3 4 5 6 
#
# 1 115.0143 67.9809 30.9165 5.0842 0.0014 0.0000
# 2 67.9809 115.0143 30.9165 -5.0842 -0.0014 0.0000
# 3 30.9165 30.9165 62.3897 0.0000 0.0000 0.0000
# 4 5.0842 -5.0842 0.0000 7.2358 0.0000 -0.0014
# 5 0.0014 -0.0014 0.0000 0.0000 7.2358 5.0842
# 6 0.0000 0.0000 0.0000 -0.0014 5.0842 23.5167
#
#
#
# Elastic Compliance Matrix: (Units=1/GPa)
#
#
# Indices 1 2 3 4 5 6 
#
# 1 0.015817 -0.009253 -0.003253 -0.017615 -0.000005 0.000000
# 2 -0.009253 0.015817 -0.003253 0.017615 0.000005 0.000000
# 3 -0.003253 -0.003253 0.019252 0.000000 0.000000 0.000000
# 4 -0.017615 0.017615 0.000000 0.162956 0.000000 0.000009
# 5 -0.000005 0.000005 0.000000 0.000000 0.162956 -0.035230
# 6 0.000000 0.000000 0.000000 0.000009 -0.035230 0.050139
#
#
# Mechanical properties :
#
#
# Convention : Reuss Voigt Hill
#
# Bulk Modulus (GPa) = 51.62910 61.33848 56.48379
# Shear Modulus (GPa) = 10.75481 18.43795 14.59638
#
# Velocity S-wave (km/s) = 2.27921 2.98428 2.65525
# Velocity P-wave (km/s) = 5.64486 6.44224 6.05669
#
# Compressibility (1/GPa) = 0.01936892
#
# Stress axis : x y z
#
# Youngs Moduli (GPa) = 63.22438 63.22438 51.94319
#
# Poissons Ratio (x) = 0.58502 0.16895
# Poissons Ratio (y) = 0.58502 0.16895
# Poissons Ratio (z) = 0.20564 0.20564
#
# Static dielectric constant tensor:
#      x y z
#    x 1.752880 0.000000 0.000000 
#    y 0.000000 1.752880 0.000000 
#    z 0.000000 0.000000 1.518550 
# 
# From -- ./inp_files/3822.got.cif
#   From: 2010.05.17/outbox.cif.g08.bks.cpg/sg154_2_cif.got.tgz:3822.got - 2010.05.20 10:41:43.
