data_PCOD9576141
_publ_section_title
;
Structure prediction by ZEFSAII (Michael W. Deem and Ramdas Pophale) SiO2 
 PCOD9576141
Probable space group: P 31 2 1
;
_chemical_formula_sum "Si O2"
_cell_formula_units_Z 24
_cell_length_a 13.743803
_cell_length_b 13.743803
_cell_length_c 5.475329
_cell_angle_alpha 90.000000
_cell_angle_beta 90.000000
_cell_angle_gamma 120.000000
_cell_volume 895.683749
_symmetry_space_group_name_H-M "P 31 2 1"
_symmetry_group_IT_number 152
_symmetry_cell_setting 'hexagonal'
loop_
_space_group_symop_operation_xyz
x,y,z
-y,x-y,1/3+z
-x+y,-x,2/3+z
x-y,-y,2/3-z
-x,-x+y,1/3-z
y,x,-z
loop_
_atom_site_type_symbol
_atom_site_label
_atom_site_fract_x
_atom_site_fract_y
_atom_site_fract_z
Si Si1 0.220369 0.013472 0.083723
Si Si2 0.102214 0.468321 0.477078
Si Si3 0.618538 0.877998 0.341166
Si Si4 0.335732 0.512344 0.520111
O O1 0.334018 0.131427 0.059776
O O2 0.156947 0.000000 0.333334
O O3 0.265275 0.924944 0.101866
O O4 0.157489 0.000000 0.833334
O O5 0.234215 0.539374 0.567589
O O6 0.126222 0.530582 0.210892
O O7 0.000000 0.446827 0.666667
O O8 0.550829 0.856003 0.593532
O O9 0.728065 0.000000 0.333334
O O10 0.551896 0.880465 0.104439
#
# Coordination Sequence:
#
# PCOD9576141 Si02
#       4
#     6   6   6   6
#     4  11  21  44  76  98 143 208 249 305 402 457
#     4  11  25  49  78 108 162 209 267 322 399 472
#     4  12  25  46  72 114 144 198 269 328 384 475
#     4  12  27  46  74 112 153 212 262 320 394 473
#
# _framework density 26.795171
#
# number of rings (size 3 to 8) (size 9 to 14) (size 15 to 20)
#    0.000    0.500    7.500    1.500    0.000   10.000 
#    0.000    0.000    0.000    1.500    0.000    0.000 
#    0.000    0.000    0.000    0.000    0.000    0.000 
#
# Total GULP energy -133663.386104 kJ/mol
# GULP energy per Si atom -5569.307754 kJ/mol
# Density = 2.673418 g / cm^3
# Si number density = 26.795171 Si / 1000 Ang^3
#
#
#
# Elastic Constant Matrix: (Units=GPa)
#
#
# Indices 1 2 3 4 5 6 
#
# 1 48.8620 22.6860 21.6969 3.1273 -0.0002 0.0000
# 2 22.6860 48.8620 21.6969 -3.1273 0.0002 0.0000
# 3 21.6969 21.6969 255.6695 0.0000 0.0000 0.0000
# 4 3.1273 -3.1273 0.0000 23.7313 0.0000 0.0002
# 5 -0.0002 0.0002 0.0000 0.0000 23.7313 3.1273
# 6 0.0000 0.0000 0.0000 0.0002 3.1273 13.0880
#
#
#
# Elastic Compliance Matrix: (Units=1/GPa)
#
#
# Indices 1 2 3 4 5 6 
#
# 1 0.027090 -0.012355 -0.001250 -0.005198 0.000000 0.000000
# 2 -0.012355 0.027090 -0.001250 0.005198 0.000000 0.000000
# 3 -0.001250 -0.001250 0.004124 0.000000 0.000000 0.000000
# 4 -0.005198 0.005198 0.000000 0.043508 0.000000 -0.000001
# 5 0.000000 0.000000 0.000000 0.000000 0.043508 -0.010396
# 6 0.000000 0.000000 0.000000 -0.000001 -0.010396 0.078890
#
#
# Mechanical properties :
#
#
# Convention : Reuss Voigt Hill
#
# Bulk Modulus (GPa) = 34.97513 53.95036 44.46275
# Shear Modulus (GPa) = 18.97873 31.26435 25.12154
#
# Velocity S-wave (km/s) = 2.66426 3.41954 3.06525
# Velocity P-wave (km/s) = 4.74821 5.98072 5.39975
#
# Compressibility (1/GPa) = 0.02859174
#
# Stress axis : x y z
#
# Youngs Moduli (GPa) = 36.91398 36.91398 242.51030
#
# Poissons Ratio (x) = 0.45607 0.30325
# Poissons Ratio (y) = 0.45607 0.30325
# Poissons Ratio (z) = 0.04616 0.04616
#
# Static dielectric constant tensor:
#      x y z
#    x 2.347720 0.000000 0.000000 
#    y 0.000000 2.347720 0.000000 
#    z 0.000000 0.000000 2.254610 
# 
# From -- ./inp_files/130.got.cif
#   From: 2010.05.17/outbox.cif.g08.bks.cpg/sg152_1_cif.got.tgz:130.got - 2010.05.20 10:36:06.
