data_PCOD9576724
_publ_section_title
;
Structure prediction by ZEFSAII (Michael W. Deem and Ramdas Pophale) SiO2 
 PCOD9576724
Probable space group: P 32 2 1
;
_chemical_formula_sum "Si O2"
_cell_formula_units_Z 42
_cell_length_a 8.952823
_cell_length_b 8.952823
_cell_length_c 28.699644
_cell_angle_alpha 90.000000
_cell_angle_beta 90.000000
_cell_angle_gamma 120.000000
_cell_volume 1992.173406
_symmetry_space_group_name_H-M "P 32 2 1"
_symmetry_group_IT_number 154
_symmetry_cell_setting 'hexagonal'
loop_
_space_group_symop_operation_xyz
x,y,z
-y,x-y,2/3+z
-x+y,-x,1/3+z
x-y,-y,1/3-z
-x,-x+y,2/3-z
y,x,-z
loop_
_atom_site_type_symbol
_atom_site_label
_atom_site_fract_x
_atom_site_fract_y
_atom_site_fract_z
Si Si1 0.453846 0.880285 0.383387
Si Si2 0.049450 0.848212 0.103464
Si Si3 0.873739 0.662011 0.465224
Si Si4 0.783466 0.553740 0.708684
Si Si5 0.750318 0.851866 0.047573
Si Si6 0.334606 0.522577 0.518101
Si Si7 0.575218 0.149720 0.563625
O O1 0.636402 0.927632 0.407045
O O2 0.441107 0.787475 0.334222
O O3 0.305370 0.756274 0.418825
O O4 0.438182 0.047533 0.373073
O O5 0.014939 0.789685 0.157416
O O6 0.895182 0.867634 0.083111
O O7 0.221325 0.037174 0.103108
O O8 0.705292 0.506990 0.488758
O O9 0.978072 0.589021 0.437462
O O10 0.790841 0.490056 0.760443
O O11 0.960541 0.735721 0.704877
O O12 0.567540 0.716662 0.069317
O O13 0.777311 0.777311 0.000000
O O14 0.376481 0.376481 0.500000
O O15 0.187532 0.526810 0.487556
#
# Coordination Sequence:
#
# PCOD9576724 Si02
#       7
#     6   6   6   6   6   6   6
#     4  12  26  48  74 105 146 191 244 296 371 439
#     4  11  24  46  72 101 144 186 234 298 362 423
#     4  11  25  43  74 106 144 184 239 297 364 423
#     4  12  28  46  76 106 146 193 244 301 370 436
#     4  12  27  47  69 106 147 188 238 301 359 435
#     4  12  24  46  74 108 143 192 245 301 356 436
#     4  12  27  46  73 107 147 188 246 296 366 438
#
# _framework density 21.082502999999999
#
# number of rings (size 3 to 8) (size 9 to 14) (size 15 to 20)
#    0.000    0.286    5.714    2.571    6.000    2.286 
#    0.000    0.000    0.000    0.000    0.000    0.000 
#    0.000    0.000    0.000    0.000    0.000    0.000 
#
# Total GULP energy -235033.367295 kJ/mol
# GULP energy per Si atom -5596.032555 kJ/mol
# Density = 2.103452 g / cm^3
# Si number density = 21.082503 Si / 1000 Ang^3
#
#
#
# Elastic Constant Matrix: (Units=GPa)
#
#
# Indices 1 2 3 4 5 6 
#
# 1 85.1850 18.4825 0.8329 3.1460 0.0000 0.0000
# 2 18.4825 85.1850 0.8329 -3.1460 0.0000 0.0000
# 3 0.8329 0.8329 77.9017 0.0000 0.0000 0.0000
# 4 3.1460 -3.1460 0.0000 29.9193 0.0000 0.0000
# 5 0.0000 0.0000 0.0000 0.0000 29.9193 3.1460
# 6 0.0000 0.0000 0.0000 0.0000 3.1460 33.3513
#
#
#
# Elastic Compliance Matrix: (Units=1/GPa)
#
#
# Indices 1 2 3 4 5 6 
#
# 1 0.012395 -0.002747 -0.000103 -0.001592 0.000000 0.000000
# 2 -0.002747 0.012395 -0.000103 0.001592 0.000000 0.000000
# 3 -0.000103 -0.000103 0.012839 0.000000 0.000000 0.000000
# 4 -0.001592 0.001592 0.000000 0.033758 0.000000 0.000000
# 5 0.000000 0.000000 0.000000 0.000000 0.033758 -0.003184
# 6 0.000000 0.000000 0.000000 0.000000 -0.003184 0.030284
#
#
# Mechanical properties :
#
#
# Convention : Reuss Voigt Hill
#
# Bulk Modulus (GPa) = 31.52381 32.06314 31.79347
# Shear Modulus (GPa) = 32.91416 33.84618 33.38017
#
# Velocity S-wave (km/s) = 3.95550 4.01111 3.98340
# Velocity P-wave (km/s) = 5.98718 6.05751 6.02245
#
# Compressibility (1/GPa) = 0.03172206
#
# Stress axis : x y z
#
# Youngs Moduli (GPa) = 80.67764 80.67764 77.88831
#
# Poissons Ratio (x) = 0.22163 0.00803
# Poissons Ratio (y) = 0.22163 0.00803
# Poissons Ratio (z) = 0.00832 0.00832
#
# Static dielectric constant tensor:
#      x y z
#    x 1.746720 0.000000 0.000000 
#    y 0.000000 1.746720 0.000000 
#    z 0.000000 0.000000 1.745240 
# 
# From -- ./inp_files/3788.got.cif
#   From: 2010.05.17/outbox.cif.g08.bks.cpg/sg154_2_cif.got.tgz:3788.got - 2010.05.20 10:41:43.
