data_PCOD9576695
_publ_section_title
;
Structure prediction by ZEFSAII (Michael W. Deem and Ramdas Pophale) SiO2 
 PCOD9576695
Probable space group: P 32 2 1
;
_chemical_formula_sum "Si O2"
_cell_formula_units_Z 15
_cell_length_a 7.614255
_cell_length_b 7.614255
_cell_length_c 10.649302
_cell_angle_alpha 90.000000
_cell_angle_beta 90.000000
_cell_angle_gamma 120.000000
_cell_volume 534.695599
_symmetry_space_group_name_H-M "P 32 2 1"
_symmetry_group_IT_number 154
_symmetry_cell_setting 'hexagonal'
loop_
_space_group_symop_operation_xyz
x,y,z
-y,x-y,2/3+z
-x+y,-x,1/3+z
x-y,-y,1/3-z
-x,-x+y,2/3-z
y,x,-z
loop_
_atom_site_type_symbol
_atom_site_label
_atom_site_fract_x
_atom_site_fract_y
_atom_site_fract_z
Si Si1 0.098043 0.098043 0.000000
Si Si2 0.551350 0.998802 0.523948
Si Si3 0.284789 0.437562 0.606200
O O1 0.232648 0.248104 0.887000
O O2 0.093025 0.889248 0.967559
O O3 0.560546 0.187872 0.453145
O O4 0.472960 0.000000 0.666667
O O5 0.459479 0.853365 0.401917
O O6 0.429963 0.429963 0.500000
#
# Coordination Sequence:
#
# PCOD9576695 Si02
#       3
#     3   6   6
#     4  10  26  48  82 112 152 206 268 326 398 474
#     4  10  28  47  77 118 158 205 267 328 397 476
#     4  12  26  50  81 115 158 212 265 335 400 474
#
# _framework density 28.053346999999999
#
# number of rings (size 3 to 8) (size 9 to 14) (size 15 to 20)
#    1.200    0.000    0.000    3.600    8.400    9.600 
#    0.000    0.000    0.000    0.000    0.000    0.000 
#    0.000    0.000    0.000    0.000    0.000    0.000 
#
# Total GULP energy -83722.861973 kJ/mol
# GULP energy per Si atom -5581.524132 kJ/mol
# Density = 2.798950 g / cm^3
# Si number density = 28.053347 Si / 1000 Ang^3
#
#
#
# Elastic Constant Matrix: (Units=GPa)
#
#
# Indices 1 2 3 4 5 6 
#
# 1 80.6135 31.1178 66.8828 -9.8525 -0.0003 0.0000
# 2 31.1178 80.6135 66.8828 9.8525 0.0003 0.0000
# 3 66.8828 66.8828 343.9796 0.0000 0.0000 0.0000
# 4 -9.8525 9.8525 0.0000 -29.9707 0.0000 0.0003
# 5 -0.0003 0.0003 0.0000 0.0000 -29.9707 -9.8525
# 6 0.0000 0.0000 0.0000 0.0003 -9.8525 24.7478
#
#
#
# Elastic Compliance Matrix: (Units=1/GPa)
#
#
# Indices 1 2 3 4 5 6 
#
# 1 0.014766 -0.003100 -0.002268 -0.005873 0.000000 0.000000
# 2 -0.003100 0.014766 -0.002268 0.005873 0.000000 0.000000
# 3 -0.002268 -0.002268 0.003789 0.000000 0.000000 0.000000
# 4 -0.005873 0.005873 0.000000 -0.029505 0.000000 0.000000
# 5 0.000000 0.000000 0.000000 0.000000 -0.029505 -0.011746
# 6 0.000000 0.000000 0.000000 0.000000 -0.011746 0.035731
#
#
# Mechanical properties :
#
#
# Convention : Reuss Voigt Hill
#
# Bulk Modulus (GPa) = 55.40948 92.77482 74.09215
# Shear Modulus (GPa) = 159.58428 15.64951 87.61689
#
# Velocity S-wave (km/s) = 7.55046 2.36444 5.59464
# Velocity P-wave (km/s) = 9.78811 6.37156 8.25844
#
# Compressibility (1/GPa) = 0.01804745
#
# Stress axis : x y z
#
# Youngs Moduli (GPa) = 67.72491 67.72491 263.90702
#
# Poissons Ratio (x) = 0.20995 0.59860
# Poissons Ratio (y) = 0.20995 0.59860
# Poissons Ratio (z) = 0.15362 0.15362
#
# Static dielectric constant tensor:
#      x y z
#    x 2.464420 0.000000 0.000000 
#    y 0.000000 2.464420 0.000000 
#    z 0.000000 0.000000 2.192990 
# 
# From -- ./inp_files/1357.got.cif
#   From: 2010.05.17/outbox.cif.g08.bks.cpg/sg154_1_cif.got.tgz:1357.got - 2010.05.20 10:41:43.
