data_PCOD9576593
_publ_section_title
;
Structure prediction by ZEFSAII (Michael W. Deem and Ramdas Pophale) SiO2 
 PCOD9576593
Probable space group: P 32 2 1
;
_chemical_formula_sum "Si O2"
_cell_formula_units_Z 24
_cell_length_a 9.359706
_cell_length_b 9.359706
_cell_length_c 11.842069
_cell_angle_alpha 90.000000
_cell_angle_beta 90.000000
_cell_angle_gamma 120.000000
_cell_volume 898.426665
_symmetry_space_group_name_H-M "P 32 2 1"
_symmetry_group_IT_number 154
_symmetry_cell_setting 'hexagonal'
loop_
_space_group_symop_operation_xyz
x,y,z
-y,x-y,2/3+z
-x+y,-x,1/3+z
x-y,-y,1/3-z
-x,-x+y,2/3-z
y,x,-z
loop_
_atom_site_type_symbol
_atom_site_label
_atom_site_fract_x
_atom_site_fract_y
_atom_site_fract_z
Si Si1 0.274996 0.648366 0.258797
Si Si2 0.000000 0.844453 0.833334
Si Si3 0.938869 0.480495 0.179156
Si Si4 0.209755 0.193890 0.259153
Si Si5 0.347947 0.000000 0.166667
O O1 0.427600 0.615127 0.254663
O O2 0.178773 0.595301 0.378019
O O3 0.120296 0.503018 0.185863
O O4 0.342883 0.834156 0.212067
O O5 0.005624 0.751978 0.721473
O O6 0.867035 0.894960 0.878497
O O7 0.997751 0.670815 0.161159
O O8 0.255181 0.049579 0.261557
#
# Coordination Sequence:
#
# PCOD9576593 Si02
#       5
#     6   3   6   6   3
#     4  10  22  41  63  87 120 161 200 249 302 360
#     4   9  16  26  52  85 120 155 204 251 290 349
#     4  10  22  39  60  87 123 158 197 248 307 356
#     4   9  17  32  54  89 121 156 201 253 300 351
#     4   9  18  36  62  85 116 159 204 243 300 363
#
# _framework density 26.713366000000001
#
# number of rings (size 3 to 8) (size 9 to 14) (size 15 to 20)
#    0.000    2.500    0.000    1.500    0.000   12.000 
#    0.000    5.000    0.000    7.500    0.000    0.000 
#    0.000    0.000    0.000    0.000    0.000    0.000 
#
# Total GULP energy -133609.429752 kJ/mol
# GULP energy per Si atom -5567.059573 kJ/mol
# Density = 2.665256 g / cm^3
# Si number density = 26.713366 Si / 1000 Ang^3
#
#
#
# Elastic Constant Matrix: (Units=GPa)
#
#
# Indices 1 2 3 4 5 6 
#
# 1 107.0460 31.1715 2.9897 14.0243 -0.0001 0.0000
# 2 31.1715 107.0460 2.9897 -14.0243 0.0001 0.0000
# 3 2.9897 2.9897 46.2656 0.0000 0.0000 0.0000
# 4 14.0243 -14.0243 0.0000 17.3758 0.0000 0.0001
# 5 -0.0001 0.0001 0.0000 0.0000 17.3758 14.0243
# 6 0.0000 0.0000 0.0000 0.0001 14.0243 37.9372
#
#
#
# Elastic Compliance Matrix: (Units=1/GPa)
#
#
# Indices 1 2 3 4 5 6 
#
# 1 0.013020 -0.005765 -0.000469 -0.015161 0.000000 0.000000
# 2 -0.005765 0.013020 -0.000469 0.015161 0.000000 0.000000
# 3 -0.000469 -0.000469 0.021675 0.000000 0.000000 0.000000
# 4 -0.015161 0.015161 0.000000 0.082025 0.000000 0.000000
# 5 0.000000 0.000000 0.000000 0.000000 0.082025 -0.030322
# 6 0.000000 0.000000 0.000000 0.000000 -0.030322 0.037569
#
#
# Mechanical properties :
#
#
# Convention : Reuss Voigt Hill
#
# Bulk Modulus (GPa) = 29.14596 37.18438 33.16517
# Shear Modulus (GPa) = 18.23663 29.41822 23.82742
#
# Velocity S-wave (km/s) = 2.61565 3.32212 2.98982
# Velocity P-wave (km/s) = 4.47844 5.35399 4.93567
#
# Compressibility (1/GPa) = 0.03431008
#
# Stress axis : x y z
#
# Youngs Moduli (GPa) = 76.80624 76.80624 46.13627
#
# Poissons Ratio (x) = 0.44275 0.02163
# Poissons Ratio (y) = 0.44275 0.02163
# Poissons Ratio (z) = 0.03601 0.03601
#
# Static dielectric constant tensor:
#      x y z
#    x 2.131400 0.000000 0.000000 
#    y 0.000000 2.131400 0.000000 
#    z 0.000000 0.000000 2.209180 
# 
# From -- ./inp_files/1614.got.cif
#   From: 2010.05.17/outbox.cif.g08.bks.cpg/sg154_1_cif.got.tgz:1614.got - 2010.05.20 10:41:43.
