data_PCOD9576680
_publ_section_title
;
Structure prediction by ZEFSAII (Michael W. Deem and Ramdas Pophale) SiO2 
 PCOD9576680
Probable space group: P 32 2 1
;
_chemical_formula_sum "Si O2"
_cell_formula_units_Z 18
_cell_length_a 12.821582
_cell_length_b 12.821582
_cell_length_c 5.050842
_cell_angle_alpha 90.000000
_cell_angle_beta 90.000000
_cell_angle_gamma 120.000000
_cell_volume 719.080718
_symmetry_space_group_name_H-M "P 32 2 1"
_symmetry_group_IT_number 154
_symmetry_cell_setting 'hexagonal'
loop_
_space_group_symop_operation_xyz
x,y,z
-y,x-y,2/3+z
-x+y,-x,1/3+z
x-y,-y,1/3-z
-x,-x+y,2/3-z
y,x,-z
loop_
_atom_site_type_symbol
_atom_site_label
_atom_site_fract_x
_atom_site_fract_y
_atom_site_fract_z
Si Si1 0.503667 0.872668 0.477016
Si Si2 0.000000 0.234226 0.833334
Si Si3 0.868965 0.360611 0.002516
Si Si4 0.238081 0.238081 0.000000
O O1 0.474678 0.742565 0.382373
O O2 0.427397 0.903960 0.279991
O O3 0.575261 0.126988 0.568501
O O4 0.649294 0.954863 0.459430
O O5 0.934832 0.281798 0.036178
O O6 0.896576 0.116066 0.681796
#
# Coordination Sequence:
#
# PCOD9576680 Si02
#       4
#     6   3   6   3
#     4  11  22  41  71 106 139 171 213 275 346 410
#     4  10  24  46  68  94 134 184 234 278 324 388
#     4  11  22  41  71 106 139 171 213 275 346 410
#     4  10  24  46  68  94 134 184 234 278 324 388
#
# _framework density 25.031956999999998
#
# number of rings (size 3 to 8) (size 9 to 14) (size 15 to 20)
#    0.000    1.333    0.000    6.000    0.000    0.000 
#    0.000   23.333    0.000    4.000    0.000    0.000 
#    0.000    0.000    0.000    0.000    0.000    0.000 
#
# Total GULP energy -100256.135527 kJ/mol
# GULP energy per Si atom -5569.785307 kJ/mol
# Density = 2.497498 g / cm^3
# Si number density = 25.031957 Si / 1000 Ang^3
#
#
#
# Elastic Constant Matrix: (Units=GPa)
#
#
# Indices 1 2 3 4 5 6 
#
# 1 201.2438 72.5750 45.6304 -2.1694 0.0000 0.0000
# 2 72.5750 201.2438 45.6304 2.1694 0.0000 0.0000
# 3 45.6304 45.6304 116.7193 0.0000 0.0000 0.0000
# 4 -2.1694 2.1694 0.0000 26.2345 0.0000 0.0000
# 5 0.0000 0.0000 0.0000 0.0000 26.2345 -2.1694
# 6 0.0000 0.0000 0.0000 0.0000 -2.1694 64.3344
#
#
#
# Elastic Compliance Matrix: (Units=1/GPa)
#
#
# Indices 1 2 3 4 5 6 
#
# 1 0.005996 -0.001797 -0.001642 0.000644 0.000000 0.000000
# 2 -0.001797 0.005996 -0.001642 -0.000644 0.000000 0.000000
# 3 -0.001642 -0.001642 0.009851 0.000000 0.000000 0.000000
# 4 0.000644 -0.000644 0.000000 0.038224 0.000000 0.000000
# 5 0.000000 0.000000 0.000000 0.000000 0.038224 0.001289
# 6 0.000000 0.000000 0.000000 0.000000 0.001289 0.015587
#
#
# Mechanical properties :
#
#
# Convention : Reuss Voigt Hill
#
# Bulk Modulus (GPa) = 85.59476 94.09764 89.84620
# Shear Modulus (GPa) = 39.08229 47.05207 43.06718
#
# Velocity S-wave (km/s) = 3.95561 4.34023 4.15238
# Velocity P-wave (km/s) = 7.42502 7.92398 7.67855
#
# Compressibility (1/GPa) = 0.01168296
#
# Stress axis : x y z
#
# Youngs Moduli (GPa) = 166.76650 166.76650 101.51121
#
# Poissons Ratio (x) = 0.29972 0.16664
# Poissons Ratio (y) = 0.29972 0.16664
# Poissons Ratio (z) = 0.27377 0.27377
#
# Static dielectric constant tensor:
#      x y z
#    x 2.007910 0.000000 0.000000 
#    y 0.000000 2.007910 0.000000 
#    z 0.000000 0.000000 1.929550 
# 
# From -- ./inp_files/778.got.cif
#   From: 2010.05.17/outbox.cif.g08.bks.cpg/sg154_1_cif.got.tgz:778.got - 2010.05.20 10:41:43.
