data_PCOD9576525
_publ_section_title
;
Structure prediction by ZEFSAII (Michael W. Deem and Ramdas Pophale) SiO2 
 PCOD9576525
Probable space group: P 32 2 1
;
_chemical_formula_sum "Si O2"
_cell_formula_units_Z 42
_cell_length_a 9.171607
_cell_length_b 9.171607
_cell_length_c 27.372160
_cell_angle_alpha 90.000000
_cell_angle_beta 90.000000
_cell_angle_gamma 120.000000
_cell_volume 1994.024894
_symmetry_space_group_name_H-M "P 32 2 1"
_symmetry_group_IT_number 154
_symmetry_cell_setting 'hexagonal'
loop_
_space_group_symop_operation_xyz
x,y,z
-y,x-y,2/3+z
-x+y,-x,1/3+z
x-y,-y,1/3-z
-x,-x+y,2/3-z
y,x,-z
loop_
_atom_site_type_symbol
_atom_site_label
_atom_site_fract_x
_atom_site_fract_y
_atom_site_fract_z
Si Si1 0.922568 0.609042 0.957783
Si Si2 0.066888 0.570002 0.562522
Si Si3 0.911217 0.382376 0.463292
Si Si4 0.032705 0.389741 0.011073
Si Si5 0.409207 0.532079 0.044539
Si Si6 0.163909 0.208106 0.712924
Si Si7 0.919452 0.072028 0.219685
O O1 0.729023 0.466378 0.949272
O O2 0.989010 0.728228 0.910779
O O3 0.035551 0.532325 0.975823
O O4 0.920389 0.721922 0.002966
O O5 0.253767 0.713924 0.546123
O O6 0.962262 0.452699 0.517634
O O7 0.071040 0.462604 0.608233
O O8 0.967582 0.663356 0.582459
O O9 0.003490 0.537111 0.425445
O O10 0.995613 0.268550 0.451727
O O11 0.214244 0.433757 0.030546
O O12 0.943132 0.220176 0.980448
O O13 0.510059 0.510059 0.000000
O O14 0.047158 0.037097 0.741859
O O15 0.912381 0.000000 0.166667
#
# Coordination Sequence:
#
# PCOD9576525 Si02
#       7
#     6   6   6   6   6   6   6
#     4  10  20  40  67  89 123 169 220 262 325 394
#     4  10  21  40  65  95 134 174 224 269 341 401
#     4  10  22  41  66  96 133 183 218 276 332 409
#     4  11  23  39  66  95 127 165 225 280 328 388
#     4  11  22  41  63  95 129 171 223 270 330 399
#     4  10  22  41  65  93 129 175 207 275 333 390
#     4  10  22  40  64  92 132 172 219 262 336 403
#
# _framework density 21.062927999999999
#
# number of rings (size 3 to 8) (size 9 to 14) (size 15 to 20)
#    0.000    1.714    0.000    6.429    2.000    2.286 
#    5.143    0.714    0.000    0.000    0.000    0.000 
#    0.000    0.000    0.000    0.000    0.000    0.000 
#
# Total GULP energy -234719.164327 kJ/mol
# GULP energy per Si atom -5588.551532 kJ/mol
# Density = 2.101499 g / cm^3
# Si number density = 21.062928 Si / 1000 Ang^3
#
#
#
# Elastic Constant Matrix: (Units=GPa)
#
#
# Indices 1 2 3 4 5 6 
#
# 1 90.3757 59.3844 45.2336 -3.5416 0.0006 0.0000
# 2 59.3844 90.3757 45.2336 3.5416 -0.0006 0.0000
# 3 45.2336 45.2336 119.2193 0.0000 0.0000 0.0000
# 4 -3.5416 3.5416 0.0000 36.5088 0.0000 -0.0006
# 5 0.0006 -0.0006 0.0000 0.0000 36.5088 -3.5416
# 6 0.0000 0.0000 0.0000 -0.0006 -3.5416 15.4956
#
#
#
# Elastic Compliance Matrix: (Units=1/GPa)
#
#
# Indices 1 2 3 4 5 6 
#
# 1 0.020831 -0.012168 -0.003287 0.003201 -0.000001 0.000000
# 2 -0.012168 0.020831 -0.003287 -0.003201 0.000001 0.000000
# 3 -0.003287 -0.003287 0.010882 0.000000 0.000000 0.000000
# 4 0.003201 -0.003201 0.000000 0.028012 0.000000 0.000001
# 5 -0.000001 0.000001 0.000000 0.000000 0.028012 0.006402
# 6 0.000000 0.000000 0.000000 0.000001 0.006402 0.065998
#
#
# Mechanical properties :
#
#
# Convention : Reuss Voigt Hill
#
# Bulk Modulus (GPa) = 66.39895 66.63041 66.51468
# Shear Modulus (GPa) = 23.03425 27.71059 25.37242
#
# Velocity S-wave (km/s) = 3.31054 3.63107 3.47450
# Velocity P-wave (km/s) = 6.79746 7.02013 6.90969
#
# Compressibility (1/GPa) = 0.01506048
#
# Stress axis : x y z
#
# Youngs Moduli (GPa) = 48.00580 48.00580 91.89449
#
# Poissons Ratio (x) = 0.58413 0.30204
# Poissons Ratio (y) = 0.58413 0.30204
# Poissons Ratio (z) = 0.15779 0.15779
#
# Static dielectric constant tensor:
#      x y z
#    x 1.777260 0.000000 0.000000 
#    y 0.000000 1.777260 0.000000 
#    z 0.000000 0.000000 1.764640 
# 
# From -- ./inp_files/3791.got.cif
#   From: 2010.05.17/outbox.cif.g08.bks.cpg/sg154_2_cif.got.tgz:3791.got - 2010.05.20 10:41:43.
