data_PCOD9576422
_publ_section_title
;
Structure prediction by ZEFSAII (Michael W. Deem and Ramdas Pophale) SiO2 
 PCOD9576422
Probable space group: P 32 2 1
;
_chemical_formula_sum "Si O2"
_cell_formula_units_Z 33
_cell_length_a 11.077135
_cell_length_b 11.077135
_cell_length_c 14.755563
_cell_angle_alpha 90.000000
_cell_angle_beta 90.000000
_cell_angle_gamma 120.000000
_cell_volume 1567.982869
_symmetry_space_group_name_H-M "P 32 2 1"
_symmetry_group_IT_number 154
_symmetry_cell_setting 'hexagonal'
loop_
_space_group_symop_operation_xyz
x,y,z
-y,x-y,2/3+z
-x+y,-x,1/3+z
x-y,-y,1/3-z
-x,-x+y,2/3-z
y,x,-z
loop_
_atom_site_type_symbol
_atom_site_label
_atom_site_fract_x
_atom_site_fract_y
_atom_site_fract_z
Si Si1 0.552266 0.552266 0.500000
Si Si2 0.559984 0.305664 0.603926
Si Si3 0.975001 0.467268 0.179365
Si Si4 0.187142 0.883168 0.602168
Si Si5 0.053840 0.761593 0.424109
Si Si6 0.850824 0.352922 0.654092
O O1 0.541491 0.417869 0.548118
O O2 0.652701 0.569857 0.416376
O O3 0.428862 0.235640 0.672127
O O4 0.710733 0.365473 0.653468
O O5 0.551236 0.187620 0.533935
O O6 0.043908 0.385158 0.224866
O O7 0.020590 0.615062 0.227324
O O8 0.029715 0.499811 0.076775
O O9 0.071789 0.828835 0.523132
O O10 0.187567 0.000000 0.666667
O O11 0.209889 0.805983 0.396200
O O12 0.000000 0.799261 0.333334
#
# Coordination Sequence:
#
# PCOD9576422 Si02
#       6
#     3   6   6   6   6   6
#     4  12  26  34  54  88 124 164 190 252 324 356
#     4  10  22  38  56  86 128 159 201 245 304 384
#     4   9  18  36  60  84 117 158 202 245 305 366
#     4   9  18  35  57  83 119 163 202 243 302 378
#     4  10  19  32  58  87 113 154 201 247 307 362
#     4  10  23  36  56  86 124 155 198 254 303 372
#
# _framework density 21.046149
#
# number of rings (size 3 to 8) (size 9 to 14) (size 15 to 20)
#    0.000    2.182    0.000    3.818   12.727    0.000 
#    0.000    0.000    0.000    0.000    0.000   47.091 
#    0.000    0.000    0.000    0.000    0.000    0.000 
#
# Total GULP energy -183780.749802 kJ/mol
# GULP energy per Si atom -5569.113630 kJ/mol
# Density = 2.099825 g / cm^3
# Si number density = 21.046149 Si / 1000 Ang^3
#
#
#
# Elastic Constant Matrix: (Units=GPa)
#
#
# Indices 1 2 3 4 5 6 
#
# 1 27.9612 4.6980 9.0659 5.5259 0.0002 0.0000
# 2 4.6980 27.9612 9.0659 -5.5259 -0.0002 0.0000
# 3 9.0659 9.0659 118.4339 0.0000 0.0000 0.0000
# 4 5.5259 -5.5259 0.0000 22.2424 0.0000 -0.0002
# 5 0.0002 -0.0002 0.0000 0.0000 22.2424 5.5259
# 6 0.0000 0.0000 0.0000 -0.0002 5.5259 11.6316
#
#
#
# Elastic Compliance Matrix: (Units=1/GPa)
#
#
# Indices 1 2 3 4 5 6 
#
# 1 0.040358 -0.008380 -0.002448 -0.012109 0.000000 0.000000
# 2 -0.008380 0.040358 -0.002448 0.012109 0.000000 0.000000
# 3 -0.002448 -0.002448 0.008818 0.000000 0.000000 0.000000
# 4 -0.012109 0.012109 0.000000 0.050976 0.000000 0.000001
# 5 0.000000 0.000000 0.000000 0.000000 0.050976 -0.024217
# 6 0.000000 0.000000 0.000000 0.000001 -0.024217 0.097477
#
#
# Mechanical properties :
#
#
# Convention : Reuss Voigt Hill
#
# Bulk Modulus (GPa) = 15.87723 24.44622 20.16173
# Shear Modulus (GPa) = 14.85841 21.32508 18.09174
#
# Velocity S-wave (km/s) = 2.65993 3.18662 2.93511
# Velocity P-wave (km/s) = 4.12238 5.01798 4.59207
#
# Compressibility (1/GPa) = 0.06298329
#
# Stress axis : x y z
#
# Youngs Moduli (GPa) = 24.77796 24.77796 113.40068
#
# Poissons Ratio (x) = 0.20764 0.27759
# Poissons Ratio (y) = 0.20764 0.27759
# Poissons Ratio (z) = 0.06065 0.06065
#
# Static dielectric constant tensor:
#      x y z
#    x 1.777000 0.000000 0.000000 
#    y 0.000000 1.777000 0.000000 
#    z 0.000000 0.000000 1.847080 
# 
# From -- ./inp_files/1968.got.cif
#   From: 2010.05.17/outbox.cif.g08.bks.cpg/sg154_1_cif.got.tgz:1968.got - 2010.05.20 10:41:43.
