data_PCOD9576951
_publ_section_title
;
Structure prediction by ZEFSAII (Michael W. Deem and Ramdas Pophale) SiO2 
 PCOD9576951
Probable space group: R 3 2
;
_chemical_formula_sum "Si O2"
_cell_formula_units_Z 114
_cell_length_a 21.421424
_cell_length_b 21.421424
_cell_length_c 13.139411
_cell_angle_alpha 90.000000
_cell_angle_beta 90.000000
_cell_angle_gamma 120.000000
_cell_volume 5221.595243
_symmetry_space_group_name_H-M "R 3 2"
_symmetry_group_IT_number 155
_symmetry_cell_setting 'hexagonal'
loop_
_space_group_symop_operation_xyz
x,y,z
-y,x-y,z
-x+y,-x,z
x-y,-y,-z
-x,-x+y,-z
y,x,-z
2/3+x,1/3+y,1/3+z
2/3-y,1/3+x-y,1/3+z
2/3-x+y,1/3-x,1/3+z
2/3+x-y,1/3-y,1/3-z
2/3-x,1/3-x+y,1/3-z
2/3+y,1/3+x,1/3-z
1/3+x,2/3+y,2/3+z
1/3-y,2/3+x-y,2/3+z
1/3-x+y,2/3-x,2/3+z
1/3+x-y,2/3-y,2/3-z
1/3-x,2/3-x+y,2/3-z
1/3+y,2/3+x,2/3-z
loop_
_atom_site_type_symbol
_atom_site_label
_atom_site_fract_x
_atom_site_fract_y
_atom_site_fract_z
Si Si1 0.774740 0.741088 0.605807
Si Si2 0.333334 0.666667 0.792079
Si Si3 0.561497 0.543967 0.620143
Si Si4 0.176943 0.265499 0.408216
Si Si5 0.349953 0.333334 0.833334
Si Si6 0.206972 0.254143 0.721966
Si Si7 0.466475 0.133141 0.333334
Si Si8 0.154886 0.106938 0.101053
O O1 0.735496 0.735496 0.500000
O O2 0.739126 0.666667 0.666667
O O3 0.756489 0.789723 0.679034
O O4 0.856737 0.763995 0.577535
O O5 0.333334 0.666668 0.666667
O O6 0.410466 0.731722 0.821638
O O7 0.563505 0.563505 0.500000
O O8 0.497876 0.463879 0.638542
O O9 0.550041 0.601311 0.686806
O O10 0.202985 0.333334 0.333334
O O11 0.234366 0.300722 0.500484
O O12 0.195982 0.209512 0.353589
O O13 0.289732 0.309454 0.747658
O O14 0.166128 0.212652 0.824910
O O15 0.537077 0.159286 0.405525
O O16 0.143390 0.143390 0.000000
#
# Coordination Sequence:
#
# PCOD9576951 Si02
#       8
#    18   6  18  18   9  18   9  18
#     4  11  25  46  70 102 139 188 237 287 356 424
#     4   9  18  36  54  87 129 175 221 253 324 420
#     4  12  25  42  67 103 144 177 228 294 351 419
#     4   9  23  43  67  97 133 181 225 287 347 421
#     4  10  20  44  68  94 142 166 230 274 360 414
#     4  11  23  41  64 107 135 175 233 288 349 418
#     4  12  22  38  62  94 142 182 224 278 352 420
#     4  11  21  38  62  93 139 188 226 271 343 419
#
# _framework density 21.832408000000001
#
# number of rings (size 3 to 8) (size 9 to 14) (size 15 to 20)
#    0.000    1.263    5.526    0.474    2.211    5.684 
#    2.842    0.000    0.000    0.632    2.053    0.000 
#    0.000    0.000    0.000    0.000    0.000    0.000 
#
# Total GULP energy -211682.604956 kJ/mol
# GULP energy per Si atom -5570.594867 kJ/mol
# Density = 2.178272 g / cm^3
# Si number density = 21.832408 Si / 1000 Ang^3
#
#
#
# Elastic Constant Matrix: (Units=GPa)
#
#
# Indices 1 2 3 4 5 6 
#
# 1 -24.3747 233.2337 60.1699 159.4484 0.0072 -0.0019
# 2 233.2337 -24.3733 60.1692 -159.4480 -0.0074 0.0022
# 3 60.1699 60.1692 53.7304 -0.0001 -0.0001 0.0001
# 4 159.4484 -159.4480 -0.0001 -118.7804 -0.0017 -0.0036
# 5 0.0072 -0.0074 -0.0001 -0.0017 -118.7747 159.4421
# 6 -0.0019 0.0022 0.0001 -0.0036 159.4421 -128.7974
#
#
#
# Elastic Compliance Matrix: (Units=1/GPa)
#
#
# Indices 1 2 3 4 5 6 
#
# 1 0.009681 0.003815 -0.015113 0.007875 0.000000 0.000000
# 2 0.003815 0.009681 -0.015113 -0.007874 0.000000 0.000000
# 3 -0.015113 -0.015113 0.052459 0.000000 0.000000 0.000000
# 4 0.007875 -0.007874 0.000000 0.012722 0.000000 -0.000001
# 5 0.000000 0.000000 0.000000 0.000000 0.012722 0.015749
# 6 0.000000 0.000000 0.000000 -0.000001 0.015749 0.011732
#
#
# Mechanical properties :
#
#
# Convention : Reuss Voigt Hill
#
# Bulk Modulus (GPa) = 52.63418 79.12533 65.87975
# Shear Modulus (GPa) = 29.73504 -96.50984 -33.38740
#
# Velocity S-wave (km/s) = 3.69449 -6.65589 -3.91482
# Velocity P-wave (km/s) = 6.50843 4.76937 3.13151
#
# Compressibility (1/GPa) = 0.01899906
#
# Stress axis : x y z
#
# Youngs Moduli (GPa) = 103.29715 103.29811 19.06243
#
# Poissons Ratio (x) = -0.39405 0.28809
# Poissons Ratio (y) = -0.39405 0.28808
# Poissons Ratio (z) = 1.56111 1.56111
#
# Static dielectric constant tensor:
#      x y z
#    x 1.942710 0.000000 0.000000 
#    y 0.000000 1.942700 0.000000 
#    z 0.000000 0.000000 1.914190 
# 
# From -- ./inp_files/5235.got.cif
#   From: 2010.05.17/outbox.cif.g08.bks.cpg/sg155_3_cif.got.tgz:5235.got - 2010.05.20 10:44:35.
