data_PCOD9576877
_publ_section_title
;
Structure prediction by ZEFSAII (Michael W. Deem and Ramdas Pophale) SiO2 
 PCOD9576877
Probable space group: R 3 2
;
_chemical_formula_sum "Si O2"
_cell_formula_units_Z 72
_cell_length_a 23.069049
_cell_length_b 23.069049
_cell_length_c 8.278537
_cell_angle_alpha 90.000000
_cell_angle_beta 90.000000
_cell_angle_gamma 120.000000
_cell_volume 3815.431043
_symmetry_space_group_name_H-M "R 3 2"
_symmetry_group_IT_number 155
_symmetry_cell_setting 'hexagonal'
loop_
_space_group_symop_operation_xyz
x,y,z
-y,x-y,z
-x+y,-x,z
x-y,-y,-z
-x,-x+y,-z
y,x,-z
2/3+x,1/3+y,1/3+z
2/3-y,1/3+x-y,1/3+z
2/3-x+y,1/3-x,1/3+z
2/3+x-y,1/3-y,1/3-z
2/3-x,1/3-x+y,1/3-z
2/3+y,1/3+x,1/3-z
1/3+x,2/3+y,2/3+z
1/3-y,2/3+x-y,2/3+z
1/3-x+y,2/3-x,2/3+z
1/3+x-y,2/3-y,2/3-z
1/3-x,2/3-x+y,2/3-z
1/3+y,2/3+x,2/3-z
loop_
_atom_site_type_symbol
_atom_site_label
_atom_site_fract_x
_atom_site_fract_y
_atom_site_fract_z
Si Si1 0.670703 0.593197 0.647879
Si Si2 0.849701 0.590186 0.835871
Si Si3 0.260304 0.132269 0.821732
Si Si4 0.124328 0.256178 0.822163
O O1 0.678666 0.666667 0.666667
O O2 0.666667 0.569248 0.833334
O O3 0.737237 0.604793 0.556634
O O4 0.608060 0.535184 0.555377
O O5 0.913207 0.579874 0.833334
O O6 0.866652 0.667076 0.833861
O O7 0.809405 0.559569 0.669368
O O8 0.808380 0.559443 0.000560
O O9 0.227378 0.119634 0.998567
O O10 0.183409 0.333334 0.833334
#
# Coordination Sequence:
#
# PCOD9576877 Si02
#       4
#    18  18  18  18
#     4  12  19  32  55  89 130 167 191 242 308 385
#     4  10  20  37  53  71 111 161 205 258 288 344
#     4  10  20  38  53  82 116 150 212 253 302 374
#     4  10  20  33  53  81 117 158 197 242 300 373
#
# _framework density 18.870737999999999
#
# number of rings (size 3 to 8) (size 9 to 14) (size 15 to 20)
#    0.000    1.500    5.000    3.000    0.000    1.000 
#    0.000   15.000    0.000    0.000    0.000    0.000 
#   10.000    0.000    3.000    0.000    0.000    0.000 
#
# Total GULP energy -133646.046526 kJ/mol
# GULP energy per Si atom -5568.585272 kJ/mol
# Density = 1.882779 g / cm^3
# Si number density = 18.870738 Si / 1000 Ang^3
#
#
#
# Elastic Constant Matrix: (Units=GPa)
#
#
# Indices 1 2 3 4 5 6 
#
# 1 82.1516 -18.5897 28.9527 -12.7026 0.0157 -0.0609
# 2 -18.5897 82.1613 28.9465 12.7016 -0.0106 0.0599
# 3 28.9527 28.9465 217.1590 -0.0103 0.0210 -0.0210
# 4 -12.7026 12.7016 -0.0103 9.0574 -0.0027 -0.0142
# 5 0.0157 -0.0106 0.0210 -0.0027 9.0734 -12.7084
# 6 -0.0609 0.0599 -0.0210 -0.0142 -12.7084 50.3273
#
#
#
# Elastic Compliance Matrix: (Units=1/GPa)
#
#
# Indices 1 2 3 4 5 6 
#
# 1 0.016632 0.001275 -0.002386 0.021536 0.000028 0.000031
# 2 0.001275 0.016630 -0.002388 -0.021537 -0.000030 -0.000033
# 3 -0.002386 -0.002388 0.005241 0.000008 -0.000012 -0.000001
# 4 0.021536 -0.021537 0.000008 0.170813 0.000199 0.000150
# 5 0.000028 -0.000030 -0.000012 0.000199 0.170523 0.043060
# 6 0.000031 -0.000033 -0.000001 0.000150 0.043060 0.030743
#
#
# Mechanical properties :
#
#
# Convention : Reuss Voigt Hill
#
# Bulk Modulus (GPa) = 31.74132 51.12120 41.43126
# Shear Modulus (GPa) = 11.67998 36.50244 24.09121
#
# Velocity S-wave (km/s) = 2.49056 4.40289 3.57689
# Velocity P-wave (km/s) = 5.01273 7.27985 6.24995
#
# Compressibility (1/GPa) = 0.03150468
#
# Stress axis : x y z
#
# Youngs Moduli (GPa) = 60.12498 60.13154 190.79051
#
# Poissons Ratio (x) = -0.07664 0.45529
# Poissons Ratio (y) = -0.07663 0.45555
# Poissons Ratio (z) = 0.14348 0.14358
#
# Static dielectric constant tensor:
#      x y z
#    x 1.647360 0.000000 0.000000 
#    y 0.000000 1.647360 0.000000 
#    z 0.000000 0.000000 1.824890 
# 
# From -- ./inp_files/2408.got.cif
#   From: 2010.05.17/outbox.cif.g08.bks.cpg/sg155_2_cif.got.tgz:2408.got - 2010.05.20 10:44:35.
