data_PCOD9576389
_publ_section_title
;
Structure prediction by ZEFSAII (Michael W. Deem and Ramdas Pophale) SiO2 
 PCOD9576389
Probable space group: P 32 2 1
;
_chemical_formula_sum "Si O2"
_cell_formula_units_Z 39
_cell_length_a 11.083421
_cell_length_b 11.083421
_cell_length_c 17.252100
_cell_angle_alpha 90.000000
_cell_angle_beta 90.000000
_cell_angle_gamma 120.000000
_cell_volume 1835.355758
_symmetry_space_group_name_H-M "P 32 2 1"
_symmetry_group_IT_number 154
_symmetry_cell_setting 'hexagonal'
loop_
_space_group_symop_operation_xyz
x,y,z
-y,x-y,2/3+z
-x+y,-x,1/3+z
x-y,-y,1/3-z
-x,-x+y,2/3-z
y,x,-z
loop_
_atom_site_type_symbol
_atom_site_label
_atom_site_fract_x
_atom_site_fract_y
_atom_site_fract_z
Si Si1 0.207782 0.238995 0.892727
Si Si2 0.399420 0.775737 0.354385
Si Si3 0.237190 0.939658 0.348110
Si Si4 0.751510 0.524276 0.943666
Si Si5 0.179713 0.489023 0.559917
Si Si6 0.548884 0.000000 0.666667
Si Si7 0.958838 0.630585 0.078152
O O1 0.209092 0.108026 0.932369
O O2 0.345541 0.374602 0.928976
O O3 0.245507 0.238126 0.803695
O O4 0.081652 0.256266 0.927543
O O5 0.286622 0.825569 0.361514
O O6 0.363072 0.629519 0.393348
O O7 0.429982 0.761518 0.264705
O O8 0.538701 0.896548 0.390459
O O9 0.367659 0.080689 0.379619
O O10 0.751120 0.573786 0.857053
O O11 0.605278 0.481102 0.984170
O O12 0.875732 0.623547 0.000192
O O13 0.130043 0.603777 0.552585
#
# Coordination Sequence:
#
# PCOD9576389 Si02
#       7
#     6   6   6   6   6   3   6
#     4  10  18  35  57  82 117 156 199 265 297 380
#     4  10  20  35  52  85 123 155 199 242 318 373
#     4   9  19  35  55  86 113 158 204 240 318 364
#     4  11  21  34  56  88 120 160 202 252 320 375
#     4  10  21  35  55  82 123 161 196 263 302 387
#     4  10  18  32  54  82 114 160 192 248 320 354
#     4  10  22  33  55  86 116 159 205 251 317 375
#
# _framework density 21.249286999999999
#
# number of rings (size 3 to 8) (size 9 to 14) (size 15 to 20)
#    0.000    2.154    4.615    0.000    4.308    0.615 
#    0.000    0.769    0.000    1.846    8.000    0.000 
#    0.000    0.000    0.000    0.000    0.000    0.000 
#
# Total GULP energy -217374.477711 kJ/mol
# GULP energy per Si atom -5573.704557 kJ/mol
# Density = 2.120092 g / cm^3
# Si number density = 21.249287 Si / 1000 Ang^3
#
#
#
# Elastic Constant Matrix: (Units=GPa)
#
#
# Indices 1 2 3 4 5 6 
#
# 1 36.5967 13.0751 18.8361 2.0265 0.0000 0.0000
# 2 13.0751 36.5967 18.8361 -2.0265 0.0000 0.0000
# 3 18.8361 18.8361 90.2526 0.0000 0.0000 0.0000
# 4 2.0265 -2.0265 0.0000 23.4854 0.0000 0.0000
# 5 0.0000 0.0000 0.0000 0.0000 23.4854 2.0265
# 6 0.0000 0.0000 0.0000 0.0000 2.0265 11.7608
#
#
#
# Elastic Compliance Matrix: (Units=1/GPa)
#
#
# Indices 1 2 3 4 5 6 
#
# 1 0.033537 -0.009619 -0.004992 -0.003724 0.000000 0.000000
# 2 -0.009619 0.033537 -0.004992 0.003724 0.000000 0.000000
# 3 -0.004992 -0.004992 0.013164 0.000000 0.000000 0.000000
# 4 -0.003724 0.003724 0.000000 0.043222 0.000000 0.000000
# 5 0.000000 0.000000 0.000000 0.000000 0.043222 -0.007448
# 6 0.000000 0.000000 0.000000 0.000000 -0.007448 0.086312
#
#
# Mechanical properties :
#
#
# Convention : Reuss Voigt Hill
#
# Bulk Modulus (GPa) = 24.37094 29.43787 26.90440
# Shear Modulus (GPa) = 16.34650 19.25958 17.80304
#
# Velocity S-wave (km/s) = 2.77659 3.01385 2.89765
# Velocity P-wave (km/s) = 4.66618 5.09850 4.88712
#
# Compressibility (1/GPa) = 0.04103247
#
# Stress axis : x y z
#
# Youngs Moduli (GPa) = 29.81790 29.81790 75.96693
#
# Poissons Ratio (x) = 0.28682 0.37921
# Poissons Ratio (y) = 0.28682 0.37921
# Poissons Ratio (z) = 0.14884 0.14884
#
# Static dielectric constant tensor:
#      x y z
#    x 1.818140 0.000000 0.000000 
#    y 0.000000 1.818140 0.000000 
#    z 0.000000 0.000000 1.826910 
# 
# From -- ./inp_files/2440.got.cif
#   From: 2010.05.17/outbox.cif.g08.bks.cpg/sg154_2_cif.got.tgz:2440.got - 2010.05.20 10:41:43.
