data_PCOD9576830
_publ_section_title
;
Structure prediction by ZEFSAII (Michael W. Deem and Ramdas Pophale) SiO2 
 PCOD9576830
Probable space group: R 3 2
;
_chemical_formula_sum "Si O2"
_cell_formula_units_Z 144
_cell_length_a 21.680409
_cell_length_b 21.680409
_cell_length_c 20.320770
_cell_angle_alpha 90.000000
_cell_angle_beta 90.000000
_cell_angle_gamma 120.000000
_cell_volume 8271.908728
_symmetry_space_group_name_H-M "R 3 2"
_symmetry_group_IT_number 155
_symmetry_cell_setting 'hexagonal'
loop_
_space_group_symop_operation_xyz
x,y,z
-y,x-y,z
-x+y,-x,z
x-y,-y,-z
-x,-x+y,-z
y,x,-z
2/3+x,1/3+y,1/3+z
2/3-y,1/3+x-y,1/3+z
2/3-x+y,1/3-x,1/3+z
2/3+x-y,1/3-y,1/3-z
2/3-x,1/3-x+y,1/3-z
2/3+y,1/3+x,1/3-z
1/3+x,2/3+y,2/3+z
1/3-y,2/3+x-y,2/3+z
1/3-x+y,2/3-x,2/3+z
1/3+x-y,2/3-y,2/3-z
1/3-x,2/3-x+y,2/3-z
1/3+y,2/3+x,2/3-z
loop_
_atom_site_type_symbol
_atom_site_label
_atom_site_fract_x
_atom_site_fract_y
_atom_site_fract_z
Si Si1 0.166808 0.870028 0.634895
Si Si2 0.885995 0.584013 0.147454
Si Si3 0.758552 0.605656 0.117088
Si Si4 0.600315 0.729744 0.416785
Si Si5 0.699808 0.571557 0.734745
Si Si6 0.255755 0.250948 0.335360
Si Si7 0.841461 0.624356 0.477124
Si Si8 0.891391 0.490391 0.874040
O O1 0.191574 0.886133 0.710361
O O2 0.195459 0.831506 0.586422
O O3 0.083908 0.809859 0.643639
O O4 0.188745 0.947411 0.603025
O O5 0.936639 0.666667 0.166667
O O6 0.807987 0.574512 0.141807
O O7 0.902658 0.567639 0.074302
O O8 0.904551 0.538531 0.197154
O O9 0.770576 0.666667 0.166667
O O10 0.676726 0.549387 0.112444
O O11 0.582121 0.728795 0.340193
O O12 0.679894 0.739810 0.422543
O O13 0.602480 0.791305 0.459898
O O14 0.744739 0.545470 0.778436
O O15 0.319106 0.333334 0.333334
O O16 0.197133 0.242067 0.388783
O O17 0.904235 0.703611 0.497310
O O18 0.831612 0.498279 0.833334
#
# Coordination Sequence:
#
# PCOD9576830 Si02
#       8
#    18  18  18  18  18  18  18  18
#     4  10  21  34  50  84 107 140 185 236 279 332
#     4  10  19  32  51  75 106 136 171 223 282 334
#     4   9  20  36  51  72 107 145 174 216 289 336
#     4   9  19  33  54  75 104 149 183 222 271 340
#     4   9  20  35  51  76 112 144 188 226 274 331
#     4  11  19  31  53  75 108 142 181 232 279 331
#     4  11  19  31  52  81 105 133 187 229 271 323
#     4  11  20  32  50  81 112 147 189 230 280 329
#
# _framework density 17.408315000000002
#
# number of rings (size 3 to 8) (size 9 to 14) (size 15 to 20)
#    0.000    2.000    2.500    1.875    3.500    1.500 
#    0.000    0.000    0.000    1.000    3.250    3.500 
#    0.000    0.000    0.000    6.875    0.000    2.250 
#
# Total GULP energy -267284.582896 kJ/mol
# GULP energy per Si atom -5568.428810 kJ/mol
# Density = 1.736869 g / cm^3
# Si number density = 17.408315 Si / 1000 Ang^3
#
#
#
# Elastic Constant Matrix: (Units=GPa)
#
#
# Indices 1 2 3 4 5 6 
#
# 1 56.0741 44.1609 33.6867 -0.6866 0.0006 0.0000
# 2 44.1609 56.0741 33.6867 0.6866 -0.0006 0.0000
# 3 33.6867 33.6867 67.1036 0.0000 0.0000 0.0000
# 4 -0.6866 0.6866 0.0000 19.7794 0.0000 -0.0006
# 5 0.0006 -0.0006 0.0000 0.0000 19.7794 -0.6866
# 6 0.0000 0.0000 0.0000 -0.0006 -0.6866 5.9566
#
#
#
# Elastic Compliance Matrix: (Units=1/GPa)
#
#
# Indices 1 2 3 4 5 6 
#
# 1 0.049667 -0.034610 -0.007559 0.002926 -0.000002 0.000000
# 2 -0.034610 0.049667 -0.007559 -0.002926 0.000002 0.000000
# 3 -0.007559 -0.007559 0.022492 0.000000 0.000000 0.000000
# 4 0.002926 -0.002926 0.000000 0.050761 0.000000 0.000005
# 5 -0.000002 0.000002 0.000000 0.000000 0.050761 0.005851
# 6 0.000000 0.000000 0.000000 0.000005 0.005851 0.168555
#
#
# Mechanical properties :
#
#
# Convention : Reuss Voigt Hill
#
# Bulk Modulus (GPa) = 44.70156 44.70225 44.70191
# Shear Modulus (GPa) = 10.02373 13.61760 11.82067
#
# Velocity S-wave (km/s) = 2.40219 2.79990 2.60864
# Velocity P-wave (km/s) = 5.78170 6.01556 5.89979
#
# Compressibility (1/GPa) = 0.02237058
#
# Stress axis : x y z
#
# Youngs Moduli (GPa) = 20.13390 20.13390 44.46089
#
# Poissons Ratio (x) = 0.69684 0.33608
# Poissons Ratio (y) = 0.69684 0.33608
# Poissons Ratio (z) = 0.15219 0.15219
#
# Static dielectric constant tensor:
#      x y z
#    x 1.602320 0.000000 0.000000 
#    y 0.000000 1.602320 0.000000 
#    z 0.000000 0.000000 1.640710 
# 
# From -- ./inp_files/7052.got.cif
#   From: 2010.05.17/outbox.cif.g08.bks.cpg/sg155_4_cif.got.tgz:7052.got - 2010.05.20 10:44:35.
