data_PCOD9576851
_publ_section_title
;
Structure prediction by ZEFSAII (Michael W. Deem and Ramdas Pophale) SiO2 
 PCOD9576851
Probable space group: R 3 2
;
_chemical_formula_sum "Si O2"
_cell_formula_units_Z 84
_cell_length_a 14.456174
_cell_length_b 14.456174
_cell_length_c 26.309596
_cell_angle_alpha 90.000000
_cell_angle_beta 90.000000
_cell_angle_gamma 120.000000
_cell_volume 4761.585037
_symmetry_space_group_name_H-M "R 3 2"
_symmetry_group_IT_number 155
_symmetry_cell_setting 'hexagonal'
loop_
_space_group_symop_operation_xyz
x,y,z
-y,x-y,z
-x+y,-x,z
x-y,-y,-z
-x,-x+y,-z
y,x,-z
2/3+x,1/3+y,1/3+z
2/3-y,1/3+x-y,1/3+z
2/3-x+y,1/3-x,1/3+z
2/3+x-y,1/3-y,1/3-z
2/3-x,1/3-x+y,1/3-z
2/3+y,1/3+x,1/3-z
1/3+x,2/3+y,2/3+z
1/3-y,2/3+x-y,2/3+z
1/3-x+y,2/3-x,2/3+z
1/3+x-y,2/3-y,2/3-z
1/3-x,2/3-x+y,2/3-z
1/3+y,2/3+x,2/3-z
loop_
_atom_site_type_symbol
_atom_site_label
_atom_site_fract_x
_atom_site_fract_y
_atom_site_fract_z
Si Si1 0.333334 0.666667 0.056903
Si Si2 0.556484 0.998181 0.061399
Si Si3 0.456930 0.903709 0.398527
Si Si4 0.003481 0.350102 0.106740
Si Si5 0.782080 0.212996 0.943089
Si Si6 0.000000 0.000000 0.732789
O O1 0.450298 0.694555 0.072534
O O2 0.333334 0.666667 0.995455
O O3 0.455567 0.999247 0.087147
O O4 0.568904 0.894775 0.071546
O O5 0.671411 0.099303 0.075702
O O6 0.540748 0.000000 0.000000
O O7 0.421279 0.980993 0.423820
O O8 0.452931 0.912763 0.337412
O O9 0.366783 0.785007 0.415015
O O10 0.018477 0.351811 0.166667
O O11 0.105484 0.351263 0.081407
#
# Coordination Sequence:
#
# PCOD9576851 Si02
#       6
#     6  18  18  18  18   6
#     4   9  15  27  55  91 111 132 177 235 301 342
#     4  10  20  37  63  86 107 150 204 247 286 335
#     4  10  19  36  60  84 109 148 206 250 273 329
#     4  12  24  36  52  88 126 156 183 226 307 361
#     4  10  19  35  59  86 114 146 192 244 292 344
#     4   9  15  27  60  85 100 138 196 253 270 303
#
# _framework density 17.641183999999999
#
# number of rings (size 3 to 8) (size 9 to 14) (size 15 to 20)
#    0.000    1.714    4.286    1.929    0.000    0.857 
#    3.857    0.000    0.000    0.857    0.000    3.000 
#    0.000    0.000    0.000    0.000    0.000    0.000 
#
# Total GULP energy -156022.518989 kJ/mol
# GULP energy per Si atom -5572.232821 kJ/mol
# Density = 1.760103 g / cm^3
# Si number density = 17.641184 Si / 1000 Ang^3
#
#
#
# Elastic Constant Matrix: (Units=GPa)
#
#
# Indices 1 2 3 4 5 6 
#
# 1 87.0458 40.2745 36.1091 1.3843 0.0013 0.0000
# 2 40.2745 87.0449 36.1091 -1.3843 -0.0013 0.0000
# 3 36.1091 36.1091 50.8875 0.0000 0.0000 0.0000
# 4 1.3843 -1.3843 0.0000 6.8858 0.0000 -0.0013
# 5 0.0013 -0.0013 0.0000 0.0000 6.8854 1.3844
# 6 0.0000 0.0000 0.0000 -0.0013 1.3844 23.3856
#
#
#
# Elastic Compliance Matrix: (Units=1/GPa)
#
#
# Indices 1 2 3 4 5 6 
#
# 1 0.017392 -0.004247 -0.009327 -0.004350 -0.000004 0.000000
# 2 -0.004247 0.017392 -0.009328 0.004350 0.000004 0.000000
# 3 -0.009327 -0.009328 0.032888 0.000000 0.000000 0.000000
# 4 -0.004350 0.004350 0.000000 0.146976 0.000000 0.000008
# 5 -0.000004 0.000004 0.000000 0.000000 0.146984 -0.008701
# 6 0.000000 0.000000 0.000000 0.000008 -0.008701 0.043276
#
#
# Mechanical properties :
#
#
# Convention : Reuss Voigt Hill
#
# Bulk Modulus (GPa) = 45.72793 49.99596 47.86195
# Shear Modulus (GPa) = 10.91699 14.93040 12.92369
#
# Velocity S-wave (km/s) = 2.49034 2.91234 2.70957
# Velocity P-wave (km/s) = 5.85205 6.30167 6.08101
#
# Compressibility (1/GPa) = 0.02186847
#
# Stress axis : x y z
#
# Youngs Moduli (GPa) = 57.49935 57.49841 30.40580
#
# Poissons Ratio (x) = 0.24418 0.28361
# Poissons Ratio (y) = 0.24418 0.28361
# Poissons Ratio (z) = 0.53632 0.53632
#
# Static dielectric constant tensor:
#      x y z
#    x 1.627090 0.000000 0.000000 
#    y 0.000000 1.627090 0.000000 
#    z 0.000000 0.000000 1.579590 
# 
# From -- ./inp_files/7394.got.cif
#   From: 2010.05.17/outbox.cif.g08.bks.cpg/sg155_4_cif.got.tgz:7394.got - 2010.05.20 10:44:35.
