data_PCOD9576442
_publ_section_title
;
Structure prediction by ZEFSAII (Michael W. Deem and Ramdas Pophale) SiO2 
 PCOD9576442
Probable space group: P 32 2 1
;
_chemical_formula_sum "Si O2"
_cell_formula_units_Z 39
_cell_length_a 9.229938
_cell_length_b 9.229938
_cell_length_c 27.410635
_cell_angle_alpha 90.000000
_cell_angle_beta 90.000000
_cell_angle_gamma 120.000000
_cell_volume 2022.307981
_symmetry_space_group_name_H-M "P 32 2 1"
_symmetry_group_IT_number 154
_symmetry_cell_setting 'hexagonal'
loop_
_space_group_symop_operation_xyz
x,y,z
-y,x-y,2/3+z
-x+y,-x,1/3+z
x-y,-y,1/3-z
-x,-x+y,2/3-z
y,x,-z
loop_
_atom_site_type_symbol
_atom_site_label
_atom_site_fract_x
_atom_site_fract_y
_atom_site_fract_z
Si Si1 0.090230 0.282025 0.983071
Si Si2 0.446150 0.064495 0.918660
Si Si3 0.491372 0.932803 0.271331
Si Si4 0.187162 0.363416 0.515325
Si Si5 0.666184 0.666184 0.000000
Si Si6 0.305985 0.751160 0.748166
Si Si7 0.701887 0.979701 0.366808
O O1 0.152026 0.446001 0.948927
O O2 0.920042 0.138515 0.958174
O O3 0.210190 0.210190 0.000000
O O4 0.039555 0.343093 0.031898
O O5 0.551152 0.259778 0.909567
O O6 0.585401 0.009392 0.927875
O O7 0.313737 0.972703 0.876601
O O8 0.533857 0.871242 0.221214
O O9 0.587279 0.910359 0.317577
O O10 0.583989 0.135858 0.269145
O O11 0.203158 0.203158 0.500000
O O12 0.201252 0.455967 0.465159
O O13 0.529499 0.633117 0.041109
O O14 0.837369 0.695540 0.024217
#
# Coordination Sequence:
#
# PCOD9576442 Si02
#       7
#     6   6   6   6   3   6   6
#     4  11  21  35  62  95 125 158 207 266 317 369
#     4  11  23  40  60  94 125 165 207 262 321 388
#     4   9  19  39  62  87 120 170 208 248 318 391
#     4  10  22  42  67  83 126 178 216 256 326 402
#     4  10  22  38  66  98 128 162 214 274 330 398
#     4  10  22  40  64  92 122 165 216 267 319 386
#     4  10  19  36  64  90 126 160 208 258 324 379
#
# _framework density 19.284897999999998
#
# number of rings (size 3 to 8) (size 9 to 14) (size 15 to 20)
#    0.000    1.846    3.846    0.000    1.077    1.231 
#    2.769    0.000    0.000    0.000    0.000    0.000 
#    0.000    0.000    0.000    0.000    0.000    0.000 
#
# Total GULP energy -217451.209984 kJ/mol
# GULP energy per Si atom -5575.672051 kJ/mol
# Density = 1.924101 g / cm^3
# Si number density = 19.284898 Si / 1000 Ang^3
#
#
#
# Elastic Constant Matrix: (Units=GPa)
#
#
# Indices 1 2 3 4 5 6 
#
# 1 105.9427 59.2130 26.8930 -9.7480 0.0000 0.0000
# 2 59.2130 105.9427 26.8930 9.7480 0.0000 0.0000
# 3 26.8930 26.8930 68.8202 0.0000 0.0000 0.0000
# 4 -9.7480 9.7480 0.0000 14.5409 0.0000 0.0000
# 5 0.0000 0.0000 0.0000 0.0000 14.5409 -9.7480
# 6 0.0000 0.0000 0.0000 0.0000 -9.7480 23.3649
#
#
#
# Elastic Compliance Matrix: (Units=1/GPa)
#
#
# Indices 1 2 3 4 5 6 
#
# 1 0.018323 -0.011386 -0.002711 0.019916 0.000000 0.000000
# 2 -0.011386 0.018323 -0.002711 -0.019916 0.000000 0.000000
# 3 -0.002711 -0.002711 0.016649 0.000000 0.000000 0.000000
# 4 0.019916 -0.019916 0.000000 0.095475 0.000000 0.000000
# 5 0.000000 0.000000 0.000000 0.000000 0.095475 0.039833
# 6 0.000000 0.000000 0.000000 0.000000 0.039833 0.059418
#
#
# Mechanical properties :
#
#
# Convention : Reuss Voigt Hill
#
# Bulk Modulus (GPa) = 50.81125 56.30039 53.55582
# Shear Modulus (GPa) = 14.54167 21.66979 18.10573
#
# Velocity S-wave (km/s) = 2.74897 3.35575 3.06740
# Velocity P-wave (km/s) = 6.03992 6.65373 6.35424
#
# Compressibility (1/GPa) = 0.01968068
#
# Stress axis : x y z
#
# Youngs Moduli (GPa) = 54.57503 54.57503 60.06204
#
# Poissons Ratio (x) = 0.62137 0.16283
# Poissons Ratio (y) = 0.62137 0.16283
# Poissons Ratio (z) = 0.14796 0.14796
#
# Static dielectric constant tensor:
#      x y z
#    x 1.695980 0.000000 0.000000 
#    y 0.000000 1.695980 0.000000 
#    z 0.000000 0.000000 1.686310 
# 
# From -- ./inp_files/3711.got.cif
#   From: 2010.05.17/outbox.cif.g08.bks.cpg/sg154_2_cif.got.tgz:3711.got - 2010.05.20 10:41:43.
