data_PCOD9576569
_publ_section_title
;
Structure prediction by ZEFSAII (Michael W. Deem and Ramdas Pophale) SiO2 
 PCOD9576569
Probable space group: P 32 2 1
;
_chemical_formula_sum "Si O2"
_cell_formula_units_Z 48
_cell_length_a 15.202585
_cell_length_b 15.202585
_cell_length_c 11.148960
_cell_angle_alpha 90.000000
_cell_angle_beta 90.000000
_cell_angle_gamma 120.000000
_cell_volume 2231.515304
_symmetry_space_group_name_H-M "P 32 2 1"
_symmetry_group_IT_number 154
_symmetry_cell_setting 'hexagonal'
loop_
_space_group_symop_operation_xyz
x,y,z
-y,x-y,2/3+z
-x+y,-x,1/3+z
x-y,-y,1/3-z
-x,-x+y,2/3-z
y,x,-z
loop_
_atom_site_type_symbol
_atom_site_label
_atom_site_fract_x
_atom_site_fract_y
_atom_site_fract_z
Si Si1 0.807296 0.112712 0.614639
Si Si2 0.213908 0.329957 0.333735
Si Si3 0.437270 0.997382 0.473065
Si Si4 0.478965 0.849262 0.353223
Si Si5 0.325400 0.209626 0.409849
Si Si6 0.988575 0.267372 0.966680
Si Si7 0.745326 0.472414 0.395425
Si Si8 0.492019 0.667461 0.011211
O O1 0.817298 0.114279 0.470025
O O2 0.758278 0.180539 0.660239
O O3 0.920059 0.167571 0.669179
O O4 0.739563 0.000000 0.666667
O O5 0.288252 0.287277 0.368586
O O6 0.152139 0.291251 0.461142
O O7 0.233339 0.444447 0.335647
O O8 0.507397 0.960510 0.405954
O O9 0.375142 0.907378 0.569428
O O10 0.356778 0.002364 0.387002
O O11 0.491324 0.104600 0.540537
O O12 0.554559 0.840819 0.260932
O O13 0.370531 0.811329 0.291862
O O14 0.478398 0.783934 0.468598
O O15 0.289675 0.120731 0.314705
O O16 0.000000 0.306569 0.833334
O O17 0.753481 0.380116 0.337564
#
# Coordination Sequence:
#
# PCOD9576569 Si02
#       8
#     6   6   6   6   6   6   6   6
#     4  12  25  45  76  98 135 185 231 289 347 406
#     4  11  23  47  68 100 134 181 231 284 340 418
#     4  10  21  41  67  96 131 172 229 277 342 413
#     4  11  24  45  60 102 140 179 229 282 345 422
#     4  11  27  44  68  98 144 178 225 283 351 416
#     4  12  23  44  68 102 133 180 228 282 341 419
#     4  11  24  41  66  99 137 174 235 290 337 421
#     4  10  21  40  71  99 125 176 236 277 342 415
#
# _framework density 21.510048000000001
#
# number of rings (size 3 to 8) (size 9 to 14) (size 15 to 20)
#    0.000    1.000    3.750    3.000    7.000    0.500 
#    4.500    0.000   11.000    0.000    0.000    0.000 
#    0.000    0.000    0.000    0.000    0.000    0.000 
#
# Total GULP energy -267680.619050 kJ/mol
# GULP energy per Si atom -5576.679564 kJ/mol
# Density = 2.146109 g / cm^3
# Si number density = 21.510048 Si / 1000 Ang^3
#
#
#
# Elastic Constant Matrix: (Units=GPa)
#
#
# Indices 1 2 3 4 5 6 
#
# 1 63.8984 37.5381 8.0850 10.9895 -0.0001 0.0000
# 2 37.5381 63.8984 8.0850 -10.9895 0.0001 0.0000
# 3 8.0850 8.0850 71.0445 0.0000 0.0000 0.0000
# 4 10.9895 -10.9895 0.0000 13.3737 0.0000 0.0001
# 5 -0.0001 0.0001 0.0000 0.0000 13.3737 10.9895
# 6 0.0000 0.0000 0.0000 0.0001 10.9895 13.1801
#
#
#
# Elastic Compliance Matrix: (Units=1/GPa)
#
#
# Indices 1 2 3 4 5 6 
#
# 1 0.065263 -0.055223 -0.001143 -0.099006 0.000001 0.000000
# 2 -0.055223 0.065263 -0.001143 0.099006 -0.000001 0.000000
# 3 -0.001143 -0.001143 0.014336 0.000000 0.000000 0.000000
# 4 -0.099006 0.099006 0.000000 0.237483 0.000000 -0.000001
# 5 0.000001 -0.000001 0.000000 0.000000 0.237483 -0.198011
# 6 0.000000 0.000000 0.000000 -0.000001 -0.198011 0.240972
#
#
# Mechanical properties :
#
#
# Convention : Reuss Voigt Hill
#
# Bulk Modulus (GPa) = 33.50498 34.02859 33.76679
# Shear Modulus (GPa) = 5.07221 17.66107 11.36664
#
# Velocity S-wave (km/s) = 1.53726 2.86853 2.30126
# Velocity P-wave (km/s) = 4.33142 5.17933 4.77423
#
# Compressibility (1/GPa) = 0.02984631
#
# Stress axis : x y z
#
# Youngs Moduli (GPa) = 15.32259 15.32259 69.75566
#
# Poissons Ratio (x) = 0.84615 0.07970
# Poissons Ratio (y) = 0.84615 0.07970
# Poissons Ratio (z) = 0.01751 0.01751
#
# Static dielectric constant tensor:
#      x y z
#    x 1.786130 0.000000 0.000000 
#    y 0.000000 1.786130 0.000000 
#    z 0.000000 0.000000 1.902760 
# 
# From -- ./inp_files/1792.got.cif
#   From: 2010.05.17/outbox.cif.g08.bks.cpg/sg154_1_cif.got.tgz:1792.got - 2010.05.20 10:41:43.
