data_PCOD9576193
_publ_section_title
;
Structure prediction by ZEFSAII (Michael W. Deem and Ramdas Pophale) SiO2 
 PCOD9576193
Probable space group: P 31 2 1
;
_chemical_formula_sum "Si O2"
_cell_formula_units_Z 30
_cell_length_a 8.788307
_cell_length_b 8.788307
_cell_length_c 21.609632
_cell_angle_alpha 90.000000
_cell_angle_beta 90.000000
_cell_angle_gamma 120.000000
_cell_volume 1445.401304
_symmetry_space_group_name_H-M "P 31 2 1"
_symmetry_group_IT_number 152
_symmetry_cell_setting 'hexagonal'
loop_
_space_group_symop_operation_xyz
x,y,z
-y,x-y,1/3+z
-x+y,-x,2/3+z
x-y,-y,2/3-z
-x,-x+y,1/3-z
y,x,-z
loop_
_atom_site_type_symbol
_atom_site_label
_atom_site_fract_x
_atom_site_fract_y
_atom_site_fract_z
Si Si1 0.000000 0.817538 0.166667
Si Si2 0.855760 0.000000 0.333334
Si Si3 0.686736 0.883313 0.200842
Si Si4 0.608919 0.701572 0.648094
Si Si5 0.680438 0.211623 0.141526
Si Si6 0.502956 0.352281 0.583537
O O1 0.017160 0.709919 0.108872
O O2 0.833985 0.846532 0.171079
O O3 0.741112 0.950966 0.271131
O O4 0.846813 0.815984 0.348529
O O5 0.507389 0.701480 0.199837
O O6 0.671110 0.034603 0.165527
O O7 0.522436 0.740157 0.589616
O O8 0.578585 0.510598 0.632343
O O9 0.518454 0.703933 0.712081
O O10 0.781591 0.364764 0.192596
#
# Coordination Sequence:
#
# PCOD9576193 Si02
#       6
#     3   3   6   6   6   6
#     4  12  24  48  74 110 146 198 248 304 378 456
#     4  12  24  46  74 106 142 198 248 302 378 446
#     4  12  27  47  73 109 147 199 252 309 380 449
#     4  12  26  47  74 109 150 195 248 309 373 451
#     4  12  27  47  76 106 150 198 247 315 375 447
#     4  12  26  48  77 107 150 196 245 309 378 449
#
# _framework density 20.755479000000001
#
# number of rings (size 3 to 8) (size 9 to 14) (size 15 to 20)
#    0.000    0.000    6.000    3.600    2.800    0.000 
#    0.000    0.000    0.000    0.000    0.000    0.000 
#    0.000    0.000    0.000    0.000    0.000    0.000 
#
# Total GULP energy -167754.220129 kJ/mol
# GULP energy per Si atom -5591.807338 kJ/mol
# Density = 2.070824 g / cm^3
# Si number density = 20.755479 Si / 1000 Ang^3
#
#
#
# Elastic Constant Matrix: (Units=GPa)
#
#
# Indices 1 2 3 4 5 6 
#
# 1 116.3687 38.6063 25.2312 4.4209 -0.0001 0.0000
# 2 38.6063 116.3687 25.2312 -4.4209 0.0001 0.0000
# 3 25.2312 25.2312 93.6484 0.0000 0.0000 0.0000
# 4 4.4209 -4.4209 0.0000 45.1496 0.0000 0.0001
# 5 -0.0001 0.0001 0.0000 0.0000 45.1496 4.4209
# 6 0.0000 0.0000 0.0000 0.0001 4.4209 38.8812
#
#
#
# Elastic Compliance Matrix: (Units=1/GPa)
#
#
# Indices 1 2 3 4 5 6 
#
# 1 0.010039 -0.002966 -0.001906 -0.001273 0.000000 0.000000
# 2 -0.002966 0.010039 -0.001906 0.001273 0.000000 0.000000
# 3 -0.001906 -0.001906 0.011705 0.000000 0.000000 0.000000
# 4 -0.001273 0.001273 0.000000 0.022398 0.000000 0.000000
# 5 0.000000 0.000000 0.000000 0.000000 0.022398 -0.002547
# 6 0.000000 0.000000 0.000000 0.000000 -0.002547 0.026009
#
#
# Mechanical properties :
#
#
# Convention : Reuss Voigt Hill
#
# Bulk Modulus (GPa) = 54.85850 56.05814 55.45832
# Shear Modulus (GPa) = 40.91054 41.65722 41.28388
#
# Velocity S-wave (km/s) = 4.44449 4.48487 4.46473
# Velocity P-wave (km/s) = 7.26817 7.34072 7.30453
#
# Compressibility (1/GPa) = 0.01822872
#
# Stress axis : x y z
#
# Youngs Moduli (GPa) = 99.61323 99.61323 85.43264
#
# Poissons Ratio (x) = 0.29542 0.16281
# Poissons Ratio (y) = 0.29542 0.16281
# Poissons Ratio (z) = 0.18983 0.18983
#
# Static dielectric constant tensor:
#      x y z
#    x 1.749350 0.000000 0.000000 
#    y 0.000000 1.749350 0.000000 
#    z 0.000000 0.000000 1.738330 
# 
# From -- ./inp_files/3038.got.cif
#   From: 2010.05.17/outbox.cif.g08.bks.cpg/sg152_2_cif.got.tgz:3038.got - 2010.05.20 10:36:06.
