data_PCOD9576766
_publ_section_title
;
Structure prediction by ZEFSAII (Michael W. Deem and Ramdas Pophale) SiO2 
 PCOD9576766
Probable space group: R 3 2
;
_chemical_formula_sum "Si O2"
_cell_formula_units_Z 45
_cell_length_a 10.826606
_cell_length_b 10.826606
_cell_length_c 18.977352
_cell_angle_alpha 90.000000
_cell_angle_beta 90.000000
_cell_angle_gamma 120.000000
_cell_volume 1926.419694
_symmetry_space_group_name_H-M "R 3 2"
_symmetry_group_IT_number 155
_symmetry_cell_setting 'hexagonal'
loop_
_space_group_symop_operation_xyz
x,y,z
-y,x-y,z
-x+y,-x,z
x-y,-y,-z
-x,-x+y,-z
y,x,-z
2/3+x,1/3+y,1/3+z
2/3-y,1/3+x-y,1/3+z
2/3-x+y,1/3-x,1/3+z
2/3+x-y,1/3-y,1/3-z
2/3-x,1/3-x+y,1/3-z
2/3+y,1/3+x,1/3-z
1/3+x,2/3+y,2/3+z
1/3-y,2/3+x-y,2/3+z
1/3-x+y,2/3-x,2/3+z
1/3+x-y,2/3-y,2/3-z
1/3-x,2/3-x+y,2/3-z
1/3+y,2/3+x,2/3-z
loop_
_atom_site_type_symbol
_atom_site_label
_atom_site_fract_x
_atom_site_fract_y
_atom_site_fract_z
Si Si1 0.813600 0.919816 0.193472
Si Si2 0.377437 0.191844 0.369608
Si Si3 0.117220 0.333334 0.333334
O O1 0.734439 0.881506 0.119260
O O2 0.712366 0.868867 0.260516
O O3 0.912990 0.845952 0.195253
O O4 0.398913 0.333334 0.333334
O O5 0.497935 0.164602 0.333334
O O6 0.239497 0.040252 0.352738
#
# Coordination Sequence:
#
# PCOD9576766 Si02
#       3
#    18  18   9
#     4  10  19  37  60  79 120 155 188 242 288 347
#     4  10  17  32  60  90 114 138 188 246 289 329
#     4  10  22  32  56  88 120 152 188 228 300 350
#
# _framework density 23.359397000000001
#
# number of rings (size 3 to 8) (size 9 to 14) (size 15 to 20)
#    2.000    0.000    4.000    1.600    0.000    0.000 
#    3.600    0.000    0.000    7.200    0.000    0.000 
#    0.000    0.000    0.000    0.000    0.000    0.000 
#
# Total GULP energy -83709.844515 kJ/mol
# GULP energy per Si atom -5580.656301 kJ/mol
# Density = 2.330623 g / cm^3
# Si number density = 23.359397 Si / 1000 Ang^3
#
#
#
# Elastic Constant Matrix: (Units=GPa)
#
#
# Indices 1 2 3 4 5 6 
#
# 1 46.5582 23.6804 65.6334 0.6481 -0.0001 0.0000
# 2 23.6804 46.5582 65.6334 -0.6481 0.0001 0.0000
# 3 65.6334 65.6334 295.5734 0.0000 0.0000 0.0000
# 4 0.6481 -0.6481 0.0000 32.1788 0.0000 0.0001
# 5 -0.0001 0.0001 0.0000 0.0000 32.1788 0.6481
# 6 0.0000 0.0000 0.0000 0.0001 0.6481 11.4389
#
#
#
# Elastic Compliance Matrix: (Units=1/GPa)
#
#
# Indices 1 2 3 4 5 6 
#
# 1 0.034049 -0.009712 -0.005404 -0.000881 0.000000 0.000000
# 2 -0.009712 0.034049 -0.005404 0.000881 0.000000 0.000000
# 3 -0.005404 -0.005404 0.005783 0.000000 0.000000 0.000000
# 4 -0.000881 0.000881 0.000000 0.031112 0.000000 0.000000
# 5 0.000000 0.000000 0.000000 0.000000 0.031112 -0.001763
# 6 0.000000 0.000000 0.000000 0.000000 -0.001763 0.087521
#
#
# Mechanical properties :
#
#
# Convention : Reuss Voigt Hill
#
# Bulk Modulus (GPa) = 30.45037 77.62047 54.03542
# Shear Modulus (GPa) = 18.14146 30.74213 24.44179
#
# Velocity S-wave (km/s) = 2.78982 3.63168 3.23822
# Velocity P-wave (km/s) = 4.84163 7.13347 6.09622
#
# Compressibility (1/GPa) = 0.03284033
#
# Stress axis : x y z
#
# Youngs Moduli (GPa) = 29.36981 29.36981 172.91316
#
# Poissons Ratio (x) = 0.28524 0.93443
# Poissons Ratio (y) = 0.28524 0.93443
# Poissons Ratio (z) = 0.15872 0.15872
#
# Static dielectric constant tensor:
#      x y z
#    x 1.947250 0.000000 0.000000 
#    y 0.000000 1.947250 0.000000 
#    z 0.000000 0.000000 1.763270 
# 
# From -- ./inp_files/4575.got.cif
#   From: 2010.05.17/outbox.cif.g08.bks.cpg/sg155_3_cif.got.tgz:4575.got - 2010.05.20 10:44:35.
