data_PCOD9576427
_publ_section_title
;
Structure prediction by ZEFSAII (Michael W. Deem and Ramdas Pophale) SiO2 
 PCOD9576427
Probable space group: P 32 2 1
;
_chemical_formula_sum "Si O2"
_cell_formula_units_Z 42
_cell_length_a 14.827114
_cell_length_b 14.827114
_cell_length_c 10.253142
_cell_angle_alpha 90.000000
_cell_angle_beta 90.000000
_cell_angle_gamma 120.000000
_cell_volume 1952.094587
_symmetry_space_group_name_H-M "P 32 2 1"
_symmetry_group_IT_number 154
_symmetry_cell_setting 'hexagonal'
loop_
_space_group_symop_operation_xyz
x,y,z
-y,x-y,2/3+z
-x+y,-x,1/3+z
x-y,-y,1/3-z
-x,-x+y,2/3-z
y,x,-z
loop_
_atom_site_type_symbol
_atom_site_label
_atom_site_fract_x
_atom_site_fract_y
_atom_site_fract_z
Si Si1 0.299360 0.570731 0.950233
Si Si2 0.896907 0.791056 0.413447
Si Si3 0.392905 0.123420 0.904791
Si Si4 0.454274 0.075938 0.351380
Si Si5 0.532659 0.696871 0.037739
Si Si6 0.145934 0.644899 0.840132
Si Si7 0.850867 0.604340 0.589187
O O1 0.236110 0.490334 0.065374
O O2 0.415366 0.648819 0.988421
O O3 0.240036 0.631499 0.903858
O O4 0.299696 0.493760 0.840758
O O5 0.846952 0.846952 0.500000
O O6 0.818582 0.712891 0.302727
O O7 0.912087 0.712574 0.511294
O O8 0.000000 0.869007 0.333334
O O9 0.394364 0.105035 0.751220
O O10 0.415589 0.044975 0.987882
O O11 0.474752 0.101727 0.504833
O O12 0.404439 0.146348 0.305100
O O13 0.549905 0.097458 0.260282
O O14 0.559543 0.808375 0.092315
O O15 0.093127 0.670581 0.961713
#
# Coordination Sequence:
#
# PCOD9576427 Si02
#       7
#     6   6   6   6   6   6   6
#     4  10  19  33  55  87 135 188 231 267 317 394
#     4  11  24  48  78 101 127 165 225 298 381 443
#     4  11  22  39  63  95 133 176 227 286 336 410
#     4  10  20  35  60  94 133 184 228 271 333 407
#     4  11  20  35  57  93 135 186 231 275 326 401
#     4  10  19  33  58  91 137 181 229 273 327 398
#     4   9  19  36  62  94 129 174 226 281 336 406
#
# _framework density 21.515353000000001
#
# number of rings (size 3 to 8) (size 9 to 14) (size 15 to 20)
#    0.000    1.714    1.429    5.571    0.000    0.000 
#    0.000   15.714    0.000    0.000    0.000    0.000 
#    0.000    0.000    0.000    0.000    0.000    0.000 
#
# Total GULP energy -234474.878021 kJ/mol
# GULP energy per Si atom -5582.735191 kJ/mol
# Density = 2.146638 g / cm^3
# Si number density = 21.515353 Si / 1000 Ang^3
#
#
#
# Elastic Constant Matrix: (Units=GPa)
#
#
# Indices 1 2 3 4 5 6 
#
# 1 68.0199 20.1264 44.5344 -3.6540 0.0000 0.0000
# 2 20.1264 68.0199 44.5344 3.6540 0.0000 0.0000
# 3 44.5344 44.5344 149.4491 0.0000 0.0000 0.0000
# 4 -3.6540 3.6540 0.0000 21.6469 0.0000 0.0000
# 5 0.0000 0.0000 0.0000 0.0000 21.6469 -3.6540
# 6 0.0000 0.0000 0.0000 0.0000 -3.6540 23.9467
#
#
#
# Elastic Compliance Matrix: (Units=1/GPa)
#
#
# Indices 1 2 3 4 5 6 
#
# 1 0.018832 -0.002600 -0.004837 0.003618 0.000000 0.000000
# 2 -0.002600 0.018832 -0.004837 -0.003618 0.000000 0.000000
# 3 -0.004837 -0.004837 0.009574 0.000000 0.000000 0.000000
# 4 0.003618 -0.003618 0.000000 0.047417 0.000000 0.000000
# 5 0.000000 0.000000 0.000000 0.000000 0.047417 0.007235
# 6 0.000000 0.000000 0.000000 0.000000 0.007235 0.042863
#
#
# Mechanical properties :
#
#
# Convention : Reuss Voigt Hill
#
# Bulk Modulus (GPa) = 44.07113 55.98660 50.02887
# Shear Modulus (GPa) = 23.03641 25.20100 24.11870
#
# Velocity S-wave (km/s) = 3.27570 3.42614 3.35177
# Velocity P-wave (km/s) = 5.90212 6.45983 6.18726
#
# Compressibility (1/GPa) = 0.02269059
#
# Stress axis : x y z
#
# Youngs Moduli (GPa) = 53.10079 53.10079 104.44859
#
# Poissons Ratio (x) = 0.13804 0.50523
# Poissons Ratio (y) = 0.13804 0.50523
# Poissons Ratio (z) = 0.25686 0.25686
#
# Static dielectric constant tensor:
#      x y z
#    x 1.800200 0.000000 0.000000 
#    y 0.000000 1.800200 0.000000 
#    z 0.000000 0.000000 1.852700 
# 
# From -- ./inp_files/1750.got.cif
#   From: 2010.05.17/outbox.cif.g08.bks.cpg/sg154_1_cif.got.tgz:1750.got - 2010.05.20 10:41:43.
