data_PCOD9576541
_publ_section_title
;
Structure prediction by ZEFSAII (Michael W. Deem and Ramdas Pophale) SiO2 
 PCOD9576541
Probable space group: P 32 2 1
;
_chemical_formula_sum "Si O2"
_cell_formula_units_Z 39
_cell_length_a 9.037781
_cell_length_b 9.037781
_cell_length_c 27.991837
_cell_angle_alpha 90.000000
_cell_angle_beta 90.000000
_cell_angle_gamma 120.000000
_cell_volume 1980.093322
_symmetry_space_group_name_H-M "P 32 2 1"
_symmetry_group_IT_number 154
_symmetry_cell_setting 'hexagonal'
loop_
_space_group_symop_operation_xyz
x,y,z
-y,x-y,2/3+z
-x+y,-x,1/3+z
x-y,-y,1/3-z
-x,-x+y,2/3-z
y,x,-z
loop_
_atom_site_type_symbol
_atom_site_label
_atom_site_fract_x
_atom_site_fract_y
_atom_site_fract_z
Si Si1 0.671233 0.856551 0.569093
Si Si2 0.990229 0.100247 0.048637
Si Si3 0.695827 0.902799 0.120257
Si Si4 0.448184 0.000000 0.166667
Si Si5 0.430359 0.015340 0.744799
Si Si6 0.076854 0.446227 0.997179
Si Si7 0.739334 0.456039 0.999788
O O1 0.597201 0.731006 0.524029
O O2 0.617634 0.726837 0.613588
O O3 0.870804 0.984489 0.579109
O O4 0.574897 0.964655 0.574037
O O5 0.012332 0.012332 0.000000
O O6 0.033812 0.290180 0.033291
O O7 0.806766 0.998004 0.073666
O O8 0.657615 0.709232 0.119524
O O9 0.804408 0.000000 0.166667
O O10 0.525209 0.918456 0.128605
O O11 0.332594 0.866359 0.705785
O O12 0.479210 0.191003 0.717789
O O13 0.928208 0.490852 0.995331
O O14 0.254538 0.615045 0.007143
#
# Coordination Sequence:
#
# PCOD9576541 Si02
#       7
#     6   6   6   3   6   6   6
#     4  10  21  43  64  90 126 172 218 260 332 386
#     4  10  22  41  68  94 132 170 217 273 326 388
#     4  10  25  43  60  95 131 169 213 272 327 390
#     4  10  24  42  68  86 132 174 214 276 326 394
#     4  10  21  41  62  90 128 167 212 261 320 389
#     4  10  21  37  64 102 129 163 210 277 317 381
#     4  10  21  34  65  97 131 165 205 264 325 380
#
# _framework density 19.696041000000001
#
# number of rings (size 3 to 8) (size 9 to 14) (size 15 to 20)
#    0.462    1.538    1.538    0.923    9.692    1.231 
#    2.769    0.000    0.000    0.000    0.000    0.000 
#    0.000    0.000    0.000    0.000    0.000    0.000 
#
# Total GULP energy -217388.355972 kJ/mol
# GULP energy per Si atom -5574.060410 kJ/mol
# Density = 1.965121 g / cm^3
# Si number density = 19.696041 Si / 1000 Ang^3
#
#
#
# Elastic Constant Matrix: (Units=GPa)
#
#
# Indices 1 2 3 4 5 6 
#
# 1 107.7930 68.1812 43.3241 -3.4925 -0.0001 0.0000
# 2 68.1812 107.7930 43.3241 3.4925 0.0001 0.0000
# 3 43.3241 43.3241 57.3990 0.0000 0.0000 0.0000
# 4 -3.4925 3.4925 0.0000 27.3768 0.0000 0.0001
# 5 -0.0001 0.0001 0.0000 0.0000 27.3768 -3.4925
# 6 0.0000 0.0000 0.0000 0.0001 -3.4925 19.8059
#
#
#
# Elastic Compliance Matrix: (Units=1/GPa)
#
#
# Indices 1 2 3 4 5 6 
#
# 1 0.017435 -0.008391 -0.006826 0.003295 0.000000 0.000000
# 2 -0.008391 0.017435 -0.006826 -0.003295 0.000000 0.000000
# 3 -0.006826 -0.006826 0.027726 0.000000 0.000000 0.000000
# 4 0.003295 -0.003295 0.000000 0.037368 0.000000 0.000000
# 5 0.000000 0.000000 0.000000 0.000000 0.037368 0.006589
# 6 0.000000 0.000000 0.000000 0.000000 0.006589 0.051652
#
#
# Mechanical properties :
#
#
# Convention : Reuss Voigt Hill
#
# Bulk Modulus (GPa) = 54.02633 64.73820 59.38227
# Shear Modulus (GPa) = 20.89948 22.78896 21.84422
#
# Velocity S-wave (km/s) = 3.26099 3.40521 3.33388
# Velocity P-wave (km/s) = 6.45510 6.95705 6.71077
#
# Compressibility (1/GPa) = 0.01850949
#
# Stress axis : x y z
#
# Youngs Moduli (GPa) = 57.35632 57.35632 36.06659
#
# Poissons Ratio (x) = 0.48128 0.24620
# Poissons Ratio (y) = 0.48128 0.24620
# Poissons Ratio (z) = 0.39152 0.39152
#
# Static dielectric constant tensor:
#      x y z
#    x 1.709610 0.000000 0.000000 
#    y 0.000000 1.709610 0.000000 
#    z 0.000000 0.000000 1.755770 
# 
# From -- ./inp_files/3699.got.cif
#   From: 2010.05.17/outbox.cif.g08.bks.cpg/sg154_2_cif.got.tgz:3699.got - 2010.05.20 10:41:43.
