data_PCOD9576167
_publ_section_title
;
Structure prediction by ZEFSAII (Michael W. Deem and Ramdas Pophale) SiO2 
 PCOD9576167
Probable space group: P 31 2 1
;
_chemical_formula_sum "Si O2"
_cell_formula_units_Z 36
_cell_length_a 16.823246
_cell_length_b 16.823246
_cell_length_c 7.037767
_cell_angle_alpha 90.000000
_cell_angle_beta 90.000000
_cell_angle_gamma 120.000000
_cell_volume 1724.984143
_symmetry_space_group_name_H-M "P 31 2 1"
_symmetry_group_IT_number 152
_symmetry_cell_setting 'hexagonal'
loop_
_space_group_symop_operation_xyz
x,y,z
-y,x-y,1/3+z
-x+y,-x,2/3+z
x-y,-y,2/3-z
-x,-x+y,1/3-z
y,x,-z
loop_
_atom_site_type_symbol
_atom_site_label
_atom_site_fract_x
_atom_site_fract_y
_atom_site_fract_z
Si Si1 0.408698 0.293175 0.680809
Si Si2 0.739923 0.540666 0.809409
Si Si3 0.097207 0.324282 0.188724
Si Si4 0.081896 0.446697 0.513252
Si Si5 0.448717 0.370459 0.250914
Si Si6 0.731355 0.390229 0.323019
O O1 0.329414 0.189466 0.726813
O O2 0.422749 0.327561 0.462872
O O3 0.505004 0.296624 0.716554
O O4 0.396089 0.369910 0.791741
O O5 0.751466 0.624187 0.679967
O O6 0.838025 0.546787 0.801869
O O7 0.660218 0.445988 0.723952
O O8 0.708130 0.542453 0.023878
O O9 0.075220 0.384713 0.335605
O O10 0.000000 0.230547 0.166667
O O11 0.087091 0.539040 0.435403
O O12 0.000000 0.403838 0.666667
O O13 0.635687 0.344886 0.437033
#
# Coordination Sequence:
#
# PCOD9576167 Si02
#       6
#     6   6   6   6   6   6
#     4  11  25  45  65  94 139 182 231 287 343 408
#     4  12  24  41  64  94 132 179 228 282 342 400
#     4  12  26  45  66  94 130 176 236 284 344 406
#     4  12  25  43  66  96 136 181 229 278 331 404
#     4  11  26  42  66  97 136 181 229 282 345 407
#     4  12  24  38  59  88 128 181 231 278 328 396
#
# _framework density 20.869759999999999
#
# number of rings (size 3 to 8) (size 9 to 14) (size 15 to 20)
#    0.000    0.333    5.000    4.000    7.000    0.000 
#    0.000    0.000    0.000    0.000    0.000    0.000 
#   25.000    0.000    0.000    0.000    0.000    0.000 
#
# Total GULP energy -201327.485204 kJ/mol
# GULP energy per Si atom -5592.430145 kJ/mol
# Density = 2.082226 g / cm^3
# Si number density = 20.869760 Si / 1000 Ang^3
#
#
#
# Elastic Constant Matrix: (Units=GPa)
#
#
# Indices 1 2 3 4 5 6 
#
# 1 72.1715 13.9049 20.8116 1.4224 0.0000 0.0000
# 2 13.9049 72.1715 20.8116 -1.4224 0.0000 0.0000
# 3 20.8116 20.8116 79.5142 0.0000 0.0000 0.0000
# 4 1.4224 -1.4224 0.0000 35.0518 0.0000 0.0000
# 5 0.0000 0.0000 0.0000 0.0000 35.0518 1.4224
# 6 0.0000 0.0000 0.0000 0.0000 1.4224 29.1333
#
#
#
# Elastic Compliance Matrix: (Units=1/GPa)
#
#
# Indices 1 2 3 4 5 6 
#
# 1 0.015249 -0.001948 -0.003481 -0.000698 0.000000 0.000000
# 2 -0.001948 0.015249 -0.003481 0.000698 0.000000 0.000000
# 3 -0.003481 -0.003481 0.014399 0.000000 0.000000 0.000000
# 4 -0.000698 0.000698 0.000000 0.028586 0.000000 0.000000
# 5 0.000000 0.000000 0.000000 0.000000 0.028586 -0.001396
# 6 0.000000 0.000000 0.000000 0.000000 -0.001396 0.034393
#
#
# Mechanical properties :
#
#
# Convention : Reuss Voigt Hill
#
# Bulk Modulus (GPa) = 36.93384 37.21262 37.07323
# Shear Modulus (GPa) = 30.61713 31.06930 30.84321
#
# Velocity S-wave (km/s) = 3.83437 3.86258 3.84850
# Velocity P-wave (km/s) = 6.11056 6.14511 6.12786
#
# Compressibility (1/GPa) = 0.02707544
#
# Stress axis : x y z
#
# Youngs Moduli (GPa) = 65.57888 65.57888 69.45049
#
# Poissons Ratio (x) = 0.12773 0.24178
# Poissons Ratio (y) = 0.12773 0.24178
# Poissons Ratio (z) = 0.22830 0.22830
#
# Static dielectric constant tensor:
#      x y z
#    x 1.778280 0.000000 0.000000 
#    y 0.000000 1.778280 0.000000 
#    z 0.000000 0.000000 1.879910 
# 
# From -- ./inp_files/469.got.cif
#   From: 2010.05.17/outbox.cif.g08.bks.cpg/sg152_1_cif.got.tgz:469.got - 2010.05.20 10:36:06.
