data_PCOD9576461
_publ_section_title
;
Structure prediction by ZEFSAII (Michael W. Deem and Ramdas Pophale) SiO2 
 PCOD9576461
Probable space group: P 32 2 1
;
_chemical_formula_sum "Si O2"
_cell_formula_units_Z 33
_cell_length_a 11.978163
_cell_length_b 11.978163
_cell_length_c 10.222659
_cell_angle_alpha 90.000000
_cell_angle_beta 90.000000
_cell_angle_gamma 120.000000
_cell_volume 1270.208291
_symmetry_space_group_name_H-M "P 32 2 1"
_symmetry_group_IT_number 154
_symmetry_cell_setting 'hexagonal'
loop_
_space_group_symop_operation_xyz
x,y,z
-y,x-y,2/3+z
-x+y,-x,1/3+z
x-y,-y,1/3-z
-x,-x+y,2/3-z
y,x,-z
loop_
_atom_site_type_symbol
_atom_site_label
_atom_site_fract_x
_atom_site_fract_y
_atom_site_fract_z
Si Si1 0.129278 0.638172 0.032582
Si Si2 0.777913 0.784489 0.852872
Si Si3 0.580540 0.580540 0.500000
Si Si4 0.310146 0.807950 0.794154
Si Si5 0.241694 0.479931 0.173611
Si Si6 0.742473 0.861105 0.412810
O O1 0.029120 0.511488 0.954321
O O2 0.234110 0.719722 0.917814
O O3 0.190780 0.578688 0.131524
O O4 0.066555 0.725370 0.077648
O O5 0.692480 0.631088 0.865745
O O6 0.669237 0.816328 0.804007
O O7 0.869478 0.796630 0.733571
O O8 0.831536 0.831536 0.000000
O O9 0.617403 0.723987 0.457375
O O10 0.453654 0.835650 0.780142
O O11 0.233938 0.744401 0.662339
O O12 0.854042 0.854042 0.500000
#
# Coordination Sequence:
#
# PCOD9576461 Si02
#       6
#     6   6   3   6   6   6
#     4  11  20  32  47  71  94 135 181 219 265 305
#     4   9  19  32  40  62  94 123 168 218 256 297
#     4  10  20  32  50  70 104 132 190 232 242 316
#     4  10  21  28  45  66  92 128 176 209 255 317
#     4  11  18  29  46  63  90 126 175 209 255 300
#     4   9  19  32  47  68  97 127 180 228 249 303
#
# _framework density 25.979993
#
# number of rings (size 3 to 8) (size 9 to 14) (size 15 to 20)
#    0.545    1.455    3.636    1.091    5.091    0.000 
#    0.000    0.000    0.000    0.000    0.000    0.000 
#    0.000    0.000    0.000    0.000  483.636   22.182 
#
# Total GULP energy -183998.570319 kJ/mol
# GULP energy per Si atom -5575.714252 kJ/mol
# Density = 2.592086 g / cm^3
# Si number density = 25.979993 Si / 1000 Ang^3
#
#
#
# Elastic Constant Matrix: (Units=GPa)
#
#
# Indices 1 2 3 4 5 6 
#
# 1 56.2777 28.8363 11.9345 -7.6185 0.0000 0.0000
# 2 28.8363 56.2777 11.9345 7.6185 0.0000 0.0000
# 3 11.9345 11.9345 101.7916 0.0000 0.0000 0.0000
# 4 -7.6185 7.6185 0.0000 18.2031 0.0000 0.0000
# 5 0.0000 0.0000 0.0000 0.0000 18.2031 -7.6185
# 6 0.0000 0.0000 0.0000 0.0000 -7.6185 13.7207
#
#
#
# Elastic Compliance Matrix: (Units=1/GPa)
#
#
# Indices 1 2 3 4 5 6 
#
# 1 0.029811 -0.017663 -0.001424 0.019869 0.000000 0.000000
# 2 -0.017663 0.029811 -0.001424 -0.019869 0.000000 0.000000
# 3 -0.001424 -0.001424 0.010158 0.000000 0.000000 0.000000
# 4 0.019869 -0.019869 0.000000 0.071568 0.000000 0.000000
# 5 0.000000 0.000000 0.000000 0.000000 0.071568 0.039739
# 6 0.000000 0.000000 0.000000 0.000000 0.039739 0.094948
#
#
# Mechanical properties :
#
#
# Convention : Reuss Voigt Hill
#
# Bulk Modulus (GPa) = 34.77362 35.52862 35.15112
# Shear Modulus (GPa) = 13.94811 20.80148 17.37479
#
# Velocity S-wave (km/s) = 2.31958 2.83269 2.58888
# Velocity P-wave (km/s) = 4.53737 4.94003 4.74298
#
# Compressibility (1/GPa) = 0.02875743
#
# Stress axis : x y z
#
# Youngs Moduli (GPa) = 33.54453 33.54453 98.44468
#
# Poissons Ratio (x) = 0.59249 0.14022
# Poissons Ratio (y) = 0.59249 0.14022
# Poissons Ratio (z) = 0.04778 0.04778
#
# Static dielectric constant tensor:
#      x y z
#    x 2.175500 0.000000 0.000000 
#    y 0.000000 2.175500 0.000000 
#    z 0.000000 0.000000 2.080170 
# 
# From -- ./inp_files/1647.got.cif
#   From: 2010.05.17/outbox.cif.g08.bks.cpg/sg154_1_cif.got.tgz:1647.got - 2010.05.20 10:41:43.
