data_PCOD9576053
_publ_section_title
;
Structure prediction by ZEFSAII (Michael W. Deem and Ramdas Pophale) SiO2 
 PCOD9576053
Probable space group: P 31 2 1
;
_chemical_formula_sum "Si O2"
_cell_formula_units_Z 30
_cell_length_a 6.830692
_cell_length_b 6.830692
_cell_length_c 29.864645
_cell_angle_alpha 90.000000
_cell_angle_beta 90.000000
_cell_angle_gamma 120.000000
_cell_volume 1206.750242
_symmetry_space_group_name_H-M "P 31 2 1"
_symmetry_group_IT_number 152
_symmetry_cell_setting 'hexagonal'
loop_
_space_group_symop_operation_xyz
x,y,z
-y,x-y,1/3+z
-x+y,-x,2/3+z
x-y,-y,2/3-z
-x,-x+y,1/3-z
y,x,-z
loop_
_atom_site_type_symbol
_atom_site_label
_atom_site_fract_x
_atom_site_fract_y
_atom_site_fract_z
Si Si1 0.276829 0.983625 0.452995
Si Si2 0.000000 0.343539 0.166667
Si Si3 0.254993 0.420132 0.079831
Si Si4 0.435061 0.536040 0.210068
Si Si5 0.826841 0.149798 0.928469
Si Si6 0.932160 0.000000 0.333334
O O1 0.460961 0.985196 0.418751
O O2 0.376832 0.983308 0.501610
O O3 0.165164 0.205564 0.559510
O O4 0.061440 0.731137 0.448958
O O5 0.212033 0.545393 0.194297
O O6 0.141415 0.307608 0.127601
O O7 0.195446 0.619819 0.074393
O O8 0.148089 0.250648 0.039341
O O9 0.606889 0.656705 0.251012
O O10 0.851780 0.053101 0.975825
#
# Coordination Sequence:
#
# PCOD9576053 Si02
#       6
#     6   3   6   6   6   3
#     4  10  23  41  69 107 141 191 242 311 377 442
#     4  10  22  44  72 108 142 184 248 310 372 454
#     4  10  26  45  69 103 145 191 249 310 376 452
#     4  10  23  39  69 108 145 186 240 309 375 436
#     4  11  26  44  70 104 146 197 247 303 374 453
#     4  12  28  48  68 106 144 202 246 308 382 454
#
# _framework density 24.86016
#
# number of rings (size 3 to 8) (size 9 to 14) (size 15 to 20)
#    0.000    1.600    0.000    1.800   16.800    7.200 
#    0.000    0.000    0.000    0.000    0.000    0.000 
#    0.000    0.000    0.000    0.000    0.000    0.000 
#
# Total GULP energy -167679.874124 kJ/mol
# GULP energy per Si atom -5589.329137 kJ/mol
# Density = 2.480358 g / cm^3
# Si number density = 24.860160 Si / 1000 Ang^3
#
#
#
# Elastic Constant Matrix: (Units=GPa)
#
#
# Indices 1 2 3 4 5 6 
#
# 1 117.2572 34.8642 14.0830 1.7375 -0.0001 0.0000
# 2 34.8642 117.2572 14.0830 -1.7375 0.0001 0.0000
# 3 14.0830 14.0830 85.2956 0.0000 0.0000 0.0000
# 4 1.7375 -1.7375 0.0000 39.0191 0.0000 0.0001
# 5 -0.0001 0.0001 0.0000 0.0000 39.0191 1.7375
# 6 0.0000 0.0000 0.0000 0.0001 1.7375 41.1965
#
#
#
# Elastic Compliance Matrix: (Units=1/GPa)
#
#
# Indices 1 2 3 4 5 6 
#
# 1 0.009470 -0.002689 -0.001120 -0.000541 0.000000 0.000000
# 2 -0.002689 0.009470 -0.001120 0.000541 0.000000 0.000000
# 3 -0.001120 -0.001120 0.012094 0.000000 0.000000 0.000000
# 4 -0.000541 0.000541 0.000000 0.025677 0.000000 0.000000
# 5 0.000000 0.000000 0.000000 0.000000 0.025677 -0.001083
# 6 0.000000 0.000000 0.000000 0.000000 -0.001083 0.024320
#
#
# Mechanical properties :
#
#
# Convention : Reuss Voigt Hill
#
# Bulk Modulus (GPa) = 47.22046 49.54112 48.38079
# Shear Modulus (GPa) = 40.44532 40.96559 40.70546
#
# Velocity S-wave (km/s) = 4.03788 4.06376 4.05084
# Velocity P-wave (km/s) = 6.38553 6.47998 6.43292
#
# Compressibility (1/GPa) = 0.02117726
#
# Stress axis : x y z
#
# Youngs Moduli (GPa) = 105.59222 105.59222 82.68807
#
# Poissons Ratio (x) = 0.28398 0.09258
# Poissons Ratio (y) = 0.28398 0.09258
# Poissons Ratio (z) = 0.11822 0.11822
#
# Static dielectric constant tensor:
#      x y z
#    x 2.036400 0.000000 0.000000 
#    y 0.000000 2.036400 0.000000 
#    z 0.000000 0.000000 1.946730 
# 
# From -- ./inp_files/3321.got.cif
#   From: 2010.05.17/outbox.cif.g08.bks.cpg/sg152_2_cif.got.tgz:3321.got - 2010.05.20 10:36:06.
