data_PCOD9576635
_publ_section_title
;
Structure prediction by ZEFSAII (Michael W. Deem and Ramdas Pophale) SiO2 
 PCOD9576635
Probable space group: P 32 2 1
;
_chemical_formula_sum "Si O2"
_cell_formula_units_Z 24
_cell_length_a 13.334770
_cell_length_b 13.334770
_cell_length_c 7.952138
_cell_angle_alpha 90.000000
_cell_angle_beta 90.000000
_cell_angle_gamma 120.000000
_cell_volume 1224.575591
_symmetry_space_group_name_H-M "P 32 2 1"
_symmetry_group_IT_number 154
_symmetry_cell_setting 'hexagonal'
loop_
_space_group_symop_operation_xyz
x,y,z
-y,x-y,2/3+z
-x+y,-x,1/3+z
x-y,-y,1/3-z
-x,-x+y,2/3-z
y,x,-z
loop_
_atom_site_type_symbol
_atom_site_label
_atom_site_fract_x
_atom_site_fract_y
_atom_site_fract_z
Si Si1 0.584108 0.256538 0.178648
Si Si2 0.201274 0.062544 0.489911
Si Si3 0.888121 0.639017 0.595034
Si Si4 0.000000 0.837124 0.333334
Si Si5 0.000000 0.540491 0.833334
O O1 0.637948 0.329100 0.352069
O O2 0.465699 0.258959 0.151362
O O3 0.543493 0.120539 0.197834
O O4 0.142636 0.142636 0.500000
O O5 0.324225 0.148157 0.403605
O O6 0.196014 0.000000 0.666667
O O7 0.112920 0.958768 0.371101
O O8 0.969442 0.597945 0.679734
O O9 0.967081 0.752131 0.488916
#
# Coordination Sequence:
#
# PCOD9576635 Si02
#       5
#     6   6   6   3   3
#     4  10  25  47  71  94 132 171 222 276 329 391
#     4  12  20  36  55  90 135 172 202 261 327 385
#     4  11  23  40  63  96 129 171 214 272 330 395
#     4  12  22  32  64  90 132 164 218 256 330 404
#     4  10  22  46  66  92 128 162 222 274 324 386
#
# _framework density 19.598628000000001
#
# number of rings (size 3 to 8) (size 9 to 14) (size 15 to 20)
#    0.000    1.000    5.000    0.750    7.000    0.000 
#    0.000    0.000    0.000    0.000    0.000    0.000 
#    0.000    0.000    0.000    0.000    0.000    0.000 
#
# Total GULP energy -133906.304209 kJ/mol
# GULP energy per Si atom -5579.429342 kJ/mol
# Density = 1.955402 g / cm^3
# Si number density = 19.598628 Si / 1000 Ang^3
#
#
#
# Elastic Constant Matrix: (Units=GPa)
#
#
# Indices 1 2 3 4 5 6 
#
# 1 75.3960 21.6916 20.1154 -0.7091 0.0000 0.0000
# 2 21.6916 75.3960 20.1154 0.7091 0.0000 0.0000
# 3 20.1154 20.1154 66.5931 0.0000 0.0000 0.0000
# 4 -0.7091 0.7091 0.0000 24.2255 0.0000 0.0000
# 5 0.0000 0.0000 0.0000 0.0000 24.2255 -0.7091
# 6 0.0000 0.0000 0.0000 0.0000 -0.7091 26.8522
#
#
#
# Elastic Compliance Matrix: (Units=1/GPa)
#
#
# Indices 1 2 3 4 5 6 
#
# 1 0.015204 -0.003431 -0.003556 0.000545 0.000000 0.000000
# 2 -0.003431 0.015204 -0.003556 -0.000545 0.000000 0.000000
# 3 -0.003556 -0.003556 0.017165 0.000000 0.000000 0.000000
# 4 0.000545 -0.000545 0.000000 0.041311 0.000000 0.000000
# 5 0.000000 0.000000 0.000000 0.000000 0.041311 0.001091
# 6 0.000000 0.000000 0.000000 0.000000 0.001091 0.037270
#
#
# Mechanical properties :
#
#
# Convention : Reuss Voigt Hill
#
# Bulk Modulus (GPa) = 37.75463 37.91443 37.83453
# Shear Modulus (GPa) = 25.33177 25.42481 25.37829
#
# Velocity S-wave (km/s) = 3.59907 3.60568 3.60238
# Velocity P-wave (km/s) = 6.04788 6.05987 6.05388
#
# Compressibility (1/GPa) = 0.02648682
#
# Stress axis : x y z
#
# Youngs Moduli (GPa) = 65.77099 65.77099 58.25779
#
# Poissons Ratio (x) = 0.22563 0.20719
# Poissons Ratio (y) = 0.22563 0.20719
# Poissons Ratio (z) = 0.23391 0.23391
#
# Static dielectric constant tensor:
#      x y z
#    x 1.692720 0.000000 0.000000 
#    y 0.000000 1.692720 0.000000 
#    z 0.000000 0.000000 1.608900 
# 
# From -- ./inp_files/923.got.cif
#   From: 2010.05.17/outbox.cif.g08.bks.cpg/sg154_1_cif.got.tgz:923.got - 2010.05.20 10:41:43.
