data_PCOD9576597
_publ_section_title
;
Structure prediction by ZEFSAII (Michael W. Deem and Ramdas Pophale) SiO2 
 PCOD9576597
Probable space group: P 32 2 1
;
_chemical_formula_sum "Si O2"
_cell_formula_units_Z 39
_cell_length_a 9.204668
_cell_length_b 9.204668
_cell_length_c 27.896079
_cell_angle_alpha 90.000000
_cell_angle_beta 90.000000
_cell_angle_gamma 120.000000
_cell_volume 2046.869022
_symmetry_space_group_name_H-M "P 32 2 1"
_symmetry_group_IT_number 154
_symmetry_cell_setting 'hexagonal'
loop_
_space_group_symop_operation_xyz
x,y,z
-y,x-y,2/3+z
-x+y,-x,1/3+z
x-y,-y,1/3-z
-x,-x+y,2/3-z
y,x,-z
loop_
_atom_site_type_symbol
_atom_site_label
_atom_site_fract_x
_atom_site_fract_y
_atom_site_fract_z
Si Si1 0.862953 0.632299 0.742241
Si Si2 0.853395 0.392991 0.293704
Si Si3 0.283652 0.104867 0.974252
Si Si4 0.364024 0.017881 0.805459
Si Si5 0.446955 0.495369 0.331150
Si Si6 0.601773 0.111507 0.443239
Si Si7 0.000000 0.778257 0.833334
O O1 0.817440 0.777992 0.731791
O O2 0.701478 0.467765 0.760912
O O3 0.929547 0.596122 0.694679
O O4 0.992193 0.683050 0.784996
O O5 0.831136 0.555873 0.288678
O O6 0.917961 0.361363 0.242888
O O7 0.684754 0.234660 0.315466
O O8 0.000000 0.441921 0.333334
O O9 0.368100 0.012822 0.004020
O O10 0.164603 0.164603 0.000000
O O11 0.476390 0.995719 0.846508
O O12 0.177810 0.944736 0.827524
O O13 0.429491 0.208840 0.792442
O O14 0.418409 0.443240 0.274980
#
# Coordination Sequence:
#
# PCOD9576597 Si02
#       7
#     6   6   6   6   6   6   3
#     4  10  22  41  62  89 129 163 212 273 324 391
#     4  11  22  40  67  91 119 175 219 267 321 403
#     4  10  23  37  61  92 127 161 210 266 329 380
#     4  11  23  42  64  90 130 166 221 265 336 390
#     4  11  21  42  65  93 125 168 221 269 321 398
#     4  10  24  40  64  96 126 171 216 271 325 402
#     4  10  22  40  58  88 120 168 204 258 326 384
#
# _framework density 19.05349
#
# number of rings (size 3 to 8) (size 9 to 14) (size 15 to 20)
#    0.000    1.538    3.077    1.846    8.615    1.846 
#    0.000    0.000    0.000    4.615    0.000    0.000 
#    0.000    0.000    0.000    0.000    0.000    0.000 
#
# Total GULP energy -217171.940140 kJ/mol
# GULP energy per Si atom -5568.511286 kJ/mol
# Density = 1.901012 g / cm^3
# Si number density = 19.053490 Si / 1000 Ang^3
#
#
#
# Elastic Constant Matrix: (Units=GPa)
#
#
# Indices 1 2 3 4 5 6 
#
# 1 54.8137 50.6664 38.3441 10.6381 0.0010 0.0000
# 2 50.6664 54.8137 38.3441 -10.6381 -0.0010 0.0000
# 3 38.3441 38.3441 127.2028 0.0000 0.0000 0.0000
# 4 10.6381 -10.6381 0.0000 28.7956 0.0000 -0.0010
# 5 0.0010 -0.0010 0.0000 0.0000 28.7956 10.6381
# 6 0.0000 0.0000 0.0000 -0.0010 10.6381 2.0737
#
#
#
# Elastic Compliance Matrix: (Units=1/GPa)
#
#
# Indices 1 2 3 4 5 6 
#
# 1 -0.128600 0.140742 -0.003660 0.099504 0.000009 0.000000
# 2 0.140742 -0.128600 -0.003660 -0.099504 -0.000009 0.000000
# 3 -0.003660 -0.003660 0.010068 0.000000 0.000000 0.000000
# 4 0.099504 -0.099504 0.000000 -0.038793 0.000000 -0.000018
# 5 0.000009 -0.000009 0.000000 0.000000 -0.038793 0.199008
# 6 0.000000 0.000000 0.000000 -0.000018 0.199008 -0.538685
#
#
# Mechanical properties :
#
#
# Convention : Reuss Voigt Hill
#
# Bulk Modulus (GPa) = 50.73294 54.61548 52.67421
# Shear Modulus (GPa) = -4.44968 19.23135 7.39083
#
# Velocity S-wave (km/s) = -1.52985 3.18045 1.97165
# Velocity P-wave (km/s) = 4.85426 6.49719 5.73486
#
# Compressibility (1/GPa) = 0.01971106
#
# Stress axis : x y z
#
# Youngs Moduli (GPa) = -7.77602 -7.77602 99.32516
#
# Poissons Ratio (x) = 1.09441 0.36352
# Poissons Ratio (y) = 1.09441 0.36352
# Poissons Ratio (z) = -0.02846 -0.02846
#
# Static dielectric constant tensor:
#      x y z
#    x 1.687480 0.000000 0.000000 
#    y 0.000000 1.687480 0.000000 
#    z 0.000000 0.000000 1.746420 
# 
# From -- ./inp_files/3688.got.cif
#   From: 2010.05.17/outbox.cif.g08.bks.cpg/sg154_2_cif.got.tgz:3688.got - 2010.05.20 10:41:43.
