data_PCOD9576451
_publ_section_title
;
Structure prediction by ZEFSAII (Michael W. Deem and Ramdas Pophale) SiO2 
 PCOD9576451
Probable space group: P 32 2 1
;
_chemical_formula_sum "Si O2"
_cell_formula_units_Z 24
_cell_length_a 15.085967
_cell_length_b 15.085967
_cell_length_c 5.178584
_cell_angle_alpha 90.000000
_cell_angle_beta 90.000000
_cell_angle_gamma 120.000000
_cell_volume 1020.676143
_symmetry_space_group_name_H-M "P 32 2 1"
_symmetry_group_IT_number 154
_symmetry_cell_setting 'hexagonal'
loop_
_space_group_symop_operation_xyz
x,y,z
-y,x-y,2/3+z
-x+y,-x,1/3+z
x-y,-y,1/3-z
-x,-x+y,2/3-z
y,x,-z
loop_
_atom_site_type_symbol
_atom_site_label
_atom_site_fract_x
_atom_site_fract_y
_atom_site_fract_z
Si Si1 0.820891 0.729918 0.835550
Si Si2 0.884716 0.663680 0.344898
Si Si3 0.442119 0.709764 0.479623
Si Si4 0.401169 0.941267 0.912869
O O1 0.878554 0.738881 0.565552
O O2 0.702239 0.651758 0.764788
O O3 0.822183 0.822183 0.000000
O O4 0.855374 0.678705 0.056375
O O5 0.801294 0.550719 0.433506
O O6 0.000000 0.687850 0.333334
O O7 0.370182 0.749423 0.368294
O O8 0.463380 0.642573 0.270820
O O9 0.466181 0.000000 0.666667
O O10 0.461678 0.000000 0.166667
#
# Coordination Sequence:
#
# PCOD9576451 Si02
#       4
#     6   6   6   6
#     4  10  19  39  72 102 131 172 225 282 344 414
#     4  11  24  44  69 101 145 186 236 288 352 421
#     4  11  27  45  68  97 142 190 238 301 362 420
#     4  10  21  42  69  97 124 166 228 282 340 414
#
# _framework density 23.513824
#
# number of rings (size 3 to 8) (size 9 to 14) (size 15 to 20)
#    0.000    1.500    0.000    7.500   10.500    0.000 
#    4.500    1.250    0.000    7.500    0.000    0.000 
#    0.000    0.000    0.000    0.000    0.000    0.000 
#
# Total GULP energy -134182.099920 kJ/mol
# GULP energy per Si atom -5590.920830 kJ/mol
# Density = 2.346031 g / cm^3
# Si number density = 23.513824 Si / 1000 Ang^3
#
#
#
# Elastic Constant Matrix: (Units=GPa)
#
#
# Indices 1 2 3 4 5 6 
#
# 1 67.1452 30.0430 23.7104 -5.9593 0.0000 0.0000
# 2 30.0430 67.1452 23.7104 5.9593 0.0000 0.0000
# 3 23.7104 23.7104 161.9667 0.0000 0.0000 0.0000
# 4 -5.9593 5.9593 0.0000 12.9927 0.0000 0.0000
# 5 0.0000 0.0000 0.0000 0.0000 12.9927 -5.9593
# 6 0.0000 0.0000 0.0000 0.0000 -5.9593 18.5511
#
#
#
# Elastic Compliance Matrix: (Units=1/GPa)
#
#
# Indices 1 2 3 4 5 6 
#
# 1 0.021345 -0.010265 -0.001622 0.014498 0.000000 0.000000
# 2 -0.010265 0.021345 -0.001622 -0.014498 0.000000 0.000000
# 3 -0.001622 -0.001622 0.006649 0.000000 0.000000 0.000000
# 4 0.014498 -0.014498 0.000000 0.090266 0.000000 0.000000
# 5 0.000000 0.000000 0.000000 0.000000 0.090266 0.028997
# 6 0.000000 0.000000 0.000000 0.000000 0.028997 0.063220
#
#
# Mechanical properties :
#
#
# Convention : Reuss Voigt Hill
#
# Bulk Modulus (GPa) = 44.79859 50.13163 47.46511
# Shear Modulus (GPa) = 15.26482 23.49351 19.37916
#
# Velocity S-wave (km/s) = 2.55067 3.16434 2.87393
# Velocity P-wave (km/s) = 5.26953 5.89212 5.58950
#
# Compressibility (1/GPa) = 0.02232213
#
# Stress axis : x y z
#
# Youngs Moduli (GPa) = 46.84849 46.84849 150.39770
#
# Poissons Ratio (x) = 0.48088 0.24396
# Poissons Ratio (y) = 0.48088 0.24396
# Poissons Ratio (z) = 0.07599 0.07599
#
# Static dielectric constant tensor:
#      x y z
#    x 1.905590 0.000000 0.000000 
#    y 0.000000 1.905590 0.000000 
#    z 0.000000 0.000000 1.911880 
# 
# From -- ./inp_files/185.got.cif
#   From: 2010.05.17/outbox.cif.g08.bks.cpg/sg154_1_cif.got.tgz:185.got - 2010.05.20 10:41:43.
