data_PCOD9576727
_publ_section_title
;
Structure prediction by ZEFSAII (Michael W. Deem and Ramdas Pophale) SiO2 
 PCOD9576727
Probable space group: P 32 2 1
;
_chemical_formula_sum "Si O2"
_cell_formula_units_Z 39
_cell_length_a 8.785824
_cell_length_b 8.785824
_cell_length_c 24.101279
_cell_angle_alpha 90.000000
_cell_angle_beta 90.000000
_cell_angle_gamma 120.000000
_cell_volume 1611.149052
_symmetry_space_group_name_H-M "P 32 2 1"
_symmetry_group_IT_number 154
_symmetry_cell_setting 'hexagonal'
loop_
_space_group_symop_operation_xyz
x,y,z
-y,x-y,2/3+z
-x+y,-x,1/3+z
x-y,-y,1/3-z
-x,-x+y,2/3-z
y,x,-z
loop_
_atom_site_type_symbol
_atom_site_label
_atom_site_fract_x
_atom_site_fract_y
_atom_site_fract_z
Si Si1 0.886420 0.753378 0.753962
Si Si2 0.834120 0.295036 0.299542
Si Si3 0.365092 0.182404 0.976615
Si Si4 0.297360 0.771732 0.822858
Si Si5 0.436648 0.405524 0.324849
Si Si6 0.568098 0.902132 0.471886
Si Si7 0.000000 0.061154 0.833334
O O1 0.706664 0.754293 0.740180
O O2 0.835559 0.598809 0.797423
O O3 0.933291 0.692164 0.696787
O O4 0.998604 0.945182 0.780964
O O5 0.864906 0.489443 0.292049
O O6 0.801995 0.230100 0.236461
O O7 0.660274 0.179921 0.335792
O O8 0.000000 0.314419 0.333334
O O9 0.474115 0.111796 0.012022
O O10 0.206851 0.206851 0.000000
O O11 0.311503 0.597287 0.820767
O O12 0.171193 0.251994 0.828100
O O13 0.486830 0.938596 0.836893
O O14 0.429485 0.343958 0.261996
#
# Coordination Sequence:
#
# PCOD9576727 Si02
#       7
#     6   6   6   6   6   6   3
#     4  12  28  50  77 112 160 195 263 324 396 474
#     4  11  26  44  77 107 149 203 262 317 392 467
#     4  11  25  47  73 109 150 201 257 321 381 468
#     4  12  26  52  76 115 152 214 261 327 396 485
#     4  12  27  49  75 116 149 206 260 321 388 489
#     4  12  29  50  80 108 163 202 267 319 406 474
#     4  12  30  50  74 120 154 204 248 342 396 468
#
# _framework density 24.206329
#
# number of rings (size 3 to 8) (size 9 to 14) (size 15 to 20)
#    0.000    0.308    3.077    3.692    8.615    4.308 
#    0.000    0.000    0.000    0.000    0.000    0.000 
#    0.000    0.000    0.000    0.000    0.000    0.000 
#
# Total GULP energy -218245.644768 kJ/mol
# GULP energy per Si atom -5596.042174 kJ/mol
# Density = 2.415123 g / cm^3
# Si number density = 24.206329 Si / 1000 Ang^3
#
#
#
# Elastic Constant Matrix: (Units=GPa)
#
#
# Indices 1 2 3 4 5 6 
#
# 1 138.5807 53.0334 49.1810 5.5795 -0.0001 0.0000
# 2 53.0334 138.5807 49.1810 -5.5795 0.0001 0.0000
# 3 49.1810 49.1810 94.5565 0.0000 0.0000 0.0000
# 4 5.5795 -5.5795 0.0000 37.3841 0.0000 0.0001
# 5 -0.0001 0.0001 0.0000 0.0000 37.3841 5.5795
# 6 0.0000 0.0000 0.0000 0.0001 5.5795 42.7737
#
#
#
# Elastic Compliance Matrix: (Units=1/GPa)
#
#
# Indices 1 2 3 4 5 6 
#
# 1 0.009521 -0.002401 -0.003703 -0.001779 0.000000 0.000000
# 2 -0.002401 0.009521 -0.003703 0.001779 0.000000 0.000000
# 3 -0.003703 -0.003703 0.014428 0.000000 0.000000 0.000000
# 4 -0.001779 0.001779 0.000000 0.027280 0.000000 0.000000
# 5 0.000000 0.000000 0.000000 0.000000 0.027280 -0.003559
# 6 0.000000 0.000000 0.000000 0.000000 -0.003559 0.023843
#
#
# Mechanical properties :
#
#
# Convention : Reuss Voigt Hill
#
# Bulk Modulus (GPa) = 72.17715 74.94542 73.56128
# Shear Modulus (GPa) = 36.73613 38.19654 37.46633
#
# Velocity S-wave (km/s) = 3.89990 3.97666 3.93847
# Velocity P-wave (km/s) = 7.08245 7.21896 7.15103
#
# Compressibility (1/GPa) = 0.01385480
#
# Stress axis : x y z
#
# Youngs Moduli (GPa) = 105.03480 105.03480 69.31026
#
# Poissons Ratio (x) = 0.25218 0.25667
# Poissons Ratio (y) = 0.25218 0.25667
# Poissons Ratio (z) = 0.38896 0.38896
#
# Static dielectric constant tensor:
#      x y z
#    x 1.995730 0.000000 0.000000 
#    y 0.000000 1.995730 0.000000 
#    z 0.000000 0.000000 1.936880 
# 
# From -- ./inp_files/3701.got.cif
#   From: 2010.05.17/outbox.cif.g08.bks.cpg/sg154_2_cif.got.tgz:3701.got - 2010.05.20 10:41:43.
