data_PCOD9576953
_publ_section_title
;
Structure prediction by ZEFSAII (Michael W. Deem and Ramdas Pophale) SiO2 
 PCOD9576953
Probable space group: R 3 2
;
_chemical_formula_sum "Si O2"
_cell_formula_units_Z 45
_cell_length_a 8.797726
_cell_length_b 8.797726
_cell_length_c 33.643955
_cell_angle_alpha 90.000000
_cell_angle_beta 90.000000
_cell_angle_gamma 120.000000
_cell_volume 2255.166124
_symmetry_space_group_name_H-M "R 3 2"
_symmetry_group_IT_number 155
_symmetry_cell_setting 'hexagonal'
loop_
_space_group_symop_operation_xyz
x,y,z
-y,x-y,z
-x+y,-x,z
x-y,-y,-z
-x,-x+y,-z
y,x,-z
2/3+x,1/3+y,1/3+z
2/3-y,1/3+x-y,1/3+z
2/3-x+y,1/3-x,1/3+z
2/3+x-y,1/3-y,1/3-z
2/3-x,1/3-x+y,1/3-z
2/3+y,1/3+x,1/3-z
1/3+x,2/3+y,2/3+z
1/3-y,2/3+x-y,2/3+z
1/3-x+y,2/3-x,2/3+z
1/3+x-y,2/3-y,2/3-z
1/3-x,2/3-x+y,2/3-z
1/3+y,2/3+x,2/3-z
loop_
_atom_site_type_symbol
_atom_site_label
_atom_site_fract_x
_atom_site_fract_y
_atom_site_fract_z
Si Si1 0.534911 0.666667 0.166667
Si Si2 0.668638 0.671747 0.413406
Si Si3 0.330246 0.328475 0.047457
O O1 0.496986 0.830319 0.166667
O O2 0.631303 0.659609 0.127205
O O3 0.520558 0.479544 0.400131
O O4 0.623303 0.811527 0.394406
O O5 0.854979 0.710395 0.396523
O O6 0.316826 0.316826 0.000000
#
# Coordination Sequence:
#
# PCOD9576953 Si02
#       3
#     9  18  18
#     4  10  20  46  72  94 134 174 226 282 340 398
#     4  12  25  43  72  98 137 182 222 282 339 397
#     4  12  24  43  66 102 139 179 226 275 336 407
#
# _framework density 19.954184999999999
#
# number of rings (size 3 to 8) (size 9 to 14) (size 15 to 20)
#    0.400    0.000    4.000    6.000    0.000    3.200 
#    0.000    0.000    0.000    0.000    0.000    0.000 
#    0.000    0.000    0.000    0.000    0.000    0.000 
#
# Total GULP energy -83918.801262 kJ/mol
# GULP energy per Si atom -5594.586751 kJ/mol
# Density = 1.990877 g / cm^3
# Si number density = 19.954185 Si / 1000 Ang^3
#
#
#
# Elastic Constant Matrix: (Units=GPa)
#
#
# Indices 1 2 3 4 5 6 
#
# 1 73.8576 -23.5142 33.6824 -13.1948 -0.0013 0.0000
# 2 -23.5142 73.8576 33.6824 13.1948 0.0013 0.0000
# 3 33.6824 33.6824 232.6790 0.0000 0.0000 0.0000
# 4 -13.1948 13.1948 0.0000 30.0178 0.0000 0.0013
# 5 -0.0013 0.0013 0.0000 0.0000 30.0178 -13.1948
# 6 0.0000 0.0000 0.0000 0.0013 -13.1948 48.6859
#
#
#
# Elastic Compliance Matrix: (Units=1/GPa)
#
#
# Indices 1 2 3 4 5 6 
#
# 1 0.018147 0.006488 -0.003566 0.005125 0.000000 0.000000
# 2 0.006488 0.018147 -0.003566 -0.005125 0.000000 0.000000
# 3 -0.003566 -0.003566 0.005330 0.000000 0.000000 0.000000
# 4 0.005125 -0.005125 0.000000 0.037819 0.000000 -0.000001
# 5 0.000000 0.000000 0.000000 0.000000 0.037819 0.010250
# 6 0.000000 0.000000 0.000000 -0.000001 0.010250 0.023318
#
#
# Mechanical properties :
#
#
# Convention : Reuss Voigt Hill
#
# Bulk Modulus (GPa) = 24.79142 52.01057 38.40100
# Shear Modulus (GPa) = 32.19282 44.18053 38.18668
#
# Velocity S-wave (km/s) = 4.02099 4.71053 4.37935
# Velocity P-wave (km/s) = 5.83172 7.46371 6.69761
#
# Compressibility (1/GPa) = 0.04033653
#
# Stress axis : x y z
#
# Youngs Moduli (GPa) = 55.10487 55.10487 187.60841
#
# Poissons Ratio (x) = -0.35754 0.66905
# Poissons Ratio (y) = -0.35754 0.66905
# Poissons Ratio (z) = 0.19652 0.19652
#
# Static dielectric constant tensor:
#      x y z
#    x 1.649450 0.000000 0.000000 
#    y 0.000000 1.649450 0.000000 
#    z 0.000000 0.000000 1.681590 
# 
# From -- ./inp_files/8129.got.cif
#   From: 2010.05.17/outbox.cif.g08.bks.cpg/sg155_5_cif.got.tgz:8129.got - 2010.05.20 10:44:35.
