data_PCOD9576147
_publ_section_title
;
Structure prediction by ZEFSAII (Michael W. Deem and Ramdas Pophale) SiO2 
 PCOD9576147
Probable space group: P 31 2 1
;
_chemical_formula_sum "Si O2"
_cell_formula_units_Z 33
_cell_length_a 9.137303
_cell_length_b 9.137303
_cell_length_c 18.360991
_cell_angle_alpha 90.000000
_cell_angle_beta 90.000000
_cell_angle_gamma 120.000000
_cell_volume 1327.586425
_symmetry_space_group_name_H-M "P 31 2 1"
_symmetry_group_IT_number 152
_symmetry_cell_setting 'hexagonal'
loop_
_space_group_symop_operation_xyz
x,y,z
-y,x-y,1/3+z
-x+y,-x,2/3+z
x-y,-y,2/3-z
-x,-x+y,1/3-z
y,x,-z
loop_
_atom_site_type_symbol
_atom_site_label
_atom_site_fract_x
_atom_site_fract_y
_atom_site_fract_z
Si Si1 0.318188 0.950776 0.059193
Si Si2 0.639681 0.839976 0.395804
Si Si3 0.546434 0.546434 0.500000
Si Si4 0.502173 0.234726 0.301544
Si Si5 0.430011 0.248668 0.139707
Si Si6 0.813197 0.223861 0.788894
O O1 0.383481 0.825184 0.034122
O O2 0.194250 0.875950 0.131175
O O3 0.469779 0.120670 0.095580
O O4 0.273880 0.035275 0.990879
O O5 0.574787 0.711993 0.461893
O O6 0.467637 0.826627 0.364297
O O7 0.724514 0.975212 0.235364
O O8 0.486150 0.386522 0.449824
O O9 0.405041 0.192083 0.223836
O O10 0.376142 0.153177 0.369667
O O11 0.588454 0.433615 0.136012
#
# Coordination Sequence:
#
# PCOD9576147 Si02
#       6
#     6   6   3   6   6   6
#     4  11  23  40  68 105 148 192 249 315 380 434
#     4  12  24  44  72 109 149 201 252 317 378 469
#     4  12  24  44  68 108 150 200 254 308 376 458
#     4  11  22  40  70 107 148 195 253 312 369 456
#     4  11  24  41  71 111 151 191 255 308 388 451
#     4  11  24  41  68 108 147 195 253 313 372 453
#
# _framework density 24.857139
#
# number of rings (size 3 to 8) (size 9 to 14) (size 15 to 20)
#    0.000    0.727    7.273    2.727    0.000    2.182 
#    3.273    0.909    0.000    0.000    9.455    0.000 
#    0.000    0.000    0.000    0.000    0.000    0.000 
#
# Total GULP energy -183799.842600 kJ/mol
# GULP energy per Si atom -5569.692200 kJ/mol
# Density = 2.480056 g / cm^3
# Si number density = 24.857139 Si / 1000 Ang^3
#
#
#
# Elastic Constant Matrix: (Units=GPa)
#
#
# Indices 1 2 3 4 5 6 
#
# 1 121.7826 -14.1514 30.3347 18.5620 0.0000 0.0000
# 2 -14.1514 121.7826 30.3347 -18.5620 0.0000 0.0000
# 3 30.3347 30.3347 152.9931 0.0000 0.0000 0.0000
# 4 18.5620 -18.5620 0.0000 49.1453 0.0000 0.0000
# 5 0.0000 0.0000 0.0000 0.0000 49.1453 18.5620
# 6 0.0000 0.0000 0.0000 0.0000 18.5620 67.9670
#
#
#
# Elastic Compliance Matrix: (Units=1/GPa)
#
#
# Indices 1 2 3 4 5 6 
#
# 1 0.009331 0.001129 -0.002074 -0.003098 0.000000 0.000000
# 2 0.001129 0.009331 -0.002074 0.003098 0.000000 0.000000
# 3 -0.002074 -0.002074 0.007359 0.000000 0.000000 0.000000
# 4 -0.003098 0.003098 0.000000 0.022688 0.000000 0.000000
# 5 0.000000 0.000000 0.000000 0.000000 0.022688 -0.006196
# 6 0.000000 0.000000 0.000000 0.000000 -0.006196 0.016405
#
#
# Mechanical properties :
#
#
# Convention : Reuss Voigt Hill
#
# Bulk Modulus (GPa) = 50.04282 54.39936 52.22109
# Shear Modulus (GPa) = 49.75019 56.58754 53.16887
#
# Velocity S-wave (km/s) = 4.47860 4.77646 4.62993
# Velocity P-wave (km/s) = 6.84980 7.23545 7.04526
#
# Compressibility (1/GPa) = 0.01998289
#
# Stress axis : x y z
#
# Youngs Moduli (GPa) = 107.16598 107.16598 135.89412
#
# Poissons Ratio (x) = -0.12096 0.28184
# Poissons Ratio (y) = -0.12096 0.28184
# Poissons Ratio (z) = 0.22226 0.22226
#
# Static dielectric constant tensor:
#      x y z
#    x 1.987350 0.000000 0.000000 
#    y 0.000000 1.987350 0.000000 
#    z 0.000000 0.000000 2.009450 
# 
# From -- ./inp_files/2721.got.cif
#   From: 2010.05.17/outbox.cif.g08.bks.cpg/sg152_2_cif.got.tgz:2721.got - 2010.05.20 10:36:06.
