data_PCOD9576374
_publ_section_title
;
Structure prediction by ZEFSAII (Michael W. Deem and Ramdas Pophale) SiO2 
 PCOD9576374
Probable space group: P 32 1 2
;
_chemical_formula_sum "Si O2"
_cell_formula_units_Z 48
_cell_length_a 12.000000
_cell_length_b 12.000000
_cell_length_c 21.000000
_cell_angle_alpha 90.000000
_cell_angle_beta 90.000000
_cell_angle_gamma 120.000000
_cell_volume 2618.860821
_symmetry_space_group_name_H-M "P 32 1 2"
_symmetry_group_IT_number 153
_symmetry_cell_setting 'hexagonal'
loop_
_space_group_symop_operation_xyz
x,y,z
-y,x-y,2/3+z
-x+y,-x,1/3+z
-y,-x,1/3-z
-x+y,y,2/3-z
x,x-y,-z
loop_
_atom_site_type_symbol
_atom_site_label
_atom_site_fract_x
_atom_site_fract_y
_atom_site_fract_z
Si Si1 0.777740 0.151072 0.970564
Si Si2 0.553239 0.691302 0.058659
Si Si3 0.947617 0.781436 0.149492
Si Si4 0.715187 0.621545 0.880766
Si Si5 0.584844 0.366229 0.091677
Si Si6 0.128247 0.285988 0.509372
Si Si7 0.930978 0.375757 0.755892
Si Si8 0.354233 0.944071 0.951389
O O1 0.900190 0.181536 0.923390
O O2 0.708028 0.230514 0.946334
O O3 0.665849 0.006631 0.955193
O O4 0.781989 0.141974 0.048411
O O5 0.595972 0.754778 0.127971
O O6 0.415795 0.562845 0.057080
O O7 0.559297 0.779649 0.000000
O O8 0.838171 0.821934 0.165043
O O9 0.939634 0.663045 0.192983
O O10 0.088711 0.911290 0.166667
O O11 0.784099 0.568197 0.833334
O O12 0.739689 0.755710 0.846643
O O13 0.560005 0.519149 0.888575
O O14 0.618370 0.381631 0.166667
O O15 0.532645 0.219719 0.071045
O O16 0.459610 0.383015 0.083056
O O17 0.115446 0.333552 0.580671
O O18 0.014286 0.383636 0.692992
#
# Coordination Sequence:
#
# PCOD9576374 Si02
#       8
#     6   6   6   6   6   6   6   6
#     4  10  21  39  64  92 129 171 219 275 336 394
#     4  10  17  36  62  93 127 167 215 274 333 391
#     4  11  25  42  65  93 132 180 226 275 335 409
#     4  12  26  42  64  97 138 179 220 278 345 410
#     4  11  18  36  64 100 128 159 216 280 331 389
#     4  11  22  41  63  95 131 172 230 274 330 405
#     4  12  23  41  65 101 133 170 222 282 343 395
#     4  11  21  34  64  99 127 163 222 282 328 389
#
# _framework density 18.328579999999999
#
# number of rings (size 3 to 8) (size 9 to 14) (size 15 to 20)
#    0.000    1.000    6.250    3.000    0.000    1.000 
#    0.000    3.750    0.000    0.000    0.000    0.000 
#    0.000    0.000    0.000    0.000    0.000    0.000 
#
# Total GULP energy -267275.249144 kJ/mol
# GULP energy per Si atom -5568.234357 kJ/mol
# Density = 1.828686 g / cm^3
# Si number density = 18.328580 Si / 1000 Ang^3
#
#
#
# Elastic Constant Matrix: (Units=GPa)
#
#
# Indices 1 2 3 4 5 6 
#
# 1 89.8831 28.9889 38.9699 -0.0001 -6.4320 0.0000
# 2 28.9889 89.8831 38.9699 0.0001 6.4320 0.0000
# 3 38.9699 38.9699 138.1606 0.0000 0.0000 0.0000
# 4 -0.0001 0.0001 0.0000 35.9702 0.0000 6.4320
# 5 -6.4320 6.4320 0.0000 0.0000 35.9702 -0.0001
# 6 0.0000 0.0000 0.0000 6.4320 -0.0001 30.4471
#
#
#
# Elastic Compliance Matrix: (Units=1/GPa)
#
#
# Indices 1 2 3 4 5 6 
#
# 1 0.013694 -0.003373 -0.002911 0.000000 0.003052 0.000000
# 2 -0.003373 0.013694 -0.002911 0.000000 -0.003052 0.000000
# 3 -0.002911 -0.002911 0.008880 0.000000 0.000000 0.000000
# 4 0.000000 0.000000 0.000000 0.028892 0.000000 -0.006103
# 5 0.003052 -0.003052 0.000000 0.000000 0.028892 0.000000
# 6 0.000000 0.000000 0.000000 -0.006103 0.000000 0.034133
#
#
# Mechanical properties :
#
#
# Convention : Reuss Voigt Hill
#
# Bulk Modulus (GPa) = 55.93551 59.08716 57.51134
# Shear Modulus (GPa) = 32.77934 34.54404 33.66169
#
# Velocity S-wave (km/s) = 4.23357 4.34603 4.29017
# Velocity P-wave (km/s) = 7.38119 7.58233 7.48243
#
# Compressibility (1/GPa) = 0.01787773
#
# Stress axis : x y z
#
# Youngs Moduli (GPa) = 73.02525 73.02525 112.60950
#
# Poissons Ratio (x) = 0.24629 0.32783
# Poissons Ratio (y) = 0.24629 0.32783
# Poissons Ratio (z) = 0.21259 0.21259
#
# Static dielectric constant tensor:
#      x y z
#    x 1.666010 0.000000 0.000000 
#    y 0.000000 1.666010 0.000000 
#    z 0.000000 0.000000 1.684700 
# 
# From -- ./inp_files/4068.got.cif
#   From: 2010.05.17/outbox.ucp.g08.bks.cvg/sg153_3_cif.got.tgz:4068.got - 2010.06.11 15:13:23.
