data_PCOD9576684
_publ_section_title
;
Structure prediction by ZEFSAII (Michael W. Deem and Ramdas Pophale) SiO2 
 PCOD9576684
Probable space group: P 32 2 1
;
_chemical_formula_sum "Si O2"
_cell_formula_units_Z 21
_cell_length_a 8.439180
_cell_length_b 8.439180
_cell_length_c 13.525027
_cell_angle_alpha 90.000000
_cell_angle_beta 90.000000
_cell_angle_gamma 120.000000
_cell_volume 834.198247
_symmetry_space_group_name_H-M "P 32 2 1"
_symmetry_group_IT_number 154
_symmetry_cell_setting 'hexagonal'
loop_
_space_group_symop_operation_xyz
x,y,z
-y,x-y,2/3+z
-x+y,-x,1/3+z
x-y,-y,1/3-z
-x,-x+y,2/3-z
y,x,-z
loop_
_atom_site_type_symbol
_atom_site_label
_atom_site_fract_x
_atom_site_fract_y
_atom_site_fract_z
Si Si1 0.136793 0.462252 0.671744
Si Si2 0.847992 0.186722 0.540934
Si Si3 0.000000 0.168169 0.833334
Si Si4 0.818325 0.295355 0.206914
O O1 0.245900 0.465045 0.572139
O O2 0.196838 0.661420 0.712998
O O3 0.932324 0.339487 0.627084
O O4 0.129102 0.338635 0.763207
O O5 0.856447 0.989087 0.774574
O O6 0.642237 0.138907 0.530420
O O7 0.987307 0.292705 0.450510
#
# Coordination Sequence:
#
# PCOD9576684 Si02
#       4
#     6   6   3   6
#     4  10  26  44  74 108 148 196 245 319 373 456
#     4  10  25  46  70 107 146 201 243 315 372 457
#     4  12  24  46  72 108 154 190 260 304 394 438
#     4  10  24  48  71 108 147 198 254 302 387 444
#
# _framework density 25.173870999999998
#
# number of rings (size 3 to 8) (size 9 to 14) (size 15 to 20)
#    1.714    0.000    0.000    2.571    4.000    4.571 
#   10.286    0.000    0.000    0.000    0.000    0.000 
#    0.000    0.000    0.000    0.000    0.000    0.000 
#
# Total GULP energy -117185.586336 kJ/mol
# GULP energy per Si atom -5580.266016 kJ/mol
# Density = 2.511657 g / cm^3
# Si number density = 25.173871 Si / 1000 Ang^3
#
#
#
# Elastic Constant Matrix: (Units=GPa)
#
#
# Indices 1 2 3 4 5 6 
#
# 1 85.4074 19.5507 4.2832 11.3101 0.0000 0.0000
# 2 19.5507 85.4074 4.2832 -11.3101 0.0000 0.0000
# 3 4.2832 4.2832 95.7326 0.0000 0.0000 0.0000
# 4 11.3101 -11.3101 0.0000 20.6613 0.0000 0.0000
# 5 0.0000 0.0000 0.0000 0.0000 20.6613 11.3101
# 6 0.0000 0.0000 0.0000 0.0000 11.3101 32.9283
#
#
#
# Elastic Compliance Matrix: (Units=1/GPa)
#
#
# Indices 1 2 3 4 5 6 
#
# 1 0.014132 -0.004569 -0.000428 -0.010237 0.000000 0.000000
# 2 -0.004569 0.014132 -0.000428 0.010237 0.000000 0.000000
# 3 -0.000428 -0.000428 0.010484 0.000000 0.000000 0.000000
# 4 -0.010237 0.010237 0.000000 0.059607 0.000000 0.000000
# 5 0.000000 0.000000 0.000000 0.000000 0.059607 -0.020474
# 6 0.000000 0.000000 0.000000 0.000000 -0.020474 0.037401
#
#
# Mechanical properties :
#
#
# Convention : Reuss Voigt Hill
#
# Bulk Modulus (GPa) = 35.84518 35.86462 35.85490
# Shear Modulus (GPa) = 23.20070 30.74555 26.97312
#
# Velocity S-wave (km/s) = 3.03911 3.49854 3.27689
# Velocity P-wave (km/s) = 5.15605 5.53149 5.34707
#
# Compressibility (1/GPa) = 0.02789775
#
# Stress axis : x y z
#
# Youngs Moduli (GPa) = 70.76368 70.76368 95.38306
#
# Poissons Ratio (x) = 0.32332 0.04081
# Poissons Ratio (y) = 0.32332 0.04081
# Poissons Ratio (z) = 0.03028 0.03028
#
# Static dielectric constant tensor:
#      x y z
#    x 1.993610 0.000000 0.000000 
#    y 0.000000 1.993610 0.000000 
#    z 0.000000 0.000000 2.141040 
# 
# From -- ./inp_files/1535.got.cif
#   From: 2010.05.17/outbox.cif.g08.bks.cpg/sg154_1_cif.got.tgz:1535.got - 2010.05.20 10:41:43.
