data_PCOD9576211
_publ_section_title
;
Structure prediction by ZEFSAII (Michael W. Deem and Ramdas Pophale) SiO2 
 PCOD9576211
Probable space group: P 31 2 1
;
_chemical_formula_sum "Si O2"
_cell_formula_units_Z 30
_cell_length_a 6.970148
_cell_length_b 6.970148
_cell_length_c 24.265300
_cell_angle_alpha 90.000000
_cell_angle_beta 90.000000
_cell_angle_gamma 120.000000
_cell_volume 1020.940180
_symmetry_space_group_name_H-M "P 31 2 1"
_symmetry_group_IT_number 152
_symmetry_cell_setting 'hexagonal'
loop_
_space_group_symop_operation_xyz
x,y,z
-y,x-y,1/3+z
-x+y,-x,2/3+z
x-y,-y,2/3-z
-x,-x+y,1/3-z
y,x,-z
loop_
_atom_site_type_symbol
_atom_site_label
_atom_site_fract_x
_atom_site_fract_y
_atom_site_fract_z
Si Si1 0.253501 0.226856 0.730791
Si Si2 0.576102 0.391985 0.897642
Si Si3 0.768902 0.269732 0.807643
Si Si4 0.587541 0.214066 0.665115
Si Si5 0.778744 0.863265 0.755574
O O1 0.240519 0.405047 0.769966
O O2 0.483224 0.228898 0.722582
O O3 0.261633 0.360862 0.674055
O O4 0.041509 0.990897 0.743528
O O5 0.428756 0.506382 0.893042
O O6 0.571647 0.293578 0.958240
O O7 0.569026 0.254493 0.844232
O O8 0.732475 0.064923 0.770589
O O9 0.939167 0.271102 0.855243
O O10 0.366415 0.073609 0.627469
#
# Coordination Sequence:
#
# PCOD9576211 Si02
#       5
#     6   6   6   6   6
#     4   9  18  34  52  75 108 142 181 229 272 334
#     4   8  18  32  52  76 107 133 174 234 270 326
#     4   9  16  34  54  79 108 136 181 226 276 339
#     4   9  18  34  52  75 108 142 181 229 272 334
#     4   9  17  32  58  74 103 153 176 216 294 341
#
# _framework density 29.384677
#
# number of rings (size 3 to 8) (size 9 to 14) (size 15 to 20)
#    1.200    2.000    0.000    0.600    0.000    0.000 
#    7.200    0.000    0.000    2.400    0.000    0.000 
#    0.000    0.000    0.000    0.000    0.000    0.000 
#
# Total GULP energy -167163.665806 kJ/mol
# GULP energy per Si atom -5572.122194 kJ/mol
# Density = 2.931780 g / cm^3
# Si number density = 29.384677 Si / 1000 Ang^3
#
#
#
# Elastic Constant Matrix: (Units=GPa)
#
#
# Indices 1 2 3 4 5 6 
#
# 1 105.7634 12.2379 3.9278 1.8518 0.0000 0.0000
# 2 12.2379 105.7634 3.9278 -1.8518 0.0000 0.0000
# 3 3.9278 3.9278 97.9280 0.0000 0.0000 0.0000
# 4 1.8518 -1.8518 0.0000 48.6911 0.0000 0.0000
# 5 0.0000 0.0000 0.0000 0.0000 48.6911 1.8518
# 6 0.0000 0.0000 0.0000 0.0000 1.8518 46.7628
#
#
#
# Elastic Compliance Matrix: (Units=1/GPa)
#
#
# Indices 1 2 3 4 5 6 
#
# 1 0.009603 -0.001106 -0.000341 -0.000407 0.000000 0.000000
# 2 -0.001106 0.009603 -0.000341 0.000407 0.000000 0.000000
# 3 -0.000341 -0.000341 0.010239 0.000000 0.000000 0.000000
# 4 -0.000407 0.000407 0.000000 0.020569 0.000000 0.000000
# 5 0.000000 0.000000 0.000000 0.000000 0.020569 -0.000814
# 6 0.000000 0.000000 0.000000 0.000000 -0.000814 0.021417
#
#
# Mechanical properties :
#
#
# Convention : Reuss Voigt Hill
#
# Bulk Modulus (GPa) = 38.65476 38.84906 38.75191
# Shear Modulus (GPa) = 47.98634 48.11975 48.05304
#
# Velocity S-wave (km/s) = 4.04547 4.05109 4.04828
# Velocity P-wave (km/s) = 5.91645 5.92717 5.92181
#
# Compressibility (1/GPa) = 0.02587003
#
# Stress axis : x y z
#
# Youngs Moduli (GPa) = 104.13647 104.13647 97.66648
#
# Poissons Ratio (x) = 0.11513 0.03329
# Poissons Ratio (y) = 0.11513 0.03329
# Poissons Ratio (z) = 0.03549 0.03549
#
# Static dielectric constant tensor:
#      x y z
#    x 2.367580 0.000000 0.000000 
#    y 0.000000 2.367580 0.000000 
#    z 0.000000 0.000000 2.392810 
# 
# From -- ./inp_files/3517.got.cif
#   From: 2010.05.17/outbox.cif.g08.bks.cpg/sg152_2_cif.got.tgz:3517.got - 2010.05.20 10:36:06.
