data_PCOD9576642
_publ_section_title
;
Structure prediction by ZEFSAII (Michael W. Deem and Ramdas Pophale) SiO2 
 PCOD9576642
Probable space group: P 32 2 1
;
_chemical_formula_sum "Si O2"
_cell_formula_units_Z 42
_cell_length_a 14.754145
_cell_length_b 14.754145
_cell_length_c 11.849264
_cell_angle_alpha 90.000000
_cell_angle_beta 90.000000
_cell_angle_gamma 120.000000
_cell_volume 2233.829911
_symmetry_space_group_name_H-M "P 32 2 1"
_symmetry_group_IT_number 154
_symmetry_cell_setting 'hexagonal'
loop_
_space_group_symop_operation_xyz
x,y,z
-y,x-y,2/3+z
-x+y,-x,1/3+z
x-y,-y,1/3-z
-x,-x+y,2/3-z
y,x,-z
loop_
_atom_site_type_symbol
_atom_site_label
_atom_site_fract_x
_atom_site_fract_y
_atom_site_fract_z
Si Si1 0.816549 0.718598 0.633410
Si Si2 0.767592 0.403646 0.762255
Si Si3 0.882951 0.751204 0.378325
Si Si4 0.429253 0.448962 0.186604
Si Si5 0.318637 0.373183 0.618382
Si Si6 0.366298 0.853923 0.005718
Si Si7 0.317582 0.484285 0.979699
O O1 0.874265 0.757071 0.513579
O O2 0.783414 0.801598 0.671766
O O3 0.887696 0.694089 0.715211
O O4 0.715870 0.603179 0.616892
O O5 0.863496 0.502763 0.700335
O O6 0.682638 0.440842 0.750039
O O7 0.809835 0.399528 0.886652
O O8 0.719883 0.288138 0.708392
O O9 0.846444 0.630699 0.354893
O O10 0.000000 0.822071 0.333334
O O11 0.344329 0.361308 0.270789
O O12 0.494756 0.543415 0.272436
O O13 0.484496 0.394974 0.118273
O O14 0.376621 0.488570 0.094936
O O15 0.360323 0.360323 0.500000
#
# Coordination Sequence:
#
# PCOD9576642 Si02
#       7
#     6   6   6   6   6   6   6
#     4  10  23  39  63  90 122 159 219 265 311 391
#     4  11  22  37  61  90 124 168 212 261 316 392
#     4  11  20  40  66  89 122 161 217 272 317 370
#     4  11  22  37  61  92 128 170 212 259 326 383
#     4  11  21  39  63  88 126 165 207 261 329 386
#     4  11  22  39  58  95 128 167 216 259 327 393
#     4  11  21  40  63  91 128 168 216 269 316 384
#
# _framework density 18.801791000000001
#
# number of rings (size 3 to 8) (size 9 to 14) (size 15 to 20)
#    0.000    1.143    5.714    1.714    2.000    0.000 
#    2.571    0.000    0.000    0.000    0.000    0.000 
#    0.000    0.000    0.000    0.000    0.000    0.000 
#
# Total GULP energy -234122.322464 kJ/mol
# GULP energy per Si atom -5574.341011 kJ/mol
# Density = 1.875900 g / cm^3
# Si number density = 18.801791 Si / 1000 Ang^3
#
#
#
# Elastic Constant Matrix: (Units=GPa)
#
#
# Indices 1 2 3 4 5 6 
#
# 1 113.0198 62.8220 29.7549 -5.0762 0.0000 0.0000
# 2 62.8220 113.0198 29.7549 5.0762 0.0000 0.0000
# 3 29.7549 29.7549 67.9422 0.0000 0.0000 0.0000
# 4 -5.0762 5.0762 0.0000 24.5587 0.0000 0.0000
# 5 0.0000 0.0000 0.0000 0.0000 24.5587 -5.0762
# 6 0.0000 0.0000 0.0000 0.0000 -5.0762 25.0989
#
#
#
# Elastic Compliance Matrix: (Units=1/GPa)
#
#
# Indices 1 2 3 4 5 6 
#
# 1 0.013733 -0.007057 -0.002924 0.004297 0.000000 0.000000
# 2 -0.007057 0.013733 -0.002924 -0.004297 0.000000 0.000000
# 3 -0.002924 -0.002924 0.017279 0.000000 0.000000 0.000000
# 4 0.004297 -0.004297 0.000000 0.042495 0.000000 0.000000
# 5 0.000000 0.000000 0.000000 0.000000 0.042495 0.008595
# 6 0.000000 0.000000 0.000000 0.000000 0.008595 0.041581
#
#
# Mechanical properties :
#
#
# Convention : Reuss Voigt Hill
#
# Bulk Modulus (GPa) = 52.80757 59.84947 56.32852
# Shear Modulus (GPa) = 24.57741 26.28662 25.43201
#
# Velocity S-wave (km/s) = 3.61942 3.74316 3.68181
# Velocity P-wave (km/s) = 6.75384 7.11214 6.93531
#
# Compressibility (1/GPa) = 0.01893668
#
# Stress axis : x y z
#
# Youngs Moduli (GPa) = 72.81530 72.81530 57.87230
#
# Poissons Ratio (x) = 0.51385 0.16921
# Poissons Ratio (y) = 0.51385 0.16921
# Poissons Ratio (z) = 0.21291 0.21291
#
# Static dielectric constant tensor:
#      x y z
#    x 1.690640 0.000000 0.000000 
#    y 0.000000 1.690640 0.000000 
#    z 0.000000 0.000000 1.671510 
# 
# From -- ./inp_files/1727.got.cif
#   From: 2010.05.17/outbox.cif.g08.bks.cpg/sg154_1_cif.got.tgz:1727.got - 2010.05.20 10:41:43.
