data_PCOD9576402
_publ_section_title
;
Structure prediction by ZEFSAII (Michael W. Deem and Ramdas Pophale) SiO2 
 PCOD9576402
Probable space group: P 32 2 1
;
_chemical_formula_sum "Si O2"
_cell_formula_units_Z 42
_cell_length_a 8.790054
_cell_length_b 8.790054
_cell_length_c 29.078003
_cell_angle_alpha 90.000000
_cell_angle_beta 90.000000
_cell_angle_gamma 120.000000
_cell_volume 1945.710824
_symmetry_space_group_name_H-M "P 32 2 1"
_symmetry_group_IT_number 154
_symmetry_cell_setting 'hexagonal'
loop_
_space_group_symop_operation_xyz
x,y,z
-y,x-y,2/3+z
-x+y,-x,1/3+z
x-y,-y,1/3-z
-x,-x+y,2/3-z
y,x,-z
loop_
_atom_site_type_symbol
_atom_site_label
_atom_site_fract_x
_atom_site_fract_y
_atom_site_fract_z
Si Si1 0.720994 0.769193 0.698003
Si Si2 0.211110 0.852246 0.055482
Si Si3 0.385014 0.194794 0.827373
Si Si4 0.815846 0.080931 0.768652
Si Si5 0.489930 0.007252 0.436070
Si Si6 0.069323 0.461741 0.258235
Si Si7 0.658826 0.389735 0.985943
O O1 0.836759 0.761327 0.656852
O O2 0.799719 0.944260 0.728537
O O3 0.670103 0.607636 0.732549
O O4 0.531702 0.738231 0.678752
O O5 0.069600 0.669972 0.077962
O O6 0.354378 0.805827 0.035252
O O7 0.268502 0.007037 0.092524
O O8 0.220008 0.198551 0.849787
O O9 0.526180 0.381909 0.806383
O O10 0.473146 0.143807 0.868203
O O11 0.343835 0.071280 0.783224
O O12 0.644954 0.101546 0.762938
O O13 0.216725 0.518430 0.297754
O O14 0.886112 0.374508 0.284660
#
# Coordination Sequence:
#
# PCOD9576402 Si02
#       7
#     6   6   6   6   6   6   6
#     4   9  18  36  60  92 127 162 211 271 328 387
#     4  11  20  35  61  95 129 154 222 268 327 394
#     4  11  21  40  60  92 125 173 222 265 318 398
#     4  10  20  35  63  93 125 174 207 263 332 392
#     4  10  23  36  65  93 123 171 223 262 327 394
#     4  10  18  37  65  89 124 168 221 268 318 381
#     4   9  19  33  62  99 122 163 217 274 318 383
#
# _framework density 21.585940999999998
#
# number of rings (size 3 to 8) (size 9 to 14) (size 15 to 20)
#    0.000    2.000    2.857    2.143    0.000    0.571 
#    0.000    0.000   18.857    1.714    0.000    0.000 
#    0.000    0.000    0.000    0.000    0.000    0.000 
#
# Total GULP energy -234426.685829 kJ/mol
# GULP energy per Si atom -5581.587758 kJ/mol
# Density = 2.153681 g / cm^3
# Si number density = 21.585941 Si / 1000 Ang^3
#
#
#
# Elastic Constant Matrix: (Units=GPa)
#
#
# Indices 1 2 3 4 5 6 
#
# 1 62.8755 16.3867 26.8708 5.7081 0.0000 0.0000
# 2 16.3867 62.8755 26.8708 -5.7081 0.0000 0.0000
# 3 26.8708 26.8708 97.5444 0.0000 0.0000 0.0000
# 4 5.7081 -5.7081 0.0000 31.9574 0.0000 0.0000
# 5 0.0000 0.0000 0.0000 0.0000 31.9574 5.7081
# 6 0.0000 0.0000 0.0000 0.0000 5.7081 23.2444
#
#
#
# Elastic Compliance Matrix: (Units=1/GPa)
#
#
# Indices 1 2 3 4 5 6 
#
# 1 0.019006 -0.003492 -0.004274 -0.004018 0.000000 0.000000
# 2 -0.003492 0.019006 -0.004274 0.004018 0.000000 0.000000
# 3 -0.004274 -0.004274 0.012606 0.000000 0.000000 0.000000
# 4 -0.004018 0.004018 0.000000 0.032727 0.000000 0.000000
# 5 0.000000 0.000000 0.000000 0.000000 0.032727 -0.008037
# 6 0.000000 0.000000 0.000000 0.000000 -0.008037 0.044995
#
#
# Mechanical properties :
#
#
# Convention : Reuss Voigt Hill
#
# Bulk Modulus (GPa) = 37.67956 40.39468 39.03712
# Shear Modulus (GPa) = 25.77433 27.64295 26.70864
#
# Velocity S-wave (km/s) = 3.45923 3.58243 3.52137
# Velocity P-wave (km/s) = 5.78347 5.98880 5.88703
#
# Compressibility (1/GPa) = 0.02653959
#
# Stress axis : x y z
#
# Youngs Moduli (GPa) = 52.61580 52.61580 79.32533
#
# Poissons Ratio (x) = 0.18372 0.33901
# Poissons Ratio (y) = 0.18372 0.33901
# Poissons Ratio (z) = 0.22486 0.22486
#
# Static dielectric constant tensor:
#      x y z
#    x 1.811730 0.000000 0.000000 
#    y 0.000000 1.811730 0.000000 
#    z 0.000000 0.000000 1.837250 
# 
# From -- ./inp_files/3760.got.cif
#   From: 2010.05.17/outbox.cif.g08.bks.cpg/sg154_2_cif.got.tgz:3760.got - 2010.05.20 10:41:43.
