data_PCOD9576464
_publ_section_title
;
Structure prediction by ZEFSAII (Michael W. Deem and Ramdas Pophale) SiO2 
 PCOD9576464
Probable space group: P 32 2 1
;
_chemical_formula_sum "Si O2"
_cell_formula_units_Z 42
_cell_length_a 14.677469
_cell_length_b 14.677469
_cell_length_c 12.984009
_cell_angle_alpha 90.000000
_cell_angle_beta 90.000000
_cell_angle_gamma 120.000000
_cell_volume 2422.377272
_symmetry_space_group_name_H-M "P 32 2 1"
_symmetry_group_IT_number 154
_symmetry_cell_setting 'hexagonal'
loop_
_space_group_symop_operation_xyz
x,y,z
-y,x-y,2/3+z
-x+y,-x,1/3+z
x-y,-y,1/3-z
-x,-x+y,2/3-z
y,x,-z
loop_
_atom_site_type_symbol
_atom_site_label
_atom_site_fract_x
_atom_site_fract_y
_atom_site_fract_z
Si Si1 0.793237 0.127438 0.447457
Si Si2 0.114463 0.816741 0.798550
Si Si3 0.696386 0.491723 0.809011
Si Si4 0.668643 0.317774 0.313014
Si Si5 0.653023 0.475138 0.168887
Si Si6 0.106160 0.024408 0.787939
Si Si7 0.465108 0.439039 0.878184
O O1 0.800275 0.127966 0.322781
O O2 0.840142 0.248189 0.485305
O O3 0.674253 0.063213 0.491963
O O4 0.868419 0.081212 0.478838
O O5 0.213819 0.824279 0.855366
O O6 0.117423 0.925566 0.823945
O O7 0.000000 0.724966 0.833334
O O8 0.678659 0.441387 0.697254
O O9 0.584979 0.465795 0.858296
O O10 0.733523 0.429244 0.884472
O O11 0.671392 0.420846 0.268089
O O12 0.753187 0.343013 0.403041
O O13 0.538740 0.463056 0.170837
O O14 0.000000 0.013166 0.833334
O O15 0.087508 0.000000 0.666667
O O16 0.440176 0.440176 0.000000
#
# Coordination Sequence:
#
# PCOD9576464 Si02
#       7
#     6   6   6   6   6   6   6
#     4  11  20  36  55  83 112 143 190 236 273 340
#     4  10  20  34  55  82 106 144 189 230 281 338
#     4  11  19  36  52  78 111 145 181 234 286 331
#     4  10  20  35  53  73 114 144 175 226 286 328
#     4  11  20  36  55  81 111 149 185 229 282 336
#     4   9  20  37  57  80 111 146 184 232 284 330
#     4  12  21  33  57  85 107 144 191 231 281 336
#
# _framework density 17.338339000000001
#
# number of rings (size 3 to 8) (size 9 to 14) (size 15 to 20)
#    0.000    1.429    5.714    0.857    2.000    1.714 
#    0.000    0.000    0.000    0.000    0.000    0.000 
#    0.000    0.000    0.000    0.000    0.000    0.000 
#
# Total GULP energy -234082.968027 kJ/mol
# GULP energy per Si atom -5573.404001 kJ/mol
# Density = 1.729888 g / cm^3
# Si number density = 17.338339 Si / 1000 Ang^3
#
#
#
# Elastic Constant Matrix: (Units=GPa)
#
#
# Indices 1 2 3 4 5 6 
#
# 1 99.0833 47.9260 7.6200 -2.6197 0.0000 0.0000
# 2 47.9260 99.0833 7.6200 2.6197 0.0000 0.0000
# 3 7.6200 7.6200 18.4328 0.0000 0.0000 0.0000
# 4 -2.6197 2.6197 0.0000 19.5913 0.0000 0.0000
# 5 0.0000 0.0000 0.0000 0.0000 19.5913 -2.6197
# 6 0.0000 0.0000 0.0000 0.0000 -2.6197 25.5787
#
#
#
# Elastic Compliance Matrix: (Units=1/GPa)
#
#
# Indices 1 2 3 4 5 6 
#
# 1 0.013463 -0.006356 -0.002938 0.002650 0.000000 0.000000
# 2 -0.006356 0.013463 -0.002938 -0.002650 0.000000 0.000000
# 3 -0.002938 -0.002938 0.056680 0.000000 0.000000 0.000000
# 4 0.002650 -0.002650 0.000000 0.051752 0.000000 0.000000
# 5 0.000000 0.000000 0.000000 0.000000 0.051752 0.005300
# 6 0.000000 0.000000 0.000000 0.000000 0.005300 0.039638
#
#
# Mechanical properties :
#
#
# Convention : Reuss Voigt Hill
#
# Bulk Modulus (GPa) = 16.90840 38.10350 27.50595
# Shear Modulus (GPa) = 18.45524 23.18114 20.81819
#
# Velocity S-wave (km/s) = 3.26608 3.66045 3.46887
# Velocity P-wave (km/s) = 4.89860 6.31580 5.65180
#
# Compressibility (1/GPa) = 0.05914221
#
# Stress axis : x y z
#
# Youngs Moduli (GPa) = 74.27810 74.27810 17.64282
#
# Poissons Ratio (x) = 0.47212 0.05183
# Poissons Ratio (y) = 0.47212 0.05183
# Poissons Ratio (z) = 0.21823 0.21823
#
# Static dielectric constant tensor:
#      x y z
#    x 1.616090 0.000000 0.000000 
#    y 0.000000 1.616090 0.000000 
#    z 0.000000 0.000000 1.596000 
# 
# From -- ./inp_files/1735.got.cif
#   From: 2010.05.17/outbox.cif.g08.bks.cpg/sg154_1_cif.got.tgz:1735.got - 2010.05.20 10:41:43.
