data_PCOD9576425
_publ_section_title
;
Structure prediction by ZEFSAII (Michael W. Deem and Ramdas Pophale) SiO2 
 PCOD9576425
Probable space group: P 32 2 1
;
_chemical_formula_sum "Si O2"
_cell_formula_units_Z 36
_cell_length_a 8.894542
_cell_length_b 8.894542
_cell_length_c 26.226235
_cell_angle_alpha 90.000000
_cell_angle_beta 90.000000
_cell_angle_gamma 120.000000
_cell_volume 1796.858012
_symmetry_space_group_name_H-M "P 32 2 1"
_symmetry_group_IT_number 154
_symmetry_cell_setting 'hexagonal'
loop_
_space_group_symop_operation_xyz
x,y,z
-y,x-y,2/3+z
-x+y,-x,1/3+z
x-y,-y,1/3-z
-x,-x+y,2/3-z
y,x,-z
loop_
_atom_site_type_symbol
_atom_site_label
_atom_site_fract_x
_atom_site_fract_y
_atom_site_fract_z
Si Si1 0.264852 0.451912 0.522250
Si Si2 0.016437 0.331348 0.430221
Si Si3 0.195175 0.979736 0.049714
Si Si4 0.188131 0.696238 0.240013
Si Si5 0.963206 0.772371 0.519882
Si Si6 0.946463 0.825372 0.723143
O O1 0.408801 0.408801 0.500000
O O2 0.148117 0.443460 0.474956
O O3 0.355726 0.633355 0.550741
O O4 0.151421 0.297100 0.562093
O O5 0.117089 0.266709 0.393273
O O6 0.928523 0.431856 0.405796
O O7 0.867916 0.157450 0.458620
O O8 0.382407 0.148517 0.054060
O O9 0.057898 0.048797 0.057221
O O10 0.162035 0.853669 0.097579
O O11 0.146178 0.882172 0.996101
O O12 0.086412 0.723540 0.192458
O O13 0.917433 0.917433 0.500000
#
# Coordination Sequence:
#
# PCOD9576425 Si02
#       6
#     6   6   6   6   6   6
#     4  10  19  33  55  84 111 138 176 221 268 319
#     4  10  19  33  55  81 106 137 182 226 263 310
#     4   9  18  36  56  73 103 149 184 206 260 333
#     4  11  20  32  55  86 109 129 174 234 272 304
#     4   9  17  33  56  76 104 147 180 206 261 331
#     4   9  19  37  57  72 103 152 185 207 255 333
#
# _framework density 20.034973999999998
#
# number of rings (size 3 to 8) (size 9 to 14) (size 15 to 20)
#    0.000    2.333    0.000    6.000    0.000    0.000 
#    0.000   13.333    0.000    4.000    0.000    0.000 
#    0.000    0.000    0.000    0.000    0.000    0.000 
#
# Total GULP energy -200875.848552 kJ/mol
# GULP energy per Si atom -5579.884682 kJ/mol
# Density = 1.998937 g / cm^3
# Si number density = 20.034974 Si / 1000 Ang^3
#
#
#
# Elastic Constant Matrix: (Units=GPa)
#
#
# Indices 1 2 3 4 5 6 
#
# 1 56.7620 29.4576 11.3491 -9.3814 0.0000 0.0000
# 2 29.4576 56.7620 11.3491 9.3814 0.0000 0.0000
# 3 11.3491 11.3491 73.6208 0.0000 0.0000 0.0000
# 4 -9.3814 9.3814 0.0000 5.1672 0.0000 0.0000
# 5 0.0000 0.0000 0.0000 0.0000 5.1672 -9.3814
# 6 0.0000 0.0000 0.0000 0.0000 -9.3814 13.6522
#
#
#
# Elastic Compliance Matrix: (Units=1/GPa)
#
#
# Indices 1 2 3 4 5 6 
#
# 1 -0.067910 0.079999 -0.001864 -0.268539 0.000000 0.000000
# 2 0.079999 -0.067910 -0.001864 0.268539 0.000000 0.000000
# 3 -0.001864 -0.001864 0.014158 0.000000 0.000000 0.000000
# 4 -0.268539 0.268539 0.000000 -0.781574 0.000000 0.000000
# 5 0.000000 0.000000 0.000000 0.000000 -0.781574 -0.537078
# 6 0.000000 0.000000 0.000000 0.000000 -0.537078 -0.295818
#
#
# Mechanical properties :
#
#
# Convention : Reuss Voigt Hill
#
# Bulk Modulus (GPa) = 32.38221 32.38406 32.38314
# Shear Modulus (GPa) = -2.35529 13.79658 5.72065
#
# Velocity S-wave (km/s) = -1.08542 2.62701 1.69161
# Velocity P-wave (km/s) = 3.82454 5.03989 4.47367
#
# Compressibility (1/GPa) = 0.03088115
#
# Stress axis : x y z
#
# Youngs Moduli (GPa) = -14.72537 -14.72537 70.63300
#
# Poissons Ratio (x) = 1.17801 0.13163
# Poissons Ratio (y) = 1.17801 0.13163
# Poissons Ratio (z) = -0.02744 -0.02744
#
# Static dielectric constant tensor:
#      x y z
#    x 1.719470 0.000000 0.000000 
#    y 0.000000 1.719470 0.000000 
#    z 0.000000 0.000000 1.757420 
# 
# From -- ./inp_files/3419.got.cif
#   From: 2010.05.17/outbox.cif.g08.bks.cpg/sg154_2_cif.got.tgz:3419.got - 2010.05.20 10:41:43.
