data_PCOD9576150
_publ_section_title
;
Structure prediction by ZEFSAII (Michael W. Deem and Ramdas Pophale) SiO2 
 PCOD9576150
Probable space group: P 31 2 1
;
_chemical_formula_sum "Si O2"
_cell_formula_units_Z 24
_cell_length_a 14.378614
_cell_length_b 14.378614
_cell_length_c 6.573550
_cell_angle_alpha 90.000000
_cell_angle_beta 90.000000
_cell_angle_gamma 120.000000
_cell_volume 1176.967993
_symmetry_space_group_name_H-M "P 31 2 1"
_symmetry_group_IT_number 152
_symmetry_cell_setting 'hexagonal'
loop_
_space_group_symop_operation_xyz
x,y,z
-y,x-y,1/3+z
-x+y,-x,2/3+z
x-y,-y,2/3-z
-x,-x+y,1/3-z
y,x,-z
loop_
_atom_site_type_symbol
_atom_site_label
_atom_site_fract_x
_atom_site_fract_y
_atom_site_fract_z
Si Si1 0.231793 0.340054 0.130293
Si Si2 0.700718 0.700718 0.500000
Si Si3 0.660501 0.249651 0.296865
Si Si4 0.620820 0.000000 0.833334
Si Si5 0.424771 0.927785 0.133506
O O1 0.104418 0.290503 0.118939
O O2 0.283730 0.461609 0.047823
O O3 0.277957 0.352298 0.358658
O O4 0.274928 0.274928 0.000000
O O5 0.612859 0.648265 0.681107
O O6 0.738995 0.360245 0.409364
O O7 0.557459 0.191668 0.444675
O O8 0.579454 0.060073 0.681292
O O9 0.474173 0.000000 0.333334
#
# Coordination Sequence:
#
# PCOD9576150 Si02
#       5
#     6   3   6   3   6
#     4  12  26  47  68  96 139 183 234 285 346 402
#     4  11  28  42  73 100 132 188 235 288 333 410
#     4  12  25  38  67 107 146 181 219 273 347 429
#     4  11  22  42  67  92 130 182 219 276 339 396
#     4  11  22  43  66  99 141 174 223 270 341 414
#
# _framework density 20.391378
#
# number of rings (size 3 to 8) (size 9 to 14) (size 15 to 20)
#    0.000    0.500    5.000    3.000   10.500    2.000 
#    0.000    1.250    0.000    0.000    0.000    0.000 
#    0.000    0.000    0.000    0.000    0.000    0.000 
#
# Total GULP energy -134244.666249 kJ/mol
# GULP energy per Si atom -5593.527760 kJ/mol
# Density = 2.034497 g / cm^3
# Si number density = 20.391378 Si / 1000 Ang^3
#
#
#
# Elastic Constant Matrix: (Units=GPa)
#
#
# Indices 1 2 3 4 5 6 
#
# 1 129.8453 75.3357 46.3714 -2.3826 -0.0001 0.0000
# 2 75.3357 129.8453 46.3714 2.3826 0.0001 0.0000
# 3 46.3714 46.3714 103.2173 0.0000 0.0000 0.0000
# 4 -2.3826 2.3826 0.0000 33.5100 0.0000 0.0001
# 5 -0.0001 0.0001 0.0000 0.0000 33.5100 -2.3826
# 6 0.0000 0.0000 0.0000 0.0001 -2.3826 27.2548
#
#
#
# Elastic Compliance Matrix: (Units=1/GPa)
#
#
# Indices 1 2 3 4 5 6 
#
# 1 0.012288 -0.006172 -0.002748 0.001313 0.000000 0.000000
# 2 -0.006172 0.012288 -0.002748 -0.001313 0.000000 0.000000
# 3 -0.002748 -0.002748 0.012157 0.000000 0.000000 0.000000
# 4 0.001313 -0.001313 0.000000 0.030029 0.000000 0.000000
# 5 0.000000 0.000000 0.000000 0.000000 0.030029 0.002625
# 6 0.000000 0.000000 0.000000 0.000000 0.002625 0.036920
#
#
# Mechanical properties :
#
#
# Convention : Reuss Voigt Hill
#
# Bulk Modulus (GPa) = 74.63677 77.67387 76.15532
# Shear Modulus (GPa) = 30.95771 31.84358 31.40065
#
# Velocity S-wave (km/s) = 3.90061 3.95602 3.92841
# Velocity P-wave (km/s) = 7.54771 7.68382 7.61607
#
# Compressibility (1/GPa) = 0.01339822
#
# Stress axis : x y z
#
# Youngs Moduli (GPa) = 81.38100 81.38100 82.25726
#
# Poissons Ratio (x) = 0.50230 0.22600
# Poissons Ratio (y) = 0.50230 0.22600
# Poissons Ratio (z) = 0.22359 0.22359
#
# Static dielectric constant tensor:
#      x y z
#    x 1.756390 0.000000 0.000000 
#    y 0.000000 1.756390 0.000000 
#    z 0.000000 0.000000 1.771820 
# 
# From -- ./inp_files/212.got.cif
#   From: 2010.05.17/outbox.cif.g08.bks.cpg/sg152_1_cif.got.tgz:212.got - 2010.05.20 10:36:06.
