data_PCOD9576496
_publ_section_title
;
Structure prediction by ZEFSAII (Michael W. Deem and Ramdas Pophale) SiO2 
 PCOD9576496
Probable space group: P 32 2 1
;
_chemical_formula_sum "Si O2"
_cell_formula_units_Z 24
_cell_length_a 8.369162
_cell_length_b 8.369162
_cell_length_c 17.302899
_cell_angle_alpha 90.000000
_cell_angle_beta 90.000000
_cell_angle_gamma 120.000000
_cell_volume 1049.574941
_symmetry_space_group_name_H-M "P 32 2 1"
_symmetry_group_IT_number 154
_symmetry_cell_setting 'hexagonal'
loop_
_space_group_symop_operation_xyz
x,y,z
-y,x-y,2/3+z
-x+y,-x,1/3+z
x-y,-y,1/3-z
-x,-x+y,2/3-z
y,x,-z
loop_
_atom_site_type_symbol
_atom_site_label
_atom_site_fract_x
_atom_site_fract_y
_atom_site_fract_z
Si Si1 0.631728 0.634875 0.848765
Si Si2 0.000000 0.585034 0.333334
Si Si3 0.942136 0.291885 0.730399
Si Si4 0.384059 0.384059 0.500000
Si Si5 0.717208 0.045866 0.879443
O O1 0.535198 0.522661 0.926429
O O2 0.817663 0.631141 0.833776
O O3 0.674919 0.840695 0.864520
O O4 0.475969 0.518350 0.784482
O O5 0.180333 0.788461 0.333157
O O6 0.990989 0.495061 0.757987
O O7 0.134022 0.292575 0.720513
O O8 0.827875 0.165801 0.804531
#
# Coordination Sequence:
#
# PCOD9576496 Si02
#       5
#     6   3   6   3   6
#     4  11  20  37  60  86 112 150 192 236 281 340
#     4  10  22  36  54  84 120 142 184 248 290 318
#     4   9  19  38  57  82 111 145 186 235 279 336
#     4  10  20  38  62  82 112 158 198 222 280 356
#     4   9  18  34  59  80 107 148 187 219 275 348
#
# _framework density 22.866399000000001
#
# number of rings (size 3 to 8) (size 9 to 14) (size 15 to 20)
#    0.000    2.500    0.000    6.000    0.000    1.000 
#    0.000   17.500    0.000    0.000    0.000    0.000 
#    0.000    0.000    0.000    0.000    0.000    0.000 
#
# Total GULP energy -134053.237169 kJ/mol
# GULP energy per Si atom -5585.551549 kJ/mol
# Density = 2.281435 g / cm^3
# Si number density = 22.866399 Si / 1000 Ang^3
#
#
#
# Elastic Constant Matrix: (Units=GPa)
#
#
# Indices 1 2 3 4 5 6 
#
# 1 195.4720 97.9426 17.0112 12.9249 0.0001 0.0000
# 2 97.9426 195.4720 17.0112 -12.9249 -0.0001 0.0000
# 3 17.0112 17.0112 24.7411 0.0000 0.0000 0.0000
# 4 12.9249 -12.9249 0.0000 5.3963 0.0000 -0.0001
# 5 0.0001 -0.0001 0.0000 0.0000 5.3963 12.9249
# 6 0.0000 0.0000 0.0000 -0.0001 12.9249 48.7647
#
#
#
# Elastic Compliance Matrix: (Units=1/GPa)
#
#
# Indices 1 2 3 4 5 6 
#
# 1 0.015890 -0.012187 -0.002546 -0.067249 0.000000 0.000000
# 2 -0.012187 0.015890 -0.002546 0.067249 0.000000 0.000000
# 3 -0.002546 -0.002546 0.043920 0.000000 0.000000 0.000000
# 4 -0.067249 0.067249 0.000000 0.507450 0.000000 0.000001
# 5 0.000000 0.000000 0.000000 0.000000 0.507450 -0.134497
# 6 0.000000 0.000000 0.000000 0.000001 -0.134497 0.056155
#
#
# Mechanical properties :
#
#
# Convention : Reuss Voigt Hill
#
# Bulk Modulus (GPa) = 24.30631 75.51282 49.90957
# Shear Modulus (GPa) = 4.18400 30.82614 17.50507
#
# Velocity S-wave (km/s) = 1.35415 3.67563 2.76984
# Velocity P-wave (km/s) = 3.61908 7.14904 5.66598
#
# Compressibility (1/GPa) = 0.04114158
#
# Stress axis : x y z
#
# Youngs Moduli (GPa) = 62.93130 62.93130 22.76858
#
# Poissons Ratio (x) = 0.76694 0.05798
# Poissons Ratio (y) = 0.76694 0.05798
# Poissons Ratio (z) = 0.16025 0.16025
#
# Static dielectric constant tensor:
#      x y z
#    x 1.857830 0.000000 0.000000 
#    y 0.000000 1.857830 0.000000 
#    z 0.000000 0.000000 1.783000 
# 
# From -- ./inp_files/2979.got.cif
#   From: 2010.05.17/outbox.cif.g08.bks.cpg/sg154_2_cif.got.tgz:2979.got - 2010.05.20 10:41:43.
