data_PCOD9576603
_publ_section_title
;
Structure prediction by ZEFSAII (Michael W. Deem and Ramdas Pophale) SiO2 
 PCOD9576603
Probable space group: P 32 2 1
;
_chemical_formula_sum "Si O2"
_cell_formula_units_Z 33
_cell_length_a 14.418164
_cell_length_b 14.418164
_cell_length_c 8.416374
_cell_angle_alpha 90.000000
_cell_angle_beta 90.000000
_cell_angle_gamma 120.000000
_cell_volume 1515.219602
_symmetry_space_group_name_H-M "P 32 2 1"
_symmetry_group_IT_number 154
_symmetry_cell_setting 'hexagonal'
loop_
_space_group_symop_operation_xyz
x,y,z
-y,x-y,2/3+z
-x+y,-x,1/3+z
x-y,-y,1/3-z
-x,-x+y,2/3-z
y,x,-z
loop_
_atom_site_type_symbol
_atom_site_label
_atom_site_fract_x
_atom_site_fract_y
_atom_site_fract_z
Si Si1 0.060702 0.000000 0.666667
Si Si2 0.914036 0.444304 0.456822
Si Si3 0.583731 0.501994 0.622318
Si Si4 0.230928 0.257337 0.315561
Si Si5 0.424502 0.237050 0.272660
Si Si6 0.216532 0.741247 0.684134
O O1 0.173128 0.106792 0.689075
O O2 0.012712 0.012712 0.500000
O O3 0.848725 0.493630 0.541689
O O4 0.825972 0.332072 0.382175
O O5 0.000000 0.529340 0.333334
O O6 0.998593 0.433426 0.571220
O O7 0.493393 0.493393 0.500000
O O8 0.700425 0.559664 0.543716
O O9 0.561499 0.384239 0.667647
O O10 0.265462 0.265462 0.500000
O O11 0.307771 0.220312 0.235633
O O12 0.248788 0.371279 0.263953
O O13 0.446902 0.236069 0.461959
#
# Coordination Sequence:
#
# PCOD9576603 Si02
#       6
#     3   6   6   6   6   6
#     4  10  22  40  70 102 134 182 242 292 364 440
#     4  12  26  43  72 112 138 191 261 300 365 468
#     4  12  25  46  70 101 145 193 242 305 381 445
#     4   9  20  42  69  93 135 187 230 290 367 429
#     4  11  24  45  69 100 149 191 237 309 377 436
#     4  11  23  43  72  98 143 192 239 306 370 444
#
# _framework density 21.779022000000001
#
# number of rings (size 3 to 8) (size 9 to 14) (size 15 to 20)
#    0.000    1.091    5.455    0.545    3.818    3.636 
#    1.636    0.000    0.000    0.000    0.000    0.000 
#    0.000    0.000    0.000    0.000    0.000    0.000 
#
# Total GULP energy -184166.173015 kJ/mol
# GULP energy per Si atom -5580.793122 kJ/mol
# Density = 2.172945 g / cm^3
# Si number density = 21.779022 Si / 1000 Ang^3
#
#
#
# Elastic Constant Matrix: (Units=GPa)
#
#
# Indices 1 2 3 4 5 6 
#
# 1 129.2378 69.8865 21.2261 7.9372 0.0000 0.0000
# 2 69.8865 129.2378 21.2261 -7.9372 0.0000 0.0000
# 3 21.2261 21.2261 41.0031 0.0000 0.0000 0.0000
# 4 7.9372 -7.9372 0.0000 23.7409 0.0000 0.0000
# 5 0.0000 0.0000 0.0000 0.0000 23.7409 7.9372
# 6 0.0000 0.0000 0.0000 0.0000 7.9372 29.6757
#
#
#
# Elastic Compliance Matrix: (Units=1/GPa)
#
#
# Indices 1 2 3 4 5 6 
#
# 1 0.012074 -0.006429 -0.002922 -0.006186 0.000000 0.000000
# 2 -0.006429 0.012074 -0.002922 0.006186 0.000000 0.000000
# 3 -0.002922 -0.002922 0.027414 0.000000 0.000000 0.000000
# 4 -0.006186 0.006186 0.000000 0.046258 0.000000 0.000000
# 5 0.000000 0.000000 0.000000 0.000000 0.046258 -0.012372
# 6 0.000000 0.000000 0.000000 0.000000 -0.012372 0.037007
#
#
# Mechanical properties :
#
#
# Convention : Reuss Voigt Hill
#
# Bulk Modulus (GPa) = 37.01657 58.23958 47.62808
# Shear Modulus (GPa) = 23.29512 27.90750 25.60131
#
# Velocity S-wave (km/s) = 3.27404 3.58354 3.43228
# Velocity P-wave (km/s) = 5.59695 6.62733 6.13381
#
# Compressibility (1/GPa) = 0.02701493
#
# Stress axis : x y z
#
# Youngs Moduli (GPa) = 82.82119 82.82119 36.47776
#
# Poissons Ratio (x) = 0.53247 0.10660
# Poissons Ratio (y) = 0.53247 0.10660
# Poissons Ratio (z) = 0.24203 0.24203
#
# Static dielectric constant tensor:
#      x y z
#    x 1.795140 0.000000 0.000000 
#    y 0.000000 1.795140 0.000000 
#    z 0.000000 0.000000 2.208890 
# 
# From -- ./inp_files/1139.got.cif
#   From: 2010.05.17/outbox.cif.g08.bks.cpg/sg154_1_cif.got.tgz:1139.got - 2010.05.20 10:41:43.
