data_PCOD9576438
_publ_section_title
;
Structure prediction by ZEFSAII (Michael W. Deem and Ramdas Pophale) SiO2 
 PCOD9576438
Probable space group: P 32 2 1
;
_chemical_formula_sum "Si O2"
_cell_formula_units_Z 30
_cell_length_a 8.110280
_cell_length_b 8.110280
_cell_length_c 23.895717
_cell_angle_alpha 90.000000
_cell_angle_beta 90.000000
_cell_angle_gamma 120.000000
_cell_volume 1361.201422
_symmetry_space_group_name_H-M "P 32 2 1"
_symmetry_group_IT_number 154
_symmetry_cell_setting 'hexagonal'
loop_
_space_group_symop_operation_xyz
x,y,z
-y,x-y,2/3+z
-x+y,-x,1/3+z
x-y,-y,1/3-z
-x,-x+y,2/3-z
y,x,-z
loop_
_atom_site_type_symbol
_atom_site_label
_atom_site_fract_x
_atom_site_fract_y
_atom_site_fract_z
Si Si1 0.425197 0.187509 0.604834
Si Si2 0.797767 0.576264 0.340168
Si Si3 0.387909 0.392266 0.293378
Si Si4 0.548741 0.192545 0.777422
Si Si5 0.699026 0.529865 0.540550
O O1 0.605987 0.188653 0.634831
O O2 0.328615 0.229253 0.657828
O O3 0.497538 0.366566 0.564034
O O4 0.341467 0.995555 0.568856
O O5 0.591526 0.534897 0.321618
O O6 0.798257 0.509667 0.403213
O O7 0.000000 0.769927 0.333334
O O8 0.356689 0.513750 0.245841
O O9 0.380576 0.216366 0.260538
O O10 0.634249 0.219011 0.838632
O O11 0.670357 0.670357 0.500000
#
# Coordination Sequence:
#
# PCOD9576438 Si02
#       5
#     6   6   6   6   6
#     4   9  19  36  59  84 116 163 209 247 310 393
#     4   8  16  31  55  85 114 153 203 246 298 371
#     4  10  19  35  61  87 119 162 205 255 315 386
#     4  10  19  36  61  87 118 161 209 256 312 382
#     4  11  22  36  59  91 123 157 209 272 322 370
#
# _framework density 22.039355
#
# number of rings (size 3 to 8) (size 9 to 14) (size 15 to 20)
#    0.000    2.400    0.000    4.200    0.000    0.000 
#    0.000    1.000    0.000   91.200    0.000    0.000 
#    0.000    0.000    0.000    0.000    0.000    0.000 
#
# Total GULP energy -167191.582084 kJ/mol
# GULP energy per Si atom -5573.052736 kJ/mol
# Density = 2.198919 g / cm^3
# Si number density = 22.039355 Si / 1000 Ang^3
#
#
#
# Elastic Constant Matrix: (Units=GPa)
#
#
# Indices 1 2 3 4 5 6 
#
# 1 84.8215 31.1983 38.2532 1.1444 0.0000 0.0000
# 2 31.1983 84.8215 38.2532 -1.1444 0.0000 0.0000
# 3 38.2532 38.2532 94.7080 0.0000 0.0000 0.0000
# 4 1.1444 -1.1444 0.0000 38.3776 0.0000 0.0000
# 5 0.0000 0.0000 0.0000 0.0000 38.3776 1.1444
# 6 0.0000 0.0000 0.0000 0.0000 1.1444 26.8116
#
#
#
# Elastic Compliance Matrix: (Units=1/GPa)
#
#
# Indices 1 2 3 4 5 6 
#
# 1 0.015210 -0.003462 -0.004745 -0.000557 0.000000 0.000000
# 2 -0.003462 0.015210 -0.004745 0.000557 0.000000 0.000000
# 3 -0.004745 -0.004745 0.014392 0.000000 0.000000 0.000000
# 4 -0.000557 0.000557 0.000000 0.026090 0.000000 0.000000
# 5 0.000000 0.000000 0.000000 0.000000 0.026090 -0.001114
# 6 0.000000 0.000000 0.000000 0.000000 -0.001114 0.037345
#
#
# Mechanical properties :
#
#
# Convention : Reuss Voigt Hill
#
# Bulk Modulus (GPa) = 52.88828 53.30671 53.09750
# Shear Modulus (GPa) = 30.02187 31.15646 30.58916
#
# Velocity S-wave (km/s) = 3.69479 3.76396 3.72954
# Velocity P-wave (km/s) = 6.50010 6.56730 6.53379
#
# Compressibility (1/GPa) = 0.01890778
#
# Stress axis : x y z
#
# Youngs Moduli (GPa) = 65.74463 65.74463 69.48289
#
# Poissons Ratio (x) = 0.22761 0.32971
# Poissons Ratio (y) = 0.22761 0.32971
# Poissons Ratio (z) = 0.31197 0.31197
#
# Static dielectric constant tensor:
#      x y z
#    x 1.879010 0.000000 0.000000 
#    y 0.000000 1.879010 0.000000 
#    z 0.000000 0.000000 1.813560 
# 
# From -- ./inp_files/3048.got.cif
#   From: 2010.05.17/outbox.cif.g08.bks.cpg/sg154_2_cif.got.tgz:3048.got - 2010.05.20 10:41:43.
