data_PCOD9576575
_publ_section_title
;
Structure prediction by ZEFSAII (Michael W. Deem and Ramdas Pophale) SiO2 
 PCOD9576575
Probable space group: P 32 2 1
;
_chemical_formula_sum "Si O2"
_cell_formula_units_Z 39
_cell_length_a 8.811743
_cell_length_b 8.811743
_cell_length_c 28.079231
_cell_angle_alpha 90.000000
_cell_angle_beta 90.000000
_cell_angle_gamma 120.000000
_cell_volume 1888.163012
_symmetry_space_group_name_H-M "P 32 2 1"
_symmetry_group_IT_number 154
_symmetry_cell_setting 'hexagonal'
loop_
_space_group_symop_operation_xyz
x,y,z
-y,x-y,2/3+z
-x+y,-x,1/3+z
x-y,-y,1/3-z
-x,-x+y,2/3-z
y,x,-z
loop_
_atom_site_type_symbol
_atom_site_label
_atom_site_fract_x
_atom_site_fract_y
_atom_site_fract_z
Si Si1 0.771007 0.255315 0.804160
Si Si2 0.433821 0.049733 0.742724
Si Si3 0.000000 0.621370 0.833334
Si Si4 0.392132 0.045160 0.035213
Si Si5 0.316722 0.706428 0.680717
Si Si6 0.000000 0.956454 0.333334
Si Si7 0.048946 0.901940 0.760637
Si Si8 0.122771 0.000000 0.166667
O O1 0.582565 0.131100 0.782596
O O2 0.824635 0.432445 0.832656
O O3 0.894644 0.326975 0.756890
O O4 0.834539 0.149712 0.837069
O O5 0.495663 0.189922 0.699386
O O6 0.391115 0.861057 0.720699
O O7 0.256014 0.018851 0.765645
O O8 0.008681 0.730218 0.879906
O O9 0.218098 0.056860 0.022595
O O10 0.390239 0.862186 0.027225
O O11 0.541174 0.192796 0.001441
O O12 0.097953 0.107189 0.372386
O O13 0.964700 0.998098 0.788913
#
# Coordination Sequence:
#
# PCOD9576575 Si02
#       8
#     6   6   3   6   6   3   6   3
#     4  10  21  42  65  87 131 174 214 270 331 399
#     4  10  22  40  61  94 134 166 218 270 328 389
#     4  10  24  42  66  94 132 178 222 272 338 406
#     4  11  23  39  65  96 128 172 220 268 341 388
#     4  10  23  38  62  97 134 164 213 278 330 394
#     4  12  24  40  70  92 134 180 224 278 338 404
#     4  11  24  40  65  95 129 173 224 277 325 397
#     4  10  22  42  62  88 124 176 222 264 334 394
#
# _framework density 20.654997999999999
#
# number of rings (size 3 to 8) (size 9 to 14) (size 15 to 20)
#    0.000    1.538    1.538    3.692    8.615    1.231 
#    0.000    0.000    0.000    0.000    0.000    0.000 
#    0.000    0.000    0.000    0.000    0.000    0.000 
#
# Total GULP energy -217635.319054 kJ/mol
# GULP energy per Si atom -5580.392796 kJ/mol
# Density = 2.060799 g / cm^3
# Si number density = 20.654998 Si / 1000 Ang^3
#
#
#
# Elastic Constant Matrix: (Units=GPa)
#
#
# Indices 1 2 3 4 5 6 
#
# 1 218.4495 -93.3620 2.3139 54.8085 0.0053 0.0000
# 2 -93.3620 218.4495 2.3139 -54.8085 -0.0053 0.0000
# 3 2.3139 2.3139 36.3002 0.0000 0.0000 0.0000
# 4 54.8085 -54.8085 0.0000 29.1245 0.0000 -0.0053
# 5 0.0053 -0.0053 0.0000 0.0000 29.1245 54.8085
# 6 0.0000 0.0000 0.0000 -0.0053 54.8085 155.9058
#
#
#
# Elastic Compliance Matrix: (Units=1/GPa)
#
#
# Indices 1 2 3 4 5 6 
#
# 1 0.008745 -0.000731 -0.000511 -0.017833 -0.000002 0.000000
# 2 -0.000731 0.008745 -0.000511 0.017833 0.000002 0.000000
# 3 -0.000511 -0.000511 0.027613 0.000000 0.000000 0.000000
# 4 -0.017833 0.017833 0.000000 0.101454 0.000000 0.000003
# 5 -0.000002 0.000002 0.000000 0.000000 0.101454 -0.035666
# 6 0.000000 0.000000 0.000000 0.000003 -0.035666 0.018952
#
#
# Mechanical properties :
#
#
# Convention : Reuss Voigt Hill
#
# Bulk Modulus (GPa) = 24.04042 32.85897 28.44970
# Shear Modulus (GPa) = 17.58489 80.29320 48.93904
#
# Velocity S-wave (km/s) = 2.92098 6.24163 4.87288
# Velocity P-wave (km/s) = 4.80005 8.23935 6.74267
#
# Compressibility (1/GPa) = 0.04159661
#
# Stress axis : x y z
#
# Youngs Moduli (GPa) = 114.35400 114.35400 36.21457
#
# Poissons Ratio (x) = 0.08365 0.01850
# Poissons Ratio (y) = 0.08365 0.01850
# Poissons Ratio (z) = 0.05841 0.05841
#
# Static dielectric constant tensor:
#      x y z
#    x 1.677100 0.000000 0.000000 
#    y 0.000000 1.677100 0.000000 
#    z 0.000000 0.000000 1.792890 
# 
# From -- ./inp_files/3729.got.cif
#   From: 2010.05.17/outbox.cif.g08.bks.cpg/sg154_2_cif.got.tgz:3729.got - 2010.05.20 10:41:43.
