data_PCOD9576367
_publ_section_title
;
Structure prediction by ZEFSAII (Michael W. Deem and Ramdas Pophale) SiO2 
 PCOD9576367
Probable space group: P 32 1 2
;
_chemical_formula_sum "Si O2"
_cell_formula_units_Z 42
_cell_length_a 21.109112
_cell_length_b 21.109112
_cell_length_c 5.728103
_cell_angle_alpha 90.000000
_cell_angle_beta 90.000000
_cell_angle_gamma 120.000000
_cell_volume 2210.453476
_symmetry_space_group_name_H-M "P 32 1 2"
_symmetry_group_IT_number 153
_symmetry_cell_setting 'hexagonal'
loop_
_space_group_symop_operation_xyz
x,y,z
-y,x-y,2/3+z
-x+y,-x,1/3+z
-y,-x,1/3-z
-x+y,y,2/3-z
x,x-y,-z
loop_
_atom_site_type_symbol
_atom_site_label
_atom_site_fract_x
_atom_site_fract_y
_atom_site_fract_z
Si Si1 0.125949 0.728594 0.241045
Si Si2 0.136613 0.135093 0.931758
Si Si3 0.516562 0.553469 0.912658
Si Si4 0.060890 0.264109 0.417039
Si Si5 0.665318 0.005967 0.243758
Si Si6 0.816193 0.705544 0.584032
Si Si7 0.337270 0.529212 0.257004
O O1 0.201796 0.798205 0.166667
O O2 0.082365 0.761759 0.373248
O O3 0.148757 0.680963 0.396097
O O4 0.067039 0.679121 0.053312
O O5 0.208027 0.159318 0.771976
O O6 0.076419 0.152837 0.833334
O O7 0.102053 0.051027 0.000000
O O8 0.169592 0.182291 0.164263
O O9 0.490624 0.509377 0.666667
O O10 0.605423 0.593054 0.911242
O O11 0.486832 0.513169 0.166667
O O12 0.486745 0.611697 0.905623
O O13 0.137754 0.275507 0.333334
O O14 0.018250 0.286627 0.240874
O O15 0.727523 0.071642 0.396190
O O16 0.845622 0.691244 0.333334
O O17 0.847518 0.695035 0.833334
O O18 0.388819 0.611182 0.166667
O O19 0.259399 0.518797 0.333334
#
# Coordination Sequence:
#
# PCOD9576367 Si02
#       7
#     6   6   6   6   6   6   6
#     4  12  22  38  60  86 113 150 214 262 314 384
#     4  11  24  40  57  84 116 155 205 263 328 391
#     4  11  25  42  61  91 122 155 209 258 305 380
#     4  12  22  38  60  86 113 150 214 262 314 384
#     4  12  22  38  66  82 122 164 194 256 330 364
#     4  11  25  42  61  91 122 155 209 258 305 380
#     4  11  24  40  57  84 116 155 205 263 328 391
#
# _framework density 19.000624999999999
#
# number of rings (size 3 to 8) (size 9 to 14) (size 15 to 20)
#    0.000    0.571    4.286    6.000    0.000    2.286 
#    0.000    0.000    0.000    0.000    0.000    0.000 
#    0.000    0.000    0.000    2.571    0.000    9.714 
#
# Total GULP energy -234290.136624 kJ/mol
# GULP energy per Si atom -5578.336586 kJ/mol
# Density = 1.895738 g / cm^3
# Si number density = 19.000625 Si / 1000 Ang^3
#
#
#
# Elastic Constant Matrix: (Units=GPa)
#
#
# Indices 1 2 3 4 5 6 
#
# 1 45.6825 70.4905 38.1029 0.0033 -19.5268 0.0000
# 2 70.4905 45.6825 38.1029 -0.0033 19.5268 0.0000
# 3 38.1029 38.1029 87.0485 0.0000 0.0000 0.0000
# 4 0.0033 -0.0033 0.0000 22.6486 0.0000 19.5268
# 5 -19.5268 19.5268 0.0000 0.0000 22.6486 0.0033
# 6 0.0000 0.0000 0.0000 19.5268 0.0033 -12.4040
#
#
#
# Elastic Compliance Matrix: (Units=1/GPa)
#
#
# Indices 1 2 3 4 5 6 
#
# 1 -0.002513 0.014588 -0.005285 0.000003 -0.014743 0.000000
# 2 0.014588 -0.002513 -0.005285 -0.000003 0.014743 0.000000
# 3 -0.005285 -0.005285 0.016115 0.000000 0.000000 0.000000
# 4 0.000003 -0.000003 0.000000 0.018731 0.000000 0.029487
# 5 -0.014743 0.014743 0.000000 0.000000 0.018731 0.000005
# 6 0.000000 0.000000 0.000000 0.029487 0.000005 -0.034200
#
#
# Mechanical properties :
#
#
# Convention : Reuss Voigt Hill
#
# Bulk Modulus (GPa) = 52.29294 52.42288 52.35791
# Shear Modulus (GPa) = 393.97013 8.69313 201.33163
#
# Velocity S-wave (km/s) = 14.41513 2.14129 10.30488
# Velocity P-wave (km/s) = 17.45402 5.81063 13.00781
#
# Compressibility (1/GPa) = 0.01912304
#
# Stress axis : x y z
#
# Youngs Moduli (GPa) = -397.98619 -397.98619 62.05427
#
# Poissons Ratio (x) = 5.80566 0.32798
# Poissons Ratio (y) = 5.80565 0.32798
# Poissons Ratio (z) = -2.10353 -2.10353
#
# Static dielectric constant tensor:
#      x y z
#    x 1.721280 0.000000 0.000000 
#    y 0.000000 1.721280 0.000000 
#    z 0.000000 0.000000 1.722800 
# 
# From -- ./inp_files/786.got.cif
#   From: 2010.05.17/outbox.cif.g08.bks.cpg/sg153_1_cif.got.tgz:786.got - 2010.05.20 10:38:56.
