data_PCOD9576532
_publ_section_title
;
Structure prediction by ZEFSAII (Michael W. Deem and Ramdas Pophale) SiO2 
 PCOD9576532
Probable space group: P 32 2 1
;
_chemical_formula_sum "Si O2"
_cell_formula_units_Z 27
_cell_length_a 14.212739
_cell_length_b 14.212739
_cell_length_c 7.863415
_cell_angle_alpha 90.000000
_cell_angle_beta 90.000000
_cell_angle_gamma 120.000000
_cell_volume 1375.616543
_symmetry_space_group_name_H-M "P 32 2 1"
_symmetry_group_IT_number 154
_symmetry_cell_setting 'hexagonal'
loop_
_space_group_symop_operation_xyz
x,y,z
-y,x-y,2/3+z
-x+y,-x,1/3+z
x-y,-y,1/3-z
-x,-x+y,2/3-z
y,x,-z
loop_
_atom_site_type_symbol
_atom_site_label
_atom_site_fract_x
_atom_site_fract_y
_atom_site_fract_z
Si Si1 0.256241 0.605911 0.893111
Si Si2 0.724990 0.125445 0.174623
Si Si3 0.350713 0.132919 0.165424
Si Si4 0.813356 0.000000 0.666667
Si Si5 0.919065 0.802111 0.993050
O O1 0.353407 0.640276 0.755166
O O2 0.196726 0.668636 0.820741
O O3 0.177772 0.475963 0.885182
O O4 0.796042 0.121045 0.328626
O O5 0.631649 0.000000 0.166667
O O6 0.810022 0.168059 0.015595
O O7 0.295738 0.183299 0.042725
O O8 0.279442 0.000000 0.166667
O O9 0.878905 0.017255 0.495207
O O10 0.000000 0.852636 0.833334
O O11 0.815747 0.815747 0.000000
#
# Coordination Sequence:
#
# PCOD9576532 Si02
#       5
#     6   6   6   3   6
#     4  10  24  42  68  91 121 160 215 267 318 372
#     4  10  20  44  62  89 127 166 204 264 315 369
#     4  11  23  42  63  94 126 169 205 258 317 379
#     4  12  24  38  64  88 130 160 214 254 304 384
#     4  11  24  38  59  91 129 173 210 253 310 376
#
# _framework density 19.627562999999999
#
# number of rings (size 3 to 8) (size 9 to 14) (size 15 to 20)
#    0.000    1.333    4.444    2.000    4.667    0.000 
#    0.000    0.000    0.000    0.000    0.000    0.000 
#    0.000    0.000    0.000    0.000    0.000    0.000 
#
# Total GULP energy -150318.144519 kJ/mol
# GULP energy per Si atom -5567.338686 kJ/mol
# Density = 1.958289 g / cm^3
# Si number density = 19.627563 Si / 1000 Ang^3
#
#
#
# Elastic Constant Matrix: (Units=GPa)
#
#
# Indices 1 2 3 4 5 6 
#
# 1 107.3161 59.6806 19.0964 9.2403 -0.0002 0.0000
# 2 59.6806 107.3161 19.0964 -9.2403 0.0002 0.0000
# 3 19.0964 19.0964 84.8196 0.0000 0.0000 0.0000
# 4 9.2403 -9.2403 0.0000 -4.5424 0.0000 0.0002
# 5 -0.0002 0.0002 0.0000 0.0000 -4.5424 9.2403
# 6 0.0000 0.0000 0.0000 0.0002 9.2403 23.8177
#
#
#
# Elastic Compliance Matrix: (Units=1/GPa)
#
#
# Indices 1 2 3 4 5 6 
#
# 1 0.009023 -0.002710 -0.001421 0.023868 0.000000 0.000000
# 2 -0.002710 0.009023 -0.001421 -0.023868 0.000000 0.000000
# 3 -0.001421 -0.001421 0.012430 0.000000 0.000000 0.000000
# 4 0.023868 -0.023868 0.000000 -0.123042 0.000000 0.000001
# 5 0.000000 0.000000 0.000000 0.000000 -0.123042 0.047735
# 6 0.000000 0.000000 0.000000 0.000001 0.047735 0.023466
#
#
# Mechanical properties :
#
#
# Convention : Reuss Voigt Hill
#
# Bulk Modulus (GPa) = 51.62432 55.02206 53.32319
# Shear Modulus (GPa) = -28.64018 16.38512 -6.12753
#
# Velocity S-wave (km/s) = -3.82407 2.89243 -1.76881
# Velocity P-wave (km/s) = 2.61936 6.26488 4.80155
#
# Compressibility (1/GPa) = 0.01937071
#
# Stress axis : x y z
#
# Youngs Moduli (GPa) = 110.82599 110.82599 80.45212
#
# Poissons Ratio (x) = 0.30033 0.11435
# Poissons Ratio (y) = 0.30033 0.11435
# Poissons Ratio (z) = 0.15752 0.15752
#
# Static dielectric constant tensor:
#      x y z
#    x 1.713350 0.000000 0.000000 
#    y 0.000000 1.713350 0.000000 
#    z 0.000000 0.000000 1.769510 
# 
# From -- ./inp_files/1012.got.cif
#   From: 2010.05.17/outbox.cif.g08.bks.cpg/sg154_1_cif.got.tgz:1012.got - 2010.05.20 10:41:43.
