data_PCOD9576284
_publ_section_title
;
Structure prediction by ZEFSAII (Michael W. Deem and Ramdas Pophale) SiO2 
 PCOD9576284
Probable space group: P 32 1 2
;
_chemical_formula_sum "Si O2"
_cell_formula_units_Z 24
_cell_length_a 10.298281
_cell_length_b 10.298281
_cell_length_c 11.622838
_cell_angle_alpha 90.000000
_cell_angle_beta 90.000000
_cell_angle_gamma 120.000000
_cell_volume 1067.510836
_symmetry_space_group_name_H-M "P 32 1 2"
_symmetry_group_IT_number 153
_symmetry_cell_setting 'hexagonal'
loop_
_space_group_symop_operation_xyz
x,y,z
-y,x-y,2/3+z
-x+y,-x,1/3+z
-y,-x,1/3-z
-x+y,y,2/3-z
x,x-y,-z
loop_
_atom_site_type_symbol
_atom_site_label
_atom_site_fract_x
_atom_site_fract_y
_atom_site_fract_z
Si Si1 0.509556 0.454881 0.894172
Si Si2 0.729100 0.533696 0.089604
Si Si3 0.224552 0.706333 0.890233
Si Si4 0.761259 0.000074 0.730063
O O1 0.492993 0.359477 0.780997
O O2 0.481507 0.589729 0.867140
O O3 0.664397 0.512666 0.962363
O O4 0.379657 0.336778 0.978269
O O5 0.594365 0.405636 0.166667
O O6 0.768956 0.691640 0.147568
O O7 0.391030 0.782059 0.833334
O O8 0.170746 0.823770 0.921955
O O9 0.224271 0.612136 0.000000
O O10 0.922371 0.077630 0.666667
#
# Coordination Sequence:
#
# PCOD9576284 Si02
#       4
#     6   6   6   6
#     4  10  20  36  57  96 128 169 219 281 341 394
#     4   9  18  34  61  88 127 167 214 275 329 406
#     4  12  23  36  61 101 139 170 223 296 340 404
#     4   9  19  36  58  90 135 179 210 261 347 418
#
# _framework density 22.482206000000001
#
# number of rings (size 3 to 8) (size 9 to 14) (size 15 to 20)
#    0.000    2.000    2.500    4.500    0.000    2.000 
#    0.000    0.000    0.000    0.000   39.000    0.000 
#    0.000    0.000    0.000    0.000    0.000    0.000 
#
# Total GULP energy -134043.914695 kJ/mol
# GULP energy per Si atom -5585.163112 kJ/mol
# Density = 2.243104 g / cm^3
# Si number density = 22.482206 Si / 1000 Ang^3
#
#
#
# Elastic Constant Matrix: (Units=GPa)
#
#
# Indices 1 2 3 4 5 6 
#
# 1 59.1402 17.7913 19.1265 -0.0001 -2.2959 0.0000
# 2 17.7913 59.1402 19.1265 0.0001 2.2959 0.0000
# 3 19.1265 19.1265 77.9470 0.0000 0.0000 0.0000
# 4 -0.0001 0.0001 0.0000 19.6215 0.0000 2.2959
# 5 -2.2959 2.2959 0.0000 0.0000 19.6215 -0.0001
# 6 0.0000 0.0000 0.0000 2.2959 -0.0001 20.6744
#
#
#
# Elastic Compliance Matrix: (Units=1/GPa)
#
#
# Indices 1 2 3 4 5 6 
#
# 1 0.019654 -0.004849 -0.003633 0.000000 0.002867 0.000000
# 2 -0.004849 0.019654 -0.003633 0.000000 -0.002867 0.000000
# 3 -0.003633 -0.003633 0.014612 0.000000 0.000000 0.000000
# 4 0.000000 0.000000 0.000000 0.051636 0.000000 -0.005734
# 5 0.002867 -0.002867 0.000000 0.000000 0.051636 0.000000
# 6 0.000000 0.000000 0.000000 -0.005734 0.000000 0.049006
#
#
# Mechanical properties :
#
#
# Convention : Reuss Voigt Hill
#
# Bulk Modulus (GPa) = 33.68060 34.25734 33.96897
# Shear Modulus (GPa) = 20.80536 21.32900 21.06718
#
# Velocity S-wave (km/s) = 3.04536 3.08345 3.06447
# Velocity P-wave (km/s) = 5.23251 5.28654 5.25959
#
# Compressibility (1/GPa) = 0.02969068
#
# Stress axis : x y z
#
# Youngs Moduli (GPa) = 50.88051 50.88051 68.43666
#
# Poissons Ratio (x) = 0.24672 0.24862
# Poissons Ratio (y) = 0.24672 0.24862
# Poissons Ratio (z) = 0.18484 0.18484
#
# Static dielectric constant tensor:
#      x y z
#    x 1.866870 0.000000 0.000000 
#    y 0.000000 1.866870 0.000000 
#    z 0.000000 0.000000 1.851170 
# 
# From -- ./inp_files/2359.got.cif
#   From: 2010.05.17/outbox.cif.g08.bks.cpg/sg153_2_cif.got.tgz:2359.got - 2010.05.20 10:38:56.
