data_PCOD9576096
_publ_section_title
;
Structure prediction by ZEFSAII (Michael W. Deem and Ramdas Pophale) SiO2 
 PCOD9576096
Probable space group: P 31 2 1
;
_chemical_formula_sum "Si O2"
_cell_formula_units_Z 18
_cell_length_a 9.603554
_cell_length_b 9.603554
_cell_length_c 10.254375
_cell_angle_alpha 90.000000
_cell_angle_beta 90.000000
_cell_angle_gamma 120.000000
_cell_volume 819.037511
_symmetry_space_group_name_H-M "P 31 2 1"
_symmetry_group_IT_number 152
_symmetry_cell_setting 'hexagonal'
loop_
_space_group_symop_operation_xyz
x,y,z
-y,x-y,1/3+z
-x+y,-x,2/3+z
x-y,-y,2/3-z
-x,-x+y,1/3-z
y,x,-z
loop_
_atom_site_type_symbol
_atom_site_label
_atom_site_fract_x
_atom_site_fract_y
_atom_site_fract_z
Si Si1 0.733439 0.000000 0.333334
Si Si2 0.978751 0.332663 0.959360
Si Si3 0.266563 0.000000 0.333334
Si Si4 0.667336 0.021247 0.040641
O O1 0.652085 0.996899 0.196793
O O2 0.900263 0.170530 0.327435
O O3 0.003099 0.347915 0.803208
O O4 0.999999 0.500000 0.009734
O O5 0.803311 0.196687 0.000001
O O6 0.099739 0.829470 0.327435
#
# Coordination Sequence:
#
# PCOD9576096 Si02
#       4
#     3   6   3   6
#     4  10  24  44  64  92 132 174 216 266 330 400
#     4  11  24  42  67  95 128 170 218 270 329 395
#     4  10  24  44  64  92 132 174 216 266 330 400
#     4  11  24  42  67  95 128 170 218 270 329 395
#
# _framework density 21.977014
#
# number of rings (size 3 to 8) (size 9 to 14) (size 15 to 20)
#    0.000    1.333    0.000    4.000    0.000   21.333 
#    0.000    0.000    0.000    0.000    0.000    0.000 
#    0.000    0.000    0.000    0.000    0.000    0.000 
#
# Total GULP energy -100447.806405 kJ/mol
# GULP energy per Si atom -5580.433689 kJ/mol
# Density = 2.192699 g / cm^3
# Si number density = 21.977014 Si / 1000 Ang^3
#
#
#
# Elastic Constant Matrix: (Units=GPa)
#
#
# Indices 1 2 3 4 5 6 
#
# 1 183.1276 138.9340 5.6278 -0.0006 0.0000 0.0000
# 2 138.9340 183.1276 5.6278 0.0006 0.0000 0.0000
# 3 5.6278 5.6278 72.9396 0.0000 0.0000 0.0000
# 4 -0.0006 0.0006 0.0000 -0.0627 0.0000 0.0000
# 5 0.0000 0.0000 0.0000 0.0000 -0.0627 -0.0006
# 6 0.0000 0.0000 0.0000 0.0000 -0.0006 22.0968
#
#
#
# Elastic Compliance Matrix: (Units=1/GPa)
#
#
# Indices 1 2 3 4 5 6 
#
# 1 0.012871 -0.009757 -0.000240 -0.000228 0.000000 0.000000
# 2 -0.009757 0.012871 -0.000240 0.000228 0.000000 0.000000
# 3 -0.000240 -0.000240 0.013747 0.000000 0.000000 0.000000
# 4 -0.000228 0.000228 0.000000-15.951950 -0.000004 0.000000
# 5 0.000000 0.000000 0.000000 -0.000004-15.951945 -0.000456
# 6 0.000000 0.000000 0.000000 0.000000 -0.000456 0.045255
#
#
# Mechanical properties :
#
#
# Convention : Reuss Voigt Hill
#
# Bulk Modulus (GPa) = 52.59572 82.17486 67.38529
# Shear Modulus (GPa) = -0.15727 23.66130 11.75201
#
# Velocity S-wave (km/s) = -0.26780 3.28478 2.31496
# Velocity P-wave (km/s) = 4.88758 7.20130 6.15416
#
# Compressibility (1/GPa) = 0.01901296
#
# Stress axis : x y z
#
# Youngs Moduli (GPa) = 77.69678 77.69678 72.74289
#
# Poissons Ratio (x) = 0.75810 0.01747
# Poissons Ratio (y) = 0.75810 0.01747
# Poissons Ratio (z) = 0.01866 0.01866
#
# Static dielectric constant tensor:
#      x y z
#    x 1.806600 0.000000 0.000000 
#    y 0.000000 1.806600 0.000000 
#    z 0.000000 0.000000 1.840960 
# 
# From -- ./inp_files/1468.got.cif
#   From: 2010.05.17/outbox.cif.g08.bks.cpg/sg152_1_cif.got.tgz:1468.got - 2010.05.20 10:36:06.
