data_PCOD9576405
_publ_section_title
;
Structure prediction by ZEFSAII (Michael W. Deem and Ramdas Pophale) SiO2 
 PCOD9576405
Probable space group: P 32 2 1
;
_chemical_formula_sum "Si O2"
_cell_formula_units_Z 42
_cell_length_a 9.248632
_cell_length_b 9.248632
_cell_length_c 29.104996
_cell_angle_alpha 90.000000
_cell_angle_beta 90.000000
_cell_angle_gamma 120.000000
_cell_volume 2156.021932
_symmetry_space_group_name_H-M "P 32 2 1"
_symmetry_group_IT_number 154
_symmetry_cell_setting 'hexagonal'
loop_
_space_group_symop_operation_xyz
x,y,z
-y,x-y,2/3+z
-x+y,-x,1/3+z
x-y,-y,1/3-z
-x,-x+y,2/3-z
y,x,-z
loop_
_atom_site_type_symbol
_atom_site_label
_atom_site_fract_x
_atom_site_fract_y
_atom_site_fract_z
Si Si1 0.000000 0.915575 0.333334
Si Si2 0.414999 0.936282 0.094910
Si Si3 0.684013 0.307800 0.769724
Si Si4 0.735796 0.001298 0.759690
Si Si5 0.037933 0.524183 0.609526
Si Si6 0.675720 0.407084 0.209514
Si Si7 0.641737 0.816065 0.340538
Si Si8 0.000000 0.201585 0.833334
O O1 0.971907 0.804134 0.287948
O O2 0.838710 0.930534 0.342371
O O3 0.419255 0.767466 0.103820
O O4 0.324746 0.909516 0.046504
O O5 0.272800 0.917157 0.131136
O O6 0.576870 0.118996 0.101418
O O7 0.547376 0.330240 0.741546
O O8 0.620527 0.271566 0.821953
O O9 0.708226 0.157768 0.752036
O O10 0.562421 0.850588 0.776380
O O11 0.869647 0.051964 0.801437
O O12 0.103473 0.403389 0.628970
O O13 0.907694 0.452629 0.567315
O O14 0.932829 0.562748 0.647564
#
# Coordination Sequence:
#
# PCOD9576405 Si02
#       8
#     3   6   6   6   6   6   6   3
#     4  12  22  42  62  94 126 164 210 272 330 384
#     4  10  19  37  66  89 122 167 213 258 320 387
#     4  11  21  39  64  93 128 169 211 262 317 391
#     4  11  23  37  68  93 131 170 218 264 331 388
#     4  11  25  41  66  94 128 168 218 267 320 388
#     4  11  21  37  64  98 125 164 216 268 318 383
#     4  11  23  42  64  91 123 168 213 265 321 391
#     4  10  18  38  62  90 120 180 204 254 322 396
#
# _framework density 19.480319999999999
#
# number of rings (size 3 to 8) (size 9 to 14) (size 15 to 20)
#    0.000    1.143    7.143    1.714    2.000    0.000 
#    0.000    5.000    6.286    0.000    0.000    0.000 
#    0.000    0.000    0.000    0.000    0.000    0.000 
#
# Total GULP energy -233863.533720 kJ/mol
# GULP energy per Si atom -5568.179374 kJ/mol
# Density = 1.943598 g / cm^3
# Si number density = 19.480320 Si / 1000 Ang^3
#
#
#
# Elastic Constant Matrix: (Units=GPa)
#
#
# Indices 1 2 3 4 5 6 
#
# 1 5.7515 133.9570 18.9045 -14.4008 -0.0150 0.0000
# 2 133.9570 5.7515 18.9045 14.4008 0.0150 0.0000
# 3 18.9045 18.9045 54.0874 0.0000 0.0000 0.0000
# 4 -14.4008 14.4008 0.0000 -2.8166 0.0000 0.0150
# 5 -0.0150 0.0150 0.0000 0.0000 -2.8166 -14.4008
# 6 0.0000 0.0000 0.0000 0.0150 -14.4008 -64.1028
#
#
#
# Elastic Compliance Matrix: (Units=1/GPa)
#
#
# Indices 1 2 3 4 5 6 
#
# 1 0.030194 -0.022289 -0.002763 -0.268337 -0.000279 0.000000
# 2 -0.022289 0.030194 -0.002763 0.268337 0.000279 0.000000
# 3 -0.002763 -0.002763 0.020420 0.000000 0.000000 0.000000
# 4 -0.268337 0.268337 0.000000 2.388912 0.000000 0.000558
# 5 -0.000279 0.000279 0.000000 0.000000 2.388912 -0.536674
# 6 0.000000 0.000000 0.000000 0.000558 -0.536674 0.104965
#
#
# Mechanical properties :
#
#
# Convention : Reuss Voigt Hill
#
# Bulk Modulus (GPa) = 39.71611 45.45804 42.58707
# Shear Modulus (GPa) = 0.99451 -21.02555 -10.01552
#
# Velocity S-wave (km/s) = 0.71528 -3.28887 -2.26992
# Velocity P-wave (km/s) = 4.59502 2.99396 3.87802
#
# Compressibility (1/GPa) = 0.02517870
#
# Stress axis : x y z
#
# Youngs Moduli (GPa) = 33.11906 33.11906 48.97134
#
# Poissons Ratio (x) = 0.73818 0.13531
# Poissons Ratio (y) = 0.73818 0.13531
# Poissons Ratio (z) = 0.09151 0.09151
#
# Static dielectric constant tensor:
#      x y z
#    x 1.707270 0.000000 0.000000 
#    y 0.000000 1.707270 0.000000 
#    z 0.000000 0.000000 1.693010 
# 
# From -- ./inp_files/3828.got.cif
#   From: 2010.05.17/outbox.cif.g08.bks.cpg/sg154_2_cif.got.tgz:3828.got - 2010.05.20 10:41:43.
