data_PCOD9576217
_publ_section_title
;
Structure prediction by ZEFSAII (Michael W. Deem and Ramdas Pophale) SiO2 
 PCOD9576217
Probable space group: P 31 2 1
;
_chemical_formula_sum "Si O2"
_cell_formula_units_Z 42
_cell_length_a 9.000000
_cell_length_b 9.000000
_cell_length_c 30.000000
_cell_angle_alpha 90.000000
_cell_angle_beta 90.000000
_cell_angle_gamma 120.000000
_cell_volume 2104.441731
_symmetry_space_group_name_H-M "P 31 2 1"
_symmetry_group_IT_number 152
_symmetry_cell_setting 'hexagonal'
loop_
_space_group_symop_operation_xyz
x,y,z
-y,x-y,1/3+z
-x+y,-x,2/3+z
x-y,-y,2/3-z
-x,-x+y,1/3-z
y,x,-z
loop_
_atom_site_type_symbol
_atom_site_label
_atom_site_fract_x
_atom_site_fract_y
_atom_site_fract_z
Si Si1 0.856569 0.813014 0.551110
Si Si2 0.971979 0.891817 0.049315
Si Si3 0.100951 0.599842 0.809931
Si Si4 0.166540 0.544843 0.461546
Si Si5 0.415044 0.166979 0.448235
Si Si6 0.519327 0.789507 0.699772
Si Si7 0.515826 0.624132 0.606244
O O1 0.885864 0.885864 0.500000
O O2 0.674607 0.755317 0.575413
O O3 0.859527 0.639516 0.541784
O O4 0.992467 0.934641 0.588126
O O5 0.837339 0.756351 0.085184
O O6 0.102435 0.826365 0.037724
O O7 0.903669 0.903669 0.000000
O O8 0.011778 0.544982 0.858454
O O9 0.958219 0.452069 0.778616
O O10 0.271270 0.588496 0.810465
O O11 0.178026 0.410290 0.496921
O O12 0.197822 0.532428 0.409648
O O13 0.533137 0.351156 0.426147
O O14 0.480202 0.704636 0.650681
O O15 0.451801 0.923408 0.708789
#
# Coordination Sequence:
#
# PCOD9576217 Si02
#       7
#     6   6   6   6   6   6   6
#     4  12  26  42  72 101 135 176 234 280 336 404
#     4  11  25  45  64 104 138 175 224 285 343 404
#     4  10  24  44  69 101 130 177 228 286 322 408
#     4  10  23  44  70  99 134 176 234 273 338 401
#     4   9  25  44  70  94 135 178 224 274 339 396
#     4  11  25  43  70  96 143 176 223 279 351 399
#     4  11  24  46  65 103 131 186 216 286 339 408
#
# _framework density 19.957787
#
# number of rings (size 3 to 8) (size 9 to 14) (size 15 to 20)
#    0.857    0.571    2.857    0.857    6.000    6.857 
#    0.000    0.000    0.000    0.000    0.000    0.000 
#    0.000    0.000    0.000    0.000    0.000    0.000 
#
# Total GULP energy -234021.862986 kJ/mol
# GULP energy per Si atom -5571.949119 kJ/mol
# Density = 1.991236 g / cm^3
# Si number density = 19.957787 Si / 1000 Ang^3
#
#
#
# Elastic Constant Matrix: (Units=GPa)
#
#
# Indices 1 2 3 4 5 6 
#
# 1 20.3291 -18.9080 -11.9751 -6.6334 0.0000 0.0000
# 2 -18.9080 20.3291 -11.9751 6.6334 0.0000 0.0000
# 3 -11.9751 -11.9751 101.5693 0.0000 0.0000 0.0000
# 4 -6.6334 6.6334 0.0000 30.6836 0.0000 0.0000
# 5 0.0000 0.0000 0.0000 0.0000 30.6836 -6.6334
# 6 0.0000 0.0000 0.0000 0.0000 -6.6334 19.6186
#
#
#
# Elastic Compliance Matrix: (Units=1/GPa)
#
#
# Indices 1 2 3 4 5 6 
#
# 1 -0.342718 -0.370214 -0.084056 0.005944 0.000000 0.000000
# 2 -0.370214 -0.342718 -0.084056 -0.005944 0.000000 0.000000
# 3 -0.084056 -0.084056 -0.009975 0.000000 0.000000 0.000000
# 4 0.005944 -0.005944 0.000000 0.035161 0.000000 0.000000
# 5 0.000000 0.000000 0.000000 0.000000 0.035161 0.011889
# 6 0.000000 0.000000 0.000000 0.000000 0.011889 0.054992
#
#
# Mechanical properties :
#
#
# Convention : Reuss Voigt Hill
#
# Bulk Modulus (GPa) = -0.56431 6.27899 2.85734
# Shear Modulus (GPa) = -59.42884 28.53622 -15.44631
#
# Velocity S-wave (km/s) = -5.46278 3.78541 -2.78501
# Velocity P-wave (km/s) = 6.33029 4.71792 2.98445
#
# Compressibility (1/GPa) = -1.77206022
#
# Stress axis : x y z
#
# Youngs Moduli (GPa) = -2.91785 -2.91785 -100.25040
#
# Poissons Ratio (x) = -1.08023 -8.42660
# Poissons Ratio (y) = -1.08023 -8.42660
# Poissons Ratio (z) = -0.24526 -0.24526
#
# Static dielectric constant tensor:
#      x y z
#    x 1.731770 0.000000 0.000000 
#    y 0.000000 1.731770 0.000000 
#    z 0.000000 0.000000 1.723960 
# 
# From -- ./inp_files/3716.got.cif
#   From: 2010.05.17/outbox.ucp.g08.bks.cvg/sg152_2_cif.got.tgz:3716.got - 2010.06.11 15:13:12.
