data_PCOD9576432
_publ_section_title
;
Structure prediction by ZEFSAII (Michael W. Deem and Ramdas Pophale) SiO2 
 PCOD9576432
Probable space group: P 32 2 1
;
_chemical_formula_sum "Si O2"
_cell_formula_units_Z 42
_cell_length_a 13.723603
_cell_length_b 13.723603
_cell_length_c 11.492738
_cell_angle_alpha 90.000000
_cell_angle_beta 90.000000
_cell_angle_gamma 120.000000
_cell_volume 1874.521519
_symmetry_space_group_name_H-M "P 32 2 1"
_symmetry_group_IT_number 154
_symmetry_cell_setting 'hexagonal'
loop_
_space_group_symop_operation_xyz
x,y,z
-y,x-y,2/3+z
-x+y,-x,1/3+z
x-y,-y,1/3-z
-x,-x+y,2/3-z
y,x,-z
loop_
_atom_site_type_symbol
_atom_site_label
_atom_site_fract_x
_atom_site_fract_y
_atom_site_fract_z
Si Si1 0.305284 0.581791 0.976210
Si Si2 0.883801 0.795063 0.394991
Si Si3 0.378158 0.116153 0.870167
Si Si4 0.473475 0.060447 0.358875
Si Si5 0.528347 0.801721 0.996726
Si Si6 0.120704 0.637551 0.911585
Si Si7 0.816072 0.588810 0.552804
O O1 0.222225 0.483766 0.064278
O O2 0.428770 0.672987 0.016121
O O3 0.240128 0.647480 0.939812
O O4 0.307048 0.520143 0.857598
O O5 0.850562 0.850562 0.500000
O O6 0.800056 0.730459 0.287279
O O7 0.877589 0.690895 0.464977
O O8 0.000000 0.877577 0.333334
O O9 0.378391 0.173068 0.747888
O O10 0.398080 0.009748 0.871118
O O11 0.602780 0.136439 0.396671
O O12 0.431763 0.131033 0.279239
O O13 0.472777 0.964624 0.275941
O O14 0.560048 0.865593 0.120515
O O15 0.101859 0.708301 0.008941
#
# Coordination Sequence:
#
# PCOD9576432 Si02
#       7
#     6   6   6   6   6   6   6
#     4  10  19  34  59  91 136 186 240 282 336 411
#     4  11  25  48  80 102 130 177 245 317 380 445
#     4  10  24  40  63 104 142 183 241 301 358 436
#     4  11  22  38  68  94 141 202 239 287 355 446
#     4  12  22  36  61  97 144 193 241 278 349 427
#     4  11  21  34  60  93 136 188 232 278 331 427
#     4  11  22  41  68  99 139 184 238 290 365 430
#
# _framework density 22.405716000000002
#
# number of rings (size 3 to 8) (size 9 to 14) (size 15 to 20)
#    0.000    1.143    4.286    3.000    6.000    0.000 
#    0.000    0.714    6.286    0.000    0.000    0.000 
#    0.000    0.000    0.000    0.000    0.000    0.000 
#
# Total GULP energy -234280.843836 kJ/mol
# GULP energy per Si atom -5578.115329 kJ/mol
# Density = 2.235472 g / cm^3
# Si number density = 22.405716 Si / 1000 Ang^3
#
#
#
# Elastic Constant Matrix: (Units=GPa)
#
#
# Indices 1 2 3 4 5 6 
#
# 1 49.3218 1.0752 4.6408 -0.0410 0.0001 0.0000
# 2 1.0752 49.3218 4.6408 0.0410 -0.0001 0.0000
# 3 4.6408 4.6408 62.5807 0.0000 0.0000 0.0000
# 4 -0.0410 0.0410 0.0000 38.3820 0.0000 -0.0001
# 5 0.0001 -0.0001 0.0000 0.0000 38.3820 -0.0410
# 6 0.0000 0.0000 0.0000 -0.0001 -0.0410 24.1233
#
#
#
# Elastic Compliance Matrix: (Units=1/GPa)
#
#
# Indices 1 2 3 4 5 6 
#
# 1 0.020422 -0.000305 -0.001492 0.000022 0.000000 0.000000
# 2 -0.000305 0.020422 -0.001492 -0.000022 0.000000 0.000000
# 3 -0.001492 -0.001492 0.016201 0.000000 0.000000 0.000000
# 4 0.000022 -0.000022 0.000000 0.026054 0.000000 0.000000
# 5 0.000000 0.000000 0.000000 0.000000 0.026054 0.000044
# 6 0.000000 0.000000 0.000000 0.000000 0.000044 0.041454
#
#
# Mechanical properties :
#
#
# Convention : Reuss Voigt Hill
#
# Bulk Modulus (GPa) = 19.81465 20.21532 20.01498
# Shear Modulus (GPa) = 28.73466 30.23530 29.48498
#
# Velocity S-wave (km/s) = 3.58504 3.67747 3.63155
# Velocity P-wave (km/s) = 5.09897 5.20323 5.15137
#
# Compressibility (1/GPa) = 0.05046771
#
# Stress axis : x y z
#
# Youngs Moduli (GPa) = 48.96670 48.96670 61.72604
#
# Poissons Ratio (x) = 0.01493 0.09208
# Poissons Ratio (y) = 0.01493 0.09208
# Poissons Ratio (z) = 0.07305 0.07305
#
# Static dielectric constant tensor:
#      x y z
#    x 1.892450 0.000000 0.000000 
#    y 0.000000 1.892450 0.000000 
#    z 0.000000 0.000000 1.928430 
# 
# From -- ./inp_files/1751.got.cif
#   From: 2010.05.17/outbox.cif.g08.bks.cpg/sg154_1_cif.got.tgz:1751.got - 2010.05.20 10:41:43.
