data_PCOD9576520
_publ_section_title
;
Structure prediction by ZEFSAII (Michael W. Deem and Ramdas Pophale) SiO2 
 PCOD9576520
Probable space group: P 32 2 1
;
_chemical_formula_sum "Si O2"
_cell_formula_units_Z 42
_cell_length_a 8.907470
_cell_length_b 8.907470
_cell_length_c 28.871143
_cell_angle_alpha 90.000000
_cell_angle_beta 90.000000
_cell_angle_gamma 120.000000
_cell_volume 1983.824942
_symmetry_space_group_name_H-M "P 32 2 1"
_symmetry_group_IT_number 154
_symmetry_cell_setting 'hexagonal'
loop_
_space_group_symop_operation_xyz
x,y,z
-y,x-y,2/3+z
-x+y,-x,1/3+z
x-y,-y,1/3-z
-x,-x+y,2/3-z
y,x,-z
loop_
_atom_site_type_symbol
_atom_site_label
_atom_site_fract_x
_atom_site_fract_y
_atom_site_fract_z
Si Si1 0.059981 0.059981 0.000000
Si Si2 0.854178 0.000000 0.166667
Si Si3 0.767483 0.091499 0.492669
Si Si4 0.750493 0.052888 0.745112
Si Si5 0.040176 0.632395 0.910567
Si Si6 0.674961 0.987810 0.351376
Si Si7 0.723038 0.303429 0.414418
Si Si8 0.753890 0.616757 0.568801
O O1 0.199920 0.151389 0.958960
O O2 0.872404 0.022551 0.985104
O O3 0.762784 0.010133 0.119994
O O4 0.039641 0.166341 0.171481
O O5 0.770608 0.241931 0.461976
O O6 0.708165 0.066166 0.545515
O O7 0.655228 0.904622 0.467587
O O8 0.641983 0.144701 0.729553
O O9 0.944757 0.209653 0.759652
O O10 0.241226 0.690339 0.907240
O O11 0.913527 0.440604 0.890848
O O12 0.012129 0.630427 0.965702
O O13 0.566745 0.819738 0.384208
O O14 0.697395 0.156272 0.377800
#
# Coordination Sequence:
#
# PCOD9576520 Si02
#       8
#     3   3   6   6   6   6   6   6
#     4  10  22  40  68 102 122 184 214 266 346 420
#     4  12  26  38  66 100 128 178 236 276 328 400
#     4  11  22  43  65  92 133 181 217 275 333 405
#     4  10  20  40  64  90 136 172 217 266 334 405
#     4  11  24  41  64 100 131 168 227 285 328 395
#     4  10  21  41  69  93 137 168 225 277 338 403
#     4  10  25  40  66 100 132 173 224 280 337 394
#     4   9  20  39  67  87 125 182 214 254 347 402
#
# _framework density 21.171225
#
# number of rings (size 3 to 8) (size 9 to 14) (size 15 to 20)
#    0.000    1.714    1.429    1.714   10.000    0.571 
#    0.000    0.000    0.000    0.000    0.000    0.000 
#    0.000    0.000    0.000    0.000    0.000    0.000 
#
# Total GULP energy -234431.270535 kJ/mol
# GULP energy per Si atom -5581.696918 kJ/mol
# Density = 2.112304 g / cm^3
# Si number density = 21.171225 Si / 1000 Ang^3
#
#
#
# Elastic Constant Matrix: (Units=GPa)
#
#
# Indices 1 2 3 4 5 6 
#
# 1 53.0833 29.0010 -1.6816 -6.4413 -0.0003 0.0000
# 2 29.0010 53.0833 -1.6816 6.4413 0.0003 0.0000
# 3 -1.6816 -1.6816 48.1998 0.0000 0.0000 0.0000
# 4 -6.4413 6.4413 0.0000 21.9627 0.0000 0.0003
# 5 -0.0003 0.0003 0.0000 0.0000 21.9627 -6.4413
# 6 0.0000 0.0000 0.0000 0.0003 -6.4413 12.0411
#
#
#
# Elastic Compliance Matrix: (Units=1/GPa)
#
#
# Indices 1 2 3 4 5 6 
#
# 1 0.030726 -0.018526 0.000426 0.014444 0.000001 0.000000
# 2 -0.018526 0.030726 0.000426 -0.014444 -0.000001 0.000000
# 3 0.000426 0.000426 0.020777 0.000000 0.000000 0.000000
# 4 0.014444 -0.014444 0.000000 0.054004 0.000000 -0.000001
# 5 0.000001 -0.000001 0.000000 0.000000 0.054004 0.028889
# 6 0.000000 0.000000 0.000000 -0.000001 0.028889 0.098502
#
#
# Mechanical properties :
#
#
# Convention : Reuss Voigt Hill
#
# Bulk Modulus (GPa) = 21.33137 22.84910 22.09023
# Shear Modulus (GPa) = 14.71827 19.77523 17.24675
#
# Velocity S-wave (km/s) = 2.63953 3.05956 2.85727
# Velocity P-wave (km/s) = 4.40307 4.82671 4.61975
#
# Compressibility (1/GPa) = 0.04687931
#
# Stress axis : x y z
#
# Youngs Moduli (GPa) = 32.54614 32.54614 48.13095
#
# Poissons Ratio (x) = 0.60294 -0.02049
# Poissons Ratio (y) = 0.60294 -0.02049
# Poissons Ratio (z) = -0.01385 -0.01385
#
# Static dielectric constant tensor:
#      x y z
#    x 1.750190 0.000000 0.000000 
#    y 0.000000 1.750190 0.000000 
#    z 0.000000 0.000000 1.815520 
# 
# From -- ./inp_files/3837.got.cif
#   From: 2010.05.17/outbox.cif.g08.bks.cpg/sg154_2_cif.got.tgz:3837.got - 2010.05.20 10:41:43.
