data_PCOD9576388
_publ_section_title
;
Structure prediction by ZEFSAII (Michael W. Deem and Ramdas Pophale) SiO2 
 PCOD9576388
Probable space group: P 32 2 1
;
_chemical_formula_sum "Si O2"
_cell_formula_units_Z 39
_cell_length_a 14.243779
_cell_length_b 14.243779
_cell_length_c 13.583136
_cell_angle_alpha 90.000000
_cell_angle_beta 90.000000
_cell_angle_gamma 120.000000
_cell_volume 2386.608232
_symmetry_space_group_name_H-M "P 32 2 1"
_symmetry_group_IT_number 154
_symmetry_cell_setting 'hexagonal'
loop_
_space_group_symop_operation_xyz
x,y,z
-y,x-y,2/3+z
-x+y,-x,1/3+z
x-y,-y,1/3-z
-x,-x+y,2/3-z
y,x,-z
loop_
_atom_site_type_symbol
_atom_site_label
_atom_site_fract_x
_atom_site_fract_y
_atom_site_fract_z
Si Si1 0.640196 0.664382 0.883695
Si Si2 0.607202 0.438673 0.831211
Si Si3 0.664381 0.024185 0.550362
Si Si4 0.607201 0.168529 0.835456
Si Si5 0.329892 0.664946 0.333333
Si Si6 0.000000 0.000000 0.000000
Si Si7 0.091092 0.182183 0.166667
O O1 0.639749 0.563010 0.831774
O O2 0.518677 0.639961 0.861132
O O3 0.736637 0.780881 0.851136
O O4 0.650375 0.650375 0.000000
O O5 0.481324 0.360040 0.861133
O O6 0.673728 0.419474 0.916968
O O7 0.627697 0.401501 0.726960
O O8 0.639748 0.076739 0.834893
O O9 0.780880 0.044244 0.517803
O O10 0.650374 0.000000 0.666667
O O11 0.627697 0.226197 0.939707
O O12 0.673726 0.254253 0.749698
O O13 0.965077 0.897287 0.072878
O O14 0.034924 0.102713 0.072879
#
# Coordination Sequence:
#
# PCOD9576388 Si02
#       7
#     6   6   6   6   6   3   6
#     4  11  20  36  57  85 107 149 186 239 271 336
#     4  10  20  33  55  85 118 136 193 213 280 343
#     4  11  20  36  57  85 107 149 186 239 271 336
#     4  10  20  33  55  85 118 136 193 213 280 343
#     4  10  18  32  54  82 114 152 164 230 274 334
#     4  10  24  40  52  84 100 144 196 242 260 342
#     4  11  22  38  60  74 112 142 190 231 290 308
#
# _framework density 16.341183000000001
#
# number of rings (size 3 to 8) (size 9 to 14) (size 15 to 20)
#    0.000    1.538    4.615    2.769    0.000    1.231 
#    0.000    0.000    0.000   14.769    0.000    0.000 
#    0.000    0.000    0.000    0.000    0.000    0.000 
#
# Total GULP energy -217408.933575 kJ/mol
# GULP energy per Si atom -5574.588040 kJ/mol
# Density = 1.630399 g / cm^3
# Si number density = 16.341183 Si / 1000 Ang^3
#
#
#
# Elastic Constant Matrix: (Units=GPa)
#
#
# Indices 1 2 3 4 5 6 
#
# 1 121.5164 74.8993 70.4973 0.0000 0.0001 0.0000
# 2 74.8993 121.5164 70.4973 0.0000 -0.0001 0.0000
# 3 70.4973 70.4973 125.6073 0.0000 0.0000 0.0000
# 4 0.0000 0.0000 0.0000 29.6019 0.0000 -0.0001
# 5 0.0001 -0.0001 0.0000 0.0000 29.6019 0.0000
# 6 0.0000 0.0000 0.0000 -0.0001 0.0000 23.3085
#
#
#
# Elastic Compliance Matrix: (Units=1/GPa)
#
#
# Indices 1 2 3 4 5 6 
#
# 1 0.014989 -0.006462 -0.004785 0.000000 0.000000 0.000000
# 2 -0.006462 0.014989 -0.004785 0.000000 0.000000 0.000000
# 3 -0.004785 -0.004785 0.013333 0.000000 0.000000 0.000000
# 4 0.000000 0.000000 0.000000 0.033782 0.000000 0.000000
# 5 0.000000 0.000000 0.000000 0.000000 0.033782 0.000000
# 6 0.000000 0.000000 0.000000 0.000000 0.000000 0.042903
#
#
# Mechanical properties :
#
#
# Convention : Reuss Voigt Hill
#
# Bulk Modulus (GPa) = 88.93629 88.93642 88.93636
# Shear Modulus (GPa) = 26.37248 26.68556 26.52902
#
# Velocity S-wave (km/s) = 4.02165 4.04545 4.03357
# Velocity P-wave (km/s) = 8.72397 8.73864 8.73131
#
# Compressibility (1/GPa) = 0.01124400
#
# Stress axis : x y z
#
# Youngs Moduli (GPa) = 66.71602 66.71602 75.00173
#
# Poissons Ratio (x) = 0.43115 0.35892
# Poissons Ratio (y) = 0.43115 0.35892
# Poissons Ratio (z) = 0.31927 0.31927
#
# Static dielectric constant tensor:
#      x y z
#    x 1.554890 0.000000 0.000000 
#    y 0.000000 1.554890 0.000000 
#    z 0.000000 0.000000 1.537280 
# 
# From -- ./inp_files/1685.got.cif
#   From: 2010.05.17/outbox.cif.g08.bks.cpg/sg154_1_cif.got.tgz:1685.got - 2010.05.20 10:41:43.
