data_PCOD9576911
_publ_section_title
;
Structure prediction by ZEFSAII (Michael W. Deem and Ramdas Pophale) SiO2 
 PCOD9576911
Probable space group: R 3 2
;
_chemical_formula_sum "Si O2"
_cell_formula_units_Z 126
_cell_length_a 24.551891
_cell_length_b 24.551891
_cell_length_c 12.602852
_cell_angle_alpha 90.000000
_cell_angle_beta 90.000000
_cell_angle_gamma 120.000000
_cell_volume 6579.143554
_symmetry_space_group_name_H-M "R 3 2"
_symmetry_group_IT_number 155
_symmetry_cell_setting 'hexagonal'
loop_
_space_group_symop_operation_xyz
x,y,z
-y,x-y,z
-x+y,-x,z
x-y,-y,-z
-x,-x+y,-z
y,x,-z
2/3+x,1/3+y,1/3+z
2/3-y,1/3+x-y,1/3+z
2/3-x+y,1/3-x,1/3+z
2/3+x-y,1/3-y,1/3-z
2/3-x,1/3-x+y,1/3-z
2/3+y,1/3+x,1/3-z
1/3+x,2/3+y,2/3+z
1/3-y,2/3+x-y,2/3+z
1/3-x+y,2/3-x,2/3+z
1/3+x-y,2/3-y,2/3-z
1/3-x,2/3-x+y,2/3-z
1/3+y,2/3+x,2/3-z
loop_
_atom_site_type_symbol
_atom_site_label
_atom_site_fract_x
_atom_site_fract_y
_atom_site_fract_z
Si Si1 0.416698 0.368366 0.085466
Si Si2 0.851029 0.670640 0.905778
Si Si3 0.831053 0.481557 0.956578
Si Si4 0.602389 0.852095 0.780891
Si Si5 0.457211 0.221160 0.040960
Si Si6 0.970527 0.141727 0.605816
Si Si7 0.691213 0.758591 0.451725
O O1 0.444382 0.435590 0.144617
O O2 0.402521 0.314402 0.174481
O O3 0.364734 0.364734 0.000000
O O4 0.467637 0.362639 0.013598
O O5 0.796190 0.681737 0.856908
O O6 0.899127 0.721273 0.991023
O O7 0.812406 0.603819 0.969209
O O8 0.831801 0.498468 0.833334
O O9 0.823723 0.414732 0.981408
O O10 0.773203 0.486382 0.001692
O O11 0.666667 0.863983 0.833334
O O12 0.553055 0.788316 0.838900
O O13 0.477438 0.169950 0.016806
O O14 0.935402 0.177547 0.562167
O O15 0.000000 0.130796 0.500000
O O16 0.707816 0.707816 0.500000
O O17 0.666667 0.739825 0.333334
#
# Coordination Sequence:
#
# PCOD9576911 Si02
#       7
#    18  18  18  18  18  18  18
#     4  11  22  33  56  87 120 162 198 245 297 373
#     4  11  19  39  61  83 117 162 203 246 306 362
#     4  11  20  33  53  81 113 149 195 235 303 360
#     4   9  22  36  55  82 118 161 201 249 295 365
#     4  10  20  37  54  80 117 155 192 245 307 350
#     4  11  19  35  56  78 112 157 189 247 301 359
#     4  11  22  39  59  87 116 153 202 253 308 370
#
# _framework density 19.151427999999999
#
# number of rings (size 3 to 8) (size 9 to 14) (size 15 to 20)
#    0.000    1.429    4.286    3.429    0.000    4.000 
#    3.429    0.714    0.000    0.000    0.000    0.000 
#    0.000    0.000    0.286    0.000    0.000    0.000 
#
# Total GULP energy -233855.136562 kJ/mol
# GULP energy per Si atom -5567.979442 kJ/mol
# Density = 1.910784 g / cm^3
# Si number density = 19.151428 Si / 1000 Ang^3
#
#
#
# Elastic Constant Matrix: (Units=GPa)
#
#
# Indices 1 2 3 4 5 6 
#
# 1 57.7883 27.6343 36.9512 4.6423 0.0004 0.0000
# 2 27.6343 57.7883 36.9513 -4.6423 -0.0005 0.0000
# 3 36.9512 36.9513 108.5647 0.0000 -0.0001 0.0000
# 4 4.6423 -4.6423 0.0000 22.4931 0.0000 -0.0005
# 5 0.0004 -0.0005 -0.0001 0.0000 22.4930 4.6423
# 6 0.0000 0.0000 0.0000 -0.0005 4.6423 15.0770
#
#
#
# Elastic Compliance Matrix: (Units=1/GPa)
#
#
# Indices 1 2 3 4 5 6 
#
# 1 0.026003 -0.009411 -0.005647 -0.007309 -0.000001 0.000000
# 2 -0.009411 0.026003 -0.005647 0.007309 0.000001 0.000000
# 3 -0.005647 -0.005647 0.013055 0.000000 0.000000 0.000000
# 4 -0.007309 0.007309 0.000000 0.047475 0.000000 0.000001
# 5 -0.000001 0.000001 0.000000 0.000000 0.047475 -0.014618
# 6 0.000000 0.000000 0.000000 0.000001 -0.014618 0.070827
#
#
# Mechanical properties :
#
#
# Convention : Reuss Voigt Hill
#
# Bulk Modulus (GPa) = 42.28246 47.46831 44.87538
# Shear Modulus (GPa) = 17.84867 20.18627 19.01747
#
# Velocity S-wave (km/s) = 3.05614 3.25011 3.15462
# Velocity P-wave (km/s) = 5.88041 6.23890 6.06231
#
# Compressibility (1/GPa) = 0.02365047
#
# Stress axis : x y z
#
# Youngs Moduli (GPa) = 38.45721 38.45719 76.59672
#
# Poissons Ratio (x) = 0.36191 0.43257
# Poissons Ratio (y) = 0.36191 0.43257
# Poissons Ratio (z) = 0.21718 0.21718
#
# Static dielectric constant tensor:
#      x y z
#    x 1.705110 0.000000 0.000000 
#    y 0.000000 1.705110 0.000000 
#    z 0.000000 0.000000 1.739650 
# 
# From -- ./inp_files/4245.got.cif
#   From: 2010.05.17/outbox.cif.g08.bks.cpg/sg155_3_cif.got.tgz:4245.got - 2010.05.20 10:44:35.
