data_PCOD9576962
_publ_section_title
;
Structure prediction by ZEFSAII (Michael W. Deem and Ramdas Pophale) SiO2 
 PCOD9576962
Probable space group: R 3 2
;
_chemical_formula_sum "Si O2"
_cell_formula_units_Z 81
_cell_length_a 21.582328
_cell_length_b 21.582328
_cell_length_c 10.471940
_cell_angle_alpha 90.000000
_cell_angle_beta 90.000000
_cell_angle_gamma 120.000000
_cell_volume 4224.296116
_symmetry_space_group_name_H-M "R 3 2"
_symmetry_group_IT_number 155
_symmetry_cell_setting 'hexagonal'
loop_
_space_group_symop_operation_xyz
x,y,z
-y,x-y,z
-x+y,-x,z
x-y,-y,-z
-x,-x+y,-z
y,x,-z
2/3+x,1/3+y,1/3+z
2/3-y,1/3+x-y,1/3+z
2/3-x+y,1/3-x,1/3+z
2/3+x-y,1/3-y,1/3-z
2/3-x,1/3-x+y,1/3-z
2/3+y,1/3+x,1/3-z
1/3+x,2/3+y,2/3+z
1/3-y,2/3+x-y,2/3+z
1/3-x+y,2/3-x,2/3+z
1/3+x-y,2/3-y,2/3-z
1/3-x,2/3-x+y,2/3-z
1/3+y,2/3+x,2/3-z
loop_
_atom_site_type_symbol
_atom_site_label
_atom_site_fract_x
_atom_site_fract_y
_atom_site_fract_z
Si Si1 0.480642 0.000000 0.000000
Si Si2 0.333334 0.746631 0.166667
Si Si3 0.669604 0.533862 0.685365
Si Si4 0.143391 0.251150 0.786202
Si Si5 0.310384 0.233370 0.450004
Si Si6 0.333334 0.464798 0.666667
O O1 0.405151 0.933367 0.957612
O O2 0.510579 0.971525 0.111659
O O3 0.266443 0.666667 0.166667
O O4 0.324749 0.788024 0.285910
O O5 0.666667 0.558001 0.833334
O O6 0.599306 0.502940 0.599257
O O7 0.186401 0.333334 0.833334
O O8 0.189609 0.255227 0.662666
O O9 0.145408 0.197603 0.892617
O O10 0.290427 0.290427 0.500000
O O11 0.392450 0.277955 0.406921
#
# Coordination Sequence:
#
# PCOD9576962 Si02
#       6
#     9   9  18  18  18   9
#     4  12  23  36  64  98 128 170 225 260 342 392
#     4   8  18  38  64  92 120 156 220 280 330 372
#     4  10  22  40  60  94 126 173 224 276 320 397
#     4  10  21  39  58  91 135 175 217 268 333 392
#     4  11  20  36  61  98 128 161 209 274 338 398
#     4  10  21  36  60  90 132 168 205 274 344 400
#
# _framework density 19.174793000000001
#
# number of rings (size 3 to 8) (size 9 to 14) (size 15 to 20)
#    0.889    0.889    2.222    4.000    0.000    6.222 
#    0.000    3.333    0.000    0.000    0.000    0.000 
#    0.000    0.000    0.000    0.000    0.000    0.000 
#
# Total GULP energy -150303.046614 kJ/mol
# GULP energy per Si atom -5566.779504 kJ/mol
# Density = 1.913115 g / cm^3
# Si number density = 19.174793 Si / 1000 Ang^3
#
#
#
# Elastic Constant Matrix: (Units=GPa)
#
#
# Indices 1 2 3 4 5 6 
#
# 1 62.4625 6.4726 20.6836 6.2143 0.0002 0.0000
# 2 6.4726 62.4625 20.6836 -6.2143 -0.0001 0.0000
# 3 20.6836 20.6836 83.1020 0.0000 0.0003 0.0001
# 4 6.2143 -6.2143 0.0000 11.7163 0.0000 -0.0001
# 5 0.0002 -0.0001 0.0003 0.0000 11.7165 6.2144
# 6 0.0000 0.0000 0.0001 -0.0001 6.2144 27.9949
#
#
#
# Elastic Compliance Matrix: (Units=1/GPa)
#
#
# Indices 1 2 3 4 5 6 
#
# 1 0.018649 -0.001595 -0.004245 -0.010737 0.000000 0.000000
# 2 -0.001595 0.018649 -0.004245 0.010737 0.000000 0.000000
# 3 -0.004245 -0.004245 0.014146 0.000000 0.000000 0.000000
# 4 -0.010737 0.010737 0.000000 0.096742 0.000000 0.000000
# 5 0.000000 0.000000 0.000000 0.000000 0.096740 -0.021475
# 6 0.000000 0.000000 0.000000 0.000000 -0.021475 0.040488
#
#
# Mechanical properties :
#
#
# Convention : Reuss Voigt Hill
#
# Bulk Modulus (GPa) = 31.97421 33.74517 32.85969
# Shear Modulus (GPa) = 15.82246 20.96468 18.39357
#
# Velocity S-wave (km/s) = 2.87569 3.31017 3.10055
# Velocity P-wave (km/s) = 5.26664 5.67860 5.47649
#
# Compressibility (1/GPa) = 0.03127521
#
# Stress axis : x y z
#
# Youngs Moduli (GPa) = 53.62311 53.62310 70.69000
#
# Poissons Ratio (x) = 0.08554 0.30004
# Poissons Ratio (y) = 0.08554 0.30005
# Poissons Ratio (z) = 0.22760 0.22760
#
# Static dielectric constant tensor:
#      x y z
#    x 1.674400 0.000000 0.000000 
#    y 0.000000 1.674400 0.000000 
#    z 0.000000 0.000000 1.756810 
# 
# From -- ./inp_files/3853.got.cif
#   From: 2010.05.17/outbox.cif.g08.bks.cpg/sg155_2_cif.got.tgz:3853.got - 2010.05.20 10:44:35.
