data_PCOD9576293
_publ_section_title
;
Structure prediction by ZEFSAII (Michael W. Deem and Ramdas Pophale) SiO2 
 PCOD9576293
Probable space group: P 32 1 2
;
_chemical_formula_sum "Si O2"
_cell_formula_units_Z 33
_cell_length_a 10.802035
_cell_length_b 10.802035
_cell_length_c 16.415273
_cell_angle_alpha 90.000000
_cell_angle_beta 90.000000
_cell_angle_gamma 120.000000
_cell_volume 1658.784245
_symmetry_space_group_name_H-M "P 32 1 2"
_symmetry_group_IT_number 153
_symmetry_cell_setting 'hexagonal'
loop_
_space_group_symop_operation_xyz
x,y,z
-y,x-y,2/3+z
-x+y,-x,1/3+z
-y,-x,1/3-z
-x+y,y,2/3-z
x,x-y,-z
loop_
_atom_site_type_symbol
_atom_site_label
_atom_site_fract_x
_atom_site_fract_y
_atom_site_fract_z
Si Si1 0.351104 0.648897 0.166667
Si Si2 0.925346 0.756260 0.554818
Si Si3 0.736894 0.950124 0.319771
Si Si4 0.925829 0.074172 0.166667
Si Si5 0.407279 0.592722 0.666667
Si Si6 0.352687 0.456246 0.281765
Si Si7 0.355270 0.055853 0.951689
O O1 0.345158 0.728121 0.247629
O O2 0.305346 0.487548 0.193341
O O3 0.797419 0.767123 0.595023
O O4 0.902978 0.663662 0.473855
O O5 0.982067 0.687533 0.621076
O O6 0.047489 0.917221 0.536893
O O7 0.572995 0.904532 0.315916
O O8 0.745989 0.804994 0.315395
O O9 0.821855 0.048324 0.242494
O O10 0.239078 0.478156 0.333334
O O11 0.525357 0.554037 0.293323
O O12 0.410057 0.205029 0.000000
#
# Coordination Sequence:
#
# PCOD9576293 Si02
#       7
#     3   6   6   3   3   6   6
#     4  12  20  43  64  99 130 174 226 296 352 425
#     4  11  22  39  66  92 130 174 224 282 351 417
#     4  11  22  42  61  98 130 176 230 292 346 426
#     4  10  20  39  64  93 128 170 226 286 346 429
#     4  12  26  40  70 100 144 174 244 304 368 422
#     4  12  22  41  68  98 131 179 232 288 354 433
#     4  11  23  41  64  96 133 171 229 284 345 431
#
# _framework density 19.894089999999998
#
# number of rings (size 3 to 8) (size 9 to 14) (size 15 to 20)
#    0.000    0.727    4.545    4.909    0.000    3.636 
#    1.636    0.000    0.000    0.000    0.000    0.000 
#    0.000    0.000    0.000    0.000    0.000    0.000 
#
# Total GULP energy -183740.939192 kJ/mol
# GULP energy per Si atom -5567.907248 kJ/mol
# Density = 1.984881 g / cm^3
# Si number density = 19.894090 Si / 1000 Ang^3
#
#
#
# Elastic Constant Matrix: (Units=GPa)
#
#
# Indices 1 2 3 4 5 6 
#
# 1 98.1315 47.1338 48.6293 0.0001 1.0137 0.0000
# 2 47.1338 98.1315 48.6293 -0.0001 -1.0137 0.0000
# 3 48.6293 48.6293 99.5100 0.0000 0.0000 0.0000
# 4 0.0001 -0.0001 0.0000 27.0189 0.0000 -1.0137
# 5 1.0137 -1.0137 0.0000 0.0000 27.0189 0.0001
# 6 0.0000 0.0000 0.0000 -1.0137 0.0001 25.4988
#
#
#
# Elastic Compliance Matrix: (Units=1/GPa)
#
#
# Indices 1 2 3 4 5 6 
#
# 1 0.014935 -0.004703 -0.005000 0.000000 -0.000737 0.000000
# 2 -0.004703 0.014935 -0.005000 0.000000 0.000737 0.000000
# 3 -0.005000 -0.005000 0.014936 0.000000 0.000000 0.000000
# 4 0.000000 0.000000 0.000000 0.037066 0.000000 0.001474
# 5 -0.000737 0.000737 0.000000 0.000000 0.037066 0.000000
# 6 0.000000 0.000000 0.000000 0.001474 0.000000 0.039276
#
#
# Mechanical properties :
#
#
# Convention : Reuss Voigt Hill
#
# Bulk Modulus (GPa) = 64.93863 64.95088 64.94475
# Shear Modulus (GPa) = 25.93973 25.99936 25.96954
#
# Velocity S-wave (km/s) = 3.61486 3.61901 3.61694
# Velocity P-wave (km/s) = 7.08068 7.08394 7.08231
#
# Compressibility (1/GPa) = 0.01539916
#
# Stress axis : x y z
#
# Youngs Moduli (GPa) = 66.95760 66.95760 66.95145
#
# Poissons Ratio (x) = 0.31492 0.33476
# Poissons Ratio (y) = 0.31492 0.33476
# Poissons Ratio (z) = 0.33479 0.33479
#
# Static dielectric constant tensor:
#      x y z
#    x 1.714200 0.000000 0.000000 
#    y 0.000000 1.714200 0.000000 
#    z 0.000000 0.000000 1.811730 
# 
# From -- ./inp_files/2959.got.cif
#   From: 2010.05.17/outbox.cif.g08.bks.cpg/sg153_2_cif.got.tgz:2959.got - 2010.05.20 10:38:56.
