data_PCOD9576424
_publ_section_title
;
Structure prediction by ZEFSAII (Michael W. Deem and Ramdas Pophale) SiO2 
 PCOD9576424
Probable space group: P 32 2 1
;
_chemical_formula_sum "Si O2"
_cell_formula_units_Z 45
_cell_length_a 15.106924
_cell_length_b 15.106924
_cell_length_c 12.478697
_cell_angle_alpha 90.000000
_cell_angle_beta 90.000000
_cell_angle_gamma 120.000000
_cell_volume 2466.334398
_symmetry_space_group_name_H-M "P 32 2 1"
_symmetry_group_IT_number 154
_symmetry_cell_setting 'hexagonal'
loop_
_space_group_symop_operation_xyz
x,y,z
-y,x-y,2/3+z
-x+y,-x,1/3+z
x-y,-y,1/3-z
-x,-x+y,2/3-z
y,x,-z
loop_
_atom_site_type_symbol
_atom_site_label
_atom_site_fract_x
_atom_site_fract_y
_atom_site_fract_z
Si Si1 0.624743 0.722112 0.818330
Si Si2 0.000000 0.647780 0.833334
Si Si3 0.833719 0.494211 0.693921
Si Si4 0.876935 0.279445 0.103875
Si Si5 0.840967 0.625388 0.988793
Si Si6 0.540881 0.279085 0.988836
Si Si7 0.861257 0.469719 0.138469
Si Si8 0.509034 0.431840 0.134806
O O1 0.705117 0.694753 0.765726
O O2 0.560844 0.742876 0.727625
O O3 0.536349 0.618238 0.876906
O O4 0.670942 0.808044 0.911168
O O5 0.909807 0.539795 0.793222
O O6 0.951195 0.682204 0.929027
O O7 0.787738 0.570520 0.691801
O O8 0.753961 0.373607 0.700301
O O9 0.899336 0.503556 0.590708
O O10 0.837168 0.237724 0.224301
O O11 0.889554 0.390285 0.090463
O O12 0.837937 0.528979 0.047716
O O13 0.514156 0.342889 0.071211
O O14 0.585581 0.350770 0.884151
O O15 0.960678 0.542859 0.212044
#
# Coordination Sequence:
#
# PCOD9576424 Si02
#       8
#     6   3   6   6   6   6   6   6
#     4   9  20  36  50  77 107 137 186 231 267 315
#     4  10  20  38  50  76 106 148 178 226 278 318
#     4  10  22  33  52  76 110 145 191 218 267 334
#     4  10  21  32  52  75 106 143 177 234 268 312
#     4  10  19  33  55  72 102 140 182 221 275 323
#     4  10  21  32  50  77 102 147 185 220 258 325
#     4  10  20  33  53  73 108 142 188 229 263 307
#     4  10  19  37  49  72 110 146 191 223 264 310
#
# _framework density 18.245699999999999
#
# number of rings (size 3 to 8) (size 9 to 14) (size 15 to 20)
#    0.000    2.133    1.333    1.600    7.467    3.200 
#    0.000    0.000    0.000    0.000    0.000    0.000 
#    0.000   85.333    0.000    0.000    0.000    0.000 
#
# Total GULP energy -250520.129253 kJ/mol
# GULP energy per Si atom -5567.113983 kJ/mol
# Density = 1.820417 g / cm^3
# Si number density = 18.245700 Si / 1000 Ang^3
#
#
#
# Elastic Constant Matrix: (Units=GPa)
#
#
# Indices 1 2 3 4 5 6 
#
# 1 60.2618 18.9609 14.7002 -2.6868 0.0000 0.0000
# 2 18.9609 60.2618 14.7002 2.6868 0.0000 0.0000
# 3 14.7002 14.7002 30.7572 0.0000 0.0000 0.0000
# 4 -2.6868 2.6868 0.0000 24.8792 0.0000 0.0000
# 5 0.0000 0.0000 0.0000 0.0000 24.8792 -2.6868
# 6 0.0000 0.0000 0.0000 0.0000 -2.6868 20.6505
#
#
#
# Elastic Compliance Matrix: (Units=1/GPa)
#
#
# Indices 1 2 3 4 5 6 
#
# 1 0.019951 -0.004607 -0.007334 0.002652 0.000000 0.000000
# 2 -0.004607 0.019951 -0.007334 -0.002652 0.000000 0.000000
# 3 -0.007334 -0.007334 0.039523 0.000000 0.000000 0.000000
# 4 0.002652 -0.002652 0.000000 0.040767 0.000000 0.000000
# 5 0.000000 0.000000 0.000000 0.000000 0.040767 0.005304
# 6 0.000000 0.000000 0.000000 0.000000 0.005304 0.049115
#
#
# Mechanical properties :
#
#
# Convention : Reuss Voigt Hill
#
# Bulk Modulus (GPa) = 24.46382 27.55592 26.00987
# Shear Modulus (GPa) = 19.06595 20.94307 20.00451
#
# Velocity S-wave (km/s) = 3.23608 3.39165 3.31478
# Velocity P-wave (km/s) = 5.23451 5.52025 5.37928
#
# Compressibility (1/GPa) = 0.04087669
#
# Stress axis : x y z
#
# Youngs Moduli (GPa) = 50.12304 50.12304 25.30179
#
# Poissons Ratio (x) = 0.23090 0.18556
# Poissons Ratio (y) = 0.23090 0.18556
# Poissons Ratio (z) = 0.36759 0.36759
#
# Static dielectric constant tensor:
#      x y z
#    x 1.679990 0.000000 0.000000 
#    y 0.000000 1.679990 0.000000 
#    z 0.000000 0.000000 1.668890 
# 
# From -- ./inp_files/1807.got.cif
#   From: 2010.05.17/outbox.cif.g08.bks.cpg/sg154_1_cif.got.tgz:1807.got - 2010.05.20 10:41:43.
