data_PCOD9576993
_publ_section_title
;
Structure prediction by ZEFSAII (Michael W. Deem and Ramdas Pophale) SiO2 
 PCOD9576993
Probable space group: R 3 2
;
_chemical_formula_sum "Si O2"
_cell_formula_units_Z 81
_cell_length_a 19.085143
_cell_length_b 19.085143
_cell_length_c 13.601967
_cell_angle_alpha 90.000000
_cell_angle_beta 90.000000
_cell_angle_gamma 120.000000
_cell_volume 4290.650947
_symmetry_space_group_name_H-M "R 3 2"
_symmetry_group_IT_number 155
_symmetry_cell_setting 'hexagonal'
loop_
_space_group_symop_operation_xyz
x,y,z
-y,x-y,z
-x+y,-x,z
x-y,-y,-z
-x,-x+y,-z
y,x,-z
2/3+x,1/3+y,1/3+z
2/3-y,1/3+x-y,1/3+z
2/3-x+y,1/3-x,1/3+z
2/3+x-y,1/3-y,1/3-z
2/3-x,1/3-x+y,1/3-z
2/3+y,1/3+x,1/3-z
1/3+x,2/3+y,2/3+z
1/3-y,2/3+x-y,2/3+z
1/3-x+y,2/3-x,2/3+z
1/3+x-y,2/3-y,2/3-z
1/3-x,2/3-x+y,2/3-z
1/3+y,2/3+x,2/3-z
loop_
_atom_site_type_symbol
_atom_site_label
_atom_site_fract_x
_atom_site_fract_y
_atom_site_fract_z
Si Si1 0.491796 0.592697 0.596428
Si Si2 0.000000 0.769933 0.000000
Si Si3 0.201048 0.281005 0.559542
Si Si4 0.722529 0.783649 0.426942
Si Si5 0.741415 0.575747 0.037014
O O1 0.510809 0.666667 0.666667
O O2 0.402572 0.516873 0.614545
O O3 0.497906 0.615386 0.481909
O O4 0.555551 0.562523 0.625033
O O5 0.947829 0.696946 0.923941
O O6 0.226087 0.226087 0.500000
O O7 0.137528 0.291118 0.490296
O O8 0.151594 0.239761 0.659366
O O9 0.712511 0.712511 0.500000
O O10 0.666667 0.756354 0.333334
O O11 0.807359 0.805510 0.373882
#
# Coordination Sequence:
#
# PCOD9576993 Si02
#       5
#    18   9  18  18  18
#     4  10  21  39  62  88 128 164 203 268 316 383
#     4  10  24  38  58  94 124 164 214 252 326 384
#     4  10  23  39  61  90 127 165 205 264 311 393
#     4  10  22  36  59  94 122 154 203 253 313 371
#     4   9  21  37  61  93 121 159 209 261 323 370
#
# _framework density 18.878254999999999
#
# number of rings (size 3 to 8) (size 9 to 14) (size 15 to 20)
#    0.000    2.222    0.000    0.667   20.222    0.000 
#    0.667    0.000    0.000   12.000    0.000    0.000 
#    0.000    0.000    0.000    0.000    0.000    0.000 
#
# Total GULP energy -150382.129709 kJ/mol
# GULP energy per Si atom -5569.708508 kJ/mol
# Density = 1.883529 g / cm^3
# Si number density = 18.878255 Si / 1000 Ang^3
#
#
#
# Elastic Constant Matrix: (Units=GPa)
#
#
# Indices 1 2 3 4 5 6 
#
# 1 77.1586 46.6070 46.6503 7.5843 0.0004 0.0000
# 2 46.6070 77.1586 46.6503 -7.5843 -0.0004 0.0000
# 3 46.6503 46.6503 145.8997 0.0000 0.0000 0.0000
# 4 7.5843 -7.5843 0.0000 35.5730 0.0000 -0.0004
# 5 0.0004 -0.0004 0.0000 0.0000 35.5730 7.5843
# 6 0.0000 0.0000 0.0000 -0.0004 7.5843 15.2758
#
#
#
# Elastic Compliance Matrix: (Units=1/GPa)
#
#
# Indices 1 2 3 4 5 6 
#
# 1 0.023626 -0.012980 -0.003404 -0.007805 0.000000 0.000000
# 2 -0.012980 0.023626 -0.003404 0.007805 0.000000 0.000000
# 3 -0.003404 -0.003404 0.009031 0.000000 0.000000 0.000000
# 4 -0.007805 0.007805 0.000000 0.031439 0.000000 0.000001
# 5 0.000000 0.000000 0.000000 0.000000 0.031439 -0.015609
# 6 0.000000 0.000000 0.000000 0.000001 -0.015609 0.073213
#
#
# Mechanical properties :
#
#
# Convention : Reuss Voigt Hill
#
# Bulk Modulus (GPa) = 59.85603 64.44802 62.15202
# Shear Modulus (GPa) = 21.05092 27.97163 24.51128
#
# Velocity S-wave (km/s) = 3.34292 3.85344 3.60722
# Velocity P-wave (km/s) = 6.83193 7.34926 7.09531
#
# Compressibility (1/GPa) = 0.01670675
#
# Stress axis : x y z
#
# Youngs Moduli (GPa) = 42.32605 42.32605 110.73238
#
# Poissons Ratio (x) = 0.54940 0.37692
# Poissons Ratio (y) = 0.54940 0.37692
# Poissons Ratio (z) = 0.14407 0.14407
#
# Static dielectric constant tensor:
#      x y z
#    x 1.671660 0.000000 0.000000 
#    y 0.000000 1.671660 0.000000 
#    z 0.000000 0.000000 1.693660 
# 
# From -- ./inp_files/4981.got.cif
#   From: 2010.05.17/outbox.cif.g08.bks.cpg/sg155_3_cif.got.tgz:4981.got - 2010.05.20 10:44:35.
