data_PCOD9576645
_publ_section_title
;
Structure prediction by ZEFSAII (Michael W. Deem and Ramdas Pophale) SiO2 
 PCOD9576645
Probable space group: P 32 2 1
;
_chemical_formula_sum "Si O2"
_cell_formula_units_Z 33
_cell_length_a 13.466865
_cell_length_b 13.466865
_cell_length_c 10.834043
_cell_angle_alpha 90.000000
_cell_angle_beta 90.000000
_cell_angle_gamma 120.000000
_cell_volume 1701.587160
_symmetry_space_group_name_H-M "P 32 2 1"
_symmetry_group_IT_number 154
_symmetry_cell_setting 'hexagonal'
loop_
_space_group_symop_operation_xyz
x,y,z
-y,x-y,2/3+z
-x+y,-x,1/3+z
x-y,-y,1/3-z
-x,-x+y,2/3-z
y,x,-z
loop_
_atom_site_type_symbol
_atom_site_label
_atom_site_fract_x
_atom_site_fract_y
_atom_site_fract_z
Si Si1 0.101663 0.672681 0.434513
Si Si2 0.313136 0.059462 0.916857
Si Si3 0.896213 0.342498 0.236461
Si Si4 0.947855 0.845852 0.070755
Si Si5 0.366827 0.287970 0.613391
Si Si6 0.180375 0.000000 0.166667
O O1 0.204497 0.803536 0.416096
O O2 0.139445 0.577951 0.416527
O O3 0.064279 0.661887 0.579825
O O4 0.000000 0.641221 0.333334
O O5 0.221297 0.051918 0.814239
O O6 0.355233 0.970178 0.884889
O O7 0.250923 0.016457 0.045410
O O8 0.787337 0.215298 0.250210
O O9 0.000000 0.375770 0.333334
O O10 0.950959 0.950959 0.000000
O O11 0.955248 0.764257 0.969874
O O12 0.055132 0.889461 0.158159
O O13 0.366601 0.366601 0.500000
#
# Coordination Sequence:
#
# PCOD9576645 Si02
#       6
#     6   6   6   6   6   3
#     4  10  23  40  66  89 122 168 214 262 303 368
#     4  11  20  40  56  92 127 169 205 258 309 373
#     4  11  20  42  69  83 120 173 213 243 314 391
#     4  11  19  32  54  89 127 170 198 227 298 400
#     4  11  21  39  66  94 123 158 207 261 313 374
#     4  12  24  28  56  96 144 156 190 256 326 374
#
# _framework density 19.393657999999999
#
# number of rings (size 3 to 8) (size 9 to 14) (size 15 to 20)
#    0.000    1.091    5.455    4.909    1.273    0.000 
#    1.636    1.818    0.000    0.000    0.000    0.000 
#    0.000    0.000    0.000    0.000    0.000    0.000 
#
# Total GULP energy -183864.240114 kJ/mol
# GULP energy per Si atom -5571.643640 kJ/mol
# Density = 1.934952 g / cm^3
# Si number density = 19.393658 Si / 1000 Ang^3
#
#
#
# Elastic Constant Matrix: (Units=GPa)
#
#
# Indices 1 2 3 4 5 6 
#
# 1 72.4787 28.7426 22.1600 -0.2996 0.0001 0.0000
# 2 28.7426 72.4787 22.1600 0.2996 -0.0001 0.0000
# 3 22.1600 22.1600 89.1013 0.0000 0.0000 0.0000
# 4 -0.2996 0.2996 0.0000 21.5373 0.0000 -0.0001
# 5 0.0001 -0.0001 0.0000 0.0000 21.5373 -0.2996
# 6 0.0000 0.0000 0.0000 -0.0001 -0.2996 21.8681
#
#
#
# Elastic Compliance Matrix: (Units=1/GPa)
#
#
# Indices 1 2 3 4 5 6 
#
# 1 0.016978 -0.005891 -0.002757 0.000318 0.000000 0.000000
# 2 -0.005891 0.016978 -0.002757 -0.000318 0.000000 0.000000
# 3 -0.002757 -0.002757 0.012595 0.000000 0.000000 0.000000
# 4 0.000318 -0.000318 0.000000 0.046440 0.000000 0.000000
# 5 0.000000 0.000000 0.000000 0.000000 0.046440 0.000636
# 6 0.000000 0.000000 0.000000 0.000000 0.000636 0.045738
#
#
# Mechanical properties :
#
#
# Convention : Reuss Voigt Hill
#
# Bulk Modulus (GPa) = 42.12524 42.24265 42.18395
# Shear Modulus (GPa) = 23.15973 23.72159 23.44066
#
# Velocity S-wave (km/s) = 3.45946 3.50117 3.48037
# Velocity P-wave (km/s) = 6.14210 6.17845 6.16030
#
# Compressibility (1/GPa) = 0.02373874
#
# Stress axis : x y z
#
# Youngs Moduli (GPa) = 58.90078 58.90078 79.39849
#
# Poissons Ratio (x) = 0.34699 0.21893
# Poissons Ratio (y) = 0.34699 0.21893
# Poissons Ratio (z) = 0.16241 0.16241
#
# Static dielectric constant tensor:
#      x y z
#    x 1.678890 0.000000 0.000000 
#    y 0.000000 1.678890 0.000000 
#    z 0.000000 0.000000 -1.676130 
# 
# From -- ./inp_files/1656.got.cif
#   From: 2010.05.17/outbox.cif.g08.bks.cpg/sg154_1_cif.got.tgz:1656.got - 2010.05.20 10:41:43.
