data_PCOD9576025
_publ_section_title
;
Structure prediction by ZEFSAII (Michael W. Deem and Ramdas Pophale) SiO2 
 PCOD9576025
Probable space group: P 31 2 1
;
_chemical_formula_sum "Si O2"
_cell_formula_units_Z 39
_cell_length_a 8.345418
_cell_length_b 8.345418
_cell_length_c 30.925777
_cell_angle_alpha 90.000000
_cell_angle_beta 90.000000
_cell_angle_gamma 120.000000
_cell_volume 1865.294631
_symmetry_space_group_name_H-M "P 31 2 1"
_symmetry_group_IT_number 152
_symmetry_cell_setting 'hexagonal'
loop_
_space_group_symop_operation_xyz
x,y,z
-y,x-y,1/3+z
-x+y,-x,2/3+z
x-y,-y,2/3-z
-x,-x+y,1/3-z
y,x,-z
loop_
_atom_site_type_symbol
_atom_site_label
_atom_site_fract_x
_atom_site_fract_y
_atom_site_fract_z
Si Si1 0.062121 0.805093 0.874659
Si Si2 0.460133 0.353507 0.042305
Si Si3 0.319144 0.175821 0.357124
Si Si4 0.000000 0.862735 0.166667
Si Si5 0.263935 0.417441 0.425779
Si Si6 0.815480 0.613095 0.554367
Si Si7 0.472989 0.485556 0.283183
O O1 0.134954 0.763490 0.829867
O O2 0.912924 0.864234 0.860344
O O3 0.012642 0.645501 0.908750
O O4 0.223073 0.993647 0.895353
O O5 0.646051 0.549705 0.038549
O O6 0.343300 0.353041 0.083675
O O7 0.531062 0.205633 0.042230
O O8 0.339645 0.339645 0.000000
O O9 0.300620 0.273707 0.399523
O O10 0.410022 0.343212 0.322726
O O11 0.146655 0.000000 0.333334
O O12 0.130086 0.817514 0.137321
O O13 0.429552 0.624773 0.434185
O O14 0.122806 0.439543 0.395579
#
# Coordination Sequence:
#
# PCOD9576025 Si02
#       7
#     6   6   6   3   6   6   6
#     4  10  23  43  64  91 127 166 213 263 317 381
#     4  11  24  43  65  91 127 169 214 265 321 381
#     4  11  24  42  62  91 128 168 213 263 315 381
#     4  10  22  42  62  92 130 168 212 264 316 378
#     4  12  24  39  64  95 127 166 211 262 323 380
#     4  10  22  43  65  92 127 167 213 265 320 381
#     4  12  24  40  65  95 125 168 213 263 323 378
#
# _framework density 20.908225999999999
#
# number of rings (size 3 to 8) (size 9 to 14) (size 15 to 20)
#    0.000    1.231    0.000    8.308    0.000    5.538 
#    0.000    0.000    0.000    0.000    0.000    0.000 
#    0.000    0.000    0.000    0.000    0.000    0.000 
#
# Total GULP energy -217815.419747 kJ/mol
# GULP energy per Si atom -5585.010763 kJ/mol
# Density = 2.086064 g / cm^3
# Si number density = 20.908226 Si / 1000 Ang^3
#
#
#
# Elastic Constant Matrix: (Units=GPa)
#
#
# Indices 1 2 3 4 5 6 
#
# 1 39.1313 -0.1932 18.3524 15.7082 0.0009 0.0000
# 2 -0.1932 39.1313 18.3524 -15.7082 -0.0009 0.0000
# 3 18.3524 18.3524 47.6636 0.0000 0.0000 0.0000
# 4 15.7082 -15.7082 0.0000 34.6415 0.0000 -0.0009
# 5 0.0009 -0.0009 0.0000 0.0000 34.6415 15.7082
# 6 0.0000 0.0000 0.0000 -0.0009 15.7082 19.6623
#
#
#
# Elastic Compliance Matrix: (Units=1/GPa)
#
#
# Indices 1 2 3 4 5 6 
#
# 1 0.040094 0.000220 -0.015523 -0.018081 -0.000001 0.000000
# 2 0.000220 0.040094 -0.015523 0.018081 0.000001 0.000000
# 3 -0.015523 -0.015523 0.032934 0.000000 0.000000 0.000000
# 4 -0.018081 0.018081 0.000000 0.045265 0.000000 0.000002
# 5 -0.000001 0.000001 0.000000 0.000000 0.045265 -0.036162
# 6 0.000000 0.000000 0.000000 0.000002 -0.036162 0.079749
#
#
# Mechanical properties :
#
#
# Convention : Reuss Voigt Hill
#
# Bulk Modulus (GPa) = 19.42808 22.10552 20.76680
# Shear Modulus (GPa) = 13.80418 23.75001 18.77710
#
# Velocity S-wave (km/s) = 2.57228 3.37399 3.00004
# Velocity P-wave (km/s) = 4.25845 5.07681 4.68553
#
# Compressibility (1/GPa) = 0.05147188
#
# Stress axis : x y z
#
# Youngs Moduli (GPa) = 24.94123 24.94123 30.36376
#
# Poissons Ratio (x) = -0.00548 0.47132
# Poissons Ratio (y) = -0.00548 0.47132
# Poissons Ratio (z) = 0.38715 0.38715
#
# Static dielectric constant tensor:
#      x y z
#    x 1.772000 0.000000 0.000000 
#    y 0.000000 1.772000 0.000000 
#    z 0.000000 0.000000 1.791220 
# 
# From -- ./inp_files/3634.got.cif
#   From: 2010.05.17/outbox.cif.g08.bks.cpg/sg152_2_cif.got.tgz:3634.got - 2010.05.20 10:36:06.
