data_PCOD9576833
_publ_section_title
;
Structure prediction by ZEFSAII (Michael W. Deem and Ramdas Pophale) SiO2 
 PCOD9576833
Probable space group: R 3 2
;
_chemical_formula_sum "Si O2"
_cell_formula_units_Z 84
_cell_length_a 15.014688
_cell_length_b 15.014688
_cell_length_c 24.410028
_cell_angle_alpha 90.000000
_cell_angle_beta 90.000000
_cell_angle_gamma 120.000000
_cell_volume 4765.753040
_symmetry_space_group_name_H-M "R 3 2"
_symmetry_group_IT_number 155
_symmetry_cell_setting 'hexagonal'
loop_
_space_group_symop_operation_xyz
x,y,z
-y,x-y,z
-x+y,-x,z
x-y,-y,-z
-x,-x+y,-z
y,x,-z
2/3+x,1/3+y,1/3+z
2/3-y,1/3+x-y,1/3+z
2/3-x+y,1/3-x,1/3+z
2/3+x-y,1/3-y,1/3-z
2/3-x,1/3-x+y,1/3-z
2/3+y,1/3+x,1/3-z
1/3+x,2/3+y,2/3+z
1/3-y,2/3+x-y,2/3+z
1/3-x+y,2/3-x,2/3+z
1/3+x-y,2/3-y,2/3-z
1/3-x,2/3-x+y,2/3-z
1/3+y,2/3+x,2/3-z
loop_
_atom_site_type_symbol
_atom_site_label
_atom_site_fract_x
_atom_site_fract_y
_atom_site_fract_z
Si Si1 0.000000 0.000000 0.177984
Si Si2 0.666667 0.333334 0.022527
Si Si3 0.359412 0.383934 0.409834
Si Si4 0.639183 0.130637 0.692557
Si Si5 0.222761 0.780198 0.140289
Si Si6 0.501367 0.888276 0.818623
O O1 0.064190 0.115409 0.155457
O O2 0.000000 0.000000 0.244642
O O3 0.777134 0.421979 0.999266
O O4 0.407212 0.461784 0.359374
O O5 0.250400 0.287378 0.388670
O O6 0.336573 0.436856 0.460417
O O7 0.426375 0.335938 0.433483
O O8 0.566073 0.125224 0.741745
O O9 0.153204 0.666667 0.166667
O O10 0.333334 0.829310 0.166667
O O11 0.165970 0.844197 0.152117
#
# Coordination Sequence:
#
# PCOD9576833 Si02
#       6
#     6   6  18  18  18  18
#     4  12  24  39  63  83 122 159 210 264 295 359
#     4  12  21  30  52 100 121 148 201 240 313 371
#     4   9  18  37  60  76 114 161 198 243 303 354
#     4  10  19  32  57  86 121 158 190 244 300 368
#     4  11  20  36  59  91 127 164 193 241 310 380
#     4  10  20  40  57  84 114 160 206 248 306 354
#
# _framework density 17.625755999999999
#
# number of rings (size 3 to 8) (size 9 to 14) (size 15 to 20)
#    0.000    1.714    6.429    1.500    0.000    0.000 
#    3.857    0.000    0.000   25.714    0.000    0.000 
#    0.000    0.000    0.000    0.000    0.000    0.000 
#
# Total GULP energy -155893.252469 kJ/mol
# GULP energy per Si atom -5567.616160 kJ/mol
# Density = 1.758564 g / cm^3
# Si number density = 17.625756 Si / 1000 Ang^3
#
#
#
# Elastic Constant Matrix: (Units=GPa)
#
#
# Indices 1 2 3 4 5 6 
#
# 1 74.2143 37.0062 24.0557 9.9610 0.0001 0.0000
# 2 37.0062 74.2139 24.0555 -9.9611 -0.0001 0.0000
# 3 24.0557 24.0555 112.9116 -0.0001 0.0000 0.0000
# 4 9.9610 -9.9611 -0.0001 29.2328 0.0000 -0.0001
# 5 0.0001 -0.0001 0.0000 0.0000 29.2328 9.9611
# 6 0.0000 0.0000 0.0000 -0.0001 9.9611 18.6040
#
#
#
# Elastic Compliance Matrix: (Units=1/GPa)
#
#
# Indices 1 2 3 4 5 6 
#
# 1 0.021389 -0.011485 -0.002110 -0.011202 0.000000 0.000000
# 2 -0.011485 0.021389 -0.002110 0.011202 0.000000 0.000000
# 3 -0.002110 -0.002110 0.009756 0.000000 0.000000 0.000000
# 4 -0.011202 0.011202 0.000000 0.041842 0.000000 0.000000
# 5 0.000000 0.000000 0.000000 0.000000 0.041842 -0.022403
# 6 0.000000 0.000000 0.000000 0.000000 -0.022403 0.065747
#
#
# Mechanical properties :
#
#
# Convention : Reuss Voigt Hill
#
# Bulk Modulus (GPa) = 47.34103 47.95274 47.64688
# Shear Modulus (GPa) = 20.79732 27.16207 23.97969
#
# Velocity S-wave (km/s) = 3.43875 3.92987 3.69249
# Velocity P-wave (km/s) = 6.53330 6.91787 6.72833
#
# Compressibility (1/GPa) = 0.02112333
#
# Stress axis : x y z
#
# Youngs Moduli (GPa) = 46.75355 46.75330 102.50574
#
# Poissons Ratio (x) = 0.53696 0.21629
# Poissons Ratio (y) = 0.53696 0.21628
# Poissons Ratio (z) = 0.09865 0.09865
#
# Static dielectric constant tensor:
#      x y z
#    x 1.597060 0.000000 0.000000 
#    y 0.000000 1.597060 0.000000 
#    z 0.000000 0.000000 1.641120 
# 
# From -- ./inp_files/7391.got.cif
#   From: 2010.05.17/outbox.cif.g08.bks.cpg/sg155_4_cif.got.tgz:7391.got - 2010.05.20 10:44:35.
