data_PCOD9576794
_publ_section_title
;
Structure prediction by ZEFSAII (Michael W. Deem and Ramdas Pophale) SiO2 
 PCOD9576794
Probable space group: R 3 2
;
_chemical_formula_sum "Si O2"
_cell_formula_units_Z 108
_cell_length_a 14.125271
_cell_length_b 14.125271
_cell_length_c 29.665559
_cell_angle_alpha 90.000000
_cell_angle_beta 90.000000
_cell_angle_gamma 120.000000
_cell_volume 5125.978089
_symmetry_space_group_name_H-M "R 3 2"
_symmetry_group_IT_number 155
_symmetry_cell_setting 'hexagonal'
loop_
_space_group_symop_operation_xyz
x,y,z
-y,x-y,z
-x+y,-x,z
x-y,-y,-z
-x,-x+y,-z
y,x,-z
2/3+x,1/3+y,1/3+z
2/3-y,1/3+x-y,1/3+z
2/3-x+y,1/3-x,1/3+z
2/3+x-y,1/3-y,1/3-z
2/3-x,1/3-x+y,1/3-z
2/3+y,1/3+x,1/3-z
1/3+x,2/3+y,2/3+z
1/3-y,2/3+x-y,2/3+z
1/3-x+y,2/3-x,2/3+z
1/3+x-y,2/3-y,2/3-z
1/3-x,2/3-x+y,2/3-z
1/3+y,2/3+x,2/3-z
loop_
_atom_site_type_symbol
_atom_site_label
_atom_site_fract_x
_atom_site_fract_y
_atom_site_fract_z
Si Si1 0.776876 0.594854 0.453003
Si Si2 0.065603 0.565859 0.132657
Si Si3 0.328625 0.889566 0.061255
Si Si4 0.135619 0.481113 0.374266
Si Si5 0.823725 0.000502 0.240636
Si Si6 0.247328 0.455467 0.813605
O O1 0.798315 0.658845 0.500621
O O2 0.806493 0.685972 0.415457
O O3 0.851743 0.539283 0.452044
O O4 0.651674 0.499085 0.454513
O O5 0.133196 0.666667 0.166667
O O6 0.130188 0.532225 0.097749
O O7 0.971741 0.575680 0.105195
O O8 0.391003 0.020630 0.052875
O O9 0.319332 0.837656 0.012612
O O10 0.093997 0.556912 0.396654
O O11 0.249597 0.510986 0.397683
O O12 0.888165 0.033991 0.193385
O O13 0.181401 0.333334 0.833334
#
# Coordination Sequence:
#
# PCOD9576794 Si02
#       6
#    18  18  18  18  18  18
#     4  11  21  37  62  90 122 159 203 262 321 371
#     4  10  21  36  58  89 123 158 203 254 304 367
#     4  10  22  39  58  84 121 168 205 237 310 381
#     4  10  21  36  58  84 118 160 202 253 300 370
#     4  10  18  33  55  85 115 145 199 257 305 345
#     4  11  21  35  61  96 124 153 201 267 326 368
#
# _framework density 21.069151000000002
#
# number of rings (size 3 to 8) (size 9 to 14) (size 15 to 20)
#    0.000    1.667    0.000    8.167    0.000    2.667 
#    0.000    3.333    0.000   18.667    0.000    0.000 
#    0.000    0.000    0.000    0.000    0.000    0.000 
#
# Total GULP energy -201100.815553 kJ/mol
# GULP energy per Si atom -5586.133765 kJ/mol
# Density = 2.102120 g / cm^3
# Si number density = 21.069151 Si / 1000 Ang^3
#
#
#
# Elastic Constant Matrix: (Units=GPa)
#
#
# Indices 1 2 3 4 5 6 
#
# 1 80.1050 29.6402 36.6544 -7.7958 -0.0001 0.0000
# 2 29.6402 80.1050 36.6544 7.7958 0.0001 0.0000
# 3 36.6544 36.6544 124.1694 0.0000 0.0000 0.0000
# 4 -7.7958 7.7958 0.0000 27.6424 0.0000 0.0001
# 5 -0.0001 0.0001 0.0000 0.0000 27.6424 -7.7958
# 6 0.0000 0.0000 0.0000 0.0001 -7.7958 25.2324
#
#
#
# Elastic Compliance Matrix: (Units=1/GPa)
#
#
# Indices 1 2 3 4 5 6 
#
# 1 0.016529 -0.005179 -0.003351 0.006122 0.000000 0.000000
# 2 -0.005179 0.016529 -0.003351 -0.006122 0.000000 0.000000
# 3 -0.003351 -0.003351 0.010032 0.000000 0.000000 0.000000
# 4 0.006122 -0.006122 0.000000 0.039629 0.000000 0.000000
# 5 0.000000 0.000000 0.000000 0.000000 0.039629 0.012244
# 6 0.000000 0.000000 0.000000 0.000000 0.012244 0.043414
#
#
# Mechanical properties :
#
#
# Convention : Reuss Voigt Hill
#
# Bulk Modulus (GPa) = 51.73355 54.47528 53.10442
# Shear Modulus (GPa) = 25.51486 28.19882 26.85684
#
# Velocity S-wave (km/s) = 3.48373 3.66238 3.57417
# Velocity P-wave (km/s) = 6.38665 6.61782 6.50326
#
# Compressibility (1/GPa) = 0.01932982
#
# Stress axis : x y z
#
# Youngs Moduli (GPa) = 60.50098 60.50098 99.68453
#
# Poissons Ratio (x) = 0.31331 0.33400
# Poissons Ratio (y) = 0.31331 0.33400
# Poissons Ratio (z) = 0.20271 0.20271
#
# Static dielectric constant tensor:
#      x y z
#    x 1.797600 0.000000 0.000000 
#    y 0.000000 1.797600 0.000000 
#    z 0.000000 0.000000 1.764310 
# 
# From -- ./inp_files/8427.got.cif
#   From: 2010.05.17/outbox.cif.g08.bks.cpg/sg155_5_cif.got.tgz:8427.got - 2010.05.20 10:44:35.
