data_PCOD9576598
_publ_section_title
;
Structure prediction by ZEFSAII (Michael W. Deem and Ramdas Pophale) SiO2 
 PCOD9576598
Probable space group: P 32 2 1
;
_chemical_formula_sum "Si O2"
_cell_formula_units_Z 24
_cell_length_a 7.606759
_cell_length_b 7.606759
_cell_length_c 20.564134
_cell_angle_alpha 90.000000
_cell_angle_beta 90.000000
_cell_angle_gamma 120.000000
_cell_volume 1030.481907
_symmetry_space_group_name_H-M "P 32 2 1"
_symmetry_group_IT_number 154
_symmetry_cell_setting 'hexagonal'
loop_
_space_group_symop_operation_xyz
x,y,z
-y,x-y,2/3+z
-x+y,-x,1/3+z
x-y,-y,1/3-z
-x,-x+y,2/3-z
y,x,-z
loop_
_atom_site_type_symbol
_atom_site_label
_atom_site_fract_x
_atom_site_fract_y
_atom_site_fract_z
Si Si1 0.771725 0.109158 0.460352
Si Si2 0.769941 0.020582 0.240926
Si Si3 0.081680 0.434164 0.079997
Si Si4 0.343671 0.767076 0.659589
O O1 0.795756 0.173963 0.534753
O O2 0.746246 0.263972 0.412863
O O3 0.980783 0.122165 0.435777
O O4 0.547217 0.926291 0.448877
O O5 0.730655 0.163936 0.289394
O O6 0.689243 0.000000 0.166667
O O7 0.678883 0.790122 0.265538
O O8 0.192890 0.536124 0.013912
O O9 0.506591 0.000000 0.666667
#
# Coordination Sequence:
#
# PCOD9576598 Si02
#       4
#     6   6   6   6
#     4  10  22  40  63  94 124 164 221 259 321 398
#     4   9  20  40  62  87 124 163 203 266 318 374
#     4  11  22  42  65  87 130 169 205 270 328 377
#     4  10  22  40  60  91 123 158 213 264 313 391
#
# _framework density 23.290071999999999
#
# number of rings (size 3 to 8) (size 9 to 14) (size 15 to 20)
#    0.000    2.000    0.000    4.500    3.500    3.000 
#    0.000   13.750    0.000    0.000    0.000    0.000 
#    0.000    0.000    0.000    0.000    0.000    0.000 
#
# Total GULP energy -133676.026242 kJ/mol
# GULP energy per Si atom -5569.834427 kJ/mol
# Density = 2.323706 g / cm^3
# Si number density = 23.290072 Si / 1000 Ang^3
#
#
#
# Elastic Constant Matrix: (Units=GPa)
#
#
# Indices 1 2 3 4 5 6 
#
# 1 60.4354 55.1583 14.7460 -9.4741 -0.0006 0.0000
# 2 55.1583 60.4354 14.7460 9.4741 0.0006 0.0000
# 3 14.7460 14.7460 58.1741 0.0000 0.0000 0.0000
# 4 -9.4741 9.4741 0.0000 35.2852 0.0000 0.0006
# 5 -0.0006 0.0006 0.0000 0.0000 35.2852 -9.4741
# 6 0.0000 0.0000 0.0000 0.0006 -9.4741 2.6386
#
#
#
# Elastic Compliance Matrix: (Units=1/GPa)
#
#
# Indices 1 2 3 4 5 6 
#
# 1 2.642820 -2.633571 -0.002344 1.416712 0.000087 -0.000004
# 2 -2.633571 2.642820 -0.002344 -1.416712 -0.000087 0.000004
# 3 -0.002344 -0.002344 0.018378 0.000000 0.000000 0.000000
# 4 1.416712 -1.416712 0.000000 0.789115 -0.000001 -0.000179
# 5 0.000087 -0.000087 0.000000 -0.000001 0.789116 2.833426
# 6 -0.000004 0.000004 0.000000 -0.000179 2.833426 10.552790
#
#
# Mechanical properties :
#
#
# Convention : Reuss Voigt Hill
#
# Bulk Modulus (GPa) = 36.36532 38.70506 37.53519
# Shear Modulus (GPa) = 0.22006 20.93474 10.57740
#
# Velocity S-wave (km/s) = 0.30772 3.00137 2.13341
# Velocity P-wave (km/s) = 3.97168 5.35404 4.71381
#
# Compressibility (1/GPa) = 0.02749872
#
# Stress axis : x y z
#
# Youngs Moduli (GPa) = 0.37838 0.37838 54.41186
#
# Poissons Ratio (x) = 0.99650 0.12757
# Poissons Ratio (y) = 0.99650 0.12757
# Poissons Ratio (z) = 0.00089 0.00089
#
# Static dielectric constant tensor:
#      x y z
#    x 2.278140 0.000000 0.000000 
#    y 0.000000 2.278140 0.000000 
#    z 0.000000 0.000000 1.848630 
# 
# From -- ./inp_files/2937.got.cif
#   From: 2010.05.17/outbox.cif.g08.bks.cpg/sg154_2_cif.got.tgz:2937.got - 2010.05.20 10:41:43.
