data_PCOD9576784
_publ_section_title
;
Structure prediction by ZEFSAII (Michael W. Deem and Ramdas Pophale) SiO2 
 PCOD9576784
Probable space group: R 3 2
;
_chemical_formula_sum "Si O2"
_cell_formula_units_Z 126
_cell_length_a 26.162537
_cell_length_b 26.162537
_cell_length_c 11.983206
_cell_angle_alpha 90.000000
_cell_angle_beta 90.000000
_cell_angle_gamma 120.000000
_cell_volume 7103.352519
_symmetry_space_group_name_H-M "R 3 2"
_symmetry_group_IT_number 155
_symmetry_cell_setting 'hexagonal'
loop_
_space_group_symop_operation_xyz
x,y,z
-y,x-y,z
-x+y,-x,z
x-y,-y,-z
-x,-x+y,-z
y,x,-z
2/3+x,1/3+y,1/3+z
2/3-y,1/3+x-y,1/3+z
2/3-x+y,1/3-x,1/3+z
2/3+x-y,1/3-y,1/3-z
2/3-x,1/3-x+y,1/3-z
2/3+y,1/3+x,1/3-z
1/3+x,2/3+y,2/3+z
1/3-y,2/3+x-y,2/3+z
1/3-x+y,2/3-x,2/3+z
1/3+x-y,2/3-y,2/3-z
1/3-x,2/3-x+y,2/3-z
1/3+y,2/3+x,2/3-z
loop_
_atom_site_type_symbol
_atom_site_label
_atom_site_fract_x
_atom_site_fract_y
_atom_site_fract_z
Si Si1 0.148748 0.425194 0.403382
Si Si2 0.591648 0.395529 0.599106
Si Si3 0.396900 0.800614 0.980202
Si Si4 0.901889 0.195061 0.507531
Si Si5 0.795907 0.935921 0.518827
Si Si6 0.375955 0.866835 0.571908
Si Si7 0.414691 0.013781 0.369727
O O1 0.218804 0.469787 0.408987
O O2 0.127625 0.360627 0.450987
O O3 0.131495 0.413149 0.271603
O O4 0.125271 0.460550 0.477395
O O5 0.659513 0.429415 0.641742
O O6 0.568243 0.326328 0.589800
O O7 0.550795 0.401939 0.690716
O O8 0.590081 0.428986 0.488760
O O9 0.424195 0.820300 0.103751
O O10 0.859331 0.124262 0.503936
O O11 0.923315 0.221550 0.383799
O O12 0.802366 0.000000 0.500000
O O13 0.333334 0.823427 0.666667
O O14 0.410879 0.929818 0.632381
O O15 0.370119 0.036786 0.333334
O O16 0.405093 0.000000 0.500000
#
# Coordination Sequence:
#
# PCOD9576784 Si02
#       7
#    18  18  18  18  18  18  18
#     4   9  18  33  55  73 101 138 183 219 261 316
#     4  10  18  31  50  73 109 138 171 217 259 316
#     4   9  18  30  50  79 105 137 174 213 265 318
#     4  10  18  34  56  74 100 141 181 222 272 312
#     4   9  18  31  50  80 103 130 178 218 276 331
#     4  10  19  35  50  70 107 144 179 218 260 315
#     4  11  22  34  50  74 104 140 179 215 265 316
#
# _framework density 17.738104
#
# number of rings (size 3 to 8) (size 9 to 14) (size 15 to 20)
#    0.000    2.286    2.857    1.571    0.000    1.143 
#    0.000    7.143    0.000    0.000    0.000   13.000 
#    0.000    0.000    0.000    0.000    0.000    0.000 
#
# Total GULP energy -233890.773309 kJ/mol
# GULP energy per Si atom -5568.827936 kJ/mol
# Density = 1.769773 g / cm^3
# Si number density = 17.738104 Si / 1000 Ang^3
#
#
#
# Elastic Constant Matrix: (Units=GPa)
#
#
# Indices 1 2 3 4 5 6 
#
# 1 64.3836 25.0566 24.2435 0.7423 -0.0007 -0.0002
# 2 25.0566 64.3836 24.2458 -0.7424 0.0001 0.0000
# 3 24.2435 24.2458 103.6917 -0.0009 0.0007 0.0007
# 4 0.7423 -0.7424 -0.0009 25.0431 -0.0004 -0.0001
# 5 -0.0007 0.0001 0.0007 -0.0004 25.0436 0.7428
# 6 -0.0002 0.0000 0.0007 -0.0001 0.7428 19.6638
#
#
#
# Elastic Compliance Matrix: (Units=1/GPa)
#
#
# Indices 1 2 3 4 5 6 
#
# 1 0.019130 -0.006326 -0.002993 -0.000755 0.000001 0.000000
# 2 -0.006326 0.019130 -0.002994 0.000755 0.000000 0.000000
# 3 -0.002993 -0.002994 0.011044 0.000000 0.000000 0.000000
# 4 -0.000755 0.000755 0.000000 0.039976 0.000001 0.000000
# 5 0.000001 0.000000 0.000000 0.000001 0.039975 -0.001510
# 6 0.000000 0.000000 0.000000 0.000000 -0.001510 0.050912
#
#
# Mechanical properties :
#
#
# Convention : Reuss Voigt Hill
#
# Bulk Modulus (GPa) = 40.52442 42.17231 41.34837
# Shear Modulus (GPa) = 23.47201 24.54430 24.00816
#
# Velocity S-wave (km/s) = 3.64160 3.72385 3.68296
# Velocity P-wave (km/s) = 6.37003 6.50508 6.43791
#
# Compressibility (1/GPa) = 0.02467648
#
# Stress axis : x y z
#
# Youngs Moduli (GPa) = 52.27442 52.27350 90.54765
#
# Poissons Ratio (x) = 0.33070 0.27104
# Poissons Ratio (y) = 0.33071 0.27110
# Poissons Ratio (z) = 0.15648 0.15651
#
# Static dielectric constant tensor:
#      x y z
#    x 1.633160 0.000000 0.000000 
#    y 0.000000 1.633160 0.000000 
#    z 0.000000 0.000000 1.669440 
# 
# From -- ./inp_files/4256.got.cif
#   From: 2010.05.17/outbox.cif.g08.bks.cpg/sg155_3_cif.got.tgz:4256.got - 2010.05.20 10:44:35.
