data_PCOD9576872
_publ_section_title
;
Structure prediction by ZEFSAII (Michael W. Deem and Ramdas Pophale) SiO2 
 PCOD9576872
Probable space group: R 3 2
;
_chemical_formula_sum "Si O2"
_cell_formula_units_Z 90
_cell_length_a 25.571300
_cell_length_b 25.571300
_cell_length_c 10.333249
_cell_angle_alpha 90.000000
_cell_angle_beta 90.000000
_cell_angle_gamma 120.000000
_cell_volume 5851.579922
_symmetry_space_group_name_H-M "R 3 2"
_symmetry_group_IT_number 155
_symmetry_cell_setting 'hexagonal'
loop_
_space_group_symop_operation_xyz
x,y,z
-y,x-y,z
-x+y,-x,z
x-y,-y,-z
-x,-x+y,-z
y,x,-z
2/3+x,1/3+y,1/3+z
2/3-y,1/3+x-y,1/3+z
2/3-x+y,1/3-x,1/3+z
2/3+x-y,1/3-y,1/3-z
2/3-x,1/3-x+y,1/3-z
2/3+y,1/3+x,1/3-z
1/3+x,2/3+y,2/3+z
1/3-y,2/3+x-y,2/3+z
1/3-x+y,2/3-x,2/3+z
1/3+x-y,2/3-y,2/3-z
1/3-x,2/3-x+y,2/3-z
1/3+y,2/3+x,2/3-z
loop_
_atom_site_type_symbol
_atom_site_label
_atom_site_fract_x
_atom_site_fract_y
_atom_site_fract_z
Si Si1 0.915247 0.651299 0.316665
Si Si2 0.429096 0.218116 0.724892
Si Si3 0.333334 0.432144 0.166667
Si Si4 0.534431 0.666667 0.166667
Si Si5 0.366865 0.169585 0.468234
Si Si6 0.385526 0.983689 0.350649
O O1 0.848580 0.630505 0.367052
O O2 0.934303 0.600970 0.333334
O O3 0.962456 0.709661 0.401510
O O4 0.919918 0.666667 0.166667
O O5 0.444130 0.285424 0.757244
O O6 0.470783 0.194063 0.784578
O O7 0.418664 0.202205 0.573920
O O8 0.363735 0.175865 0.791655
O O9 0.559213 0.642018 0.285159
O O10 0.361181 0.110674 0.401544
O O11 0.407128 0.000000 0.500000
O O12 0.333509 0.000176 0.333334
#
# Coordination Sequence:
#
# PCOD9576872 Si02
#       6
#    18  18   9   9  18  18
#     4  11  19  29  45  66  94 128 162 192 231 277
#     4   9  18  32  48  65  92 119 156 194 237 279
#     4  10  20  32  48  70  90 126 156 196 236 276
#     4  10  20  32  48  70  90 126 156 196 236 276
#     4   9  19  30  44  66  93 124 157 194 229 276
#     4  11  19  29  45  66  94 128 162 192 231 277
#
# _framework density 15.380461
#
# number of rings (size 3 to 8) (size 9 to 14) (size 15 to 20)
#    0.000    2.000    2.000    3.000    5.600    0.000 
#    0.000    0.000    0.000    0.400    0.000    0.000 
#    0.000    0.000    0.000    7.600    0.000    0.000 
#
# Total GULP energy -167141.550630 kJ/mol
# GULP energy per Si atom -5571.385021 kJ/mol
# Density = 1.534545 g / cm^3
# Si number density = 15.380461 Si / 1000 Ang^3
#
#
#
# Elastic Constant Matrix: (Units=GPa)
#
#
# Indices 1 2 3 4 5 6 
#
# 1 24.9250 -4.9543 -10.5458 -2.5720 -0.0004 -0.0003
# 2 -4.9543 24.9258 -10.5455 2.5713 -0.0012 -0.0003
# 3 -10.5458 -10.5455 73.0758 0.0004 0.0018 -0.0009
# 4 -2.5720 2.5713 0.0004 17.4228 0.0000 -0.0003
# 5 -0.0004 -0.0012 0.0018 0.0000 17.4238 -2.5722
# 6 -0.0003 -0.0003 -0.0009 -0.0003 -2.5722 14.9395
#
#
#
# Elastic Compliance Matrix: (Units=1/GPa)
#
#
# Indices 1 2 3 4 5 6 
#
# 1 0.046709 0.012368 0.008526 0.005070 0.000001 0.000002
# 2 0.012368 0.046707 0.008525 -0.005067 0.000003 0.000002
# 3 0.008526 0.008525 0.016145 0.000000 -0.000001 0.000001
# 4 0.005070 -0.005067 0.000000 0.058892 0.000000 0.000001
# 5 0.000001 0.000003 -0.000001 0.000000 0.058889 0.010139
# 6 0.000002 0.000002 0.000001 0.000001 0.010139 0.068683
#
#
# Mechanical properties :
#
#
# Convention : Reuss Voigt Hill
#
# Bulk Modulus (GPa) = 5.93832 7.87061 6.90447
# Shear Modulus (GPa) = 17.04618 19.88870 18.46744
#
# Velocity S-wave (km/s) = 3.33273 3.59989 3.46888
# Velocity P-wave (km/s) = 4.32189 4.73364 4.53244
#
# Compressibility (1/GPa) = 0.16839766
#
# Stress axis : x y z
#
# Youngs Moduli (GPa) = 21.40912 21.41019 61.93865
#
# Poissons Ratio (x) = -0.26480 -0.52806
# Poissons Ratio (y) = -0.26479 -0.52803
# Poissons Ratio (z) = -0.18252 -0.18252
#
# Static dielectric constant tensor:
#      x y z
#    x 1.502270 0.000000 0.000000 
#    y 0.000000 1.502270 0.000000 
#    z 0.000000 0.000000 1.569740 
# 
# From -- ./inp_files/2808.got.cif
#   From: 2010.05.17/outbox.cif.g08.bks.cpg/sg155_2_cif.got.tgz:2808.got - 2010.05.20 10:44:35.
