data_PCOD9576212
_publ_section_title
;
Structure prediction by ZEFSAII (Michael W. Deem and Ramdas Pophale) SiO2 
 PCOD9576212
Probable space group: P 31 2 1
;
_chemical_formula_sum "Si O2"
_cell_formula_units_Z 18
_cell_length_a 10.171621
_cell_length_b 10.171621
_cell_length_c 8.210278
_cell_angle_alpha 90.000000
_cell_angle_beta 90.000000
_cell_angle_gamma 120.000000
_cell_volume 735.645925
_symmetry_space_group_name_H-M "P 31 2 1"
_symmetry_group_IT_number 152
_symmetry_cell_setting 'hexagonal'
loop_
_space_group_symop_operation_xyz
x,y,z
-y,x-y,1/3+z
-x+y,-x,2/3+z
x-y,-y,2/3-z
-x,-x+y,1/3-z
y,x,-z
loop_
_atom_site_type_symbol
_atom_site_label
_atom_site_fract_x
_atom_site_fract_y
_atom_site_fract_z
Si Si1 0.214948 0.875115 0.102443
Si Si2 0.841920 0.027154 0.506235
Si Si3 0.385330 0.749608 0.940856
O O1 0.932428 0.731627 0.347493
O O2 0.350736 0.881781 0.992924
O O3 0.202959 0.761220 0.244020
O O4 0.236376 0.032413 0.165371
O O5 0.757720 0.000000 0.333334
O O6 0.943295 0.943295 0.500000
O O7 0.321171 0.637491 0.097111
#
# Coordination Sequence:
#
# PCOD9576212 Si02
#       3
#     6   6   6
#     4   9  18  38  71 111 156 200 269 327 399 483
#     4   9  18  36  67 106 154 198 259 327 396 465
#     4   8  18  38  71 107 156 205 264 324 399 482
#
# _framework density 24.468295000000001
#
# number of rings (size 3 to 8) (size 9 to 14) (size 15 to 20)
#    2.000    1.333    0.000    0.000    0.000    0.000 
#    0.000   21.667   22.000    0.000    0.000    4.667 
#    0.000    0.000    0.000    0.000    0.000    0.000 
#
# Total GULP energy -100259.458697 kJ/mol
# GULP energy per Si atom -5569.969928 kJ/mol
# Density = 2.441260 g / cm^3
# Si number density = 24.468295 Si / 1000 Ang^3
#
#
#
# Elastic Constant Matrix: (Units=GPa)
#
#
# Indices 1 2 3 4 5 6 
#
# 1 93.8679 24.7738 23.9681 -4.7136 -0.0001 0.0000
# 2 24.7738 93.8679 23.9681 4.7136 0.0001 0.0000
# 3 23.9681 23.9681 154.7741 0.0000 0.0000 0.0000
# 4 -4.7136 4.7136 0.0000 34.2970 0.0000 0.0001
# 5 -0.0001 0.0001 0.0000 0.0000 34.2970 -4.7136
# 6 0.0000 0.0000 0.0000 0.0001 -4.7136 34.5471
#
#
#
# Elastic Compliance Matrix: (Units=1/GPa)
#
#
# Indices 1 2 3 4 5 6 
#
# 1 0.011870 -0.002879 -0.001392 0.002027 0.000000 0.000000
# 2 -0.002879 0.011870 -0.001392 -0.002027 0.000000 0.000000
# 3 -0.001392 -0.001392 0.006892 0.000000 0.000000 0.000000
# 4 0.002027 -0.002027 0.000000 0.029714 0.000000 0.000000
# 5 0.000000 0.000000 0.000000 0.000000 0.029714 0.004054
# 6 0.000000 0.000000 0.000000 0.000000 0.004054 0.029499
#
#
# Mechanical properties :
#
#
# Convention : Reuss Voigt Hill
#
# Bulk Modulus (GPa) = 51.79907 54.21447 53.00677
# Shear Modulus (GPa) = 36.41030 38.61487 37.51258
#
# Velocity S-wave (km/s) = 3.86172 3.97692 3.91974
# Velocity P-wave (km/s) = 6.41091 6.57974 6.49587
#
# Compressibility (1/GPa) = 0.01930537
#
# Stress axis : x y z
#
# Youngs Moduli (GPa) = 84.24279 84.24279 145.08994
#
# Poissons Ratio (x) = 0.24255 0.20202
# Poissons Ratio (y) = 0.24255 0.20202
# Poissons Ratio (z) = 0.11730 0.11730
#
# Static dielectric constant tensor:
#      x y z
#    x 1.954690 0.000000 0.000000 
#    y 0.000000 1.954690 0.000000 
#    z 0.000000 0.000000 2.173660 
# 
# From -- ./inp_files/746.got.cif
#   From: 2010.05.17/outbox.cif.g08.bks.cpg/sg152_1_cif.got.tgz:746.got - 2010.05.20 10:36:06.
