data_PCOD9576714
_publ_section_title
;
Structure prediction by ZEFSAII (Michael W. Deem and Ramdas Pophale) SiO2 
 PCOD9576714
Probable space group: P 32 2 1
;
_chemical_formula_sum "Si O2"
_cell_formula_units_Z 21
_cell_length_a 8.136348
_cell_length_b 8.136348
_cell_length_c 16.143604
_cell_angle_alpha 90.000000
_cell_angle_beta 90.000000
_cell_angle_gamma 120.000000
_cell_volume 925.529271
_symmetry_space_group_name_H-M "P 32 2 1"
_symmetry_group_IT_number 154
_symmetry_cell_setting 'hexagonal'
loop_
_space_group_symop_operation_xyz
x,y,z
-y,x-y,2/3+z
-x+y,-x,1/3+z
x-y,-y,1/3-z
-x,-x+y,2/3-z
y,x,-z
loop_
_atom_site_type_symbol
_atom_site_label
_atom_site_fract_x
_atom_site_fract_y
_atom_site_fract_z
Si Si1 0.452686 0.000000 0.666667
Si Si2 0.229919 0.871675 0.087165
Si Si3 0.842979 0.308544 0.616605
Si Si4 0.194224 0.027666 0.800442
O O1 0.660233 0.181263 0.672894
O O2 0.347466 0.027277 0.588692
O O3 0.182183 0.656059 0.090374
O O4 0.027127 0.863791 0.084305
O O5 0.336932 0.000000 0.166667
O O6 0.355503 0.971699 0.006567
O O7 0.856517 0.178374 0.545293
O O8 0.000000 0.851622 0.833334
#
# Coordination Sequence:
#
# PCOD9576714 Si02
#       4
#     3   6   6   6
#     4  12  24  40  66  96 128 172 222 272 336 396
#     4  11  25  44  66  96 134 174 224 276 334 403
#     4  12  24  42  67  96 135 177 223 277 335 399
#     4  11  23  42  66  95 131 172 223 277 334 396
#
# _framework density 22.689720999999999
#
# number of rings (size 3 to 8) (size 9 to 14) (size 15 to 20)
#    0.000    0.571    0.000   10.286    0.000    3.429 
#    0.000    0.000    0.000    0.000    0.000    0.000 
#    0.000    0.000    0.000    0.000    0.000    0.000 
#
# Total GULP energy -117638.792677 kJ/mol
# GULP energy per Si atom -5601.847270 kJ/mol
# Density = 2.263808 g / cm^3
# Si number density = 22.689721 Si / 1000 Ang^3
#
#
#
# Elastic Constant Matrix: (Units=GPa)
#
#
# Indices 1 2 3 4 5 6 
#
# 1 98.1244 29.7238 28.9531 -1.0108 -0.0002 0.0000
# 2 29.7238 98.1244 28.9531 1.0108 0.0002 0.0000
# 3 28.9531 28.9531 60.6645 0.0000 0.0000 0.0000
# 4 -1.0108 1.0108 0.0000 35.0662 0.0000 0.0002
# 5 -0.0002 0.0002 0.0000 0.0000 35.0662 -1.0108
# 6 0.0000 0.0000 0.0000 0.0002 -1.0108 34.2003
#
#
#
# Elastic Compliance Matrix: (Units=1/GPa)
#
#
# Indices 1 2 3 4 5 6 
#
# 1 0.012306 -0.002327 -0.004763 0.000422 0.000000 0.000000
# 2 -0.002327 0.012306 -0.004763 -0.000422 0.000000 0.000000
# 3 -0.004763 -0.004763 0.021030 0.000000 0.000000 0.000000
# 4 0.000422 -0.000422 0.000000 0.028542 0.000000 0.000000
# 5 0.000000 0.000000 0.000000 0.000000 0.028542 0.000844
# 6 0.000000 0.000000 0.000000 0.000000 0.000844 0.029264
#
#
# Mechanical properties :
#
#
# Convention : Reuss Voigt Hill
#
# Bulk Modulus (GPa) = 45.58387 48.01926 46.80156
# Shear Modulus (GPa) = 30.67379 32.15207 31.41293
#
# Velocity S-wave (km/s) = 3.68078 3.76843 3.72486
# Velocity P-wave (km/s) = 6.18045 6.33594 6.25868
#
# Compressibility (1/GPa) = 0.02193759
#
# Stress axis : x y z
#
# Youngs Moduli (GPa) = 81.26406 81.26406 47.55078
#
# Poissons Ratio (x) = 0.18907 0.22646
# Poissons Ratio (y) = 0.18907 0.22646
# Poissons Ratio (z) = 0.38703 0.38703
#
# Static dielectric constant tensor:
#      x y z
#    x 1.814430 0.000000 0.000000 
#    y 0.000000 1.814430 0.000000 
#    z 0.000000 0.000000 1.841220 
# 
# From -- ./inp_files/2295.got.cif
#   From: 2010.05.17/outbox.cif.g08.bks.cpg/sg154_2_cif.got.tgz:2295.got - 2010.05.20 10:41:43.
