data_PCOD9576039
_publ_section_title
;
Structure prediction by ZEFSAII (Michael W. Deem and Ramdas Pophale) SiO2 
 PCOD9576039
Probable space group: P 31 2 1
;
_chemical_formula_sum "Si O2"
_cell_formula_units_Z 15
_cell_length_a 11.908407
_cell_length_b 11.908407
_cell_length_c 5.318133
_cell_angle_alpha 90.000000
_cell_angle_beta 90.000000
_cell_angle_gamma 120.000000
_cell_volume 653.126289
_symmetry_space_group_name_H-M "P 31 2 1"
_symmetry_group_IT_number 152
_symmetry_cell_setting 'hexagonal'
loop_
_space_group_symop_operation_xyz
x,y,z
-y,x-y,1/3+z
-x+y,-x,2/3+z
x-y,-y,2/3-z
-x,-x+y,1/3-z
y,x,-z
loop_
_atom_site_type_symbol
_atom_site_label
_atom_site_fract_x
_atom_site_fract_y
_atom_site_fract_z
Si Si1 0.872860 0.872860 0.500000
Si Si2 0.378983 0.238630 0.870119
Si Si3 0.505404 0.591463 0.251115
O O1 0.850117 0.735954 0.390974
O O2 0.000000 0.920251 0.666667
O O3 0.503467 0.349505 0.727573
O O4 0.312889 0.312889 0.000000
O O5 0.436341 0.181320 0.074077
O O6 0.558060 0.558060 0.500000
O O7 0.552015 0.552015 0.000000
#
# Coordination Sequence:
#
# PCOD9576039 Si02
#       3
#     3   6   6
#     4  10  22  42  70 110 140 190 234 304 362 426
#     4  10  24  45  72 109 142 192 241 300 361 435
#     4  11  26  47  71 106 147 189 238 294 363 436
#
# _framework density 22.966464999999999
#
# number of rings (size 3 to 8) (size 9 to 14) (size 15 to 20)
#    0.000    1.600    2.000    0.000    2.800   19.200 
#    0.000    0.000    0.000    0.000    0.000    0.000 
#    0.000    0.000    0.000    0.000    0.000    0.000 
#
# Total GULP energy -83651.828438 kJ/mol
# GULP energy per Si atom -5576.788563 kJ/mol
# Density = 2.291419 g / cm^3
# Si number density = 22.966465 Si / 1000 Ang^3
#
#
#
# Elastic Constant Matrix: (Units=GPa)
#
#
# Indices 1 2 3 4 5 6 
#
# 1 176.6847 68.7875 30.1727 -4.6754 0.0000 0.0000
# 2 68.7875 176.6847 30.1727 4.6754 0.0000 0.0000
# 3 30.1727 30.1727 82.2180 0.0000 0.0000 0.0000
# 4 -4.6754 4.6754 0.0000 26.5461 0.0000 0.0000
# 5 0.0000 0.0000 0.0000 0.0000 26.5461 -4.6754
# 6 0.0000 0.0000 0.0000 0.0000 -4.6754 53.9486
#
#
#
# Elastic Compliance Matrix: (Units=1/GPa)
#
#
# Indices 1 2 3 4 5 6 
#
# 1 0.006945 -0.002467 -0.001643 0.001658 0.000000 0.000000
# 2 -0.002467 0.006945 -0.001643 -0.001658 0.000000 0.000000
# 3 -0.001643 -0.001643 0.013369 0.000000 0.000000 0.000000
# 4 0.001658 -0.001658 0.000000 0.038254 0.000000 0.000000
# 5 0.000000 0.000000 0.000000 0.000000 0.038254 0.003315
# 6 0.000000 0.000000 0.000000 0.000000 0.003315 0.018823
#
#
# Mechanical properties :
#
#
# Convention : Reuss Voigt Hill
#
# Bulk Modulus (GPa) = 63.48667 77.09480 70.29073
# Shear Modulus (GPa) = 35.88148 41.83847 38.85998
#
# Velocity S-wave (km/s) = 3.95694 4.27279 4.11789
# Velocity P-wave (km/s) = 6.96991 7.61470 7.29943
#
# Compressibility (1/GPa) = 0.01575134
#
# Stress axis : x y z
#
# Youngs Moduli (GPa) = 143.99377 143.99377 74.80049
#
# Poissons Ratio (x) = 0.35523 0.12292
# Poissons Ratio (y) = 0.35523 0.12292
# Poissons Ratio (z) = 0.23662 0.23662
#
# Static dielectric constant tensor:
#      x y z
#    x 1.941380 0.000000 0.000000 
#    y 0.000000 1.941380 0.000000 
#    z 0.000000 0.000000 4.532850 
# 
# From -- ./inp_files/62.got.cif
#   From: 2010.05.17/outbox.cif.g08.bks.cpg/sg152_1_cif.got.tgz:62.got - 2010.05.20 10:36:06.
