data_PCOD9576636
_publ_section_title
;
Structure prediction by ZEFSAII (Michael W. Deem and Ramdas Pophale) SiO2 
 PCOD9576636
Probable space group: P 32 2 1
;
_chemical_formula_sum "Si O2"
_cell_formula_units_Z 18
_cell_length_a 7.235114
_cell_length_b 7.235114
_cell_length_c 14.680305
_cell_angle_alpha 90.000000
_cell_angle_beta 90.000000
_cell_angle_gamma 120.000000
_cell_volume 665.512883
_symmetry_space_group_name_H-M "P 32 2 1"
_symmetry_group_IT_number 154
_symmetry_cell_setting 'hexagonal'
loop_
_space_group_symop_operation_xyz
x,y,z
-y,x-y,2/3+z
-x+y,-x,1/3+z
x-y,-y,1/3-z
-x,-x+y,2/3-z
y,x,-z
loop_
_atom_site_type_symbol
_atom_site_label
_atom_site_fract_x
_atom_site_fract_y
_atom_site_fract_z
Si Si1 0.739430 0.132839 0.492963
Si Si2 0.862472 0.862472 0.000000
Si Si3 0.034631 0.378711 0.636287
Si Si4 0.348142 0.000000 0.166667
O O1 0.568018 0.157747 0.434514
O O2 0.677825 0.887798 0.510169
O O3 0.941142 0.219841 0.423887
O O4 0.803615 0.251968 0.588361
O O5 0.095990 0.892572 0.980409
O O6 0.028898 0.460234 0.736854
#
# Coordination Sequence:
#
# PCOD9576636 Si02
#       4
#     6   3   6   3
#     4  11  22  44  78 104 146 211 253 319 394 469
#     4  10  22  50  70 106 164 194 248 336 390 450
#     4  11  22  45  76 109 150 207 256 321 396 467
#     4  10  22  48  70 100 166 196 240 348 388 440
#
# _framework density 27.046809
#
# number of rings (size 3 to 8) (size 9 to 14) (size 15 to 20)
#    0.000    1.333    6.667    0.000    0.000    5.333 
#   30.000    0.000    0.000    0.000    0.000    0.000 
#    0.000    0.000    0.000    0.000    0.000    0.000 
#
# Total GULP energy -100869.900086 kJ/mol
# GULP energy per Si atom -5603.883338 kJ/mol
# Density = 2.698525 g / cm^3
# Si number density = 27.046809 Si / 1000 Ang^3
#
#
#
# Elastic Constant Matrix: (Units=GPa)
#
#
# Indices 1 2 3 4 5 6 
#
# 1 84.3986 32.4098 38.6229 5.3296 0.0002 0.0000
# 2 32.4098 84.3986 38.6229 -5.3296 -0.0002 0.0000
# 3 38.6229 38.6229 214.2966 0.0000 0.0000 0.0000
# 4 5.3296 -5.3296 0.0000 42.2751 0.0000 -0.0002
# 5 0.0002 -0.0002 0.0000 0.0000 42.2751 5.3296
# 6 0.0000 0.0000 0.0000 -0.0002 5.3296 25.9944
#
#
#
# Elastic Compliance Matrix: (Units=1/GPa)
#
#
# Indices 1 2 3 4 5 6 
#
# 1 0.014732 -0.005013 -0.001752 -0.002489 0.000000 0.000000
# 2 -0.005013 0.014732 -0.001752 0.002489 0.000000 0.000000
# 3 -0.001752 -0.001752 0.005298 0.000000 0.000000 0.000000
# 4 -0.002489 0.002489 0.000000 0.024282 0.000000 0.000000
# 5 0.000000 0.000000 0.000000 0.000000 0.024282 -0.004979
# 6 0.000000 0.000000 0.000000 0.000000 -0.004979 0.039491
#
#
# Mechanical properties :
#
#
# Convention : Reuss Voigt Hill
#
# Bulk Modulus (GPa) = 56.40220 66.93388 61.66804
# Shear Modulus (GPa) = 34.30286 40.33812 37.32049
#
# Velocity S-wave (km/s) = 3.56515 3.86608 3.71866
# Velocity P-wave (km/s) = 6.15190 6.68804 6.42557
#
# Compressibility (1/GPa) = 0.01772980
#
# Stress axis : x y z
#
# Youngs Moduli (GPa) = 67.87774 67.87774 188.75519
#
# Poissons Ratio (x) = 0.34026 0.33065
# Poissons Ratio (y) = 0.34026 0.33065
# Poissons Ratio (z) = 0.11890 0.11890
#
# Static dielectric constant tensor:
#      x y z
#    x 2.141130 0.000000 0.000000 
#    y 0.000000 2.141130 0.000000 
#    z 0.000000 0.000000 2.099930 
# 
# From -- ./inp_files/1476.got.cif
#   From: 2010.05.17/outbox.cif.g08.bks.cpg/sg154_1_cif.got.tgz:1476.got - 2010.05.20 10:41:43.
