data_PCOD9576103
_publ_section_title
;
Structure prediction by ZEFSAII (Michael W. Deem and Ramdas Pophale) SiO2 
 PCOD9576103
Probable space group: P 31 2 1
;
_chemical_formula_sum "Si O2"
_cell_formula_units_Z 15
_cell_length_a 7.170454
_cell_length_b 7.170454
_cell_length_c 15.207424
_cell_angle_alpha 90.000000
_cell_angle_beta 90.000000
_cell_angle_gamma 120.000000
_cell_volume 677.141755
_symmetry_space_group_name_H-M "P 31 2 1"
_symmetry_group_IT_number 152
_symmetry_cell_setting 'hexagonal'
loop_
_space_group_symop_operation_xyz
x,y,z
-y,x-y,1/3+z
-x+y,-x,2/3+z
x-y,-y,2/3-z
-x,-x+y,1/3-z
y,x,-z
loop_
_atom_site_type_symbol
_atom_site_label
_atom_site_fract_x
_atom_site_fract_y
_atom_site_fract_z
Si Si1 0.619405 0.830007 0.559172
Si Si2 0.434815 0.554008 0.914279
Si Si3 0.000000 0.144807 0.666667
O O1 0.687232 0.687232 0.500000
O O2 0.374270 0.697342 0.590074
O O3 0.624399 0.023266 0.501910
O O4 0.791209 0.928801 0.637435
O O5 0.412980 0.412980 0.000000
O O6 0.684908 0.741894 0.920287
#
# Coordination Sequence:
#
# PCOD9576103 Si02
#       3
#     6   6   3
#     4  12  26  46  74 104 147 196 243 309 379 445
#     4  10  24  47  69 105 145 184 248 309 362 444
#     4  10  26  44  72 108 140 192 250 294 388 438
#
# _framework density 22.151931999999999
#
# number of rings (size 3 to 8) (size 9 to 14) (size 15 to 20)
#    1.200    0.000    4.000    0.000    8.400    1.600 
#    0.000    0.000    0.000    0.000    0.000    0.000 
#    0.000    0.000    0.000    0.000    0.000    0.000 
#
# Total GULP energy -83763.775384 kJ/mol
# GULP energy per Si atom -5584.251692 kJ/mol
# Density = 2.210151 g / cm^3
# Si number density = 22.151932 Si / 1000 Ang^3
#
#
#
# Elastic Constant Matrix: (Units=GPa)
#
#
# Indices 1 2 3 4 5 6 
#
# 1 173.9443 47.7743 36.6984 -34.9759 0.0004 0.0000
# 2 47.7743 173.9443 36.6984 34.9759 -0.0004 0.0000
# 3 36.6984 36.6984 40.2429 0.0000 0.0000 0.0000
# 4 -34.9759 34.9759 0.0000 48.8013 0.0000 -0.0004
# 5 0.0004 -0.0004 0.0000 0.0000 48.8013 -34.9759
# 6 0.0000 0.0000 0.0000 -0.0004 -34.9759 63.0850
#
#
#
# Elastic Compliance Matrix: (Units=1/GPa)
#
#
# Indices 1 2 3 4 5 6 
#
# 1 0.009806 -0.003346 -0.005891 0.009426 0.000000 0.000000
# 2 -0.003346 0.009806 -0.005891 -0.009426 0.000000 0.000000
# 3 -0.005891 -0.005891 0.035594 0.000000 0.000000 0.000000
# 4 0.009426 -0.009426 0.000000 0.034002 0.000000 0.000000
# 5 0.000000 0.000000 0.000000 0.000000 0.034002 0.018852
# 6 0.000000 0.000000 0.000000 0.000000 0.018852 0.026303
#
#
# Mechanical properties :
#
#
# Convention : Reuss Voigt Hill
#
# Bulk Modulus (GPa) = 40.08122 70.05261 55.06692
# Shear Modulus (GPa) = 26.58330 49.93487 38.25909
#
# Velocity S-wave (km/s) = 3.46792 4.75299 4.16037
# Velocity P-wave (km/s) = 5.84537 7.86216 6.92755
#
# Compressibility (1/GPa) = 0.02494934
#
# Stress axis : x y z
#
# Youngs Moduli (GPa) = 101.97711 101.97711 28.09444
#
# Poissons Ratio (x) = 0.34118 0.16552
# Poissons Ratio (y) = 0.34118 0.16552
# Poissons Ratio (z) = 0.60080 0.60080
#
# Static dielectric constant tensor:
#      x y z
#    x 1.640210 0.000000 0.000000 
#    y 0.000000 1.640210 0.000000 
#    z 0.000000 0.000000 1.828810 
# 
# From -- ./inp_files/1398.got.cif
#   From: 2010.05.17/outbox.cif.g08.bks.cpg/sg152_1_cif.got.tgz:1398.got - 2010.05.20 10:36:06.
