data_PCOD9576731
_publ_section_title
;
Structure prediction by ZEFSAII (Michael W. Deem and Ramdas Pophale) SiO2 
 PCOD9576731
Probable space group: P 32 2 1
;
_chemical_formula_sum "Si O2"
_cell_formula_units_Z 39
_cell_length_a 13.763228
_cell_length_b 13.763228
_cell_length_c 12.129491
_cell_angle_alpha 90.000000
_cell_angle_beta 90.000000
_cell_angle_gamma 120.000000
_cell_volume 1989.820116
_symmetry_space_group_name_H-M "P 32 2 1"
_symmetry_group_IT_number 154
_symmetry_cell_setting 'hexagonal'
loop_
_space_group_symop_operation_xyz
x,y,z
-y,x-y,2/3+z
-x+y,-x,1/3+z
x-y,-y,1/3-z
-x,-x+y,2/3-z
y,x,-z
loop_
_atom_site_type_symbol
_atom_site_label
_atom_site_fract_x
_atom_site_fract_y
_atom_site_fract_z
Si Si1 0.264072 0.740712 0.052096
Si Si2 0.614982 0.728677 0.954498
Si Si3 0.413260 0.928287 0.398759
Si Si4 0.292649 0.292649 0.000000
Si Si5 0.684545 0.439174 0.859829
Si Si6 0.889559 0.223258 0.774181
Si Si7 0.445235 0.341895 0.793178
O O1 0.177678 0.608592 0.056668
O O2 0.380913 0.752996 0.095879
O O3 0.226072 0.807287 0.132405
O O4 0.270140 0.771062 0.923334
O O5 0.570800 0.650405 0.846266
O O6 0.628697 0.850369 0.931182
O O7 0.719705 0.719705 0.000000
O O8 0.518844 0.680027 0.047692
O O9 0.332402 0.926556 0.302661
O O10 0.540832 0.032040 0.396140
O O11 0.288708 0.178093 0.035700
O O12 0.344281 0.376217 0.102582
O O13 0.557211 0.343896 0.834877
O O14 0.000000 0.238184 0.833334
#
# Coordination Sequence:
#
# PCOD9576731 Si02
#       7
#     6   6   6   3   6   6   6
#     4  12  22  38  64  96 141 182 227 282 354 420
#     4  12  25  39  64  98 144 191 231 279 352 431
#     4  12  23  41  67 103 143 182 230 292 358 427
#     4  12  24  46  74  96 134 184 242 284 352 436
#     4  12  22  36  59  98 146 185 221 274 341 421
#     4  12  27  44  71 102 137 184 241 300 362 425
#     4  12  23  39  68 101 135 184 233 281 340 430
#
# _framework density 19.599761000000001
#
# number of rings (size 3 to 8) (size 9 to 14) (size 15 to 20)
#    0.000    0.000    9.231    1.846    0.000    0.000 
#    0.000    0.000    1.692    0.000    0.000    0.000 
#    0.000    0.000    0.000    0.000    0.000    0.000 
#
# Total GULP energy -217904.414977 kJ/mol
# GULP energy per Si atom -5587.292692 kJ/mol
# Density = 1.955515 g / cm^3
# Si number density = 19.599761 Si / 1000 Ang^3
#
#
#
# Elastic Constant Matrix: (Units=GPa)
#
#
# Indices 1 2 3 4 5 6 
#
# 1 89.0426 14.2914 18.5608 -2.6706 0.0000 0.0000
# 2 14.2914 89.0426 18.5608 2.6706 0.0000 0.0000
# 3 18.5608 18.5608 88.2554 0.0000 0.0000 0.0000
# 4 -2.6706 2.6706 0.0000 26.9466 0.0000 0.0000
# 5 0.0000 0.0000 0.0000 0.0000 26.9466 -2.6706
# 6 0.0000 0.0000 0.0000 0.0000 -2.6706 37.3756
#
#
#
# Elastic Compliance Matrix: (Units=1/GPa)
#
#
# Indices 1 2 3 4 5 6 
#
# 1 0.011971 -0.001502 -0.002202 0.001335 0.000000 0.000000
# 2 -0.001502 0.011971 -0.002202 -0.001335 0.000000 0.000000
# 3 -0.002202 -0.002202 0.012257 0.000000 0.000000 0.000000
# 4 0.001335 -0.001335 0.000000 0.037375 0.000000 0.000000
# 5 0.000000 0.000000 0.000000 0.000000 0.037375 0.002671
# 6 0.000000 0.000000 0.000000 0.000000 0.002671 0.026946
#
#
# Mechanical properties :
#
#
# Convention : Reuss Voigt Hill
#
# Bulk Modulus (GPa) = 41.00542 41.01853 41.01197
# Shear Modulus (GPa) = 31.67870 32.58225 32.13047
#
# Velocity S-wave (km/s) = 4.02466 4.08165 4.05326
# Velocity P-wave (km/s) = 6.52411 6.57166 6.54793
#
# Compressibility (1/GPa) = 0.02438702
#
# Stress axis : x y z
#
# Youngs Moduli (GPa) = 83.53746 83.53746 81.58766
#
# Poissons Ratio (x) = 0.12551 0.17962
# Poissons Ratio (y) = 0.12551 0.17962
# Poissons Ratio (z) = 0.18391 0.18391
#
# Static dielectric constant tensor:
#      x y z
#    x 1.722370 0.000000 0.000000 
#    y 0.000000 1.722370 0.000000 
#    z 0.000000 0.000000 1.709720 
# 
# From -- ./inp_files/1678.got.cif
#   From: 2010.05.17/outbox.cif.g08.bks.cpg/sg154_1_cif.got.tgz:1678.got - 2010.05.20 10:41:43.
