data_PCOD9576898
_publ_section_title
;
Structure prediction by ZEFSAII (Michael W. Deem and Ramdas Pophale) SiO2 
 PCOD9576898
Probable space group: R 3 2
;
_chemical_formula_sum "Si O2"
_cell_formula_units_Z 84
_cell_length_a 18.371991
_cell_length_b 18.371991
_cell_length_c 14.966627
_cell_angle_alpha 90.000000
_cell_angle_beta 90.000000
_cell_angle_gamma 120.000000
_cell_volume 4374.888762
_symmetry_space_group_name_H-M "R 3 2"
_symmetry_group_IT_number 155
_symmetry_cell_setting 'hexagonal'
loop_
_space_group_symop_operation_xyz
x,y,z
-y,x-y,z
-x+y,-x,z
x-y,-y,-z
-x,-x+y,-z
y,x,-z
2/3+x,1/3+y,1/3+z
2/3-y,1/3+x-y,1/3+z
2/3-x+y,1/3-x,1/3+z
2/3+x-y,1/3-y,1/3-z
2/3-x,1/3-x+y,1/3-z
2/3+y,1/3+x,1/3-z
1/3+x,2/3+y,2/3+z
1/3-y,2/3+x-y,2/3+z
1/3-x+y,2/3-x,2/3+z
1/3+x-y,2/3-y,2/3-z
1/3-x,2/3-x+y,2/3-z
1/3+y,2/3+x,2/3-z
loop_
_atom_site_type_symbol
_atom_site_label
_atom_site_fract_x
_atom_site_fract_y
_atom_site_fract_z
Si Si1 0.632428 0.470786 0.640657
Si Si2 0.091344 0.188678 0.168860
Si Si3 0.423144 0.250335 0.194358
Si Si4 0.024057 0.450669 0.691676
Si Si5 0.000000 0.000000 0.392473
Si Si6 0.333333 0.666667 0.771923
O O1 0.728109 0.523615 0.603147
O O2 0.574741 0.451149 0.551705
O O3 0.593427 0.516900 0.698069
O O4 0.628627 0.390008 0.687082
O O5 0.178038 0.193597 0.139943
O O6 0.086513 0.260408 0.115134
O O7 0.027185 0.092657 0.138102
O O8 0.333334 0.236062 0.166667
O O9 0.402574 0.192427 0.283133
O O10 0.046226 0.379559 0.666667
O O11 0.000000 0.000000 0.500000
O O12 0.333334 0.666668 0.666667
#
# Coordination Sequence:
#
# PCOD9576898 Si02
#       6
#    18  18  18  18   6   6
#     4  11  22  40  66  91 122 170 217 267 325 381
#     4  12  19  36  61  93 133 162 209 257 324 399
#     4  10  20  35  61  97 134 164 199 262 333 393
#     4  11  22  36  59  99 135 164 202 263 334 395
#     4  12  25  50  70  91 119 169 246 289 308 382
#     4  12  19  26  58  99 124 152 205 259 314 379
#
# _framework density 19.200488
#
# number of rings (size 3 to 8) (size 9 to 14) (size 15 to 20)
#    0.000    0.857    6.429    2.571    0.000    0.000 
#    3.857    1.071    0.000    0.000    0.000    0.000 
#    0.000    0.000    0.000    0.000    0.000    0.000 
#
# Total GULP energy -155967.014002 kJ/mol
# GULP energy per Si atom -5570.250500 kJ/mol
# Density = 1.915679 g / cm^3
# Si number density = 19.200488 Si / 1000 Ang^3
#
#
#
# Elastic Constant Matrix: (Units=GPa)
#
#
# Indices 1 2 3 4 5 6 
#
# 1 109.8162 51.6334 14.5411 16.6863 0.0012 -0.0003
# 2 51.6334 109.8168 14.5412 -16.6868 -0.0009 0.0003
# 3 14.5411 14.5412 53.2381 -0.0001 -0.0008 -0.0001
# 4 16.6863 -16.6868 -0.0001 49.4962 -0.0058 -0.0038
# 5 0.0012 -0.0009 -0.0008 -0.0058 49.4662 16.6826
# 6 -0.0003 0.0003 -0.0001 -0.0038 16.6826 29.0909
#
#
#
# Elastic Compliance Matrix: (Units=1/GPa)
#
#
# Indices 1 2 3 4 5 6 
#
# 1 0.013911 -0.007396 -0.001779 -0.007183 -0.000001 0.000000
# 2 -0.007396 0.013911 -0.001779 0.007183 0.000001 0.000000
# 3 -0.001779 -0.001779 0.019756 0.000000 0.000000 0.000000
# 4 -0.007183 0.007183 0.000000 0.025047 0.000003 0.000002
# 5 -0.000001 0.000001 0.000000 0.000003 0.025063 -0.014373
# 6 0.000000 0.000000 0.000000 0.000002 -0.014373 0.042617
#
#
# Mechanical properties :
#
#
# Convention : Reuss Voigt Hill
#
# Bulk Modulus (GPa) = 38.96043 48.25583 43.60813
# Shear Modulus (GPa) = 29.27909 38.42104 33.85007
#
# Velocity S-wave (km/s) = 3.90925 4.47816 4.20334
# Velocity P-wave (km/s) = 6.38058 7.20595 6.80579
#
# Compressibility (1/GPa) = 0.02566707
#
# Stress axis : x y z
#
# Youngs Moduli (GPa) = 71.88611 71.88635 50.61878
#
# Poissons Ratio (x) = 0.53171 0.09007
# Poissons Ratio (y) = 0.53170 0.09007
# Poissons Ratio (z) = 0.12791 0.12791
#
# Static dielectric constant tensor:
#      x y z
#    x 1.493320 -0.000030 -0.000010 
#    y -0.000030 1.493510 0.000000 
#    z -0.000010 0.000000 1.718340 
# 
# From -- ./inp_files/5001.got.cif
#   From: 2010.05.17/outbox.cif.g08.bks.cpg/sg155_3_cif.got.tgz:5001.got - 2010.05.20 10:44:35.
