data_PCOD9576092
_publ_section_title
;
Structure prediction by ZEFSAII (Michael W. Deem and Ramdas Pophale) SiO2 
 PCOD9576092
Probable space group: P 31 2 1
;
_chemical_formula_sum "Si O2"
_cell_formula_units_Z 18
_cell_length_a 12.620904
_cell_length_b 12.620904
_cell_length_c 7.056202
_cell_angle_alpha 90.000000
_cell_angle_beta 90.000000
_cell_angle_gamma 120.000000
_cell_volume 973.380324
_symmetry_space_group_name_H-M "P 31 2 1"
_symmetry_group_IT_number 152
_symmetry_cell_setting 'hexagonal'
loop_
_space_group_symop_operation_xyz
x,y,z
-y,x-y,1/3+z
-x+y,-x,2/3+z
x-y,-y,2/3-z
-x,-x+y,1/3-z
y,x,-z
loop_
_atom_site_type_symbol
_atom_site_label
_atom_site_fract_x
_atom_site_fract_y
_atom_site_fract_z
Si Si1 0.358248 0.249762 0.636582
Si Si2 0.416899 0.646845 0.855469
Si Si3 0.901897 0.000000 0.833334
Si Si4 0.000000 0.591426 0.666667
O O1 0.349273 0.349273 0.500000
O O2 0.467550 0.228088 0.576892
O O3 0.227537 0.129944 0.594985
O O4 0.566565 0.097774 0.439640
O O5 0.394257 0.695032 0.053213
O O6 0.300776 0.372452 0.151996
O O7 0.000000 0.057343 0.666667
#
# Coordination Sequence:
#
# PCOD9576092 Si02
#       4
#     6   6   3   3
#     4  10  24  42  63  98 130 167 227 269 327 398
#     4  12  23  41  68  99 131 176 221 277 335 393
#     4  10  24  44  66  94 134 172 224 272 324 392
#     4  12  24  42  72  96 140 174 218 284 330 390
#
# _framework density 18.492256999999999
#
# number of rings (size 3 to 8) (size 9 to 14) (size 15 to 20)
#    1.000    0.000    6.667    0.000    4.667    0.000 
#    0.000    3.333    0.000    0.000    0.000    0.000 
#    0.000    0.000    0.000    0.000    0.000    0.000 
#
# Total GULP energy -100416.562912 kJ/mol
# GULP energy per Si atom -5578.697940 kJ/mol
# Density = 1.845017 g / cm^3
# Si number density = 18.492257 Si / 1000 Ang^3
#
#
#
# Elastic Constant Matrix: (Units=GPa)
#
#
# Indices 1 2 3 4 5 6 
#
# 1 86.6016 41.9637 39.2846 -1.6586 0.0000 0.0000
# 2 41.9637 86.6016 39.2846 1.6586 0.0000 0.0000
# 3 39.2846 39.2846 107.6805 0.0000 0.0000 0.0000
# 4 -1.6586 1.6586 0.0000 37.4928 0.0000 0.0000
# 5 0.0000 0.0000 0.0000 0.0000 37.4928 -1.6586
# 6 0.0000 0.0000 0.0000 0.0000 -1.6586 22.3190
#
#
#
# Elastic Compliance Matrix: (Units=1/GPa)
#
#
# Indices 1 2 3 4 5 6 
#
# 1 0.016243 -0.006233 -0.003652 0.000994 0.000000 0.000000
# 2 -0.006233 0.016243 -0.003652 -0.000994 0.000000 0.000000
# 3 -0.003652 -0.003652 0.011951 0.000000 0.000000 0.000000
# 4 0.000994 -0.000994 0.000000 0.026760 0.000000 0.000000
# 5 0.000000 0.000000 0.000000 0.000000 0.026760 0.001989
# 6 0.000000 0.000000 0.000000 0.000000 0.001989 0.044953
#
#
# Mechanical properties :
#
#
# Convention : Reuss Voigt Hill
#
# Bulk Modulus (GPa) = 57.59164 57.99441 57.79302
# Shear Modulus (GPa) = 28.44599 30.15095 29.29847
#
# Velocity S-wave (km/s) = 3.92633 4.04228 3.98473
# Velocity P-wave (km/s) = 7.19486 7.29495 7.24508
#
# Compressibility (1/GPa) = 0.01736363
#
# Stress axis : x y z
#
# Youngs Moduli (GPa) = 61.56450 61.56450 83.67274
#
# Poissons Ratio (x) = 0.38375 0.30556
# Poissons Ratio (y) = 0.38375 0.30556
# Poissons Ratio (z) = 0.22483 0.22483
#
# Static dielectric constant tensor:
#      x y z
#    x 1.614590 0.000000 0.000000 
#    y 0.000000 1.614590 0.000000 
#    z 0.000000 0.000000 1.628940 
# 
# From -- ./inp_files/859.got.cif
#   From: 2010.05.17/outbox.cif.g08.bks.cpg/sg152_1_cif.got.tgz:859.got - 2010.05.20 10:36:06.
