data_PCOD9576513
_publ_section_title
;
Structure prediction by ZEFSAII (Michael W. Deem and Ramdas Pophale) SiO2 
 PCOD9576513
Probable space group: P 32 2 1
;
_chemical_formula_sum "Si O2"
_cell_formula_units_Z 24
_cell_length_a 16.196519
_cell_length_b 16.196519
_cell_length_c 5.188855
_cell_angle_alpha 90.000000
_cell_angle_beta 90.000000
_cell_angle_gamma 120.000000
_cell_volume 1178.814681
_symmetry_space_group_name_H-M "P 32 2 1"
_symmetry_group_IT_number 154
_symmetry_cell_setting 'hexagonal'
loop_
_space_group_symop_operation_xyz
x,y,z
-y,x-y,2/3+z
-x+y,-x,1/3+z
x-y,-y,1/3-z
-x,-x+y,2/3-z
y,x,-z
loop_
_atom_site_type_symbol
_atom_site_label
_atom_site_fract_x
_atom_site_fract_y
_atom_site_fract_z
Si Si1 0.769432 0.610116 0.994897
Si Si2 0.664744 0.244463 0.355288
Si Si3 0.536466 0.642662 0.517285
Si Si4 0.064228 0.888957 0.593704
O O1 0.805198 0.533588 0.036977
O O2 0.688866 0.578632 0.209751
O O3 0.848606 0.716728 0.067724
O O4 0.721075 0.592115 0.710947
O O5 0.737875 0.352312 0.263417
O O6 0.574660 0.183722 0.171582
O O7 0.555008 0.555008 0.500000
O O8 0.000000 0.858986 0.333334
O O9 0.106857 0.000000 0.666667
O O10 0.000000 0.830695 0.833334
#
# Coordination Sequence:
#
# PCOD9576513 Si02
#       4
#     6   6   6   6
#     4  11  24  41  65  93 129 166 218 268 324 385
#     4  10  20  39  63  91 129 173 219 255 325 382
#     4  11  22  38  63  92 129 170 217 267 320 382
#     4  12  25  44  68  95 129 169 217 271 335 399
#
# _framework density 20.359435000000001
#
# number of rings (size 3 to 8) (size 9 to 14) (size 15 to 20)
#    0.000    1.000    2.500    5.250    0.000    1.000 
#    0.000    5.000    0.000    0.000    0.000    0.000 
#    0.000    0.000    0.000    0.000    0.000    0.000 
#
# Total GULP energy -133879.850030 kJ/mol
# GULP energy per Si atom -5578.327085 kJ/mol
# Density = 2.031310 g / cm^3
# Si number density = 20.359435 Si / 1000 Ang^3
#
#
#
# Elastic Constant Matrix: (Units=GPa)
#
#
# Indices 1 2 3 4 5 6 
#
# 1 77.0130 33.5714 8.1207 3.3604 0.0001 0.0000
# 2 33.5714 77.0130 8.1207 -3.3604 -0.0001 0.0000
# 3 8.1207 8.1207 81.2911 0.0000 0.0000 0.0000
# 4 3.3604 -3.3604 0.0000 18.6015 0.0000 -0.0001
# 5 0.0001 -0.0001 0.0000 0.0000 18.6015 3.3604
# 6 0.0000 0.0000 0.0000 -0.0001 3.3604 21.7208
#
#
#
# Elastic Compliance Matrix: (Units=1/GPa)
#
#
# Indices 1 2 3 4 5 6 
#
# 1 0.016429 -0.007252 -0.000917 -0.004278 0.000000 0.000000
# 2 -0.007252 0.016429 -0.000917 0.004278 0.000000 0.000000
# 3 -0.000917 -0.000917 0.012485 0.000000 0.000000 0.000000
# 4 -0.004278 0.004278 0.000000 0.055305 0.000000 0.000000
# 5 0.000000 0.000000 0.000000 0.000000 0.055305 -0.008556
# 6 0.000000 0.000000 0.000000 0.000000 -0.008556 0.047363
#
#
# Mechanical properties :
#
#
# Convention : Reuss Voigt Hill
#
# Bulk Modulus (GPa) = 36.80195 37.21585 37.00890
# Shear Modulus (GPa) = 21.68782 24.15170 22.91976
#
# Velocity S-wave (km/s) = 3.26735 3.44796 3.35887
# Velocity P-wave (km/s) = 5.68766 5.84554 5.76714
#
# Compressibility (1/GPa) = 0.02717247
#
# Stress axis : x y z
#
# Youngs Moduli (GPa) = 60.86648 60.86648 80.09838
#
# Poissons Ratio (x) = 0.44140 0.07343
# Poissons Ratio (y) = 0.44140 0.07343
# Poissons Ratio (z) = 0.05580 0.05580
#
# Static dielectric constant tensor:
#      x y z
#    x 1.784410 0.000000 0.000000 
#    y 0.000000 1.784410 0.000000 
#    z 0.000000 0.000000 1.746230 
# 
# From -- ./inp_files/125.got.cif
#   From: 2010.05.17/outbox.cif.g08.bks.cpg/sg154_1_cif.got.tgz:125.got - 2010.05.20 10:41:43.
