data_PCOD9576050
_publ_section_title
;
Structure prediction by ZEFSAII (Michael W. Deem and Ramdas Pophale) SiO2 
 PCOD9576050
Probable space group: P 31 2 1
;
_chemical_formula_sum "Si O2"
_cell_formula_units_Z 45
_cell_length_a 11.750992
_cell_length_b 11.750992
_cell_length_c 17.272373
_cell_angle_alpha 90.000000
_cell_angle_beta 90.000000
_cell_angle_gamma 120.000000
_cell_volume 2065.530922
_symmetry_space_group_name_H-M "P 31 2 1"
_symmetry_group_IT_number 152
_symmetry_cell_setting 'hexagonal'
loop_
_space_group_symop_operation_xyz
x,y,z
-y,x-y,1/3+z
-x+y,-x,2/3+z
x-y,-y,2/3-z
-x,-x+y,1/3-z
y,x,-z
loop_
_atom_site_type_symbol
_atom_site_label
_atom_site_fract_x
_atom_site_fract_y
_atom_site_fract_z
Si Si1 0.000000 0.637117 0.166667
Si Si2 0.056881 0.216693 0.948010
Si Si3 0.752498 0.610658 0.958929
Si Si4 0.216365 0.249815 0.340946
Si Si5 0.523592 0.842381 0.566619
Si Si6 0.005776 0.410343 0.482364
Si Si7 0.729079 0.441967 0.104616
Si Si8 0.876942 0.741655 0.551005
O O1 0.132669 0.634062 0.182406
O O2 0.997357 0.714956 0.242059
O O3 0.998498 0.289032 0.897324
O O4 0.156306 0.187869 0.899971
O O5 0.117278 0.294359 0.027881
O O6 0.934626 0.082471 0.979271
O O7 0.664067 0.559232 0.882592
O O8 0.907873 0.711642 0.951549
O O9 0.693988 0.693988 0.000000
O O10 0.742921 0.500616 0.018063
O O11 0.237305 0.384451 0.304616
O O12 0.495428 0.962387 0.568263
O O13 0.384310 0.711523 0.566692
O O14 0.612569 0.854811 0.492987
O O15 0.148611 0.504042 0.518229
O O16 0.809839 0.809839 0.500000
#
# Coordination Sequence:
#
# PCOD9576050 Si02
#       8
#     3   6   6   6   6   6   6   6
#     4  10  22  44  68 102 142 170 242 290 352 424
#     4  11  25  44  74 107 142 186 241 301 372 433
#     4   9  22  43  70 101 135 176 242 295 359 426
#     4  11  23  41  70 108 133 185 231 302 361 423
#     4  12  28  44  73  97 150 189 243 289 367 444
#     4  11  25  46  70 103 140 190 245 294 358 444
#     4  10  24  43  70 101 137 189 232 302 353 425
#     4  11  26  46  69 110 147 186 233 313 372 429
#
# _framework density 21.786166999999999
#
# number of rings (size 3 to 8) (size 9 to 14) (size 15 to 20)
#    0.000    1.333    2.667    0.800    7.467    5.333 
#    4.800    0.000    0.000    0.000    0.000    0.000 
#    0.000    0.000    0.000    0.000    0.000    0.000 
#
# Total GULP energy -251444.647388 kJ/mol
# GULP energy per Si atom -5587.658831 kJ/mol
# Density = 2.173658 g / cm^3
# Si number density = 21.786167 Si / 1000 Ang^3
#
#
#
# Elastic Constant Matrix: (Units=GPa)
#
#
# Indices 1 2 3 4 5 6 
#
# 1 95.4878 34.4362 20.9783 -7.7913 0.0000 0.0000
# 2 34.4362 95.4878 20.9783 7.7913 0.0000 0.0000
# 3 20.9783 20.9783 70.4493 0.0000 0.0000 0.0000
# 4 -7.7913 7.7913 0.0000 25.9386 0.0000 0.0000
# 5 0.0000 0.0000 0.0000 0.0000 25.9386 -7.7913
# 6 0.0000 0.0000 0.0000 0.0000 -7.7913 30.5258
#
#
#
# Elastic Compliance Matrix: (Units=1/GPa)
#
#
# Indices 1 2 3 4 5 6 
#
# 1 0.013128 -0.004612 -0.002536 0.005329 0.000000 0.000000
# 2 -0.004612 0.013128 -0.002536 -0.005329 0.000000 0.000000
# 3 -0.002536 -0.002536 0.015705 0.000000 0.000000 0.000000
# 4 0.005329 -0.005329 0.000000 0.041754 0.000000 0.000000
# 5 0.000000 0.000000 0.000000 0.000000 0.041754 0.010657
# 6 0.000000 0.000000 0.000000 0.000000 0.010657 0.035479
#
#
# Mechanical properties :
#
#
# Convention : Reuss Voigt Hill
#
# Bulk Modulus (GPa) = 44.26140 46.02337 45.14239
# Shear Modulus (GPa) = 26.61774 28.81610 27.71692
#
# Velocity S-wave (km/s) = 3.49918 3.64081 3.57070
# Velocity P-wave (km/s) = 6.05690 6.23257 6.14536
#
# Compressibility (1/GPa) = 0.02259305
#
# Stress axis : x y z
#
# Youngs Moduli (GPa) = 76.17511 76.17511 63.67474
#
# Poissons Ratio (x) = 0.35132 0.16147
# Poissons Ratio (y) = 0.35132 0.16147
# Poissons Ratio (z) = 0.19316 0.19316
#
# Static dielectric constant tensor:
#      x y z
#    x 1.792160 0.000000 0.000000 
#    y 0.000000 1.792160 0.000000 
#    z 0.000000 0.000000 1.810870 
# 
# From -- ./inp_files/2518.got.cif
#   From: 2010.05.17/outbox.cif.g08.bks.cpg/sg152_2_cif.got.tgz:2518.got - 2010.05.20 10:36:06.
