data_PCOD9576704
_publ_section_title
;
Structure prediction by ZEFSAII (Michael W. Deem and Ramdas Pophale) SiO2 
 PCOD9576704
Probable space group: P 32 2 1
;
_chemical_formula_sum "Si O2"
_cell_formula_units_Z 36
_cell_length_a 7.968052
_cell_length_b 7.968052
_cell_length_c 29.603375
_cell_angle_alpha 90.000000
_cell_angle_beta 90.000000
_cell_angle_gamma 120.000000
_cell_volume 1627.706799
_symmetry_space_group_name_H-M "P 32 2 1"
_symmetry_group_IT_number 154
_symmetry_cell_setting 'hexagonal'
loop_
_space_group_symop_operation_xyz
x,y,z
-y,x-y,2/3+z
-x+y,-x,1/3+z
x-y,-y,1/3-z
-x,-x+y,2/3-z
y,x,-z
loop_
_atom_site_type_symbol
_atom_site_label
_atom_site_fract_x
_atom_site_fract_y
_atom_site_fract_z
Si Si1 0.691892 0.324369 0.144549
Si Si2 0.041543 0.282943 0.158571
Si Si3 0.754864 0.384041 0.042485
Si Si4 0.072661 0.405319 0.923127
Si Si5 0.312501 0.295735 0.636827
Si Si6 0.011933 0.976215 0.575598
O O1 0.826232 0.249482 0.165550
O O2 0.687828 0.490455 0.173359
O O3 0.798379 0.411680 0.095854
O O4 0.482066 0.161279 0.126879
O O5 0.081511 0.184292 0.201144
O O6 0.046333 0.172222 0.113901
O O7 0.519054 0.262700 0.044188
O O8 0.797971 0.217513 0.024017
O O9 0.863459 0.575400 0.013866
O O10 0.954322 0.513744 0.935869
O O11 0.971039 0.179238 0.926863
O O12 0.074599 0.904187 0.720086
#
# Coordination Sequence:
#
# PCOD9576704 Si02
#       6
#     6   6   6   6   6   6
#     4   9  20  41  60  92 136 175 229 266 352 410
#     4  11  21  39  63  96 135 174 223 285 344 417
#     4   8  19  40  65  89 132 181 226 269 353 400
#     4   8  20  40  63  93 131 172 222 276 353 394
#     4   9  19  42  67  93 135 177 231 282 345 411
#     4  11  21  40  67 100 130 169 234 285 339 413
#
# _framework density 22.117007999999998
#
# number of rings (size 3 to 8) (size 9 to 14) (size 15 to 20)
#    2.000    0.333    3.333    1.000    0.000    1.333 
#   12.000    3.333    7.333    0.000    0.000    0.000 
#    0.000    0.000    0.000    0.000    0.000    0.000 
#
# Total GULP energy -200606.075284 kJ/mol
# GULP energy per Si atom -5572.390980 kJ/mol
# Density = 2.206667 g / cm^3
# Si number density = 22.117008 Si / 1000 Ang^3
#
#
#
# Elastic Constant Matrix: (Units=GPa)
#
#
# Indices 1 2 3 4 5 6 
#
# 1 90.4054 32.8885 27.6418 -2.8977 0.0000 0.0000
# 2 32.8885 90.4054 27.6418 2.8977 0.0000 0.0000
# 3 27.6418 27.6418 60.7218 0.0000 0.0000 0.0000
# 4 -2.8977 2.8977 0.0000 26.5990 0.0000 0.0000
# 5 0.0000 0.0000 0.0000 0.0000 26.5990 -2.8977
# 6 0.0000 0.0000 0.0000 0.0000 -2.8977 28.7584
#
#
#
# Elastic Compliance Matrix: (Units=1/GPa)
#
#
# Indices 1 2 3 4 5 6 
#
# 1 0.013885 -0.003694 -0.004639 0.001915 0.000000 0.000000
# 2 -0.003694 0.013885 -0.004639 -0.001915 0.000000 0.000000
# 3 -0.004639 -0.004639 0.020692 0.000000 0.000000 0.000000
# 4 0.001915 -0.001915 0.000000 0.038013 0.000000 0.000000
# 5 0.000000 0.000000 0.000000 0.000000 0.038013 0.003830
# 6 0.000000 0.000000 0.000000 0.000000 0.003830 0.035158
#
#
# Mechanical properties :
#
#
# Convention : Reuss Voigt Hill
#
# Bulk Modulus (GPa) = 44.40988 46.43074 45.42031
# Shear Modulus (GPa) = 25.89382 26.61532 26.25457
#
# Velocity S-wave (km/s) = 3.42536 3.47275 3.44913
# Velocity P-wave (km/s) = 5.98057 6.09252 6.03680
#
# Compressibility (1/GPa) = 0.02251751
#
# Stress axis : x y z
#
# Youngs Moduli (GPa) = 72.02020 72.02020 48.32750
#
# Poissons Ratio (x) = 0.26606 0.22419
# Poissons Ratio (y) = 0.26606 0.22419
# Poissons Ratio (z) = 0.33411 0.33411
#
# Static dielectric constant tensor:
#      x y z
#    x 1.831150 0.000000 0.000000 
#    y 0.000000 1.831150 0.000000 
#    z 0.000000 0.000000 1.833540 
# 
# From -- ./inp_files/3625.got.cif
#   From: 2010.05.17/outbox.cif.g08.bks.cpg/sg154_2_cif.got.tgz:3625.got - 2010.05.20 10:41:43.
