data_PCOD9576032
_publ_section_title
;
Structure prediction by ZEFSAII (Michael W. Deem and Ramdas Pophale) SiO2 
 PCOD9576032
Probable space group: P 31 2 1
;
_chemical_formula_sum "Si O2"
_cell_formula_units_Z 36
_cell_length_a 8.399870
_cell_length_b 8.399870
_cell_length_c 25.204460
_cell_angle_alpha 90.000000
_cell_angle_beta 90.000000
_cell_angle_gamma 120.000000
_cell_volume 1540.115028
_symmetry_space_group_name_H-M "P 31 2 1"
_symmetry_group_IT_number 152
_symmetry_cell_setting 'hexagonal'
loop_
_space_group_symop_operation_xyz
x,y,z
-y,x-y,1/3+z
-x+y,-x,2/3+z
x-y,-y,2/3-z
-x,-x+y,1/3-z
y,x,-z
loop_
_atom_site_type_symbol
_atom_site_label
_atom_site_fract_x
_atom_site_fract_y
_atom_site_fract_z
Si Si1 0.114670 0.000000 0.833334
Si Si2 0.321769 0.517167 0.628127
Si Si3 0.621856 0.298112 0.482662
Si Si4 0.423996 0.161965 0.911120
Si Si5 0.694198 0.726009 0.206310
Si Si6 0.585632 0.000000 0.333334
Si Si7 0.394516 0.230802 0.636579
O O1 0.080544 0.171434 0.840229
O O2 0.234110 0.005629 0.884654
O O3 0.338778 0.518831 0.564457
O O4 0.157032 0.551549 0.642690
O O5 0.278469 0.324711 0.654216
O O6 0.508018 0.683484 0.652435
O O7 0.728536 0.459783 0.525211
O O8 0.461909 0.117349 0.510812
O O9 0.779255 0.273328 0.455251
O O10 0.365676 0.269781 0.952488
O O11 0.588951 0.152119 0.941569
O O12 0.780275 0.713951 0.262211
#
# Coordination Sequence:
#
# PCOD9576032 Si02
#       7
#     3   6   6   6   6   3   6
#     4  12  22  38  62  94 126 164 216 274 328 388
#     4  11  21  39  63  87 125 165 213 265 328 398
#     4  11  22  41  65  92 125 171 217 271 328 397
#     4  10  23  42  66  92 128 171 218 272 335 397
#     4  11  23  38  62  92 126 164 216 271 332 394
#     4  10  22  42  66  94 130 174 212 268 336 406
#     4  10  23  41  62  92 126 170 216 271 335 402
#
# _framework density 23.374874999999999
#
# number of rings (size 3 to 8) (size 9 to 14) (size 15 to 20)
#    0.000    1.333    0.000    6.000    0.000    4.000 
#    0.000    8.333    0.000    2.000    0.000    0.000 
#    0.000    0.000    0.000    0.000    0.000    0.000 
#
# Total GULP energy -201142.363579 kJ/mol
# GULP energy per Si atom -5587.287877 kJ/mol
# Density = 2.332167 g / cm^3
# Si number density = 23.374875 Si / 1000 Ang^3
#
#
#
# Elastic Constant Matrix: (Units=GPa)
#
#
# Indices 1 2 3 4 5 6 
#
# 1 72.2737 3.2659 13.9483 -2.4997 0.0001 0.0000
# 2 3.2659 72.2737 13.9483 2.4997 -0.0001 0.0000
# 3 13.9483 13.9483 76.3824 0.0000 0.0000 0.0000
# 4 -2.4997 2.4997 0.0000 40.3307 0.0000 -0.0001
# 5 0.0001 -0.0001 0.0000 0.0000 40.3307 -2.4997
# 6 0.0000 0.0000 0.0000 -0.0001 -2.4997 34.5039
#
#
#
# Elastic Compliance Matrix: (Units=1/GPa)
#
#
# Indices 1 2 3 4 5 6 
#
# 1 0.014376 -0.000181 -0.002592 0.000902 0.000000 0.000000
# 2 -0.000181 0.014376 -0.002592 -0.000902 0.000000 0.000000
# 3 -0.002592 -0.002592 0.014039 0.000000 0.000000 0.000000
# 4 0.000902 -0.000902 0.000000 0.024907 0.000000 0.000000
# 5 0.000000 0.000000 0.000000 0.000000 0.024907 0.001804
# 6 0.000000 0.000000 0.000000 0.000000 0.001804 0.029113
#
#
# Mechanical properties :
#
#
# Convention : Reuss Voigt Hill
#
# Bulk Modulus (GPa) = 31.19092 31.47274 31.33183
# Shear Modulus (GPa) = 34.93224 35.68419 35.30822
#
# Velocity S-wave (km/s) = 3.86999 3.91142 3.89076
# Velocity P-wave (km/s) = 5.77424 5.82173 5.79803
#
# Compressibility (1/GPa) = 0.03206061
#
# Stress axis : x y z
#
# Youngs Moduli (GPa) = 69.56066 69.56066 71.23130
#
# Poissons Ratio (x) = 0.01256 0.18465
# Poissons Ratio (y) = 0.01256 0.18465
# Poissons Ratio (z) = 0.18032 0.18032
#
# Static dielectric constant tensor:
#      x y z
#    x 1.940200 0.000000 0.000000 
#    y 0.000000 1.940200 0.000000 
#    z 0.000000 0.000000 1.888580 
# 
# From -- ./inp_files/3458.got.cif
#   From: 2010.05.17/outbox.cif.g08.bks.cpg/sg152_2_cif.got.tgz:3458.got - 2010.05.20 10:36:06.
