data_PCOD9576917
_publ_section_title
;
Structure prediction by ZEFSAII (Michael W. Deem and Ramdas Pophale) SiO2 
 PCOD9576917
Probable space group: R 3 2
;
_chemical_formula_sum "Si O2"
_cell_formula_units_Z 93
_cell_length_a 15.880932
_cell_length_b 15.880932
_cell_length_c 24.284523
_cell_angle_alpha 90.000000
_cell_angle_beta 90.000000
_cell_angle_gamma 120.000000
_cell_volume 5304.105839
_symmetry_space_group_name_H-M "R 3 2"
_symmetry_group_IT_number 155
_symmetry_cell_setting 'hexagonal'
loop_
_space_group_symop_operation_xyz
x,y,z
-y,x-y,z
-x+y,-x,z
x-y,-y,-z
-x,-x+y,-z
y,x,-z
2/3+x,1/3+y,1/3+z
2/3-y,1/3+x-y,1/3+z
2/3-x+y,1/3-x,1/3+z
2/3+x-y,1/3-y,1/3-z
2/3-x,1/3-x+y,1/3-z
2/3+y,1/3+x,1/3-z
1/3+x,2/3+y,2/3+z
1/3-y,2/3+x-y,2/3+z
1/3-x+y,2/3-x,2/3+z
1/3+x-y,2/3-y,2/3-z
1/3-x,2/3-x+y,2/3-z
1/3+y,2/3+x,2/3-z
loop_
_atom_site_type_symbol
_atom_site_label
_atom_site_fract_x
_atom_site_fract_y
_atom_site_fract_z
Si Si1 0.595769 0.873443 0.724563
Si Si2 0.972654 0.812816 0.239715
Si Si3 0.000000 0.000000 0.424743
Si Si4 0.706645 0.888476 0.149005
Si Si5 0.179173 0.666667 0.166667
Si Si6 0.224640 0.047693 0.143222
Si Si7 0.333334 0.666668 0.962762
O O1 0.552956 0.886289 0.666667
O O2 0.712715 0.918324 0.725638
O O3 0.597192 0.902112 0.563544
O O4 0.556308 0.767535 0.753169
O O5 0.904515 0.818886 0.191423
O O6 0.058338 0.809766 0.206756
O O7 0.008073 0.908682 0.274932
O O8 0.897656 0.979009 0.449526
O O9 0.000000 0.000000 0.360739
O O10 0.591166 0.831444 0.153757
O O11 0.760045 0.827467 0.136330
O O12 0.333334 0.088750 0.166667
#
# Coordination Sequence:
#
# PCOD9576917 Si02
#       7
#    18  18   6  18   9  18   6
#     4  10  22  38  58  89 127 154 204 256 303 372
#     4  10  20  37  59  89 115 156 203 251 301 361
#     4  10  28  42  57  93 123 154 205 253 314 361
#     4  11  19  37  66  83 113 169 200 240 312 369
#     4  10  22  44  60  86 122 160 206 244 306 384
#     4   9  20  36  58  90 118 153 206 251 299 368
#     4  12  22  37  66  87 127 151 201 274 305 349
#
# _framework density 17.533587000000001
#
# number of rings (size 3 to 8) (size 9 to 14) (size 15 to 20)
#    0.000    1.935    3.871    1.161    5.419    0.774 
#    1.161    0.000    0.000    0.000    0.000    0.000 
#    0.000    0.000    0.000    0.000    0.000    0.000 
#
# Total GULP energy -172787.280766 kJ/mol
# GULP energy per Si atom -5573.783251 kJ/mol
# Density = 1.749368 g / cm^3
# Si number density = 17.533587 Si / 1000 Ang^3
#
#
#
# Elastic Constant Matrix: (Units=GPa)
#
#
# Indices 1 2 3 4 5 6 
#
# 1 -101.2458 232.4925 32.0893 66.0413 0.0080 0.0000
# 2 232.4925 -101.2451 32.1235 -66.0415 -0.0080 0.0000
# 3 32.0893 32.1235 92.8140 0.0061 0.0000 0.0000
# 4 66.0413 -66.0415 0.0061 -12.1354 0.0000 -0.0079
# 5 0.0080 -0.0080 0.0000 0.0000 -12.0065 65.6890
# 6 0.0000 0.0000 0.0000 -0.0079 65.6890 -165.9070
#
#
#
# Elastic Compliance Matrix: (Units=1/GPa)
#
#
# Indices 1 2 3 4 5 6 
#
# 1 0.005885 0.003287 -0.003173 0.014133 0.000002 0.000000
# 2 0.003287 0.005884 -0.003172 -0.014133 -0.000002 0.000000
# 3 -0.003173 -0.003172 0.012969 0.000001 0.000000 0.000000
# 4 0.014133 -0.014133 0.000001 0.071420 0.000000 -0.000003
# 5 0.000002 -0.000002 0.000000 0.000000 0.071417 0.028277
# 6 0.000000 0.000000 0.000000 -0.000003 0.028277 0.005168
#
#
# Mechanical properties :
#
#
# Convention : Reuss Voigt Hill
#
# Bulk Modulus (GPa) = 53.70100 53.74820 53.72460
# Shear Modulus (GPa) = 27.01743 -65.10194 -19.04226
#
# Velocity S-wave (km/s) = 3.92968 -6.10004 -3.29909
# Velocity P-wave (km/s) = 7.16128 4.34660 4.02436
#
# Compressibility (1/GPa) = 0.01862163
#
# Stress axis : x y z
#
# Youngs Moduli (GPa) = 169.93788 169.95536 77.10593
#
# Poissons Ratio (x) = -0.55868 0.24467
# Poissons Ratio (y) = -0.55862 0.24458
# Poissons Ratio (z) = 0.53924 0.53911
#
# Static dielectric constant tensor:
#      x y z
#    x 1.728370 0.000000 0.000000 
#    y 0.000000 1.727760 -0.000010 
#    z 0.000000 -0.000010 1.580940 
# 
# From -- ./inp_files/6915.got.cif
#   From: 2010.05.17/outbox.cif.g08.bks.cpg/sg155_4_cif.got.tgz:6915.got - 2010.05.20 10:44:35.
