data_PCOD9576988
_publ_section_title
;
Structure prediction by ZEFSAII (Michael W. Deem and Ramdas Pophale) SiO2 
 PCOD9576988
Probable space group: R 3 2
;
_chemical_formula_sum "Si O2"
_cell_formula_units_Z 69
_cell_length_a 14.118735
_cell_length_b 14.118735
_cell_length_c 18.397207
_cell_angle_alpha 90.000000
_cell_angle_beta 90.000000
_cell_angle_gamma 120.000000
_cell_volume 3175.953245
_symmetry_space_group_name_H-M "R 3 2"
_symmetry_group_IT_number 155
_symmetry_cell_setting 'hexagonal'
loop_
_space_group_symop_operation_xyz
x,y,z
-y,x-y,z
-x+y,-x,z
x-y,-y,-z
-x,-x+y,-z
y,x,-z
2/3+x,1/3+y,1/3+z
2/3-y,1/3+x-y,1/3+z
2/3-x+y,1/3-x,1/3+z
2/3+x-y,1/3-y,1/3-z
2/3-x,1/3-x+y,1/3-z
2/3+y,1/3+x,1/3-z
1/3+x,2/3+y,2/3+z
1/3-y,2/3+x-y,2/3+z
1/3-x+y,2/3-x,2/3+z
1/3+x-y,2/3-y,2/3-z
1/3-x,2/3-x+y,2/3-z
1/3+y,2/3+x,2/3-z
loop_
_atom_site_type_symbol
_atom_site_label
_atom_site_fract_x
_atom_site_fract_y
_atom_site_fract_z
Si Si1 0.121599 0.726467 0.535228
Si Si2 0.666668 0.333334 0.746776
Si Si3 0.000000 0.876359 0.000000
Si Si4 0.365822 0.941893 0.890784
Si Si5 0.731044 0.563085 0.961341
O O1 0.145255 0.654611 0.592148
O O2 0.217067 0.790124 0.475049
O O3 0.145859 0.826576 0.589422
O O4 0.000000 0.665852 0.500000
O O5 0.666668 0.333334 0.833334
O O6 0.613338 0.212725 0.717476
O O7 0.897071 0.897071 0.000000
O O8 0.287334 0.954001 0.833334
O O9 0.438460 0.066972 0.920301
O O10 0.290778 0.866903 0.955501
#
# Coordination Sequence:
#
# PCOD9576988 Si02
#       5
#    18   6   9  18  18
#     4  11  23  45  71 101 135 186 239 297 356 431
#     4  12  21  36  57  99 147 175 215 295 375 414
#     4  10  28  52  70  98 146 184 238 292 358 440
#     4   9  20  38  66  97 133 189 235 286 365 428
#     4  10  21  38  65  99 141 179 231 294 356 441
#
# _framework density 21.725760000000001
#
# number of rings (size 3 to 8) (size 9 to 14) (size 15 to 20)
#    0.261    1.565    0.000    4.696    7.304    4.174 
#    9.391    0.000    0.000    0.000    0.000    0.000 
#    0.000    0.000    0.000    0.000    0.000    0.000 
#
# Total GULP energy -128392.688959 kJ/mol
# GULP energy per Si atom -5582.290824 kJ/mol
# Density = 2.167631 g / cm^3
# Si number density = 21.725760 Si / 1000 Ang^3
#
#
#
# Elastic Constant Matrix: (Units=GPa)
#
#
# Indices 1 2 3 4 5 6 
#
# 1 73.7889 14.4059 41.2852 8.6148 -0.0008 0.0000
# 2 14.4059 73.7909 41.2849 -8.6152 0.0011 0.0001
# 3 41.2852 41.2849 157.1622 -0.0002 0.0001 0.0000
# 4 8.6148 -8.6152 -0.0002 16.8185 0.0001 0.0011
# 5 -0.0008 0.0011 0.0001 0.0001 16.8181 8.6147
# 6 0.0000 0.0001 0.0000 0.0011 8.6147 29.6935
#
#
#
# Elastic Compliance Matrix: (Units=1/GPa)
#
#
# Indices 1 2 3 4 5 6 
#
# 1 0.017408 -0.002371 -0.003950 -0.010132 0.000001 0.000000
# 2 -0.002371 0.017407 -0.003950 0.010132 -0.000001 0.000000
# 3 -0.003950 -0.003950 0.008438 0.000000 0.000000 0.000000
# 4 -0.010132 0.010132 0.000000 0.069838 0.000000 -0.000002
# 5 0.000001 -0.000001 0.000000 0.000000 0.069838 -0.020261
# 6 0.000000 0.000000 0.000000 -0.000002 -0.020261 0.039556
#
#
# Mechanical properties :
#
#
# Convention : Reuss Voigt Hill
#
# Bulk Modulus (GPa) = 44.03123 55.41045 49.72084
# Shear Modulus (GPa) = 19.95226 26.51708 23.23467
#
# Velocity S-wave (km/s) = 3.03375 3.49741 3.27380
# Velocity P-wave (km/s) = 5.70809 6.47063 6.10128
#
# Compressibility (1/GPa) = 0.02271115
#
# Stress axis : x y z
#
# Youngs Moduli (GPa) = 57.44466 57.44658 118.51054
#
# Poissons Ratio (x) = 0.13623 0.46812
# Poissons Ratio (y) = 0.13622 0.46809
# Poissons Ratio (z) = 0.22691 0.22690
#
# Static dielectric constant tensor:
#      x y z
#    x 1.784230 0.000000 0.000000 
#    y 0.000000 1.784230 0.000000 
#    z 0.000000 0.000000 1.801130 
# 
# From -- ./inp_files/5898.got.cif
#   From: 2010.05.17/outbox.cif.g08.bks.cpg/sg155_3_cif.got.tgz:5898.got - 2010.05.20 10:44:35.
