data_PCOD9576134
_publ_section_title
;
Structure prediction by ZEFSAII (Michael W. Deem and Ramdas Pophale) SiO2 
 PCOD9576134
Probable space group: P 31 2 1
;
_chemical_formula_sum "Si O2"
_cell_formula_units_Z 30
_cell_length_a 12.455895
_cell_length_b 12.455895
_cell_length_c 12.990754
_cell_angle_alpha 90.000000
_cell_angle_beta 90.000000
_cell_angle_gamma 120.000000
_cell_volume 1745.479963
_symmetry_space_group_name_H-M "P 31 2 1"
_symmetry_group_IT_number 152
_symmetry_cell_setting 'hexagonal'
loop_
_space_group_symop_operation_xyz
x,y,z
-y,x-y,1/3+z
-x+y,-x,2/3+z
x-y,-y,2/3-z
-x,-x+y,1/3-z
y,x,-z
loop_
_atom_site_type_symbol
_atom_site_label
_atom_site_fract_x
_atom_site_fract_y
_atom_site_fract_z
Si Si1 0.933853 0.591721 0.554071
Si Si2 0.331449 0.750575 0.380785
Si Si3 0.739907 0.690884 0.883701
Si Si4 0.474181 0.608082 0.819241
Si Si5 0.863150 0.007783 0.210723
O O1 0.803471 0.466856 0.568828
O O2 0.000000 0.626663 0.666667
O O3 0.027616 0.564647 0.488863
O O4 0.926678 0.709546 0.517417
O O5 0.355938 0.792721 0.261930
O O6 0.234964 0.607192 0.400769
O O7 0.278162 0.831603 0.436292
O O8 0.623252 0.679503 0.819883
O O9 0.869351 0.784687 0.833625
O O10 0.730537 0.730537 0.000000
O O11 0.869055 0.000000 0.333334
O O12 0.000000 0.079346 0.166667
#
# Coordination Sequence:
#
# PCOD9576134 Si02
#       5
#     6   6   6   6   6
#     4   8  16  30  50  73  96 127 173 208 244 296
#     4   9  16  30  53  78 102 130 168 216 257 300
#     4   9  18  33  55  77 100 133 178 216 251 303
#     4   9  16  30  53  78 100 130 168 216 256 297
#     4  11  21  35  53  72 103 137 175 212 249 313
#
# _framework density 17.187249999999999
#
# number of rings (size 3 to 8) (size 9 to 14) (size 15 to 20)
#    0.000    2.800    2.000    3.000    0.000    0.000 
#    3.600    0.000    0.000    1.200    0.000    0.000 
#    0.000    0.000    0.000    0.000    0.000    0.000 
#
# Total GULP energy -167113.566080 kJ/mol
# GULP energy per Si atom -5570.452203 kJ/mol
# Density = 1.714813 g / cm^3
# Si number density = 17.187250 Si / 1000 Ang^3
#
#
#
# Elastic Constant Matrix: (Units=GPa)
#
#
# Indices 1 2 3 4 5 6 
#
# 1 67.6643 31.5175 8.2601 -2.2525 0.0000 0.0000
# 2 31.5175 67.6643 8.2601 2.2525 0.0000 0.0000
# 3 8.2601 8.2601 12.0663 0.0000 0.0000 0.0000
# 4 -2.2525 2.2525 0.0000 16.0291 0.0000 0.0000
# 5 0.0000 0.0000 0.0000 0.0000 16.0291 -2.2525
# 6 0.0000 0.0000 0.0000 0.0000 -2.2525 18.0734
#
#
#
# Elastic Compliance Matrix: (Units=1/GPa)
#
#
# Indices 1 2 3 4 5 6 
#
# 1 0.019769 -0.008389 -0.007790 0.003957 0.000000 0.000000
# 2 -0.008389 0.019769 -0.007790 -0.003957 0.000000 0.000000
# 3 -0.007790 -0.007790 0.093542 0.000000 0.000000 0.000000
# 4 0.003957 -0.003957 0.000000 0.063499 0.000000 0.000000
# 5 0.000000 0.000000 0.000000 0.000000 0.063499 0.007914
# 6 0.000000 0.000000 0.000000 0.000000 0.007914 0.056316
#
#
# Mechanical properties :
#
#
# Convention : Reuss Voigt Hill
#
# Bulk Modulus (GPa) = 11.74531 27.05223 19.39877
# Shear Modulus (GPa) = 12.73195 16.65014 14.69105
#
# Velocity S-wave (km/s) = 2.72468 3.11585 2.92681
# Velocity P-wave (km/s) = 4.09232 5.35897 4.76789
#
# Compressibility (1/GPa) = 0.08514033
#
# Stress axis : x y z
#
# Youngs Moduli (GPa) = 50.58397 50.58397 10.69044
#
# Poissons Ratio (x) = 0.42435 0.08328
# Poissons Ratio (y) = 0.42435 0.08328
# Poissons Ratio (z) = 0.39407 0.39407
#
# Static dielectric constant tensor:
#      x y z
#    x 1.586990 0.000000 0.000000 
#    y 0.000000 1.586990 0.000000 
#    z 0.000000 0.000000 1.572980 
# 
# From -- ./inp_files/1943.got.cif
#   From: 2010.05.17/outbox.cif.g08.bks.cpg/sg152_1_cif.got.tgz:1943.got - 2010.05.20 10:36:06.
