data_PCOD9576052
_publ_section_title
;
Structure prediction by ZEFSAII (Michael W. Deem and Ramdas Pophale) SiO2 
 PCOD9576052
Probable space group: P 31 2 1
;
_chemical_formula_sum "Si O2"
_cell_formula_units_Z 33
_cell_length_a 14.144202
_cell_length_b 14.144202
_cell_length_c 9.530857
_cell_angle_alpha 90.000000
_cell_angle_beta 90.000000
_cell_angle_gamma 120.000000
_cell_volume 1651.275302
_symmetry_space_group_name_H-M "P 31 2 1"
_symmetry_group_IT_number 152
_symmetry_cell_setting 'hexagonal'
loop_
_space_group_symop_operation_xyz
x,y,z
-y,x-y,1/3+z
-x+y,-x,2/3+z
x-y,-y,2/3-z
-x,-x+y,1/3-z
y,x,-z
loop_
_atom_site_type_symbol
_atom_site_label
_atom_site_fract_x
_atom_site_fract_y
_atom_site_fract_z
Si Si1 0.680923 0.550795 0.991194
Si Si2 0.962475 0.962475 0.000000
Si Si3 0.000000 0.613726 0.166667
Si Si4 0.546071 0.311041 0.563108
Si Si5 0.730329 0.931278 0.050038
Si Si6 0.000000 0.682767 0.666667
Si Si7 0.667217 0.201640 0.204501
O O1 0.694273 0.487772 0.128505
O O2 0.608624 0.608624 0.000000
O O3 0.803413 0.643366 0.960205
O O4 0.622463 0.461495 0.870287
O O5 0.845001 0.953562 0.993453
O O6 0.000000 0.007548 0.166667
O O7 0.886175 0.501955 0.165717
O O8 0.006064 0.687303 0.297244
O O9 0.674221 0.389654 0.588843
O O10 0.495781 0.279424 0.718369
O O11 0.734569 0.968706 0.207004
O O12 0.892524 0.566419 0.626373
#
# Coordination Sequence:
#
# PCOD9576052 Si02
#       7
#     6   3   3   6   6   3   6
#     4  11  24  41  69  99 137 186 229 282 362 435
#     4  12  25  45  74 100 136 182 244 305 361 430
#     4  10  22  44  70  92 142 182 222 286 366 416
#     4  11  24  41  69 103 137 181 233 290 350 433
#     4  11  23  44  66  98 134 182 230 287 356 428
#     4  12  25  41  72 100 136 182 234 287 359 424
#     4  12  23  42  68 102 138 178 233 287 348 431
#
# _framework density 19.984553999999999
#
# number of rings (size 3 to 8) (size 9 to 14) (size 15 to 20)
#    0.000    0.727    6.364    1.636    0.000    1.455 
#    0.000    0.000    2.000    0.000    0.000    0.000 
#    0.000    0.000    0.000    0.000    0.000    0.000 
#
# Total GULP energy -183708.801900 kJ/mol
# GULP energy per Si atom -5566.933391 kJ/mol
# Density = 1.993907 g / cm^3
# Si number density = 19.984554 Si / 1000 Ang^3
#
#
#
# Elastic Constant Matrix: (Units=GPa)
#
#
# Indices 1 2 3 4 5 6 
#
# 1 102.0345 45.3876 19.5086 3.9630 -0.0001 0.0000
# 2 45.3876 102.0345 19.5086 -3.9630 0.0001 0.0000
# 3 19.5086 19.5086 111.7150 0.0000 0.0000 0.0000
# 4 3.9630 -3.9630 0.0000 12.8711 0.0000 0.0001
# 5 -0.0001 0.0001 0.0000 0.0000 12.8711 3.9630
# 6 0.0000 0.0000 0.0000 0.0001 3.9630 28.3235
#
#
#
# Elastic Compliance Matrix: (Units=1/GPa)
#
#
# Indices 1 2 3 4 5 6 
#
# 1 0.012780 -0.005668 -0.001242 -0.005680 0.000000 0.000000
# 2 -0.005668 0.012780 -0.001242 0.005680 0.000000 0.000000
# 3 -0.001242 -0.001242 0.009385 0.000000 0.000000 0.000000
# 4 -0.005680 0.005680 0.000000 0.081191 0.000000 0.000000
# 5 0.000000 0.000000 0.000000 0.000000 0.081191 -0.011360
# 6 0.000000 0.000000 0.000000 0.000000 -0.011360 0.036896
#
#
# Mechanical properties :
#
#
# Convention : Reuss Voigt Hill
#
# Bulk Modulus (GPa) = 53.64461 53.84374 53.74417
# Shear Modulus (GPa) = 19.47493 26.23841 22.85667
#
# Velocity S-wave (km/s) = 3.12508 3.62738 3.38556
# Velocity P-wave (km/s) = 6.31845 6.67420 6.49876
#
# Compressibility (1/GPa) = 0.01864120
#
# Stress axis : x y z
#
# Youngs Moduli (GPa) = 78.24758 78.24758 106.55174
#
# Poissons Ratio (x) = 0.44351 0.13233
# Poissons Ratio (y) = 0.44351 0.13233
# Poissons Ratio (z) = 0.09718 0.09718
#
# Static dielectric constant tensor:
#      x y z
#    x 1.727640 0.000000 0.000000 
#    y 0.000000 1.727640 0.000000 
#    z 0.000000 0.000000 1.860650 
# 
# From -- ./inp_files/1190.got.cif
#   From: 2010.05.17/outbox.cif.g08.bks.cpg/sg152_1_cif.got.tgz:1190.got - 2010.05.20 10:36:06.
