data_PCOD9576514
_publ_section_title
;
Structure prediction by ZEFSAII (Michael W. Deem and Ramdas Pophale) SiO2 
 PCOD9576514
Probable space group: P 32 2 1
;
_chemical_formula_sum "Si O2"
_cell_formula_units_Z 39
_cell_length_a 9.193289
_cell_length_b 9.193289
_cell_length_c 25.578916
_cell_angle_alpha 90.000000
_cell_angle_beta 90.000000
_cell_angle_gamma 120.000000
_cell_volume 1872.210140
_symmetry_space_group_name_H-M "P 32 2 1"
_symmetry_group_IT_number 154
_symmetry_cell_setting 'hexagonal'
loop_
_space_group_symop_operation_xyz
x,y,z
-y,x-y,2/3+z
-x+y,-x,1/3+z
x-y,-y,1/3-z
-x,-x+y,2/3-z
y,x,-z
loop_
_atom_site_type_symbol
_atom_site_label
_atom_site_fract_x
_atom_site_fract_y
_atom_site_fract_z
Si Si1 0.242702 0.801647 0.899734
Si Si2 0.631671 0.240034 0.889849
Si Si3 0.397727 0.953654 0.342674
Si Si4 0.197215 0.678686 0.269991
Si Si5 0.590109 0.049891 0.508347
Si Si6 0.109433 0.708700 0.736681
Si Si7 0.000000 0.348176 0.333334
O O1 0.277629 0.647094 0.907727
O O2 0.046701 0.730009 0.895705
O O3 0.302341 0.907223 0.953822
O O4 0.363537 0.907327 0.852441
O O5 0.567748 0.179694 0.948232
O O6 0.494267 0.258116 0.854321
O O7 0.664703 0.097208 0.865148
O O8 0.780325 0.430031 0.896758
O O9 0.245034 0.846600 0.302708
O O10 0.570206 0.031656 0.310110
O O11 0.044739 0.605125 0.229707
O O12 0.141590 0.522617 0.308507
O O13 0.213289 0.894088 0.711514
#
# Coordination Sequence:
#
# PCOD9576514 Si02
#       7
#     6   6   6   6   6   6   3
#     4  10  22  38  60  93 131 159 212 268 322 377
#     4  11  22  39  66  95 130 167 218 259 322 385
#     4  10  20  39  63  96 123 165 217 274 301 385
#     4  11  19  37  62  91 121 168 213 254 315 377
#     4  11  22  39  59  99 123 172 206 270 313 393
#     4  11  21  38  65  95 127 167 216 266 324 384
#     4  12  20  36  62  98 118 168 214 268 310 392
#
# _framework density 20.830992999999999
#
# number of rings (size 3 to 8) (size 9 to 14) (size 15 to 20)
#    0.000    1.231    6.154    0.923    0.000    0.615 
#    0.000    3.846    0.000    0.000   32.000    0.000 
#    0.000    0.000    0.000    0.000    0.000    0.000 
#
# Total GULP energy -217160.144827 kJ/mol
# GULP energy per Si atom -5568.208842 kJ/mol
# Density = 2.078358 g / cm^3
# Si number density = 20.830993 Si / 1000 Ang^3
#
#
#
# Elastic Constant Matrix: (Units=GPa)
#
#
# Indices 1 2 3 4 5 6 
#
# 1 70.6607 17.8779 11.2135 -1.3108 -0.0004 0.0000
# 2 17.8779 70.6607 11.2135 1.3108 0.0004 0.0000
# 3 11.2135 11.2135 73.6374 0.0000 0.0000 0.0000
# 4 -1.3108 1.3108 0.0000 17.3233 0.0000 0.0004
# 5 -0.0004 0.0004 0.0000 0.0000 17.3233 -1.3108
# 6 0.0000 0.0000 0.0000 0.0004 -1.3108 26.3914
#
#
#
# Elastic Compliance Matrix: (Units=1/GPa)
#
#
# Indices 1 2 3 4 5 6 
#
# 1 0.015382 -0.003635 -0.001789 0.001439 0.000000 0.000000
# 2 -0.003635 0.015382 -0.001789 -0.001439 0.000000 0.000000
# 3 -0.001789 -0.001789 0.014125 0.000000 0.000000 0.000000
# 4 0.001439 -0.001439 0.000000 0.057943 0.000000 -0.000001
# 5 0.000000 0.000000 0.000000 0.000000 0.057943 0.002878
# 6 0.000000 0.000000 0.000000 -0.000001 0.002878 0.038034
#
#
# Mechanical properties :
#
#
# Convention : Reuss Voigt Hill
#
# Bulk Modulus (GPa) = 32.82511 32.84093 32.83302
# Shear Modulus (GPa) = 22.38236 23.85121 23.11678
#
# Velocity S-wave (km/s) = 3.28147 3.38744 3.33488
# Velocity P-wave (km/s) = 5.49085 5.57667 5.53393
#
# Compressibility (1/GPa) = 0.03046449
#
# Stress axis : x y z
#
# Youngs Moduli (GPa) = 65.00960 65.00960 70.79706
#
# Poissons Ratio (x) = 0.23629 0.12665
# Poissons Ratio (y) = 0.23629 0.12665
# Poissons Ratio (z) = 0.11630 0.11630
#
# Static dielectric constant tensor:
#      x y z
#    x 1.759810 0.000000 0.000000 
#    y 0.000000 1.759810 0.000000 
#    z 0.000000 0.000000 1.840060 
# 
# From -- ./inp_files/3690.got.cif
#   From: 2010.05.17/outbox.cif.g08.bks.cpg/sg154_2_cif.got.tgz:3690.got - 2010.05.20 10:41:43.
