data_PCOD9576278
_publ_section_title
;
Structure prediction by ZEFSAII (Michael W. Deem and Ramdas Pophale) SiO2 
 PCOD9576278
Probable space group: P 32 1 2
;
_chemical_formula_sum "Si O2"
_cell_formula_units_Z 39
_cell_length_a 7.917187
_cell_length_b 7.917187
_cell_length_c 32.889045
_cell_angle_alpha 90.000000
_cell_angle_beta 90.000000
_cell_angle_gamma 120.000000
_cell_volume 1785.351367
_symmetry_space_group_name_H-M "P 32 1 2"
_symmetry_group_IT_number 153
_symmetry_cell_setting 'hexagonal'
loop_
_space_group_symop_operation_xyz
x,y,z
-y,x-y,2/3+z
-x+y,-x,1/3+z
-y,-x,1/3-z
-x+y,y,2/3-z
x,x-y,-z
loop_
_atom_site_type_symbol
_atom_site_label
_atom_site_fract_x
_atom_site_fract_y
_atom_site_fract_z
Si Si1 0.117213 0.488897 0.250442
Si Si2 0.540698 0.770349 0.000000
Si Si3 0.991253 0.754182 0.134111
Si Si4 0.091353 0.481494 0.092461
Si Si5 0.221922 0.851472 0.830508
Si Si6 0.793377 0.781521 0.396286
Si Si7 0.155733 0.806878 0.353515
O O1 0.124593 0.370452 0.290236
O O2 0.325162 0.693845 0.246973
O O3 0.102057 0.383692 0.208110
O O4 0.974702 0.576840 0.257971
O O5 0.394190 0.847930 0.988185
O O6 0.805144 0.737907 0.155786
O O7 0.959426 0.562008 0.111353
O O8 0.072017 0.920623 0.100021
O O9 0.168790 0.831210 0.166667
O O10 0.113013 0.352600 0.127336
O O11 0.048942 0.387036 0.047990
O O12 0.427368 0.854735 0.833334
O O13 0.738330 0.873633 0.357810
O O14 0.967705 0.756605 0.380097
#
# Coordination Sequence:
#
# PCOD9576278 Si02
#       7
#     6   3   6   6   6   6   6
#     4   8  15  29  49  73  98 132 175 217 263 316
#     4   8  14  26  48  74 100 136 176 214 256 318
#     4  11  21  34  53  79 107 138 179 224 270 324
#     4   9  17  31  53  76 100 136 179 218 259 320
#     4  10  20  35  54  77 106 140 176 218 272 329
#     4   9  17  30  52  82 106 133 179 229 270 320
#     4   9  16  29  52  80 106 137 181 226 267 317
#
# _framework density 21.844436999999999
#
# number of rings (size 3 to 8) (size 9 to 14) (size 15 to 20)
#    0.000    2.769    0.000    4.154    0.000    0.000 
#    0.000    3.846    0.000    0.000    0.000   43.077 
#    0.000    0.000    0.000    0.000    0.000    0.000 
#
# Total GULP energy -217475.367844 kJ/mol
# GULP energy per Si atom -5576.291483 kJ/mol
# Density = 2.179472 g / cm^3
# Si number density = 21.844437 Si / 1000 Ang^3
#
#
#
# Elastic Constant Matrix: (Units=GPa)
#
#
# Indices 1 2 3 4 5 6 
#
# 1 51.2383 13.8428 22.9054 0.0000 -6.5480 0.0000
# 2 13.8428 51.2383 22.9054 0.0000 6.5480 0.0000
# 3 22.9054 22.9054 125.6456 0.0000 0.0000 0.0000
# 4 0.0000 0.0000 0.0000 12.9696 0.0000 6.5480
# 5 -6.5480 6.5480 0.0000 0.0000 12.9696 0.0000
# 6 0.0000 0.0000 0.0000 6.5480 0.0000 18.6977
#
#
#
# Elastic Compliance Matrix: (Units=1/GPa)
#
#
# Indices 1 2 3 4 5 6 
#
# 1 0.025056 -0.007429 -0.003214 0.000000 0.016401 0.000000
# 2 -0.007429 0.025056 -0.003214 0.000000 -0.016401 0.000000
# 3 -0.003214 -0.003214 0.009131 0.000000 0.000000 0.000000
# 4 0.000000 0.000000 0.000000 0.093664 0.000000 -0.032801
# 5 0.016401 -0.016401 0.000000 0.000000 0.093664 0.000000
# 6 0.000000 0.000000 0.000000 -0.032801 0.000000 0.064970
#
#
# Mechanical properties :
#
#
# Convention : Reuss Voigt Hill
#
# Bulk Modulus (GPa) = 31.71443 38.60327 35.15885
# Shear Modulus (GPa) = 14.29541 20.15861 17.22701
#
# Velocity S-wave (km/s) = 2.56094 3.04110 2.81129
# Velocity P-wave (km/s) = 4.82642 5.48100 5.16409
#
# Compressibility (1/GPa) = 0.03153139
#
# Stress axis : x y z
#
# Youngs Moduli (GPa) = 39.91041 39.91041 109.52246
#
# Poissons Ratio (x) = 0.29648 0.35195
# Poissons Ratio (y) = 0.29648 0.35195
# Poissons Ratio (z) = 0.12825 0.12825
#
# Static dielectric constant tensor:
#      x y z
#    x 1.815420 0.000000 0.000000 
#    y 0.000000 1.815420 0.000000 
#    z 0.000000 0.000000 1.851250 
# 
# From -- ./inp_files/5117.got.cif
#   From: 2010.05.17/outbox.cif.g08.bks.cpg/sg153_3_cif.got.tgz:5117.got - 2010.05.20 10:38:56.
