data_PCOD9576162
_publ_section_title
;
Structure prediction by ZEFSAII (Michael W. Deem and Ramdas Pophale) SiO2 
 PCOD9576162
Probable space group: P 31 2 1
;
_chemical_formula_sum "Si O2"
_cell_formula_units_Z 12
_cell_length_a 4.495291
_cell_length_b 4.495291
_cell_length_c 21.232047
_cell_angle_alpha 90.000000
_cell_angle_beta 90.000000
_cell_angle_gamma 120.000000
_cell_volume 371.567842
_symmetry_space_group_name_H-M "P 31 2 1"
_symmetry_group_IT_number 152
_symmetry_cell_setting 'hexagonal'
loop_
_space_group_symop_operation_xyz
x,y,z
-y,x-y,1/3+z
-x+y,-x,2/3+z
x-y,-y,2/3-z
-x,-x+y,1/3-z
y,x,-z
loop_
_atom_site_type_symbol
_atom_site_label
_atom_site_fract_x
_atom_site_fract_y
_atom_site_fract_z
Si Si1 0.365939 0.194393 0.707706
Si Si2 0.557461 0.104999 0.211481
O O1 0.636137 0.583078 0.682913
O O2 0.347316 0.938113 0.763037
O O3 0.081966 0.290270 0.734774
O O4 0.456890 0.220968 0.146991
#
# Coordination Sequence:
#
# PCOD9576162 Si02
#       2
#     6   6
#     4   9  21  46  75 112 153 202 255 315 382 456
#     4  11  24  44  76 112 154 200 254 317 384 458
#
# _framework density 32.295582000000003
#
# number of rings (size 3 to 8) (size 9 to 14) (size 15 to 20)
#    0.000    2.000    0.000    1.500    0.000    8.000 
#    0.000   37.500    0.000    0.000    0.000    0.000 
#    0.000    0.000    0.000    0.000    0.000    0.000 
#
# Total GULP energy -66840.283174 kJ/mol
# GULP energy per Si atom -5570.023598 kJ/mol
# Density = 3.222208 g / cm^3
# Si number density = 32.295582 Si / 1000 Ang^3
#
#
#
# Elastic Constant Matrix: (Units=GPa)
#
#
# Indices 1 2 3 4 5 6 
#
# 1 164.2284 41.1429 53.3577 -2.1943 0.0000 0.0000
# 2 41.1429 164.2284 53.3577 2.1943 0.0000 0.0000
# 3 53.3577 53.3577 209.7171 0.0000 0.0000 0.0000
# 4 -2.1943 2.1943 0.0000 80.9907 0.0000 0.0000
# 5 0.0000 0.0000 0.0000 0.0000 80.9907 -2.1943
# 6 0.0000 0.0000 0.0000 0.0000 -2.1943 61.5428
#
#
#
# Elastic Compliance Matrix: (Units=1/GPa)
#
#
# Indices 1 2 3 4 5 6 
#
# 1 0.006872 -0.001261 -0.001428 0.000220 0.000000 0.000000
# 2 -0.001261 0.006872 -0.001428 -0.000220 0.000000 0.000000
# 3 -0.001428 -0.001428 0.005495 0.000000 0.000000 0.000000
# 4 0.000220 -0.000220 0.000000 0.012359 0.000000 0.000000
# 5 0.000000 0.000000 0.000000 0.000000 0.012359 0.000441
# 6 0.000000 0.000000 0.000000 0.000000 0.000441 0.016265
#
#
# Mechanical properties :
#
#
# Convention : Reuss Voigt Hill
#
# Bulk Modulus (GPa) = 90.85584 92.65452 91.75518
# Shear Modulus (GPa) = 69.32774 70.72589 70.02682
#
# Velocity S-wave (km/s) = 4.63824 4.68477 4.66156
# Velocity P-wave (km/s) = 7.54175 7.61673 7.57933
#
# Compressibility (1/GPa) = 0.01100645
#
# Stress axis : x y z
#
# Youngs Moduli (GPa) = 145.52515 145.52515 181.99122
#
# Poissons Ratio (x) = 0.18345 0.25981
# Poissons Ratio (y) = 0.18345 0.25981
# Poissons Ratio (z) = 0.20775 0.20775
#
# Static dielectric constant tensor:
#      x y z
#    x 2.545530 0.000000 0.000000 
#    y 0.000000 2.545530 0.000000 
#    z 0.000000 0.000000 2.838590 
# 
# From -- ./inp_files/2537.got.cif
#   From: 2010.05.17/outbox.cif.g08.bks.cpg/sg152_2_cif.got.tgz:2537.got - 2010.05.20 10:36:06.
