data_PCOD9576573
_publ_section_title
;
Structure prediction by ZEFSAII (Michael W. Deem and Ramdas Pophale) SiO2 
 PCOD9576573
Probable space group: P 32 2 1
;
_chemical_formula_sum "Si O2"
_cell_formula_units_Z 45
_cell_length_a 14.738626
_cell_length_b 14.738626
_cell_length_c 12.148636
_cell_angle_alpha 90.000000
_cell_angle_beta 90.000000
_cell_angle_gamma 120.000000
_cell_volume 2285.452232
_symmetry_space_group_name_H-M "P 32 2 1"
_symmetry_group_IT_number 154
_symmetry_cell_setting 'hexagonal'
loop_
_space_group_symop_operation_xyz
x,y,z
-y,x-y,2/3+z
-x+y,-x,1/3+z
x-y,-y,1/3-z
-x,-x+y,2/3-z
y,x,-z
loop_
_atom_site_type_symbol
_atom_site_label
_atom_site_fract_x
_atom_site_fract_y
_atom_site_fract_z
Si Si1 0.631854 0.191702 0.222019
Si Si2 0.229306 0.167750 0.888858
Si Si3 0.639234 0.481285 0.777675
Si Si4 0.749661 0.546152 0.435055
Si Si5 0.710396 0.719127 0.712152
Si Si6 0.898210 0.706202 0.619492
Si Si7 0.359975 0.458943 0.062477
Si Si8 0.657229 0.000000 0.166667
O O1 0.579824 0.207161 0.331188
O O2 0.749036 0.277937 0.188429
O O3 0.548580 0.185986 0.133624
O O4 0.634769 0.084745 0.224415
O O5 0.250071 0.071008 0.876560
O O6 0.188457 0.199373 0.782595
O O7 0.343635 0.269433 0.905674
O O8 0.165884 0.165884 0.000000
O O9 0.664967 0.601047 0.759539
O O10 0.528164 0.411762 0.833334
O O11 0.729348 0.630353 0.370594
O O12 0.832316 0.606621 0.535588
O O13 0.804314 0.502233 0.353439
O O14 0.812494 0.737447 0.649174
O O15 0.942719 0.683510 0.732815
O O16 0.449304 0.449304 0.000000
#
# Coordination Sequence:
#
# PCOD9576573 Si02
#       8
#     6   6   6   6   6   6   6   3
#     4  12  24  42  65 101 136 186 223 282 351 418
#     4  10  21  41  74  98 127 178 235 291 347 411
#     4  12  25  43  65 102 148 175 233 288 349 429
#     4  11  22  42  76  97 127 182 249 277 336 433
#     4  11  23  44  71 105 130 179 238 294 345 417
#     4  12  22  45  70  97 137 179 233 296 344 429
#     4  10  21  43  64  98 130 179 227 284 352 405
#     4  12  26  42  68  94 142 186 220 282 370 402
#
# _framework density 19.689757
#
# number of rings (size 3 to 8) (size 9 to 14) (size 15 to 20)
#    0.000    0.800    6.667    2.800    0.000    0.000 
#   14.400    2.000    0.000    0.000    0.000    0.000 
#    0.000    0.000    0.000    0.000    0.000    0.000 
#
# Total GULP energy -250919.934883 kJ/mol
# GULP energy per Si atom -5575.998553 kJ/mol
# Density = 1.964494 g / cm^3
# Si number density = 19.689757 Si / 1000 Ang^3
#
#
#
# Elastic Constant Matrix: (Units=GPa)
#
#
# Indices 1 2 3 4 5 6 
#
# 1 125.8848 -29.3457 29.6538 -56.4265 0.0006 0.0000
# 2 -29.3457 125.8848 29.6538 56.4265 -0.0006 0.0000
# 3 29.6538 29.6538 61.8249 0.0000 0.0000 0.0000
# 4 -56.4265 56.4265 0.0000 53.5878 0.0000 -0.0006
# 5 0.0006 -0.0006 0.0000 0.0000 53.5878 -56.4265
# 6 0.0000 0.0000 0.0000 -0.0006 -56.4265 77.6152
#
#
#
# Elastic Compliance Matrix: (Units=1/GPa)
#
#
# Indices 1 2 3 4 5 6 
#
# 1 0.021080 -0.006394 -0.007044 0.028929 0.000000 0.000000
# 2 -0.006394 0.021080 -0.007044 -0.028929 0.000000 0.000000
# 3 -0.007044 -0.007044 0.022932 0.000000 0.000000 0.000000
# 4 0.028929 -0.028929 0.000000 0.079583 0.000000 0.000001
# 5 0.000000 0.000000 0.000000 0.000000 0.079583 0.057857
# 6 0.000000 0.000000 0.000000 0.000001 0.057857 0.054946
#
#
# Mechanical properties :
#
#
# Convention : Reuss Voigt Hill
#
# Bulk Modulus (GPa) = 41.44604 41.50206 41.47405
# Shear Modulus (GPa) = 15.23417 55.86699 35.55058
#
# Velocity S-wave (km/s) = 2.78458 5.33247 4.25377
# Velocity P-wave (km/s) = 5.60658 7.68358 6.72574
#
# Compressibility (1/GPa) = 0.02412776
#
# Stress axis : x y z
#
# Youngs Moduli (GPa) = 47.43933 47.43933 43.60744
#
# Poissons Ratio (x) = 0.30331 0.30717
# Poissons Ratio (y) = 0.30331 0.30717
# Poissons Ratio (z) = 0.33416 0.33416
#
# Static dielectric constant tensor:
#      x y z
#    x 1.709630 0.000000 0.000000 
#    y 0.000000 1.709630 0.000000 
#    z 0.000000 0.000000 2.748770 
# 
# From -- ./inp_files/1799.got.cif
#   From: 2010.05.17/outbox.cif.g08.bks.cpg/sg154_1_cif.got.tgz:1799.got - 2010.05.20 10:41:43.
