data_PCOD9576616
_publ_section_title
;
Structure prediction by ZEFSAII (Michael W. Deem and Ramdas Pophale) SiO2 
 PCOD9576616
Probable space group: P 32 2 1
;
_chemical_formula_sum "Si O2"
_cell_formula_units_Z 30
_cell_length_a 8.643678
_cell_length_b 8.643678
_cell_length_c 20.566080
_cell_angle_alpha 90.000000
_cell_angle_beta 90.000000
_cell_angle_gamma 120.000000
_cell_volume 1330.697412
_symmetry_space_group_name_H-M "P 32 2 1"
_symmetry_group_IT_number 154
_symmetry_cell_setting 'hexagonal'
loop_
_space_group_symop_operation_xyz
x,y,z
-y,x-y,2/3+z
-x+y,-x,1/3+z
x-y,-y,1/3-z
-x,-x+y,2/3-z
y,x,-z
loop_
_atom_site_type_symbol
_atom_site_label
_atom_site_fract_x
_atom_site_fract_y
_atom_site_fract_z
Si Si1 0.272875 0.172336 0.705163
Si Si2 0.372248 0.166377 0.849049
Si Si3 0.512427 0.960290 0.272057
Si Si4 0.758102 0.272942 0.171641
Si Si5 0.065163 0.222422 0.906319
O O1 0.371550 0.216258 0.773667
O O2 0.355567 0.356334 0.665385
O O3 0.072158 0.108596 0.728060
O O4 0.256011 0.000000 0.666667
O O5 0.570893 0.305393 0.870138
O O6 0.242703 0.211793 0.891491
O O7 0.316670 0.959831 0.842145
O O8 0.450609 0.779199 0.232717
O O9 0.322679 0.950783 0.281308
O O10 0.647526 0.111264 0.221328
O O11 0.000000 0.236060 0.833334
#
# Coordination Sequence:
#
# PCOD9576616 Si02
#       5
#     6   6   6   6   6
#     4  11  23  41  67  97 133 172 222 285 336 393
#     4  11  24  42  69  96 134 182 229 273 342 412
#     4  11  23  43  66  98 134 170 226 278 338 401
#     4  11  23  41  69  96 132 182 224 270 341 410
#     4  10  22  42  67  94 129 175 217 270 338 406
#
# _framework density 22.54457
#
# number of rings (size 3 to 8) (size 9 to 14) (size 15 to 20)
#    0.000    1.200    4.000    2.400   11.200    0.000 
#    0.000    0.000    4.400    0.000    0.000    0.000 
#    0.000    0.000    0.000    0.000    0.000    0.000 
#
# Total GULP energy -167345.287809 kJ/mol
# GULP energy per Si atom -5578.176260 kJ/mol
# Density = 2.249326 g / cm^3
# Si number density = 22.544570 Si / 1000 Ang^3
#
#
#
# Elastic Constant Matrix: (Units=GPa)
#
#
# Indices 1 2 3 4 5 6 
#
# 1 76.9041 26.8758 -13.2435 -10.6453 0.0003 0.0000
# 2 26.8758 76.9041 -13.2435 10.6453 -0.0003 0.0000
# 3 -13.2435 -13.2435 31.0222 0.0000 0.0000 0.0000
# 4 -10.6453 10.6453 0.0000 9.5619 0.0000 -0.0003
# 5 0.0003 -0.0003 0.0000 0.0000 9.5619 -10.6453
# 6 0.0000 0.0000 0.0000 -0.0003 -10.6453 25.0142
#
#
#
# Elastic Compliance Matrix: (Units=1/GPa)
#
#
# Indices 1 2 3 4 5 6 
#
# 1 0.024400 -0.013586 0.004617 0.042290 -0.000001 0.000000
# 2 -0.013586 0.024400 0.004617 -0.042290 0.000001 0.000000
# 3 0.004617 0.004617 0.036177 0.000000 0.000000 0.000000
# 4 0.042290 -0.042290 0.000000 0.198745 0.000000 0.000002
# 5 -0.000001 0.000001 0.000000 0.000000 0.198745 0.084580
# 6 0.000000 0.000000 0.000000 0.000002 0.084580 0.075972
#
#
# Mechanical properties :
#
#
# Convention : Reuss Voigt Hill
#
# Bulk Modulus (GPa) = 13.11119 20.62314 16.86717
# Shear Modulus (GPa) = 8.43784 21.12369 14.78077
#
# Velocity S-wave (km/s) = 1.93671 3.06433 2.56329
# Velocity P-wave (km/s) = 3.29081 4.65701 4.03219
#
# Compressibility (1/GPa) = 0.07627072
#
# Stress axis : x y z
#
# Youngs Moduli (GPa) = 40.98355 40.98355 27.64220
#
# Poissons Ratio (x) = 0.55680 -0.12761
# Poissons Ratio (y) = 0.55680 -0.12761
# Poissons Ratio (z) = -0.18920 -0.18920
#
# Static dielectric constant tensor:
#      x y z
#    x 1.913400 0.000000 0.000000 
#    y 0.000000 1.913400 0.000000 
#    z 0.000000 0.000000 1.961000 
# 
# From -- ./inp_files/3016.got.cif
#   From: 2010.05.17/outbox.cif.g08.bks.cpg/sg154_2_cif.got.tgz:3016.got - 2010.05.20 10:41:43.
