data_PCOD9576304
_publ_section_title
;
Structure prediction by ZEFSAII (Michael W. Deem and Ramdas Pophale) SiO2 
 PCOD9576304
Probable space group: P 32 1 2
;
_chemical_formula_sum "Si O2"
_cell_formula_units_Z 45
_cell_length_a 18.404293
_cell_length_b 18.404293
_cell_length_c 8.454793
_cell_angle_alpha 90.000000
_cell_angle_beta 90.000000
_cell_angle_gamma 120.000000
_cell_volume 2480.115395
_symmetry_space_group_name_H-M "P 32 1 2"
_symmetry_group_IT_number 153
_symmetry_cell_setting 'hexagonal'
loop_
_space_group_symop_operation_xyz
x,y,z
-y,x-y,2/3+z
-x+y,-x,1/3+z
-y,-x,1/3-z
-x+y,y,2/3-z
x,x-y,-z
loop_
_atom_site_type_symbol
_atom_site_label
_atom_site_fract_x
_atom_site_fract_y
_atom_site_fract_z
Si Si1 0.254519 0.930324 0.504336
Si Si2 0.789122 0.479910 0.988471
Si Si3 0.770368 0.229633 0.666667
Si Si4 0.189815 0.924726 0.852285
Si Si5 0.040723 0.107763 0.004227
Si Si6 0.419809 0.011193 0.340647
Si Si7 0.834276 0.752326 0.684906
Si Si8 0.721129 0.053851 0.589313
O O1 0.234126 0.946391 0.681785
O O2 0.174048 0.841969 0.457398
O O3 0.348333 0.951662 0.466103
O O4 0.246407 0.997348 0.397486
O O5 0.744634 0.489268 0.833334
O O6 0.772430 0.386215 0.000000
O O7 0.762771 0.497340 0.162048
O O8 0.889168 0.540066 0.959171
O O9 0.724273 0.129095 0.688058
O O10 0.106286 0.933484 0.868939
O O11 0.255365 0.986757 0.977528
O O12 0.074841 0.149682 0.833334
O O13 0.948429 0.097630 0.007431
O O14 0.038094 0.019047 0.000000
O O15 0.496963 0.993926 0.333334
O O16 0.372484 0.006935 0.176251
O O17 0.856885 0.713770 0.833334
O O18 0.804560 0.701429 0.523529
#
# Coordination Sequence:
#
# PCOD9576304 Si02
#       8
#     6   6   3   6   6   6   6   6
#     4   9  21  35  57  77 112 145 183 237 281 349
#     4  10  23  40  61  85 117 154 195 243 296 360
#     4  10  24  36  56  92 112 156 204 242 302 342
#     4  10  21  36  53  83 110 151 197 234 289 337
#     4  11  22  33  46  68 108 160 213 266 290 324
#     4   9  20  40  58  84 113 142 182 233 295 353
#     4  10  21  34  48  70 105 154 203 246 303 332
#     4  10  21  35  58  80 112 147 193 243 282 360
#
# _framework density 18.144317999999998
#
# number of rings (size 3 to 8) (size 9 to 14) (size 15 to 20)
#    0.000    2.133    1.333    0.400    7.467    3.733 
#    0.000    0.667    0.000    0.000    0.000    0.000 
#   16.000    0.000    0.000    0.000    0.000    0.000 
#
# Total GULP energy -250621.131691 kJ/mol
# GULP energy per Si atom -5569.358482 kJ/mol
# Density = 1.810302 g / cm^3
# Si number density = 18.144318 Si / 1000 Ang^3
#
#
#
# Elastic Constant Matrix: (Units=GPa)
#
#
# Indices 1 2 3 4 5 6 
#
# 1 70.8698 43.3895 42.6469 -0.0003 -1.0039 0.0000
# 2 43.3895 70.8698 42.6469 0.0003 1.0039 0.0000
# 3 42.6469 42.6469 101.0787 0.0000 0.0000 0.0000
# 4 -0.0003 0.0003 0.0000 24.0156 0.0000 1.0039
# 5 -1.0039 1.0039 0.0000 0.0000 24.0156 -0.0003
# 6 0.0000 0.0000 0.0000 1.0039 -0.0003 13.7401
#
#
#
# Elastic Compliance Matrix: (Units=1/GPa)
#
#
# Indices 1 2 3 4 5 6 
#
# 1 0.024639 -0.011863 -0.005390 0.000000 0.001526 0.000000
# 2 -0.011863 0.024639 -0.005390 0.000000 -0.001526 0.000000
# 3 -0.005390 -0.005390 0.014442 0.000000 0.000000 0.000000
# 4 0.000000 0.000000 0.000000 0.041767 0.000000 -0.003052
# 5 0.001526 -0.001526 0.000000 0.000000 0.041767 0.000001
# 6 0.000000 0.000000 0.000000 -0.003052 0.000001 0.073002
#
#
# Mechanical properties :
#
#
# Convention : Reuss Voigt Hill
#
# Bulk Modulus (GPa) = 54.25299 55.57611 54.91455
# Shear Modulus (GPa) = 18.40356 19.96327 19.18342
#
# Velocity S-wave (km/s) = 3.18824 3.32060 3.25509
# Velocity P-wave (km/s) = 6.59689 6.73783 6.66773
#
# Compressibility (1/GPa) = 0.01843216
#
# Stress axis : x y z
#
# Youngs Moduli (GPa) = 40.58676 40.58676 69.24296
#
# Poissons Ratio (x) = 0.48147 0.37325
# Poissons Ratio (y) = 0.48147 0.37325
# Poissons Ratio (z) = 0.21878 0.21878
#
# Static dielectric constant tensor:
#      x y z
#    x 1.669450 0.000000 0.000000 
#    y 0.000000 1.669450 0.000000 
#    z 0.000000 0.000000 1.702810 
# 
# From -- ./inp_files/1952.got.cif
#   From: 2010.05.17/outbox.cif.g08.bks.cpg/sg153_1_cif.got.tgz:1952.got - 2010.05.20 10:38:56.
