data_PCOD9576797
_publ_section_title
;
Structure prediction by ZEFSAII (Michael W. Deem and Ramdas Pophale) SiO2 
 PCOD9576797
Probable space group: R 3 2
;
_chemical_formula_sum "Si O2"
_cell_formula_units_Z 63
_cell_length_a 20.454815
_cell_length_b 20.454815
_cell_length_c 8.721415
_cell_angle_alpha 90.000000
_cell_angle_beta 90.000000
_cell_angle_gamma 120.000000
_cell_volume 3160.157267
_symmetry_space_group_name_H-M "R 3 2"
_symmetry_group_IT_number 155
_symmetry_cell_setting 'hexagonal'
loop_
_space_group_symop_operation_xyz
x,y,z
-y,x-y,z
-x+y,-x,z
x-y,-y,-z
-x,-x+y,-z
y,x,-z
2/3+x,1/3+y,1/3+z
2/3-y,1/3+x-y,1/3+z
2/3-x+y,1/3-x,1/3+z
2/3+x-y,1/3-y,1/3-z
2/3-x,1/3-x+y,1/3-z
2/3+y,1/3+x,1/3-z
1/3+x,2/3+y,2/3+z
1/3-y,2/3+x-y,2/3+z
1/3-x+y,2/3-x,2/3+z
1/3+x-y,2/3-y,2/3-z
1/3-x,2/3-x+y,2/3-z
1/3+y,2/3+x,2/3-z
loop_
_atom_site_type_symbol
_atom_site_label
_atom_site_fract_x
_atom_site_fract_y
_atom_site_fract_z
Si Si1 0.508959 0.868799 0.818445
Si Si2 0.925804 0.708799 0.399651
Si Si3 0.036775 0.333334 0.333334
Si Si4 0.465582 0.201103 0.736832
O O1 0.485585 0.818918 0.666667
O O2 0.538244 0.953333 0.753719
O O3 0.581139 0.874266 0.907364
O O4 0.442259 0.845105 0.939738
O O5 0.885005 0.749212 0.478595
O O6 0.000000 0.729219 0.500000
O O7 0.118737 0.408734 0.331541
O O8 0.000000 0.332286 0.500000
O O9 0.529656 0.196323 0.833334
#
# Coordination Sequence:
#
# PCOD9576797 Si02
#       4
#    18  18   9  18
#     4  11  20  34  57  92 124 154 199 247 310 374
#     4  10  18  33  56  85 120 158 190 240 307 371
#     4  10  20  40  60  84 126 170 214 252 304 370
#     4  10  20  38  56  82 125 165 200 242 308 369
#
# _framework density 19.935717
#
# number of rings (size 3 to 8) (size 9 to 14) (size 15 to 20)
#    0.000    1.714    2.857    5.143    0.000    0.000 
#   10.286    0.000    0.000   15.429    0.000    0.000 
#    0.000    0.000    0.000    0.000    0.000    0.000 
#
# Total GULP energy -117114.425709 kJ/mol
# GULP energy per Si atom -5576.877415 kJ/mol
# Density = 1.989034 g / cm^3
# Si number density = 19.935717 Si / 1000 Ang^3
#
#
#
# Elastic Constant Matrix: (Units=GPa)
#
#
# Indices 1 2 3 4 5 6 
#
# 1 64.6780 26.4920 49.5523 -11.4716 -0.0009 -0.0005
# 2 26.4920 64.6793 49.5565 11.4715 0.0000 0.0001
# 3 49.5523 49.5565 172.0238 0.0000 -0.0017 -0.0009
# 4 -11.4716 11.4715 0.0000 24.4236 0.0001 -0.0003
# 5 -0.0009 0.0000 -0.0017 0.0001 24.4229 -11.4716
# 6 -0.0005 0.0001 -0.0009 -0.0003 -11.4716 19.0937
#
#
#
# Elastic Compliance Matrix: (Units=1/GPa)
#
#
# Indices 1 2 3 4 5 6 
#
# 1 0.026226 -0.010257 -0.004600 0.017136 0.000001 0.000002
# 2 -0.010257 0.026226 -0.004601 -0.017136 -0.000002 -0.000002
# 3 -0.004600 -0.004601 0.008463 0.000000 0.000001 0.000001
# 4 0.017136 -0.017136 0.000000 0.057041 0.000002 0.000002
# 5 0.000001 -0.000002 0.000001 0.000002 0.057043 0.034272
# 6 0.000002 -0.000002 0.000001 0.000002 0.034272 0.072964
#
#
# Mechanical properties :
#
#
# Convention : Reuss Voigt Hill
#
# Bulk Modulus (GPa) = 45.45240 61.39810 53.42525
# Shear Modulus (GPa) = 16.99461 25.30673 21.15067
#
# Velocity S-wave (km/s) = 2.92288 3.56675 3.26075
# Velocity P-wave (km/s) = 5.85149 6.91572 6.40574
#
# Compressibility (1/GPa) = 0.02200104
#
# Stress axis : x y z
#
# Youngs Moduli (GPa) = 38.13072 38.12987 118.15476
#
# Poissons Ratio (x) = 0.39109 0.54347
# Poissons Ratio (y) = 0.39110 0.54360
# Poissons Ratio (z) = 0.17539 0.17542
#
# Static dielectric constant tensor:
#      x y z
#    x 1.718620 0.000000 0.000000 
#    y 0.000000 1.718630 0.000000 
#    z 0.000000 0.000000 1.767590 
# 
# From -- ./inp_files/1973.got.cif
#   From: 2010.05.17/outbox.cif.g08.bks.cpg/sg155_1_cif.got.tgz:1973.got - 2010.05.20 10:44:35.
