data_PCOD9576739
_publ_section_title
;
Structure prediction by ZEFSAII (Michael W. Deem and Ramdas Pophale) SiO2 
 PCOD9576739
Probable space group: P 32 2 1
;
_chemical_formula_sum "Si O2"
_cell_formula_units_Z 24
_cell_length_a 14.377660
_cell_length_b 14.377660
_cell_length_c 5.821997
_cell_angle_alpha 90.000000
_cell_angle_beta 90.000000
_cell_angle_gamma 120.000000
_cell_volume 1042.267096
_symmetry_space_group_name_H-M "P 32 2 1"
_symmetry_group_IT_number 154
_symmetry_cell_setting 'hexagonal'
loop_
_space_group_symop_operation_xyz
x,y,z
-y,x-y,2/3+z
-x+y,-x,1/3+z
x-y,-y,1/3-z
-x,-x+y,2/3-z
y,x,-z
loop_
_atom_site_type_symbol
_atom_site_label
_atom_site_fract_x
_atom_site_fract_y
_atom_site_fract_z
Si Si1 0.276349 0.276349 0.000000
Si Si2 0.779721 0.779721 0.000000
Si Si3 0.482098 0.482098 0.500000
Si Si4 0.173729 0.173729 0.500000
Si Si5 0.465307 0.133738 0.812315
Si Si6 0.499159 0.851724 0.802393
O O1 0.218195 0.223752 0.242240
O O2 0.301158 0.398557 0.969008
O O3 0.747261 0.661606 0.104483
O O4 0.818502 0.882801 0.166492
O O5 0.585710 0.513763 0.346086
O O6 0.374062 0.458421 0.371491
O O7 0.529282 0.122177 0.598178
O O8 0.530059 0.260908 0.850983
#
# Coordination Sequence:
#
# PCOD9576739 Si02
#       6
#     3   3   3   3   6   6
#     4  12  25  51  80 112 158 206 271 333 402 482
#     4  12  27  55  78 118 160 212 271 339 402 482
#     4  12  25  48  75 110 162 206 269 326 413 480
#     4  12  31  50  85 114 156 216 271 332 411 476
#     4  12  28  47  75 115 155 209 262 335 404 481
#     4  12  27  47  75 115 151 209 264 331 404 479
#
# _framework density 23.026727000000001
#
# number of rings (size 3 to 8) (size 9 to 14) (size 15 to 20)
#    0.000    0.000    7.500    0.750    7.000    2.000 
#    0.000    0.000    0.000    0.000    0.000    0.000 
#    0.000    0.000    0.000    0.000    0.000    0.000 
#
# Total GULP energy -133726.358466 kJ/mol
# GULP energy per Si atom -5571.931603 kJ/mol
# Density = 2.297432 g / cm^3
# Si number density = 23.026727 Si / 1000 Ang^3
#
#
#
# Elastic Constant Matrix: (Units=GPa)
#
#
# Indices 1 2 3 4 5 6 
#
# 1 119.6638 40.4596 35.9127 -3.2504 0.0000 0.0000
# 2 40.4596 119.6638 35.9127 3.2504 0.0000 0.0000
# 3 35.9127 35.9127 85.7391 0.0000 0.0000 0.0000
# 4 -3.2504 3.2504 0.0000 30.4860 0.0000 0.0000
# 5 0.0000 0.0000 0.0000 0.0000 30.4860 -3.2504
# 6 0.0000 0.0000 0.0000 0.0000 -3.2504 39.6021
#
#
#
# Elastic Compliance Matrix: (Units=1/GPa)
#
#
# Indices 1 2 3 4 5 6 
#
# 1 0.010214 -0.002524 -0.003221 0.001358 0.000000 0.000000
# 2 -0.002524 0.010214 -0.003221 -0.001358 0.000000 0.000000
# 3 -0.003221 -0.003221 0.014362 0.000000 0.000000 0.000000
# 4 0.001358 -0.001358 0.000000 0.033092 0.000000 0.000000
# 5 0.000000 0.000000 0.000000 0.000000 0.033092 0.002716
# 6 0.000000 0.000000 0.000000 0.000000 0.002716 0.025474
#
#
# Mechanical properties :
#
#
# Convention : Reuss Voigt Hill
#
# Bulk Modulus (GPa) = 59.32079 61.07073 60.19576
# Shear Modulus (GPa) = 33.33416 34.30025 33.81721
#
# Velocity S-wave (km/s) = 3.80890 3.86370 3.83640
# Velocity P-wave (km/s) = 6.72021 6.81788 6.76922
#
# Compressibility (1/GPa) = 0.01685750
#
# Stress axis : x y z
#
# Youngs Moduli (GPa) = 97.90923 97.90923 69.63002
#
# Poissons Ratio (x) = 0.24708 0.22428
# Poissons Ratio (y) = 0.24708 0.22428
# Poissons Ratio (z) = 0.31537 0.31537
#
# Static dielectric constant tensor:
#      x y z
#    x 1.961770 0.000000 0.000000 
#    y 0.000000 1.961770 0.000000 
#    z 0.000000 0.000000 2.063580 
# 
# From -- ./inp_files/255.got.cif
#   From: 2010.05.17/outbox.cif.g08.bks.cpg/sg154_1_cif.got.tgz:255.got - 2010.05.20 10:41:43.
