data_PCOD9576329
_publ_section_title
;
Structure prediction by ZEFSAII (Michael W. Deem and Ramdas Pophale) SiO2 
 PCOD9576329
Probable space group: P 32 1 2
;
_chemical_formula_sum "Si O2"
_cell_formula_units_Z 42
_cell_length_a 9.015079
_cell_length_b 9.015079
_cell_length_c 29.255485
_cell_angle_alpha 90.000000
_cell_angle_beta 90.000000
_cell_angle_gamma 120.000000
_cell_volume 2059.097957
_symmetry_space_group_name_H-M "P 32 1 2"
_symmetry_group_IT_number 153
_symmetry_cell_setting 'hexagonal'
loop_
_space_group_symop_operation_xyz
x,y,z
-y,x-y,2/3+z
-x+y,-x,1/3+z
-y,-x,1/3-z
-x+y,y,2/3-z
x,x-y,-z
loop_
_atom_site_type_symbol
_atom_site_label
_atom_site_fract_x
_atom_site_fract_y
_atom_site_fract_z
Si Si1 0.239540 0.761258 0.966088
Si Si2 0.226145 0.560609 0.451191
Si Si3 0.573480 0.487084 0.347842
Si Si4 0.781935 0.093401 0.897316
Si Si5 0.994514 0.422626 0.783795
Si Si6 0.648901 0.297802 0.833334
Si Si7 0.377924 0.114782 0.328958
Si Si8 0.079410 0.158820 0.833334
O O1 0.276956 0.726628 0.914688
O O2 0.252847 0.626424 0.000000
O O3 0.058996 0.749154 0.977743
O O4 0.394259 0.946444 0.978251
O O5 0.154881 0.577441 0.500000
O O6 0.395814 0.552929 0.461348
O O7 0.089143 0.385454 0.426690
O O8 0.737631 0.475262 0.333334
O O9 0.598471 0.573929 0.396438
O O10 0.414444 0.294163 0.350113
O O11 0.704939 0.193520 0.867975
O O12 0.873400 0.203646 0.942882
O O13 0.917668 0.066423 0.867398
O O14 0.029881 0.278725 0.804123
O O15 0.819954 0.403604 0.803708
O O16 0.557742 0.115483 0.333334
#
# Coordination Sequence:
#
# PCOD9576329 Si02
#       8
#     6   6   6   6   6   3   6   3
#     4  11  23  42  67  94 130 181 227 279 346 410
#     4  12  25  41  67  97 136 174 226 283 348 405
#     4  11  22  40  64  95 129 172 224 283 331 408
#     4  11  22  43  65 100 134 181 218 285 345 411
#     4  11  23  41  65  96 131 176 223 272 331 410
#     4  10  22  38  68  96 132 174 228 264 334 406
#     4  10  22  38  67  94 131 176 231 276 336 412
#     4  10  24  40  68  96 138 174 222 272 342 416
#
# _framework density 20.397279999999999
#
# number of rings (size 3 to 8) (size 9 to 14) (size 15 to 20)
#    0.000    1.143    4.286    2.571    2.000    1.714 
#    0.000    3.571    0.000    0.000    0.000    0.000 
#    0.000    0.000    0.000    0.000    0.000    0.000 
#
# Total GULP energy -234415.678476 kJ/mol
# GULP energy per Si atom -5581.325678 kJ/mol
# Density = 2.035085 g / cm^3
# Si number density = 20.397280 Si / 1000 Ang^3
#
#
#
# Elastic Constant Matrix: (Units=GPa)
#
#
# Indices 1 2 3 4 5 6 
#
# 1 70.4025 21.2390 0.5936 -0.0003 -4.9093 0.0000
# 2 21.2390 70.4025 0.5936 0.0003 4.9093 0.0000
# 3 0.5936 0.5936 71.4251 0.0000 0.0000 0.0000
# 4 -0.0003 0.0003 0.0000 31.2947 0.0000 4.9093
# 5 -4.9093 4.9093 0.0000 0.0000 31.2947 -0.0003
# 6 0.0000 0.0000 0.0000 4.9093 -0.0003 24.5818
#
#
#
# Elastic Compliance Matrix: (Units=1/GPa)
#
#
# Indices 1 2 3 4 5 6 
#
# 1 0.015956 -0.005042 -0.000091 0.000000 0.003294 0.000000
# 2 -0.005042 0.015956 -0.000091 0.000000 -0.003294 0.000000
# 3 -0.000091 -0.000091 0.014002 0.000000 0.000000 0.000000
# 4 0.000000 0.000000 0.000000 0.032988 0.000000 -0.006588
# 5 0.003294 -0.003294 0.000000 0.000000 0.032988 0.000000
# 6 0.000000 0.000000 0.000000 -0.006588 0.000000 0.041996
#
#
# Mechanical properties :
#
#
# Convention : Reuss Voigt Hill
#
# Bulk Modulus (GPa) = 28.19608 28.56472 28.38040
# Shear Modulus (GPa) = 28.38405 30.08782 29.23594
#
# Velocity S-wave (km/s) = 3.73441 3.84486 3.79004
# Velocity P-wave (km/s) = 5.69630 5.80906 5.75296
#
# Compressibility (1/GPa) = 0.03546593
#
# Stress axis : x y z
#
# Youngs Moduli (GPa) = 62.67349 62.67349 71.41741
#
# Poissons Ratio (x) = 0.31603 0.00648
# Poissons Ratio (y) = 0.31603 0.00648
# Poissons Ratio (z) = 0.00568 0.00568
#
# Static dielectric constant tensor:
#      x y z
#    x 1.767800 0.000000 0.000000 
#    y 0.000000 1.767800 0.000000 
#    z 0.000000 0.000000 1.862170 
# 
# From -- ./inp_files/5221.got.cif
#   From: 2010.05.17/outbox.cif.g08.bks.cpg/sg153_3_cif.got.tgz:5221.got - 2010.05.20 10:38:56.
