data_PCOD9576250
_publ_section_title
;
Structure prediction by ZEFSAII (Michael W. Deem and Ramdas Pophale) SiO2 
 PCOD9576250
Probable space group: P 32 1 2
;
_chemical_formula_sum "Si O2"
_cell_formula_units_Z 33
_cell_length_a 14.731808
_cell_length_b 14.731808
_cell_length_c 9.974816
_cell_angle_alpha 90.000000
_cell_angle_beta 90.000000
_cell_angle_gamma 120.000000
_cell_volume 1874.768401
_symmetry_space_group_name_H-M "P 32 1 2"
_symmetry_group_IT_number 153
_symmetry_cell_setting 'hexagonal'
loop_
_space_group_symop_operation_xyz
x,y,z
-y,x-y,2/3+z
-x+y,-x,1/3+z
-y,-x,1/3-z
-x+y,y,2/3-z
x,x-y,-z
loop_
_atom_site_type_symbol
_atom_site_label
_atom_site_fract_x
_atom_site_fract_y
_atom_site_fract_z
Si Si1 0.173120 0.152357 0.126906
Si Si2 0.409976 0.301174 0.721173
Si Si3 0.691725 0.087674 0.860908
Si Si4 0.725998 0.451996 0.833334
Si Si5 0.189100 0.157879 0.624347
Si Si6 0.540858 0.434195 0.948410
O O1 0.273742 0.262353 0.168188
O O2 0.151170 0.076523 0.253929
O O3 0.076258 0.167644 0.090397
O O4 0.195954 0.097977 0.000000
O O5 0.402811 0.200564 0.797263
O O6 0.479338 0.305087 0.594607
O O7 0.291673 0.262858 0.675732
O O8 0.467998 0.402237 0.816136
O O9 0.625570 0.088973 0.736032
O O10 0.620418 0.069225 0.993301
O O11 0.621368 0.391970 0.918444
O O12 0.223984 0.111992 0.500000
#
# Coordination Sequence:
#
# PCOD9576250 Si02
#       6
#     6   6   6   3   6   6
#     4  11  21  35  53  76 105 144 192 229 269 319
#     4  10  19  32  48  71 105 138 179 225 263 313
#     4   9  20  33  47  69 101 137 183 223 261 315
#     4  10  20  32  46  72 102 142 182 208 256 316
#     4  11  21  35  54  77 107 146 187 229 274 320
#     4  10  19  32  49  68  98 144 179 215 263 319
#
# _framework density 17.602174000000002
#
# number of rings (size 3 to 8) (size 9 to 14) (size 15 to 20)
#    0.000    1.818    0.909    5.455    0.000    5.818 
#    0.000    0.000    0.000    0.000    0.000    0.000 
#    0.000    0.000   30.909    1.091    0.364    3.636 
#
# Total GULP energy -183974.938513 kJ/mol
# GULP energy per Si atom -5574.998137 kJ/mol
# Density = 1.756211 g / cm^3
# Si number density = 17.602174 Si / 1000 Ang^3
#
#
#
# Elastic Constant Matrix: (Units=GPa)
#
#
# Indices 1 2 3 4 5 6 
#
# 1 70.8753 60.3040 37.6636 0.0001 -13.2843 0.0000
# 2 60.3040 70.8753 37.6636 -0.0001 13.2843 0.0000
# 3 37.6636 37.6636 113.1674 0.0000 0.0000 0.0000
# 4 0.0001 -0.0001 0.0000 12.4403 0.0000 13.2843
# 5 -13.2843 13.2843 0.0000 0.0000 12.4403 0.0001
# 6 0.0000 0.0000 0.0000 13.2843 0.0001 5.2856
#
#
#
# Elastic Compliance Matrix: (Units=1/GPa)
#
#
# Indices 1 2 3 4 5 6 
#
# 1 -0.023378 0.032802 -0.003137 0.000000 -0.059992 0.000000
# 2 0.032802 -0.023378 -0.003137 0.000000 0.059992 0.000000
# 3 -0.003137 -0.003137 0.010924 0.000000 0.000000 0.000000
# 4 0.000000 0.000000 0.000000 -0.047740 0.000000 0.119984
# 5 -0.059992 0.059992 0.000000 0.000000 -0.047740 0.000000
# 6 0.000000 0.000000 0.000000 0.119984 0.000000 -0.112361
#
#
# Mechanical properties :
#
#
# Convention : Reuss Voigt Hill
#
# Bulk Modulus (GPa) = 58.04960 58.46447 58.25704
# Shear Modulus (GPa) = -17.18271 13.98568 -1.59851
#
# Velocity S-wave (km/s) = -3.12776 2.82182 -0.95399
# Velocity P-wave (km/s) = 4.47285 6.62596 5.65286
#
# Compressibility (1/GPa) = 0.01722665
#
# Stress axis : x y z
#
# Youngs Moduli (GPa) = -42.77497 -42.77497 91.53980
#
# Poissons Ratio (x) = 1.40312 0.28712
# Poissons Ratio (y) = 1.40312 0.28712
# Poissons Ratio (z) = -0.13416 -0.13416
#
# Static dielectric constant tensor:
#      x y z
#    x 1.621180 0.000000 0.000000 
#    y 0.000000 1.621180 0.000000 
#    z 0.000000 0.000000 1.701020 
# 
# From -- ./inp_files/1684.got.cif
#   From: 2010.05.17/outbox.cif.g08.bks.cpg/sg153_1_cif.got.tgz:1684.got - 2010.05.20 10:38:56.
