data_PCOD9576782
_publ_section_title
;
Structure prediction by ZEFSAII (Michael W. Deem and Ramdas Pophale) SiO2 
 PCOD9576782
Probable space group: R 3 2
;
_chemical_formula_sum "Si O2"
_cell_formula_units_Z 84
_cell_length_a 15.885317
_cell_length_b 15.885317
_cell_length_c 14.569919
_cell_angle_alpha 90.000000
_cell_angle_beta 90.000000
_cell_angle_gamma 120.000000
_cell_volume 3184.047520
_symmetry_space_group_name_H-M "R 3 2"
_symmetry_group_IT_number 155
_symmetry_cell_setting 'hexagonal'
loop_
_space_group_symop_operation_xyz
x,y,z
-y,x-y,z
-x+y,-x,z
x-y,-y,-z
-x,-x+y,-z
y,x,-z
2/3+x,1/3+y,1/3+z
2/3-y,1/3+x-y,1/3+z
2/3-x+y,1/3-x,1/3+z
2/3+x-y,1/3-y,1/3-z
2/3-x,1/3-x+y,1/3-z
2/3+y,1/3+x,1/3-z
1/3+x,2/3+y,2/3+z
1/3-y,2/3+x-y,2/3+z
1/3-x+y,2/3-x,2/3+z
1/3+x-y,2/3-y,2/3-z
1/3-x,2/3-x+y,2/3-z
1/3+y,2/3+x,2/3-z
loop_
_atom_site_type_symbol
_atom_site_label
_atom_site_fract_x
_atom_site_fract_y
_atom_site_fract_z
Si Si1 0.466211 0.306387 0.971556
Si Si2 0.000000 0.000000 0.113583
Si Si3 0.444188 0.940397 0.132774
Si Si4 0.000000 0.000000 0.386417
Si Si5 0.222479 0.392937 0.700560
Si Si6 0.533789 0.693613 0.528444
O O1 0.517961 0.420437 0.950869
O O2 0.407317 0.245567 0.881536
O O3 0.557179 0.289499 0.981268
O O4 0.380998 0.255714 0.045200
O O5 0.890512 0.934347 0.147935
O O6 0.000000 0.000000 0.000000
O O7 0.333334 0.872752 0.166667
O O8 0.458618 0.047665 0.121467
O O9 0.000000 0.000000 0.500000
O O10 0.333334 0.460582 0.666667
O O11 0.161751 0.407318 0.618464
O O12 0.184628 0.430858 0.784202
#
# Coordination Sequence:
#
# PCOD9576782 Si02
#       6
#    18   6  18   6  18  18
#     4  10  18  30  54  76 104 135 186 231 278 333
#     4  12  15  33  54  72  97 140 187 228 270 345
#     4  10  18  32  50  79 106 135 180 236 279 335
#     4  12  15  33  54  72  97 140 187 228 270 345
#     4  10  18  32  50  79 106 135 180 236 279 335
#     4  10  18  30  54  76 104 135 186 231 278 333
#
# _framework density 26.381516999999999
#
# number of rings (size 3 to 8) (size 9 to 14) (size 15 to 20)
#    0.000    1.714    8.571    0.000    0.000    0.000 
#    0.000    4.286    0.000    0.000    0.000    3.000 
#    0.000    0.000    0.000    0.000    0.000    0.000 
#
# Total GULP energy -156366.691472 kJ/mol
# GULP energy per Si atom -5584.524695 kJ/mol
# Density = 2.632147 g / cm^3
# Si number density = 26.381517 Si / 1000 Ang^3
#
#
#
# Elastic Constant Matrix: (Units=GPa)
#
#
# Indices 1 2 3 4 5 6 
#
# 1 203.1400 105.7682 29.6790 -14.1431 0.0000 0.0000
# 2 105.7682 203.1400 29.6790 14.1431 0.0000 0.0000
# 3 29.6790 29.6790 55.8432 0.0000 0.0000 0.0000
# 4 -14.1431 14.1431 0.0000 21.0131 0.0000 0.0000
# 5 0.0000 0.0000 0.0000 0.0000 21.0131 -14.1431
# 6 0.0000 0.0000 0.0000 0.0000 -14.1431 48.6859
#
#
#
# Elastic Compliance Matrix: (Units=1/GPa)
#
#
# Indices 1 2 3 4 5 6 
#
# 1 0.008186 -0.004580 -0.001916 0.008592 0.000000 0.000000
# 2 -0.004580 0.008186 -0.001916 -0.008592 0.000000 0.000000
# 3 -0.001916 -0.001916 0.019944 0.000000 0.000000 0.000000
# 4 0.008592 -0.008592 0.000000 0.059156 0.000000 0.000000
# 5 0.000000 0.000000 0.000000 0.000000 0.059156 0.017184
# 6 0.000000 0.000000 0.000000 0.000000 0.017184 0.025532
#
#
# Mechanical properties :
#
#
# Convention : Reuss Voigt Hill
#
# Bulk Modulus (GPa) = 51.30779 88.04171 69.67475
# Shear Modulus (GPa) = 24.57240 37.94222 31.25731
#
# Velocity S-wave (km/s) = 3.05524 3.79649 3.44585
# Velocity P-wave (km/s) = 5.65124 7.25691 6.50382
#
# Compressibility (1/GPa) = 0.01949022
#
# Stress axis : x y z
#
# Youngs Moduli (GPa) = 122.16487 122.16487 50.14022
#
# Poissons Ratio (x) = 0.55955 0.09608
# Poissons Ratio (y) = 0.55955 0.09608
# Poissons Ratio (z) = 0.23409 0.23409
#
# Static dielectric constant tensor:
#      x y z
#    x 2.076110 0.000000 0.000000 
#    y 0.000000 2.076110 0.000000 
#    z 0.000000 0.000000 2.380850 
# 
# From -- ./inp_files/7413.got.cif
#   From: 2010.05.17/outbox.cif.g08.bks.cpg/sg155_4_cif.got.tgz:7413.got - 2010.05.20 10:44:35.
