data_PCOD9576135
_publ_section_title
;
Structure prediction by ZEFSAII (Michael W. Deem and Ramdas Pophale) SiO2 
 PCOD9576135
Probable space group: P 31 2 1
;
_chemical_formula_sum "Si O2"
_cell_formula_units_Z 36
_cell_length_a 8.557690
_cell_length_b 8.557690
_cell_length_c 28.059856
_cell_angle_alpha 90.000000
_cell_angle_beta 90.000000
_cell_angle_gamma 120.000000
_cell_volume 1779.627754
_symmetry_space_group_name_H-M "P 31 2 1"
_symmetry_group_IT_number 152
_symmetry_cell_setting 'hexagonal'
loop_
_space_group_symop_operation_xyz
x,y,z
-y,x-y,1/3+z
-x+y,-x,2/3+z
x-y,-y,2/3-z
-x,-x+y,1/3-z
y,x,-z
loop_
_atom_site_type_symbol
_atom_site_label
_atom_site_fract_x
_atom_site_fract_y
_atom_site_fract_z
Si Si1 0.794501 0.466288 0.409469
Si Si2 0.535614 0.338605 0.989623
Si Si3 0.293312 0.658906 0.499263
Si Si4 0.509202 0.066648 0.909711
Si Si5 0.116418 0.840341 0.212469
Si Si6 0.834780 0.629380 0.923180
O O1 0.692129 0.310288 0.370863
O O2 0.803961 0.373382 0.458433
O O3 0.674773 0.554607 0.424238
O O4 0.981922 0.627156 0.390958
O O5 0.504409 0.176462 0.954966
O O6 0.677980 0.515289 0.960710
O O7 0.365970 0.365970 0.000000
O O8 0.445731 0.640480 0.469513
O O9 0.178553 0.463966 0.525280
O O10 0.199995 0.717626 0.459470
O O11 0.661874 0.006630 0.908496
O O12 0.000000 0.832653 0.166667
O O13 0.191815 0.020810 0.242933
#
# Coordination Sequence:
#
# PCOD9576135 Si02
#       6
#     6   6   6   6   6   6
#     4  11  21  36  58  86 114 145 191 244 287 338
#     4  11  23  40  59  78 110 156 199 235 286 353
#     4   9  19  37  59  83 116 153 188 229 285 348
#     4   9  20  39  57  80 116 152 187 234 291 341
#     4   9  18  36  60  86 118 152 188 237 292 350
#     4  11  22  36  60  89 116 152 191 237 294 354
#
# _framework density 20.228950000000001
#
# number of rings (size 3 to 8) (size 9 to 14) (size 15 to 20)
#    0.000    2.000    0.000    5.500    0.000    2.667 
#    0.000    7.500    0.000    0.000    0.000    0.000 
#    0.000    0.000    0.000    0.000    0.000    0.000 
#
# Total GULP energy -200869.088266 kJ/mol
# GULP energy per Si atom -5579.696896 kJ/mol
# Density = 2.018291 g / cm^3
# Si number density = 20.228950 Si / 1000 Ang^3
#
#
#
# Elastic Constant Matrix: (Units=GPa)
#
#
# Indices 1 2 3 4 5 6 
#
# 1 58.1848 20.0119 24.4176 -7.2974 -0.0001 0.0000
# 2 20.0119 58.1848 24.4176 7.2974 0.0001 0.0000
# 3 24.4176 24.4176 93.2733 0.0000 0.0000 0.0000
# 4 -7.2974 7.2974 0.0000 18.7213 0.0000 0.0001
# 5 -0.0001 0.0001 0.0000 0.0000 18.7213 -7.2974
# 6 0.0000 0.0000 0.0000 0.0001 -7.2974 19.0865
#
#
#
# Elastic Compliance Matrix: (Units=1/GPa)
#
#
# Indices 1 2 3 4 5 6 
#
# 1 0.023036 -0.007748 -0.004002 0.011999 0.000000 0.000000
# 2 -0.007748 0.023036 -0.004002 -0.011999 0.000000 0.000000
# 3 -0.004002 -0.004002 0.012817 0.000000 0.000000 0.000000
# 4 0.011999 -0.011999 0.000000 0.062769 0.000000 0.000000
# 5 0.000000 0.000000 0.000000 0.000000 0.062769 0.023999
# 6 0.000000 0.000000 0.000000 0.000000 0.023999 0.061569
#
#
# Mechanical properties :
#
#
# Convention : Reuss Voigt Hill
#
# Bulk Modulus (GPa) = 36.51836 38.59302 37.55569
# Shear Modulus (GPa) = 17.44416 20.69222 19.06819
#
# Velocity S-wave (km/s) = 2.93974 3.20175 3.07354
# Velocity P-wave (km/s) = 5.44192 5.72607 5.58580
#
# Compressibility (1/GPa) = 0.02738349
#
# Stress axis : x y z
#
# Youngs Moduli (GPa) = 43.41036 43.41036 78.02408
#
# Poissons Ratio (x) = 0.33636 0.31226
# Poissons Ratio (y) = 0.33636 0.31226
# Poissons Ratio (z) = 0.17373 0.17373
#
# Static dielectric constant tensor:
#      x y z
#    x 1.736590 0.000000 0.000000 
#    y 0.000000 1.736590 0.000000 
#    z 0.000000 0.000000 1.744650 
# 
# From -- ./inp_files/3412.got.cif
#   From: 2010.05.17/outbox.cif.g08.bks.cpg/sg152_2_cif.got.tgz:3412.got - 2010.05.20 10:36:06.
