data_PCOD9576159
_publ_section_title
;
Structure prediction by ZEFSAII (Michael W. Deem and Ramdas Pophale) SiO2 
 PCOD9576159
Probable space group: P 31 2 1
;
_chemical_formula_sum "Si O2"
_cell_formula_units_Z 36
_cell_length_a 8.933488
_cell_length_b 8.933488
_cell_length_c 24.402606
_cell_angle_alpha 90.000000
_cell_angle_beta 90.000000
_cell_angle_gamma 120.000000
_cell_volume 1686.587807
_symmetry_space_group_name_H-M "P 31 2 1"
_symmetry_group_IT_number 152
_symmetry_cell_setting 'hexagonal'
loop_
_space_group_symop_operation_xyz
x,y,z
-y,x-y,1/3+z
-x+y,-x,2/3+z
x-y,-y,2/3-z
-x,-x+y,1/3-z
y,x,-z
loop_
_atom_site_type_symbol
_atom_site_label
_atom_site_fract_x
_atom_site_fract_y
_atom_site_fract_z
Si Si1 0.753054 0.892601 0.249233
Si Si2 0.081746 0.557995 0.755179
Si Si3 0.000000 0.034883 0.666667
Si Si4 0.864203 0.000000 0.833334
Si Si5 0.275991 0.391196 0.705835
Si Si6 0.544956 0.807920 0.916604
Si Si7 0.437050 0.833497 0.550254
O O1 0.567571 0.727384 0.240347
O O2 0.860451 0.902256 0.195195
O O3 0.715001 0.049261 0.259768
O O4 0.865658 0.880671 0.298067
O O5 0.231010 0.535807 0.726621
O O6 0.110393 0.570831 0.820408
O O7 0.908860 0.378504 0.740514
O O8 0.890494 0.089738 0.628406
O O9 0.708499 0.913319 0.877297
O O10 0.328280 0.429930 0.642091
O O11 0.407163 0.377797 0.746504
O O12 0.362016 0.760879 0.889740
#
# Coordination Sequence:
#
# PCOD9576159 Si02
#       7
#     6   6   3   3   6   6   6
#     4  11  26  43  73 102 138 185 244 293 369 443
#     4  11  23  46  72 101 135 191 241 293 361 438
#     4  12  26  44  68 106 140 190 230 302 368 430
#     4  12  22  48  70 104 150 186 236 314 366 444
#     4  12  24  46  72 100 149 184 238 307 361 436
#     4  11  24  44  72 102 140 192 233 295 378 427
#     4  11  27  45  71 103 139 191 244 297 362 444
#
# _framework density 21.344868999999999
#
# number of rings (size 3 to 8) (size 9 to 14) (size 15 to 20)
#    0.000    0.667    5.000    2.000    9.333    0.000 
#    3.000    0.000    0.000    0.000    0.000    0.000 
#    0.000    0.000    0.000    0.000    0.000    0.000 
#
# Total GULP energy -201214.702374 kJ/mol
# GULP energy per Si atom -5589.297288 kJ/mol
# Density = 2.129629 g / cm^3
# Si number density = 21.344869 Si / 1000 Ang^3
#
#
#
# Elastic Constant Matrix: (Units=GPa)
#
#
# Indices 1 2 3 4 5 6 
#
# 1 63.6099 44.7823 9.8078 7.0357 0.0008 0.0000
# 2 44.7823 63.6099 9.8078 -7.0357 -0.0008 0.0000
# 3 9.8078 9.8078 79.1504 0.0000 0.0000 0.0000
# 4 7.0357 -7.0357 0.0000 28.8813 0.0000 -0.0008
# 5 0.0008 -0.0008 0.0000 0.0000 28.8813 7.0357
# 6 0.0000 0.0000 0.0000 -0.0008 7.0357 9.4138
#
#
#
# Elastic Compliance Matrix: (Units=1/GPa)
#
#
# Indices 1 2 3 4 5 6 
#
# 1 0.037187 -0.027749 -0.001169 -0.015819 -0.000002 0.000000
# 2 -0.027749 0.037187 -0.001169 0.015819 0.000002 0.000000
# 3 -0.001169 -0.001169 0.012924 0.000000 0.000000 0.000000
# 4 -0.015819 0.015819 0.000000 0.042332 0.000000 0.000003
# 5 -0.000002 0.000002 0.000000 0.000000 0.042332 -0.031638
# 6 0.000000 0.000000 0.000000 0.000003 -0.031638 0.129872
#
#
# Mechanical properties :
#
#
# Convention : Reuss Voigt Hill
#
# Bulk Modulus (GPa) = 36.87168 37.24066 37.05617
# Shear Modulus (GPa) = 13.47526 22.90009 18.18767
#
# Velocity S-wave (km/s) = 2.51532 3.27901 2.92222
# Velocity P-wave (km/s) = 5.07420 5.64100 5.36509
#
# Compressibility (1/GPa) = 0.02712108
#
# Stress axis : x y z
#
# Youngs Moduli (GPa) = 26.89125 26.89125 77.37552
#
# Poissons Ratio (x) = 0.74622 0.09048
# Poissons Ratio (y) = 0.74622 0.09048
# Poissons Ratio (z) = 0.03145 0.03145
#
# Static dielectric constant tensor:
#      x y z
#    x 1.786250 0.000000 0.000000 
#    y 0.000000 1.786250 0.000000 
#    z 0.000000 0.000000 1.768910 
# 
# From -- ./inp_files/3425.got.cif
#   From: 2010.05.17/outbox.cif.g08.bks.cpg/sg152_2_cif.got.tgz:3425.got - 2010.05.20 10:36:06.
