data_PCOD9576893
_publ_section_title
;
Structure prediction by ZEFSAII (Michael W. Deem and Ramdas Pophale) SiO2 
 PCOD9576893
Probable space group: R 3 2
;
_chemical_formula_sum "Si O2"
_cell_formula_units_Z 45
_cell_length_a 21.316033
_cell_length_b 21.316033
_cell_length_c 6.072647
_cell_angle_alpha 90.000000
_cell_angle_beta 90.000000
_cell_angle_gamma 120.000000
_cell_volume 2389.579237
_symmetry_space_group_name_H-M "R 3 2"
_symmetry_group_IT_number 155
_symmetry_cell_setting 'hexagonal'
loop_
_space_group_symop_operation_xyz
x,y,z
-y,x-y,z
-x+y,-x,z
x-y,-y,-z
-x,-x+y,-z
y,x,-z
2/3+x,1/3+y,1/3+z
2/3-y,1/3+x-y,1/3+z
2/3-x+y,1/3-x,1/3+z
2/3+x-y,1/3-y,1/3-z
2/3-x,1/3-x+y,1/3-z
2/3+y,1/3+x,1/3-z
1/3+x,2/3+y,2/3+z
1/3-y,2/3+x-y,2/3+z
1/3-x+y,2/3-x,2/3+z
1/3+x-y,2/3-y,2/3-z
1/3-x,2/3-x+y,2/3-z
1/3+y,2/3+x,2/3-z
loop_
_atom_site_type_symbol
_atom_site_label
_atom_site_fract_x
_atom_site_fract_y
_atom_site_fract_z
Si Si1 0.566737 0.000000 0.500000
Si Si2 0.784717 0.000000 0.500000
Si Si3 0.464502 0.541275 0.878336
Si Si4 0.333334 0.931491 0.666667
O O1 0.629159 0.052276 0.662512
O O2 0.556277 0.057465 0.356197
O O3 0.792712 0.938692 0.364067
O O4 0.529015 0.620973 0.824590
O O5 0.502916 0.502916 0.000000
O O6 0.379291 0.000000 0.500000
#
# Coordination Sequence:
#
# PCOD9576893 Si02
#       4
#     9   9  18   9
#     4  10  20  35  54  82 122 154 196 247 310 368
#     4  10  22  35  52  84 120 160 198 251 306 372
#     4  10  21  35  55  84 123 161 198 248 308 367
#     4  12  22  38  60  88 130 164 206 250 300 382
#
# _framework density 18.831766999999999
#
# number of rings (size 3 to 8) (size 9 to 14) (size 15 to 20)
#    0.000    1.600    4.000    1.200    0.000   16.000 
#    0.000    0.000    0.000    0.000    0.000    0.000 
#   40.000    0.000    0.000    0.000    0.000    0.000 
#
# Total GULP energy -83538.369517 kJ/mol
# GULP energy per Si atom -5569.224634 kJ/mol
# Density = 1.878890 g / cm^3
# Si number density = 18.831767 Si / 1000 Ang^3
#
#
#
# Elastic Constant Matrix: (Units=GPa)
#
#
# Indices 1 2 3 4 5 6 
#
# 1 82.8713 48.9290 40.2840 -1.1807 -0.0295 0.0140
# 2 48.9290 82.8691 40.3321 1.1938 -0.0111 0.0032
# 3 40.2840 40.3321 99.7278 -0.0207 -0.0931 0.0088
# 4 -1.1807 1.1938 -0.0207 26.4777 -0.0018 0.0077
# 5 -0.0295 -0.0111 -0.0931 -0.0018 26.4325 -1.1854
# 6 0.0140 0.0032 0.0088 0.0077 -1.1854 16.9803
#
#
#
# Elastic Compliance Matrix: (Units=1/GPa)
#
#
# Indices 1 2 3 4 5 6 
#
# 1 0.019811 -0.009738 -0.004064 0.001319 0.000003 -0.000013
# 2 -0.009738 0.019824 -0.004084 -0.001331 -0.000017 0.000006
# 3 -0.004064 -0.004084 0.013320 0.000013 0.000041 0.000000
# 4 0.001319 -0.001331 0.000013 0.037887 0.000003 -0.000018
# 5 0.000003 -0.000017 0.000041 0.000003 0.037951 0.002649
# 6 -0.000013 0.000006 0.000000 -0.000018 0.002649 0.059077
#
#
# Mechanical properties :
#
#
# Convention : Reuss Voigt Hill
#
# Bulk Modulus (GPa) = 58.19550 58.28424 58.23987
# Shear Modulus (GPa) = 21.79898 23.03965 22.41931
#
# Velocity S-wave (km/s) = 3.40599 3.50157 3.45411
# Velocity P-wave (km/s) = 6.81452 6.88224 6.84846
#
# Compressibility (1/GPa) = 0.01718346
#
# Stress axis : x y z
#
# Youngs Moduli (GPa) = 50.47770 50.44448 75.07276
#
# Poissons Ratio (x) = 0.49124 0.30507
# Poissons Ratio (y) = 0.49156 0.30658
# Poissons Ratio (z) = 0.20513 0.20601
#
# Static dielectric constant tensor:
#      x y z
#    x 1.693200 -0.000010 0.000040 
#    y -0.000010 1.693210 0.000010 
#    z 0.000040 0.000010 1.871280 
# 
# From -- ./inp_files/416.got.cif
#   From: 2010.05.17/outbox.cif.g08.bks.cpg/sg155_1_cif.got.tgz:416.got - 2010.05.20 10:44:35.
