data_PCOD9576197
_publ_section_title
;
Structure prediction by ZEFSAII (Michael W. Deem and Ramdas Pophale) SiO2 
 PCOD9576197
Probable space group: P 31 2 1
;
_chemical_formula_sum "Si O2"
_cell_formula_units_Z 24
_cell_length_a 13.933513
_cell_length_b 13.933513
_cell_length_c 5.364194
_cell_angle_alpha 90.000000
_cell_angle_beta 90.000000
_cell_angle_gamma 120.000000
_cell_volume 901.895795
_symmetry_space_group_name_H-M "P 31 2 1"
_symmetry_group_IT_number 152
_symmetry_cell_setting 'hexagonal'
loop_
_space_group_symop_operation_xyz
x,y,z
-y,x-y,1/3+z
-x+y,-x,2/3+z
x-y,-y,2/3-z
-x,-x+y,1/3-z
y,x,-z
loop_
_atom_site_type_symbol
_atom_site_label
_atom_site_fract_x
_atom_site_fract_y
_atom_site_fract_z
Si Si1 0.671762 0.490259 0.690514
Si Si2 0.778931 0.000000 0.833334
Si Si3 0.840949 0.840949 0.000000
Si Si4 0.284602 0.000000 0.833334
Si Si5 0.502652 0.502652 0.000000
Si Si6 0.469751 0.330008 0.378823
O O1 0.699915 0.593097 0.512987
O O2 0.618115 0.514477 0.930477
O O3 0.575358 0.379215 0.562707
O O4 0.780298 0.498633 0.804720
O O5 0.752803 0.101951 0.828209
O O6 0.881575 0.045488 0.638348
O O7 0.781544 0.775662 0.251671
O O8 0.426964 0.456811 0.756761
#
# Coordination Sequence:
#
# PCOD9576197 Si02
#       6
#     6   3   3   3   3   6
#     4  12  27  50  81 124 177 230 304 376 474 574
#     4  12  27  55  82 132 172 242 300 400 466 558
#     4  12  31  50  91 124 170 232 313 378 469 550
#     4  12  25  51  84 122 168 226 294 372 458 560
#     4  12  25  48  79 118 168 234 283 364 451 556
#     4  12  28  50  82 125 178 236 302 383 478 571
#
# _framework density 26.610614000000002
#
# number of rings (size 3 to 8) (size 9 to 14) (size 15 to 20)
#    0.000    0.000    7.500    0.750    3.500    6.000 
#    0.000    2.500    0.000    0.000    0.000    0.000 
#    0.000    0.000    0.000    0.000    0.000    0.000 
#
# Total GULP energy -134199.848263 kJ/mol
# GULP energy per Si atom -5591.660344 kJ/mol
# Density = 2.655005 g / cm^3
# Si number density = 26.610614 Si / 1000 Ang^3
#
#
#
# Elastic Constant Matrix: (Units=GPa)
#
#
# Indices 1 2 3 4 5 6 
#
# 1 120.5475 45.7142 48.2471 -4.8522 0.0000 0.0000
# 2 45.7142 120.5475 48.2471 4.8522 0.0000 0.0000
# 3 48.2471 48.2471 142.1211 0.0000 0.0000 0.0000
# 4 -4.8522 4.8522 0.0000 53.8801 0.0000 0.0000
# 5 0.0000 0.0000 0.0000 0.0000 53.8801 -4.8522
# 6 0.0000 0.0000 0.0000 0.0000 -4.8522 37.4166
#
#
#
# Elastic Compliance Matrix: (Units=1/GPa)
#
#
# Indices 1 2 3 4 5 6 
#
# 1 0.010506 -0.003015 -0.002543 0.001218 0.000000 0.000000
# 2 -0.003015 0.010506 -0.002543 -0.001218 0.000000 0.000000
# 3 -0.002543 -0.002543 0.008763 0.000000 0.000000 0.000000
# 4 0.001218 -0.001218 0.000000 0.018779 0.000000 0.000000
# 5 0.000000 0.000000 0.000000 0.000000 0.018779 0.002435
# 6 0.000000 0.000000 0.000000 0.000000 0.002435 0.027042
#
#
# Mechanical properties :
#
#
# Convention : Reuss Voigt Hill
#
# Bulk Modulus (GPa) = 73.67995 74.18143 73.93069
# Shear Modulus (GPa) = 43.44047 45.10253 44.27150
#
# Velocity S-wave (km/s) = 4.04474 4.12139 4.08325
# Velocity P-wave (km/s) = 7.04000 7.11231 7.07625
#
# Compressibility (1/GPa) = 0.01357221
#
# Stress axis : x y z
#
# Youngs Moduli (GPa) = 95.18658 95.18658 114.11960
#
# Poissons Ratio (x) = 0.28701 0.29019
# Poissons Ratio (y) = 0.28701 0.29019
# Poissons Ratio (z) = 0.24204 0.24204
#
# Static dielectric constant tensor:
#      x y z
#    x 2.113580 0.000000 0.000000 
#    y 0.000000 2.113580 0.000000 
#    z 0.000000 0.000000 2.189580 
# 
# From -- ./inp_files/274.got.cif
#   From: 2010.05.17/outbox.cif.g08.bks.cpg/sg152_1_cif.got.tgz:274.got - 2010.05.20 10:36:06.
