data_PCOD9576130
_publ_section_title
;
Structure prediction by ZEFSAII (Michael W. Deem and Ramdas Pophale) SiO2 
 PCOD9576130
Probable space group: P 31 2 1
;
_chemical_formula_sum "Si O2"
_cell_formula_units_Z 27
_cell_length_a 7.948086
_cell_length_b 7.948086
_cell_length_c 25.547251
_cell_angle_alpha 90.000000
_cell_angle_beta 90.000000
_cell_angle_gamma 120.000000
_cell_volume 1397.654805
_symmetry_space_group_name_H-M "P 31 2 1"
_symmetry_group_IT_number 152
_symmetry_cell_setting 'hexagonal'
loop_
_space_group_symop_operation_xyz
x,y,z
-y,x-y,1/3+z
-x+y,-x,2/3+z
x-y,-y,2/3-z
-x,-x+y,1/3-z
y,x,-z
loop_
_atom_site_type_symbol
_atom_site_label
_atom_site_fract_x
_atom_site_fract_y
_atom_site_fract_z
Si Si1 0.309447 0.967220 0.244290
Si Si2 0.000000 0.960143 0.166667
Si Si3 0.284797 0.298730 0.089436
Si Si4 0.719776 0.675019 0.665251
Si Si5 0.643049 0.922054 0.010029
O O1 0.141862 0.917647 0.202270
O O2 0.507660 0.979753 0.224778
O O3 0.216056 0.820180 0.293204
O O4 0.364284 0.172040 0.271045
O O5 0.857306 0.005605 0.201070
O O6 0.167369 0.376904 0.055099
O O7 0.325044 0.175389 0.046185
O O8 0.500933 0.518203 0.676745
O O9 0.746985 0.889693 0.660853
#
# Coordination Sequence:
#
# PCOD9576130 Si02
#       5
#     6   3   6   6   6
#     4  11  23  43  65  93 129 174 213 271 330 392
#     4  12  24  46  62  90 152 174 210 268 344 420
#     4  11  23  43  65  93 129 174 213 271 330 392
#     4  11  20  40  70  97 123 163 226 280 320 381
#     4  11  20  40  70  97 123 163 226 280 320 381
#
# _framework density 19.318073999999999
#
# number of rings (size 3 to 8) (size 9 to 14) (size 15 to 20)
#    0.000    0.889    4.444    6.667    0.000    1.778 
#    8.000    0.000    0.000    0.000    0.000    0.000 
#    0.000    0.000    0.000    0.000    0.000    0.000 
#
# Total GULP energy -150907.466561 kJ/mol
# GULP energy per Si atom -5589.165428 kJ/mol
# Density = 1.927411 g / cm^3
# Si number density = 19.318074 Si / 1000 Ang^3
#
#
#
# Elastic Constant Matrix: (Units=GPa)
#
#
# Indices 1 2 3 4 5 6 
#
# 1 114.5629 23.1331 20.9025 -5.0166 0.0001 0.0000
# 2 23.1331 114.5629 20.9025 5.0166 -0.0001 0.0000
# 3 20.9025 20.9025 73.7891 0.0000 0.0000 0.0000
# 4 -5.0166 5.0166 0.0000 16.5808 0.0000 -0.0001
# 5 0.0001 -0.0001 0.0000 0.0000 16.5808 -5.0166
# 6 0.0000 0.0000 0.0000 -0.0001 -5.0166 45.7149
#
#
#
# Elastic Compliance Matrix: (Units=1/GPa)
#
#
# Indices 1 2 3 4 5 6 
#
# 1 0.009629 -0.001684 -0.002251 0.003423 0.000000 0.000000
# 2 -0.001684 0.009629 -0.002251 -0.003423 0.000000 0.000000
# 3 -0.002251 -0.002251 0.014827 0.000000 0.000000 0.000000
# 4 0.003423 -0.003423 0.000000 0.062382 0.000000 0.000000
# 5 0.000000 0.000000 0.000000 0.000000 0.062382 0.006846
# 6 0.000000 0.000000 0.000000 0.000000 0.006846 0.022626
#
#
# Mechanical properties :
#
#
# Convention : Reuss Voigt Hill
#
# Bulk Modulus (GPa) = 46.04996 48.08787 47.06891
# Shear Modulus (GPa) = 24.86516 31.64043 28.25279
#
# Velocity S-wave (km/s) = 3.59157 4.05145 3.82842
# Velocity P-wave (km/s) = 6.41005 6.84342 6.63027
#
# Compressibility (1/GPa) = 0.02171554
#
# Stress axis : x y z
#
# Youngs Moduli (GPa) = 103.84918 103.84918 67.44302
#
# Poissons Ratio (x) = 0.17484 0.15180
# Poissons Ratio (y) = 0.17484 0.15180
# Poissons Ratio (z) = 0.23375 0.23375
#
# Static dielectric constant tensor:
#      x y z
#    x 1.527840 0.000000 0.000000 
#    y 0.000000 1.527840 0.000000 
#    z 0.000000 0.000000 1.656490 
# 
# From -- ./inp_files/2945.got.cif
#   From: 2010.05.17/outbox.cif.g08.bks.cpg/sg152_2_cif.got.tgz:2945.got - 2010.05.20 10:36:06.
