data_PCOD9576577
_publ_section_title
;
Structure prediction by ZEFSAII (Michael W. Deem and Ramdas Pophale) SiO2 
 PCOD9576577
Probable space group: P 32 2 1
;
_chemical_formula_sum "Si O2"
_cell_formula_units_Z 33
_cell_length_a 13.525204
_cell_length_b 13.525204
_cell_length_c 9.167321
_cell_angle_alpha 90.000000
_cell_angle_beta 90.000000
_cell_angle_gamma 120.000000
_cell_volume 1452.314652
_symmetry_space_group_name_H-M "P 32 2 1"
_symmetry_group_IT_number 154
_symmetry_cell_setting 'hexagonal'
loop_
_space_group_symop_operation_xyz
x,y,z
-y,x-y,2/3+z
-x+y,-x,1/3+z
x-y,-y,1/3-z
-x,-x+y,2/3-z
y,x,-z
loop_
_atom_site_type_symbol
_atom_site_label
_atom_site_fract_x
_atom_site_fract_y
_atom_site_fract_z
Si Si1 0.824999 0.251281 0.115212
Si Si2 0.866836 0.397145 0.379770
Si Si3 0.162793 0.027273 0.501279
Si Si4 0.759311 0.181368 0.813533
Si Si5 0.955933 0.407937 0.692874
Si Si6 0.795032 0.000000 0.666667
O O1 0.801313 0.286313 0.274710
O O2 0.883616 0.173202 0.118482
O O3 0.735796 0.197936 0.982906
O O4 0.925184 0.370371 0.053269
O O5 0.817622 0.482928 0.374245
O O6 0.874923 0.383175 0.552697
O O7 0.000000 0.463789 0.333334
O O8 0.084950 0.084950 0.500000
O O9 0.177272 0.000000 0.666667
O O10 0.095984 0.911612 0.408307
O O11 0.884352 0.284755 0.772188
O O12 0.758396 0.063767 0.784548
O O13 0.000000 0.494492 0.833334
#
# Coordination Sequence:
#
# PCOD9576577 Si02
#       6
#     6   6   6   6   6   3
#     4  10  22  40  65  92 134 179 227 281 354 422
#     4  10  21  43  64  92 126 173 233 290 343 413
#     4  12  23  37  62  99 143 187 225 272 348 447
#     4  11  22  41  66  95 131 180 227 290 361 420
#     4   9  19  39  66  87 122 174 217 273 348 414
#     4  12  24  38  62 102 142 178 228 284 346 448
#
# _framework density 22.722346000000002
#
# number of rings (size 3 to 8) (size 9 to 14) (size 15 to 20)
#    0.000    1.455    3.636    2.727    0.000    0.000 
#    3.273    6.364    0.000    0.000    0.000    0.000 
#    0.000    0.000    0.000    0.000    0.000    0.000 
#
# Total GULP energy -183708.286662 kJ/mol
# GULP energy per Si atom -5566.917778 kJ/mol
# Density = 2.267063 g / cm^3
# Si number density = 22.722346 Si / 1000 Ang^3
#
#
#
# Elastic Constant Matrix: (Units=GPa)
#
#
# Indices 1 2 3 4 5 6 
#
# 1 56.8984 7.3739 45.0860 -5.6291 0.0013 0.0000
# 2 7.3739 56.8984 45.0860 5.6291 -0.0013 0.0000
# 3 45.0860 45.0860 146.2856 0.0000 0.0000 0.0000
# 4 -5.6291 5.6291 0.0000 44.0495 0.0000 -0.0013
# 5 0.0013 -0.0013 0.0000 0.0000 44.0495 -5.6291
# 6 0.0000 0.0000 0.0000 -0.0013 -5.6291 24.7623
#
#
#
# Elastic Compliance Matrix: (Units=1/GPa)
#
#
# Indices 1 2 3 4 5 6 
#
# 1 0.024104 0.003308 -0.008448 0.002658 -0.000001 0.000000
# 2 0.003308 0.024104 -0.008448 -0.002658 0.000001 0.000000
# 3 -0.008448 -0.008448 0.012044 0.000000 0.000000 0.000000
# 4 0.002658 -0.002658 0.000000 0.023381 0.000000 0.000001
# 5 -0.000001 0.000001 0.000000 0.000000 0.023381 0.005315
# 6 0.000000 0.000000 0.000000 0.000001 0.005315 0.041592
#
#
# Mechanical properties :
#
#
# Convention : Reuss Voigt Hill
#
# Bulk Modulus (GPa) = 30.23588 50.57490 40.40539
# Shear Modulus (GPa) = 26.76542 33.40804 30.08673
#
# Velocity S-wave (km/s) = 3.43583 3.83857 3.64277
# Velocity P-wave (km/s) = 5.39216 6.47706 5.95935
#
# Compressibility (1/GPa) = 0.03307329
#
# Stress axis : x y z
#
# Youngs Moduli (GPa) = 41.48706 41.48706 83.03140
#
# Poissons Ratio (x) = -0.13723 0.70148
# Poissons Ratio (y) = -0.13723 0.70148
# Poissons Ratio (z) = 0.35050 0.35050
#
# Static dielectric constant tensor:
#      x y z
#    x 1.790670 0.000000 0.000000 
#    y 0.000000 1.790670 0.000000 
#    z 0.000000 0.000000 1.885840 
# 
# From -- ./inp_files/1156.got.cif
#   From: 2010.05.17/outbox.cif.g08.bks.cpg/sg154_1_cif.got.tgz:1156.got - 2010.05.20 10:41:43.
