data_PCOD9576861
_publ_section_title
;
Structure prediction by ZEFSAII (Michael W. Deem and Ramdas Pophale) SiO2 
 PCOD9576861
Probable space group: R 3 2
;
_chemical_formula_sum "Si O2"
_cell_formula_units_Z 108
_cell_length_a 18.472040
_cell_length_b 18.472040
_cell_length_c 16.431935
_cell_angle_alpha 90.000000
_cell_angle_beta 90.000000
_cell_angle_gamma 120.000000
_cell_volume 4855.668849
_symmetry_space_group_name_H-M "R 3 2"
_symmetry_group_IT_number 155
_symmetry_cell_setting 'hexagonal'
loop_
_space_group_symop_operation_xyz
x,y,z
-y,x-y,z
-x+y,-x,z
x-y,-y,-z
-x,-x+y,-z
y,x,-z
2/3+x,1/3+y,1/3+z
2/3-y,1/3+x-y,1/3+z
2/3-x+y,1/3-x,1/3+z
2/3+x-y,1/3-y,1/3-z
2/3-x,1/3-x+y,1/3-z
2/3+y,1/3+x,1/3-z
1/3+x,2/3+y,2/3+z
1/3-y,2/3+x-y,2/3+z
1/3-x+y,2/3-x,2/3+z
1/3+x-y,2/3-y,2/3-z
1/3-x,2/3-x+y,2/3-z
1/3+y,2/3+x,2/3-z
loop_
_atom_site_type_symbol
_atom_site_label
_atom_site_fract_x
_atom_site_fract_y
_atom_site_fract_z
Si Si1 0.183841 0.907539 0.411176
Si Si2 0.256095 0.824552 0.011363
Si Si3 0.895268 0.574573 0.674183
Si Si4 0.768828 0.609368 0.429354
Si Si5 0.902407 0.569728 0.488809
Si Si6 0.903170 0.403443 0.492223
O O1 0.234016 0.900683 0.333334
O O2 0.089130 0.834287 0.396591
O O3 0.218495 0.887696 0.492260
O O4 0.189461 0.996559 0.401537
O O5 0.173218 0.738330 0.035578
O O6 0.222380 0.889787 0.019291
O O7 0.279159 0.817358 0.919181
O O8 0.978354 0.666667 0.666667
O O9 0.864656 0.556085 0.580361
O O10 0.844266 0.590135 0.433686
O O11 0.679101 0.529182 0.440591
O O12 0.902226 0.485875 0.462855
O O13 0.000000 0.639845 0.500000
O O14 0.000000 0.428641 0.500000
#
# Coordination Sequence:
#
# PCOD9576861 Si02
#       6
#    18  18  18  18  18  18
#     4  11  20  37  57  84 123 150 192 250 295 342
#     4  11  23  35  61  90 111 158 206 229 305 362
#     4  10  19  37  58  81 121 156 193 249 289 352
#     4  12  22  36  63  86 117 159 196 246 301 357
#     4  10  20  36  57  84 116 155 196 246 295 348
#     4  10  22  39  57  83 120 147 194 256 292 343
#
# _framework density 22.242044
#
# number of rings (size 3 to 8) (size 9 to 14) (size 15 to 20)
#    0.000    1.333    5.000    2.500    0.000    0.000 
#    2.000    0.000    0.000    0.000    0.000    0.000 
#    0.000    0.000    0.000    0.000    0.000    0.000 
#
# Total GULP energy -201177.401427 kJ/mol
# GULP energy per Si atom -5588.261151 kJ/mol
# Density = 2.219142 g / cm^3
# Si number density = 22.242044 Si / 1000 Ang^3
#
#
#
# Elastic Constant Matrix: (Units=GPa)
#
#
# Indices 1 2 3 4 5 6 
#
# 1 116.3786 43.6903 2.8135 -3.1471 0.0000 0.0000
# 2 43.6903 116.3786 2.8135 3.1471 0.0000 0.0000
# 3 2.8135 2.8135 52.5253 0.0000 0.0000 0.0000
# 4 -3.1471 3.1471 0.0000 24.0567 0.0000 0.0000
# 5 0.0000 0.0000 0.0000 0.0000 24.0567 -3.1471
# 6 0.0000 0.0000 0.0000 0.0000 -3.1471 36.3441
#
#
#
# Elastic Compliance Matrix: (Units=1/GPa)
#
#
# Indices 1 2 3 4 5 6 
#
# 1 0.010087 -0.003828 -0.000335 0.001820 0.000000 0.000000
# 2 -0.003828 0.010087 -0.000335 -0.001820 0.000000 0.000000
# 3 -0.000335 -0.000335 0.019074 0.000000 0.000000 0.000000
# 4 0.001820 -0.001820 0.000000 0.042045 0.000000 0.000000
# 5 0.000000 0.000000 0.000000 0.000000 0.042045 0.003641
# 6 0.000000 0.000000 0.000000 0.000000 0.003641 0.027830
#
#
# Mechanical properties :
#
#
# Convention : Reuss Voigt Hill
#
# Bulk Modulus (GPa) = 33.05624 42.65747 37.85686
# Shear Modulus (GPa) = 29.36876 32.62249 30.99563
#
# Velocity S-wave (km/s) = 3.63770 3.83391 3.73709
# Velocity P-wave (km/s) = 5.70422 6.23048 5.97315
#
# Compressibility (1/GPa) = 0.03025147
#
# Stress axis : x y z
#
# Youngs Moduli (GPa) = 99.13694 99.13694 52.42640
#
# Poissons Ratio (x) = 0.37949 0.01758
# Poissons Ratio (y) = 0.37949 0.01758
# Poissons Ratio (z) = 0.03324 0.03324
#
# Static dielectric constant tensor:
#      x y z
#    x 1.820830 0.000000 0.000000 
#    y 0.000000 1.820830 0.000000 
#    z 0.000000 0.000000 1.894990 
# 
# From -- ./inp_files/6993.got.cif
#   From: 2010.05.17/outbox.cif.g08.bks.cpg/sg155_4_cif.got.tgz:6993.got - 2010.05.20 10:44:35.
