data_PCOD9576324
_publ_section_title
;
Structure prediction by ZEFSAII (Michael W. Deem and Ramdas Pophale) SiO2 
 PCOD9576324
Probable space group: P 32 1 2
;
_chemical_formula_sum "Si O2"
_cell_formula_units_Z 30
_cell_length_a 8.845441
_cell_length_b 8.845441
_cell_length_c 20.855252
_cell_angle_alpha 90.000000
_cell_angle_beta 90.000000
_cell_angle_gamma 120.000000
_cell_volume 1413.139558
_symmetry_space_group_name_H-M "P 32 1 2"
_symmetry_group_IT_number 153
_symmetry_cell_setting 'hexagonal'
loop_
_space_group_symop_operation_xyz
x,y,z
-y,x-y,2/3+z
-x+y,-x,1/3+z
-y,-x,1/3-z
-x+y,y,2/3-z
x,x-y,-z
loop_
_atom_site_type_symbol
_atom_site_label
_atom_site_fract_x
_atom_site_fract_y
_atom_site_fract_z
Si Si1 0.661031 0.742953 0.818303
Si Si2 0.061332 0.489491 0.328975
Si Si3 0.353654 0.968326 0.133681
Si Si4 0.933225 0.587540 0.455458
Si Si5 0.876245 0.070131 0.051029
O O1 0.521309 0.539118 0.827953
O O2 0.750790 0.776567 0.747955
O O3 0.787383 0.809323 0.880893
O O4 0.595258 0.880093 0.820392
O O5 0.248046 0.496092 0.333334
O O6 0.080994 0.611692 0.269798
O O7 0.982916 0.542428 0.387669
O O8 0.924891 0.284959 0.315592
O O9 0.182223 0.817778 0.166667
O O10 0.336431 0.139412 0.124320
O O11 0.837532 0.418766 0.500000
O O12 0.928081 0.964041 0.000000
#
# Coordination Sequence:
#
# PCOD9576324 Si02
#       5
#     6   6   6   6   6
#     4  10  22  42  68  95 138 182 229 284 354 418
#     4  10  21  43  70 101 135 185 231 293 349 423
#     4  11  25  44  69 100 142 183 236 291 355 425
#     4  12  25  42  70 102 138 183 234 289 357 422
#     4   9  19  37  71  98 134 174 227 287 348 408
#
# _framework density 21.229326
#
# number of rings (size 3 to 8) (size 9 to 14) (size 15 to 20)
#    0.000    1.600    0.000    6.000    8.400    1.600 
#    3.600    0.000    0.000    0.000    0.000    0.000 
#    0.000    0.000    0.000    0.000    0.000    0.000 
#
# Total GULP energy -167109.817147 kJ/mol
# GULP energy per Si atom -5570.327238 kJ/mol
# Density = 2.118101 g / cm^3
# Si number density = 21.229326 Si / 1000 Ang^3
#
#
#
# Elastic Constant Matrix: (Units=GPa)
#
#
# Indices 1 2 3 4 5 6 
#
# 1 73.0553 61.2978 39.4048 0.0005 -16.1765 0.0000
# 2 61.2978 73.0553 39.4048 -0.0005 16.1765 0.0000
# 3 39.4048 39.4048 88.0161 0.0000 0.0000 0.0000
# 4 0.0005 -0.0005 0.0000 19.9401 0.0000 16.1765
# 5 -16.1765 16.1765 0.0000 0.0000 19.9401 0.0005
# 6 0.0000 0.0000 0.0000 16.1765 0.0005 5.8788
#
#
#
# Elastic Compliance Matrix: (Units=1/GPa)
#
#
# Indices 1 2 3 4 5 6 
#
# 1 -0.029462 0.039556 -0.004519 0.000002 -0.055991 0.000000
# 2 0.039556 -0.029462 -0.004519 -0.000002 0.055991 0.000000
# 3 -0.004519 -0.004519 0.015408 0.000000 0.000000 0.000000
# 4 0.000002 -0.000002 0.000000 -0.040696 0.000000 0.111982
# 5 -0.055991 0.055991 0.000000 0.000000 -0.040696 0.000004
# 6 0.000000 0.000000 0.000000 0.111982 0.000004 -0.138035
#
#
# Mechanical properties :
#
#
# Convention : Reuss Voigt Hill
#
# Bulk Modulus (GPa) = 57.07916 57.14906 57.11411
# Shear Modulus (GPa) = -15.71651 15.41975 -0.14838
#
# Velocity S-wave (km/s) = -2.72384 2.69800 -0.26466
# Velocity P-wave (km/s) = 4.12952 6.05672 5.18347
#
# Compressibility (1/GPa) = 0.01751953
#
# Stress axis : x y z
#
# Youngs Moduli (GPa) = -33.94232 -33.94232 64.90179
#
# Poissons Ratio (x) = 1.34261 0.29329
# Poissons Ratio (y) = 1.34261 0.29329
# Poissons Ratio (z) = -0.15339 -0.15339
#
# Static dielectric constant tensor:
#      x y z
#    x 1.911450 0.000000 0.000000 
#    y 0.000000 1.911450 0.000000 
#    z 0.000000 0.000000 1.832850 
# 
# From -- ./inp_files/4260.got.cif
#   From: 2010.05.17/outbox.cif.g08.bks.cpg/sg153_3_cif.got.tgz:4260.got - 2010.05.20 10:38:56.
