data_PCOD9576450
_publ_section_title
;
Structure prediction by ZEFSAII (Michael W. Deem and Ramdas Pophale) SiO2 
 PCOD9576450
Probable space group: P 32 2 1
;
_chemical_formula_sum "Si O2"
_cell_formula_units_Z 39
_cell_length_a 9.180051
_cell_length_b 9.180051
_cell_length_c 26.622312
_cell_angle_alpha 90.000000
_cell_angle_beta 90.000000
_cell_angle_gamma 120.000000
_cell_volume 1942.972207
_symmetry_space_group_name_H-M "P 32 2 1"
_symmetry_group_IT_number 154
_symmetry_cell_setting 'hexagonal'
loop_
_space_group_symop_operation_xyz
x,y,z
-y,x-y,2/3+z
-x+y,-x,1/3+z
x-y,-y,1/3-z
-x,-x+y,2/3-z
y,x,-z
loop_
_atom_site_type_symbol
_atom_site_label
_atom_site_fract_x
_atom_site_fract_y
_atom_site_fract_z
Si Si1 0.715337 0.303084 0.280742
Si Si2 0.647099 0.701332 0.712963
Si Si3 0.813841 0.813841 0.500000
Si Si4 0.021915 0.387399 0.932956
Si Si5 0.869174 0.701789 0.193337
Si Si6 0.721649 0.370455 0.059810
Si Si7 0.985239 0.436183 0.457336
O O1 0.700507 0.471409 0.280132
O O2 0.727690 0.274122 0.339486
O O3 0.872800 0.327116 0.248485
O O4 0.540758 0.150426 0.261525
O O5 0.693543 0.718543 0.653796
O O6 0.762727 0.853282 0.750706
O O7 0.622581 0.521912 0.730151
O O8 0.699347 0.739537 0.549538
O O9 0.997557 0.842101 0.509070
O O10 0.175472 0.576931 0.938482
O O11 0.683731 0.631550 0.171221
O O12 0.940682 0.572836 0.195875
O O13 0.654264 0.455449 0.098759
#
# Coordination Sequence:
#
# PCOD9576450 Si02
#       7
#     6   6   3   6   6   6   6
#     4   9  21  38  64  92 122 161 206 254 305 368
#     4   9  21  40  64  89 121 163 207 250 308 377
#     4  12  26  40  58  92 124 164 202 258 320 362
#     4  10  22  39  62  92 125 160 202 255 309 378
#     4  11  25  40  62  89 124 162 208 254 314 366
#     4  10  19  39  64  91 124 163 205 247 312 370
#     4  11  22  38  61  93 120 163 203 260 301 371
#
# _framework density 20.072340000000001
#
# number of rings (size 3 to 8) (size 9 to 14) (size 15 to 20)
#    0.000    1.846    1.538    1.385    6.462    3.077 
#    0.000    0.000    3.385    0.000    0.000    0.000 
#    0.000    0.000    0.000    0.000    0.000    0.000 
#
# Total GULP energy -217312.380415 kJ/mol
# GULP energy per Si atom -5572.112318 kJ/mol
# Density = 2.002665 g / cm^3
# Si number density = 20.072340 Si / 1000 Ang^3
#
#
#
# Elastic Constant Matrix: (Units=GPa)
#
#
# Indices 1 2 3 4 5 6 
#
# 1 42.1083 10.4149 41.1844 -0.8905 0.0000 0.0000
# 2 10.4149 42.1083 41.1844 0.8905 0.0000 0.0000
# 3 41.1844 41.1844 91.1999 0.0000 0.0000 0.0000
# 4 -0.8905 0.8905 0.0000 28.1516 0.0000 0.0000
# 5 0.0000 0.0000 0.0000 0.0000 28.1516 -0.8905
# 6 0.0000 0.0000 0.0000 0.0000 -0.8905 15.8467
#
#
#
# Elastic Compliance Matrix: (Units=1/GPa)
#
#
# Indices 1 2 3 4 5 6 
#
# 1 0.048427 0.016818 -0.029464 0.001000 0.000000 0.000000
# 2 0.016818 0.048427 -0.029464 -0.001000 0.000000 0.000000
# 3 -0.029464 -0.029464 0.037576 0.000000 0.000000 0.000000
# 4 0.001000 -0.001000 0.000000 0.035585 0.000000 0.000000
# 5 0.000000 0.000000 0.000000 0.000000 0.035585 0.002000
# 6 0.000000 0.000000 0.000000 0.000000 0.002000 0.063217
#
#
# Mechanical properties :
#
#
# Convention : Reuss Voigt Hill
#
# Bulk Modulus (GPa) = 19.91585 40.10931 30.01258
# Shear Modulus (GPa) = 13.52185 19.93882 16.73034
#
# Velocity S-wave (km/s) = 2.59830 3.15516 2.89018
# Velocity P-wave (km/s) = 4.35260 5.77054 5.11098
#
# Compressibility (1/GPa) = 0.05021127
#
# Stress axis : x y z
#
# Youngs Moduli (GPa) = 20.64970 20.64970 26.61308
#
# Poissons Ratio (x) = -0.34729 0.78412
# Poissons Ratio (y) = -0.34729 0.78412
# Poissons Ratio (z) = 0.60842 0.60842
#
# Static dielectric constant tensor:
#      x y z
#    x 1.701980 0.000000 0.000000 
#    y 0.000000 1.701980 0.000000 
#    z 0.000000 0.000000 1.788880 
# 
# From -- ./inp_files/3720.got.cif
#   From: 2010.05.17/outbox.cif.g08.bks.cpg/sg154_2_cif.got.tgz:3720.got - 2010.05.20 10:41:43.
