data_PCOD9576182
_publ_section_title
;
Structure prediction by ZEFSAII (Michael W. Deem and Ramdas Pophale) SiO2 
 PCOD9576182
Probable space group: P 31 2 1
;
_chemical_formula_sum "Si O2"
_cell_formula_units_Z 21
_cell_length_a 12.832040
_cell_length_b 12.832040
_cell_length_c 6.671696
_cell_angle_alpha 90.000000
_cell_angle_beta 90.000000
_cell_angle_gamma 120.000000
_cell_volume 951.389360
_symmetry_space_group_name_H-M "P 31 2 1"
_symmetry_group_IT_number 152
_symmetry_cell_setting 'hexagonal'
loop_
_space_group_symop_operation_xyz
x,y,z
-y,x-y,1/3+z
-x+y,-x,2/3+z
x-y,-y,2/3-z
-x,-x+y,1/3-z
y,x,-z
loop_
_atom_site_type_symbol
_atom_site_label
_atom_site_fract_x
_atom_site_fract_y
_atom_site_fract_z
Si Si1 0.329969 0.000000 0.833334
Si Si2 0.921260 0.470315 0.469486
Si Si3 0.334359 0.213789 0.585813
Si Si4 0.726955 0.296920 0.736591
O O1 0.310301 0.102710 0.728136
O O2 0.383503 0.945303 0.670765
O O3 0.926844 0.583977 0.362312
O O4 0.789649 0.393556 0.562073
O O5 0.000000 0.505538 0.666667
O O6 0.220885 0.220885 0.500000
O O7 0.427522 0.222460 0.413453
O O8 0.597849 0.234459 0.621190
#
# Coordination Sequence:
#
# PCOD9576182 Si02
#       4
#     3   6   6   6
#     4  12  26  48  68 110 156 188 256 316 364 450
#     4  12  23  43  71 105 147 188 234 309 373 433
#     4  12  25  44  71 110 148 199 249 302 378 450
#     4  12  22  39  67 104 149 184 232 295 367 442
#
# _framework density 22.072982
#
# number of rings (size 3 to 8) (size 9 to 14) (size 15 to 20)
#    0.000    0.000    7.143    5.143    0.000    0.000 
#    0.000    0.000    0.000    0.000   44.571    0.000 
#    0.000    0.000    0.000    0.000    0.000    0.000 
#
# Total GULP energy -117096.835379 kJ/mol
# GULP energy per Si atom -5576.039780 kJ/mol
# Density = 2.202274 g / cm^3
# Si number density = 22.072982 Si / 1000 Ang^3
#
#
#
# Elastic Constant Matrix: (Units=GPa)
#
#
# Indices 1 2 3 4 5 6 
#
# 1 86.8848 44.2240 49.0427 6.7831 0.0000 0.0000
# 2 44.2240 86.8848 49.0427 -6.7831 0.0000 0.0000
# 3 49.0427 49.0427 121.3942 0.0000 0.0000 0.0000
# 4 6.7831 -6.7831 0.0000 43.5345 0.0000 0.0000
# 5 0.0000 0.0000 0.0000 0.0000 43.5345 6.7831
# 6 0.0000 0.0000 0.0000 0.0000 6.7831 21.3304
#
#
#
# Elastic Compliance Matrix: (Units=1/GPa)
#
#
# Indices 1 2 3 4 5 6 
#
# 1 0.017797 -0.006866 -0.004416 -0.003843 0.000000 0.000000
# 2 -0.006866 0.017797 -0.004416 0.003843 0.000000 0.000000
# 3 -0.004416 -0.004416 0.011806 0.000000 0.000000 0.000000
# 4 -0.003843 0.003843 0.000000 0.024168 0.000000 0.000000
# 5 0.000000 0.000000 0.000000 0.000000 0.024168 -0.007685
# 6 0.000000 0.000000 0.000000 0.000000 -0.007685 0.049325
#
#
# Mechanical properties :
#
#
# Convention : Reuss Voigt Hill
#
# Bulk Modulus (GPa) = 62.48634 64.42027 63.45330
# Shear Modulus (GPa) = 27.50417 31.87018 29.68717
#
# Velocity S-wave (km/s) = 3.53378 3.80393 3.67134
# Velocity P-wave (km/s) = 6.70974 6.96719 6.83967
#
# Compressibility (1/GPa) = 0.01600350
#
# Stress axis : x y z
#
# Youngs Moduli (GPa) = 56.18979 56.18979 84.70433
#
# Poissons Ratio (x) = 0.38579 0.37406
# Poissons Ratio (y) = 0.38579 0.37406
# Poissons Ratio (z) = 0.24814 0.24814
#
# Static dielectric constant tensor:
#      x y z
#    x 2.637660 0.000000 0.000000 
#    y 0.000000 2.637660 0.000000 
#    z 0.000000 0.000000 1.965700 
# 
# From -- ./inp_files/173.got.cif
#   From: 2010.05.17/outbox.cif.g08.bks.cpg/sg152_1_cif.got.tgz:173.got - 2010.05.20 10:36:06.
