data_PCOD9576808
_publ_section_title
;
Structure prediction by ZEFSAII (Michael W. Deem and Ramdas Pophale) SiO2 
 PCOD9576808
Probable space group: R 3 2
;
_chemical_formula_sum "Si O2"
_cell_formula_units_Z 126
_cell_length_a 17.702534
_cell_length_b 17.702534
_cell_length_c 21.182014
_cell_angle_alpha 90.000000
_cell_angle_beta 90.000000
_cell_angle_gamma 120.000000
_cell_volume 5748.688239
_symmetry_space_group_name_H-M "R 3 2"
_symmetry_group_IT_number 155
_symmetry_cell_setting 'hexagonal'
loop_
_space_group_symop_operation_xyz
x,y,z
-y,x-y,z
-x+y,-x,z
x-y,-y,-z
-x,-x+y,-z
y,x,-z
2/3+x,1/3+y,1/3+z
2/3-y,1/3+x-y,1/3+z
2/3-x+y,1/3-x,1/3+z
2/3+x-y,1/3-y,1/3-z
2/3-x,1/3-x+y,1/3-z
2/3+y,1/3+x,1/3-z
1/3+x,2/3+y,2/3+z
1/3-y,2/3+x-y,2/3+z
1/3-x+y,2/3-x,2/3+z
1/3+x-y,2/3-y,2/3-z
1/3-x,2/3-x+y,2/3-z
1/3+y,2/3+x,2/3-z
loop_
_atom_site_type_symbol
_atom_site_label
_atom_site_fract_x
_atom_site_fract_y
_atom_site_fract_z
Si Si1 0.775024 0.681448 0.569414
Si Si2 0.206290 0.212013 0.774280
Si Si3 0.834686 0.865435 0.274812
Si Si4 0.779134 0.190708 0.993996
Si Si5 0.542160 0.918611 0.100545
Si Si6 0.147534 0.916317 0.848247
Si Si7 0.772962 0.704904 0.906116
O O1 0.746955 0.602158 0.616481
O O2 0.872737 0.757301 0.579283
O O3 0.776166 0.646549 0.497837
O O4 0.699059 0.703238 0.574238
O O5 0.154539 0.114128 0.742967
O O6 0.185712 0.273350 0.729515
O O7 0.310100 0.252284 0.771343
O O8 0.165367 0.214170 0.842279
O O9 0.872868 0.828109 0.328189
O O10 0.852990 0.829042 0.209737
O O11 0.695424 0.130264 0.951998
O O12 0.860551 0.189992 0.961085
O O13 0.544661 0.877994 0.166667
O O14 0.213234 0.879900 0.833334
O O15 0.197054 0.985678 0.904594
#
# Coordination Sequence:
#
# PCOD9576808 Si02
#       7
#    18  18  18  18  18  18  18
#     4   9  18  36  59  83 112 167 212 263 318 381
#     4  10  23  40  60  91 135 173 208 276 350 406
#     4   9  20  39  58  86 129 172 208 270 343 403
#     4  11  23  36  57  96 124 169 221 265 336 413
#     4  11  21  38  62  87 123 169 214 268 333 399
#     4  10  18  39  64  92 120 168 231 278 326 404
#     4  10  18  35  62  85 119 158 221 274 309 385
#
# _framework density 21.918043000000001
#
# number of rings (size 3 to 8) (size 9 to 14) (size 15 to 20)
#    0.000    2.000    4.286    0.857    2.000    0.571 
#    6.857    0.000    0.000    0.000    0.000    0.000 
#    0.000    0.000    0.000    0.000    0.000    0.000 
#
# Total GULP energy -233848.337843 kJ/mol
# GULP energy per Si atom -5567.817568 kJ/mol
# Density = 2.186816 g / cm^3
# Si number density = 21.918043 Si / 1000 Ang^3
#
#
#
# Elastic Constant Matrix: (Units=GPa)
#
#
# Indices 1 2 3 4 5 6 
#
# 1 99.8288 45.2058 32.7073 -7.9557 0.0002 0.0000
# 2 45.2058 99.8288 32.7073 7.9557 -0.0002 0.0000
# 3 32.7073 32.7073 56.4800 0.0000 0.0000 0.0000
# 4 -7.9557 7.9557 0.0000 37.7760 0.0000 -0.0002
# 5 0.0002 -0.0002 0.0000 0.0000 37.7760 -7.9557
# 6 0.0000 0.0000 0.0000 -0.0002 -7.9557 27.3115
#
#
#
# Elastic Compliance Matrix: (Units=1/GPa)
#
#
# Indices 1 2 3 4 5 6 
#
# 1 0.014418 -0.005086 -0.005404 0.004108 0.000000 0.000000
# 2 -0.005086 0.014418 -0.005404 -0.004108 0.000000 0.000000
# 3 -0.005404 -0.005404 0.023965 0.000000 0.000000 0.000000
# 4 0.004108 -0.004108 0.000000 0.028202 0.000000 0.000000
# 5 0.000000 0.000000 0.000000 0.000000 0.028202 0.008215
# 6 0.000000 0.000000 0.000000 0.000000 0.008215 0.039008
#
#
# Mechanical properties :
#
#
# Convention : Reuss Voigt Hill
#
# Bulk Modulus (GPa) = 47.59171 53.04204 50.31688
# Shear Modulus (GPa) = 26.73722 30.27384 28.50553
#
# Velocity S-wave (km/s) = 3.49646 3.72052 3.61023
# Velocity P-wave (km/s) = 6.16935 6.53522 6.35492
#
# Compressibility (1/GPa) = 0.02101206
#
# Stress axis : x y z
#
# Youngs Moduli (GPa) = 69.35722 69.35722 41.72806
#
# Poissons Ratio (x) = 0.35273 0.22551
# Poissons Ratio (y) = 0.35273 0.22551
# Poissons Ratio (z) = 0.37483 0.37483
#
# Static dielectric constant tensor:
#      x y z
#    x 1.877160 0.000000 0.000000 
#    y 0.000000 1.877160 0.000000 
#    z 0.000000 0.000000 1.889090 
# 
# From -- ./inp_files/7530.got.cif
#   From: 2010.05.17/outbox.cif.g08.bks.cpg/sg155_4_cif.got.tgz:7530.got - 2010.05.20 10:44:35.
