data_PCOD9576143
_publ_section_title
;
Structure prediction by ZEFSAII (Michael W. Deem and Ramdas Pophale) SiO2 
 PCOD9576143
Probable space group: P 31 2 1
;
_chemical_formula_sum "Si O2"
_cell_formula_units_Z 24
_cell_length_a 8.889004
_cell_length_b 8.889004
_cell_length_c 19.629618
_cell_angle_alpha 90.000000
_cell_angle_beta 90.000000
_cell_angle_gamma 120.000000
_cell_volume 1343.224743
_symmetry_space_group_name_H-M "P 31 2 1"
_symmetry_group_IT_number 152
_symmetry_cell_setting 'hexagonal'
loop_
_space_group_symop_operation_xyz
x,y,z
-y,x-y,1/3+z
-x+y,-x,2/3+z
x-y,-y,2/3-z
-x,-x+y,1/3-z
y,x,-z
loop_
_atom_site_type_symbol
_atom_site_label
_atom_site_fract_x
_atom_site_fract_y
_atom_site_fract_z
Si Si1 0.482592 0.511233 0.920861
Si Si2 0.460892 0.148544 0.887219
Si Si3 0.833062 0.190718 0.856348
Si Si4 0.196582 0.885576 0.638369
O O1 0.472422 0.336613 0.889968
O O2 0.590182 0.669944 0.870865
O O3 0.281710 0.457940 0.930917
O O4 0.546865 0.546865 0.000000
O O5 0.653210 0.182909 0.874973
O O6 0.336041 0.000000 0.833334
O O7 0.391948 0.076365 0.962435
O O8 0.956079 0.235347 0.920979
O O9 0.784297 0.000000 0.833334
O O10 0.000000 0.821424 0.666667
#
# Coordination Sequence:
#
# PCOD9576143 Si02
#       4
#     6   6   6   6
#     4   9  20  39  57  78 111 146 180 225 274 322
#     4   9  20  37  57  81 109 144 183 220 272 331
#     4  11  22  35  56  84 110 141 184 226 270 327
#     4   9  21  39  55  77 110 143 178 223 272 320
#
# _framework density 17.867450000000002
#
# number of rings (size 3 to 8) (size 9 to 14) (size 15 to 20)
#    0.000    3.000    0.000    1.500    0.000   15.000 
#    0.000    0.000    0.000    0.000    0.000    0.000 
#    0.000    0.000    0.000    0.000    0.000    0.000 
#
# Total GULP energy -133665.006565 kJ/mol
# GULP energy per Si atom -5569.375274 kJ/mol
# Density = 1.782678 g / cm^3
# Si number density = 17.867450 Si / 1000 Ang^3
#
#
#
# Elastic Constant Matrix: (Units=GPa)
#
#
# Indices 1 2 3 4 5 6 
#
# 1 78.1498 45.8334 79.8728 9.8210 -0.0006 0.0000
# 2 45.8334 78.1498 79.8728 -9.8210 0.0006 0.0000
# 3 79.8728 79.8728 137.9205 0.0000 0.0000 0.0000
# 4 9.8210 -9.8210 0.0000 30.8479 0.0000 0.0006
# 5 -0.0006 0.0006 0.0000 0.0000 30.8479 9.8210
# 6 0.0000 0.0000 0.0000 0.0006 9.8210 16.1582
#
#
#
# Elastic Compliance Matrix: (Units=1/GPa)
#
#
# Indices 1 2 3 4 5 6 
#
# 1 0.035072 -0.003297 -0.018402 -0.012215 0.000001 0.000000
# 2 -0.003297 0.035072 -0.018402 0.012215 -0.000001 0.000000
# 3 -0.018402 -0.018402 0.028564 0.000000 0.000000 0.000000
# 4 -0.012215 0.012215 0.000000 0.040195 0.000000 -0.000001
# 5 0.000001 -0.000001 0.000000 0.000000 0.040195 -0.024431
# 6 0.000000 0.000000 0.000000 -0.000001 -0.024431 0.076737
#
#
# Mechanical properties :
#
#
# Convention : Reuss Voigt Hill
#
# Bulk Modulus (GPa) = 54.03127 78.37536 66.20332
# Shear Modulus (GPa) = 14.61108 21.48018 18.04563
#
# Velocity S-wave (km/s) = 2.86273 3.47103 3.18145
# Velocity P-wave (km/s) = 6.42127 7.74753 7.11537
#
# Compressibility (1/GPa) = 0.01850780
#
# Stress axis : x y z
#
# Youngs Moduli (GPa) = 28.51276 28.51276 35.00866
#
# Poissons Ratio (x) = 0.09400 0.64422
# Poissons Ratio (y) = 0.09400 0.64422
# Poissons Ratio (z) = 0.52469 0.52469
#
# Static dielectric constant tensor:
#      x y z
#    x 1.617060 0.000000 0.000000 
#    y 0.000000 1.617060 0.000000 
#    z 0.000000 0.000000 1.534440 
# 
# From -- ./inp_files/2609.got.cif
#   From: 2010.05.17/outbox.cif.g08.bks.cpg/sg152_2_cif.got.tgz:2609.got - 2010.05.20 10:36:06.
