data_PCOD9576331
_publ_section_title
;
Structure prediction by ZEFSAII (Michael W. Deem and Ramdas Pophale) SiO2 
 PCOD9576331
Probable space group: P 32 1 2
;
_chemical_formula_sum "Si O2"
_cell_formula_units_Z 30
_cell_length_a 16.113980
_cell_length_b 16.113980
_cell_length_c 5.740470
_cell_angle_alpha 90.000000
_cell_angle_beta 90.000000
_cell_angle_gamma 120.000000
_cell_volume 1290.873614
_symmetry_space_group_name_H-M "P 32 1 2"
_symmetry_group_IT_number 153
_symmetry_cell_setting 'hexagonal'
loop_
_space_group_symop_operation_xyz
x,y,z
-y,x-y,2/3+z
-x+y,-x,1/3+z
-y,-x,1/3-z
-x+y,y,2/3-z
x,x-y,-z
loop_
_atom_site_type_symbol
_atom_site_label
_atom_site_fract_x
_atom_site_fract_y
_atom_site_fract_z
Si Si1 0.445946 0.371016 0.281770
Si Si2 0.299807 0.395640 0.990476
Si Si3 0.259169 0.518338 0.333334
Si Si4 0.748683 0.251318 0.666667
Si Si5 0.106198 0.212396 0.833334
Si Si6 0.949734 0.050267 0.166667
Si Si7 0.426427 0.573574 0.666667
Si Si8 0.578668 0.157335 0.333334
O O1 0.536550 0.463451 0.166667
O O2 0.475452 0.380145 0.549125
O O3 0.358206 0.379824 0.196178
O O4 0.441610 0.277338 0.173460
O O5 0.211524 0.290821 0.932539
O O6 0.373499 0.466269 0.787412
O O7 0.256833 0.454053 0.117889
O O8 0.363193 0.574864 0.449707
O O9 0.653745 0.222352 0.523973
O O10 0.133334 0.143243 0.676032
O O11 0.036818 0.073635 0.333334
#
# Coordination Sequence:
#
# PCOD9576331 Si02
#       8
#     6   6   3   3   3   3   3   3
#     4  10  23  43  66  99 147 194 242 312 374 452
#     4  12  27  47  75 108 149 198 256 310 389 461
#     4  12  26  45  70 111 155 203 255 312 373 472
#     4  10  22  39  66 107 135 191 249 306 367 452
#     4  11  24  52  82 120 144 200 254 322 400 467
#     4   9  22  48  84 114 152 188 246 318 396 465
#     4  12  26  48  72 109 148 204 253 318 378 464
#     4  10  22  42  70 101 144 194 245 302 382 448
#
# _framework density 23.240072000000001
#
# number of rings (size 3 to 8) (size 9 to 14) (size 15 to 20)
#    0.000    1.200    2.000    2.400    1.400   19.200 
#    5.400    0.000    8.800    0.000    0.000    0.000 
#    0.000    0.000    0.000    0.000    0.000    0.000 
#
# Total GULP energy -167145.738140 kJ/mol
# GULP energy per Si atom -5571.524605 kJ/mol
# Density = 2.318718 g / cm^3
# Si number density = 23.240072 Si / 1000 Ang^3
#
#
#
# Elastic Constant Matrix: (Units=GPa)
#
#
# Indices 1 2 3 4 5 6 
#
# 1 108.5090 68.3611 48.7753 -0.0002 2.7229 0.0000
# 2 68.3611 108.5090 48.7753 0.0002 -2.7229 0.0000
# 3 48.7753 48.7753 110.6531 0.0000 0.0000 0.0000
# 4 -0.0002 0.0002 0.0000 28.3492 0.0000 -2.7229
# 5 2.7229 -2.7229 0.0000 0.0000 28.3492 -0.0002
# 6 0.0000 0.0000 0.0000 -2.7229 -0.0002 20.0740
#
#
#
# Elastic Compliance Matrix: (Units=1/GPa)
#
#
# Indices 1 2 3 4 5 6 
#
# 1 0.016353 -0.008883 -0.003293 0.000000 -0.002424 0.000000
# 2 -0.008883 0.016353 -0.003293 0.000000 0.002424 0.000000
# 3 -0.003293 -0.003293 0.011940 0.000000 0.000000 0.000000
# 4 0.000000 0.000000 0.000000 0.035740 0.000000 0.004848
# 5 -0.002424 0.002424 0.000000 0.000000 0.035740 0.000000
# 6 0.000000 0.000000 0.000000 0.004848 0.000000 0.050473
#
#
# Mechanical properties :
#
#
# Convention : Reuss Voigt Hill
#
# Bulk Modulus (GPa) = 72.94426 73.27716 73.11071
# Shear Modulus (GPa) = 24.73932 26.13843 25.43887
#
# Velocity S-wave (km/s) = 3.26622 3.35731 3.31208
# Velocity P-wave (km/s) = 6.75868 6.82845 6.79365
#
# Compressibility (1/GPa) = 0.01370910
#
# Stress axis : x y z
#
# Youngs Moduli (GPa) = 61.14974 61.14974 83.75174
#
# Poissons Ratio (x) = 0.54322 0.27577
# Poissons Ratio (y) = 0.54322 0.27577
# Poissons Ratio (z) = 0.20135 0.20135
#
# Static dielectric constant tensor:
#      x y z
#    x 1.947920 0.000000 0.000000 
#    y 0.000000 1.947920 0.000000 
#    z 0.000000 0.000000 1.927470 
# 
# From -- ./inp_files/584.got.cif
#   From: 2010.05.17/outbox.cif.g08.bks.cpg/sg153_1_cif.got.tgz:584.got - 2010.05.20 10:38:56.
