data_PCOD9576639
_publ_section_title
;
Structure prediction by ZEFSAII (Michael W. Deem and Ramdas Pophale) SiO2 
 PCOD9576639
Probable space group: P 32 2 1
;
_chemical_formula_sum "Si O2"
_cell_formula_units_Z 36
_cell_length_a 8.936662
_cell_length_b 8.936662
_cell_length_c 25.610293
_cell_angle_alpha 90.000000
_cell_angle_beta 90.000000
_cell_angle_gamma 120.000000
_cell_volume 1771.315177
_symmetry_space_group_name_H-M "P 32 2 1"
_symmetry_group_IT_number 154
_symmetry_cell_setting 'hexagonal'
loop_
_space_group_symop_operation_xyz
x,y,z
-y,x-y,2/3+z
-x+y,-x,1/3+z
x-y,-y,1/3-z
-x,-x+y,2/3-z
y,x,-z
loop_
_atom_site_type_symbol
_atom_site_label
_atom_site_fract_x
_atom_site_fract_y
_atom_site_fract_z
Si Si1 0.405138 0.032848 0.026189
Si Si2 0.660850 0.063346 0.395876
Si Si3 0.305980 0.000000 0.666667
Si Si4 0.895985 0.502870 0.252316
Si Si5 0.411619 0.732213 0.558467
Si Si6 0.283312 0.760284 0.115001
Si Si7 0.806613 0.000000 0.666667
O O1 0.388672 0.898427 0.070440
O O2 0.522589 0.218012 0.053663
O O3 0.223975 0.032530 0.015043
O O4 0.502043 0.003783 0.977657
O O5 0.842885 0.147170 0.364084
O O6 0.663223 0.212737 0.431198
O O7 0.626495 0.908674 0.434122
O O8 0.461757 0.092535 0.625331
O O9 0.709641 0.409693 0.227029
O O10 0.936722 0.671636 0.285297
O O11 0.062024 0.566274 0.215836
O O12 0.466802 0.664016 0.508559
#
# Coordination Sequence:
#
# PCOD9576639 Si02
#       7
#     6   6   3   6   6   6   3
#     4  11  21  37  61  87 117 159 202 253 310 374
#     4  11  21  37  63  91 116 157 214 253 302 372
#     4   9  18  35  56  88 116 146 200 262 288 352
#     4   9  17  34  57  77 112 153 197 242 294 360
#     4  10  23  38  56  85 122 158 198 253 313 370
#     4  12  21  35  59  89 118 154 201 252 317 367
#     4   9  18  35  56  82 114 150 198 248 294 376
#
# _framework density 20.323884
#
# number of rings (size 3 to 8) (size 9 to 14) (size 15 to 20)
#    0.000    1.667    3.333    3.500    0.000    0.667 
#    0.000    0.000    0.000    0.000   13.000    0.000 
#    0.000    0.000    0.000    0.000    0.000    0.000 
#
# Total GULP energy -200476.534576 kJ/mol
# GULP energy per Si atom -5568.792627 kJ/mol
# Density = 2.027763 g / cm^3
# Si number density = 20.323884 Si / 1000 Ang^3
#
#
#
# Elastic Constant Matrix: (Units=GPa)
#
#
# Indices 1 2 3 4 5 6 
#
# 1 63.9408 5.3826 12.7298 0.9461 0.0001 0.0000
# 2 5.3826 63.9408 12.7298 -0.9461 -0.0001 0.0000
# 3 12.7298 12.7298 79.4764 0.0000 0.0000 0.0000
# 4 0.9461 -0.9461 0.0000 23.5553 0.0000 -0.0001
# 5 0.0001 -0.0001 0.0000 0.0000 23.5553 0.9461
# 6 0.0000 0.0000 0.0000 -0.0001 0.9461 29.2791
#
#
#
# Elastic Compliance Matrix: (Units=1/GPa)
#
#
# Indices 1 2 3 4 5 6 
#
# 1 0.016213 -0.000886 -0.002455 -0.000687 0.000000 0.000000
# 2 -0.000886 0.016213 -0.002455 0.000687 0.000000 0.000000
# 3 -0.002455 -0.002455 0.013369 0.000000 0.000000 0.000000
# 4 -0.000687 0.000687 0.000000 0.042508 0.000000 0.000000
# 5 0.000000 0.000000 0.000000 0.000000 0.042508 -0.001374
# 6 0.000000 0.000000 0.000000 0.000000 -0.001374 0.034198
#
#
# Mechanical properties :
#
#
# Convention : Reuss Voigt Hill
#
# Bulk Modulus (GPa) = 29.23753 29.89361 29.56557
# Shear Modulus (GPa) = 26.59530 27.04564 26.82047
#
# Velocity S-wave (km/s) = 3.62135 3.65188 3.63664
# Velocity P-wave (km/s) = 5.64823 5.70282 5.67559
#
# Compressibility (1/GPa) = 0.03420262
#
# Stress axis : x y z
#
# Youngs Moduli (GPa) = 61.67896 61.67896 74.80128
#
# Poissons Ratio (x) = 0.05466 0.18363
# Poissons Ratio (y) = 0.05466 0.18363
# Poissons Ratio (z) = 0.15142 0.15142
#
# Static dielectric constant tensor:
#      x y z
#    x 1.763690 0.000000 0.000000 
#    y 0.000000 1.763690 0.000000 
#    z 0.000000 0.000000 1.748400 
# 
# From -- ./inp_files/3513.got.cif
#   From: 2010.05.17/outbox.cif.g08.bks.cpg/sg154_2_cif.got.tgz:3513.got - 2010.05.20 10:41:43.
