data_PCOD9576062
_publ_section_title
;
Structure prediction by ZEFSAII (Michael W. Deem and Ramdas Pophale) SiO2 
 PCOD9576062
Probable space group: P 31 2 1
;
_chemical_formula_sum "Si O2"
_cell_formula_units_Z 30
_cell_length_a 7.345118
_cell_length_b 7.345118
_cell_length_c 24.024567
_cell_angle_alpha 90.000000
_cell_angle_beta 90.000000
_cell_angle_gamma 120.000000
_cell_volume 1122.493294
_symmetry_space_group_name_H-M "P 31 2 1"
_symmetry_group_IT_number 152
_symmetry_cell_setting 'hexagonal'
loop_
_space_group_symop_operation_xyz
x,y,z
-y,x-y,1/3+z
-x+y,-x,2/3+z
x-y,-y,2/3-z
-x,-x+y,1/3-z
y,x,-z
loop_
_atom_site_type_symbol
_atom_site_label
_atom_site_fract_x
_atom_site_fract_y
_atom_site_fract_z
Si Si1 0.000000 0.851210 0.166667
Si Si2 0.775222 0.000000 0.333334
Si Si3 0.609397 0.787217 0.226329
Si Si4 0.684762 0.926153 0.624882
Si Si5 0.429822 0.770712 0.109592
Si Si6 0.448293 0.471838 0.590161
O O1 0.929266 0.670888 0.118712
O O2 0.839098 0.903288 0.197473
O O3 0.711060 0.100049 0.383539
O O4 0.001875 0.167808 0.309717
O O5 0.468512 0.774471 0.174684
O O6 0.598785 0.567264 0.239441
O O7 0.510353 0.715123 0.592513
O O8 0.606245 0.983210 0.681183
O O9 0.793615 0.144359 0.589907
O O10 0.208605 0.568875 0.094705
#
# Coordination Sequence:
#
# PCOD9576062 Si02
#       6
#     3   3   6   6   6   6
#     4  10  22  46  70 100 138 182 236 306 360 438
#     4  12  24  46  72 100 146 184 238 302 362 444
#     4  11  25  46  69 106 140 185 244 298 366 437
#     4  12  24  46  71 105 140 192 237 302 364 435
#     4  11  26  46  72 107 144 187 250 296 366 451
#     4  11  24  45  71 100 146 184 243 297 369 435
#
# _framework density 26.726215
#
# number of rings (size 3 to 8) (size 9 to 14) (size 15 to 20)
#    0.000    0.800    6.000    1.200    8.400    0.000 
#    0.000    1.000    0.000    0.000    0.000    0.000 
#    0.000    0.000    0.000    0.000    0.000    0.000 
#
# Total GULP energy -167807.458784 kJ/mol
# GULP energy per Si atom -5593.581959 kJ/mol
# Density = 2.666538 g / cm^3
# Si number density = 26.726215 Si / 1000 Ang^3
#
#
#
# Elastic Constant Matrix: (Units=GPa)
#
#
# Indices 1 2 3 4 5 6 
#
# 1 81.2077 9.2003 26.4599 1.0673 -0.0001 0.0000
# 2 9.2003 81.2077 26.4599 -1.0673 0.0001 0.0000
# 3 26.4599 26.4599 186.5949 0.0000 0.0000 0.0000
# 4 1.0673 -1.0673 0.0000 49.0153 0.0000 0.0001
# 5 -0.0001 0.0001 0.0000 0.0000 49.0153 1.0673
# 6 0.0000 0.0000 0.0000 0.0001 1.0673 36.0037
#
#
#
# Elastic Compliance Matrix: (Units=1/GPa)
#
#
# Indices 1 2 3 4 5 6 
#
# 1 0.012979 -0.000917 -0.001710 -0.000303 0.000000 0.000000
# 2 -0.000917 0.012979 -0.001710 0.000303 0.000000 0.000000
# 3 -0.001710 -0.001710 0.005844 0.000000 0.000000 0.000000
# 4 -0.000303 0.000303 0.000000 0.020415 0.000000 0.000000
# 5 0.000000 0.000000 0.000000 0.000000 0.020415 -0.000605
# 6 0.000000 0.000000 0.000000 0.000000 -0.000605 0.027793
#
#
# Mechanical properties :
#
#
# Convention : Reuss Voigt Hill
#
# Bulk Modulus (GPa) = 43.23987 52.58338 47.91162
# Shear Modulus (GPa) = 42.80431 45.93291 44.36861
#
# Velocity S-wave (km/s) = 4.00632 4.15015 4.07887
# Velocity P-wave (km/s) = 6.13309 6.53319 6.33630
#
# Compressibility (1/GPa) = 0.02312680
#
# Stress axis : x y z
#
# Youngs Moduli (GPa) = 77.04577 77.04578 171.10683
#
# Poissons Ratio (x) = 0.07066 0.29267
# Poissons Ratio (y) = 0.07066 0.29267
# Poissons Ratio (z) = 0.13178 0.13178
#
# Static dielectric constant tensor:
#      x y z
#    x 2.265800 0.000000 0.000000 
#    y 0.000000 2.265800 0.000000 
#    z 0.000000 0.000000 2.095560 
# 
# From -- ./inp_files/3039.got.cif
#   From: 2010.05.17/outbox.cif.g08.bks.cpg/sg152_2_cif.got.tgz:3039.got - 2010.05.20 10:36:06.
