data_PCOD9576611
_publ_section_title
;
Structure prediction by ZEFSAII (Michael W. Deem and Ramdas Pophale) SiO2 
 PCOD9576611
Probable space group: P 32 2 1
;
_chemical_formula_sum "Si O2"
_cell_formula_units_Z 33
_cell_length_a 13.359872
_cell_length_b 13.359872
_cell_length_c 7.958008
_cell_angle_alpha 90.000000
_cell_angle_beta 90.000000
_cell_angle_gamma 120.000000
_cell_volume 1230.097675
_symmetry_space_group_name_H-M "P 32 2 1"
_symmetry_group_IT_number 154
_symmetry_cell_setting 'hexagonal'
loop_
_space_group_symop_operation_xyz
x,y,z
-y,x-y,2/3+z
-x+y,-x,1/3+z
x-y,-y,1/3-z
-x,-x+y,2/3-z
y,x,-z
loop_
_atom_site_type_symbol
_atom_site_label
_atom_site_fract_x
_atom_site_fract_y
_atom_site_fract_z
Si Si1 0.119364 0.638049 0.531074
Si Si2 0.300177 0.856858 0.705033
Si Si3 0.107799 0.541919 0.039178
Si Si4 0.793544 0.568151 0.485566
Si Si5 0.923163 0.000000 0.666667
Si Si6 0.132006 0.901862 0.911717
O O1 0.207156 0.728496 0.656972
O O2 0.149319 0.539680 0.492867
O O3 0.003073 0.568543 0.043373
O O4 0.136244 0.709129 0.354864
O O5 0.373839 0.911926 0.536258
O O6 0.222723 0.903810 0.782290
O O7 0.209714 0.670707 0.080406
O O8 0.135777 0.474977 0.897960
O O9 0.851918 0.687999 0.592263
O O10 0.000000 0.035536 0.833334
O O11 0.963143 0.131627 0.611387
O O12 0.000000 0.830459 0.833334
#
# Coordination Sequence:
#
# PCOD9576611 Si02
#       6
#     6   6   6   6   3   6
#     4  10  22  43  68 115 156 205 259 323 407 497
#     4  10  22  41  71 105 158 202 257 329 412 475
#     4  10  22  42  67 113 153 204 258 327 406 495
#     4  10  22  41  72 109 158 203 258 325 415 476
#     4  10  26  58  74 110 148 206 284 346 400 458
#     4  11  25  47  73 111 145 209 266 330 392 477
#
# _framework density 26.827141000000001
#
# number of rings (size 3 to 8) (size 9 to 14) (size 15 to 20)
#    0.000    1.818    0.000    3.273    0.000   13.091 
#   29.455    3.636    0.000    0.000    0.000    0.000 
#    0.000    0.000    0.000    0.000    0.000    0.000 
#
# Total GULP energy -184302.719250 kJ/mol
# GULP energy per Si atom -5584.930886 kJ/mol
# Density = 2.676608 g / cm^3
# Si number density = 26.827141 Si / 1000 Ang^3
#
#
#
# Elastic Constant Matrix: (Units=GPa)
#
#
# Indices 1 2 3 4 5 6 
#
# 1 150.5692 68.4652 39.4587 -6.1111 0.0000 0.0000
# 2 68.4652 150.5692 39.4587 6.1111 0.0000 0.0000
# 3 39.4587 39.4587 105.3458 0.0000 0.0000 0.0000
# 4 -6.1111 6.1111 0.0000 29.6854 0.0000 0.0000
# 5 0.0000 0.0000 0.0000 0.0000 29.6854 -6.1111
# 6 0.0000 0.0000 0.0000 0.0000 -6.1111 41.0520
#
#
#
# Elastic Compliance Matrix: (Units=1/GPa)
#
#
# Indices 1 2 3 4 5 6 
#
# 1 0.008921 -0.003643 -0.001977 0.002587 0.000000 0.000000
# 2 -0.003643 0.008921 -0.001977 -0.002587 0.000000 0.000000
# 3 -0.001977 -0.001977 0.010973 0.000000 0.000000 0.000000
# 4 0.002587 -0.002587 0.000000 0.034752 0.000000 0.000000
# 5 0.000000 0.000000 0.000000 0.000000 0.034752 0.005173
# 6 0.000000 0.000000 0.000000 0.000000 0.005173 0.025129
#
#
# Mechanical properties :
#
#
# Convention : Reuss Voigt Hill
#
# Bulk Modulus (GPa) = 73.41310 77.91660 75.66485
# Shear Modulus (GPa) = 34.92022 37.35798 36.13910
#
# Velocity S-wave (km/s) = 3.61179 3.73573 3.67428
# Velocity P-wave (km/s) = 6.69462 6.90757 6.80193
#
# Compressibility (1/GPa) = 0.01362155
#
# Stress axis : x y z
#
# Youngs Moduli (GPa) = 112.09211 112.09211 91.12890
#
# Poissons Ratio (x) = 0.40841 0.18015
# Poissons Ratio (y) = 0.40841 0.18015
# Poissons Ratio (z) = 0.22159 0.22159
#
# Static dielectric constant tensor:
#      x y z
#    x 2.143980 0.000000 0.000000 
#    y 0.000000 2.143980 0.000000 
#    z 0.000000 0.000000 2.136330 
# 
# From -- ./inp_files/1125.got.cif
#   From: 2010.05.17/outbox.cif.g08.bks.cpg/sg154_1_cif.got.tgz:1125.got - 2010.05.20 10:41:43.
