data_PCOD9576020
_publ_section_title
;
Structure prediction by ZEFSAII (Michael W. Deem and Ramdas Pophale) SiO2 
 PCOD9576020
Probable space group: P 31 2 1
;
_chemical_formula_sum "Si O2"
_cell_formula_units_Z 36
_cell_length_a 12.409809
_cell_length_b 12.409809
_cell_length_c 10.601909
_cell_angle_alpha 90.000000
_cell_angle_beta 90.000000
_cell_angle_gamma 120.000000
_cell_volume 1413.985313
_symmetry_space_group_name_H-M "P 31 2 1"
_symmetry_group_IT_number 152
_symmetry_cell_setting 'hexagonal'
loop_
_space_group_symop_operation_xyz
x,y,z
-y,x-y,1/3+z
-x+y,-x,2/3+z
x-y,-y,2/3-z
-x,-x+y,1/3-z
y,x,-z
loop_
_atom_site_type_symbol
_atom_site_label
_atom_site_fract_x
_atom_site_fract_y
_atom_site_fract_z
Si Si1 0.561828 0.255377 0.392800
Si Si2 0.250512 0.913346 0.659372
Si Si3 0.690329 0.828621 0.056454
Si Si4 0.142614 0.067686 0.706762
Si Si5 0.466278 0.551890 0.700561
Si Si6 0.105266 0.652606 0.775022
O O1 0.420462 0.221705 0.367537
O O2 0.553913 0.171372 0.509795
O O3 0.607181 0.401720 0.397912
O O4 0.611709 0.204461 0.277207
O O5 0.219939 0.844947 0.524473
O O6 0.176057 0.803107 0.760169
O O7 0.208901 0.015337 0.619218
O O8 0.395021 0.997572 0.682291
O O9 0.791891 0.972889 0.057520
O O10 0.750771 0.750771 0.000000
O O11 0.143498 0.000000 0.833334
O O12 0.000000 0.002105 0.666667
O O13 0.444699 0.418723 0.764969
O O14 0.000000 0.603515 0.666667
#
# Coordination Sequence:
#
# PCOD9576020 Si02
#       6
#     6   6   6   6   6   6
#     4  11  22  45  71 101 134 188 246 289 363 432
#     4  12  23  45  66 103 141 174 243 300 352 432
#     4  11  20  39  68  94 134 180 231 284 356 424
#     4  11  24  39  65 100 139 181 228 291 356 425
#     4  11  25  45  73 105 144 191 237 306 363 432
#     4  10  22  40  74  99 127 184 239 296 349 420
#
# _framework density 25.459954
#
# number of rings (size 3 to 8) (size 9 to 14) (size 15 to 20)
#    0.000    1.000    5.000    3.000    2.333    0.000 
#    6.000    0.000    0.000    0.000    0.000    0.000 
#    0.000    0.000    0.000    0.000    0.000    0.000 
#
# Total GULP energy -200449.749195 kJ/mol
# GULP energy per Si atom -5568.048589 kJ/mol
# Density = 2.540201 g / cm^3
# Si number density = 25.459954 Si / 1000 Ang^3
#
#
#
# Elastic Constant Matrix: (Units=GPa)
#
#
# Indices 1 2 3 4 5 6 
#
# 1 99.8273 24.0169 14.0823 -11.8175 0.0032 0.0000
# 2 24.0169 99.8273 14.0823 11.8175 -0.0032 0.0000
# 3 14.0823 14.0823 43.5804 0.0000 0.0000 0.0000
# 4 -11.8175 11.8175 0.0000 -41.3091 0.0000 -0.0032
# 5 0.0032 -0.0032 0.0000 0.0000 -41.3091 -11.8175
# 6 0.0000 0.0000 0.0000 -0.0032 -11.8175 37.9052
#
#
#
# Elastic Compliance Matrix: (Units=1/GPa)
#
#
# Indices 1 2 3 4 5 6 
#
# 1 0.010413 -0.001698 -0.002816 -0.003465 0.000001 0.000000
# 2 -0.001698 0.010413 -0.002816 0.003465 -0.000001 0.000000
# 3 -0.002816 -0.002816 0.024766 0.000000 0.000000 0.000000
# 4 -0.003465 0.003465 0.000000 -0.022226 0.000000 -0.000002
# 5 0.000001 -0.000001 0.000000 0.000000 -0.022226 -0.006929
# 6 0.000000 0.000000 0.000000 -0.000002 -0.006929 0.024221
#
#
# Mechanical properties :
#
#
# Convention : Reuss Voigt Hill
#
# Bulk Modulus (GPa) = 32.32925 38.62199 35.47562
# Shear Modulus (GPa) = 99.33867 3.79432 51.56650
#
# Velocity S-wave (km/s) = 6.25318 1.22211 4.50532
# Velocity P-wave (km/s) = 8.05370 4.14657 6.40531
#
# Compressibility (1/GPa) = 0.03093174
#
# Stress axis : x y z
#
# Youngs Moduli (GPa) = 96.03487 96.03487 40.37780
#
# Poissons Ratio (x) = 0.16305 0.11371
# Poissons Ratio (y) = 0.16305 0.11371
# Poissons Ratio (z) = 0.27045 0.27045
#
# Static dielectric constant tensor:
#      x y z
#    x 1.968840 0.000000 0.000000 
#    y 0.000000 1.968840 0.000000 
#    z 0.000000 0.000000 2.404340 
# 
# From -- ./inp_files/2045.got.cif
#   From: 2010.05.17/outbox.cif.g08.bks.cpg/sg152_2_cif.got.tgz:2045.got - 2010.05.20 10:36:06.
