data_PCOD9576368
_publ_section_title
;
Structure prediction by ZEFSAII (Michael W. Deem and Ramdas Pophale) SiO2 
 PCOD9576368
Probable space group: P 32 1 2
;
_chemical_formula_sum "Si O2"
_cell_formula_units_Z 18
_cell_length_a 10.082572
_cell_length_b 10.082572
_cell_length_c 9.493862
_cell_angle_alpha 90.000000
_cell_angle_beta 90.000000
_cell_angle_gamma 120.000000
_cell_volume 835.826642
_symmetry_space_group_name_H-M "P 32 1 2"
_symmetry_group_IT_number 153
_symmetry_cell_setting 'hexagonal'
loop_
_space_group_symop_operation_xyz
x,y,z
-y,x-y,2/3+z
-x+y,-x,1/3+z
-y,-x,1/3-z
-x+y,y,2/3-z
x,x-y,-z
loop_
_atom_site_type_symbol
_atom_site_label
_atom_site_fract_x
_atom_site_fract_y
_atom_site_fract_z
Si Si1 0.773339 0.783417 0.218393
Si Si2 0.958227 0.280257 0.237639
Si Si3 0.366149 0.835281 0.052614
O O1 0.897821 0.795641 0.333334
O O2 0.601693 0.674271 0.274777
O O3 0.778451 0.942034 0.181913
O O4 0.777162 0.717110 0.065186
O O5 0.794001 0.206000 0.166667
O O6 0.053739 0.462913 0.228099
O O7 0.230611 0.769390 0.166667
O O8 0.364626 0.682313 0.000000
#
# Coordination Sequence:
#
# PCOD9576368 Si02
#       3
#     6   6   6
#     4  11  26  42  68 103 143 185 236 295 355 423
#     4  11  25  44  67 101 145 185 236 294 354 425
#     4  12  22  45  79 108 138 188 246 299 353 428
#
# _framework density 21.535564999999998
#
# number of rings (size 3 to 8) (size 9 to 14) (size 15 to 20)
#    0.000    0.667    6.667    1.000    9.333    0.000 
#    0.000    3.333    0.000    0.000    0.000    0.000 
#    0.000    0.000    0.000    0.000    0.000    0.000 
#
# Total GULP energy -100608.788331 kJ/mol
# GULP energy per Si atom -5589.377130 kJ/mol
# Density = 2.148655 g / cm^3
# Si number density = 21.535565 Si / 1000 Ang^3
#
#
#
# Elastic Constant Matrix: (Units=GPa)
#
#
# Indices 1 2 3 4 5 6 
#
# 1 102.6775 46.2845 68.9649 0.0005 0.5163 0.0000
# 2 46.2845 102.6775 68.9649 -0.0005 -0.5163 0.0000
# 3 68.9649 68.9649 112.9191 0.0000 0.0000 0.0000
# 4 0.0005 -0.0005 0.0000 31.5109 0.0000 -0.5163
# 5 0.5163 -0.5163 0.0000 0.0000 31.5109 0.0005
# 6 0.0000 0.0000 0.0000 -0.5163 0.0005 28.1965
#
#
#
# Elastic Compliance Matrix: (Units=1/GPa)
#
#
# Indices 1 2 3 4 5 6 
#
# 1 0.016594 -0.001144 -0.009436 0.000000 -0.000291 0.000000
# 2 -0.001144 0.016594 -0.009436 0.000000 0.000291 0.000000
# 3 -0.009436 -0.009436 0.020382 0.000000 0.000000 0.000000
# 4 0.000000 0.000000 0.000000 0.031745 0.000000 0.000581
# 5 -0.000291 0.000291 0.000000 0.000000 0.031745 -0.000001
# 6 0.000000 0.000000 0.000000 0.000581 -0.000001 0.035476
#
#
# Mechanical properties :
#
#
# Convention : Reuss Voigt Hill
#
# Bulk Modulus (GPa) = 73.86593 76.30028 75.08310
# Shear Modulus (GPa) = 25.37012 27.18097 26.27554
#
# Velocity S-wave (km/s) = 3.43601 3.55652 3.49678
# Velocity P-wave (km/s) = 7.07923 7.23684 7.15847
#
# Compressibility (1/GPa) = 0.01353804
#
# Stress axis : x y z
#
# Youngs Moduli (GPa) = 60.26140 60.26140 49.06181
#
# Poissons Ratio (x) = 0.06892 0.46297
# Poissons Ratio (y) = 0.06892 0.46297
# Poissons Ratio (z) = 0.56865 0.56865
#
# Static dielectric constant tensor:
#      x y z
#    x 1.776380 0.000000 0.000000 
#    y 0.000000 1.776380 0.000000 
#    z 0.000000 0.000000 1.708920 
# 
# From -- ./inp_files/1248.got.cif
#   From: 2010.05.17/outbox.cif.g08.bks.cpg/sg153_1_cif.got.tgz:1248.got - 2010.05.20 10:38:56.
