data_PCOD9576462
_publ_section_title
;
Structure prediction by ZEFSAII (Michael W. Deem and Ramdas Pophale) SiO2 
 PCOD9576462
Probable space group: P 32 2 1
;
_chemical_formula_sum "Si O2"
_cell_formula_units_Z 36
_cell_length_a 7.836743
_cell_length_b 7.836743
_cell_length_c 27.332026
_cell_angle_alpha 90.000000
_cell_angle_beta 90.000000
_cell_angle_gamma 120.000000
_cell_volume 1453.696237
_symmetry_space_group_name_H-M "P 32 2 1"
_symmetry_group_IT_number 154
_symmetry_cell_setting 'hexagonal'
loop_
_space_group_symop_operation_xyz
x,y,z
-y,x-y,2/3+z
-x+y,-x,1/3+z
x-y,-y,1/3-z
-x,-x+y,2/3-z
y,x,-z
loop_
_atom_site_type_symbol
_atom_site_label
_atom_site_fract_x
_atom_site_fract_y
_atom_site_fract_z
Si Si1 0.987198 0.261596 0.581076
Si Si2 0.598213 0.987971 0.981881
Si Si3 0.146563 0.146563 0.500000
Si Si4 0.286941 0.693113 0.293592
Si Si5 0.099385 0.704620 0.205834
Si Si6 0.840455 0.000000 0.666667
Si Si7 0.752651 0.906788 0.442585
O O1 0.001090 0.443353 0.610638
O O2 0.767445 0.120028 0.557745
O O3 0.991111 0.116366 0.623319
O O4 0.145049 0.302745 0.537915
O O5 0.785177 0.066940 0.946857
O O6 0.488681 0.756031 0.991992
O O7 0.628816 0.124822 0.027954
O O8 0.956515 0.080736 0.464933
O O9 0.207046 0.618429 0.238953
O O10 0.153109 0.781029 0.311121
O O11 0.103371 0.692723 0.147352
O O12 0.226363 0.940927 0.216522
#
# Coordination Sequence:
#
# PCOD9576462 Si02
#       7
#     6   6   3   6   6   3   6
#     4   8  16  30  52  71  96 131 168 200 240 291
#     4  11  20  31  50  77 102 127 161 210 254 289
#     4   8  16  34  52  74  98 134 174 202 238 302
#     4  10  20  33  50  73 102 131 167 203 247 295
#     4   8  16  34  52  68  94 134 171 200 239 301
#     4   8  16  34  52  70  96 140 172 196 240 306
#     4   8  16  30  52  72  95 130 170 204 245 294
#
# _framework density 24.764461000000001
#
# number of rings (size 3 to 8) (size 9 to 14) (size 15 to 20)
#    0.000    3.667    0.000    1.000    0.000    4.000 
#    0.000    5.000    0.000    4.000    0.000    0.000 
#    0.000    0.000    0.000    0.000    0.000    0.000 
#
# Total GULP energy -200596.556039 kJ/mol
# GULP energy per Si atom -5572.126557 kJ/mol
# Density = 2.470810 g / cm^3
# Si number density = 24.764461 Si / 1000 Ang^3
#
#
#
# Elastic Constant Matrix: (Units=GPa)
#
#
# Indices 1 2 3 4 5 6 
#
# 1 57.0891 6.1276 6.3300 -6.9498 0.0001 0.0000
# 2 6.1276 57.0891 6.3300 6.9498 -0.0001 0.0000
# 3 6.3300 6.3300 98.5636 0.0000 0.0000 0.0000
# 4 -6.9498 6.9498 0.0000 36.0564 0.0000 -0.0001
# 5 0.0001 -0.0001 0.0000 0.0000 36.0564 -6.9498
# 6 0.0000 0.0000 0.0000 -0.0001 -6.9498 25.4808
#
#
#
# Elastic Compliance Matrix: (Units=1/GPa)
#
#
# Indices 1 2 3 4 5 6 
#
# 1 0.018368 -0.002343 -0.001029 0.003992 0.000000 0.000000
# 2 -0.002343 0.018368 -0.001029 -0.003992 0.000000 0.000000
# 3 -0.001029 -0.001029 0.010278 0.000000 0.000000 0.000000
# 4 0.003992 -0.003992 0.000000 0.029273 0.000000 0.000000
# 5 0.000000 0.000000 0.000000 0.000000 0.029273 0.007984
# 6 0.000000 0.000000 0.000000 0.000000 0.007984 0.041423
#
#
# Mechanical properties :
#
#
# Convention : Reuss Voigt Hill
#
# Bulk Modulus (GPa) = 26.17064 27.81299 26.99182
# Shear Modulus (GPa) = 29.66941 32.44901 31.05921
#
# Velocity S-wave (km/s) = 3.46506 3.62374 3.54529
# Velocity P-wave (km/s) = 5.15748 5.36321 5.26135
#
# Compressibility (1/GPa) = 0.03821076
#
# Stress axis : x y z
#
# Youngs Moduli (GPa) = 54.44226 54.44226 97.29596
#
# Poissons Ratio (x) = 0.12758 0.10013
# Poissons Ratio (y) = 0.12758 0.10013
# Poissons Ratio (z) = 0.05603 0.05603
#
# Static dielectric constant tensor:
#      x y z
#    x 2.023220 0.000000 0.000000 
#    y 0.000000 2.023220 0.000000 
#    z 0.000000 0.000000 2.128890 
# 
# From -- ./inp_files/3658.got.cif
#   From: 2010.05.17/outbox.cif.g08.bks.cpg/sg154_2_cif.got.tgz:3658.got - 2010.05.20 10:41:43.
