data_PCOD9576941
_publ_section_title
;
Structure prediction by ZEFSAII (Michael W. Deem and Ramdas Pophale) SiO2 
 PCOD9576941
Probable space group: R 3 2
;
_chemical_formula_sum "Si O2"
_cell_formula_units_Z 72
_cell_length_a 14.015474
_cell_length_b 14.015474
_cell_length_c 17.441589
_cell_angle_alpha 90.000000
_cell_angle_beta 90.000000
_cell_angle_gamma 120.000000
_cell_volume 2967.100524
_symmetry_space_group_name_H-M "R 3 2"
_symmetry_group_IT_number 155
_symmetry_cell_setting 'hexagonal'
loop_
_space_group_symop_operation_xyz
x,y,z
-y,x-y,z
-x+y,-x,z
x-y,-y,-z
-x,-x+y,-z
y,x,-z
2/3+x,1/3+y,1/3+z
2/3-y,1/3+x-y,1/3+z
2/3-x+y,1/3-x,1/3+z
2/3+x-y,1/3-y,1/3-z
2/3-x,1/3-x+y,1/3-z
2/3+y,1/3+x,1/3-z
1/3+x,2/3+y,2/3+z
1/3-y,2/3+x-y,2/3+z
1/3-x+y,2/3-x,2/3+z
1/3+x-y,2/3-y,2/3-z
1/3-x,2/3-x+y,2/3-z
1/3+y,2/3+x,2/3-z
loop_
_atom_site_type_symbol
_atom_site_label
_atom_site_fract_x
_atom_site_fract_y
_atom_site_fract_z
Si Si1 0.783166 0.241032 0.269369
Si Si2 0.751679 0.548850 0.663246
Si Si3 0.252313 0.157302 0.379346
Si Si4 0.107272 0.551606 0.820077
O O1 0.801725 0.333334 0.333334
O O2 0.808552 0.154364 0.312360
O O3 0.865324 0.322559 0.205481
O O4 0.665881 0.178394 0.227023
O O5 0.758504 0.666667 0.666667
O O6 0.854858 0.557222 0.708192
O O7 0.634898 0.461883 0.696672
O O8 0.769720 0.529440 0.575197
O O9 0.316954 0.175182 0.458398
#
# Coordination Sequence:
#
# PCOD9576941 Si02
#       4
#    18  18  18  18
#     4  10  20  39  69 101 126 153 199 267 344 392
#     4  12  26  43  64  93 129 173 220 255 303 375
#     4  11  25  43  64  93 129 168 215 262 310 375
#     4  11  23  41  68  98 131 163 198 266 331 374
#
# _framework density 24.266114999999999
#
# number of rings (size 3 to 8) (size 9 to 14) (size 15 to 20)
#    0.000    1.000    0.000    9.250    0.000   12.000 
#    0.000    0.000    0.000    3.000    0.000    0.000 
#    0.000    0.000    0.000    0.000    0.000    0.000 
#
# Total GULP energy -134229.001745 kJ/mol
# GULP energy per Si atom -5592.875073 kJ/mol
# Density = 2.421088 g / cm^3
# Si number density = 24.266115 Si / 1000 Ang^3
#
#
#
# Elastic Constant Matrix: (Units=GPa)
#
#
# Indices 1 2 3 4 5 6 
#
# 1 97.7389 11.0838 34.5914 3.4513 0.0000 0.0000
# 2 11.0838 97.7389 34.5914 -3.4513 0.0000 0.0000
# 3 34.5914 34.5914 66.7043 0.0000 0.0000 0.0000
# 4 3.4513 -3.4513 0.0000 11.3985 0.0000 0.0000
# 5 0.0000 0.0000 0.0000 0.0000 11.3985 3.4513
# 6 0.0000 0.0000 0.0000 0.0000 3.4513 43.3276
#
#
#
# Elastic Compliance Matrix: (Units=1/GPa)
#
#
# Indices 1 2 3 4 5 6 
#
# 1 0.012767 0.000942 -0.007109 -0.003580 0.000000 0.000000
# 2 0.000942 0.012767 -0.007109 0.003580 0.000000 0.000000
# 3 -0.007109 -0.007109 0.022365 0.000000 0.000000 0.000000
# 4 -0.003580 0.003580 0.000000 0.089899 0.000000 0.000000
# 5 0.000000 0.000000 0.000000 0.000000 0.089899 -0.007161
# 6 0.000000 0.000000 0.000000 0.000000 -0.007161 0.023650
#
#
# Mechanical properties :
#
#
# Convention : Reuss Voigt Hill
#
# Bulk Modulus (GPa) = 46.84716 46.96838 46.90777
# Shear Modulus (GPa) = 17.54295 25.35263 21.44779
#
# Velocity S-wave (km/s) = 2.69167 3.23580 2.97620
# Velocity P-wave (km/s) = 5.38587 5.77565 5.58416
#
# Compressibility (1/GPa) = 0.02134601
#
# Stress axis : x y z
#
# Youngs Moduli (GPa) = 78.32700 78.32700 44.71316
#
# Poissons Ratio (x) = -0.07377 0.31787
# Poissons Ratio (y) = -0.07377 0.31787
# Poissons Ratio (z) = 0.55683 0.55683
#
# Static dielectric constant tensor:
#      x y z
#    x 1.911880 0.000000 0.000000 
#    y 0.000000 1.911880 0.000000 
#    z 0.000000 0.000000 1.983400 
# 
# From -- ./inp_files/5872.got.cif
#   From: 2010.05.17/outbox.cif.g08.bks.cpg/sg155_3_cif.got.tgz:5872.got - 2010.05.20 10:44:35.
