data_PCOD9576191
_publ_section_title
;
Structure prediction by ZEFSAII (Michael W. Deem and Ramdas Pophale) SiO2 
 PCOD9576191
Probable space group: P 31 2 1
;
_chemical_formula_sum "Si O2"
_cell_formula_units_Z 24
_cell_length_a 7.353765
_cell_length_b 7.353765
_cell_length_c 21.115200
_cell_angle_alpha 90.000000
_cell_angle_beta 90.000000
_cell_angle_gamma 120.000000
_cell_volume 988.883944
_symmetry_space_group_name_H-M "P 31 2 1"
_symmetry_group_IT_number 152
_symmetry_cell_setting 'hexagonal'
loop_
_space_group_symop_operation_xyz
x,y,z
-y,x-y,1/3+z
-x+y,-x,2/3+z
x-y,-y,2/3-z
-x,-x+y,1/3-z
y,x,-z
loop_
_atom_site_type_symbol
_atom_site_label
_atom_site_fract_x
_atom_site_fract_y
_atom_site_fract_z
Si Si1 0.314248 0.383782 0.414696
Si Si2 0.771520 0.182184 0.177458
Si Si3 0.623833 0.533135 0.063859
Si Si4 0.571894 0.495523 0.717092
O O1 0.436596 0.592116 0.456855
O O2 0.533716 0.961026 0.444029
O O3 0.431313 0.437174 0.346385
O O4 0.083195 0.348601 0.403367
O O5 0.157061 0.805791 0.230764
O O6 0.662314 0.122030 0.108767
O O7 0.000000 0.198556 0.166667
O O8 0.548097 0.305368 0.034344
O O9 0.665776 0.665776 0.000000
#
# Coordination Sequence:
#
# PCOD9576191 Si02
#       4
#     6   6   6   6
#     4  12  25  51  75 110 160 207 263 336 402 470
#     4  12  25  48  77 111 159 206 265 329 401 481
#     4  12  26  48  76 116 154 203 269 324 407 490
#     4  12  24  45  80 106 154 215 256 330 404 471
#
# _framework density 24.269787000000001
#
# number of rings (size 3 to 8) (size 9 to 14) (size 15 to 20)
#    0.000    0.000    7.500    1.500    0.000    1.000 
#    9.000    0.000    0.000    0.000    0.000    0.000 
#    0.000    0.000    0.000    0.000    0.000    0.000 
#
# Total GULP energy -133841.637858 kJ/mol
# GULP energy per Si atom -5576.734911 kJ/mol
# Density = 2.421455 g / cm^3
# Si number density = 24.269787 Si / 1000 Ang^3
#
#
#
# Elastic Constant Matrix: (Units=GPa)
#
#
# Indices 1 2 3 4 5 6 
#
# 1 124.7361 49.5445 10.0141 7.3429 0.0001 0.0000
# 2 49.5445 124.7361 10.0141 -7.3429 -0.0001 0.0000
# 3 10.0141 10.0141 111.2624 0.0000 0.0000 0.0000
# 4 7.3429 -7.3429 0.0000 21.6683 0.0000 -0.0001
# 5 0.0001 -0.0001 0.0000 0.0000 21.6683 7.3429
# 6 0.0000 0.0000 0.0000 -0.0001 7.3429 37.5958
#
#
#
# Elastic Compliance Matrix: (Units=1/GPa)
#
#
# Indices 1 2 3 4 5 6 
#
# 1 0.010020 -0.004222 -0.000522 -0.004826 0.000000 0.000000
# 2 -0.004222 0.010020 -0.000522 0.004826 0.000000 0.000000
# 3 -0.000522 -0.000522 0.009082 0.000000 0.000000 0.000000
# 4 -0.004826 0.004826 0.000000 0.049421 0.000000 0.000000
# 5 0.000000 0.000000 0.000000 0.000000 0.049421 -0.009653
# 6 0.000000 0.000000 0.000000 0.000000 -0.009653 0.028484
#
#
# Mechanical properties :
#
#
# Convention : Reuss Voigt Hill
#
# Bulk Modulus (GPa) = 53.79219 55.54222 54.66721
# Shear Modulus (GPa) = 28.87228 35.59728 32.23478
#
# Velocity S-wave (km/s) = 3.45286 3.83395 3.64838
# Velocity P-wave (km/s) = 6.17322 6.52180 6.34990
#
# Compressibility (1/GPa) = 0.01859006
#
# Stress axis : x y z
#
# Youngs Moduli (GPa) = 99.80126 99.80126 110.11158
#
# Poissons Ratio (x) = 0.42137 0.05746
# Poissons Ratio (y) = 0.42137 0.05746
# Poissons Ratio (z) = 0.05208 0.05208
#
# Static dielectric constant tensor:
#      x y z
#    x 2.052780 0.000000 0.000000 
#    y 0.000000 2.052780 0.000000 
#    z 0.000000 0.000000 2.306830 
# 
# From -- ./inp_files/2618.got.cif
#   From: 2010.05.17/outbox.cif.g08.bks.cpg/sg152_2_cif.got.tgz:2618.got - 2010.05.20 10:36:06.
