data_PCOD9576836
_publ_section_title
;
Structure prediction by ZEFSAII (Michael W. Deem and Ramdas Pophale) SiO2 
 PCOD9576836
Probable space group: R 3 2
;
_chemical_formula_sum "Si O2"
_cell_formula_units_Z 72
_cell_length_a 14.787731
_cell_length_b 14.787731
_cell_length_c 19.061819
_cell_angle_alpha 90.000000
_cell_angle_beta 90.000000
_cell_angle_gamma 120.000000
_cell_volume 3609.923983
_symmetry_space_group_name_H-M "R 3 2"
_symmetry_group_IT_number 155
_symmetry_cell_setting 'hexagonal'
loop_
_space_group_symop_operation_xyz
x,y,z
-y,x-y,z
-x+y,-x,z
x-y,-y,-z
-x,-x+y,-z
y,x,-z
2/3+x,1/3+y,1/3+z
2/3-y,1/3+x-y,1/3+z
2/3-x+y,1/3-x,1/3+z
2/3+x-y,1/3-y,1/3-z
2/3-x,1/3-x+y,1/3-z
2/3+y,1/3+x,1/3-z
1/3+x,2/3+y,2/3+z
1/3-y,2/3+x-y,2/3+z
1/3-x+y,2/3-x,2/3+z
1/3+x-y,2/3-y,2/3-z
1/3-x,2/3-x+y,2/3-z
1/3+y,2/3+x,2/3-z
loop_
_atom_site_type_symbol
_atom_site_label
_atom_site_fract_x
_atom_site_fract_y
_atom_site_fract_z
Si Si1 0.794245 0.793616 0.270983
Si Si2 0.094685 0.387340 0.093251
Si Si3 0.707347 0.094684 0.906750
Si Si4 0.126948 0.666035 0.395683
O O1 0.792237 0.789410 0.355998
O O2 0.697206 0.683469 0.246616
O O3 0.777430 0.888716 0.248647
O O4 0.904166 0.808333 0.247187
O O5 0.113805 0.447138 0.166667
O O6 0.167449 0.334900 0.092389
O O7 0.666667 0.113801 0.833334
O O8 0.649867 0.969460 0.913284
O O9 0.669495 0.125570 0.977336
#
# Coordination Sequence:
#
# PCOD9576836 Si02
#       4
#    18  18  18  18
#     4  10  20  34  53  77 105 136 169 207 252 303
#     4  10  19  33  53  75 103 136 169 209 255 300
#     4  10  19  33  53  75 103 136 169 209 255 300
#     4  10  20  34  53  77 105 136 169 207 252 303
#
# _framework density 19.945018999999998
#
# number of rings (size 3 to 8) (size 9 to 14) (size 15 to 20)
#    0.000    2.000    0.000    6.500    0.000    1.000 
#    0.000    0.000    0.000   20.500    0.000    7.000 
#    0.000    0.000    0.000    0.000    0.000    0.000 
#
# Total GULP energy -133633.248913 kJ/mol
# GULP energy per Si atom -5568.052038 kJ/mol
# Density = 1.989962 g / cm^3
# Si number density = 19.945019 Si / 1000 Ang^3
#
#
#
# Elastic Constant Matrix: (Units=GPa)
#
#
# Indices 1 2 3 4 5 6 
#
# 1 91.1257 77.4562 23.4984 5.1965 0.0000 0.0000
# 2 77.4562 91.1257 23.4984 -5.1965 0.0000 0.0000
# 3 23.4984 23.4984 76.7983 0.0000 0.0000 0.0000
# 4 5.1965 -5.1965 0.0000 8.4784 0.0000 0.0000
# 5 0.0000 0.0000 0.0000 0.0000 8.4784 5.1965
# 6 0.0000 0.0000 0.0000 0.0000 5.1965 6.8348
#
#
#
# Elastic Compliance Matrix: (Units=1/GPa)
#
#
# Indices 1 2 3 4 5 6 
#
# 1 0.071739 -0.065254 -0.001984 -0.083964 0.000000 0.000000
# 2 -0.065254 0.071739 -0.001984 0.083964 0.000000 0.000000
# 3 -0.001984 -0.001984 0.014235 0.000000 0.000000 0.000000
# 4 -0.083964 0.083964 0.000000 0.220872 0.000000 0.000000
# 5 0.000000 0.000000 0.000000 0.000000 0.220872 -0.167928
# 6 0.000000 0.000000 0.000000 0.000000 -0.167928 0.273987
#
#
# Mechanical properties :
#
#
# Convention : Reuss Voigt Hill
#
# Bulk Modulus (GPa) = 51.89848 56.43951 54.16900
# Shear Modulus (GPa) = 4.91009 13.73143 9.32076
#
# Velocity S-wave (km/s) = 1.57072 2.62671 2.16411
# Velocity P-wave (km/s) = 5.41911 6.12849 5.78469
#
# Compressibility (1/GPa) = 0.01926839
#
# Stress axis : x y z
#
# Youngs Moduli (GPa) = 13.93939 13.93939 70.24750
#
# Poissons Ratio (x) = 0.90960 0.13939
# Poissons Ratio (y) = 0.90960 0.13939
# Poissons Ratio (z) = 0.02766 0.02766
#
# Static dielectric constant tensor:
#      x y z
#    x 1.709640 0.000000 0.000000 
#    y 0.000000 1.709640 0.000000 
#    z 0.000000 0.000000 1.749340 
# 
# From -- ./inp_files/5884.got.cif
#   From: 2010.05.17/outbox.cif.g08.bks.cpg/sg155_3_cif.got.tgz:5884.got - 2010.05.20 10:44:35.
