data_PCOD9576565
_publ_section_title
;
Structure prediction by ZEFSAII (Michael W. Deem and Ramdas Pophale) SiO2 
 PCOD9576565
Probable space group: P 32 2 1
;
_chemical_formula_sum "Si O2"
_cell_formula_units_Z 30
_cell_length_a 8.866845
_cell_length_b 8.866845
_cell_length_c 19.445231
_cell_angle_alpha 90.000000
_cell_angle_beta 90.000000
_cell_angle_gamma 120.000000
_cell_volume 1323.981668
_symmetry_space_group_name_H-M "P 32 2 1"
_symmetry_group_IT_number 154
_symmetry_cell_setting 'hexagonal'
loop_
_space_group_symop_operation_xyz
x,y,z
-y,x-y,2/3+z
-x+y,-x,1/3+z
x-y,-y,1/3-z
-x,-x+y,2/3-z
y,x,-z
loop_
_atom_site_type_symbol
_atom_site_label
_atom_site_fract_x
_atom_site_fract_y
_atom_site_fract_z
Si Si1 0.714457 0.161327 0.873036
Si Si2 0.302146 0.972673 0.884884
Si Si3 0.983281 0.659287 0.256768
Si Si4 0.822262 0.028974 0.995900
Si Si5 0.751854 0.520579 0.916134
O O1 0.506880 0.032190 0.887310
O O2 0.734177 0.152074 0.791031
O O3 0.909079 0.723001 0.586287
O O4 0.768078 0.353920 0.896851
O O5 0.305421 0.154937 0.880810
O O6 0.191241 0.880029 0.952443
O O7 0.217168 0.853706 0.818472
O O8 0.000000 0.728959 0.333334
O O9 0.895848 0.451756 0.265861
O O10 0.635025 0.877646 0.023247
O O11 0.945183 0.945183 0.000000
#
# Coordination Sequence:
#
# PCOD9576565 Si02
#       5
#     6   6   6   6   6
#     4  10  23  41  64  90 123 167 213 255 311 377
#     4  10  22  41  61  89 124 163 207 258 312 372
#     4  10  21  40  64  90 121 163 210 261 314 372
#     4  12  23  39  63  95 130 164 205 260 316 370
#     4  10  22  39  64  92 125 165 209 256 308 375
#
# _framework density 22.658925
#
# number of rings (size 3 to 8) (size 9 to 14) (size 15 to 20)
#    0.000    1.600    0.000    4.200    0.000    9.600 
#    0.000    9.000    0.000    0.000    0.000    0.000 
#    0.000    0.000    0.000    0.000    0.000    0.000 
#
# Total GULP energy -167835.890690 kJ/mol
# GULP energy per Si atom -5594.529690 kJ/mol
# Density = 2.260735 g / cm^3
# Si number density = 22.658925 Si / 1000 Ang^3
#
#
#
# Elastic Constant Matrix: (Units=GPa)
#
#
# Indices 1 2 3 4 5 6 
#
# 1 72.0957 27.4314 36.6539 -11.0627 0.0001 0.0000
# 2 27.4314 72.0957 36.6539 11.0627 -0.0001 0.0000
# 3 36.6539 36.6539 120.8146 0.0000 0.0000 0.0000
# 4 -11.0627 11.0627 0.0000 35.6735 0.0000 -0.0001
# 5 0.0001 -0.0001 0.0000 0.0000 35.6735 -11.0627
# 6 0.0000 0.0000 0.0000 -0.0001 -11.0627 22.3321
#
#
#
# Elastic Compliance Matrix: (Units=1/GPa)
#
#
# Indices 1 2 3 4 5 6 
#
# 1 0.019696 -0.006757 -0.003926 0.008203 0.000000 0.000000
# 2 -0.006757 0.019696 -0.003926 -0.008203 0.000000 0.000000
# 3 -0.003926 -0.003926 0.010659 0.000000 0.000000 0.000000
# 4 0.008203 -0.008203 0.000000 0.033120 0.000000 0.000000
# 5 0.000000 0.000000 0.000000 0.000000 0.033120 0.016407
# 6 0.000000 0.000000 0.000000 0.000000 0.016407 0.052906
#
#
# Mechanical properties :
#
#
# Convention : Reuss Voigt Hill
#
# Bulk Modulus (GPa) = 47.99669 51.83162 49.91416
# Shear Modulus (GPa) = 24.34776 29.68694 27.01735
#
# Velocity S-wave (km/s) = 3.28156 3.62355 3.45679
# Velocity P-wave (km/s) = 5.96544 6.35855 6.16513
#
# Compressibility (1/GPa) = 0.02083477
#
# Stress axis : x y z
#
# Youngs Moduli (GPa) = 50.77188 50.77188 93.81673
#
# Poissons Ratio (x) = 0.34307 0.36828
# Poissons Ratio (y) = 0.34307 0.36828
# Poissons Ratio (z) = 0.19931 0.19931
#
# Static dielectric constant tensor:
#      x y z
#    x 1.836770 0.000000 0.000000 
#    y 0.000000 1.836770 0.000000 
#    z 0.000000 0.000000 1.841690 
# 
# From -- ./inp_files/3058.got.cif
#   From: 2010.05.17/outbox.cif.g08.bks.cpg/sg154_2_cif.got.tgz:3058.got - 2010.05.20 10:41:43.
