data_PCOD9576030
_publ_section_title
;
Structure prediction by ZEFSAII (Michael W. Deem and Ramdas Pophale) SiO2 
 PCOD9576030
Probable space group: P 31 2 1
;
_chemical_formula_sum "Si O2"
_cell_formula_units_Z 42
_cell_length_a 18.942181
_cell_length_b 18.942181
_cell_length_c 6.187678
_cell_angle_alpha 90.000000
_cell_angle_beta 90.000000
_cell_angle_gamma 120.000000
_cell_volume 1922.729995
_symmetry_space_group_name_H-M "P 31 2 1"
_symmetry_group_IT_number 152
_symmetry_cell_setting 'hexagonal'
loop_
_space_group_symop_operation_xyz
x,y,z
-y,x-y,1/3+z
-x+y,-x,2/3+z
x-y,-y,2/3-z
-x,-x+y,1/3-z
y,x,-z
loop_
_atom_site_type_symbol
_atom_site_label
_atom_site_fract_x
_atom_site_fract_y
_atom_site_fract_z
Si Si1 0.292187 0.911122 0.834808
Si Si2 0.229461 0.398439 0.850216
Si Si3 0.816200 0.314260 0.787566
Si Si4 0.902617 0.563883 0.452766
Si Si5 0.433505 0.937183 0.516124
Si Si6 0.276720 0.683756 0.901638
Si Si7 0.009526 0.758148 0.403943
O O1 0.217271 0.838725 0.703386
O O2 0.372358 0.927331 0.702703
O O3 0.299642 0.000000 0.833334
O O4 0.299584 0.879440 0.069201
O O5 0.229178 0.463396 0.691022
O O6 0.212260 0.317246 0.732912
O O7 0.316229 0.428531 0.961093
O O8 0.854280 0.388638 0.621143
O O9 0.762982 0.331172 0.952124
O O10 0.955579 0.521277 0.408727
O O11 0.810648 0.490445 0.394198
O O12 0.948276 0.658854 0.382498
O O13 0.441696 0.000000 0.333334
O O14 0.289091 0.612814 0.007370
O O15 0.000000 0.776261 0.666667
O O16 0.000000 0.792216 0.166667
#
# Coordination Sequence:
#
# PCOD9576030 Si02
#       7
#     6   6   6   6   6   6   6
#     4  11  22  41  61  88 120 165 217 274 341 412
#     4  10  23  39  63  88 120 160 217 275 342 406
#     4  11  23  39  60  78 118 154 210 274 339 398
#     4  11  23  41  59  87 118 166 217 277 339 399
#     4  11  22  37  57  85 113 154 209 272 329 398
#     4  12  26  40  57  82 116 163 219 278 348 403
#     4  10  22  42  64  93 124 163 216 271 337 397
#
# _framework density 21.84394
#
# number of rings (size 3 to 8) (size 9 to 14) (size 15 to 20)
#    0.000    1.143    2.857    3.857    8.000    0.571 
#    7.714    0.000    0.000    0.000    0.000    0.000 
#    0.000    0.000    0.000    0.000  146.571   16.714 
#
# Total GULP energy -233829.452896 kJ/mol
# GULP energy per Si atom -5567.367926 kJ/mol
# Density = 2.179422 g / cm^3
# Si number density = 21.843940 Si / 1000 Ang^3
#
#
#
# Elastic Constant Matrix: (Units=GPa)
#
#
# Indices 1 2 3 4 5 6 
#
# 1 42.1539 14.6545 12.0206 -1.2535 0.0000 0.0000
# 2 14.6545 42.1539 12.0206 1.2535 0.0000 0.0000
# 3 12.0206 12.0206 97.2360 0.0000 0.0000 0.0000
# 4 -1.2535 1.2535 0.0000 34.4258 0.0000 0.0000
# 5 0.0000 0.0000 0.0000 0.0000 34.4258 -1.2535
# 6 0.0000 0.0000 0.0000 0.0000 -1.2535 13.7497
#
#
#
# Elastic Compliance Matrix: (Units=1/GPa)
#
#
# Indices 1 2 3 4 5 6 
#
# 1 0.027530 -0.008955 -0.002296 0.001328 0.000000 0.000000
# 2 -0.008955 0.027530 -0.002296 -0.001328 0.000000 0.000000
# 3 -0.002296 -0.002296 0.010852 0.000000 0.000000 0.000000
# 4 0.001328 -0.001328 0.000000 0.029145 0.000000 0.000000
# 5 0.000000 0.000000 0.000000 0.000000 0.029145 0.002657
# 6 0.000000 0.000000 0.000000 0.000000 0.002657 0.072971
#
#
# Mechanical properties :
#
#
# Convention : Reuss Voigt Hill
#
# Bulk Modulus (GPa) = 25.76221 28.77056 27.26639
# Shear Modulus (GPa) = 21.07862 26.04349 23.56106
#
# Velocity S-wave (km/s) = 3.10976 3.45665 3.28778
# Velocity P-wave (km/s) = 4.97127 5.39729 5.18865
#
# Compressibility (1/GPa) = 0.03881655
#
# Stress axis : x y z
#
# Youngs Moduli (GPa) = 36.32384 36.32384 92.14890
#
# Poissons Ratio (x) = 0.32529 0.21160
# Poissons Ratio (y) = 0.32529 0.21160
# Poissons Ratio (z) = 0.08341 0.08341
#
# Static dielectric constant tensor:
#      x y z
#    x 1.902150 0.000000 0.000000 
#    y 0.000000 1.902150 0.000000 
#    z 0.000000 0.000000 1.866880 
# 
# From -- ./inp_files/524.got.cif
#   From: 2010.05.17/outbox.cif.g08.bks.cpg/sg152_1_cif.got.tgz:524.got - 2010.05.20 10:36:06.
