data_PCOD9576605
_publ_section_title
;
Structure prediction by ZEFSAII (Michael W. Deem and Ramdas Pophale) SiO2 
 PCOD9576605
Probable space group: P 32 2 1
;
_chemical_formula_sum "Si O2"
_cell_formula_units_Z 30
_cell_length_a 18.902603
_cell_length_b 18.902603
_cell_length_c 5.021752
_cell_angle_alpha 90.000000
_cell_angle_beta 90.000000
_cell_angle_gamma 120.000000
_cell_volume 1553.921656
_symmetry_space_group_name_H-M "P 32 2 1"
_symmetry_group_IT_number 154
_symmetry_cell_setting 'hexagonal'
loop_
_space_group_symop_operation_xyz
x,y,z
-y,x-y,2/3+z
-x+y,-x,1/3+z
x-y,-y,1/3-z
-x,-x+y,2/3-z
y,x,-z
loop_
_atom_site_type_symbol
_atom_site_label
_atom_site_fract_x
_atom_site_fract_y
_atom_site_fract_z
Si Si1 0.087143 0.533814 0.191109
Si Si2 0.080748 0.368539 0.164477
Si Si3 0.591435 0.771793 0.353213
Si Si4 0.754102 0.344694 0.111021
Si Si5 0.610346 0.944282 0.403637
O O1 0.078504 0.450440 0.088786
O O2 0.168485 0.575092 0.374151
O O3 0.086423 0.601181 0.002015
O O4 0.000000 0.498997 0.333334
O O5 0.152970 0.392924 0.378806
O O6 0.000000 0.310467 0.333334
O O7 0.105107 0.350389 0.879581
O O8 0.493500 0.708400 0.387753
O O9 0.611464 0.861440 0.425789
O O10 0.674139 0.280088 0.277569
O O11 0.640828 0.000000 0.666667
O O12 0.664768 0.000000 0.166667
#
# Coordination Sequence:
#
# PCOD9576605 Si02
#       5
#     6   6   6   6   6
#     4   9  22  37  56  77 108 149 200 246 308 361
#     4  10  22  41  59  84 111 151 193 251 295 357
#     4  11  24  37  61  83 116 150 202 243 304 352
#     4  11  25  37  58  82 116 152 207 266 320 361
#     4  11  24  38  58  81 115 154 195 238 297 360
#
# _framework density 19.305992
#
# number of rings (size 3 to 8) (size 9 to 14) (size 15 to 20)
#    0.000    1.600    0.000    3.000   19.600    4.800 
#    0.000    0.000    0.000    0.000    0.000    0.000 
#    0.000    0.000    0.000   75.600    0.000    0.000 
#
# Total GULP energy -167316.951364 kJ/mol
# GULP energy per Si atom -5577.231712 kJ/mol
# Density = 1.926205 g / cm^3
# Si number density = 19.305992 Si / 1000 Ang^3
#
#
#
# Elastic Constant Matrix: (Units=GPa)
#
#
# Indices 1 2 3 4 5 6 
#
# 1 78.4859 19.8075 12.1453 -4.7749 0.0000 0.0000
# 2 19.8075 78.4859 12.1453 4.7749 0.0000 0.0000
# 3 12.1453 12.1453 57.6908 0.0000 0.0000 0.0000
# 4 -4.7749 4.7749 0.0000 23.7297 0.0000 0.0000
# 5 0.0000 0.0000 0.0000 0.0000 23.7297 -4.7749
# 6 0.0000 0.0000 0.0000 0.0000 -4.7749 29.3392
#
#
#
# Elastic Compliance Matrix: (Units=1/GPa)
#
#
# Indices 1 2 3 4 5 6 
#
# 1 0.014175 -0.003444 -0.002259 0.003545 0.000000 0.000000
# 2 -0.003444 0.014175 -0.002259 -0.003545 0.000000 0.000000
# 3 -0.002259 -0.002259 0.018285 0.000000 0.000000 0.000000
# 4 0.003545 -0.003545 0.000000 0.043568 0.000000 0.000000
# 5 0.000000 0.000000 0.000000 0.000000 0.043568 0.007091
# 6 0.000000 0.000000 0.000000 0.000000 0.007091 0.035238
#
#
# Mechanical properties :
#
#
# Convention : Reuss Voigt Hill
#
# Bulk Modulus (GPa) = 32.56093 33.65098 33.10595
# Shear Modulus (GPa) = 25.61844 26.73069 26.17457
#
# Velocity S-wave (km/s) = 3.64671 3.72503 3.68608
# Velocity P-wave (km/s) = 5.88504 5.99744 5.94151
#
# Compressibility (1/GPa) = 0.03071165
#
# Stress axis : x y z
#
# Youngs Moduli (GPa) = 70.54425 70.54425 54.68945
#
# Poissons Ratio (x) = 0.24292 0.12356
# Poissons Ratio (y) = 0.24292 0.12356
# Poissons Ratio (z) = 0.15938 0.15938
#
# Static dielectric constant tensor:
#      x y z
#    x 1.728500 0.000000 0.000000 
#    y 0.000000 1.728500 0.000000 
#    z 0.000000 0.000000 1.741140 
# 
# From -- ./inp_files/338.got.cif
#   From: 2010.05.17/outbox.cif.g08.bks.cpg/sg154_1_cif.got.tgz:338.got - 2010.05.20 10:41:43.
