data_PCOD9576105
_publ_section_title
;
Structure prediction by ZEFSAII (Michael W. Deem and Ramdas Pophale) SiO2 
 PCOD9576105
Probable space group: P 31 2 1
;
_chemical_formula_sum "Si O2"
_cell_formula_units_Z 24
_cell_length_a 9.694013
_cell_length_b 9.694013
_cell_length_c 12.116837
_cell_angle_alpha 90.000000
_cell_angle_beta 90.000000
_cell_angle_gamma 120.000000
_cell_volume 986.113928
_symmetry_space_group_name_H-M "P 31 2 1"
_symmetry_group_IT_number 152
_symmetry_cell_setting 'hexagonal'
loop_
_space_group_symop_operation_xyz
x,y,z
-y,x-y,1/3+z
-x+y,-x,2/3+z
x-y,-y,2/3-z
-x,-x+y,1/3-z
y,x,-z
loop_
_atom_site_type_symbol
_atom_site_label
_atom_site_fract_x
_atom_site_fract_y
_atom_site_fract_z
Si Si1 0.395463 0.062269 0.708598
Si Si2 0.199381 0.436145 0.856813
Si Si3 0.168557 0.194082 0.685976
Si Si4 0.489074 0.713529 0.958529
O O1 0.410495 0.825753 0.961812
O O2 0.327203 0.913357 0.625172
O O3 0.346258 0.000000 0.833334
O O4 0.313181 0.163859 0.673301
O O5 0.183347 0.274827 0.806045
O O6 0.161102 0.507988 0.748535
O O7 0.380589 0.564682 0.884444
O O8 0.166508 0.325668 0.603382
O O9 0.000000 0.037403 0.666667
#
# Coordination Sequence:
#
# PCOD9576105 Si02
#       4
#     6   6   6   6
#     4  12  26  46  72 109 149 192 251 311 372 452
#     4  10  25  46  73 106 148 193 248 306 372 438
#     4  10  27  45  73 109 146 198 238 309 381 441
#     4  10  24  47  73 105 141 201 248 301 371 448
#
# _framework density 24.337956999999999
#
# number of rings (size 3 to 8) (size 9 to 14) (size 15 to 20)
#    1.500    0.000    0.000    3.000    7.000    0.000 
#    4.500    0.000    0.000    0.000    0.000    0.000 
#    0.000    0.000    0.000    0.000    0.000    0.000 
#
# Total GULP energy -134202.330790 kJ/mol
# GULP energy per Si atom -5591.763783 kJ/mol
# Density = 2.428256 g / cm^3
# Si number density = 24.337957 Si / 1000 Ang^3
#
#
#
# Elastic Constant Matrix: (Units=GPa)
#
#
# Indices 1 2 3 4 5 6 
#
# 1 77.6055 25.1999 -3.9368 1.4929 0.0002 0.0000
# 2 25.1999 77.6055 -3.9368 -1.4929 -0.0002 0.0000
# 3 -3.9368 -3.9368 105.5208 0.0000 0.0000 0.0000
# 4 1.4929 -1.4929 0.0000 29.6045 0.0000 -0.0002
# 5 0.0002 -0.0002 0.0000 0.0000 29.6045 1.4929
# 6 0.0000 0.0000 0.0000 -0.0002 1.4929 26.2028
#
#
#
# Elastic Compliance Matrix: (Units=1/GPa)
#
#
# Indices 1 2 3 4 5 6 
#
# 1 0.014446 -0.004691 0.000364 -0.000965 0.000000 0.000000
# 2 -0.004691 0.014446 0.000364 0.000965 0.000000 0.000000
# 3 0.000364 0.000364 0.009504 0.000000 0.000000 0.000000
# 4 -0.000965 0.000965 0.000000 0.033876 0.000000 0.000000
# 5 0.000000 0.000000 0.000000 0.000000 0.033876 -0.001930
# 6 0.000000 0.000000 0.000000 0.000000 -0.001930 0.038274
#
#
# Mechanical properties :
#
#
# Convention : Reuss Voigt Hill
#
# Bulk Modulus (GPa) = 32.81948 32.82048 32.81998
# Shear Modulus (GPa) = 30.76837 33.30937 32.03887
#
# Velocity S-wave (km/s) = 3.55944 3.70350 3.63218
# Velocity P-wave (km/s) = 5.51425 5.63937 5.57716
#
# Compressibility (1/GPa) = 0.03046971
#
# Stress axis : x y z
#
# Youngs Moduli (GPa) = 69.22348 69.22348 105.21930
#
# Poissons Ratio (x) = 0.32473 -0.03829
# Poissons Ratio (y) = 0.32473 -0.03829
# Poissons Ratio (z) = -0.02519 -0.02519
#
# Static dielectric constant tensor:
#      x y z
#    x 1.907230 0.000000 0.000000 
#    y 0.000000 1.907230 0.000000 
#    z 0.000000 0.000000 1.972600 
# 
# From -- ./inp_files/2657.got.cif
#   From: 2010.05.17/outbox.cif.g08.bks.cpg/sg152_2_cif.got.tgz:2657.got - 2010.05.20 10:36:06.
