data_PCOD9576497
_publ_section_title
;
Structure prediction by ZEFSAII (Michael W. Deem and Ramdas Pophale) SiO2 
 PCOD9576497
Probable space group: P 32 2 1
;
_chemical_formula_sum "Si O2"
_cell_formula_units_Z 42
_cell_length_a 10.865807
_cell_length_b 10.865807
_cell_length_c 20.098575
_cell_angle_alpha 90.000000
_cell_angle_beta 90.000000
_cell_angle_gamma 120.000000
_cell_volume 2055.038072
_symmetry_space_group_name_H-M "P 32 2 1"
_symmetry_group_IT_number 154
_symmetry_cell_setting 'hexagonal'
loop_
_space_group_symop_operation_xyz
x,y,z
-y,x-y,2/3+z
-x+y,-x,1/3+z
x-y,-y,1/3-z
-x,-x+y,2/3-z
y,x,-z
loop_
_atom_site_type_symbol
_atom_site_label
_atom_site_fract_x
_atom_site_fract_y
_atom_site_fract_z
Si Si1 0.715056 0.886159 0.930279
Si Si2 0.488925 0.245476 0.145162
Si Si3 0.436697 0.436697 0.500000
Si Si4 0.018926 0.018926 0.000000
Si Si5 0.568866 0.277467 0.294101
Si Si6 0.849224 0.012330 0.797411
Si Si7 0.569032 0.005566 0.308949
Si Si8 0.140339 0.533711 0.305105
O O1 0.625153 0.720978 0.948278
O O2 0.737131 0.906703 0.851392
O O3 0.616090 0.940328 0.962647
O O4 0.866793 0.979152 0.967485
O O5 0.524279 0.299551 0.221028
O O6 0.323334 0.178664 0.126597
O O7 0.572575 0.368635 0.092581
O O8 0.536195 0.127284 0.146105
O O9 0.385291 0.353990 0.569712
O O10 0.085848 0.132356 0.060231
O O11 0.498722 0.106839 0.305884
O O12 0.524637 0.363448 0.343823
O O13 0.735868 0.334635 0.305937
O O14 0.000000 0.070849 0.833334
O O15 0.000000 0.527689 0.333334
#
# Coordination Sequence:
#
# PCOD9576497 Si02
#       8
#     6   6   3   3   6   6   6   6
#     4  10  21  44  63  87 134 169 211 267 334 387
#     4  11  21  38  63  93 128 157 219 268 332 380
#     4  10  20  38  62  90 126 162 216 278 310 392
#     4  10  22  40  64  96 124 166 226 258 336 398
#     4  10  22  41  64  92 126 173 215 270 337 392
#     4  10  21  38  66  93 121 168 212 279 323 380
#     4  10  20  39  65  92 124 170 217 270 329 399
#     4  11  24  42  64  91 133 174 209 269 328 402
#
# _framework density 20.437576
#
# number of rings (size 3 to 8) (size 9 to 14) (size 15 to 20)
#    0.000    1.714    4.286    0.000    1.000    1.143 
#    3.857    0.000    0.000    0.000    0.000    0.000 
#    0.000    0.000    0.000    0.000    0.000    0.000 
#
# Total GULP energy -233898.360428 kJ/mol
# GULP energy per Si atom -5569.008582 kJ/mol
# Density = 2.039106 g / cm^3
# Si number density = 20.437576 Si / 1000 Ang^3
#
#
#
# Elastic Constant Matrix: (Units=GPa)
#
#
# Indices 1 2 3 4 5 6 
#
# 1 45.8582 8.1557 40.7291 6.4005 0.0000 0.0000
# 2 8.1557 45.8582 40.7291 -6.4005 0.0000 0.0000
# 3 40.7291 40.7291 149.6727 0.0000 0.0000 0.0000
# 4 6.4005 -6.4005 0.0000 29.3160 0.0000 0.0000
# 5 0.0000 0.0000 0.0000 0.0000 29.3160 6.4005
# 6 0.0000 0.0000 0.0000 0.0000 6.4005 18.8513
#
#
#
# Elastic Compliance Matrix: (Units=1/GPa)
#
#
# Indices 1 2 3 4 5 6 
#
# 1 0.030023 0.001376 -0.008545 -0.006254 0.000000 0.000000
# 2 0.001376 0.030023 -0.008545 0.006254 0.000000 0.000000
# 3 -0.008545 -0.008545 0.011332 0.000000 0.000000 0.000000
# 4 -0.006254 0.006254 0.000000 0.036842 0.000000 0.000000
# 5 0.000000 0.000000 0.000000 0.000000 0.036842 -0.012509
# 6 0.000000 0.000000 0.000000 0.000000 -0.012509 0.057294
#
#
# Mechanical properties :
#
#
# Convention : Reuss Voigt Hill
#
# Bulk Modulus (GPa) = 25.02946 46.73521 35.88233
# Shear Modulus (GPa) = 20.23477 25.61499 22.92488
#
# Velocity S-wave (km/s) = 3.14996 3.54408 3.35282
# Velocity P-wave (km/s) = 5.05005 6.29796 5.70821
#
# Compressibility (1/GPa) = 0.03995293
#
# Stress axis : x y z
#
# Youngs Moduli (GPa) = 33.30738 33.30738 88.24912
#
# Poissons Ratio (x) = -0.04584 0.75405
# Poissons Ratio (y) = -0.04584 0.75405
# Poissons Ratio (z) = 0.28460 0.28460
#
# Static dielectric constant tensor:
#      x y z
#    x 1.780020 0.000000 0.000000 
#    y 0.000000 1.780020 0.000000 
#    z 0.000000 0.000000 1.797360 
# 
# From -- ./inp_files/2466.got.cif
#   From: 2010.05.17/outbox.cif.g08.bks.cpg/sg154_2_cif.got.tgz:2466.got - 2010.05.20 10:41:43.
