data_PCOD9576082
_publ_section_title
;
Structure prediction by ZEFSAII (Michael W. Deem and Ramdas Pophale) SiO2 
 PCOD9576082
Probable space group: P 31 2 1
;
_chemical_formula_sum "Si O2"
_cell_formula_units_Z 21
_cell_length_a 7.347752
_cell_length_b 7.347752
_cell_length_c 16.652333
_cell_angle_alpha 90.000000
_cell_angle_beta 90.000000
_cell_angle_gamma 120.000000
_cell_volume 778.600535
_symmetry_space_group_name_H-M "P 31 2 1"
_symmetry_group_IT_number 152
_symmetry_cell_setting 'hexagonal'
loop_
_space_group_symop_operation_xyz
x,y,z
-y,x-y,1/3+z
-x+y,-x,2/3+z
x-y,-y,2/3-z
-x,-x+y,1/3-z
y,x,-z
loop_
_atom_site_type_symbol
_atom_site_label
_atom_site_fract_x
_atom_site_fract_y
_atom_site_fract_z
Si Si1 0.108794 0.000000 0.833334
Si Si2 0.737280 0.327278 0.327458
Si Si3 0.812540 0.742102 0.274321
Si Si4 0.571981 0.409782 0.828662
O O1 0.117160 0.784692 0.838927
O O2 0.961402 0.985545 0.758909
O O3 0.870895 0.573834 0.305521
O O4 0.579756 0.220103 0.254276
O O5 0.673045 0.317303 0.420487
O O6 0.899644 0.241745 0.327985
O O7 0.638229 0.626072 0.202962
#
# Coordination Sequence:
#
# PCOD9576082 Si02
#       4
#     3   6   6   6
#     4  12  24  48  78 110 156 214 270 330 412 500
#     4  10  23  46  71 112 157 202 265 341 399 477
#     4  10  25  45  77 112 150 209 267 331 412 495
#     4  10  24  44  74 112 155 210 270 341 405 480
#
# _framework density 26.971467000000001
#
# number of rings (size 3 to 8) (size 9 to 14) (size 15 to 20)
#    1.714    0.000    0.000    3.429    0.000    8.000 
#    0.000    0.000   18.857    0.000    0.000    0.000 
#    0.000    0.000    0.000    0.000    0.000    0.000 
#
# Total GULP energy -117186.468999 kJ/mol
# GULP energy per Si atom -5580.308048 kJ/mol
# Density = 2.691008 g / cm^3
# Si number density = 26.971467 Si / 1000 Ang^3
#
#
#
# Elastic Constant Matrix: (Units=GPa)
#
#
# Indices 1 2 3 4 5 6 
#
# 1 79.5330 15.6554 30.8464 7.3572 0.0000 0.0000
# 2 15.6554 79.5330 30.8464 -7.3572 0.0000 0.0000
# 3 30.8464 30.8464 192.5211 0.0000 0.0000 0.0000
# 4 7.3572 -7.3572 0.0000 44.7022 0.0000 0.0000
# 5 0.0000 0.0000 0.0000 0.0000 44.7022 7.3572
# 6 0.0000 0.0000 0.0000 0.0000 7.3572 31.9388
#
#
#
# Elastic Compliance Matrix: (Units=1/GPa)
#
#
# Indices 1 2 3 4 5 6 
#
# 1 0.013997 -0.002275 -0.001878 -0.002678 0.000000 0.000000
# 2 -0.002275 0.013997 -0.001878 0.002678 0.000000 0.000000
# 3 -0.001878 -0.001878 0.005796 0.000000 0.000000 0.000000
# 4 -0.002678 0.002678 0.000000 0.023252 0.000000 0.000000
# 5 0.000000 0.000000 0.000000 0.000000 0.023252 -0.005356
# 6 0.000000 0.000000 0.000000 0.000000 -0.005356 0.032544
#
#
# Mechanical properties :
#
#
# Convention : Reuss Voigt Hill
#
# Bulk Modulus (GPa) = 46.02216 56.25370 51.13793
# Shear Modulus (GPa) = 37.83781 42.55126 40.19454
#
# Velocity S-wave (km/s) = 3.74957 3.97626 3.86458
# Velocity P-wave (km/s) = 5.98716 6.47942 6.23815
#
# Compressibility (1/GPa) = 0.02172867
#
# Stress axis : x y z
#
# Youngs Moduli (GPa) = 71.44226 71.44226 172.52918
#
# Poissons Ratio (x) = 0.16250 0.32406
# Poissons Ratio (y) = 0.16250 0.32406
# Poissons Ratio (z) = 0.13419 0.13419
#
# Static dielectric constant tensor:
#      x y z
#    x 2.111010 0.000000 0.000000 
#    y 0.000000 2.111010 0.000000 
#    z 0.000000 0.000000 2.208730 
# 
# From -- ./inp_files/2275.got.cif
#   From: 2010.05.17/outbox.cif.g08.bks.cpg/sg152_2_cif.got.tgz:2275.got - 2010.05.20 10:36:06.
