data_PCOD9576077
_publ_section_title
;
Structure prediction by ZEFSAII (Michael W. Deem and Ramdas Pophale) SiO2 
 PCOD9576077
Probable space group: P 31 2 1
;
_chemical_formula_sum "Si O2"
_cell_formula_units_Z 42
_cell_length_a 8.487331
_cell_length_b 8.487331
_cell_length_c 29.714503
_cell_angle_alpha 90.000000
_cell_angle_beta 90.000000
_cell_angle_gamma 120.000000
_cell_volume 1853.708246
_symmetry_space_group_name_H-M "P 31 2 1"
_symmetry_group_IT_number 152
_symmetry_cell_setting 'hexagonal'
loop_
_space_group_symop_operation_xyz
x,y,z
-y,x-y,1/3+z
-x+y,-x,2/3+z
x-y,-y,2/3-z
-x,-x+y,1/3-z
y,x,-z
loop_
_atom_site_type_symbol
_atom_site_label
_atom_site_fract_x
_atom_site_fract_y
_atom_site_fract_z
Si Si1 0.702666 0.765820 0.661381
Si Si2 0.675776 0.173318 0.183288
Si Si3 0.000000 0.392151 0.666667
Si Si4 0.839809 0.879879 0.755449
Si Si5 0.513992 0.149130 0.530187
Si Si6 0.899262 0.899262 0.500000
Si Si7 0.349118 0.310459 0.940796
Si Si8 0.575787 0.936118 0.043081
O O1 0.805196 0.904510 0.703505
O O2 0.841036 0.709599 0.638524
O O3 0.529476 0.585672 0.681803
O O4 0.640482 0.874552 0.628365
O O5 0.694458 0.362039 0.169989
O O6 0.826119 0.127103 0.166470
O O7 0.696813 0.177312 0.237036
O O8 0.476911 0.019061 0.169139
O O9 0.941682 0.491663 0.704058
O O10 0.169834 0.386694 0.687989
O O11 0.655703 0.809643 0.782168
O O12 0.885785 0.717087 0.750069
O O13 0.000536 0.013609 0.788340
O O14 0.613095 0.112598 0.572663
#
# Coordination Sequence:
#
# PCOD9576077 Si02
#       8
#     6   6   3   6   6   3   6   6
#     4  11  24  45  69 102 144 182 230 292 358 413
#     4  11  24  45  68  99 138 183 233 289 341 430
#     4  12  22  42  70 108 140 176 234 278 352 416
#     4  10  23  43  71  96 140 176 229 286 354 409
#     4  11  25  47  69  97 141 185 233 282 354 414
#     4  10  24  42  70 100 128 182 234 278 354 412
#     4  11  22  43  71  97 142 186 222 289 356 416
#     4  11  27  42  71 105 139 184 236 286 348 425
#
# _framework density 22.657288999999999
#
# number of rings (size 3 to 8) (size 9 to 14) (size 15 to 20)
#    0.000    1.143    2.857    2.571   10.000    0.571 
#    2.571    0.000    0.000    0.000    0.000    0.000 
#    0.000    0.000    0.000    0.000    0.000    0.000 
#
# Total GULP energy -234457.531376 kJ/mol
# GULP energy per Si atom -5582.322176 kJ/mol
# Density = 2.260572 g / cm^3
# Si number density = 22.657289 Si / 1000 Ang^3
#
#
#
# Elastic Constant Matrix: (Units=GPa)
#
#
# Indices 1 2 3 4 5 6 
#
# 1 74.9373 10.7977 21.3674 -3.7193 0.0000 0.0000
# 2 10.7977 74.9373 21.3674 3.7193 0.0000 0.0000
# 3 21.3674 21.3674 71.2919 0.0000 0.0000 0.0000
# 4 -3.7193 3.7193 0.0000 34.4454 0.0000 0.0000
# 5 0.0000 0.0000 0.0000 0.0000 34.4454 -3.7193
# 6 0.0000 0.0000 0.0000 0.0000 -3.7193 32.0698
#
#
#
# Elastic Compliance Matrix: (Units=1/GPa)
#
#
# Indices 1 2 3 4 5 6 
#
# 1 0.014751 -0.001038 -0.004110 0.001705 0.000000 0.000000
# 2 -0.001038 0.014751 -0.004110 -0.001705 0.000000 0.000000
# 3 -0.004110 -0.004110 0.016490 0.000000 0.000000 0.000000
# 4 0.001705 -0.001705 0.000000 0.029400 0.000000 0.000000
# 5 0.000000 0.000000 0.000000 0.000000 0.029400 0.003410
# 6 0.000000 0.000000 0.000000 0.000000 0.003410 0.031577
#
#
# Mechanical properties :
#
#
# Convention : Reuss Voigt Hill
#
# Bulk Modulus (GPa) = 36.39558 36.47017 36.43287
# Shear Modulus (GPa) = 30.47991 31.36772 30.92381
#
# Velocity S-wave (km/s) = 3.67176 3.72485 3.69840
# Velocity P-wave (km/s) = 5.83730 5.88478 5.86109
#
# Compressibility (1/GPa) = 0.02747586
#
# Stress axis : x y z
#
# Youngs Moduli (GPa) = 67.79401 67.79401 60.64127
#
# Poissons Ratio (x) = 0.07038 0.24923
# Poissons Ratio (y) = 0.07038 0.24923
# Poissons Ratio (z) = 0.27862 0.27862
#
# Static dielectric constant tensor:
#      x y z
#    x 1.849380 0.000000 0.000000 
#    y 0.000000 1.849380 0.000000 
#    z 0.000000 0.000000 1.938410 
# 
# From -- ./inp_files/3760.got.cif
#   From: 2010.05.17/outbox.cif.g08.bks.cpg/sg152_2_cif.got.tgz:3760.got - 2010.05.20 10:36:06.
