data_PCOD9576009
_publ_section_title
;
Structure prediction by ZEFSAII (Michael W. Deem and Ramdas Pophale) SiO2 
 PCOD9576009
Probable space group: P 31 2 1
;
_chemical_formula_sum "Si O2"
_cell_formula_units_Z 33
_cell_length_a 11.427015
_cell_length_b 11.427015
_cell_length_c 14.384983
_cell_angle_alpha 90.000000
_cell_angle_beta 90.000000
_cell_angle_gamma 120.000000
_cell_volume 1626.692932
_symmetry_space_group_name_H-M "P 31 2 1"
_symmetry_group_IT_number 152
_symmetry_cell_setting 'hexagonal'
loop_
_space_group_symop_operation_xyz
x,y,z
-y,x-y,1/3+z
-x+y,-x,2/3+z
x-y,-y,2/3-z
-x,-x+y,1/3-z
y,x,-z
loop_
_atom_site_type_symbol
_atom_site_label
_atom_site_fract_x
_atom_site_fract_y
_atom_site_fract_z
Si Si1 0.686593 0.029031 0.661637
Si Si2 0.713377 0.290250 0.698522
Si Si3 0.000000 0.065399 0.166667
Si Si4 0.863767 0.647332 0.523932
Si Si5 0.402406 0.577492 0.434604
Si Si6 0.136085 0.000000 0.333334
Si Si7 0.538779 0.000000 0.333334
O O1 0.660250 0.921082 0.580661
O O2 0.569505 0.945609 0.737745
O O3 0.667893 0.156051 0.636922
O O4 0.847897 0.111178 0.685025
O O5 0.678855 0.246557 0.805252
O O6 0.633317 0.358759 0.654386
O O7 0.871596 0.396883 0.692607
O O8 0.105358 0.202186 0.114753
O O9 0.074714 0.024922 0.241060
O O10 0.703570 0.550597 0.539664
O O11 0.945295 0.594165 0.584643
#
# Coordination Sequence:
#
# PCOD9576009 Si02
#       7
#     6   6   3   6   6   3   3
#     4  11  23  41  64  92 132 164 219 263 328 393
#     4  11  23  40  63  91 126 169 213 269 329 385
#     4  10  22  40  62  90 128 164 214 256 324 384
#     4  10  22  41  63  94 124 168 209 273 319 388
#     4  11  23  40  64  93 127 165 217 270 324 392
#     4  10  24  40  60  94 124 168 206 264 312 392
#     4  10  22  42  64  90 130 166 216 266 336 390
#
# _framework density 20.286559
#
# number of rings (size 3 to 8) (size 9 to 14) (size 15 to 20)
#    0.000    1.455    1.818    2.727    5.091    0.000 
#    0.000    0.000    0.000    0.000    0.000    0.000 
#    0.000    0.000    0.000    0.000    0.000    0.000 
#
# Total GULP energy -183855.597851 kJ/mol
# GULP energy per Si atom -5571.381753 kJ/mol
# Density = 2.024039 g / cm^3
# Si number density = 20.286559 Si / 1000 Ang^3
#
#
#
# Elastic Constant Matrix: (Units=GPa)
#
#
# Indices 1 2 3 4 5 6 
#
# 1 107.5962 52.9116 29.1711 -2.1268 0.0004 0.0000
# 2 52.9116 107.5962 29.1711 2.1268 -0.0004 0.0000
# 3 29.1711 29.1711 48.4180 0.0000 0.0000 0.0000
# 4 -2.1268 2.1268 0.0000 26.0596 0.0000 -0.0004
# 5 0.0004 -0.0004 0.0000 0.0000 26.0596 -2.1268
# 6 0.0000 0.0000 0.0000 -0.0004 -2.1268 27.3423
#
#
#
# Elastic Compliance Matrix: (Units=1/GPa)
#
#
# Indices 1 2 3 4 5 6 
#
# 1 0.013190 -0.005213 -0.004806 0.001502 0.000000 0.000000
# 2 -0.005213 0.013190 -0.004806 -0.001502 0.000000 0.000000
# 3 -0.004806 -0.004806 0.026445 0.000000 0.000000 0.000000
# 4 0.001502 -0.001502 0.000000 0.038619 0.000000 0.000001
# 5 0.000000 0.000000 0.000000 0.000000 0.038619 0.003004
# 6 0.000000 0.000000 0.000000 0.000001 0.003004 0.036807
#
#
# Mechanical properties :
#
#
# Convention : Reuss Voigt Hill
#
# Bulk Modulus (GPa) = 43.15076 54.01312 48.58194
# Shear Modulus (GPa) = 24.48032 26.04940 25.26486
#
# Velocity S-wave (km/s) = 3.47757 3.58728 3.53285
# Velocity P-wave (km/s) = 6.11894 6.62125 6.37505
#
# Compressibility (1/GPa) = 0.02317456
#
# Stress axis : x y z
#
# Youngs Moduli (GPa) = 75.81298 75.81298 37.81474
#
# Poissons Ratio (x) = 0.39523 0.18174
# Poissons Ratio (y) = 0.39523 0.18174
# Poissons Ratio (z) = 0.36437 0.36437
#
# Static dielectric constant tensor:
#      x y z
#    x 1.737590 0.000000 0.000000 
#    y 0.000000 1.737590 0.000000 
#    z 0.000000 0.000000 1.708020 
# 
# From -- ./inp_files/2062.got.cif
#   From: 2010.05.17/outbox.cif.g08.bks.cpg/sg152_2_cif.got.tgz:2062.got - 2010.05.20 10:36:06.
