data_PCOD9576376
_publ_section_title
;
Structure prediction by ZEFSAII (Michael W. Deem and Ramdas Pophale) SiO2 
 PCOD9576376
Probable space group: P 32 1 2
;
_chemical_formula_sum "Si O2"
_cell_formula_units_Z 39
_cell_length_a 9.000000
_cell_length_b 9.000000
_cell_length_c 30.000000
_cell_angle_alpha 90.000000
_cell_angle_beta 90.000000
_cell_angle_gamma 120.000000
_cell_volume 2104.441731
_symmetry_space_group_name_H-M "P 32 1 2"
_symmetry_group_IT_number 153
_symmetry_cell_setting 'hexagonal'
loop_
_space_group_symop_operation_xyz
x,y,z
-y,x-y,2/3+z
-x+y,-x,1/3+z
-y,-x,1/3-z
-x+y,y,2/3-z
x,x-y,-z
loop_
_atom_site_type_symbol
_atom_site_label
_atom_site_fract_x
_atom_site_fract_y
_atom_site_fract_z
Si Si1 0.077317 0.182939 0.235787
Si Si2 0.674611 0.697477 0.348398
Si Si3 0.419629 0.056569 0.712370
Si Si4 0.816988 0.183013 0.166667
Si Si5 0.852486 0.445330 0.089114
Si Si6 0.164487 0.283655 0.778870
Si Si7 0.937776 0.714491 0.974994
O O1 0.258952 0.336281 0.256111
O O2 0.991569 0.230663 0.194476
O O3 0.930060 0.109822 0.273459
O O4 0.102648 0.022073 0.223368
O O5 0.520121 0.527996 0.321631
O O6 0.674573 0.739448 0.403432
O O7 0.845379 0.690758 0.333334
O O8 0.693860 0.868646 0.325611
O O9 0.542808 0.224623 0.743097
O O10 0.329695 0.134747 0.681502
O O11 0.833379 0.324732 0.131062
O O12 0.899388 0.360954 0.048243
O O13 0.009838 0.635437 0.098585
O O14 0.160583 0.321165 0.833334
#
# Coordination Sequence:
#
# PCOD9576376 Si02
#       7
#     6   6   6   3   6   6   6
#     4  10  20  41  69  95 129 173 230 275 339 420
#     4  12  23  40  71 100 131 184 238 296 351 420
#     4  11  23  40  66 103 131 169 235 299 337 408
#     4  10  22  42  72  94 134 192 216 272 368 428
#     4  10  23  41  64  94 137 174 219 290 351 407
#     4  11  23  41  66  96 135 182 225 282 352 428
#     4  11  20  42  64  94 129 172 225 284 344 402
#
# _framework density 18.532230999999999
#
# number of rings (size 3 to 8) (size 9 to 14) (size 15 to 20)
#    0.000    1.231    5.385    1.846    0.000    3.692 
#    8.308    0.000    0.000    0.000    0.000    0.000 
#    0.000    0.000    0.000    0.000    0.000    0.000 
#
# Total GULP energy -217208.377657 kJ/mol
# GULP energy per Si atom -5569.445581 kJ/mol
# Density = 1.849005 g / cm^3
# Si number density = 18.532231 Si / 1000 Ang^3
#
#
#
# Elastic Constant Matrix: (Units=GPa)
#
#
# Indices 1 2 3 4 5 6 
#
# 1 99.0048 31.8139 40.3402 0.0000 -2.4576 0.0000
# 2 31.8139 99.0048 40.3402 0.0000 2.4576 0.0000
# 3 40.3402 40.3402 139.6160 0.0000 0.0000 0.0000
# 4 0.0000 0.0000 0.0000 42.0464 0.0000 2.4576
# 5 -2.4576 2.4576 0.0000 0.0000 42.0464 0.0000
# 6 0.0000 0.0000 0.0000 2.4576 0.0000 33.5955
#
#
#
# Elastic Compliance Matrix: (Units=1/GPa)
#
#
# Indices 1 2 3 4 5 6 
#
# 1 0.012124 -0.002823 -0.002688 0.000000 0.000874 0.000000
# 2 -0.002823 0.012124 -0.002688 0.000000 -0.000874 0.000000
# 3 -0.002688 -0.002688 0.008716 0.000000 0.000000 0.000000
# 4 0.000000 0.000000 0.000000 0.023885 0.000000 -0.001747
# 5 0.000874 -0.000874 0.000000 0.000000 0.023885 0.000000
# 6 0.000000 0.000000 0.000000 -0.001747 0.000000 0.029894
#
#
# Mechanical properties :
#
#
# Convention : Reuss Voigt Hill
#
# Bulk Modulus (GPa) = 60.35516 62.51269 61.43393
# Shear Modulus (GPa) = 37.72243 38.54640 38.13441
#
# Velocity S-wave (km/s) = 4.51655 4.56561 4.54115
# Velocity P-wave (km/s) = 7.73546 7.84845 7.79216
#
# Compressibility (1/GPa) = 0.01656859
#
# Stress axis : x y z
#
# Youngs Moduli (GPa) = 82.47903 82.47903 114.73672
#
# Poissons Ratio (x) = 0.23280 0.30837
# Poissons Ratio (y) = 0.23280 0.30837
# Poissons Ratio (z) = 0.22167 0.22167
#
# Static dielectric constant tensor:
#      x y z
#    x 1.659980 0.000000 0.000000 
#    y 0.000000 1.659980 0.000000 
#    z 0.000000 0.000000 1.712250 
# 
# From -- ./inp_files/5114.got.cif
#   From: 2010.05.17/outbox.ucp.g08.bks.cvg/sg153_3_cif.got.tgz:5114.got - 2010.06.11 15:13:23.
