data_PCOD9576110
_publ_section_title
;
Structure prediction by ZEFSAII (Michael W. Deem and Ramdas Pophale) SiO2 
 PCOD9576110
Probable space group: P 31 2 1
;
_chemical_formula_sum "Si O2"
_cell_formula_units_Z 21
_cell_length_a 6.927730
_cell_length_b 6.927730
_cell_length_c 18.292413
_cell_angle_alpha 90.000000
_cell_angle_beta 90.000000
_cell_angle_gamma 120.000000
_cell_volume 760.297454
_symmetry_space_group_name_H-M "P 31 2 1"
_symmetry_group_IT_number 152
_symmetry_cell_setting 'hexagonal'
loop_
_space_group_symop_operation_xyz
x,y,z
-y,x-y,1/3+z
-x+y,-x,2/3+z
x-y,-y,2/3-z
-x,-x+y,1/3-z
y,x,-z
loop_
_atom_site_type_symbol
_atom_site_label
_atom_site_fract_x
_atom_site_fract_y
_atom_site_fract_z
Si Si1 0.893340 0.646393 0.925331
Si Si2 0.742920 0.694759 0.303042
Si Si3 0.000000 0.651126 0.166667
Si Si4 0.594569 0.149303 0.437154
O O1 0.872531 0.440230 0.973016
O O2 0.939612 0.597310 0.843267
O O3 0.652792 0.624101 0.921270
O O4 0.090168 0.867652 0.962184
O O5 0.888846 0.721857 0.230864
O O6 0.788426 0.201459 0.380391
O O7 0.789645 0.434330 0.132838
#
# Coordination Sequence:
#
# PCOD9576110 Si02
#       4
#     6   6   3   6
#     4  11  25  53  88 128 170 242 295 376 455 536
#     4  11  27  51  84 128 173 231 302 373 453 549
#     4  10  24  50  80 124 174 218 296 370 450 544
#     4  11  24  56  83 124 182 227 299 382 447 544
#
# _framework density 27.62077
#
# number of rings (size 3 to 8) (size 9 to 14) (size 15 to 20)
#    0.000    1.143    5.714    0.000    4.000    1.143 
#   15.429    7.143    0.000    0.000    0.000    0.000 
#    0.000    0.000    0.000    0.000    0.000    0.000 
#
# Total GULP energy -117865.775820 kJ/mol
# GULP energy per Si atom -5612.655991 kJ/mol
# Density = 2.755790 g / cm^3
# Si number density = 27.620770 Si / 1000 Ang^3
#
#
#
# Elastic Constant Matrix: (Units=GPa)
#
#
# Indices 1 2 3 4 5 6 
#
# 1 211.2890 111.4669 70.4891 -8.9408 -0.0002 0.0000
# 2 111.4669 211.2890 70.4891 8.9408 0.0002 0.0000
# 3 70.4891 70.4891 139.0768 0.0000 0.0000 0.0000
# 4 -8.9408 8.9408 0.0000 44.9432 0.0000 0.0002
# 5 -0.0002 0.0002 0.0000 0.0000 44.9432 -8.9408
# 6 0.0000 0.0000 0.0000 0.0002 -8.9408 49.9110
#
#
#
# Elastic Compliance Matrix: (Units=1/GPa)
#
#
# Indices 1 2 3 4 5 6 
#
# 1 0.007184 -0.003204 -0.002017 0.002067 0.000000 0.000000
# 2 -0.003204 0.007184 -0.002017 -0.002067 0.000000 0.000000
# 3 -0.002017 -0.002017 0.009235 0.000000 0.000000 0.000000
# 4 0.002067 -0.002067 0.000000 0.023073 0.000000 0.000000
# 5 0.000000 0.000000 0.000000 0.000000 0.023073 0.004133
# 6 0.000000 0.000000 0.000000 0.000000 0.004133 0.020776
#
#
# Mechanical properties :
#
#
# Convention : Reuss Voigt Hill
#
# Bulk Modulus (GPa) = 109.57860 118.50502 114.04181
# Shear Modulus (GPa) = 46.27871 48.57347 47.42609
#
# Velocity S-wave (km/s) = 4.09773 4.19810 4.14822
# Velocity P-wave (km/s) = 7.88335 8.15452 8.02008
#
# Compressibility (1/GPa) = 0.00912587
#
# Stress axis : x y z
#
# Youngs Moduli (GPa) = 139.20524 139.20524 108.28743
#
# Poissons Ratio (x) = 0.44607 0.21840
# Poissons Ratio (y) = 0.44607 0.21840
# Poissons Ratio (z) = 0.28075 0.28075
#
# Static dielectric constant tensor:
#      x y z
#    x 2.168720 0.000000 0.000000 
#    y 0.000000 2.168720 0.000000 
#    z 0.000000 0.000000 2.186690 
# 
# From -- ./inp_files/2296.got.cif
#   From: 2010.05.17/outbox.cif.g08.bks.cpg/sg152_2_cif.got.tgz:2296.got - 2010.05.20 10:36:06.
