data_PCOD9576834
_publ_section_title
;
Structure prediction by ZEFSAII (Michael W. Deem and Ramdas Pophale) SiO2 
 PCOD9576834
Probable space group: R 3 2
;
_chemical_formula_sum "Si O2"
_cell_formula_units_Z 72
_cell_length_a 24.065820
_cell_length_b 24.065820
_cell_length_c 8.081553
_cell_angle_alpha 90.000000
_cell_angle_beta 90.000000
_cell_angle_gamma 120.000000
_cell_volume 4053.468340
_symmetry_space_group_name_H-M "R 3 2"
_symmetry_group_IT_number 155
_symmetry_cell_setting 'hexagonal'
loop_
_space_group_symop_operation_xyz
x,y,z
-y,x-y,z
-x+y,-x,z
x-y,-y,-z
-x,-x+y,-z
y,x,-z
2/3+x,1/3+y,1/3+z
2/3-y,1/3+x-y,1/3+z
2/3-x+y,1/3-x,1/3+z
2/3+x-y,1/3-y,1/3-z
2/3-x,1/3-x+y,1/3-z
2/3+y,1/3+x,1/3-z
1/3+x,2/3+y,2/3+z
1/3-y,2/3+x-y,2/3+z
1/3-x+y,2/3-x,2/3+z
1/3+x-y,2/3-y,2/3-z
1/3-x,2/3-x+y,2/3-z
1/3+y,2/3+x,2/3-z
loop_
_atom_site_type_symbol
_atom_site_label
_atom_site_fract_x
_atom_site_fract_y
_atom_site_fract_z
Si Si1 0.742116 0.255456 0.827758
Si Si2 0.593964 0.605015 0.262655
Si Si3 0.257977 0.811996 0.860621
Si Si4 0.558396 0.744192 0.490180
O O1 0.780609 0.333334 0.833334
O O2 0.666667 0.228313 0.833334
O O3 0.767382 0.233173 0.667823
O O4 0.759541 0.232658 0.997054
O O5 0.600596 0.666667 0.166667
O O6 0.666667 0.633329 0.333334
O O7 0.537503 0.586197 0.393259
O O8 0.581391 0.543938 0.154674
O O9 0.230837 0.788826 0.676511
O O10 0.334534 0.842290 0.842841
#
# Coordination Sequence:
#
# PCOD9576834 Si02
#       4
#    18  18  18  18
#     4  10  22  38  54  69  96 140 202 258 290 308
#     4  12  18  28  50  84 129 166 175 196 277 362
#     4  10  20  31  48  77 109 148 185 217 265 351
#     4  10  19  33  47  76 112 145 185 222 260 351
#
# _framework density 17.762567000000001
#
# number of rings (size 3 to 8) (size 9 to 14) (size 15 to 20)
#    0.000    1.500    5.000    3.250    0.000    1.000 
#    0.000    0.000    0.000    3.000    0.000    0.000 
#    0.000   16.000    0.000    0.000    0.000    0.000 
#
# Total GULP energy -133634.081088 kJ/mol
# GULP energy per Si atom -5568.086712 kJ/mol
# Density = 1.772214 g / cm^3
# Si number density = 17.762567 Si / 1000 Ang^3
#
#
#
# Elastic Constant Matrix: (Units=GPa)
#
#
# Indices 1 2 3 4 5 6 
#
# 1 52.3937 17.3801 49.9343 0.0297 0.0100 -0.0030
# 2 17.3801 52.3757 49.9155 -0.0266 -0.0030 -0.0007
# 3 49.9343 49.9155 179.5630 -0.0084 0.0335 -0.0104
# 4 0.0297 -0.0266 -0.0084 18.5168 -0.0043 0.0007
# 5 0.0100 -0.0030 0.0335 -0.0043 18.5127 0.0221
# 6 -0.0030 -0.0007 -0.0104 0.0007 0.0221 17.4952
#
#
#
# Elastic Compliance Matrix: (Units=1/GPa)
#
#
# Indices 1 2 3 4 5 6 
#
# 1 0.026185 -0.002380 -0.006620 -0.000048 -0.000003 0.000000
# 2 -0.002380 0.026190 -0.006619 0.000038 0.000017 -0.000003
# 3 -0.006620 -0.006619 0.009250 0.000005 -0.000014 0.000004
# 4 -0.000048 0.000038 0.000005 0.054005 0.000012 -0.000002
# 5 -0.000003 0.000017 -0.000014 0.000012 0.054017 -0.000068
# 6 0.000000 -0.000003 0.000004 -0.000002 -0.000068 0.057159
#
#
# Mechanical properties :
#
#
# Convention : Reuss Voigt Hill
#
# Bulk Modulus (GPa) = 32.90785 57.64357 45.27571
# Shear Modulus (GPa) = 18.64465 22.04510 20.34488
#
# Velocity S-wave (km/s) = 3.24336 3.52674 3.38802
# Velocity P-wave (km/s) = 5.70899 7.00761 6.39137
#
# Compressibility (1/GPa) = 0.03038789
#
# Stress axis : x y z
#
# Youngs Moduli (GPa) = 38.18953 38.18202 108.10872
#
# Poissons Ratio (x) = 0.09087 0.71570
# Poissons Ratio (y) = 0.09089 0.71553
# Poissons Ratio (z) = 0.25282 0.25271
#
# Static dielectric constant tensor:
#      x y z
#    x 1.600570 -0.000010 -0.000050 
#    y -0.000010 1.600610 0.000010 
#    z -0.000050 0.000010 1.783430 
# 
# From -- ./inp_files/2416.got.cif
#   From: 2010.05.17/outbox.cif.g08.bks.cpg/sg155_2_cif.got.tgz:2416.got - 2010.05.20 10:44:35.
