data_PCOD9576978
_publ_section_title
;
Structure prediction by ZEFSAII (Michael W. Deem and Ramdas Pophale) SiO2 
 PCOD9576978
Probable space group: R 3 2
;
_chemical_formula_sum "Si O2"
_cell_formula_units_Z 54
_cell_length_a 20.574726
_cell_length_b 20.574726
_cell_length_c 7.994780
_cell_angle_alpha 90.000000
_cell_angle_beta 90.000000
_cell_angle_gamma 120.000000
_cell_volume 2930.928808
_symmetry_space_group_name_H-M "R 3 2"
_symmetry_group_IT_number 155
_symmetry_cell_setting 'hexagonal'
loop_
_space_group_symop_operation_xyz
x,y,z
-y,x-y,z
-x+y,-x,z
x-y,-y,-z
-x,-x+y,-z
y,x,-z
2/3+x,1/3+y,1/3+z
2/3-y,1/3+x-y,1/3+z
2/3-x+y,1/3-x,1/3+z
2/3+x-y,1/3-y,1/3-z
2/3-x,1/3-x+y,1/3-z
2/3+y,1/3+x,1/3-z
1/3+x,2/3+y,2/3+z
1/3-y,2/3+x-y,2/3+z
1/3-x+y,2/3-x,2/3+z
1/3+x-y,2/3-y,2/3-z
1/3-x,2/3-x+y,2/3-z
1/3+y,2/3+x,2/3-z
loop_
_atom_site_type_symbol
_atom_site_label
_atom_site_fract_x
_atom_site_fract_y
_atom_site_fract_z
Si Si1 0.131804 0.419907 0.333884
Si Si2 0.534864 0.913426 0.999450
Si Si3 0.000000 0.843685 0.000000
Si Si4 0.843686 0.843686 0.000000
O O1 0.124774 0.458107 0.166667
O O2 0.066666 0.333334 0.333334
O O3 0.210119 0.420237 0.330752
O O4 0.134022 0.464024 0.501271
O O5 0.532645 0.869310 0.832063
O O6 0.541893 0.875227 0.166667
O O7 0.600002 0.000000 0.000000
O O8 0.074551 0.925449 0.996513
#
# Coordination Sequence:
#
# PCOD9576978 Si02
#       4
#    18  18   9   9
#     4  10  22  37  56  83 112 146 185 226 274 327
#     4  10  22  37  56  83 112 146 185 226 274 327
#     4  10  21  38  60  84 111 144 184 230 278 328
#     4  10  21  38  60  84 111 144 184 230 278 328
#
# _framework density 18.424194
#
# number of rings (size 3 to 8) (size 9 to 14) (size 15 to 20)
#    0.000    2.000    0.000    2.333    4.667    0.000 
#    0.000   10.000    0.000   10.667    0.000    0.000 
#    0.000    0.000    0.000    0.000    0.000    0.000 
#
# Total GULP energy -100505.445232 kJ/mol
# GULP energy per Si atom -5583.635846 kJ/mol
# Density = 1.838226 g / cm^3
# Si number density = 18.424194 Si / 1000 Ang^3
#
#
#
# Elastic Constant Matrix: (Units=GPa)
#
#
# Indices 1 2 3 4 5 6 
#
# 1 53.0122 48.0709 63.9047 -5.4214 0.0018 0.0019
# 2 48.0709 53.0107 63.9049 5.4197 0.0034 0.0007
# 3 63.9047 63.9049 212.8971 -0.0014 0.0089 0.0027
# 4 -5.4214 5.4197 -0.0014 26.8027 -0.0007 0.0010
# 5 0.0018 0.0034 0.0089 -0.0007 26.8085 -5.4181
# 6 0.0019 0.0007 0.0027 0.0010 -5.4181 2.4706
#
#
#
# Elastic Compliance Matrix: (Units=1/GPa)
#
#
# Indices 1 2 3 4 5 6 
#
# 1 0.189918 -0.173977 -0.004784 0.073594 -0.000019 -0.000158
# 2 -0.173977 0.189925 -0.004788 -0.073595 0.000017 0.000146
# 3 -0.004784 -0.004788 0.007570 0.000001 -0.000004 -0.000012
# 4 0.073594 -0.073595 0.000001 0.067077 -0.000011 -0.000084
# 5 -0.000019 0.000017 -0.000004 -0.000011 0.066996 0.146927
# 6 -0.000158 0.000146 -0.000012 -0.000084 0.146927 0.726983
#
#
# Mechanical properties :
#
#
# Convention : Reuss Voigt Hill
#
# Bulk Modulus (GPa) = 49.22442 74.52010 61.87226
# Shear Modulus (GPa) = 3.08197 20.75231 11.91714
#
# Velocity S-wave (km/s) = 1.29476 3.35977 2.54602
# Velocity P-wave (km/s) = 5.38614 7.45556 6.50369
#
# Compressibility (1/GPa) = 0.02031512
#
# Stress axis : x y z
#
# Youngs Moduli (GPa) = 5.26543 5.26523 132.09509
#
# Poissons Ratio (x) = 0.91603 0.63198
# Poissons Ratio (y) = 0.91607 0.63244
# Poissons Ratio (z) = 0.02519 0.02521
#
# Static dielectric constant tensor:
#      x y z
#    x 1.621830 0.000000 0.000000 
#    y 0.000000 1.621830 0.000000 
#    z 0.000000 0.000000 1.608090 
# 
# From -- ./inp_files/1932.got.cif
#   From: 2010.05.17/outbox.cif.g08.bks.cpg/sg155_1_cif.got.tgz:1932.got - 2010.05.20 10:44:35.
