data_PCOD9576232
_publ_section_title
;
Structure prediction by ZEFSAII (Michael W. Deem and Ramdas Pophale) SiO2 
 PCOD9576232
Probable space group: P 32 1 2
;
_chemical_formula_sum "Si O2"
_cell_formula_units_Z 24
_cell_length_a 11.717129
_cell_length_b 11.717129
_cell_length_c 10.566476
_cell_angle_alpha 90.000000
_cell_angle_beta 90.000000
_cell_angle_gamma 120.000000
_cell_volume 1256.328539
_symmetry_space_group_name_H-M "P 32 1 2"
_symmetry_group_IT_number 153
_symmetry_cell_setting 'hexagonal'
loop_
_space_group_symop_operation_xyz
x,y,z
-y,x-y,2/3+z
-x+y,-x,1/3+z
-y,-x,1/3-z
-x+y,y,2/3-z
x,x-y,-z
loop_
_atom_site_type_symbol
_atom_site_label
_atom_site_fract_x
_atom_site_fract_y
_atom_site_fract_z
Si Si1 0.645331 0.612877 0.108168
Si Si2 0.510251 0.796895 0.740568
Si Si3 0.695127 0.480075 0.476366
Si Si4 0.441902 0.933124 0.528419
O O1 0.525402 0.474599 0.166667
O O2 0.640233 0.717670 0.201504
O O3 0.762656 0.581948 0.106646
O O4 0.602021 0.630939 0.970607
O O5 0.390453 0.780906 0.833334
O O6 0.483072 0.838830 0.604915
O O7 0.515781 0.664761 0.755558
O O8 0.754130 0.508260 0.333334
O O9 0.657391 0.328696 0.500000
O O10 0.571928 0.500447 0.498750
#
# Coordination Sequence:
#
# PCOD9576232 Si02
#       4
#     6   6   6   6
#     4   8  14  26  47  70 106 137 177 212 273 334
#     4   9  16  29  49  76 112 139 184 221 283 340
#     4  11  17  31  50  78 116 144 182 221 281 345
#     4  10  18  30  51  80 114 149 180 234 279 345
#
# _framework density 19.103282
#
# number of rings (size 3 to 8) (size 9 to 14) (size 15 to 20)
#    0.000    3.000    7.500    3.000    0.000    0.000 
#    0.000    2.500    0.000    0.000    0.000    1.750 
#   15.000    0.500    0.000    0.000    0.000    0.000 
#
# Total GULP energy -133645.926320 kJ/mol
# GULP energy per Si atom -5568.580263 kJ/mol
# Density = 1.905980 g / cm^3
# Si number density = 19.103282 Si / 1000 Ang^3
#
#
#
# Elastic Constant Matrix: (Units=GPa)
#
#
# Indices 1 2 3 4 5 6 
#
# 1 116.1394 61.1243 26.0888 0.0000 -1.2253 0.0000
# 2 61.1243 116.1394 26.0888 0.0000 1.2253 0.0000
# 3 26.0888 26.0888 26.6637 0.0000 0.0000 0.0000
# 4 0.0000 0.0000 0.0000 17.3033 0.0000 1.2253
# 5 -1.2253 1.2253 0.0000 0.0000 17.3033 0.0000
# 6 0.0000 0.0000 0.0000 1.2253 0.0000 27.5076
#
#
#
# Elastic Compliance Matrix: (Units=1/GPa)
#
#
# Indices 1 2 3 4 5 6 
#
# 1 0.013079 -0.005156 -0.007752 0.000000 0.001291 0.000000
# 2 -0.005156 0.013079 -0.007752 0.000000 -0.001291 0.000000
# 3 -0.007752 -0.007752 0.052675 0.000000 0.000000 0.000000
# 4 0.000000 0.000000 0.000000 0.057975 0.000000 -0.002582
# 5 0.001291 -0.001291 0.000000 0.000000 0.057975 0.000000
# 6 0.000000 0.000000 0.000000 -0.002582 0.000000 0.036469
#
#
# Mechanical properties :
#
#
# Convention : Reuss Voigt Hill
#
# Bulk Modulus (GPa) = 26.65844 53.94958 40.30401
# Shear Modulus (GPa) = 17.53918 22.13223 19.83570
#
# Velocity S-wave (km/s) = 3.03334 3.40745 3.22582
# Velocity P-wave (km/s) = 5.12381 6.61689 5.91763
#
# Compressibility (1/GPa) = 0.03751157
#
# Stress axis : x y z
#
# Youngs Moduli (GPa) = 76.45976 76.45976 18.98444
#
# Poissons Ratio (x) = 0.39419 0.14717
# Poissons Ratio (y) = 0.39419 0.14717
# Poissons Ratio (z) = 0.59275 0.59275
#
# Static dielectric constant tensor:
#      x y z
#    x 1.724370 0.000000 0.000000 
#    y 0.000000 1.724370 0.000000 
#    z 0.000000 0.000000 1.784300 
# 
# From -- ./inp_files/2376.got.cif
#   From: 2010.05.17/outbox.cif.g08.bks.cpg/sg153_2_cif.got.tgz:2376.got - 2010.05.20 10:38:56.
