data_PCOD9576188
_publ_section_title
;
Structure prediction by ZEFSAII (Michael W. Deem and Ramdas Pophale) SiO2 
 PCOD9576188
Probable space group: P 31 2 1
;
_chemical_formula_sum "Si O2"
_cell_formula_units_Z 12
_cell_length_a 7.016304
_cell_length_b 7.016304
_cell_length_c 10.024523
_cell_angle_alpha 90.000000
_cell_angle_beta 90.000000
_cell_angle_gamma 120.000000
_cell_volume 427.376998
_symmetry_space_group_name_H-M "P 31 2 1"
_symmetry_group_IT_number 152
_symmetry_cell_setting 'hexagonal'
loop_
_space_group_symop_operation_xyz
x,y,z
-y,x-y,1/3+z
-x+y,-x,2/3+z
x-y,-y,2/3-z
-x,-x+y,1/3-z
y,x,-z
loop_
_atom_site_type_symbol
_atom_site_label
_atom_site_fract_x
_atom_site_fract_y
_atom_site_fract_z
Si Si1 0.556777 0.866034 0.464673
Si Si2 0.625488 0.788964 0.750803
O O1 0.679000 0.846125 0.595300
O O2 0.378032 0.618434 0.427257
O O3 0.689341 0.000000 0.333334
O O4 0.418029 0.982593 0.513625
O O5 0.791207 0.000000 0.833334
#
# Coordination Sequence:
#
# PCOD9576188 Si02
#       2
#     6   6
#     4  12  23  43  72 106 146 201 252 315 381 455
#     4  12  25  45  73 107 153 202 255 315 392 461
#
# _framework density 28.078251000000002
#
# number of rings (size 3 to 8) (size 9 to 14) (size 15 to 20)
#    0.000    0.000   10.000    0.000    0.000    0.000 
#    0.000    2.500   11.000    0.000    0.000    0.000 
#    0.000    0.000    0.000    0.000    0.000    0.000 
#
# Total GULP energy -67389.825823 kJ/mol
# GULP energy per Si atom -5615.818819 kJ/mol
# Density = 2.801434 g / cm^3
# Si number density = 28.078251 Si / 1000 Ang^3
#
#
#
# Elastic Constant Matrix: (Units=GPa)
#
#
# Indices 1 2 3 4 5 6 
#
# 1 119.1966 14.3850 74.7402 -3.1151 0.0001 0.0000
# 2 14.3850 119.1966 74.7402 3.1151 -0.0001 0.0000
# 3 74.7402 74.7402 300.9116 0.0000 0.0000 0.0000
# 4 -3.1151 3.1151 0.0000 60.4824 0.0000 -0.0001
# 5 0.0001 -0.0001 0.0000 0.0000 60.4824 -3.1151
# 6 0.0000 0.0000 0.0000 -0.0001 -3.1151 52.4058
#
#
#
# Elastic Compliance Matrix: (Units=1/GPa)
#
#
# Indices 1 2 3 4 5 6 
#
# 1 0.009969 0.000399 -0.002575 0.000493 0.000000 0.000000
# 2 0.000399 0.009969 -0.002575 -0.000493 0.000000 0.000000
# 3 -0.002575 -0.002575 0.004602 0.000000 0.000000 0.000000
# 4 0.000493 -0.000493 0.000000 0.016584 0.000000 0.000000
# 5 0.000000 0.000000 0.000000 0.000000 0.016584 0.000986
# 6 0.000000 0.000000 0.000000 0.000000 0.000986 0.019140
#
#
# Mechanical properties :
#
#
# Convention : Reuss Voigt Hill
#
# Bulk Modulus (GPa) = 66.50122 96.33731 81.41926
# Shear Modulus (GPa) = 54.72541 59.70343 57.21442
#
# Velocity S-wave (km/s) = 4.41957 4.61621 4.51896
# Velocity P-wave (km/s) = 7.05544 7.92447 7.50255
#
# Compressibility (1/GPa) = 0.01503732
#
# Stress axis : x y z
#
# Youngs Moduli (GPa) = 100.31152 100.31152 217.27580
#
# Poissons Ratio (x) = -0.04000 0.55951
# Poissons Ratio (y) = -0.04000 0.55951
# Poissons Ratio (z) = 0.25831 0.25831
#
# Static dielectric constant tensor:
#      x y z
#    x 2.164130 0.000000 0.000000 
#    y 0.000000 2.164130 0.000000 
#    z 0.000000 0.000000 2.182060 
# 
# From -- ./inp_files/621.got.cif
#   From: 2010.05.17/outbox.cif.g08.bks.cpg/sg152_1_cif.got.tgz:621.got - 2010.05.20 10:36:06.
