data_PCOD9576256
_publ_section_title
;
Structure prediction by ZEFSAII (Michael W. Deem and Ramdas Pophale) SiO2 
 PCOD9576256
Probable space group: P 32 1 2
;
_chemical_formula_sum "Si O2"
_cell_formula_units_Z 33
_cell_length_a 14.525223
_cell_length_b 14.525223
_cell_length_c 10.147794
_cell_angle_alpha 90.000000
_cell_angle_beta 90.000000
_cell_angle_gamma 120.000000
_cell_volume 1854.162919
_symmetry_space_group_name_H-M "P 32 1 2"
_symmetry_group_IT_number 153
_symmetry_cell_setting 'hexagonal'
loop_
_space_group_symop_operation_xyz
x,y,z
-y,x-y,2/3+z
-x+y,-x,1/3+z
-y,-x,1/3-z
-x+y,y,2/3-z
x,x-y,-z
loop_
_atom_site_type_symbol
_atom_site_label
_atom_site_fract_x
_atom_site_fract_y
_atom_site_fract_z
Si Si1 0.146465 0.175407 0.202326
Si Si2 0.407523 0.300614 0.722507
Si Si3 0.691765 0.083942 0.860568
Si Si4 0.728624 0.457247 0.833334
Si Si5 0.162652 0.192703 0.720235
Si Si6 0.538341 0.432605 0.949862
O O1 0.096696 0.193392 0.333334
O O2 0.268056 0.268253 0.185929
O O3 0.148310 0.066227 0.223588
O O4 0.077201 0.169806 0.076926
O O5 0.400464 0.198849 0.797750
O O6 0.471890 0.301488 0.593229
O O7 0.287259 0.269241 0.691827
O O8 0.468984 0.403083 0.816213
O O9 0.629210 0.085726 0.732623
O O10 0.617175 0.067485 0.988194
O O11 0.622942 0.393882 0.917776
O O12 0.118960 0.237920 0.833334
#
# Coordination Sequence:
#
# PCOD9576256 Si02
#       6
#     6   6   6   3   6   6
#     4  11  22  36  56  80 113 148 190 228 276 326
#     4  10  21  33  52  75 115 143 185 228 266 322
#     4   9  21  35  53  77 112 143 186 231 270 326
#     4  10  22  34  50  80 108 152 184 216 268 330
#     4  11  22  35  54  81 113 150 189 224 272 325
#     4  10  19  35  53  76 109 147 183 220 275 324
#
# _framework density 17.797789000000002
#
# number of rings (size 3 to 8) (size 9 to 14) (size 15 to 20)
#    0.000    1.818    0.000    4.364    7.636    8.727 
#    0.000    0.000    0.000    0.000    0.000    0.000 
#   27.273    0.000    0.000    0.000    0.000    0.000 
#
# Total GULP energy -184092.723047 kJ/mol
# GULP energy per Si atom -5578.567365 kJ/mol
# Density = 1.775728 g / cm^3
# Si number density = 17.797789 Si / 1000 Ang^3
#
#
#
# Elastic Constant Matrix: (Units=GPa)
#
#
# Indices 1 2 3 4 5 6 
#
# 1 63.9643 50.3623 30.5852 0.0002 -16.3298 0.0000
# 2 50.3623 63.9643 30.5852 -0.0002 16.3298 0.0000
# 3 30.5852 30.5852 109.2955 0.0000 0.0000 0.0000
# 4 0.0002 -0.0002 0.0000 2.3572 0.0000 16.3298
# 5 -16.3298 16.3298 0.0000 0.0000 2.3572 0.0002
# 6 0.0000 0.0000 0.0000 16.3298 0.0002 6.8010
#
#
#
# Elastic Compliance Matrix: (Units=1/GPa)
#
#
# Indices 1 2 3 4 5 6 
#
# 1 0.002792 0.007495 -0.002879 0.000000 -0.032577 0.000000
# 2 0.007495 0.002792 -0.002879 0.000000 0.032577 0.000000
# 3 -0.002879 -0.002879 0.010761 0.000000 0.000000 0.000000
# 4 0.000000 0.000000 0.000000 -0.027135 0.000000 0.065155
# 5 -0.032577 0.032577 0.000000 0.000000 -0.027135 0.000001
# 6 0.000000 0.000000 0.000000 0.065155 0.000001 -0.009405
#
#
# Mechanical properties :
#
#
# Convention : Reuss Voigt Hill
#
# Bulk Modulus (GPa) = 50.45416 51.14329 50.79872
# Shear Modulus (GPa) = -113.12657 10.68249 -51.22204
#
# Velocity S-wave (km/s) = -7.98124 2.45259 -5.37052
# Velocity P-wave (km/s) = 7.51821 6.06781 3.13887
#
# Compressibility (1/GPa) = 0.01981997
#
# Stress axis : x y z
#
# Youngs Moduli (GPa) = 358.12158 358.12158 92.93093
#
# Poissons Ratio (x) = -2.68405 0.26752
# Poissons Ratio (y) = -2.68405 0.26752
# Poissons Ratio (z) = 1.03094 1.03094
#
# Static dielectric constant tensor:
#      x y z
#    x 1.614850 0.000000 0.000000 
#    y 0.000000 1.614850 0.000000 
#    z 0.000000 0.000000 1.668740 
# 
# From -- ./inp_files/1685.got.cif
#   From: 2010.05.17/outbox.cif.g08.bks.cpg/sg153_1_cif.got.tgz:1685.got - 2010.05.20 10:38:56.
