data_PCOD9576410
_publ_section_title
;
Structure prediction by ZEFSAII (Michael W. Deem and Ramdas Pophale) SiO2 
 PCOD9576410
Probable space group: P 32 2 1
;
_chemical_formula_sum "Si O2"
_cell_formula_units_Z 33
_cell_length_a 15.622777
_cell_length_b 15.622777
_cell_length_c 8.072288
_cell_angle_alpha 90.000000
_cell_angle_beta 90.000000
_cell_angle_gamma 120.000000
_cell_volume 1706.254254
_symmetry_space_group_name_H-M "P 32 2 1"
_symmetry_group_IT_number 154
_symmetry_cell_setting 'hexagonal'
loop_
_space_group_symop_operation_xyz
x,y,z
-y,x-y,2/3+z
-x+y,-x,1/3+z
x-y,-y,1/3-z
-x,-x+y,2/3-z
y,x,-z
loop_
_atom_site_type_symbol
_atom_site_label
_atom_site_fract_x
_atom_site_fract_y
_atom_site_fract_z
Si Si1 0.956598 0.435661 0.011148
Si Si2 0.320801 0.723954 0.053821
Si Si3 0.246386 0.246386 0.000000
Si Si4 0.873363 0.771911 0.078333
Si Si5 0.000000 0.344103 0.333334
Si Si6 0.000000 0.727482 0.833334
Si Si7 0.331793 0.428927 0.745452
O O1 0.840866 0.393077 0.976035
O O2 0.968302 0.380402 0.170985
O O3 0.021287 0.551108 0.062397
O O4 0.000000 0.425615 0.833334
O O5 0.311623 0.670240 0.878094
O O6 0.209605 0.697501 0.102429
O O7 0.224907 0.141578 0.924840
O O8 0.284041 0.341049 0.878956
O O9 0.858337 0.858337 0.000000
O O10 0.764280 0.677612 0.056731
O O11 0.952357 0.762690 0.969132
O O12 0.913886 0.625440 0.761857
#
# Coordination Sequence:
#
# PCOD9576410 Si02
#       7
#     6   6   3   6   3   3   6
#     4  12  25  46  67 100 136 188 228 297 352 421
#     4  12  28  44  67 100 141 180 231 290 347 415
#     4  10  23  40  75  92 136 184 228 284 359 423
#     4   9  22  43  62 105 126 175 222 286 349 418
#     4  10  25  42  69 100 140 170 236 286 345 419
#     4  10  18  44  68  86 138 172 222 282 340 414
#     4  11  23  44  65  98 131 182 236 276 349 432
#
# _framework density 19.340610999999999
#
# number of rings (size 3 to 8) (size 9 to 14) (size 15 to 20)
#    0.545    0.727    2.727    1.636    7.636    1.455 
#    1.636    2.727    0.000    0.000    0.000    0.000 
#    0.000    0.000    0.000    0.000    0.000    0.000 
#
# Total GULP energy -183813.318283 kJ/mol
# GULP energy per Si atom -5570.100554 kJ/mol
# Density = 1.929659 g / cm^3
# Si number density = 19.340611 Si / 1000 Ang^3
#
#
#
# Elastic Constant Matrix: (Units=GPa)
#
#
# Indices 1 2 3 4 5 6 
#
# 1 70.9098 75.1431 39.0181 28.0042 -0.0032 0.0000
# 2 75.1431 70.9098 39.0181 -28.0042 0.0032 0.0000
# 3 39.0181 39.0181 112.4728 0.0000 0.0000 0.0000
# 4 28.0042 -28.0042 0.0000 -40.8587 0.0000 0.0032
# 5 -0.0032 0.0032 0.0000 0.0000 -40.8587 28.0042
# 6 0.0000 0.0000 0.0000 0.0032 28.0042 -2.1167
#
#
#
# Elastic Compliance Matrix: (Units=1/GPa)
#
#
# Indices 1 2 3 4 5 6 
#
# 1 0.018842 -0.010437 -0.002916 0.020067 -0.000002 0.000000
# 2 -0.010437 0.018842 -0.002916 -0.020067 0.000002 0.000000
# 3 -0.002916 -0.002916 0.010914 0.000000 0.000000 0.000000
# 4 0.020067 -0.020067 0.000000 0.003034 0.000000 0.000005
# 5 -0.000002 0.000002 0.000000 0.000000 0.003034 0.040135
# 6 0.000000 0.000000 0.000000 0.000005 0.040135 0.058558
#
#
# Mechanical properties :
#
#
# Convention : Reuss Voigt Hill
#
# Bulk Modulus (GPa) = 62.26397 62.29455 62.27926
# Shear Modulus (GPa) = 33.08787 -10.02593 11.53097
#
# Velocity S-wave (km/s) = 4.14067 -2.27928 2.44438
# Velocity P-wave (km/s) = 7.42452 5.03510 6.34333
#
# Compressibility (1/GPa) = 0.01606065
#
# Stress axis : x y z
#
# Youngs Moduli (GPa) = 53.07357 53.07357 91.62532
#
# Poissons Ratio (x) = 0.55393 0.26715
# Poissons Ratio (y) = 0.55393 0.26715
# Poissons Ratio (z) = 0.15475 0.15475
#
# Static dielectric constant tensor:
#      x y z
#    x 1.789690 0.000000 0.000000 
#    y 0.000000 1.789690 0.000000 
#    z 0.000000 0.000000 1.842370 
# 
# From -- ./inp_files/1181.got.cif
#   From: 2010.05.17/outbox.cif.g08.bks.cpg/sg154_1_cif.got.tgz:1181.got - 2010.05.20 10:41:43.
