data_PCOD9576502
_publ_section_title
;
Structure prediction by ZEFSAII (Michael W. Deem and Ramdas Pophale) SiO2 
 PCOD9576502
Probable space group: P 32 2 1
;
_chemical_formula_sum "Si O2"
_cell_formula_units_Z 45
_cell_length_a 14.030350
_cell_length_b 14.030350
_cell_length_c 12.689568
_cell_angle_alpha 90.000000
_cell_angle_beta 90.000000
_cell_angle_gamma 120.000000
_cell_volume 2163.288687
_symmetry_space_group_name_H-M "P 32 2 1"
_symmetry_group_IT_number 154
_symmetry_cell_setting 'hexagonal'
loop_
_space_group_symop_operation_xyz
x,y,z
-y,x-y,2/3+z
-x+y,-x,1/3+z
x-y,-y,1/3-z
-x,-x+y,2/3-z
y,x,-z
loop_
_atom_site_type_symbol
_atom_site_label
_atom_site_fract_x
_atom_site_fract_y
_atom_site_fract_z
Si Si1 0.110197 0.714455 0.018523
Si Si2 0.761284 0.129202 0.285238
Si Si3 0.772407 0.468142 0.150684
Si Si4 0.563700 0.353718 0.473231
Si Si5 0.422614 0.414752 0.113545
Si Si6 0.585134 0.662513 0.402693
Si Si7 0.261815 0.000000 0.666667
Si Si8 0.929387 0.357244 0.528772
O O1 0.214638 0.834651 0.033081
O O2 0.054456 0.678008 0.132947
O O3 0.157393 0.636616 0.975414
O O4 0.001469 0.683395 0.951237
O O5 0.729044 0.188546 0.377516
O O6 0.741294 0.187337 0.185504
O O7 0.884183 0.154834 0.307526
O O8 0.689008 0.339135 0.135752
O O9 0.886109 0.485222 0.195803
O O10 0.729798 0.533090 0.223460
O O11 0.605822 0.461219 0.546972
O O12 0.552571 0.470158 0.126088
O O13 0.374340 0.374340 0.000000
O O14 0.655254 0.655254 0.500000
O O15 0.596399 0.601885 0.298833
O O16 0.309463 0.977441 0.558880
#
# Coordination Sequence:
#
# PCOD9576502 Si02
#       8
#     6   6   6   6   6   6   3   6
#     4  11  24  42  60  91 128 167 215 271 328 381
#     4  10  21  38  63  92 123 167 215 273 315 380
#     4  10  24  38  63  93 132 171 212 257 328 389
#     4  12  22  38  64  95 134 170 205 261 323 399
#     4  11  22  39  61  86 124 168 215 260 309 389
#     4  12  26  41  65  93 132 169 213 267 331 393
#     4  10  20  38  66  88 118 170 222 272 324 372
#     4  11  22  41  60  92 129 167 217 265 317 393
#
# _framework density 20.801662
#
# number of rings (size 3 to 8) (size 9 to 14) (size 15 to 20)
#    0.000    1.067    0.667    7.600    3.733    1.067 
#    0.000    0.000    0.000    6.400    0.000    0.000 
#    0.000    0.000    0.000    0.000    0.000    0.000 
#
# Total GULP energy -251044.796379 kJ/mol
# GULP energy per Si atom -5578.773253 kJ/mol
# Density = 2.075432 g / cm^3
# Si number density = 20.801662 Si / 1000 Ang^3
#
#
#
# Elastic Constant Matrix: (Units=GPa)
#
#
# Indices 1 2 3 4 5 6 
#
# 1 112.6364 48.3107 35.2679 -0.5694 0.0000 0.0000
# 2 48.3107 112.6364 35.2679 0.5694 0.0000 0.0000
# 3 35.2679 35.2679 119.6859 0.0000 0.0000 0.0000
# 4 -0.5694 0.5694 0.0000 23.8349 0.0000 0.0000
# 5 0.0000 0.0000 0.0000 0.0000 23.8349 -0.5694
# 6 0.0000 0.0000 0.0000 0.0000 -0.5694 32.1629
#
#
#
# Elastic Compliance Matrix: (Units=1/GPa)
#
#
# Indices 1 2 3 4 5 6 
#
# 1 0.011344 -0.004209 -0.002102 0.000372 0.000000 0.000000
# 2 -0.004209 0.011344 -0.002102 -0.000372 0.000000 0.000000
# 3 -0.002102 -0.002102 0.009594 0.000000 0.000000 0.000000
# 4 0.000372 -0.000372 0.000000 0.041973 0.000000 0.000000
# 5 0.000000 0.000000 0.000000 0.000000 0.041973 0.000743
# 6 0.000000 0.000000 0.000000 0.000000 0.000743 0.031105
#
#
# Mechanical properties :
#
#
# Convention : Reuss Voigt Hill
#
# Bulk Modulus (GPa) = 64.70826 64.73905 64.72366
# Shear Modulus (GPa) = 29.53151 31.04071 30.28611
#
# Velocity S-wave (km/s) = 3.77194 3.86712 3.81983
# Velocity P-wave (km/s) = 7.08130 7.15046 7.11597
#
# Compressibility (1/GPa) = 0.01545398
#
# Stress axis : x y z
#
# Youngs Moduli (GPa) = 88.15604 88.15604 104.22961
#
# Poissons Ratio (x) = 0.37104 0.21913
# Poissons Ratio (y) = 0.37104 0.21913
# Poissons Ratio (z) = 0.18533 0.18533
#
# Static dielectric constant tensor:
#      x y z
#    x 1.739500 0.000000 0.000000 
#    y 0.000000 1.739500 0.000000 
#    z 0.000000 0.000000 1.881200 
# 
# From -- ./inp_files/1788.got.cif
#   From: 2010.05.17/outbox.cif.g08.bks.cpg/sg154_1_cif.got.tgz:1788.got - 2010.05.20 10:41:43.
