data_PCOD9576449
_publ_section_title
;
Structure prediction by ZEFSAII (Michael W. Deem and Ramdas Pophale) SiO2 
 PCOD9576449
Probable space group: P 32 2 1
;
_chemical_formula_sum "Si O2"
_cell_formula_units_Z 33
_cell_length_a 11.839566
_cell_length_b 11.839566
_cell_length_c 12.559648
_cell_angle_alpha 90.000000
_cell_angle_beta 90.000000
_cell_angle_gamma 120.000000
_cell_volume 1524.683377
_symmetry_space_group_name_H-M "P 32 2 1"
_symmetry_group_IT_number 154
_symmetry_cell_setting 'hexagonal'
loop_
_space_group_symop_operation_xyz
x,y,z
-y,x-y,2/3+z
-x+y,-x,1/3+z
x-y,-y,1/3-z
-x,-x+y,2/3-z
y,x,-z
loop_
_atom_site_type_symbol
_atom_site_label
_atom_site_fract_x
_atom_site_fract_y
_atom_site_fract_z
Si Si1 0.062101 0.294411 0.668461
Si Si2 0.295738 0.369449 0.833046
Si Si3 0.000000 0.841199 0.333334
Si Si4 0.600483 0.490757 0.814694
Si Si5 0.626233 0.344864 0.613197
Si Si6 0.507383 0.165222 0.068237
O O1 0.196900 0.341305 0.732642
O O2 0.082101 0.366452 0.555427
O O3 0.976869 0.137432 0.672260
O O4 0.972373 0.349486 0.720215
O O5 0.449865 0.447966 0.819623
O O6 0.261497 0.451012 0.915234
O O7 0.242381 0.232419 0.894842
O O8 0.595361 0.393726 0.721041
O O9 0.648745 0.455829 0.921853
O O10 0.775904 0.380470 0.634802
O O11 0.600984 0.412101 0.510754
#
# Coordination Sequence:
#
# PCOD9576449 Si02
#       6
#     6   6   3   6   6   6
#     4  11  23  40  66  91 124 171 217 264 313 382
#     4  11  22  39  63  96 126 172 211 262 327 378
#     4  10  22  42  64  86 128 176 224 254 314 398
#     4  11  23  40  63 100 130 164 209 269 321 389
#     4  10  22  37  63  96 128 163 204 264 332 370
#     4  10  19  39  61  89 125 168 213 257 308 391
#
# _framework density 21.643837000000001
#
# number of rings (size 3 to 8) (size 9 to 14) (size 15 to 20)
#    0.000    1.455    1.818    5.455    2.545    1.455 
#    0.000    3.636    0.000    0.000    0.000    0.000 
#    0.000    0.000    0.000    0.000    0.000    0.000 
#
# Total GULP energy -183830.330888 kJ/mol
# GULP energy per Si atom -5570.616088 kJ/mol
# Density = 2.159458 g / cm^3
# Si number density = 21.643837 Si / 1000 Ang^3
#
#
#
# Elastic Constant Matrix: (Units=GPa)
#
#
# Indices 1 2 3 4 5 6 
#
# 1 94.1132 26.9584 -1.9416 -6.7301 0.0000 0.0000
# 2 26.9584 94.1132 -1.9416 6.7301 0.0000 0.0000
# 3 -1.9416 -1.9416 19.4734 0.0000 0.0000 0.0000
# 4 -6.7301 6.7301 0.0000 33.4633 0.0000 0.0000
# 5 0.0000 0.0000 0.0000 0.0000 33.4633 -6.7301
# 6 0.0000 0.0000 0.0000 0.0000 -6.7301 33.5774
#
#
#
# Elastic Compliance Matrix: (Units=1/GPa)
#
#
# Indices 1 2 3 4 5 6 
#
# 1 0.011901 -0.003615 0.000826 0.003121 0.000000 0.000000
# 2 -0.003615 0.011901 0.000826 -0.003121 0.000000 0.000000
# 3 0.000826 0.000826 0.051517 0.000000 0.000000 0.000000
# 4 0.003121 -0.003121 0.000000 0.031139 0.000000 0.000000
# 5 0.000000 0.000000 0.000000 0.000000 0.031139 0.006241
# 6 0.000000 0.000000 0.000000 0.000000 0.006241 0.031033
#
#
# Mechanical properties :
#
#
# Convention : Reuss Voigt Hill
#
# Bulk Modulus (GPa) = 14.00686 28.20557 21.10621
# Shear Modulus (GPa) = 25.46432 32.40913 28.93672
#
# Velocity S-wave (km/s) = 3.43376 3.87380 3.66040
# Velocity P-wave (km/s) = 4.71238 5.75052 5.25714
#
# Compressibility (1/GPa) = 0.07139360
#
# Stress axis : x y z
#
# Youngs Moduli (GPa) = 84.02467 84.02467 19.41116
#
# Poissons Ratio (x) = 0.30377 -0.01604
# Poissons Ratio (y) = 0.30377 -0.01604
# Poissons Ratio (z) = -0.06942 -0.06942
#
# Static dielectric constant tensor:
#      x y z
#    x 1.866060 0.000000 0.000000 
#    y 0.000000 1.866060 0.000000 
#    z 0.000000 0.000000 1.853520 
# 
# From -- ./inp_files/1990.got.cif
#   From: 2010.05.17/outbox.cif.g08.bks.cpg/sg154_1_cif.got.tgz:1990.got - 2010.05.20 10:41:43.
