data_PCOD9576702
_publ_section_title
;
Structure prediction by ZEFSAII (Michael W. Deem and Ramdas Pophale) SiO2 
 PCOD9576702
Probable space group: P 32 2 1
;
_chemical_formula_sum "Si O2"
_cell_formula_units_Z 18
_cell_length_a 9.481851
_cell_length_b 9.481851
_cell_length_c 9.487660
_cell_angle_alpha 90.000000
_cell_angle_beta 90.000000
_cell_angle_gamma 120.000000
_cell_volume 738.713435
_symmetry_space_group_name_H-M "P 32 2 1"
_symmetry_group_IT_number 154
_symmetry_cell_setting 'hexagonal'
loop_
_space_group_symop_operation_xyz
x,y,z
-y,x-y,2/3+z
-x+y,-x,1/3+z
x-y,-y,1/3-z
-x,-x+y,2/3-z
y,x,-z
loop_
_atom_site_type_symbol
_atom_site_label
_atom_site_fract_x
_atom_site_fract_y
_atom_site_fract_z
Si Si1 0.988449 0.143238 0.055618
Si Si2 0.876681 0.350271 0.454502
Si Si3 0.368532 0.371103 0.671372
O O1 0.023150 0.302257 0.133808
O O2 0.930435 0.000000 0.166667
O O3 0.824252 0.077760 0.966519
O O4 0.151023 0.151023 0.000000
O O5 0.718549 0.186820 0.393556
O O6 0.000000 0.465318 0.333334
O O7 0.873918 0.466111 0.576454
O O8 0.392660 0.392660 0.500000
#
# Coordination Sequence:
#
# PCOD9576702 Si02
#       3
#     6   6   6
#     4  11  20  45  80 103 139 200 260 301 361 461
#     4  12  25  48  78 113 153 198 256 317 386 454
#     4  11  25  49  74 110 156 201 247 320 383 456
#
# _framework density 24.366686000000001
#
# number of rings (size 3 to 8) (size 9 to 14) (size 15 to 20)
#    0.000    0.667   10.000    0.000    0.000    5.333 
#    6.000    0.000    0.000    0.000    0.000    0.000 
#    0.000    0.000    0.000    0.000    0.000    0.000 
#
# Total GULP energy -100361.073764 kJ/mol
# GULP energy per Si atom -5575.615209 kJ/mol
# Density = 2.431123 g / cm^3
# Si number density = 24.366686 Si / 1000 Ang^3
#
#
#
# Elastic Constant Matrix: (Units=GPa)
#
#
# Indices 1 2 3 4 5 6 
#
# 1 48.6661 45.0879 45.6216 20.1050 -0.0001 0.0000
# 2 45.0879 48.6661 45.6216 -20.1050 0.0001 0.0000
# 3 45.6216 45.6216 136.0657 0.0000 0.0000 0.0000
# 4 20.1050 -20.1050 0.0000 11.0817 0.0000 0.0001
# 5 -0.0001 0.0001 0.0000 0.0000 11.0817 20.1050
# 6 0.0000 0.0000 0.0000 0.0001 20.1050 1.7891
#
#
#
# Elastic Compliance Matrix: (Units=1/GPa)
#
#
# Indices 1 2 3 4 5 6 
#
# 1 0.000709 0.015124 -0.005309 0.026152 0.000000 0.000000
# 2 0.015124 0.000709 -0.005309 -0.026152 0.000000 0.000000
# 3 -0.005309 -0.005309 0.010909 0.000000 0.000000 0.000000
# 4 0.026152 -0.026152 0.000000 -0.004655 0.000000 0.000000
# 5 0.000000 0.000000 0.000000 0.000000 -0.004655 0.052305
# 6 0.000000 0.000000 0.000000 0.000000 0.052305 -0.028830
#
#
# Mechanical properties :
#
#
# Convention : Reuss Voigt Hill
#
# Bulk Modulus (GPa) = 46.85983 56.22892 51.54438
# Shear Modulus (GPa) = -180.42542 11.26164 -84.58189
#
# Velocity S-wave (km/s) = -8.61433 2.15216 -5.89809
# Velocity P-wave (km/s) = 8.92577 5.41313 5.01834
#
# Compressibility (1/GPa) = 0.02134024
#
# Stress axis : x y z
#
# Youngs Moduli (GPa) = 1410.85206 1410.85213 91.66589
#
# Poissons Ratio (x) = -21.33740 0.48661
# Poissons Ratio (y) = -21.33739 0.48661
# Poissons Ratio (z) = 7.48953 7.48953
#
# Static dielectric constant tensor:
#      x y z
#    x 2.174990 0.000000 0.000000 
#    y 0.000000 2.174990 0.000000 
#    z 0.000000 0.000000 2.057560 
# 
# From -- ./inp_files/770.got.cif
#   From: 2010.05.17/outbox.cif.g08.bks.cpg/sg154_1_cif.got.tgz:770.got - 2010.05.20 10:41:43.
