data_PCOD9576801
_publ_section_title
;
Structure prediction by ZEFSAII (Michael W. Deem and Ramdas Pophale) SiO2 
 PCOD9576801
Probable space group: R 3 2
;
_chemical_formula_sum "Si O2"
_cell_formula_units_Z 105
_cell_length_a 20.434877
_cell_length_b 20.434877
_cell_length_c 15.946059
_cell_angle_alpha 90.000000
_cell_angle_beta 90.000000
_cell_angle_gamma 120.000000
_cell_volume 5766.709235
_symmetry_space_group_name_H-M "R 3 2"
_symmetry_group_IT_number 155
_symmetry_cell_setting 'hexagonal'
loop_
_space_group_symop_operation_xyz
x,y,z
-y,x-y,z
-x+y,-x,z
x-y,-y,-z
-x,-x+y,-z
y,x,-z
2/3+x,1/3+y,1/3+z
2/3-y,1/3+x-y,1/3+z
2/3-x+y,1/3-x,1/3+z
2/3+x-y,1/3-y,1/3-z
2/3-x,1/3-x+y,1/3-z
2/3+y,1/3+x,1/3-z
1/3+x,2/3+y,2/3+z
1/3-y,2/3+x-y,2/3+z
1/3-x+y,2/3-x,2/3+z
1/3+x-y,2/3-y,2/3-z
1/3-x,2/3-x+y,2/3-z
1/3+y,2/3+x,2/3-z
loop_
_atom_site_type_symbol
_atom_site_label
_atom_site_fract_x
_atom_site_fract_y
_atom_site_fract_z
Si Si1 0.400920 0.559630 0.302267
Si Si2 0.333334 0.666668 0.063044
Si Si3 0.557681 0.666667 0.666667
Si Si4 0.426495 0.162635 0.501294
Si Si5 0.416862 0.922171 0.152828
Si Si6 0.910295 0.755295 0.676040
Si Si7 0.914259 0.205429 0.248295
O O1 0.374284 0.621794 0.304894
O O2 0.436200 0.569359 0.210339
O O3 0.327901 0.478059 0.314260
O O4 0.464758 0.566832 0.367610
O O5 0.333334 0.666668 0.166667
O O6 0.534094 0.699856 0.587235
O O7 0.638976 0.734307 0.696498
O O8 0.340147 0.140046 0.486446
O O9 0.450576 0.229725 0.568075
O O10 0.425761 0.092254 0.548163
O O11 0.333334 0.905851 0.166667
O O12 0.427005 0.907418 0.056874
O O13 0.885746 0.666667 0.666667
O O14 0.862197 0.195531 0.166667
#
# Coordination Sequence:
#
# PCOD9576801 Si02
#       7
#    18   6   9  18  18  18  18
#     4  12  22  38  57  82 124 164 199 243 306 369
#     4  12  24  36  54  90 132 169 194 223 288 411
#     4  10  18  34  56  86 108 144 188 242 310 332
#     4  10  20  33  55  84 117 145 189 246 295 353
#     4  11  19  32  57  86 121 151 188 234 297 369
#     4  10  23  36  53  83 117 160 201 241 297 370
#     4  10  21  34  56  84 113 144 195 252 299 349
#
# _framework density 18.207958000000001
#
# number of rings (size 3 to 8) (size 9 to 14) (size 15 to 20)
#    0.000    1.371    1.714    6.686    3.600    0.000 
#    0.000    3.429    0.000    3.086    0.000    0.000 
#    0.000    0.000    0.000    0.000    0.000    0.000 
#
# Total GULP energy -195111.934768 kJ/mol
# GULP energy per Si atom -5574.626708 kJ/mol
# Density = 1.816652 g / cm^3
# Si number density = 18.207958 Si / 1000 Ang^3
#
#
#
# Elastic Constant Matrix: (Units=GPa)
#
#
# Indices 1 2 3 4 5 6 
#
# 1 37.7989 27.8767 13.3915 19.3967 -0.0001 0.0001
# 2 27.8767 37.7981 13.3912 -19.3969 -0.0002 0.0000
# 3 13.3915 13.3912 89.7864 -0.0003 -0.0001 0.0000
# 4 19.3967 -19.3969 -0.0003 -7.2839 0.0003 -0.0003
# 5 -0.0001 -0.0002 -0.0001 0.0003 -7.2831 19.3957
# 6 0.0001 0.0000 0.0000 -0.0003 19.3957 4.9613
#
#
#
# Elastic Compliance Matrix: (Units=1/GPa)
#
#
# Indices 1 2 3 4 5 6 
#
# 1 0.012522 0.003690 -0.002418 0.023519 0.000000 0.000000
# 2 0.003690 0.012522 -0.002418 -0.023519 0.000000 0.000000
# 3 -0.002418 -0.002418 0.011859 0.000000 0.000000 0.000000
# 4 0.023519 -0.023519 0.000000 -0.012030 0.000000 0.000000
# 5 0.000000 0.000000 0.000000 0.000000 -0.012032 0.047040
# 6 0.000000 0.000000 0.000000 0.000000 0.047040 0.017663
#
#
# Mechanical properties :
#
#
# Convention : Reuss Voigt Hill
#
# Bulk Modulus (GPa) = 28.89197 30.52249 29.70723
# Shear Modulus (GPa) = 112.78453 5.46048 59.12250
#
# Velocity S-wave (km/s) = 7.87889 1.73363 5.70449
# Velocity P-wave (km/s) = 9.93335 4.56146 7.72911
#
# Compressibility (1/GPa) = 0.03461170
#
# Stress axis : x y z
#
# Youngs Moduli (GPa) = 79.85874 79.85868 84.32536
#
# Poissons Ratio (x) = -0.29471 0.20390
# Poissons Ratio (y) = -0.29471 0.20391
# Poissons Ratio (z) = 0.19310 0.19311
#
# Static dielectric constant tensor:
#      x y z
#    x 1.613960 0.000000 0.000000 
#    y 0.000000 1.613960 0.000000 
#    z 0.000000 0.000000 1.708220 
# 
# From -- ./inp_files/5175.got.cif
#   From: 2010.05.17/outbox.cif.g08.bks.cpg/sg155_3_cif.got.tgz:5175.got - 2010.05.20 10:44:35.
