data_PCOD9576775
_publ_section_title
;
Structure prediction by ZEFSAII (Michael W. Deem and Ramdas Pophale) SiO2 
 PCOD9576775
Probable space group: R 3 2
;
_chemical_formula_sum "Si O2"
_cell_formula_units_Z 63
_cell_length_a 24.170542
_cell_length_b 24.170542
_cell_length_c 7.723234
_cell_angle_alpha 90.000000
_cell_angle_beta 90.000000
_cell_angle_gamma 120.000000
_cell_volume 3907.532540
_symmetry_space_group_name_H-M "R 3 2"
_symmetry_group_IT_number 155
_symmetry_cell_setting 'hexagonal'
loop_
_space_group_symop_operation_xyz
x,y,z
-y,x-y,z
-x+y,-x,z
x-y,-y,-z
-x,-x+y,-z
y,x,-z
2/3+x,1/3+y,1/3+z
2/3-y,1/3+x-y,1/3+z
2/3-x+y,1/3-x,1/3+z
2/3+x-y,1/3-y,1/3-z
2/3-x,1/3-x+y,1/3-z
2/3+y,1/3+x,1/3-z
1/3+x,2/3+y,2/3+z
1/3-y,2/3+x-y,2/3+z
1/3-x+y,2/3-x,2/3+z
1/3+x-y,2/3-y,2/3-z
1/3-x,2/3-x+y,2/3-z
1/3+y,2/3+x,2/3-z
loop_
_atom_site_type_symbol
_atom_site_label
_atom_site_fract_x
_atom_site_fract_y
_atom_site_fract_z
Si Si1 0.731715 0.163268 0.761156
Si Si2 0.440415 0.401725 0.266090
Si Si3 0.844996 0.178330 0.166667
Si Si4 0.204598 0.924319 0.487092
O O1 0.666667 0.155709 0.833334
O O2 0.745071 0.112375 0.866384
O O3 0.724515 0.141389 0.563228
O O4 0.796428 0.230191 0.780807
O O5 0.386678 0.333334 0.333334
O O6 0.492391 0.443254 0.412506
O O7 0.893710 0.203814 0.326154
O O8 0.230482 0.897149 0.333334
O O9 0.245714 0.000000 0.500000
#
# Coordination Sequence:
#
# PCOD9576775 Si02
#       4
#    18  18   9  18
#     4  10  20  34  51  79 117 139 185 230 279 347
#     4  10  18  29  50  80 113 147 169 217 286 348
#     4  10  20  36  52  78 114 144 194 226 272 350
#     4  11  23  39  55  82 111 152 198 238 282 333
#
# _framework density 16.122706000000001
#
# number of rings (size 3 to 8) (size 9 to 14) (size 15 to 20)
#    0.000    1.714    5.714    3.429    8.000    0.000 
#    0.000    0.000    0.000    0.571    0.000    0.000 
#    0.000    0.000    0.000    0.000    0.000    0.000 
#
# Total GULP energy -117066.126066 kJ/mol
# GULP energy per Si atom -5574.577432 kJ/mol
# Density = 1.608601 g / cm^3
# Si number density = 16.122706 Si / 1000 Ang^3
#
#
#
# Elastic Constant Matrix: (Units=GPa)
#
#
# Indices 1 2 3 4 5 6 
#
# 1 86.3476 32.1454 36.7419 0.6326 -0.0264 -0.0074
# 2 32.1454 86.3655 36.7636 -0.6385 0.0059 0.0036
# 3 36.7419 36.7636 132.2625 -0.0240 -0.0256 -0.0205
# 4 0.6326 -0.6385 -0.0240 12.5139 -0.0141 -0.0045
# 5 -0.0264 0.0059 -0.0256 -0.0141 12.4746 0.6291
# 6 -0.0074 0.0036 -0.0205 -0.0045 0.6291 27.1107
#
#
#
# Elastic Compliance Matrix: (Units=1/GPa)
#
#
# Indices 1 2 3 4 5 6 
#
# 1 0.014333 -0.004136 -0.002832 -0.000941 0.000025 0.000002
# 2 -0.004136 0.014332 -0.002834 0.000935 -0.000020 -0.000005
# 3 -0.002832 -0.002834 0.009135 0.000016 0.000014 0.000006
# 4 -0.000941 0.000935 0.000016 0.080007 0.000087 0.000011
# 5 0.000025 -0.000020 0.000014 0.000087 0.080257 -0.001862
# 6 0.000002 -0.000005 0.000006 0.000011 -0.001862 0.036929
#
#
# Mechanical properties :
#
#
# Convention : Reuss Voigt Hill
#
# Bulk Modulus (GPa) = 54.96167 57.36416 56.16292
# Shear Modulus (GPa) = 19.18186 23.70814 21.44500
#
# Velocity S-wave (km/s) = 3.45301 3.83885 3.65103
# Velocity P-wave (km/s) = 7.07540 7.43680 7.25835
#
# Compressibility (1/GPa) = 0.01819450
#
# Stress axis : x y z
#
# Youngs Moduli (GPa) = 69.76966 69.77563 109.46508
#
# Poissons Ratio (x) = 0.28860 0.31002
# Poissons Ratio (y) = 0.28858 0.31027
# Poissons Ratio (z) = 0.19759 0.19778
#
# Static dielectric constant tensor:
#      x y z
#    x 1.543210 0.000000 -0.000010 
#    y 0.000000 1.543210 0.000000 
#    z -0.000010 0.000000 1.598620 
# 
# From -- ./inp_files/2337.got.cif
#   From: 2010.05.17/outbox.cif.g08.bks.cpg/sg155_2_cif.got.tgz:2337.got - 2010.05.20 10:44:35.
