data_PCOD9576265
_publ_section_title
;
Structure prediction by ZEFSAII (Michael W. Deem and Ramdas Pophale) SiO2 
 PCOD9576265
Probable space group: P 32 1 2
;
_chemical_formula_sum "Si O2"
_cell_formula_units_Z 36
_cell_length_a 8.869277
_cell_length_b 8.869277
_cell_length_c 26.696430
_cell_angle_alpha 90.000000
_cell_angle_beta 90.000000
_cell_angle_gamma 120.000000
_cell_volume 1818.696613
_symmetry_space_group_name_H-M "P 32 1 2"
_symmetry_group_IT_number 153
_symmetry_cell_setting 'hexagonal'
loop_
_space_group_symop_operation_xyz
x,y,z
-y,x-y,2/3+z
-x+y,-x,1/3+z
-y,-x,1/3-z
-x+y,y,2/3-z
x,x-y,-z
loop_
_atom_site_type_symbol
_atom_site_label
_atom_site_fract_x
_atom_site_fract_y
_atom_site_fract_z
Si Si1 0.309588 0.793494 0.781605
Si Si2 0.691988 0.623638 0.401072
Si Si3 0.554780 0.422834 0.612173
Si Si4 0.155622 0.736292 0.110378
Si Si5 0.698846 0.602347 0.882490
Si Si6 0.512213 0.079181 0.958828
O O1 0.422207 0.844415 0.833334
O O2 0.300398 0.613543 0.766218
O O3 0.108326 0.747519 0.786117
O O4 0.410844 0.933206 0.738951
O O5 0.707794 0.808116 0.409890
O O6 0.577313 0.486198 0.444359
O O7 0.581985 0.540225 0.350165
O O8 0.873382 0.628240 0.396798
O O9 0.520871 0.479130 0.666667
O O10 0.579248 0.561594 0.569953
O O11 0.413869 0.228080 0.594154
O O12 0.740097 0.432725 0.619506
O O13 0.191126 0.808875 0.166667
O O14 0.804151 0.608301 0.833334
#
# Coordination Sequence:
#
# PCOD9576265 Si02
#       6
#     6   6   6   6   6   6
#     4  10  22  37  59  95 121 162 208 251 319 381
#     4   9  19  38  59  87 116 160 206 258 307 374
#     4  11  21  39  61  94 121 163 215 259 317 389
#     4  10  22  38  60  91 121 160 214 253 313 376
#     4  10  19  37  62  85 126 163 205 262 308 378
#     4  10  20  39  60  88 121 156 210 249 322 374
#
# _framework density 19.794394
#
# number of rings (size 3 to 8) (size 9 to 14) (size 15 to 20)
#    0.000    2.000    3.333    3.000    2.333    6.000 
#    0.000    4.167    0.000    0.000    0.000    0.000 
#    0.000    0.000    0.000    0.000    0.000    0.000 
#
# Total GULP energy -200515.493608 kJ/mol
# GULP energy per Si atom -5569.874822 kJ/mol
# Density = 1.974934 g / cm^3
# Si number density = 19.794394 Si / 1000 Ang^3
#
#
#
# Elastic Constant Matrix: (Units=GPa)
#
#
# Indices 1 2 3 4 5 6 
#
# 1 67.7270 22.0634 49.5565 -0.0002 2.0070 0.0000
# 2 22.0634 67.7270 49.5565 0.0002 -2.0070 0.0000
# 3 49.5565 49.5565 102.0559 0.0000 0.0000 0.0000
# 4 -0.0002 0.0002 0.0000 22.3562 0.0000 -2.0070
# 5 2.0070 -2.0070 0.0000 0.0000 22.3562 -0.0002
# 6 0.0000 0.0000 0.0000 -2.0070 -0.0002 22.8318
#
#
#
# Elastic Compliance Matrix: (Units=1/GPa)
#
#
# Indices 1 2 3 4 5 6 
#
# 1 0.023038 0.000964 -0.011655 0.000000 -0.001982 0.000000
# 2 0.000964 0.023038 -0.011655 0.000000 0.001982 0.000000
# 3 -0.011655 -0.011655 0.021117 0.000000 0.000000 0.000000
# 4 0.000000 0.000000 0.000000 0.045086 0.000000 0.003963
# 5 -0.001982 0.001982 0.000000 0.000000 0.045086 0.000000
# 6 0.000000 0.000000 0.000000 0.003963 0.000000 0.044147
#
#
# Mechanical properties :
#
#
# Convention : Reuss Voigt Hill
#
# Bulk Modulus (GPa) = 44.44099 53.31805 48.87952
# Shear Modulus (GPa) = 19.70800 21.26442 20.48621
#
# Velocity S-wave (km/s) = 3.15879 3.28115 3.22055
# Velocity P-wave (km/s) = 5.98364 6.43032 6.21100
#
# Compressibility (1/GPa) = 0.02250175
#
# Stress axis : x y z
#
# Youngs Moduli (GPa) = 43.40691 43.40691 47.35417
#
# Poissons Ratio (x) = -0.04186 0.55191
# Poissons Ratio (y) = -0.04186 0.55191
# Poissons Ratio (z) = 0.50591 0.50591
#
# Static dielectric constant tensor:
#      x y z
#    x 1.714590 0.000000 0.000000 
#    y 0.000000 1.714590 0.000000 
#    z 0.000000 0.000000 1.765880 
# 
# From -- ./inp_files/4721.got.cif
#   From: 2010.05.17/outbox.cif.g08.bks.cpg/sg153_3_cif.got.tgz:4721.got - 2010.05.20 10:38:56.
