data_PCOD9576720
_publ_section_title
;
Structure prediction by ZEFSAII (Michael W. Deem and Ramdas Pophale) SiO2 
 PCOD9576720
Probable space group: P 32 2 1
;
_chemical_formula_sum "Si O2"
_cell_formula_units_Z 45
_cell_length_a 11.907098
_cell_length_b 11.907098
_cell_length_c 16.767248
_cell_angle_alpha 90.000000
_cell_angle_beta 90.000000
_cell_angle_gamma 120.000000
_cell_volume 2058.753145
_symmetry_space_group_name_H-M "P 32 2 1"
_symmetry_group_IT_number 154
_symmetry_cell_setting 'hexagonal'
loop_
_space_group_symop_operation_xyz
x,y,z
-y,x-y,2/3+z
-x+y,-x,1/3+z
x-y,-y,1/3-z
-x,-x+y,2/3-z
y,x,-z
loop_
_atom_site_type_symbol
_atom_site_label
_atom_site_fract_x
_atom_site_fract_y
_atom_site_fract_z
Si Si1 0.738596 0.664343 0.110023
Si Si2 0.491094 0.491094 0.000000
Si Si3 0.555635 0.769157 0.724621
Si Si4 0.504626 0.831870 0.419498
Si Si5 0.690692 0.560732 0.447599
Si Si6 0.332668 0.448968 0.299429
Si Si7 0.339387 0.202407 0.542074
Si Si8 0.473436 0.735002 0.257789
O O1 0.605060 0.550805 0.068029
O O2 0.762012 0.637600 0.201384
O O3 0.855269 0.659018 0.067035
O O4 0.741509 0.798012 0.093681
O O5 0.355698 0.463275 0.040251
O O6 0.411676 0.650395 0.745467
O O7 0.607529 0.741545 0.641702
O O8 0.553627 0.800011 0.499502
O O9 0.545869 0.779811 0.342390
O O10 0.557315 0.981771 0.402069
O O11 0.633683 0.633683 0.500000
O O12 0.582405 0.411024 0.431863
O O13 0.310549 0.430436 0.393740
O O14 0.362369 0.588244 0.269403
O O15 0.253762 0.253762 0.500000
O O16 0.430576 0.184389 0.478956
#
# Coordination Sequence:
#
# PCOD9576720 Si02
#       8
#     6   3   6   6   6   6   6   6
#     4  12  27  45  76 106 143 204 250 307 378 455
#     4  12  26  52  78 110 160 192 260 324 392 470
#     4  11  27  44  74 109 144 196 243 316 387 449
#     4  11  24  42  69 105 145 188 239 299 378 439
#     4  11  26  44  66 105 150 185 239 303 380 451
#     4  12  25  45  73 108 149 190 251 316 376 452
#     4  12  25  46  70 105 149 201 254 303 369 459
#     4  11  24  37  70 103 144 186 236 304 380 440
#
# _framework density 21.857890999999999
#
# number of rings (size 3 to 8) (size 9 to 14) (size 15 to 20)
#    0.000    0.533    2.667    5.200   14.933    0.000 
#    0.000    0.667    2.933    0.000    0.000    0.000 
#    0.000    0.000    0.000    0.000    0.000    0.000 
#
# Total GULP energy -251509.493744 kJ/mol
# GULP energy per Si atom -5589.099861 kJ/mol
# Density = 2.180814 g / cm^3
# Si number density = 21.857891 Si / 1000 Ang^3
#
#
#
# Elastic Constant Matrix: (Units=GPa)
#
#
# Indices 1 2 3 4 5 6 
#
# 1 84.9555 37.2678 29.2805 4.4247 0.0000 0.0000
# 2 37.2678 84.9555 29.2805 -4.4247 0.0000 0.0000
# 3 29.2805 29.2805 152.0479 0.0000 0.0000 0.0000
# 4 4.4247 -4.4247 0.0000 34.3448 0.0000 0.0000
# 5 0.0000 0.0000 0.0000 0.0000 34.3448 4.4247
# 6 0.0000 0.0000 0.0000 0.0000 4.4247 23.8438
#
#
#
# Elastic Compliance Matrix: (Units=1/GPa)
#
#
# Indices 1 2 3 4 5 6 
#
# 1 0.015248 -0.006235 -0.001736 -0.002768 0.000000 0.000000
# 2 -0.006235 0.015248 -0.001736 0.002768 0.000000 0.000000
# 3 -0.001736 -0.001736 0.007245 0.000000 0.000000 0.000000
# 4 -0.002768 0.002768 0.000000 0.029830 0.000000 0.000000
# 5 0.000000 0.000000 0.000000 0.000000 0.029830 -0.005535
# 6 0.000000 0.000000 0.000000 0.000000 -0.005535 0.042967
#
#
# Mechanical properties :
#
#
# Convention : Reuss Voigt Hill
#
# Bulk Modulus (GPa) = 54.55777 57.06851 55.81314
# Shear Modulus (GPa) = 30.14029 33.58201 31.86115
#
# Velocity S-wave (km/s) = 3.71741 3.92392 3.82206
# Velocity P-wave (km/s) = 6.59090 6.83338 6.71323
#
# Compressibility (1/GPa) = 0.01832919
#
# Stress axis : x y z
#
# Youngs Moduli (GPa) = 65.58070 65.58070 138.01864
#
# Poissons Ratio (x) = 0.40890 0.23957
# Poissons Ratio (y) = 0.40890 0.23957
# Poissons Ratio (z) = 0.11383 0.11383
#
# Static dielectric constant tensor:
#      x y z
#    x 1.801960 0.000000 0.000000 
#    y 0.000000 1.801960 0.000000 
#    z 0.000000 0.000000 1.908960 
# 
# From -- ./inp_files/2510.got.cif
#   From: 2010.05.17/outbox.cif.g08.bks.cpg/sg154_2_cif.got.tgz:2510.got - 2010.05.20 10:41:43.
