data_PCOD9576890
_publ_section_title
;
Structure prediction by ZEFSAII (Michael W. Deem and Ramdas Pophale) SiO2 
 PCOD9576890
Probable space group: R 3 2
;
_chemical_formula_sum "Si O2"
_cell_formula_units_Z 126
_cell_length_a 17.932394
_cell_length_b 17.932394
_cell_length_c 25.386144
_cell_angle_alpha 90.000000
_cell_angle_beta 90.000000
_cell_angle_gamma 120.000000
_cell_volume 7069.747705
_symmetry_space_group_name_H-M "R 3 2"
_symmetry_group_IT_number 155
_symmetry_cell_setting 'hexagonal'
loop_
_space_group_symop_operation_xyz
x,y,z
-y,x-y,z
-x+y,-x,z
x-y,-y,-z
-x,-x+y,-z
y,x,-z
2/3+x,1/3+y,1/3+z
2/3-y,1/3+x-y,1/3+z
2/3-x+y,1/3-x,1/3+z
2/3+x-y,1/3-y,1/3-z
2/3-x,1/3-x+y,1/3-z
2/3+y,1/3+x,1/3-z
1/3+x,2/3+y,2/3+z
1/3-y,2/3+x-y,2/3+z
1/3-x+y,2/3-x,2/3+z
1/3+x-y,2/3-y,2/3-z
1/3-x,2/3-x+y,2/3-z
1/3+y,2/3+x,2/3-z
loop_
_atom_site_type_symbol
_atom_site_label
_atom_site_fract_x
_atom_site_fract_y
_atom_site_fract_z
Si Si1 0.580726 0.660922 0.865587
Si Si2 0.427403 0.323793 0.396425
Si Si3 0.087827 0.257718 0.614676
Si Si4 0.057036 0.226027 0.094536
Si Si5 0.624486 0.780028 0.276892
Si Si6 0.979007 0.459744 0.393499
Si Si7 0.657656 0.101679 0.770532
O O1 0.666667 0.682483 0.833334
O O2 0.509329 0.641262 0.821251
O O3 0.553681 0.581411 0.904058
O O4 0.614935 0.746139 0.900792
O O5 0.425068 0.333334 0.333334
O O6 0.465587 0.260148 0.409147
O O7 0.483635 0.422346 0.413918
O O8 0.332547 0.281945 0.421631
O O9 0.114896 0.336861 0.574715
O O10 0.128847 0.307784 0.669893
O O11 0.132728 0.207245 0.591312
O O12 0.985675 0.202364 0.617660
O O13 0.971501 0.201971 0.060529
O O14 0.666667 0.813515 0.333334
O O15 0.591579 0.840543 0.253773
O O16 0.666667 0.113964 0.833334
#
# Coordination Sequence:
#
# PCOD9576890 Si02
#       7
#    18  18  18  18  18  18  18
#     4  10  20  34  61  92 119 151 211 265 302 361
#     4  11  22  38  62  87 132 165 203 266 318 384
#     4  11  20  39  62  87 124 159 208 273 298 381
#     4  10  20  36  60  91 122 157 208 264 313 358
#     4  12  21  37  66  92 112 163 216 256 311 380
#     4  11  20  37  64  93 118 170 211 256 323 373
#     4  11  26  39  59  90 130 164 203 265 329 373
#
# _framework density 17.822419
#
# number of rings (size 3 to 8) (size 9 to 14) (size 15 to 20)
#    0.000    1.143    7.143    2.571    0.000    1.714 
#    1.714    0.000    0.000    0.000    0.000    0.000 
#    0.000    0.000    0.000    0.000    0.000    0.000 
#
# Total GULP energy -234094.587636 kJ/mol
# GULP energy per Si atom -5573.680658 kJ/mol
# Density = 1.778185 g / cm^3
# Si number density = 17.822419 Si / 1000 Ang^3
#
#
#
# Elastic Constant Matrix: (Units=GPa)
#
#
# Indices 1 2 3 4 5 6 
#
# 1 102.6964 37.8193 36.3614 -3.0565 -0.0003 0.0000
# 2 37.8193 102.6964 36.3614 3.0565 0.0003 0.0000
# 3 36.3614 36.3614 120.0120 0.0000 0.0000 0.0000
# 4 -3.0565 3.0565 0.0000 19.6501 0.0000 0.0003
# 5 -0.0003 0.0003 0.0000 0.0000 19.6501 -3.0565
# 6 0.0000 0.0000 0.0000 0.0003 -3.0565 32.4386
#
#
#
# Elastic Compliance Matrix: (Units=1/GPa)
#
#
# Indices 1 2 3 4 5 6 
#
# 1 0.012042 -0.003601 -0.002557 0.002433 0.000000 0.000000
# 2 -0.003601 0.012042 -0.002557 -0.002433 0.000000 0.000000
# 3 -0.002557 -0.002557 0.009882 0.000000 0.000000 0.000000
# 4 0.002433 -0.002433 0.000000 0.051647 0.000000 0.000000
# 5 0.000000 0.000000 0.000000 0.000000 0.051647 0.004866
# 6 0.000000 0.000000 0.000000 0.000000 0.004866 0.031286
#
#
# Mechanical properties :
#
#
# Convention : Reuss Voigt Hill
#
# Bulk Modulus (GPa) = 60.48330 60.72100 60.60215
# Shear Modulus (GPa) = 26.11124 28.67194 27.39159
#
# Velocity S-wave (km/s) = 3.83179 4.01528 3.92461
# Velocity P-wave (km/s) = 7.32032 7.45927 7.39012
#
# Compressibility (1/GPa) = 0.01653349
#
# Stress axis : x y z
#
# Youngs Moduli (GPa) = 83.04574 83.04574 101.19343
#
# Poissons Ratio (x) = 0.29909 0.25877
# Poissons Ratio (y) = 0.29909 0.25877
# Poissons Ratio (z) = 0.21236 0.21236
#
# Static dielectric constant tensor:
#      x y z
#    x 1.627310 0.000000 0.000000 
#    y 0.000000 1.627310 0.000000 
#    z 0.000000 0.000000 1.650610 
# 
# From -- ./inp_files/7526.got.cif
#   From: 2010.05.17/outbox.cif.g08.bks.cpg/sg155_4_cif.got.tgz:7526.got - 2010.05.20 10:44:35.
