data_PCOD9576599
_publ_section_title
;
Structure prediction by ZEFSAII (Michael W. Deem and Ramdas Pophale) SiO2 
 PCOD9576599
Probable space group: P 32 2 1
;
_chemical_formula_sum "Si O2"
_cell_formula_units_Z 30
_cell_length_a 13.420702
_cell_length_b 13.420702
_cell_length_c 9.312075
_cell_angle_alpha 90.000000
_cell_angle_beta 90.000000
_cell_angle_gamma 120.000000
_cell_volume 1452.538202
_symmetry_space_group_name_H-M "P 32 2 1"
_symmetry_group_IT_number 154
_symmetry_cell_setting 'hexagonal'
loop_
_space_group_symop_operation_xyz
x,y,z
-y,x-y,2/3+z
-x+y,-x,1/3+z
x-y,-y,1/3-z
-x,-x+y,2/3-z
y,x,-z
loop_
_atom_site_type_symbol
_atom_site_label
_atom_site_fract_x
_atom_site_fract_y
_atom_site_fract_z
Si Si1 0.054334 0.185469 0.176557
Si Si2 0.879850 0.443543 0.414178
Si Si3 0.122610 0.895468 0.076758
Si Si4 0.759345 0.194402 0.514187
Si Si5 0.964420 0.606910 0.667699
O O1 0.146564 0.142741 0.173639
O O2 0.121652 0.317769 0.125108
O O3 0.000000 0.172783 0.333334
O O4 0.952107 0.113630 0.069303
O O5 0.790752 0.309182 0.427365
O O6 0.827739 0.509459 0.322169
O O7 0.909608 0.489482 0.577633
O O8 0.000000 0.476644 0.333334
O O9 0.119430 0.778789 0.030400
O O10 0.223965 0.000000 0.166667
O O11 0.688684 0.083468 0.414322
O O12 0.000000 0.611305 0.833334
#
# Coordination Sequence:
#
# PCOD9576599 Si02
#       5
#     6   6   6   6   6
#     4  11  20  32  52  82 117 152 186 228 288 357
#     4  10  22  42  63  85 116 155 199 249 299 349
#     4  11  20  32  53  84 121 155 186 226 283 355
#     4  10  22  40  61  84 114 155 200 246 299 351
#     4  10  22  40  61  87 120 157 199 247 298 354
#
# _framework density 20.653503000000001
#
# number of rings (size 3 to 8) (size 9 to 14) (size 15 to 20)
#    0.000    1.600    0.000    6.600    0.000    4.800 
#    0.000    7.000    0.000    0.000    0.000    0.000 
#    0.000    0.000    0.000    0.000    0.000    0.000 
#
# Total GULP energy -167466.394424 kJ/mol
# GULP energy per Si atom -5582.213147 kJ/mol
# Density = 2.060649 g / cm^3
# Si number density = 20.653503 Si / 1000 Ang^3
#
#
#
# Elastic Constant Matrix: (Units=GPa)
#
#
# Indices 1 2 3 4 5 6 
#
# 1 48.8931 10.1392 14.9616 3.4739 0.0002 0.0000
# 2 10.1392 48.8931 14.9616 -3.4739 -0.0002 0.0000
# 3 14.9616 14.9616 117.6216 0.0000 0.0000 0.0000
# 4 3.4739 -3.4739 0.0000 17.2252 0.0000 -0.0002
# 5 0.0002 -0.0002 0.0000 0.0000 17.2252 3.4739
# 6 0.0000 0.0000 0.0000 -0.0002 3.4739 19.3770
#
#
#
# Elastic Compliance Matrix: (Units=1/GPa)
#
#
# Indices 1 2 3 4 5 6 
#
# 1 0.022440 -0.004332 -0.002303 -0.005399 0.000000 0.000000
# 2 -0.004332 0.022440 -0.002303 0.005399 0.000000 0.000000
# 3 -0.002303 -0.002303 0.009088 0.000000 0.000000 0.000000
# 4 -0.005399 0.005399 0.000000 0.060232 0.000000 0.000001
# 5 0.000000 0.000000 0.000000 0.000000 0.060232 -0.010798
# 6 0.000000 0.000000 0.000000 0.000001 -0.010798 0.053544
#
#
# Mechanical properties :
#
#
# Convention : Reuss Voigt Hill
#
# Bulk Modulus (GPa) = 27.70889 32.83694 30.27292
# Shear Modulus (GPa) = 19.38868 22.45517 20.92193
#
# Velocity S-wave (km/s) = 3.06724 3.30090 3.18621
# Velocity P-wave (km/s) = 5.09796 5.51918 5.31275
#
# Compressibility (1/GPa) = 0.03608949
#
# Stress axis : x y z
#
# Youngs Moduli (GPa) = 44.56408 44.56408 110.03765
#
# Poissons Ratio (x) = 0.19306 0.25345
# Poissons Ratio (y) = 0.19306 0.25345
# Poissons Ratio (z) = 0.10264 0.10264
#
# Static dielectric constant tensor:
#      x y z
#    x 1.749190 0.000000 0.000000 
#    y 0.000000 1.749190 0.000000 
#    z 0.000000 0.000000 1.763960 
# 
# From -- ./inp_files/1028.got.cif
#   From: 2010.05.17/outbox.cif.g08.bks.cpg/sg154_1_cif.got.tgz:1028.got - 2010.05.20 10:41:43.
