data_PCOD9576590
_publ_section_title
;
Structure prediction by ZEFSAII (Michael W. Deem and Ramdas Pophale) SiO2 
 PCOD9576590
Probable space group: P 32 2 1
;
_chemical_formula_sum "Si O2"
_cell_formula_units_Z 30
_cell_length_a 14.710369
_cell_length_b 14.710369
_cell_length_c 8.217570
_cell_angle_alpha 90.000000
_cell_angle_beta 90.000000
_cell_angle_gamma 120.000000
_cell_volume 1540.001620
_symmetry_space_group_name_H-M "P 32 2 1"
_symmetry_group_IT_number 154
_symmetry_cell_setting 'hexagonal'
loop_
_space_group_symop_operation_xyz
x,y,z
-y,x-y,2/3+z
-x+y,-x,1/3+z
x-y,-y,1/3-z
-x,-x+y,2/3-z
y,x,-z
loop_
_atom_site_type_symbol
_atom_site_label
_atom_site_fract_x
_atom_site_fract_y
_atom_site_fract_z
Si Si1 0.525810 0.863126 0.925198
Si Si2 0.252350 0.159367 0.870839
Si Si3 0.516247 0.516247 0.500000
Si Si4 0.157362 0.491384 0.410403
Si Si5 0.669569 0.627032 0.251696
Si Si6 0.067511 0.000000 0.666667
O O1 0.638803 0.899683 0.848073
O O2 0.434890 0.833692 0.791865
O O3 0.499060 0.768054 0.048780
O O4 0.523596 0.952649 0.030122
O O5 0.287031 0.077864 0.939005
O O6 0.178490 0.100229 0.716760
O O7 0.192417 0.192417 0.000000
O O8 0.623967 0.549715 0.404459
O O9 0.100116 0.444015 0.238728
O O10 0.081085 0.404640 0.543059
O O11 0.024350 0.024350 0.500000
#
# Coordination Sequence:
#
# PCOD9576590 Si02
#       6
#     6   6   3   6   6   3
#     4  10  22  39  60  97 122 170 212 265 321 384
#     4  11  24  42  67  97 127 175 232 282 328 409
#     4  10  22  38  62  92 130 164 212 264 328 404
#     4   9  19  38  61  82 127 164 204 254 321 387
#     4   9  20  41  59  84 124 174 197 259 337 380
#     4  12  26  48  66 100 142 176 224 288 364 402
#
# _framework density 19.480499999999999
#
# number of rings (size 3 to 8) (size 9 to 14) (size 15 to 20)
#    0.000    2.000    1.000    2.400    7.000    4.800 
#    7.200    0.000    0.000    0.000    0.000    0.000 
#    0.000    0.000    0.000    0.000    0.000    0.000 
#
# Total GULP energy -167194.564701 kJ/mol
# GULP energy per Si atom -5573.152157 kJ/mol
# Density = 1.943616 g / cm^3
# Si number density = 19.480500 Si / 1000 Ang^3
#
#
#
# Elastic Constant Matrix: (Units=GPa)
#
#
# Indices 1 2 3 4 5 6 
#
# 1 100.6400 45.7330 29.9443 3.1745 -0.0001 0.0000
# 2 45.7330 100.6400 29.9443 -3.1745 0.0001 0.0000
# 3 29.9443 29.9443 61.1687 0.0000 0.0000 0.0000
# 4 3.1745 -3.1745 0.0000 21.4123 0.0000 0.0001
# 5 -0.0001 0.0001 0.0000 0.0000 21.4123 3.1745
# 6 0.0000 0.0000 0.0000 0.0001 3.1745 27.4535
#
#
#
# Elastic Compliance Matrix: (Units=1/GPa)
#
#
# Indices 1 2 3 4 5 6 
#
# 1 0.013537 -0.004994 -0.004182 -0.002747 0.000000 0.000000
# 2 -0.004994 0.013537 -0.004182 0.002747 0.000000 0.000000
# 3 -0.004182 -0.004182 0.020443 0.000000 0.000000 0.000000
# 4 -0.002747 0.002747 0.000000 0.047517 0.000000 0.000000
# 5 0.000000 0.000000 0.000000 0.000000 0.047517 -0.005495
# 6 0.000000 0.000000 0.000000 0.000000 -0.005495 0.037061
#
#
# Mechanical properties :
#
#
# Convention : Reuss Voigt Hill
#
# Bulk Modulus (GPa) = 48.07605 52.63242 50.35423
# Shear Modulus (GPa) = 23.44563 24.51076 23.97819
#
# Velocity S-wave (km/s) = 3.47298 3.55099 3.51220
# Velocity P-wave (km/s) = 6.38864 6.62490 6.50784
#
# Compressibility (1/GPa) = 0.02080038
#
# Stress axis : x y z
#
# Youngs Moduli (GPa) = 73.87371 73.87371 48.91698
#
# Poissons Ratio (x) = 0.36890 0.20457
# Poissons Ratio (y) = 0.36890 0.20457
# Poissons Ratio (z) = 0.30895 0.30895
#
# Static dielectric constant tensor:
#      x y z
#    x 1.719910 0.000000 0.000000 
#    y 0.000000 1.719910 0.000000 
#    z 0.000000 0.000000 1.708730 
# 
# From -- ./inp_files/1048.got.cif
#   From: 2010.05.17/outbox.cif.g08.bks.cpg/sg154_1_cif.got.tgz:1048.got - 2010.05.20 10:41:43.
