data_PCOD9576436
_publ_section_title
;
Structure prediction by ZEFSAII (Michael W. Deem and Ramdas Pophale) SiO2 
 PCOD9576436
Probable space group: P 32 2 1
;
_chemical_formula_sum "Si O2"
_cell_formula_units_Z 36
_cell_length_a 11.358772
_cell_length_b 11.358772
_cell_length_c 17.023186
_cell_angle_alpha 90.000000
_cell_angle_beta 90.000000
_cell_angle_gamma 120.000000
_cell_volume 1902.103920
_symmetry_space_group_name_H-M "P 32 2 1"
_symmetry_group_IT_number 154
_symmetry_cell_setting 'hexagonal'
loop_
_space_group_symop_operation_xyz
x,y,z
-y,x-y,2/3+z
-x+y,-x,1/3+z
x-y,-y,1/3-z
-x,-x+y,2/3-z
y,x,-z
loop_
_atom_site_type_symbol
_atom_site_label
_atom_site_fract_x
_atom_site_fract_y
_atom_site_fract_z
Si Si1 0.242697 0.157090 0.654324
Si Si2 0.575871 0.262463 0.288365
Si Si3 0.485711 0.318629 0.768680
Si Si4 0.103021 0.317131 0.634081
Si Si5 0.910586 0.385947 0.551934
Si Si6 0.300180 0.446496 0.488877
O O1 0.340743 0.248056 0.724290
O O2 0.119481 0.188056 0.648581
O O3 0.332151 0.207031 0.574900
O O4 0.189092 0.000000 0.666667
O O5 0.644548 0.239451 0.365120
O O6 0.418699 0.144636 0.292441
O O7 0.580806 0.404459 0.280048
O O8 0.655069 0.246206 0.214597
O O9 0.484815 0.199008 0.821129
O O10 0.510955 0.465620 0.803378
O O11 0.220760 0.405663 0.570010
O O12 0.968538 0.299611 0.594926
O O13 0.432144 0.432144 0.500000
#
# Coordination Sequence:
#
# PCOD9576436 Si02
#       6
#     6   6   6   6   6   6
#     4  10  19  36  59  82 112 150 198 237 292 363
#     4  10  19  35  58  85 112 148 194 243 294 356
#     4  10  22  38  61  89 119 157 201 254 307 366
#     4  10  20  35  55  83 114 151 194 236 294 356
#     4  11  21  38  60  86 123 153 199 253 304 359
#     4   9  19  34  58  83 105 145 193 237 286 350
#
# _framework density 18.926411000000002
#
# number of rings (size 3 to 8) (size 9 to 14) (size 15 to 20)
#    0.000    2.000    1.667    3.000    2.333    1.333 
#    0.000    1.667    0.000    0.000    0.000    0.000 
#    0.000    0.000    0.000    0.000    0.000    0.000 
#
# Total GULP energy -200470.710368 kJ/mol
# GULP energy per Si atom -5568.630844 kJ/mol
# Density = 1.888333 g / cm^3
# Si number density = 18.926411 Si / 1000 Ang^3
#
#
#
# Elastic Constant Matrix: (Units=GPa)
#
#
# Indices 1 2 3 4 5 6 
#
# 1 86.8647 22.7873 15.8656 2.1652 0.0000 0.0000
# 2 22.7873 86.8647 15.8656 -2.1652 0.0000 0.0000
# 3 15.8656 15.8656 34.8745 0.0000 0.0000 0.0000
# 4 2.1652 -2.1652 0.0000 13.7439 0.0000 0.0000
# 5 0.0000 0.0000 0.0000 0.0000 13.7439 2.1652
# 6 0.0000 0.0000 0.0000 0.0000 2.1652 32.0387
#
#
#
# Elastic Compliance Matrix: (Units=1/GPa)
#
#
# Indices 1 2 3 4 5 6 
#
# 1 0.013138 -0.002636 -0.004778 -0.002485 0.000000 0.000000
# 2 -0.002636 0.013138 -0.004778 0.002485 0.000000 0.000000
# 3 -0.004778 -0.004778 0.033022 0.000000 0.000000 0.000000
# 4 -0.002485 0.002485 0.000000 0.073543 0.000000 0.000000
# 5 0.000000 0.000000 0.000000 0.000000 0.073543 -0.004970
# 6 0.000000 0.000000 0.000000 0.000000 -0.004970 0.031548
#
#
# Mechanical properties :
#
#
# Convention : Reuss Voigt Hill
#
# Bulk Modulus (GPa) = 28.64121 35.29342 31.96732
# Shear Modulus (GPa) = 18.25129 22.17765 20.21447
#
# Velocity S-wave (km/s) = 3.10873 3.42685 3.27166
# Velocity P-wave (km/s) = 5.29636 5.86054 5.58558
#
# Compressibility (1/GPa) = 0.03491473
#
# Stress axis : x y z
#
# Youngs Moduli (GPa) = 76.11377 76.11377 30.28325
#
# Poissons Ratio (x) = 0.20062 0.14469
# Poissons Ratio (y) = 0.20062 0.14469
# Poissons Ratio (z) = 0.36366 0.36366
#
# Static dielectric constant tensor:
#      x y z
#    x 1.673560 0.000000 0.000000 
#    y 0.000000 1.673560 0.000000 
#    z 0.000000 0.000000 1.677680 
# 
# From -- ./inp_files/2383.got.cif
#   From: 2010.05.17/outbox.cif.g08.bks.cpg/sg154_2_cif.got.tgz:2383.got - 2010.05.20 10:41:43.
