data_PCOD9576369
_publ_section_title
;
Structure prediction by ZEFSAII (Michael W. Deem and Ramdas Pophale) SiO2 
 PCOD9576369
Probable space group: P 32 1 2
;
_chemical_formula_sum "Si O2"
_cell_formula_units_Z 18
_cell_length_a 8.022090
_cell_length_b 8.022090
_cell_length_c 12.312597
_cell_angle_alpha 90.000000
_cell_angle_beta 90.000000
_cell_angle_gamma 120.000000
_cell_volume 686.207336
_symmetry_space_group_name_H-M "P 32 1 2"
_symmetry_group_IT_number 153
_symmetry_cell_setting 'hexagonal'
loop_
_space_group_symop_operation_xyz
x,y,z
-y,x-y,2/3+z
-x+y,-x,1/3+z
-y,-x,1/3-z
-x+y,y,2/3-z
x,x-y,-z
loop_
_atom_site_type_symbol
_atom_site_label
_atom_site_fract_x
_atom_site_fract_y
_atom_site_fract_z
Si Si1 0.758685 0.241316 0.666667
Si Si2 0.044718 0.763213 0.896809
Si Si3 0.013618 0.368133 0.866194
Si Si4 0.497400 0.994799 0.833334
O O1 0.891655 0.247317 0.764609
O O2 0.863700 0.447824 0.605991
O O3 0.961885 0.535292 0.877449
O O4 0.269178 0.869192 0.859430
O O5 0.915018 0.830036 0.833334
O O6 0.012471 0.755888 0.026121
O O7 0.236819 0.473637 0.833334
#
# Coordination Sequence:
#
# PCOD9576369 Si02
#       4
#     3   6   6   3
#     4  12  30  48  86 122 178 232 290 366 462 546
#     4  11  27  51  90 125 171 235 304 368 463 549
#     4  11  25  52  81 126 175 231 293 376 454 555
#     4  12  28  56  86 126 176 234 298 382 454 544
#
# _framework density 26.231138000000001
#
# number of rings (size 3 to 8) (size 9 to 14) (size 15 to 20)
#    0.000    0.667    5.000    0.000    7.000    2.667 
#    0.000    0.000    3.667    0.000    0.000    0.000 
#    0.000    0.000    0.000    0.000    0.000    0.000 
#
# Total GULP energy -100597.162786 kJ/mol
# GULP energy per Si atom -5588.731266 kJ/mol
# Density = 2.617143 g / cm^3
# Si number density = 26.231138 Si / 1000 Ang^3
#
#
#
# Elastic Constant Matrix: (Units=GPa)
#
#
# Indices 1 2 3 4 5 6 
#
# 1 145.0579 44.8461 82.3289 -0.0001 7.6546 0.0000
# 2 44.8461 145.0579 82.3289 0.0001 -7.6546 0.0000
# 3 82.3289 82.3289 248.7828 0.0000 0.0000 0.0000
# 4 -0.0001 0.0001 0.0000 44.6544 0.0000 -7.6546
# 5 7.6546 -7.6546 0.0000 0.0000 44.6544 -0.0001
# 6 0.0000 0.0000 0.0000 -7.6546 -0.0001 50.1059
#
#
#
# Elastic Compliance Matrix: (Units=1/GPa)
#
#
# Indices 1 2 3 4 5 6 
#
# 1 0.008816 -0.001431 -0.002444 0.000000 -0.001757 0.000000
# 2 -0.001431 0.008816 -0.002444 0.000000 0.001757 0.000000
# 3 -0.002444 -0.002444 0.005637 0.000000 0.000000 0.000000
# 4 0.000000 0.000000 0.000000 0.022996 0.000000 0.003513
# 5 -0.001757 0.001757 0.000000 0.000000 0.022996 0.000000
# 6 0.000000 0.000000 0.000000 0.003513 0.000000 0.020494
#
#
# Mechanical properties :
#
#
# Convention : Reuss Voigt Hill
#
# Bulk Modulus (GPa) = 94.06220 106.43406 100.24813
# Shear Modulus (GPa) = 47.19756 49.84260 48.52008
#
# Velocity S-wave (km/s) = 4.24641 4.36378 4.30549
# Velocity P-wave (km/s) = 7.74464 8.12734 7.93830
#
# Compressibility (1/GPa) = 0.01063126
#
# Stress axis : x y z
#
# Youngs Moduli (GPa) = 113.43037 113.43037 177.39880
#
# Poissons Ratio (x) = 0.16235 0.43353
# Poissons Ratio (y) = 0.16235 0.43353
# Poissons Ratio (z) = 0.27720 0.27720
#
# Static dielectric constant tensor:
#      x y z
#    x 2.112950 0.000000 0.000000 
#    y 0.000000 2.112950 0.000000 
#    z 0.000000 0.000000 2.080950 
# 
# From -- ./inp_files/2219.got.cif
#   From: 2010.05.17/outbox.cif.g08.bks.cpg/sg153_2_cif.got.tgz:2219.got - 2010.05.20 10:38:56.
