data_PCOD9576279
_publ_section_title
;
Structure prediction by ZEFSAII (Michael W. Deem and Ramdas Pophale) SiO2 
 PCOD9576279
Probable space group: P 32 1 2
;
_chemical_formula_sum "Si O2"
_cell_formula_units_Z 33
_cell_length_a 13.502752
_cell_length_b 13.502752
_cell_length_c 10.026145
_cell_angle_alpha 90.000000
_cell_angle_beta 90.000000
_cell_angle_gamma 120.000000
_cell_volume 1583.103085
_symmetry_space_group_name_H-M "P 32 1 2"
_symmetry_group_IT_number 153
_symmetry_cell_setting 'hexagonal'
loop_
_space_group_symop_operation_xyz
x,y,z
-y,x-y,2/3+z
-x+y,-x,1/3+z
-y,-x,1/3-z
-x+y,y,2/3-z
x,x-y,-z
loop_
_atom_site_type_symbol
_atom_site_label
_atom_site_fract_x
_atom_site_fract_y
_atom_site_fract_z
Si Si1 0.176904 0.353808 0.333334
Si Si2 0.612125 0.406467 0.441298
Si Si3 0.059020 0.940981 0.166667
Si Si4 0.849948 0.630447 0.102148
Si Si5 0.889916 0.110085 0.666667
Si Si6 0.419077 0.015375 0.728519
Si Si7 0.186230 0.988579 0.431726
O O1 0.310871 0.420228 0.296295
O O2 0.177590 0.277804 0.457975
O O3 0.710742 0.421483 0.333334
O O4 0.563932 0.281966 0.500000
O O5 0.682545 0.501567 0.550476
O O6 0.507914 0.419060 0.387567
O O7 0.926301 0.871227 0.208158
O O8 0.115442 0.926160 0.298572
O O9 0.910782 0.691868 0.243456
O O10 0.730683 0.632834 0.101732
O O11 0.925812 0.692092 0.973312
O O12 0.504549 0.009098 0.833334
O O13 0.154312 0.077156 0.500000
#
# Coordination Sequence:
#
# PCOD9576279 Si02
#       7
#     3   6   3   6   3   6   6
#     4  12  28  47  74 106 152 209 254 310 394 482
#     4  12  22  37  70 114 146 188 244 326 414 475
#     4  10  24  34  54  86 128 188 236 292 340 434
#     4  11  20  41  68 102 144 189 244 317 392 459
#     4  10  20  35  54  82 132 183 242 286 360 432
#     4  12  24  44  72 107 152 207 258 326 399 484
#     4  11  25  43  65 100 145 190 252 308 371 467
#
# _framework density 20.845136
#
# number of rings (size 3 to 8) (size 9 to 14) (size 15 to 20)
#    0.000    0.727    6.364    1.091    6.364    1.455 
#    0.000    0.000    4.000    0.000    0.000    0.000 
#    0.000    0.000    0.000    0.000    0.000    0.000 
#
# Total GULP energy -183737.488304 kJ/mol
# GULP energy per Si atom -5567.802676 kJ/mol
# Density = 2.079769 g / cm^3
# Si number density = 20.845136 Si / 1000 Ang^3
#
#
#
# Elastic Constant Matrix: (Units=GPa)
#
#
# Indices 1 2 3 4 5 6 
#
# 1 109.7870 44.6198 41.3974 -0.0003 4.9086 0.0000
# 2 44.6198 109.7870 41.3974 0.0003 -4.9086 0.0000
# 3 41.3974 41.3974 127.4262 0.0000 0.0000 0.0000
# 4 -0.0003 0.0003 0.0000 38.2654 0.0000 -4.9086
# 5 4.9086 -4.9086 0.0000 0.0000 38.2654 -0.0003
# 6 0.0000 0.0000 0.0000 -4.9086 -0.0003 32.5836
#
#
#
# Elastic Compliance Matrix: (Units=1/GPa)
#
#
# Indices 1 2 3 4 5 6 
#
# 1 0.011745 -0.003902 -0.002548 0.000000 -0.002007 0.000000
# 2 -0.003902 0.011745 -0.002548 0.000000 0.002007 0.000000
# 3 -0.002548 -0.002548 0.009503 0.000000 0.000000 0.000000
# 4 0.000000 0.000000 0.000000 0.026648 0.000000 0.004014
# 5 -0.002007 0.002007 0.000000 0.000000 0.026648 0.000000
# 6 0.000000 0.000000 0.000000 0.004014 0.000000 0.031295
#
#
# Mechanical properties :
#
#
# Convention : Reuss Voigt Hill
#
# Bulk Modulus (GPa) = 66.68037 66.86993 66.77515
# Shear Modulus (GPa) = 35.56693 36.46192 36.01442
#
# Velocity S-wave (km/s) = 4.13515 4.18686 4.16109
# Velocity P-wave (km/s) = 7.40657 7.45131 7.42897
#
# Compressibility (1/GPa) = 0.01499692
#
# Stress axis : x y z
#
# Youngs Moduli (GPa) = 85.14222 85.14222 105.22841
#
# Poissons Ratio (x) = 0.33226 0.26811
# Poissons Ratio (y) = 0.33226 0.26811
# Poissons Ratio (z) = 0.21693 0.21693
#
# Static dielectric constant tensor:
#      x y z
#    x 1.861470 0.000000 0.000000 
#    y 0.000000 1.861470 0.000000 
#    z 0.000000 0.000000 1.832930 
# 
# From -- ./inp_files/1730.got.cif
#   From: 2010.05.17/outbox.cif.g08.bks.cpg/sg153_1_cif.got.tgz:1730.got - 2010.05.20 10:38:56.
