data_PCOD9576618
_publ_section_title
;
Structure prediction by ZEFSAII (Michael W. Deem and Ramdas Pophale) SiO2 
 PCOD9576618
Probable space group: P 32 2 1
;
_chemical_formula_sum "Si O2"
_cell_formula_units_Z 36
_cell_length_a 11.427594
_cell_length_b 11.427594
_cell_length_c 14.046908
_cell_angle_alpha 90.000000
_cell_angle_beta 90.000000
_cell_angle_gamma 120.000000
_cell_volume 1588.623470
_symmetry_space_group_name_H-M "P 32 2 1"
_symmetry_group_IT_number 154
_symmetry_cell_setting 'hexagonal'
loop_
_space_group_symop_operation_xyz
x,y,z
-y,x-y,2/3+z
-x+y,-x,1/3+z
x-y,-y,1/3-z
-x,-x+y,2/3-z
y,x,-z
loop_
_atom_site_type_symbol
_atom_site_label
_atom_site_fract_x
_atom_site_fract_y
_atom_site_fract_z
Si Si1 0.402499 0.843292 0.576956
Si Si2 0.477039 0.952650 0.056688
Si Si3 0.000000 0.044150 0.333334
Si Si4 0.000000 0.162136 0.833334
Si Si5 0.027894 0.726074 0.223466
Si Si6 0.812274 0.139908 0.364806
Si Si7 0.749411 0.398806 0.626792
O O1 0.553136 0.959963 0.556932
O O2 0.295785 0.886263 0.606175
O O3 0.401578 0.742787 0.655387
O O4 0.362601 0.754390 0.482166
O O5 0.327980 0.816702 0.032815
O O6 0.491035 0.000000 0.166667
O O7 0.572078 0.892272 0.026393
O O8 0.553027 0.096622 0.998926
O O9 0.076674 0.007276 0.255344
O O10 0.112220 0.193791 0.365752
O O11 0.863459 0.163386 0.810017
O O12 0.000000 0.743131 0.333334
O O13 0.929941 0.711026 0.136593
#
# Coordination Sequence:
#
# PCOD9576618 Si02
#       7
#     6   6   3   3   6   6   6
#     4  11  23  42  66  99 137 177 236 282 359 436
#     4  11  23  45  71 102 144 187 240 302 367 452
#     4  10  22  44  62  94 134 168 228 288 352 424
#     4  10  22  42  68  96 132 172 232 294 350 436
#     4  11  22  41  68  96 133 175 225 287 353 415
#     4  10  24  42  65 100 135 181 232 286 366 441
#     4  11  23  44  69 102 144 185 238 300 369 440
#
# _framework density 22.661125999999999
#
# number of rings (size 3 to 8) (size 9 to 14) (size 15 to 20)
#    0.000    1.333    4.167    1.000    2.333    1.333 
#    3.000    0.000    0.000    0.000    0.000    0.000 
#    0.000    0.000    0.000    0.000    0.000    0.000 
#
# Total GULP energy -200404.510843 kJ/mol
# GULP energy per Si atom -5566.791968 kJ/mol
# Density = 2.260955 g / cm^3
# Si number density = 22.661126 Si / 1000 Ang^3
#
#
#
# Elastic Constant Matrix: (Units=GPa)
#
#
# Indices 1 2 3 4 5 6 
#
# 1 76.2789 27.3314 16.7506 -4.2473 0.0005 0.0000
# 2 27.3314 76.2789 16.7506 4.2473 -0.0005 0.0000
# 3 16.7506 16.7506 90.7749 0.0000 0.0000 0.0000
# 4 -4.2473 4.2473 0.0000 13.0675 0.0000 -0.0005
# 5 0.0005 -0.0005 0.0000 0.0000 13.0675 -4.2473
# 6 0.0000 0.0000 0.0000 -0.0005 -4.2473 24.4738
#
#
#
# Elastic Compliance Matrix: (Units=1/GPa)
#
#
# Indices 1 2 3 4 5 6 
#
# 1 0.015958 -0.005694 -0.001894 0.007037 -0.000001 0.000000
# 2 -0.005694 0.015958 -0.001894 -0.007037 0.000001 0.000000
# 3 -0.001894 -0.001894 0.011715 0.000000 0.000000 0.000000
# 4 0.007037 -0.007037 0.000000 0.081101 0.000000 0.000002
# 5 -0.000001 0.000001 0.000000 0.000000 0.081101 0.014075
# 6 0.000000 0.000000 0.000000 0.000002 0.014075 0.043303
#
#
# Mechanical properties :
#
#
# Convention : Reuss Voigt Hill
#
# Bulk Modulus (GPa) = 40.53971 40.55533 40.54752
# Shear Modulus (GPa) = 18.09494 22.28840 20.19167
#
# Velocity S-wave (km/s) = 2.82884 3.13957 2.98825
# Velocity P-wave (km/s) = 5.34773 5.57475 5.46242
#
# Compressibility (1/GPa) = 0.02466717
#
# Stress axis : x y z
#
# Youngs Moduli (GPa) = 62.66587 62.66587 85.35879
#
# Poissons Ratio (x) = 0.35680 0.16167
# Poissons Ratio (y) = 0.35680 0.16167
# Poissons Ratio (z) = 0.11869 0.11869
#
# Static dielectric constant tensor:
#      x y z
#    x 1.949460 0.000000 0.000000 
#    y 0.000000 1.949460 0.000000 
#    z 0.000000 0.000000 1.819330 
# 
# From -- ./inp_files/2008.got.cif
#   From: 2010.05.17/outbox.cif.g08.bks.cpg/sg154_2_cif.got.tgz:2008.got - 2010.05.20 10:41:43.
