data_PCOD9576108
_publ_section_title
;
Structure prediction by ZEFSAII (Michael W. Deem and Ramdas Pophale) SiO2 
 PCOD9576108
Probable space group: P 31 2 1
;
_chemical_formula_sum "Si O2"
_cell_formula_units_Z 33
_cell_length_a 14.163368
_cell_length_b 14.163368
_cell_length_c 6.568251
_cell_angle_alpha 90.000000
_cell_angle_beta 90.000000
_cell_angle_gamma 120.000000
_cell_volume 1141.073057
_symmetry_space_group_name_H-M "P 31 2 1"
_symmetry_group_IT_number 152
_symmetry_cell_setting 'hexagonal'
loop_
_space_group_symop_operation_xyz
x,y,z
-y,x-y,1/3+z
-x+y,-x,2/3+z
x-y,-y,2/3-z
-x,-x+y,1/3-z
y,x,-z
loop_
_atom_site_type_symbol
_atom_site_label
_atom_site_fract_x
_atom_site_fract_y
_atom_site_fract_z
Si Si1 0.293293 0.547329 0.175017
Si Si2 0.169989 0.648802 0.399383
Si Si3 0.023554 0.249905 0.926904
Si Si4 0.526750 0.565462 0.264039
Si Si5 0.000000 0.773035 0.666667
Si Si6 0.213122 0.346497 0.398048
O O1 0.257385 0.631738 0.266216
O O2 0.408901 0.556088 0.238153
O O3 0.199880 0.439313 0.284131
O O4 0.287502 0.519635 0.935655
O O5 0.069319 0.538753 0.489537
O O6 0.125153 0.708539 0.250902
O O7 0.052206 0.371447 0.863829
O O8 0.903611 0.160867 0.846845
O O9 0.000000 0.242039 0.166667
O O10 0.117529 0.219763 0.915350
O O11 0.544261 0.544261 0.500000
O O12 0.950077 0.698018 0.461862
#
# Coordination Sequence:
#
# PCOD9576108 Si02
#       6
#     6   6   6   6   3   6
#     4  12  29  53  87 132 191 253 313 394 476 594
#     4  12  29  53  87 140 189 252 317 392 495 583
#     4   9  21  48  87 126 178 236 300 384 464 556
#     4  11  23  51  82 126 184 242 315 377 469 575
#     4  10  24  48  96 128 178 252 304 392 480 558
#     4  11  25  52  89 135 182 241 311 394 473 586
#
# _framework density 28.920148000000001
#
# number of rings (size 3 to 8) (size 9 to 14) (size 15 to 20)
#    0.000    1.091    3.636    0.545    2.545    7.273 
#    3.273    1.818   12.000    7.636    0.000    0.000 
#    0.000    0.000    0.000    0.000    0.000    0.000 
#
# Total GULP energy -184630.604295 kJ/mol
# GULP energy per Si atom -5594.866797 kJ/mol
# Density = 2.885432 g / cm^3
# Si number density = 28.920148 Si / 1000 Ang^3
#
#
#
# Elastic Constant Matrix: (Units=GPa)
#
#
# Indices 1 2 3 4 5 6 
#
# 1 203.8473 71.0054 76.5281 7.1742 0.0001 0.0000
# 2 71.0054 203.8473 76.5281 -7.1742 -0.0001 0.0000
# 3 76.5281 76.5281 199.3426 0.0000 0.0000 0.0000
# 4 7.1742 -7.1742 0.0000 42.0481 0.0000 -0.0001
# 5 0.0001 -0.0001 0.0000 0.0000 42.0481 7.1742
# 6 0.0000 0.0000 0.0000 -0.0001 7.1742 66.4209
#
#
#
# Elastic Compliance Matrix: (Units=1/GPa)
#
#
# Indices 1 2 3 4 5 6 
#
# 1 0.006148 -0.001521 -0.001777 -0.001308 0.000000 0.000000
# 2 -0.001521 0.006148 -0.001777 0.001308 0.000000 0.000000
# 3 -0.001777 -0.001777 0.006381 0.000000 0.000000 0.000000
# 4 -0.001308 0.001308 0.000000 0.024229 0.000000 0.000000
# 5 0.000000 0.000000 0.000000 0.000000 0.024229 -0.002617
# 6 0.000000 0.000000 0.000000 0.000000 -0.002617 0.015338
#
#
# Mechanical properties :
#
#
# Convention : Reuss Voigt Hill
#
# Bulk Modulus (GPa) = 117.23942 117.24005 117.23974
# Shear Modulus (GPa) = 52.37583 55.63512 54.00547
#
# Velocity S-wave (km/s) = 4.26026 4.39081 4.32603
# Velocity P-wave (km/s) = 8.05151 8.14450 8.09814
#
# Compressibility (1/GPa) = 0.00852955
#
# Stress axis : x y z
#
# Youngs Moduli (GPa) = 162.64531 162.64531 156.72671
#
# Poissons Ratio (x) = 0.24734 0.27843
# Poissons Ratio (y) = 0.24734 0.27843
# Poissons Ratio (z) = 0.28895 0.28895
#
# Static dielectric constant tensor:
#      x y z
#    x 2.306780 0.000000 0.000000 
#    y 0.000000 2.306780 0.000000 
#    z 0.000000 0.000000 2.496220 
# 
# From -- ./inp_files/1157.got.cif
#   From: 2010.05.17/outbox.cif.g08.bks.cpg/sg152_1_cif.got.tgz:1157.got - 2010.05.20 10:36:06.
