data_PCOD9576735
_publ_section_title
;
Structure prediction by ZEFSAII (Michael W. Deem and Ramdas Pophale) SiO2 
 PCOD9576735
Probable space group: P 32 2 1
;
_chemical_formula_sum "Si O2"
_cell_formula_units_Z 36
_cell_length_a 8.194929
_cell_length_b 8.194929
_cell_length_c 22.551184
_cell_angle_alpha 90.000000
_cell_angle_beta 90.000000
_cell_angle_gamma 120.000000
_cell_volume 1311.566667
_symmetry_space_group_name_H-M "P 32 2 1"
_symmetry_group_IT_number 154
_symmetry_cell_setting 'hexagonal'
loop_
_space_group_symop_operation_xyz
x,y,z
-y,x-y,2/3+z
-x+y,-x,1/3+z
x-y,-y,1/3-z
-x,-x+y,2/3-z
y,x,-z
loop_
_atom_site_type_symbol
_atom_site_label
_atom_site_fract_x
_atom_site_fract_y
_atom_site_fract_z
Si Si1 0.400811 0.267694 0.444899
Si Si2 0.299640 0.237023 0.257176
Si Si3 0.400959 0.125784 0.047241
Si Si4 0.793272 0.276590 0.328357
Si Si5 0.802476 0.935063 0.798785
Si Si6 0.298442 0.659321 0.461469
O O1 0.374841 0.374841 0.500000
O O2 0.519548 0.429389 0.397911
O O3 0.558934 0.232422 0.475311
O O4 0.203791 0.076440 0.438159
O O5 0.315047 0.412518 0.294456
O O6 0.142252 0.166653 0.203768
O O7 0.483930 0.286296 0.218758
O O8 0.290080 0.075622 0.303386
O O9 0.530800 0.323014 0.013189
O O10 0.289592 0.165055 0.099260
O O11 0.763773 0.273394 0.258148
O O12 0.000000 0.307791 0.333334
O O13 0.581660 0.801598 0.789845
#
# Coordination Sequence:
#
# PCOD9576735 Si02
#       6
#     6   6   6   6   6   6
#     4  12  24  45  76 114 148 195 266 325 396 475
#     4  12  27  48  77 111 150 204 268 324 405 478
#     4  12  25  52  76 111 159 200 261 338 391 475
#     4  12  28  50  70 108 158 210 260 325 411 487
#     4  12  24  46  78 112 146 200 260 334 397 464
#     4  12  25  46  73 106 153 200 253 326 398 478
#
# _framework density 27.448087999999998
#
# number of rings (size 3 to 8) (size 9 to 14) (size 15 to 20)
#    0.000    0.000    5.000    5.500    2.333    0.667 
#    3.000    0.000    0.000    0.000    0.000    0.000 
#    0.000    0.000    0.000    0.000    0.000    0.000 
#
# Total GULP energy -200862.182974 kJ/mol
# GULP energy per Si atom -5579.505083 kJ/mol
# Density = 2.738562 g / cm^3
# Si number density = 27.448088 Si / 1000 Ang^3
#
#
#
# Elastic Constant Matrix: (Units=GPa)
#
#
# Indices 1 2 3 4 5 6 
#
# 1 551.9574 -389.8293 40.6320 96.4045 0.0003 0.0000
# 2 -389.8293 551.9574 40.6320 -96.4045 -0.0003 0.0000
# 3 40.6320 40.6320 120.5169 0.0000 0.0000 0.0000
# 4 96.4045 -96.4045 0.0000 49.8710 0.0000 -0.0003
# 5 0.0003 -0.0003 0.0000 0.0000 49.8710 96.4045
# 6 0.0000 0.0000 0.0000 -0.0003 96.4045 470.8934
#
#
#
# Elastic Compliance Matrix: (Units=1/GPa)
#
#
# Indices 1 2 3 4 5 6 
#
# 1 0.004590 0.002833 -0.002502 -0.003397 0.000000 0.000000
# 2 0.002833 0.004590 -0.002502 0.003397 0.000000 0.000000
# 3 -0.002502 -0.002502 0.009985 0.000000 0.000000 0.000000
# 4 -0.003397 0.003397 0.000000 0.033185 0.000000 0.000000
# 5 0.000000 0.000000 0.000000 0.000000 0.033185 -0.006794
# 6 0.000000 0.000000 0.000000 0.000000 -0.006794 0.003514
#
#
# Mechanical properties :
#
#
# Convention : Reuss Voigt Hill
#
# Bulk Modulus (GPa) = 67.47699 67.47787 67.47743
# Shear Modulus (GPa) = 50.84772 216.32685 133.58729
#
# Velocity S-wave (km/s) = 4.30874 8.88730 6.98389
# Velocity P-wave (km/s) = 7.02784 11.39954 9.46942
#
# Compressibility (1/GPa) = 0.01481987
#
# Stress axis : x y z
#
# Youngs Moduli (GPa) = 217.87686 217.87686 100.15074
#
# Poissons Ratio (x) = -0.61714 0.25062
# Poissons Ratio (y) = -0.61714 0.25062
# Poissons Ratio (z) = 0.54521 0.54521
#
# Static dielectric constant tensor:
#      x y z
#    x 2.239050 0.000000 0.000000 
#    y 0.000000 2.239050 0.000000 
#    z 0.000000 0.000000 2.187820 
# 
# From -- ./inp_files/3466.got.cif
#   From: 2010.05.17/outbox.cif.g08.bks.cpg/sg154_2_cif.got.tgz:3466.got - 2010.05.20 10:41:43.
