data_PCOD9576018
_publ_section_title
;
Structure prediction by ZEFSAII (Michael W. Deem and Ramdas Pophale) SiO2 
 PCOD9576018
Probable space group: P 31 2 1
;
_chemical_formula_sum "Si O2"
_cell_formula_units_Z 42
_cell_length_a 8.957617
_cell_length_b 8.957617
_cell_length_c 28.801812
_cell_angle_alpha 90.000000
_cell_angle_beta 90.000000
_cell_angle_gamma 120.000000
_cell_volume 2001.407034
_symmetry_space_group_name_H-M "P 31 2 1"
_symmetry_group_IT_number 152
_symmetry_cell_setting 'hexagonal'
loop_
_space_group_symop_operation_xyz
x,y,z
-y,x-y,1/3+z
-x+y,-x,2/3+z
x-y,-y,2/3-z
-x,-x+y,1/3-z
y,x,-z
loop_
_atom_site_type_symbol
_atom_site_label
_atom_site_fract_x
_atom_site_fract_y
_atom_site_fract_z
Si Si1 0.705494 0.860983 0.866333
Si Si2 0.205498 0.183825 0.815468
Si Si3 0.711591 0.882928 0.717223
Si Si4 0.548089 0.741590 0.294566
Si Si5 0.659455 0.987039 0.618088
Si Si6 0.309805 0.661262 0.721897
Si Si7 0.455181 0.472418 0.885226
O O1 0.544643 0.671896 0.870850
O O2 0.848677 0.825140 0.843719
O O3 0.694598 0.000000 0.833334
O O4 0.777579 0.957512 0.915369
O O5 0.251337 0.221580 0.761373
O O6 0.344101 0.345037 0.844505
O O7 0.175653 0.000000 0.833334
O O8 0.759899 0.733151 0.715698
O O9 0.509900 0.797115 0.732023
O O10 0.723574 0.939481 0.664181
O O11 0.407938 0.546237 0.280015
O O12 0.494717 0.751208 0.347749
O O13 0.540024 0.881962 0.262935
O O14 0.689230 0.177908 0.626839
O O15 0.177399 0.594824 0.764408
#
# Coordination Sequence:
#
# PCOD9576018 Si02
#       7
#     6   6   6   6   6   6   6
#     4  11  25  45  69  98 131 180 233 275 357 422
#     4  11  26  44  66  97 136 180 230 285 346 417
#     4  10  23  44  72  96 137 181 226 285 342 421
#     4  10  22  40  70 101 138 171 227 281 351 400
#     4  10  22  43  69  94 137 181 225 278 341 410
#     4  10  22  43  67 100 131 179 229 280 338 417
#     4  12  25  43  70  98 138 177 224 292 343 413
#
# _framework density 20.985234999999999
#
# number of rings (size 3 to 8) (size 9 to 14) (size 15 to 20)
#    0.000    1.429    1.429    3.000    8.000    1.714 
#    2.571    0.000    0.000    0.000    0.000    0.000 
#    0.000    0.000    0.000    0.000    0.000    0.000 
#
# Total GULP energy -234664.549141 kJ/mol
# GULP energy per Si atom -5587.251170 kJ/mol
# Density = 2.093747 g / cm^3
# Si number density = 20.985235 Si / 1000 Ang^3
#
#
#
# Elastic Constant Matrix: (Units=GPa)
#
#
# Indices 1 2 3 4 5 6 
#
# 1 89.3635 44.3765 32.0539 -1.4778 0.0001 0.0000
# 2 44.3765 89.3635 32.0539 1.4778 -0.0001 0.0000
# 3 32.0539 32.0539 39.2498 0.0000 0.0000 0.0000
# 4 -1.4778 1.4778 0.0000 30.8240 0.0000 -0.0001
# 5 0.0001 -0.0001 0.0000 0.0000 30.8240 -1.4778
# 6 0.0000 0.0000 0.0000 -0.0001 -1.4778 22.4935
#
#
#
# Elastic Compliance Matrix: (Units=1/GPa)
#
#
# Indices 1 2 3 4 5 6 
#
# 1 0.017293 -0.005006 -0.010035 0.001069 0.000000 0.000000
# 2 -0.005006 0.017293 -0.010035 -0.001069 0.000000 0.000000
# 3 -0.010035 -0.010035 0.041867 0.000000 0.000000 0.000000
# 4 0.001069 -0.001069 0.000000 0.032545 0.000000 0.000000
# 5 0.000000 0.000000 0.000000 0.000000 0.032545 0.002138
# 6 0.000000 0.000000 0.000000 0.000000 0.002138 0.044598
#
#
# Mechanical properties :
#
#
# Convention : Reuss Voigt Hill
#
# Bulk Modulus (GPa) = 38.01728 48.32725 43.17227
# Shear Modulus (GPa) = 20.40329 24.12781 22.26555
#
# Velocity S-wave (km/s) = 3.12151 3.39448 3.26085
# Velocity P-wave (km/s) = 5.58097 6.20020 5.89872
#
# Compressibility (1/GPa) = 0.02630383
#
# Stress axis : x y z
#
# Youngs Moduli (GPa) = 57.82672 57.82672 23.88488
#
# Poissons Ratio (x) = 0.28947 0.23967
# Poissons Ratio (y) = 0.28947 0.23967
# Poissons Ratio (z) = 0.58026 0.58026
#
# Static dielectric constant tensor:
#      x y z
#    x 1.783040 0.000000 0.000000 
#    y 0.000000 1.783040 0.000000 
#    z 0.000000 0.000000 1.745860 
# 
# From -- ./inp_files/3740.got.cif
#   From: 2010.05.17/outbox.cif.g08.bks.cpg/sg152_2_cif.got.tgz:3740.got - 2010.05.20 10:36:06.
