data_PCOD9576705
_publ_section_title
;
Structure prediction by ZEFSAII (Michael W. Deem and Ramdas Pophale) SiO2 
 PCOD9576705
Probable space group: P 32 2 1
;
_chemical_formula_sum "Si O2"
_cell_formula_units_Z 42
_cell_length_a 14.948797
_cell_length_b 14.948797
_cell_length_c 11.216982
_cell_angle_alpha 90.000000
_cell_angle_beta 90.000000
_cell_angle_gamma 120.000000
_cell_volume 2170.796653
_symmetry_space_group_name_H-M "P 32 2 1"
_symmetry_group_IT_number 154
_symmetry_cell_setting 'hexagonal'
loop_
_space_group_symop_operation_xyz
x,y,z
-y,x-y,2/3+z
-x+y,-x,1/3+z
x-y,-y,1/3-z
-x,-x+y,2/3-z
y,x,-z
loop_
_atom_site_type_symbol
_atom_site_label
_atom_site_fract_x
_atom_site_fract_y
_atom_site_fract_z
Si Si1 0.587897 0.831641 0.477105
Si Si2 0.262133 0.329021 0.195533
Si Si3 0.888758 0.448376 0.188232
Si Si4 0.738927 0.629628 0.749178
Si Si5 0.135511 0.551808 0.208500
Si Si6 0.746652 0.616118 0.286245
Si Si7 0.796520 0.905010 0.073064
O O1 0.627109 0.808464 0.356315
O O2 0.477352 0.822885 0.464633
O O3 0.580328 0.757955 0.583992
O O4 0.666403 0.949826 0.514121
O O5 0.341624 0.453634 0.205074
O O6 0.175074 0.314653 0.101601
O O7 0.201665 0.266373 0.312758
O O8 0.853140 0.341591 0.119783
O O9 0.837680 0.420308 0.319743
O O10 0.011098 0.492278 0.205578
O O11 0.674463 0.682458 0.704191
O O12 0.808609 0.704845 0.855192
O O13 0.163418 0.474205 0.144572
O O14 0.861649 0.000000 0.166667
O O15 0.865267 0.865267 0.000000
#
# Coordination Sequence:
#
# PCOD9576705 Si02
#       7
#     6   6   6   6   6   6   6
#     4  11  22  41  61  96 134 167 216 277 338 406
#     4  11  21  41  69  92 128 177 228 278 333 410
#     4   9  19  38  63  88 112 167 217 260 326 399
#     4  11  23  41  65  95 136 172 221 276 346 409
#     4   9  19  37  61  85 118 156 214 263 313 396
#     4  11  21  39  66  93 128 175 216 272 334 407
#     4  12  25  47  67 101 142 190 243 287 337 408
#
# _framework density 19.347736000000001
#
# number of rings (size 3 to 8) (size 9 to 14) (size 15 to 20)
#    0.000    1.429    4.286    1.714    2.000    0.000 
#    7.714    0.000    0.000    0.000    0.000    0.000 
#    0.000    0.000    0.000    0.000    0.000    0.000 
#
# Total GULP energy -234093.228605 kJ/mol
# GULP energy per Si atom -5573.648300 kJ/mol
# Density = 1.930370 g / cm^3
# Si number density = 19.347736 Si / 1000 Ang^3
#
#
#
# Elastic Constant Matrix: (Units=GPa)
#
#
# Indices 1 2 3 4 5 6 
#
# 1 78.3271 31.5714 30.7894 2.9655 0.0000 0.0000
# 2 31.5714 78.3271 30.7894 -2.9655 0.0000 0.0000
# 3 30.7894 30.7894 77.5604 0.0000 0.0000 0.0000
# 4 2.9655 -2.9655 0.0000 27.4655 0.0000 0.0000
# 5 0.0000 0.0000 0.0000 0.0000 27.4655 2.9655
# 6 0.0000 0.0000 0.0000 0.0000 2.9655 23.3778
#
#
#
# Elastic Compliance Matrix: (Units=1/GPa)
#
#
# Indices 1 2 3 4 5 6 
#
# 1 0.016694 -0.004991 -0.004646 -0.002341 0.000000 0.000000
# 2 -0.004991 0.016694 -0.004646 0.002341 0.000000 0.000000
# 3 -0.004646 -0.004646 0.016581 0.000000 0.000000 0.000000
# 4 -0.002341 0.002341 0.000000 0.036915 0.000000 0.000000
# 5 0.000000 0.000000 0.000000 0.000000 0.036915 -0.004683
# 6 0.000000 0.000000 0.000000 0.000000 -0.004683 0.043370
#
#
# Mechanical properties :
#
#
# Convention : Reuss Voigt Hill
#
# Bulk Modulus (GPa) = 46.72016 46.72391 46.72203
# Shear Modulus (GPa) = 24.64668 25.06606 24.85637
#
# Velocity S-wave (km/s) = 3.57302 3.60329 3.58818
# Velocity P-wave (km/s) = 6.42043 6.44310 6.43178
#
# Compressibility (1/GPa) = 0.02140404
#
# Stress axis : x y z
#
# Youngs Moduli (GPa) = 59.90341 59.90341 60.30830
#
# Poissons Ratio (x) = 0.29899 0.28016
# Poissons Ratio (y) = 0.29899 0.28016
# Poissons Ratio (z) = 0.27828 0.27828
#
# Static dielectric constant tensor:
#      x y z
#    x 1.690580 0.000000 0.000000 
#    y 0.000000 1.690580 0.000000 
#    z 0.000000 0.000000 1.678580 
# 
# From -- ./inp_files/1732.got.cif
#   From: 2010.05.17/outbox.cif.g08.bks.cpg/sg154_1_cif.got.tgz:1732.got - 2010.05.20 10:41:43.
