data_PCOD9576805
_publ_section_title
;
Structure prediction by ZEFSAII (Michael W. Deem and Ramdas Pophale) SiO2 
 PCOD9576805
Probable space group: R 3 2
;
_chemical_formula_sum "Si O2"
_cell_formula_units_Z 81
_cell_length_a 14.538298
_cell_length_b 14.538298
_cell_length_c 17.949850
_cell_angle_alpha 90.000000
_cell_angle_beta 90.000000
_cell_angle_gamma 120.000000
_cell_volume 3285.629496
_symmetry_space_group_name_H-M "R 3 2"
_symmetry_group_IT_number 155
_symmetry_cell_setting 'hexagonal'
loop_
_space_group_symop_operation_xyz
x,y,z
-y,x-y,z
-x+y,-x,z
x-y,-y,-z
-x,-x+y,-z
y,x,-z
2/3+x,1/3+y,1/3+z
2/3-y,1/3+x-y,1/3+z
2/3-x+y,1/3-x,1/3+z
2/3+x-y,1/3-y,1/3-z
2/3-x,1/3-x+y,1/3-z
2/3+y,1/3+x,1/3-z
1/3+x,2/3+y,2/3+z
1/3-y,2/3+x-y,2/3+z
1/3-x+y,2/3-x,2/3+z
1/3+x-y,2/3-y,2/3-z
1/3-x,2/3-x+y,2/3-z
1/3+y,2/3+x,2/3-z
loop_
_atom_site_type_symbol
_atom_site_label
_atom_site_fract_x
_atom_site_fract_y
_atom_site_fract_z
Si Si1 0.475264 0.876456 0.508849
Si Si2 0.822712 0.582761 0.942941
Si Si3 0.807671 0.270753 0.755154
Si Si4 0.426369 0.917130 0.855472
Si Si5 0.878688 0.545355 0.333334
O O1 0.360144 0.862299 0.498769
O O2 0.513812 0.812856 0.455932
O O3 0.481078 0.831583 0.590892
O O4 0.561051 0.000000 0.500000
O O5 0.701253 0.511170 0.968027
O O6 0.860363 0.499634 0.921461
O O7 0.833210 0.665128 0.876248
O O8 0.899533 0.669730 0.000389
O O9 0.813657 0.333334 0.833334
O O10 0.895105 0.234527 0.753918
#
# Coordination Sequence:
#
# PCOD9576805 Si02
#       5
#    18  18  18  18   9
#     4  11  22  40  62  87 123 162 204 254 305 365
#     4  10  20  36  59  89 123 157 199 256 308 363
#     4  10  18  34  61  92 119 152 203 252 305 367
#     4  10  20  35  59  90 119 158 206 251 305 363
#     4  10  24  42  60  88 126 164 206 252 304 368
#
# _framework density 24.652809000000001
#
# number of rings (size 3 to 8) (size 9 to 14) (size 15 to 20)
#    0.000    1.778    0.000    8.222    0.000    5.333 
#    0.000    8.889    0.000    0.000    0.000    0.000 
#    0.000    0.000    0.000    0.000    0.000    0.000 
#
# Total GULP energy -150721.359300 kJ/mol
# GULP energy per Si atom -5582.272567 kJ/mol
# Density = 2.459670 g / cm^3
# Si number density = 24.652809 Si / 1000 Ang^3
#
#
#
# Elastic Constant Matrix: (Units=GPa)
#
#
# Indices 1 2 3 4 5 6 
#
# 1 123.1800 12.2977 -3.4831 9.8831 0.0002 0.0000
# 2 12.2977 123.1800 -3.4831 -9.8831 -0.0002 0.0000
# 3 -3.4831 -3.4831 54.0815 0.0000 0.0000 0.0000
# 4 9.8831 -9.8831 0.0000 13.5380 0.0000 -0.0002
# 5 0.0002 -0.0002 0.0000 0.0000 13.5380 9.8831
# 6 0.0000 0.0000 0.0000 -0.0002 9.8831 55.4411
#
#
#
# Elastic Compliance Matrix: (Units=1/GPa)
#
#
# Indices 1 2 3 4 5 6 
#
# 1 0.008887 -0.001481 0.000477 -0.007569 0.000000 0.000000
# 2 -0.001481 0.008887 0.000477 0.007569 0.000000 0.000000
# 3 0.000477 0.000477 0.018552 0.000000 0.000000 0.000000
# 4 -0.007569 0.007569 0.000000 0.084917 0.000000 0.000000
# 5 0.000000 0.000000 0.000000 0.000000 0.084917 -0.015138
# 6 0.000000 0.000000 0.000000 0.000000 -0.015138 0.020736
#
#
# Mechanical properties :
#
#
# Convention : Reuss Voigt Hill
#
# Bulk Modulus (GPa) = 28.35149 34.56719 31.45934
# Shear Modulus (GPa) = 20.85878 36.17741 28.51810
#
# Velocity S-wave (km/s) = 2.91194 3.83492 3.40485
# Velocity P-wave (km/s) = 4.77819 5.80180 5.31470
#
# Compressibility (1/GPa) = 0.03527152
#
# Stress axis : x y z
#
# Youngs Moduli (GPa) = 112.52631 112.52631 53.90243
#
# Poissons Ratio (x) = 0.16665 -0.02571
# Poissons Ratio (y) = 0.16665 -0.02571
# Poissons Ratio (z) = -0.05367 -0.05367
#
# Static dielectric constant tensor:
#      x y z
#    x 1.955660 0.000000 0.000000 
#    y 0.000000 1.955660 0.000000 
#    z 0.000000 0.000000 3.146180 
# 
# From -- ./inp_files/7382.got.cif
#   From: 2010.05.17/outbox.cif.g08.bks.cpg/sg155_4_cif.got.tgz:7382.got - 2010.05.20 10:44:35.
