data_PCOD9576713
_publ_section_title
;
Structure prediction by ZEFSAII (Michael W. Deem and Ramdas Pophale) SiO2 
 PCOD9576713
Probable space group: P 32 2 1
;
_chemical_formula_sum "Si O2"
_cell_formula_units_Z 36
_cell_length_a 11.751099
_cell_length_b 11.751099
_cell_length_c 14.779624
_cell_angle_alpha 90.000000
_cell_angle_beta 90.000000
_cell_angle_gamma 120.000000
_cell_volume 1767.465671
_symmetry_space_group_name_H-M "P 32 2 1"
_symmetry_group_IT_number 154
_symmetry_cell_setting 'hexagonal'
loop_
_space_group_symop_operation_xyz
x,y,z
-y,x-y,2/3+z
-x+y,-x,1/3+z
x-y,-y,1/3-z
-x,-x+y,2/3-z
y,x,-z
loop_
_atom_site_type_symbol
_atom_site_label
_atom_site_fract_x
_atom_site_fract_y
_atom_site_fract_z
Si Si1 0.184361 0.394414 0.568348
Si Si2 0.104038 0.008492 0.412614
Si Si3 0.605836 0.365642 0.283688
Si Si4 0.512642 0.967339 0.892366
Si Si5 0.388622 0.498602 0.432516
Si Si6 0.123873 0.745864 0.399702
O O1 0.293562 0.511268 0.630434
O O2 0.078908 0.438941 0.547612
O O3 0.252348 0.390975 0.475734
O O4 0.119768 0.252176 0.612968
O O5 0.119032 0.878179 0.422552
O O6 0.000000 0.976364 0.333334
O O7 0.052426 0.052426 0.500000
O O8 0.525724 0.403245 0.214114
O O9 0.624112 0.252195 0.238568
O O10 0.738543 0.502512 0.306290
O O11 0.559742 0.895342 0.824403
O O12 0.527834 0.938790 0.996908
O O13 0.497382 0.497382 0.500000
O O14 0.000000 0.661987 0.333334
#
# Coordination Sequence:
#
# PCOD9576713 Si02
#       6
#     6   6   6   6   6   6
#     4  11  23  45  70  99 137 180 236 292 344 425
#     4  11  27  48  69  99 142 187 238 286 353 424
#     4  11  24  43  69  99 143 178 232 288 350 415
#     4  11  24  42  68 102 137 182 230 287 353 419
#     4  11  23  41  68 102 133 177 232 285 351 405
#     4  11  26  46  69 103 142 185 229 294 357 424
#
# _framework density 20.368147
#
# number of rings (size 3 to 8) (size 9 to 14) (size 15 to 20)
#    0.000    1.000    5.000    0.500    4.667    0.000 
#    3.000    0.833    0.000    0.000    0.000    0.000 
#    0.000    0.000    0.000    0.000    0.000    0.000 
#
# Total GULP energy -200841.025812 kJ/mol
# GULP energy per Si atom -5578.917384 kJ/mol
# Density = 2.032179 g / cm^3
# Si number density = 20.368147 Si / 1000 Ang^3
#
#
#
# Elastic Constant Matrix: (Units=GPa)
#
#
# Indices 1 2 3 4 5 6 
#
# 1 125.8961 45.5349 45.5200 -3.1023 0.0000 0.0000
# 2 45.5349 125.8961 45.5200 3.1023 0.0000 0.0000
# 3 45.5200 45.5200 89.5588 0.0000 0.0000 0.0000
# 4 -3.1023 3.1023 0.0000 17.3025 0.0000 0.0000
# 5 0.0000 0.0000 0.0000 0.0000 17.3025 -3.1023
# 6 0.0000 0.0000 0.0000 0.0000 -3.1023 40.1806
#
#
#
# Elastic Compliance Matrix: (Units=1/GPa)
#
#
# Indices 1 2 3 4 5 6 
#
# 1 0.010304 -0.002314 -0.004061 0.002262 0.000000 0.000000
# 2 -0.002314 0.010304 -0.004061 -0.002262 0.000000 0.000000
# 3 -0.004061 -0.004061 0.015294 0.000000 0.000000 0.000000
# 4 0.002262 -0.002262 0.000000 0.058606 0.000000 0.000000
# 5 0.000000 0.000000 0.000000 0.000000 0.058606 0.004525
# 6 0.000000 0.000000 0.000000 0.000000 0.004525 0.025237
#
#
# Mechanical properties :
#
#
# Convention : Reuss Voigt Hill
#
# Bulk Modulus (GPa) = 66.53474 68.27787 67.40630
# Shear Modulus (GPa) = 24.48164 28.60887 26.54526
#
# Velocity S-wave (km/s) = 3.47069 3.75185 3.61400
# Velocity P-wave (km/s) = 6.98555 7.23624 7.11200
#
# Compressibility (1/GPa) = 0.01502974
#
# Stress axis : x y z
#
# Youngs Moduli (GPa) = 97.04786 97.04786 65.38497
#
# Poissons Ratio (x) = 0.22460 0.26553
# Poissons Ratio (y) = 0.22460 0.26553
# Poissons Ratio (z) = 0.39411 0.39411
#
# Static dielectric constant tensor:
#      x y z
#    x 1.765350 0.000000 0.000000 
#    y 0.000000 1.765350 0.000000 
#    z 0.000000 0.000000 1.720260 
# 
# From -- ./inp_files/1967.got.cif
#   From: 2010.05.17/outbox.cif.g08.bks.cpg/sg154_1_cif.got.tgz:1967.got - 2010.05.20 10:41:43.
