data_PCOD9576630
_publ_section_title
;
Structure prediction by ZEFSAII (Michael W. Deem and Ramdas Pophale) SiO2 
 PCOD9576630
Probable space group: P 32 2 1
;
_chemical_formula_sum "Si O2"
_cell_formula_units_Z 36
_cell_length_a 11.347360
_cell_length_b 11.347360
_cell_length_c 12.845754
_cell_angle_alpha 90.000000
_cell_angle_beta 90.000000
_cell_angle_gamma 120.000000
_cell_volume 1432.451410
_symmetry_space_group_name_H-M "P 32 2 1"
_symmetry_group_IT_number 154
_symmetry_cell_setting 'hexagonal'
loop_
_space_group_symop_operation_xyz
x,y,z
-y,x-y,2/3+z
-x+y,-x,1/3+z
x-y,-y,1/3-z
-x,-x+y,2/3-z
y,x,-z
loop_
_atom_site_type_symbol
_atom_site_label
_atom_site_fract_x
_atom_site_fract_y
_atom_site_fract_z
Si Si1 0.008241 0.596643 0.454219
Si Si2 0.294085 0.922917 0.776830
Si Si3 0.678705 0.287518 0.755164
Si Si4 0.664992 0.596568 0.323417
Si Si5 0.849570 0.485470 0.938843
Si Si6 0.802534 0.929856 0.557852
O O1 0.860035 0.467190 0.473780
O O2 0.001253 0.725644 0.501300
O O3 0.000000 0.625493 0.333334
O O4 0.100717 0.526091 0.454615
O O5 0.315823 0.006431 0.884038
O O6 0.158216 0.775947 0.764894
O O7 0.315977 0.000000 0.666667
O O8 0.781770 0.387809 0.840551
O O9 0.569094 0.319092 0.705299
O O10 0.775150 0.297638 0.658140
O O11 0.506465 0.528238 0.358476
O O12 0.773831 0.693834 0.409433
O O13 0.921366 0.921366 0.500000
O O14 0.859952 0.000000 0.666667
#
# Coordination Sequence:
#
# PCOD9576630 Si02
#       6
#     6   6   6   6   6   6
#     4   9  17  35  60  95 122 175 226 271 325 410
#     4  11  22  40  63 100 142 181 230 279 359 420
#     4  11  21  36  63  89 133 174 224 275 343 410
#     4  11  24  40  67  98 134 178 224 292 348 413
#     4  12  22  39  62  98 133 173 224 287 350 410
#     4  10  22  44  73  95 129 179 248 284 336 413
#
# _framework density 25.131741999999999
#
# number of rings (size 3 to 8) (size 9 to 14) (size 15 to 20)
#    0.000    1.333    5.000    3.500    0.000    0.000 
#    0.000    0.833    3.667    0.000    0.000    0.000 
#    0.000    0.000    0.000    0.000    0.000    0.000 
#
# Total GULP energy -200642.882245 kJ/mol
# GULP energy per Si atom -5573.413396 kJ/mol
# Density = 2.507454 g / cm^3
# Si number density = 25.131742 Si / 1000 Ang^3
#
#
#
# Elastic Constant Matrix: (Units=GPa)
#
#
# Indices 1 2 3 4 5 6 
#
# 1 84.0936 10.5076 -4.0461 -0.3623 0.0000 0.0000
# 2 10.5076 84.0936 -4.0461 0.3623 0.0000 0.0000
# 3 -4.0461 -4.0461 55.9500 0.0000 0.0000 0.0000
# 4 -0.3623 0.3623 0.0000 35.0690 0.0000 0.0000
# 5 0.0000 0.0000 0.0000 0.0000 35.0690 -0.3623
# 6 0.0000 0.0000 0.0000 0.0000 -0.3623 36.7930
#
#
#
# Elastic Compliance Matrix: (Units=1/GPa)
#
#
# Indices 1 2 3 4 5 6 
#
# 1 0.012114 -0.001477 0.000769 0.000140 0.000000 0.000000
# 2 -0.001477 0.012114 0.000769 -0.000140 0.000000 0.000000
# 3 0.000769 0.000769 0.017984 0.000000 0.000000 0.000000
# 4 0.000140 -0.000140 0.000000 0.028518 0.000000 0.000000
# 5 0.000000 0.000000 0.000000 0.000000 0.028518 0.000281
# 6 0.000000 0.000000 0.000000 0.000000 0.000281 0.027182
#
#
# Mechanical properties :
#
#
# Convention : Reuss Voigt Hill
#
# Bulk Modulus (GPa) = 23.62163 25.44089 24.53126
# Shear Modulus (GPa) = 35.60777 36.16767 35.88772
#
# Velocity S-wave (km/s) = 3.76818 3.79769 3.78297
# Velocity P-wave (km/s) = 5.32464 5.41987 5.37246
#
# Compressibility (1/GPa) = 0.04233408
#
# Stress axis : x y z
#
# Youngs Moduli (GPa) = 82.55112 82.55112 55.60395
#
# Poissons Ratio (x) = 0.12195 -0.04277
# Poissons Ratio (y) = 0.12195 -0.04277
# Poissons Ratio (z) = -0.06350 -0.06350
#
# Static dielectric constant tensor:
#      x y z
#    x 2.060280 0.000000 0.000000 
#    y 0.000000 2.060280 0.000000 
#    z 0.000000 0.000000 2.079280 
# 
# From -- ./inp_files/1982.got.cif
#   From: 2010.05.17/outbox.cif.g08.bks.cpg/sg154_1_cif.got.tgz:1982.got - 2010.05.20 10:41:43.
