data_PCOD9576246
_publ_section_title
;
Structure prediction by ZEFSAII (Michael W. Deem and Ramdas Pophale) SiO2 
 PCOD9576246
Probable space group: P 32 1 2
;
_chemical_formula_sum "Si O2"
_cell_formula_units_Z 42
_cell_length_a 8.399707
_cell_length_b 8.399707
_cell_length_c 31.212182
_cell_angle_alpha 90.000000
_cell_angle_beta 90.000000
_cell_angle_gamma 120.000000
_cell_volume 1907.142027
_symmetry_space_group_name_H-M "P 32 1 2"
_symmetry_group_IT_number 153
_symmetry_cell_setting 'hexagonal'
loop_
_space_group_symop_operation_xyz
x,y,z
-y,x-y,2/3+z
-x+y,-x,1/3+z
-y,-x,1/3-z
-x+y,y,2/3-z
x,x-y,-z
loop_
_atom_site_type_symbol
_atom_site_label
_atom_site_fract_x
_atom_site_fract_y
_atom_site_fract_z
Si Si1 0.670344 0.193150 0.965119
Si Si2 0.935145 0.538815 0.928465
Si Si3 0.801515 0.893640 0.309448
Si Si4 0.429534 0.879534 0.018180
Si Si5 0.536594 0.727493 0.815833
Si Si6 0.747775 0.646759 0.230309
Si Si7 0.567567 0.051033 0.108437
O O1 0.869474 0.336181 0.946485
O O2 0.526352 0.127578 0.925667
O O3 0.613845 0.009911 0.991103
O O4 0.634758 0.317379 0.000000
O O5 0.752610 0.521485 0.906886
O O6 0.992018 0.694586 0.964369
O O7 0.097436 0.617472 0.894254
O O8 0.657566 0.720302 0.338280
O O9 0.828980 0.812123 0.264733
O O10 0.994669 0.989338 0.333334
O O11 0.355079 0.677540 0.000000
O O12 0.481179 0.915160 0.067788
O O13 0.340937 0.681873 0.833334
O O14 0.617087 0.655739 0.852682
O O15 0.652922 0.943658 0.805180
O O16 0.885097 0.580162 0.213198
#
# Coordination Sequence:
#
# PCOD9576246 Si02
#       7
#     6   6   6   6   6   6   6
#     4  10  18  41  68 100 129 167 227 272 347 422
#     4  10  23  41  69  97 135 173 216 288 339 403
#     4  10  19  40  67 100 136 168 213 282 360 399
#     4  11  22  37  69 105 135 176 220 280 344 421
#     4  11  26  43  64  96 130 178 238 277 330 400
#     4   9  19  40  69  89 123 178 222 274 329 402
#     4  11  22  45  67  94 134 179 231 276 333 410
#
# _framework density 22.022480999999999
#
# number of rings (size 3 to 8) (size 9 to 14) (size 15 to 20)
#    0.000    1.714    4.286    1.286    6.000    3.429 
#    0.000    2.857    0.000    0.000    0.000    0.000 
#    0.000    0.000    0.000    0.000    0.000    0.000 
#
# Total GULP energy -234608.734608 kJ/mol
# GULP energy per Si atom -5585.922253 kJ/mol
# Density = 2.197236 g / cm^3
# Si number density = 22.022481 Si / 1000 Ang^3
#
#
#
# Elastic Constant Matrix: (Units=GPa)
#
#
# Indices 1 2 3 4 5 6 
#
# 1 81.6681 18.5552 35.8663 -0.0001 -0.6089 0.0000
# 2 18.5552 81.6681 35.8663 0.0001 0.6089 0.0000
# 3 35.8663 35.8663 103.5651 0.0000 0.0000 0.0000
# 4 -0.0001 0.0001 0.0000 30.2698 0.0000 0.6089
# 5 -0.6089 0.6089 0.0000 0.0000 30.2698 -0.0001
# 6 0.0000 0.0000 0.0000 0.6089 -0.0001 31.5564
#
#
#
# Elastic Compliance Matrix: (Units=1/GPa)
#
#
# Indices 1 2 3 4 5 6 
#
# 1 0.014558 -0.001292 -0.004594 0.000000 0.000319 0.000000
# 2 -0.001292 0.014558 -0.004594 0.000000 -0.000319 0.000000
# 3 -0.004594 -0.004594 0.012838 0.000000 0.000000 0.000000
# 4 0.000000 0.000000 0.000000 0.033049 0.000000 -0.000638
# 5 0.000319 -0.000319 0.000000 0.000000 0.033049 0.000000
# 6 0.000000 0.000000 0.000000 -0.000638 0.000000 0.031702
#
#
# Mechanical properties :
#
#
# Convention : Reuss Voigt Hill
#
# Bulk Modulus (GPa) = 47.63520 49.71965 48.67743
# Shear Modulus (GPa) = 29.81272 30.19343 30.00308
#
# Velocity S-wave (km/s) = 3.68331 3.70676 3.69505
# Velocity P-wave (km/s) = 6.30605 6.39889 6.35264
#
# Compressibility (1/GPa) = 0.02099288
#
# Stress axis : x y z
#
# Youngs Moduli (GPa) = 68.68909 68.68909 77.89455
#
# Poissons Ratio (x) = 0.08878 0.35786
# Poissons Ratio (y) = 0.08878 0.35786
# Poissons Ratio (z) = 0.31557 0.31557
#
# Static dielectric constant tensor:
#      x y z
#    x 1.831010 0.000000 0.000000 
#    y 0.000000 1.831010 0.000000 
#    z 0.000000 0.000000 1.820620 
# 
# From -- ./inp_files/5164.got.cif
#   From: 2010.05.17/outbox.cif.g08.bks.cpg/sg153_3_cif.got.tgz:5164.got - 2010.05.20 10:38:56.
