data_PCOD9576208
_publ_section_title
;
Structure prediction by ZEFSAII (Michael W. Deem and Ramdas Pophale) SiO2 
 PCOD9576208
Probable space group: P 31 2 1
;
_chemical_formula_sum "Si O2"
_cell_formula_units_Z 12
_cell_length_a 7.537127
_cell_length_b 7.537127
_cell_length_c 8.384522
_cell_angle_alpha 90.000000
_cell_angle_beta 90.000000
_cell_angle_gamma 120.000000
_cell_volume 412.496822
_symmetry_space_group_name_H-M "P 31 2 1"
_symmetry_group_IT_number 152
_symmetry_cell_setting 'hexagonal'
loop_
_space_group_symop_operation_xyz
x,y,z
-y,x-y,1/3+z
-x+y,-x,2/3+z
x-y,-y,2/3-z
-x,-x+y,1/3-z
y,x,-z
loop_
_atom_site_type_symbol
_atom_site_label
_atom_site_fract_x
_atom_site_fract_y
_atom_site_fract_z
Si Si1 0.758999 0.899898 0.631447
Si Si2 0.613417 0.212554 0.525471
O O1 0.733551 0.733551 0.500000
O O2 0.624832 0.766874 0.780011
O O3 0.675085 0.041435 0.560054
O O4 0.000000 0.022553 0.666667
O O5 0.653451 0.286553 0.343185
#
# Coordination Sequence:
#
# PCOD9576208 Si02
#       2
#     6   6
#     4  12  29  54  86 130 176 231 298 360 442 530
#     4  12  30  56  87 130 177 232 295 364 448 526
#
# _framework density 29.091132999999999
#
# number of rings (size 3 to 8) (size 9 to 14) (size 15 to 20)
#    0.000    0.000    0.000    7.500   21.000    0.000 
#    0.000    0.000    0.000    0.000    0.000    0.000 
#    0.000    0.000    0.000    0.000    0.000    0.000 
#
# Total GULP energy -67446.271145 kJ/mol
# GULP energy per Si atom -5620.522595 kJ/mol
# Density = 2.902492 g / cm^3
# Si number density = 29.091133 Si / 1000 Ang^3
#
#
#
# Elastic Constant Matrix: (Units=GPa)
#
#
# Indices 1 2 3 4 5 6 
#
# 1 162.8771 68.0307 58.1396 8.8164 0.0000 0.0000
# 2 68.0307 162.8771 58.1396 -8.8164 0.0000 0.0000
# 3 58.1396 58.1396 209.1198 0.0000 0.0000 0.0000
# 4 8.8164 -8.8164 0.0000 59.4757 0.0000 0.0000
# 5 0.0000 0.0000 0.0000 0.0000 59.4757 8.8164
# 6 0.0000 0.0000 0.0000 0.0000 8.8164 47.4232
#
#
#
# Elastic Compliance Matrix: (Units=1/GPa)
#
#
# Indices 1 2 3 4 5 6 
#
# 1 0.007939 -0.002903 -0.001400 -0.001607 0.000000 0.000000
# 2 -0.002903 0.007939 -0.001400 0.001607 0.000000 0.000000
# 3 -0.001400 -0.001400 0.005560 0.000000 0.000000 0.000000
# 4 -0.001607 0.001607 0.000000 0.017290 0.000000 0.000000
# 5 0.000000 0.000000 0.000000 0.000000 0.017290 -0.003214
# 6 0.000000 0.000000 0.000000 0.000000 -0.003214 0.021684
#
#
# Mechanical properties :
#
#
# Convention : Reuss Voigt Hill
#
# Bulk Modulus (GPa) = 99.68329 100.38819 100.03574
# Shear Modulus (GPa) = 54.08136 56.64585 55.36360
#
# Velocity S-wave (km/s) = 4.31633 4.41748 4.36720
# Velocity P-wave (km/s) = 7.69293 7.78472 7.73896
#
# Compressibility (1/GPa) = 0.01003177
#
# Stress axis : x y z
#
# Youngs Moduli (GPa) = 125.96114 125.96114 179.84228
#
# Poissons Ratio (x) = 0.36569 0.25179
# Poissons Ratio (y) = 0.36569 0.25179
# Poissons Ratio (z) = 0.17635 0.17635
#
# Static dielectric constant tensor:
#      x y z
#    x 2.279360 0.000000 0.000000 
#    y 0.000000 2.279360 0.000000 
#    z 0.000000 0.000000 2.368830 
# 
# From -- ./inp_files/630.got.cif
#   From: 2010.05.17/outbox.cif.g08.bks.cpg/sg152_1_cif.got.tgz:630.got - 2010.05.20 10:36:06.
