data_PCOD9576013
_publ_section_title
;
Structure prediction by ZEFSAII (Michael W. Deem and Ramdas Pophale) SiO2 
 PCOD9576013
Probable space group: P 31 2 1
;
_chemical_formula_sum "Si O2"
_cell_formula_units_Z 36
_cell_length_a 11.052578
_cell_length_b 11.052578
_cell_length_c 16.779599
_cell_angle_alpha 90.000000
_cell_angle_beta 90.000000
_cell_angle_gamma 120.000000
_cell_volume 1775.167697
_symmetry_space_group_name_H-M "P 31 2 1"
_symmetry_group_IT_number 152
_symmetry_cell_setting 'hexagonal'
loop_
_space_group_symop_operation_xyz
x,y,z
-y,x-y,1/3+z
-x+y,-x,2/3+z
x-y,-y,2/3-z
-x,-x+y,1/3-z
y,x,-z
loop_
_atom_site_type_symbol
_atom_site_label
_atom_site_fract_x
_atom_site_fract_y
_atom_site_fract_z
Si Si1 0.174664 0.880638 0.401781
Si Si2 0.000000 0.270046 0.166667
Si Si3 0.350018 0.350018 0.500000
Si Si4 0.933567 0.259371 0.887834
Si Si5 0.367085 0.610950 0.742810
Si Si6 0.036901 0.151445 0.299863
Si Si7 0.641247 0.428999 0.438111
O O1 0.214892 0.759982 0.399288
O O2 0.007024 0.814735 0.392692
O O3 0.250469 0.000000 0.333334
O O4 0.237894 0.963096 0.484212
O O5 0.938503 0.147247 0.229676
O O6 0.120850 0.407529 0.207831
O O7 0.325727 0.210927 0.541075
O O8 0.477392 0.386673 0.440258
O O9 0.891320 0.378370 0.896301
O O10 0.979465 0.229533 0.971013
O O11 0.338771 0.690459 0.817114
O O12 0.396588 0.674610 0.651290
O O13 0.976775 0.000000 0.333334
#
# Coordination Sequence:
#
# PCOD9576013 Si02
#       7
#     6   3   3   6   6   6   6
#     4  11  24  41  66  97 133 172 224 284 338 408
#     4  11  22  41  60  96 130 165 223 268 328 404
#     4   9  18  37  64  88 122 169 221 270 328 414
#     4  11  21  39  65  96 129 174 227 274 345 408
#     4  11  23  43  66  96 135 178 226 278 338 407
#     4  11  22  39  64  93 132 170 216 276 343 402
#     4  10  22  40  65  92 130 177 220 273 331 409
#
# _framework density 20.279772999999999
#
# number of rings (size 3 to 8) (size 9 to 14) (size 15 to 20)
#    0.000    1.333    1.667    6.000    0.000    2.667 
#    3.000    0.833    0.000    0.000    0.000    0.000 
#    0.000    0.000    0.000    0.000    0.000    0.000 
#
# Total GULP energy -200468.546918 kJ/mol
# GULP energy per Si atom -5568.570748 kJ/mol
# Density = 2.023362 g / cm^3
# Si number density = 20.279773 Si / 1000 Ang^3
#
#
#
# Elastic Constant Matrix: (Units=GPa)
#
#
# Indices 1 2 3 4 5 6 
#
# 1 52.6094 27.9858 46.3798 -1.4127 -0.0003 0.0000
# 2 27.9858 52.6094 46.3798 1.4127 0.0003 0.0000
# 3 46.3798 46.3798 158.7567 0.0000 0.0000 0.0000
# 4 -1.4127 1.4127 0.0000 21.4268 0.0000 0.0003
# 5 -0.0003 0.0003 0.0000 0.0000 21.4268 -1.4127
# 6 0.0000 0.0000 0.0000 0.0003 -1.4127 12.3118
#
#
#
# Elastic Compliance Matrix: (Units=1/GPa)
#
#
# Indices 1 2 3 4 5 6 
#
# 1 0.029807 -0.011114 -0.005461 0.002698 0.000001 0.000000
# 2 -0.011114 0.029807 -0.005461 -0.002698 -0.000001 0.000000
# 3 -0.005461 -0.005461 0.009490 0.000000 0.000000 0.000000
# 4 0.002698 -0.002698 0.000000 0.047026 0.000000 -0.000001
# 5 0.000001 -0.000001 0.000000 0.000000 0.047026 0.005396
# 6 0.000000 0.000000 0.000000 -0.000001 0.005396 0.081842
#
#
# Mechanical properties :
#
#
# Convention : Reuss Voigt Hill
#
# Bulk Modulus (GPa) = 39.94958 56.16293 48.05626
# Shear Modulus (GPa) = 16.81157 20.58177 18.69667
#
# Velocity S-wave (km/s) = 2.88233 3.18919 3.03964
# Velocity P-wave (km/s) = 5.55149 6.42771 6.00560
#
# Compressibility (1/GPa) = 0.02503155
#
# Stress axis : x y z
#
# Youngs Moduli (GPa) = 33.54919 33.54919 105.37672
#
# Poissons Ratio (x) = 0.37287 0.57547
# Poissons Ratio (y) = 0.37287 0.57547
# Poissons Ratio (z) = 0.18321 0.18321
#
# Static dielectric constant tensor:
#      x y z
#    x 1.760370 0.000000 0.000000 
#    y 0.000000 1.760370 0.000000 
#    z 0.000000 0.000000 1.881560 
# 
# From -- ./inp_files/2076.got.cif
#   From: 2010.05.17/outbox.cif.g08.bks.cpg/sg152_2_cif.got.tgz:2076.got - 2010.05.20 10:36:06.
