data_PCOD9576038
_publ_section_title
;
Structure prediction by ZEFSAII (Michael W. Deem and Ramdas Pophale) SiO2 
 PCOD9576038
Probable space group: P 31 2 1
;
_chemical_formula_sum "Si O2"
_cell_formula_units_Z 42
_cell_length_a 8.627189
_cell_length_b 8.627189
_cell_length_c 25.588029
_cell_angle_alpha 90.000000
_cell_angle_beta 90.000000
_cell_angle_gamma 120.000000
_cell_volume 1649.324426
_symmetry_space_group_name_H-M "P 31 2 1"
_symmetry_group_IT_number 152
_symmetry_cell_setting 'hexagonal'
loop_
_space_group_symop_operation_xyz
x,y,z
-y,x-y,1/3+z
-x+y,-x,2/3+z
x-y,-y,2/3-z
-x,-x+y,1/3-z
y,x,-z
loop_
_atom_site_type_symbol
_atom_site_label
_atom_site_fract_x
_atom_site_fract_y
_atom_site_fract_z
Si Si1 0.328263 0.318971 0.700354
Si Si2 0.303715 0.986607 0.265242
Si Si3 0.965504 0.640179 0.584811
Si Si4 0.635764 0.652008 0.359977
Si Si5 0.531083 0.413185 0.805158
Si Si6 0.979532 0.191084 0.484205
Si Si7 0.126476 0.623411 0.216633
O O1 0.144152 0.322033 0.696929
O O2 0.503982 0.486571 0.676797
O O3 0.384516 0.322598 0.760435
O O4 0.305309 0.136834 0.676597
O O5 0.474340 0.960611 0.272204
O O6 0.300327 0.074732 0.208727
O O7 0.144297 0.784815 0.252838
O O8 0.829958 0.630734 0.628780
O O9 0.885934 0.544835 0.528962
O O10 0.079800 0.841807 0.562370
O O11 0.587588 0.554434 0.416139
O O12 0.659619 0.326562 0.796423
O O13 0.611115 0.627846 0.798478
O O14 0.091662 0.091662 0.500000
O O15 0.000000 0.588157 0.166667
#
# Coordination Sequence:
#
# PCOD9576038 Si02
#       7
#     6   6   6   6   6   6   6
#     4  11  24  46  67  98 138 188 228 282 355 424
#     4  11  23  40  65 100 138 173 222 291 347 408
#     4  11  21  39  70 101 130 178 230 280 337 421
#     4  11  25  43  72  94 134 186 234 281 349 427
#     4  10  22  42  68  98 140 178 230 279 345 424
#     4  11  22  38  64 104 132 175 223 286 342 407
#     4  11  22  41  69 106 132 175 235 290 346 407
#
# _framework density 25.464973000000001
#
# number of rings (size 3 to 8) (size 9 to 14) (size 15 to 20)
#    0.000    1.143    4.286    2.143    2.000    0.571 
#   10.286    0.714    3.143    0.000    0.000    0.000 
#    0.000    0.000    0.000    0.000    0.000    0.000 
#
# Total GULP energy -233942.228168 kJ/mol
# GULP energy per Si atom -5570.053052 kJ/mol
# Density = 2.540701 g / cm^3
# Si number density = 25.464973 Si / 1000 Ang^3
#
#
#
# Elastic Constant Matrix: (Units=GPa)
#
#
# Indices 1 2 3 4 5 6 
#
# 1 105.7764 52.1755 12.1461 -0.0388 -0.0001 0.0000
# 2 52.1755 105.7764 12.1461 0.0388 0.0001 0.0000
# 3 12.1461 12.1461 41.8486 0.0000 0.0000 0.0000
# 4 -0.0388 0.0388 0.0000 33.4454 0.0000 0.0001
# 5 -0.0001 0.0001 0.0000 0.0000 33.4454 -0.0388
# 6 0.0000 0.0000 0.0000 0.0001 -0.0388 26.8004
#
#
#
# Elastic Compliance Matrix: (Units=1/GPa)
#
#
# Indices 1 2 3 4 5 6 
#
# 1 0.012642 -0.006015 -0.001923 0.000022 0.000000 0.000000
# 2 -0.006015 0.012642 -0.001923 -0.000022 0.000000 0.000000
# 3 -0.001923 -0.001923 0.025012 0.000000 0.000000 0.000000
# 4 0.000022 -0.000022 0.000000 0.029900 0.000000 0.000000
# 5 0.000000 0.000000 0.000000 0.000000 0.029900 0.000043
# 6 0.000000 0.000000 0.000000 0.000000 0.000043 0.037313
#
#
# Mechanical properties :
#
#
# Convention : Reuss Voigt Hill
#
# Bulk Modulus (GPa) = 32.70930 45.14854 38.92892
# Shear Modulus (GPa) = 28.19744 30.53385 29.36564
#
# Velocity S-wave (km/s) = 3.33123 3.46649 3.39953
# Velocity P-wave (km/s) = 5.26011 5.81294 5.54342
#
# Compressibility (1/GPa) = 0.03057234
#
# Stress axis : x y z
#
# Youngs Moduli (GPa) = 79.10367 79.10367 39.98065
#
# Poissons Ratio (x) = 0.47579 0.07690
# Poissons Ratio (y) = 0.47579 0.07690
# Poissons Ratio (z) = 0.15214 0.15214
#
# Static dielectric constant tensor:
#      x y z
#    x 2.040370 0.000000 0.000000 
#    y 0.000000 2.040370 0.000000 
#    z 0.000000 0.000000 2.104890 
# 
# From -- ./inp_files/3723.got.cif
#   From: 2010.05.17/outbox.cif.g08.bks.cpg/sg152_2_cif.got.tgz:3723.got - 2010.05.20 10:36:06.
