data_PCOD9576148
_publ_section_title
;
Structure prediction by ZEFSAII (Michael W. Deem and Ramdas Pophale) SiO2 
 PCOD9576148
Probable space group: P 31 2 1
;
_chemical_formula_sum "Si O2"
_cell_formula_units_Z 36
_cell_length_a 8.988535
_cell_length_b 8.988535
_cell_length_c 24.118083
_cell_angle_alpha 90.000000
_cell_angle_beta 90.000000
_cell_angle_gamma 120.000000
_cell_volume 1687.529000
_symmetry_space_group_name_H-M "P 31 2 1"
_symmetry_group_IT_number 152
_symmetry_cell_setting 'hexagonal'
loop_
_space_group_symop_operation_xyz
x,y,z
-y,x-y,1/3+z
-x+y,-x,2/3+z
x-y,-y,2/3-z
-x,-x+y,1/3-z
y,x,-z
loop_
_atom_site_type_symbol
_atom_site_label
_atom_site_fract_x
_atom_site_fract_y
_atom_site_fract_z
Si Si1 0.378522 0.052513 0.920269
Si Si2 0.363305 0.712395 0.897921
Si Si3 0.306306 0.591460 0.775250
Si Si4 0.965379 0.377677 0.384044
Si Si5 0.945576 0.026978 0.400364
Si Si6 0.970885 0.259906 0.732625
O O1 0.358730 0.886983 0.888594
O O2 0.221441 0.085143 0.908588
O O3 0.553930 0.228403 0.910507
O O4 0.375971 0.005573 0.985340
O O5 0.333276 0.609825 0.840944
O O6 0.213270 0.586138 0.939189
O O7 0.547482 0.759467 0.921368
O O8 0.452638 0.568673 0.745208
O O9 0.122018 0.431231 0.760129
O O10 0.956243 0.208170 0.410556
O O11 0.929809 0.000000 0.333334
O O12 0.116686 0.026592 0.418411
O O13 0.000000 0.276427 0.666667
#
# Coordination Sequence:
#
# PCOD9576148 Si02
#       6
#     6   6   6   6   6   6
#     4  11  22  41  66  92 122 165 214 259 308 376
#     4  12  25  41  61  93 130 164 205 264 322 368
#     4  12  25  41  61  93 130 164 205 264 322 368
#     4  11  22  41  66  92 122 165 214 259 308 376
#     4   9  21  39  64  92 118 153 208 263 304 354
#     4  11  22  41  66  92 122 165 214 259 308 376
#
# _framework density 21.332965000000002
#
# number of rings (size 3 to 8) (size 9 to 14) (size 15 to 20)
#    0.000    1.000    0.000    7.500    0.000    4.000 
#    0.000    7.500    0.000    0.000    0.000    0.000 
#    0.000    0.000    0.000    0.000    0.000    0.000 
#
# Total GULP energy -201599.780524 kJ/mol
# GULP energy per Si atom -5599.993903 kJ/mol
# Density = 2.128441 g / cm^3
# Si number density = 21.332965 Si / 1000 Ang^3
#
#
#
# Elastic Constant Matrix: (Units=GPa)
#
#
# Indices 1 2 3 4 5 6 
#
# 1 -28.5767 145.5647 -14.1088 97.9536 0.0197 0.0000
# 2 145.5647 -28.5767 -14.1088 -97.9536 -0.0197 0.0000
# 3 -14.1088 -14.1088 38.7285 0.0000 0.0000 0.0000
# 4 97.9536 -97.9536 0.0000 -49.0544 0.0000 -0.0197
# 5 0.0197 -0.0197 0.0000 0.0000 -49.0544 97.9536
# 6 0.0000 0.0000 0.0000 -0.0197 97.9536 -87.0707
#
#
#
# Elastic Compliance Matrix: (Units=1/GPa)
#
#
# Indices 1 2 3 4 5 6 
#
# 1 0.006989 0.002382 0.003414 0.009200 0.000002 0.000000
# 2 0.002382 0.006989 0.003414 -0.009200 -0.000002 0.000000
# 3 0.003414 0.003414 0.028308 0.000000 0.000000 0.000000
# 4 0.009200 -0.009200 0.000000 0.016355 0.000000 -0.000004
# 5 0.000002 -0.000002 0.000000 0.000000 0.016355 0.018400
# 6 0.000000 0.000000 0.000000 -0.000004 0.018400 0.009214
#
#
# Mechanical properties :
#
#
# Convention : Reuss Voigt Hill
#
# Bulk Modulus (GPa) = 16.47261 24.02992 20.25127
# Shear Modulus (GPa) = 58.12117 -46.08737 6.01690
#
# Velocity S-wave (km/s) = 5.22531 -4.65303 1.68125
# Velocity P-wave (km/s) = 6.64407 4.19273 3.64449
#
# Compressibility (1/GPa) = 0.06070682
#
# Stress axis : x y z
#
# Youngs Moduli (GPa) = 143.07672 143.07672 35.32545
#
# Poissons Ratio (x) = -0.34082 -0.12060
# Poissons Ratio (y) = -0.34082 -0.12060
# Poissons Ratio (z) = -0.48846 -0.48846
#
# Static dielectric constant tensor:
#      x y z
#    x 1.734580 0.000000 0.000000 
#    y 0.000000 1.734580 0.000000 
#    z 0.000000 0.000000 1.783460 
# 
# From -- ./inp_files/3403.got.cif
#   From: 2010.05.17/outbox.cif.g08.bks.cpg/sg152_2_cif.got.tgz:3403.got - 2010.05.20 10:36:06.
