data_PCOD9576137
_publ_section_title
;
Structure prediction by ZEFSAII (Michael W. Deem and Ramdas Pophale) SiO2 
 PCOD9576137
Probable space group: P 31 2 1
;
_chemical_formula_sum "Si O2"
_cell_formula_units_Z 36
_cell_length_a 12.647594
_cell_length_b 12.647594
_cell_length_c 14.014475
_cell_angle_alpha 90.000000
_cell_angle_beta 90.000000
_cell_angle_gamma 120.000000
_cell_volume 1941.436975
_symmetry_space_group_name_H-M "P 31 2 1"
_symmetry_group_IT_number 152
_symmetry_cell_setting 'hexagonal'
loop_
_space_group_symop_operation_xyz
x,y,z
-y,x-y,1/3+z
-x+y,-x,2/3+z
x-y,-y,2/3-z
-x,-x+y,1/3-z
y,x,-z
loop_
_atom_site_type_symbol
_atom_site_label
_atom_site_fract_x
_atom_site_fract_y
_atom_site_fract_z
Si Si1 0.627488 0.309658 0.304993
Si Si2 0.088399 0.306232 0.256812
Si Si3 0.136246 0.128207 0.387591
Si Si4 0.393431 0.933873 0.082344
Si Si5 0.371760 0.122452 0.395866
Si Si6 0.646829 0.172386 0.123658
O O1 0.605689 0.413582 0.258867
O O2 0.506609 0.218424 0.362478
O O3 0.649262 0.233344 0.224494
O O4 0.740869 0.381137 0.375636
O O5 0.097607 0.214143 0.331606
O O6 0.044356 0.387677 0.315937
O O7 0.226804 0.399552 0.223197
O O8 0.000000 0.241515 0.166667
O O9 0.106981 0.106981 0.500000
O O10 0.281314 0.176408 0.383600
O O11 0.070510 0.000000 0.333334
O O12 0.295170 0.915418 0.163112
O O13 0.525882 0.041867 0.112000
O O14 0.317800 0.000000 0.333334
#
# Coordination Sequence:
#
# PCOD9576137 Si02
#       6
#     6   6   6   6   6   6
#     4  11  22  38  61  89 126 162 206 259 315 374
#     4  11  24  44  64  91 130 168 211 260 318 377
#     4  11  23  41  66  93 123 165 212 259 310 379
#     4  11  22  40  63  92 126 163 208 258 314 379
#     4  11  21  38  64  90 122 161 204 259 313 371
#     4  11  23  39  61  92 123 165 212 259 316 383
#
# _framework density 18.542967999999998
#
# number of rings (size 3 to 8) (size 9 to 14) (size 15 to 20)
#    0.000    1.000    5.000    2.500    0.000    0.000 
#    0.000    0.833    3.667    0.000    0.000    0.000 
#    0.000    0.000    0.000    0.000    0.000    0.000 
#
# Total GULP energy -201064.221072 kJ/mol
# GULP energy per Si atom -5585.117252 kJ/mol
# Density = 1.850076 g / cm^3
# Si number density = 18.542968 Si / 1000 Ang^3
#
#
#
# Elastic Constant Matrix: (Units=GPa)
#
#
# Indices 1 2 3 4 5 6 
#
# 1 57.8602 29.7188 38.6080 -7.5570 0.0000 0.0000
# 2 29.7188 57.8602 38.6080 7.5570 0.0000 0.0000
# 3 38.6080 38.6080 125.6123 0.0000 0.0000 0.0000
# 4 -7.5570 7.5570 0.0000 32.8028 0.0000 0.0000
# 5 0.0000 0.0000 0.0000 0.0000 32.8028 -7.5570
# 6 0.0000 0.0000 0.0000 0.0000 -7.5570 14.0707
#
#
#
# Elastic Compliance Matrix: (Units=1/GPa)
#
#
# Indices 1 2 3 4 5 6 
#
# 1 0.028107 -0.012445 -0.004814 0.009342 0.000000 0.000000
# 2 -0.012445 0.028107 -0.004814 -0.009342 0.000000 0.000000
# 3 -0.004814 -0.004814 0.010920 0.000000 0.000000 0.000000
# 4 0.009342 -0.009342 0.000000 0.034790 0.000000 0.000000
# 5 0.000000 0.000000 0.000000 0.000000 0.034790 0.018685
# 6 0.000000 0.000000 0.000000 0.000000 0.018685 0.081105
#
#
# Mechanical properties :
#
#
# Convention : Reuss Voigt Hill
#
# Bulk Modulus (GPa) = 43.49828 50.57807 47.03817
# Shear Modulus (GPa) = 18.54406 24.89513 21.71959
#
# Velocity S-wave (km/s) = 3.16580 3.66808 3.42616
# Velocity P-wave (km/s) = 6.07224 6.72868 6.40887
#
# Compressibility (1/GPa) = 0.02298941
#
# Stress axis : x y z
#
# Youngs Moduli (GPa) = 35.57770 35.57770 91.57266
#
# Poissons Ratio (x) = 0.44276 0.44084
# Poissons Ratio (y) = 0.44276 0.44084
# Poissons Ratio (z) = 0.17127 0.17127
#
# Static dielectric constant tensor:
#      x y z
#    x 1.613490 0.000000 0.000000 
#    y 0.000000 1.613490 0.000000 
#    z 0.000000 0.000000 1.653310 
# 
# From -- ./inp_files/2033.got.cif
#   From: 2010.05.17/outbox.cif.g08.bks.cpg/sg152_2_cif.got.tgz:2033.got - 2010.05.20 10:36:06.
