data_PCOD9576687
_publ_section_title
;
Structure prediction by ZEFSAII (Michael W. Deem and Ramdas Pophale) SiO2 
 PCOD9576687
Probable space group: P 32 2 1
;
_chemical_formula_sum "Si O2"
_cell_formula_units_Z 12
_cell_length_a 7.157798
_cell_length_b 7.157798
_cell_length_c 10.539013
_cell_angle_alpha 90.000000
_cell_angle_beta 90.000000
_cell_angle_gamma 120.000000
_cell_volume 467.616092
_symmetry_space_group_name_H-M "P 32 2 1"
_symmetry_group_IT_number 154
_symmetry_cell_setting 'hexagonal'
loop_
_space_group_symop_operation_xyz
x,y,z
-y,x-y,2/3+z
-x+y,-x,1/3+z
x-y,-y,1/3-z
-x,-x+y,2/3-z
y,x,-z
loop_
_atom_site_type_symbol
_atom_site_label
_atom_site_fract_x
_atom_site_fract_y
_atom_site_fract_z
Si Si1 0.191961 0.380549 0.731391
Si Si2 0.188587 0.380548 0.101943
O O1 0.373808 0.626193 0.750000
O O2 0.307331 0.243435 0.766935
O O3 0.000000 0.317246 0.833334
O O4 0.063898 0.307334 0.600269
O O5 0.317243 0.317243 0.000000
#
# Coordination Sequence:
#
# PCOD9576687 Si02
#       2
#     6   6
#     4  10  24  49  70 107 148 192 242 302 361 433
#     4  10  24  49  70 107 148 192 242 302 361 433
#
# _framework density 25.662078000000001
#
# number of rings (size 3 to 8) (size 9 to 14) (size 15 to 20)
#    0.000    2.000    0.000    0.000   14.000    0.000 
#   36.000    0.000    0.000    0.000    0.000    0.000 
#    0.000    0.000    0.000    0.000    0.000    0.000 
#
# Total GULP energy -67189.766769 kJ/mol
# GULP energy per Si atom -5599.147231 kJ/mol
# Density = 2.560367 g / cm^3
# Si number density = 25.662078 Si / 1000 Ang^3
#
#
#
# Elastic Constant Matrix: (Units=GPa)
#
#
# Indices 1 2 3 4 5 6 
#
# 1 217.1610 85.9283 37.8382 -0.0004 -0.0001 0.0000
# 2 85.9283 217.1610 37.8382 0.0004 0.0001 0.0000
# 3 37.8382 37.8382 28.9142 0.0000 0.0000 0.0000
# 4 -0.0004 0.0004 0.0000 27.5519 0.0000 0.0001
# 5 -0.0001 0.0001 0.0000 0.0000 27.5519 -0.0004
# 6 0.0000 0.0000 0.0000 0.0001 -0.0004 65.6164
#
#
#
# Elastic Compliance Matrix: (Units=1/GPa)
#
#
# Indices 1 2 3 4 5 6 
#
# 1 0.006260 -0.001360 -0.006413 0.000000 0.000000 0.000000
# 2 -0.001360 0.006260 -0.006413 0.000000 0.000000 0.000000
# 3 -0.006413 -0.006413 0.051370 0.000000 0.000000 0.000000
# 4 0.000000 0.000000 0.000000 0.036295 0.000000 0.000000
# 5 0.000000 0.000000 0.000000 0.000000 0.036295 0.000000
# 6 0.000000 0.000000 0.000000 0.000000 0.000000 0.015240
#
#
# Mechanical properties :
#
#
# Convention : Reuss Voigt Hill
#
# Bulk Modulus (GPa) = 28.15422 87.38284 57.76853
# Shear Modulus (GPa) = 26.05086 44.25281 35.15184
#
# Velocity S-wave (km/s) = 3.18960 4.15715 3.70509
# Velocity P-wave (km/s) = 4.95577 7.56094 6.39247
#
# Compressibility (1/GPa) = 0.03551865
#
# Stress axis : x y z
#
# Youngs Moduli (GPa) = 159.73605 159.73605 19.46667
#
# Poissons Ratio (x) = 0.21720 0.12484
# Poissons Ratio (y) = 0.21720 0.12484
# Poissons Ratio (z) = 1.02440 1.02440
#
# Static dielectric constant tensor:
#      x y z
#    x 2.012730 0.000000 0.000000 
#    y 0.000000 2.012730 0.000000 
#    z 0.000000 0.000000 2.251330 
# 
# From -- ./inp_files/1337.got.cif
#   From: 2010.05.17/outbox.cif.g08.bks.cpg/sg154_1_cif.got.tgz:1337.got - 2010.05.20 10:41:43.
