data_PCOD9576264
_publ_section_title
;
Structure prediction by ZEFSAII (Michael W. Deem and Ramdas Pophale) SiO2 
 PCOD9576264
Probable space group: P 32 1 2
;
_chemical_formula_sum "Si O2"
_cell_formula_units_Z 39
_cell_length_a 8.463206
_cell_length_b 8.463206
_cell_length_c 29.989862
_cell_angle_alpha 90.000000
_cell_angle_beta 90.000000
_cell_angle_gamma 120.000000
_cell_volume 1860.265462
_symmetry_space_group_name_H-M "P 32 1 2"
_symmetry_group_IT_number 153
_symmetry_cell_setting 'hexagonal'
loop_
_space_group_symop_operation_xyz
x,y,z
-y,x-y,2/3+z
-x+y,-x,1/3+z
-y,-x,1/3-z
-x+y,y,2/3-z
x,x-y,-z
loop_
_atom_site_type_symbol
_atom_site_label
_atom_site_fract_x
_atom_site_fract_y
_atom_site_fract_z
Si Si1 0.878859 0.696173 0.285840
Si Si2 0.580055 0.502667 0.075068
Si Si3 0.892792 0.464573 0.907800
Si Si4 0.142511 0.747190 0.770385
Si Si5 0.681861 0.122471 0.025907
Si Si6 0.857527 0.715054 0.833334
Si Si7 0.608151 0.820838 0.551018
O O1 0.895731 0.791462 0.333334
O O2 0.678199 0.614279 0.265636
O O3 0.881080 0.509003 0.297577
O O4 0.035699 0.800952 0.250187
O O5 0.721909 0.459986 0.099833
O O6 0.551789 0.651522 0.099142
O O7 0.675662 0.579911 0.026741
O O8 0.842956 0.530527 0.954012
O O9 0.884365 0.591274 0.869667
O O10 0.078711 0.459379 0.903994
O O11 0.133713 0.557152 0.783029
O O12 0.037540 0.709492 0.723090
O O13 0.042848 0.810679 0.805617
O O14 0.669738 0.834869 0.500000
#
# Coordination Sequence:
#
# PCOD9576264 Si02
#       7
#     6   6   6   6   6   3   6
#     4   8  17  36  60  87 122 163 208 256 317 383
#     4  10  19  37  61  92 113 162 208 260 318 384
#     4  10  20  36  60  85 120 166 206 256 312 381
#     4  10  20  37  61  91 123 160 208 263 321 379
#     4   8  17  36  63  85 120 155 208 252 314 380
#     4  10  20  40  56  82 124 178 204 252 314 390
#     4  11  21  38  60  90 128 168 214 266 318 398
#
# _framework density 20.964751
#
# number of rings (size 3 to 8) (size 9 to 14) (size 15 to 20)
#    0.000    2.462    1.538    2.769    0.000    0.000 
#    2.769   13.846    0.000    0.000    0.000    0.000 
#    0.000    0.000    0.000    0.000    0.000    0.000 
#
# Total GULP energy -217670.470436 kJ/mol
# GULP energy per Si atom -5581.294114 kJ/mol
# Density = 2.091703 g / cm^3
# Si number density = 20.964751 Si / 1000 Ang^3
#
#
#
# Elastic Constant Matrix: (Units=GPa)
#
#
# Indices 1 2 3 4 5 6 
#
# 1 65.6292 4.2843 26.9049 -0.0002 5.0195 0.0000
# 2 4.2843 65.6292 26.9049 0.0002 -5.0195 0.0000
# 3 26.9049 26.9049 87.9175 0.0000 0.0000 0.0000
# 4 -0.0002 0.0002 0.0000 13.1803 0.0000 -5.0195
# 5 5.0195 -5.0195 0.0000 0.0000 13.1803 -0.0002
# 6 0.0000 0.0000 0.0000 -5.0195 -0.0002 30.6725
#
#
#
# Elastic Compliance Matrix: (Units=1/GPa)
#
#
# Indices 1 2 3 4 5 6 
#
# 1 0.018048 0.000663 -0.005726 0.000000 -0.006621 0.000000
# 2 0.000663 0.018048 -0.005726 0.000000 0.006621 0.000000
# 3 -0.005726 -0.005726 0.014879 0.000000 0.000000 0.000000
# 4 0.000000 0.000000 0.000000 0.080914 0.000000 0.013241
# 5 -0.006621 0.006621 0.000000 0.000000 0.080914 0.000001
# 6 0.000000 0.000000 0.000000 0.013241 0.000001 0.034769
#
#
# Mechanical properties :
#
#
# Convention : Reuss Voigt Hill
#
# Bulk Modulus (GPa) = 34.01803 37.26266 35.64035
# Shear Modulus (GPa) = 17.92454 22.14540 20.03497
#
# Velocity S-wave (km/s) = 2.92718 3.25363 3.09471
# Velocity P-wave (km/s) = 5.26176 5.65043 5.45955
#
# Compressibility (1/GPa) = 0.02939617
#
# Stress axis : x y z
#
# Youngs Moduli (GPa) = 55.40925 55.40925 67.20984
#
# Poissons Ratio (x) = -0.03672 0.38483
# Poissons Ratio (y) = -0.03672 0.38483
# Poissons Ratio (z) = 0.31726 0.31726
#
# Static dielectric constant tensor:
#      x y z
#    x 1.753410 0.000000 0.000000 
#    y 0.000000 1.753410 0.000000 
#    z 0.000000 0.000000 1.770140 
# 
# From -- ./inp_files/5087.got.cif
#   From: 2010.05.17/outbox.cif.g08.bks.cpg/sg153_3_cif.got.tgz:5087.got - 2010.05.20 10:38:56.
