data_PCOD9576968
_publ_section_title
;
Structure prediction by ZEFSAII (Michael W. Deem and Ramdas Pophale) SiO2 
 PCOD9576968
Probable space group: R 3 2
;
_chemical_formula_sum "Si O2"
_cell_formula_units_Z 144
_cell_length_a 28.961666
_cell_length_b 28.961666
_cell_length_c 10.017846
_cell_angle_alpha 90.000000
_cell_angle_beta 90.000000
_cell_angle_gamma 120.000000
_cell_volume 7276.994796
_symmetry_space_group_name_H-M "R 3 2"
_symmetry_group_IT_number 155
_symmetry_cell_setting 'hexagonal'
loop_
_space_group_symop_operation_xyz
x,y,z
-y,x-y,z
-x+y,-x,z
x-y,-y,-z
-x,-x+y,-z
y,x,-z
2/3+x,1/3+y,1/3+z
2/3-y,1/3+x-y,1/3+z
2/3-x+y,1/3-x,1/3+z
2/3+x-y,1/3-y,1/3-z
2/3-x,1/3-x+y,1/3-z
2/3+y,1/3+x,1/3-z
1/3+x,2/3+y,2/3+z
1/3-y,2/3+x-y,2/3+z
1/3-x+y,2/3-x,2/3+z
1/3+x-y,2/3-y,2/3-z
1/3-x,2/3-x+y,2/3-z
1/3+y,2/3+x,2/3-z
loop_
_atom_site_type_symbol
_atom_site_label
_atom_site_fract_x
_atom_site_fract_y
_atom_site_fract_z
Si Si1 0.716671 0.809676 0.026764
Si Si2 0.626643 0.149373 0.444988
Si Si3 0.968737 0.819895 0.625604
Si Si4 0.612797 0.489948 0.543640
Si Si5 0.190491 0.455310 0.389883
Si Si6 0.456032 0.059933 0.806626
Si Si7 0.129103 0.766625 0.705348
Si Si8 0.428214 0.391889 0.872700
O O1 0.756554 0.848161 0.140378
O O2 0.668897 0.759120 0.100315
O O3 0.750761 0.804312 0.907021
O O4 0.692131 0.842949 0.961139
O O5 0.666667 0.191188 0.333334
O O6 0.658770 0.157943 0.582397
O O7 0.570373 0.145739 0.488283
O O8 0.608596 0.091484 0.381942
O O9 0.917770 0.821934 0.677122
O O10 0.946705 0.759807 0.571812
O O11 0.000000 0.856902 0.500000
O O12 0.672834 0.506068 0.580474
O O13 0.593590 0.504367 0.681180
O O14 0.157974 0.411692 0.274340
O O15 0.416444 0.083111 0.833334
O O16 0.094163 0.760829 0.833334
O O17 0.097611 0.767401 0.578014
O O18 0.382618 0.333334 0.833334
O O19 0.412883 0.412883 0.000000
#
# Coordination Sequence:
#
# PCOD9576968 Si02
#       8
#    18  18  18  18  18  18  18  18
#     4  11  20  36  59  85 116 154 199 240 288 348
#     4  11  22  38  59  85 115 153 200 244 292 351
#     4  11  22  38  60  87 116 150 196 245 295 352
#     4  10  22  40  61  86 118 156 200 246 296 357
#     4  11  22  38  61  89 119 152 196 248 301 357
#     4  10  21  37  58  87 123 161 198 240 290 347
#     4  11  22  37  57  79 112 154 195 242 288 343
#     4  11  23  36  52  80 117 156 197 241 288 339
#
# _framework density 19.788388999999999
#
# number of rings (size 3 to 8) (size 9 to 14) (size 15 to 20)
#    0.000    1.250    0.000    8.625    0.000    2.000 
#    0.000    5.000    0.000    0.500    0.000    6.125 
#    0.000    0.000    0.000    0.000    0.000    0.000 
#
# Total GULP energy -268019.608662 kJ/mol
# GULP energy per Si atom -5583.741847 kJ/mol
# Density = 1.974335 g / cm^3
# Si number density = 19.788389 Si / 1000 Ang^3
#
#
#
# Elastic Constant Matrix: (Units=GPa)
#
#
# Indices 1 2 3 4 5 6 
#
# 1 88.3936 37.0425 41.6458 -1.4947 0.0042 -0.0022
# 2 37.0425 88.4084 41.6436 1.4851 -0.0014 0.0001
# 3 41.6458 41.6436 159.9950 -0.0148 -0.0196 -0.0078
# 4 -1.4947 1.4851 -0.0148 56.0916 -0.0149 -0.0072
# 5 0.0042 -0.0014 -0.0196 -0.0149 56.0969 -1.4931
# 6 -0.0022 0.0001 -0.0078 -0.0072 -1.4931 25.6824
#
#
#
# Elastic Compliance Matrix: (Units=1/GPa)
#
#
# Indices 1 2 3 4 5 6 
#
# 1 0.014571 -0.004932 -0.002509 0.000518 -0.000002 0.000001
# 2 -0.004932 0.014568 -0.002508 -0.000518 0.000000 -0.000001
# 3 -0.002509 -0.002508 0.007556 0.000002 0.000003 0.000002
# 4 0.000518 -0.000518 0.000002 0.017855 0.000005 0.000005
# 5 -0.000002 0.000000 0.000003 0.000005 0.017854 0.001038
# 6 0.000001 -0.000001 0.000002 0.000005 0.001038 0.038998
#
#
# Mechanical properties :
#
#
# Convention : Reuss Voigt Hill
#
# Bulk Modulus (GPa) = 59.53557 64.16232 61.84894
# Shear Modulus (GPa) = 36.52361 42.00519 39.26440
#
# Velocity S-wave (km/s) = 4.30083 4.61230 4.45928
# Velocity P-wave (km/s) = 7.40367 7.80122 7.60504
#
# Compressibility (1/GPa) = 0.01679668
#
# Stress axis : x y z
#
# Youngs Moduli (GPa) = 68.63114 68.64534 132.34454
#
# Poissons Ratio (x) = 0.33855 0.33204
# Poissons Ratio (y) = 0.33848 0.33192
# Poissons Ratio (z) = 0.17219 0.17216
#
# Static dielectric constant tensor:
#      x y z
#    x 1.669150 0.000000 -0.000010 
#    y 0.000000 1.669240 0.000030 
#    z -0.000010 0.000030 1.691670 
# 
# From -- ./inp_files/3072.got.cif
#   From: 2010.05.17/outbox.cif.g08.bks.cpg/sg155_2_cif.got.tgz:3072.got - 2010.05.20 10:44:35.
