data_PCOD9576386
_publ_section_title
;
Structure prediction by ZEFSAII (Michael W. Deem and Ramdas Pophale) SiO2 
 PCOD9576386
Probable space group: P 32 2 1
;
_chemical_formula_sum "Si O2"
_cell_formula_units_Z 48
_cell_length_a 11.925111
_cell_length_b 11.925111
_cell_length_c 20.740798
_cell_angle_alpha 90.000000
_cell_angle_beta 90.000000
_cell_angle_gamma 120.000000
_cell_volume 2554.353231
_symmetry_space_group_name_H-M "P 32 2 1"
_symmetry_group_IT_number 154
_symmetry_cell_setting 'hexagonal'
loop_
_space_group_symop_operation_xyz
x,y,z
-y,x-y,2/3+z
-x+y,-x,1/3+z
x-y,-y,1/3-z
-x,-x+y,2/3-z
y,x,-z
loop_
_atom_site_type_symbol
_atom_site_label
_atom_site_fract_x
_atom_site_fract_y
_atom_site_fract_z
Si Si1 0.734865 0.302754 0.852681
Si Si2 0.974502 0.454608 0.534412
Si Si3 0.306923 0.597221 0.959934
Si Si4 0.381151 0.043601 0.997405
Si Si5 0.379700 0.528445 0.368552
Si Si6 0.057506 0.417509 0.265143
Si Si7 0.732743 0.820914 0.438869
Si Si8 0.738378 0.079853 0.406473
O O1 0.590843 0.179586 0.864887
O O2 0.743553 0.336811 0.778271
O O3 0.784241 0.430946 0.895599
O O4 0.831534 0.248777 0.870560
O O5 0.993869 0.369516 0.589034
O O6 0.020999 0.443261 0.463192
O O7 0.044277 0.603300 0.558402
O O8 0.196242 0.477259 0.997837
O O9 0.433819 0.584811 0.952622
O O10 0.357676 0.736374 0.992330
O O11 0.455952 0.976301 0.030481
O O12 0.255734 0.994662 0.042384
O O13 0.284940 0.393068 0.334330
O O14 0.146664 0.363117 0.236970
O O15 0.000000 0.350898 0.333334
O O16 0.810961 0.810961 0.500000
O O17 0.765751 0.963849 0.418196
#
# Coordination Sequence:
#
# PCOD9576386 Si02
#       8
#     6   6   6   6   6   6   6   6
#     4   9  16  29  51  80 112 144 192 240 302 344
#     4   9  18  34  57  82 114 144 182 248 294 351
#     4  10  18  32  52  83 111 145 193 242 287 348
#     4  10  18  30  53  81 115 146 190 242 293 335
#     4   9  18  30  48  78 114 157 177 233 295 347
#     4  10  22  39  60  82 110 151 185 234 298 367
#     4  10  18  31  57  81 109 156 197 246 292 349
#     4   9  20  37  55  82 117 152 195 230 304 355
#
# _framework density 18.791450000000001
#
# number of rings (size 3 to 8) (size 9 to 14) (size 15 to 20)
#    0.000    2.500    2.500    0.000    1.750    1.000 
#   11.250    0.000    2.750    0.000    0.000    0.000 
#    0.000    0.000    0.000    0.000    0.000    0.000 
#
# Total GULP energy -267235.246585 kJ/mol
# GULP energy per Si atom -5567.400971 kJ/mol
# Density = 1.874868 g / cm^3
# Si number density = 18.791450 Si / 1000 Ang^3
#
#
#
# Elastic Constant Matrix: (Units=GPa)
#
#
# Indices 1 2 3 4 5 6 
#
# 1 58.1491 21.9201 21.2372 -3.4238 -0.0002 0.0000
# 2 21.9201 58.1491 21.2372 3.4238 0.0002 0.0000
# 3 21.2372 21.2372 97.9595 0.0000 0.0000 0.0000
# 4 -3.4238 3.4238 0.0000 18.8307 0.0000 0.0002
# 5 -0.0002 0.0002 0.0000 0.0000 18.8307 -3.4238
# 6 0.0000 0.0000 0.0000 0.0002 -3.4238 18.1145
#
#
#
# Elastic Compliance Matrix: (Units=1/GPa)
#
#
# Indices 1 2 3 4 5 6 
#
# 1 0.021348 -0.007236 -0.003059 0.005197 0.000000 0.000000
# 2 -0.007236 0.021348 -0.003059 -0.005197 0.000000 0.000000
# 3 -0.003059 -0.003059 0.011535 0.000000 0.000000 0.000000
# 4 0.005197 -0.005197 0.000000 0.054995 0.000000 -0.000001
# 5 0.000000 0.000000 0.000000 0.000000 0.054995 0.010395
# 6 0.000000 0.000000 0.000000 -0.000001 0.010395 0.057169
#
#
# Mechanical properties :
#
#
# Convention : Reuss Voigt Hill
#
# Bulk Modulus (GPa) = 36.33545 38.11631 37.22588
# Shear Modulus (GPa) = 19.43453 21.14606 20.29030
#
# Velocity S-wave (km/s) = 3.21942 3.35819 3.28954
# Velocity P-wave (km/s) = 5.76174 5.94681 5.85501
#
# Compressibility (1/GPa) = 0.02752133
#
# Stress axis : x y z
#
# Youngs Moduli (GPa) = 46.84202 46.84202 86.69374
#
# Poissons Ratio (x) = 0.33896 0.26524
# Poissons Ratio (y) = 0.33896 0.26524
# Poissons Ratio (z) = 0.14331 0.14331
#
# Static dielectric constant tensor:
#      x y z
#    x 1.663200 0.000000 0.000000 
#    y 0.000000 1.663200 0.000000 
#    z 0.000000 0.000000 1.709230 
# 
# From -- ./inp_files/2861.got.cif
#   From: 2010.05.17/outbox.cif.g08.bks.cpg/sg154_2_cif.got.tgz:2861.got - 2010.05.20 10:41:43.
