data_PCOD9576101
_publ_section_title
;
Structure prediction by ZEFSAII (Michael W. Deem and Ramdas Pophale) SiO2 
 PCOD9576101
Probable space group: P 31 2 1
;
_chemical_formula_sum "Si O2"
_cell_formula_units_Z 18
_cell_length_a 8.637834
_cell_length_b 8.637834
_cell_length_c 10.862897
_cell_angle_alpha 90.000000
_cell_angle_beta 90.000000
_cell_angle_gamma 120.000000
_cell_volume 701.917387
_symmetry_space_group_name_H-M "P 31 2 1"
_symmetry_group_IT_number 152
_symmetry_cell_setting 'hexagonal'
loop_
_space_group_symop_operation_xyz
x,y,z
-y,x-y,1/3+z
-x+y,-x,2/3+z
x-y,-y,2/3-z
-x,-x+y,1/3-z
y,x,-z
loop_
_atom_site_type_symbol
_atom_site_label
_atom_site_fract_x
_atom_site_fract_y
_atom_site_fract_z
Si Si1 0.475139 0.475139 0.000000
Si Si2 0.166994 0.867886 0.056374
Si Si3 0.670175 0.139015 0.593913
Si Si4 0.000000 0.041259 0.166667
O O1 0.412969 0.347665 0.120397
O O2 0.493831 0.663017 0.043440
O O3 0.344672 0.859232 0.058327
O O4 0.154191 0.985536 0.168101
O O5 0.144566 0.977445 0.945332
O O6 0.002922 0.670279 0.025258
#
# Coordination Sequence:
#
# PCOD9576101 Si02
#       4
#     3   6   6   3
#     4  12  28  48  74 110 152 198 254 312 374 446
#     4  11  24  44  72 105 146 194 247 305 370 440
#     4  12  26  47  74 109 149 197 249 309 374 447
#     4  10  24  46  70 102 146 198 250 304 366 440
#
# _framework density 25.644045999999999
#
# number of rings (size 3 to 8) (size 9 to 14) (size 15 to 20)
#    0.000    0.667    0.000    8.000    0.000   12.000 
#    0.000    0.000    0.000    0.000    0.000    0.000 
#    0.000    0.000    0.000    0.000    0.000    0.000 
#
# Total GULP energy -100647.195358 kJ/mol
# GULP energy per Si atom -5591.510853 kJ/mol
# Density = 2.558568 g / cm^3
# Si number density = 25.644046 Si / 1000 Ang^3
#
#
#
# Elastic Constant Matrix: (Units=GPa)
#
#
# Indices 1 2 3 4 5 6 
#
# 1 166.4792 48.8164 31.3771 13.1819 0.0002 0.0000
# 2 48.8164 166.4792 31.3771 -13.1819 -0.0002 0.0000
# 3 31.3771 31.3771 127.3594 0.0000 0.0000 0.0000
# 4 13.1819 -13.1819 0.0000 47.2783 0.0000 -0.0002
# 5 0.0002 -0.0002 0.0000 0.0000 47.2783 13.1819
# 6 0.0000 0.0000 0.0000 -0.0002 13.1819 58.8314
#
#
#
# Elastic Compliance Matrix: (Units=1/GPa)
#
#
# Indices 1 2 3 4 5 6 
#
# 1 0.007035 -0.002031 -0.001233 -0.002528 0.000000 0.000000
# 2 -0.002031 0.007035 -0.001233 0.002528 0.000000 0.000000
# 3 -0.001233 -0.001233 0.008459 0.000000 0.000000 0.000000
# 4 -0.002528 0.002528 0.000000 0.022561 0.000000 0.000000
# 5 0.000000 0.000000 0.000000 0.000000 0.022561 -0.005055
# 6 0.000000 0.000000 0.000000 0.000000 -0.005055 0.018130
#
#
# Mechanical properties :
#
#
# Convention : Reuss Voigt Hill
#
# Bulk Modulus (GPa) = 73.87642 75.93989 74.90815
# Shear Modulus (GPa) = 50.36006 53.92741 52.14373
#
# Velocity S-wave (km/s) = 4.43630 4.59074 4.51418
# Velocity P-wave (km/s) = 7.42374 7.60113 7.51296
#
# Compressibility (1/GPa) = 0.01353612
#
# Stress axis : x y z
#
# Youngs Moduli (GPa) = 142.15339 142.15339 118.21361
#
# Poissons Ratio (x) = 0.28865 0.14574
# Poissons Ratio (y) = 0.28865 0.14574
# Poissons Ratio (z) = 0.17525 0.17525
#
# Static dielectric constant tensor:
#      x y z
#    x 2.067200 0.000000 0.000000 
#    y 0.000000 2.067200 0.000000 
#    z 0.000000 0.000000 1.512720 
# 
# From -- ./inp_files/1470.got.cif
#   From: 2010.05.17/outbox.cif.g08.bks.cpg/sg152_1_cif.got.tgz:1470.got - 2010.05.20 10:36:06.
