data_PCOD9576259
_publ_section_title
;
Structure prediction by ZEFSAII (Michael W. Deem and Ramdas Pophale) SiO2 
 PCOD9576259
Probable space group: P 32 1 2
;
_chemical_formula_sum "Si O2"
_cell_formula_units_Z 27
_cell_length_a 9.275072
_cell_length_b 9.275072
_cell_length_c 16.298965
_cell_angle_alpha 90.000000
_cell_angle_beta 90.000000
_cell_angle_gamma 120.000000
_cell_volume 1214.297884
_symmetry_space_group_name_H-M "P 32 1 2"
_symmetry_group_IT_number 153
_symmetry_cell_setting 'hexagonal'
loop_
_space_group_symop_operation_xyz
x,y,z
-y,x-y,2/3+z
-x+y,-x,1/3+z
-y,-x,1/3-z
-x+y,y,2/3-z
x,x-y,-z
loop_
_atom_site_type_symbol
_atom_site_label
_atom_site_fract_x
_atom_site_fract_y
_atom_site_fract_z
Si Si1 0.865111 0.782372 0.659477
Si Si2 0.308947 0.984706 0.991169
Si Si3 0.377546 0.763834 0.586121
Si Si4 0.219279 0.109640 0.500000
Si Si5 0.273674 0.960795 0.809329
O O1 0.841853 0.689726 0.746303
O O2 0.885403 0.683099 0.583756
O O3 0.734479 0.848962 0.653401
O O4 0.046814 0.953187 0.666667
O O5 0.415197 0.941580 0.053118
O O6 0.361210 0.978801 0.896660
O O7 0.325906 0.162953 0.000000
O O8 0.350434 0.649567 0.666667
O O9 0.417378 0.708689 0.500000
O O10 0.200078 0.750256 0.572247
O O11 0.097265 0.184289 0.506295
#
# Coordination Sequence:
#
# PCOD9576259 Si02
#       5
#     6   6   6   3   6
#     4   8  15  29  54  83 110 146 204 263 302 366
#     4  10  22  37  60  94 126 162 220 276 324 389
#     4  12  24  40  59  94 134 172 211 271 347 408
#     4   8  14  28  52  80 104 144 206 250 300 364
#     4  10  19  36  59  89 121 166 211 266 331 391
#
# _framework density 22.235071000000001
#
# number of rings (size 3 to 8) (size 9 to 14) (size 15 to 20)
#    0.000    2.222    2.222    3.333    3.111    0.000 
#    0.000    0.000    0.000    2.667    0.000    0.000 
#    0.000    0.000    0.000    0.000    0.000    0.000 
#
# Total GULP energy -150466.957445 kJ/mol
# GULP energy per Si atom -5572.850276 kJ/mol
# Density = 2.218446 g / cm^3
# Si number density = 22.235071 Si / 1000 Ang^3
#
#
#
# Elastic Constant Matrix: (Units=GPa)
#
#
# Indices 1 2 3 4 5 6 
#
# 1 59.6763 28.7807 36.5379 0.0001 0.1504 0.0000
# 2 28.7807 59.6763 36.5379 -0.0001 -0.1504 0.0000
# 3 36.5379 36.5379 183.0009 0.0000 0.0000 0.0000
# 4 0.0001 -0.0001 0.0000 28.3304 0.0000 -0.1504
# 5 0.1504 -0.1504 0.0000 0.0000 28.3304 0.0001
# 6 0.0000 0.0000 0.0000 -0.1504 0.0001 15.4478
#
#
#
# Elastic Compliance Matrix: (Units=1/GPa)
#
#
# Indices 1 2 3 4 5 6 
#
# 1 0.022953 -0.009415 -0.002703 0.000000 -0.000172 0.000000
# 2 -0.009415 0.022953 -0.002703 0.000000 0.000172 0.000000
# 3 -0.002703 -0.002703 0.006544 0.000000 0.000000 0.000000
# 4 0.000000 0.000000 0.000000 0.035300 0.000000 0.000344
# 5 -0.000172 0.000172 0.000000 0.000000 0.035300 0.000000
# 6 0.000000 0.000000 0.000000 0.000344 0.000000 0.064738
#
#
# Mechanical properties :
#
#
# Convention : Reuss Voigt Hill
#
# Bulk Modulus (GPa) = 43.84483 56.22961 50.03722
# Shear Modulus (GPa) = 22.21900 27.78817 25.00358
#
# Velocity S-wave (km/s) = 3.16456 3.53901 3.35701
# Velocity P-wave (km/s) = 5.75449 6.48406 6.13014
#
# Compressibility (1/GPa) = 0.02280771
#
# Stress axis : x y z
#
# Youngs Moduli (GPa) = 43.56667 43.56667 152.81632
#
# Poissons Ratio (x) = 0.41020 0.41306
# Poissons Ratio (y) = 0.41020 0.41306
# Poissons Ratio (z) = 0.11776 0.11776
#
# Static dielectric constant tensor:
#      x y z
#    x 1.837390 0.000000 0.000000 
#    y 0.000000 1.837390 0.000000 
#    z 0.000000 0.000000 1.978450 
# 
# From -- ./inp_files/2747.got.cif
#   From: 2010.05.17/outbox.cif.g08.bks.cpg/sg153_2_cif.got.tgz:2747.got - 2010.05.20 10:38:56.
