data_PCOD9576481
_publ_section_title
;
Structure prediction by ZEFSAII (Michael W. Deem and Ramdas Pophale) SiO2 
 PCOD9576481
Probable space group: P 32 2 1
;
_chemical_formula_sum "Si O2"
_cell_formula_units_Z 39
_cell_length_a 7.914144
_cell_length_b 7.914144
_cell_length_c 32.389193
_cell_angle_alpha 90.000000
_cell_angle_beta 90.000000
_cell_angle_gamma 120.000000
_cell_volume 1756.866069
_symmetry_space_group_name_H-M "P 32 2 1"
_symmetry_group_IT_number 154
_symmetry_cell_setting 'hexagonal'
loop_
_space_group_symop_operation_xyz
x,y,z
-y,x-y,2/3+z
-x+y,-x,1/3+z
x-y,-y,1/3-z
-x,-x+y,2/3-z
y,x,-z
loop_
_atom_site_type_symbol
_atom_site_label
_atom_site_fract_x
_atom_site_fract_y
_atom_site_fract_z
Si Si1 0.547532 0.706881 0.878661
Si Si2 0.066354 0.894435 0.407349
Si Si3 0.690413 0.904807 0.507149
Si Si4 0.526229 0.936671 0.017340
Si Si5 0.920268 0.920268 0.000000
Si Si6 0.431150 0.896206 0.711705
Si Si7 0.795790 0.284524 0.063728
O O1 0.402710 0.526748 0.848256
O O2 0.613539 0.616636 0.916903
O O3 0.409311 0.769476 0.901949
O O4 0.711964 0.904896 0.856401
O O5 0.097129 0.727514 0.387482
O O6 0.968622 0.804898 0.449929
O O7 0.272018 0.089228 0.414358
O O8 0.954004 0.947853 0.373794
O O9 0.712145 0.712145 0.500000
O O10 0.408884 0.737540 0.042634
O O11 0.588399 0.126528 0.044277
O O12 0.724854 0.929189 0.008721
O O13 0.416367 0.916681 0.975190
O O14 0.460367 0.000000 0.666667
#
# Coordination Sequence:
#
# PCOD9576481 Si02
#       7
#     6   6   6   6   3   6   6
#     4  11  25  48  68  99 137 181 241 287 346 428
#     4  10  23  40  66  99 131 176 226 282 349 416
#     4  11  27  48  73  97 138 192 241 291 350 418
#     4  11  22  36  61 100 136 175 213 278 361 415
#     4  10  20  36  64  96 130 176 220 272 356 420
#     4  11  20  40  66  95 135 177 213 284 353 414
#     4  11  23  38  63  99 139 170 227 282 346 427
#
# _framework density 22.198619999999998
#
# number of rings (size 3 to 8) (size 9 to 14) (size 15 to 20)
#    0.000    1.231    3.077    1.846    6.462    1.231 
#    8.308    0.769    0.000    0.000    0.000    0.000 
#    0.000    0.000    0.000    0.000    0.000    0.000 
#
# Total GULP energy -217650.747394 kJ/mol
# GULP energy per Si atom -5580.788395 kJ/mol
# Density = 2.214810 g / cm^3
# Si number density = 22.198620 Si / 1000 Ang^3
#
#
#
# Elastic Constant Matrix: (Units=GPa)
#
#
# Indices 1 2 3 4 5 6 
#
# 1 31.2895 2.3472 7.7008 -16.7073 -0.0004 0.0000
# 2 2.3472 31.2895 7.7008 16.7073 0.0004 0.0000
# 3 7.7008 7.7008 60.8034 0.0000 0.0000 0.0000
# 4 -16.7073 16.7073 0.0000 -46.2952 0.0000 0.0004
# 5 -0.0004 0.0004 0.0000 0.0000 -46.2952 -16.7073
# 6 0.0000 0.0000 0.0000 0.0004 -16.7073 14.4712
#
#
#
# Elastic Compliance Matrix: (Units=1/GPa)
#
#
# Indices 1 2 3 4 5 6 
#
# 1 0.027975 0.003585 -0.003997 -0.008802 0.000000 0.000000
# 2 0.003585 0.027975 -0.003997 0.008802 0.000000 0.000000
# 3 -0.003997 -0.003997 0.017459 0.000000 0.000000 0.000000
# 4 -0.008802 0.008802 0.000000 -0.015248 0.000000 0.000000
# 5 0.000000 0.000000 0.000000 0.000000 -0.015248 -0.017604
# 6 0.000000 0.000000 0.000000 0.000000 -0.017604 0.048779
#
#
# Mechanical properties :
#
#
# Convention : Reuss Voigt Hill
#
# Bulk Modulus (GPa) = 15.48229 17.65333 16.56781
# Shear Modulus (GPa) = 40.97023 -8.58160 16.19432
#
# Velocity S-wave (km/s) = 4.30073 -1.96830 2.70389
# Velocity P-wave (km/s) = 5.62595 1.67454 4.15062
#
# Compressibility (1/GPa) = 0.06458992
#
# Stress axis : x y z
#
# Youngs Moduli (GPa) = 35.74679 35.74679 57.27736
#
# Poissons Ratio (x) = -0.12815 0.22894
# Poissons Ratio (y) = -0.12815 0.22894
# Poissons Ratio (z) = 0.14288 0.14288
#
# Static dielectric constant tensor:
#      x y z
#    x 1.921580 0.000000 0.000000 
#    y 0.000000 1.921580 0.000000 
#    z 0.000000 0.000000 1.686140 
# 
# From -- ./inp_files/3704.got.cif
#   From: 2010.05.17/outbox.cif.g08.bks.cpg/sg154_2_cif.got.tgz:3704.got - 2010.05.20 10:41:43.
