data_PCOD9576900
_publ_section_title
;
Structure prediction by ZEFSAII (Michael W. Deem and Ramdas Pophale) SiO2 
 PCOD9576900
Probable space group: R 3 2
;
_chemical_formula_sum "Si O2"
_cell_formula_units_Z 93
_cell_length_a 13.346829
_cell_length_b 13.346829
_cell_length_c 25.708062
_cell_angle_alpha 90.000000
_cell_angle_beta 90.000000
_cell_angle_gamma 120.000000
_cell_volume 3966.031534
_symmetry_space_group_name_H-M "R 3 2"
_symmetry_group_IT_number 155
_symmetry_cell_setting 'hexagonal'
loop_
_space_group_symop_operation_xyz
x,y,z
-y,x-y,z
-x+y,-x,z
x-y,-y,-z
-x,-x+y,-z
y,x,-z
2/3+x,1/3+y,1/3+z
2/3-y,1/3+x-y,1/3+z
2/3-x+y,1/3-x,1/3+z
2/3+x-y,1/3-y,1/3-z
2/3-x,1/3-x+y,1/3-z
2/3+y,1/3+x,1/3-z
1/3+x,2/3+y,2/3+z
1/3-y,2/3+x-y,2/3+z
1/3-x+y,2/3-x,2/3+z
1/3+x-y,2/3-y,2/3-z
1/3-x,2/3-x+y,2/3-z
1/3+y,2/3+x,2/3-z
loop_
_atom_site_type_symbol
_atom_site_label
_atom_site_fract_x
_atom_site_fract_y
_atom_site_fract_z
Si Si1 0.949771 0.666667 0.666667
Si Si2 0.365307 0.959897 0.779063
Si Si3 0.000000 0.000000 0.309575
Si Si4 0.666668 0.333334 0.898313
Si Si5 0.241346 0.097002 0.585173
Si Si6 0.921217 0.531316 0.157300
Si Si7 0.779841 0.198668 0.074150
O O1 0.918522 0.752604 0.636262
O O2 0.968681 0.587791 0.625321
O O3 0.338351 0.005017 0.833334
O O4 0.447024 0.907806 0.795199
O O5 0.242150 0.890164 0.750986
O O6 0.434384 0.074275 0.743268
O O7 0.957009 0.087190 0.288281
O O8 0.000000 0.000000 0.371925
O O9 0.799424 0.407202 0.884126
O O10 0.359245 0.184053 0.555997
O O11 0.814136 0.535214 0.131259
O O12 0.012120 0.666667 0.166667
#
# Coordination Sequence:
#
# PCOD9576900 Si02
#       7
#     9  18   6   6  18  18  18
#     4  10  20  36  54  90 126 174 214 278 330 396
#     4  10  21  39  61  92 127 169 215 278 337 397
#     4  12  21  36  60  94 127 177 222 289 337 402
#     4  12  21  33  58  88 126 165 207 258 340 400
#     4  10  21  34  56  85 126 160 209 262 328 400
#     4  10  21  39  62  91 130 165 219 269 341 405
#     4  11  22  38  64  91 132 167 228 286 338 410
#
# _framework density 23.449134000000001
#
# number of rings (size 3 to 8) (size 9 to 14) (size 15 to 20)
#    0.000    1.548    1.935    5.226    0.000    0.000 
#    0.000    2.903    0.000    0.774    0.000    0.000 
#   17.419    0.000    0.000    0.000    0.000    0.000 
#
# Total GULP energy -173007.782613 kJ/mol
# GULP energy per Si atom -5580.896213 kJ/mol
# Density = 2.339576 g / cm^3
# Si number density = 23.449134 Si / 1000 Ang^3
#
#
#
# Elastic Constant Matrix: (Units=GPa)
#
#
# Indices 1 2 3 4 5 6 
#
# 1 92.6687 43.8534 44.1748 -2.1471 0.0005 0.0000
# 2 43.8534 92.6690 44.1742 2.1471 -0.0005 0.0000
# 3 44.1748 44.1742 71.5540 0.0003 0.0000 0.0000
# 4 -2.1471 2.1471 0.0003 17.5172 0.0000 -0.0005
# 5 0.0005 -0.0005 0.0000 0.0000 17.5181 -2.1463
# 6 0.0000 0.0000 0.0000 -0.0005 -2.1463 24.4086
#
#
#
# Elastic Compliance Matrix: (Units=1/GPa)
#
#
# Indices 1 2 3 4 5 6 
#
# 1 0.016454 -0.004255 -0.007531 0.002538 -0.000001 0.000000
# 2 -0.004255 0.016453 -0.007530 -0.002538 0.000001 0.000000
# 3 -0.007531 -0.007530 0.023274 -0.000001 0.000000 0.000000
# 4 0.002538 -0.002538 -0.000001 0.057709 0.000000 0.000001
# 5 -0.000001 0.000001 0.000000 0.000000 0.057706 0.005074
# 6 0.000000 0.000000 0.000000 0.000001 0.005074 0.041415
#
#
# Mechanical properties :
#
#
# Convention : Reuss Voigt Hill
#
# Bulk Modulus (GPa) = 56.98836 57.92184 57.45510
# Shear Modulus (GPa) = 19.41802 20.20139 19.80970
#
# Velocity S-wave (km/s) = 2.88078 2.93831 2.90969
# Velocity P-wave (km/s) = 5.95155 6.02215 5.98695
#
# Compressibility (1/GPa) = 0.01754744
#
# Stress axis : x y z
#
# Youngs Moduli (GPa) = 60.77705 60.77825 42.96694
#
# Poissons Ratio (x) = 0.25862 0.32358
# Poissons Ratio (y) = 0.25862 0.32356
# Poissons Ratio (z) = 0.45770 0.45769
#
# Static dielectric constant tensor:
#      x y z
#    x 1.951170 0.000000 0.000000 
#    y 0.000000 1.951170 0.000000 
#    z 0.000000 0.000000 1.938980 
# 
# From -- ./inp_files/7933.got.cif
#   From: 2010.05.17/outbox.cif.g08.bks.cpg/sg155_4_cif.got.tgz:7933.got - 2010.05.20 10:44:35.
