data_PCOD9576928
_publ_section_title
;
Structure prediction by ZEFSAII (Michael W. Deem and Ramdas Pophale) SiO2 
 PCOD9576928
Probable space group: R 3 2
;
_chemical_formula_sum "Si O2"
_cell_formula_units_Z 75
_cell_length_a 17.577766
_cell_length_b 17.577766
_cell_length_c 14.531101
_cell_angle_alpha 90.000000
_cell_angle_beta 90.000000
_cell_angle_gamma 120.000000
_cell_volume 3888.270860
_symmetry_space_group_name_H-M "R 3 2"
_symmetry_group_IT_number 155
_symmetry_cell_setting 'hexagonal'
loop_
_space_group_symop_operation_xyz
x,y,z
-y,x-y,z
-x+y,-x,z
x-y,-y,-z
-x,-x+y,-z
y,x,-z
2/3+x,1/3+y,1/3+z
2/3-y,1/3+x-y,1/3+z
2/3-x+y,1/3-x,1/3+z
2/3+x-y,1/3-y,1/3-z
2/3-x,1/3-x+y,1/3-z
2/3+y,1/3+x,1/3-z
1/3+x,2/3+y,2/3+z
1/3-y,2/3+x-y,2/3+z
1/3-x+y,2/3-x,2/3+z
1/3+x-y,2/3-y,2/3-z
1/3-x,2/3-x+y,2/3-z
1/3+y,2/3+x,2/3-z
loop_
_atom_site_type_symbol
_atom_site_label
_atom_site_fract_x
_atom_site_fract_y
_atom_site_fract_z
Si Si1 0.171206 0.328976 0.443227
Si Si2 0.474808 0.808141 0.166667
Si Si3 0.666668 0.333334 0.704527
Si Si4 0.897899 0.333334 0.333334
Si Si5 0.950210 0.808521 0.912316
Si Si6 0.333334 0.007813 0.166667
Si Si7 0.000000 0.000000 0.848007
O O1 0.181541 0.333334 0.333334
O O2 0.153700 0.236046 0.480676
O O3 0.256347 0.408511 0.493488
O O4 0.083639 0.332910 0.469436
O O5 0.410166 0.757520 0.252354
O O6 0.666668 0.333334 0.595536
O O7 0.880542 0.404079 0.286261
O O8 0.929363 0.291537 0.254619
O O9 0.997400 0.911166 0.882723
O O10 0.000000 0.797654 0.000000
#
# Coordination Sequence:
#
# PCOD9576928 Si02
#       7
#    18   9   6   9  18   9   6
#     4  11  23  40  65  91 132 168 212 274 335 388
#     4  10  22  43  59  94 124 160 220 268 328 395
#     4  10  22  40  73  94 113 175 217 274 322 376
#     4  10  20  38  62  92 120 164 208 272 310 378
#     4  11  22  39  63  91 130 169 212 265 317 386
#     4  10  20  39  61  92 120 156 216 262 326 373
#     4  12  20  41  66  91 128 166 231 257 314 396
#
# _framework density 19.288779999999999
#
# number of rings (size 3 to 8) (size 9 to 14) (size 15 to 20)
#    0.000    1.440    3.600    2.880    0.000    0.960 
#    4.320    1.200    0.000    0.000    0.000    0.000 
#    0.000    0.000    0.000    0.000    0.000    0.000 
#
# Total GULP energy -139524.892590 kJ/mol
# GULP energy per Si atom -5580.995704 kJ/mol
# Density = 1.924488 g / cm^3
# Si number density = 19.288780 Si / 1000 Ang^3
#
#
#
# Elastic Constant Matrix: (Units=GPa)
#
#
# Indices 1 2 3 4 5 6 
#
# 1 49.2422 33.3007 29.5571 1.5540 0.0014 0.0000
# 2 33.3007 49.2411 29.5580 -1.5541 -0.0014 0.0000
# 3 29.5571 29.5580 150.5737 0.0006 0.0000 0.0000
# 4 1.5540 -1.5541 0.0006 25.9559 0.0000 -0.0014
# 5 0.0014 -0.0014 0.0000 0.0000 25.9561 1.5536
# 6 0.0000 0.0000 0.0000 -0.0014 1.5536 7.9716
#
#
#
# Elastic Compliance Matrix: (Units=1/GPa)
#
#
# Indices 1 2 3 4 5 6 
#
# 1 0.038784 -0.024688 -0.002767 -0.003800 -0.000004 0.000000
# 2 -0.024688 0.038785 -0.002768 0.003800 0.000004 0.000000
# 3 -0.002767 -0.002768 0.007728 0.000000 0.000000 0.000000
# 4 -0.003800 0.003800 0.000000 0.038982 0.000000 0.000007
# 5 -0.000004 0.000004 0.000000 0.000000 0.038981 -0.007597
# 6 0.000000 0.000000 0.000000 0.000007 -0.007597 0.126926
#
#
# Mechanical properties :
#
#
# Convention : Reuss Voigt Hill
#
# Bulk Modulus (GPa) = 40.23743 48.20983 44.22363
# Shear Modulus (GPa) = 13.93086 22.41945 18.17515
#
# Velocity S-wave (km/s) = 2.69034 3.41296 3.07296
# Velocity P-wave (km/s) = 5.52779 6.37017 5.96387
#
# Compressibility (1/GPa) = 0.02485248
#
# Stress axis : x y z
#
# Youngs Moduli (GPa) = 25.78385 25.78293 129.40520
#
# Poissons Ratio (x) = 0.63653 0.35805
# Poissons Ratio (y) = 0.63655 0.35813
# Poissons Ratio (z) = 0.07134 0.07136
#
# Static dielectric constant tensor:
#      x y z
#    x 1.672180 0.000000 0.000000 
#    y 0.000000 1.672180 0.000000 
#    z 0.000000 0.000000 1.700720 
# 
# From -- ./inp_files/4933.got.cif
#   From: 2010.05.17/outbox.cif.g08.bks.cpg/sg155_3_cif.got.tgz:4933.got - 2010.05.20 10:44:35.
