data_PCOD9576508
_publ_section_title
;
Structure prediction by ZEFSAII (Michael W. Deem and Ramdas Pophale) SiO2 
 PCOD9576508
Probable space group: P 32 2 1
;
_chemical_formula_sum "Si O2"
_cell_formula_units_Z 30
_cell_length_a 11.953668
_cell_length_b 11.953668
_cell_length_c 14.740341
_cell_angle_alpha 90.000000
_cell_angle_beta 90.000000
_cell_angle_gamma 120.000000
_cell_volume 1824.065971
_symmetry_space_group_name_H-M "P 32 2 1"
_symmetry_group_IT_number 154
_symmetry_cell_setting 'hexagonal'
loop_
_space_group_symop_operation_xyz
x,y,z
-y,x-y,2/3+z
-x+y,-x,1/3+z
x-y,-y,1/3-z
-x,-x+y,2/3-z
y,x,-z
loop_
_atom_site_type_symbol
_atom_site_label
_atom_site_fract_x
_atom_site_fract_y
_atom_site_fract_z
Si Si1 0.727514 0.273138 0.891397
Si Si2 0.485338 0.000000 0.666667
Si Si3 0.281776 0.721460 0.610470
Si Si4 0.673067 0.673067 0.500000
Si Si5 0.983648 0.627021 0.152086
Si Si6 0.944064 0.840218 0.431790
O O1 0.648344 0.286082 0.807997
O O2 0.878984 0.335711 0.868143
O O3 0.671086 0.118978 0.899062
O O4 0.713410 0.343646 0.978505
O O5 0.352734 0.868654 0.646909
O O6 0.551127 0.978871 0.755872
O O7 0.138384 0.677099 0.576413
O O8 0.790284 0.733485 0.426332
O O9 0.988777 0.757326 0.186771
O O10 0.945911 0.945911 0.500000
O O11 0.000000 0.889141 0.333334
#
# Coordination Sequence:
#
# PCOD9576508 Si02
#       6
#     6   3   6   3   6   6
#     4  10  22  38  60  87 119 153 201 240 303 354
#     4  10  20  40  56  86 112 158 198 236 302 352
#     4  11  22  38  60  90 117 157 195 255 290 358
#     4   8  20  36  58  84 112 156 196 234 300 354
#     4  10  20  39  61  82 120 155 199 238 295 358
#     4   9  18  37  61  84 115 153 199 237 284 355
#
# _framework density 16.446773
#
# number of rings (size 3 to 8) (size 9 to 14) (size 15 to 20)
#    0.600    1.600    3.000    0.000    2.800    0.000 
#    5.400    0.000    0.000    0.000    0.000    0.000 
#    0.000    0.000    0.000    0.000    0.000    0.000 
#
# Total GULP energy -167119.048809 kJ/mol
# GULP energy per Si atom -5570.634960 kJ/mol
# Density = 1.640934 g / cm^3
# Si number density = 16.446773 Si / 1000 Ang^3
#
#
#
# Elastic Constant Matrix: (Units=GPa)
#
#
# Indices 1 2 3 4 5 6 
#
# 1 103.3242 58.8963 66.5227 5.9461 -0.0001 0.0000
# 2 58.8963 103.3242 66.5227 -5.9461 0.0001 0.0000
# 3 66.5227 66.5227 117.7823 0.0000 0.0000 0.0000
# 4 5.9461 -5.9461 0.0000 19.7766 0.0000 0.0001
# 5 -0.0001 0.0001 0.0000 0.0000 19.7766 5.9461
# 6 0.0000 0.0000 0.0000 0.0001 5.9461 22.2140
#
#
#
# Elastic Compliance Matrix: (Units=1/GPa)
#
#
# Indices 1 2 3 4 5 6 
#
# 1 0.017981 -0.006497 -0.006486 -0.007360 0.000000 0.000000
# 2 -0.006497 0.017981 -0.006486 0.007360 0.000000 0.000000
# 3 -0.006486 -0.006486 0.015817 0.000000 0.000000 0.000000
# 4 -0.007360 0.007360 0.000000 0.054990 0.000000 0.000000
# 5 0.000000 0.000000 0.000000 0.000000 0.054990 -0.014719
# 6 0.000000 0.000000 0.000000 0.000000 -0.014719 0.048957
#
#
# Mechanical properties :
#
#
# Convention : Reuss Voigt Hill
#
# Bulk Modulus (GPa) = 77.87857 78.70157 78.29007
# Shear Modulus (GPa) = 19.69002 21.18603 20.43802
#
# Velocity S-wave (km/s) = 3.46381 3.59298 3.52899
# Velocity P-wave (km/s) = 7.96567 8.07273 8.01938
#
# Compressibility (1/GPa) = 0.01284050
#
# Stress axis : x y z
#
# Youngs Moduli (GPa) = 55.61358 55.61358 63.22349
#
# Poissons Ratio (x) = 0.36133 0.41008
# Poissons Ratio (y) = 0.36133 0.41008
# Poissons Ratio (z) = 0.36072 0.36072
#
# Static dielectric constant tensor:
#      x y z
#    x 1.551690 0.000000 0.000000 
#    y 0.000000 1.551690 0.000000 
#    z 0.000000 0.000000 1.522240 
# 
# From -- ./inp_files/1915.got.cif
#   From: 2010.05.17/outbox.cif.g08.bks.cpg/sg154_1_cif.got.tgz:1915.got - 2010.05.20 10:41:43.
