data_PCOD9576152
_publ_section_title
;
Structure prediction by ZEFSAII (Michael W. Deem and Ramdas Pophale) SiO2 
 PCOD9576152
Probable space group: P 31 2 1
;
_chemical_formula_sum "Si O2"
_cell_formula_units_Z 27
_cell_length_a 8.235349
_cell_length_b 8.235349
_cell_length_c 18.213140
_cell_angle_alpha 90.000000
_cell_angle_beta 90.000000
_cell_angle_gamma 120.000000
_cell_volume 1069.743053
_symmetry_space_group_name_H-M "P 31 2 1"
_symmetry_group_IT_number 152
_symmetry_cell_setting 'hexagonal'
loop_
_space_group_symop_operation_xyz
x,y,z
-y,x-y,1/3+z
-x+y,-x,2/3+z
x-y,-y,2/3-z
-x,-x+y,1/3-z
y,x,-z
loop_
_atom_site_type_symbol
_atom_site_label
_atom_site_fract_x
_atom_site_fract_y
_atom_site_fract_z
Si Si1 0.308475 0.134377 0.073996
Si Si2 0.142705 0.701586 0.288407
Si Si3 0.000000 0.069069 0.666667
Si Si4 0.237908 0.579421 0.052413
Si Si5 0.422902 0.876779 0.162407
O O1 0.387644 0.313740 0.127577
O O2 0.397881 0.008995 0.103943
O O3 0.391113 0.191281 0.990694
O O4 0.084851 0.012157 0.065009
O O5 0.098051 0.822746 0.345994
O O6 0.269370 0.625741 0.323218
O O7 0.267906 0.838611 0.224185
O O8 0.953001 0.527346 0.262255
O O9 0.364049 0.676505 0.123351
#
# Coordination Sequence:
#
# PCOD9576152 Si02
#       5
#     6   6   3   6   6
#     4  11  27  45  74 106 145 186 245 293 377 433
#     4  11  24  43  74 100 146 193 241 302 366 429
#     4  12  26  46  68 110 146 186 238 308 370 432
#     4  11  22  47  71 102 144 191 240 303 354 441
#     4  11  25  45  74 106 140 192 245 303 362 448
#
# _framework density 25.239709000000001
#
# number of rings (size 3 to 8) (size 9 to 14) (size 15 to 20)
#    0.000    0.889    4.444    0.667    6.222    1.778 
#    0.000    0.000    4.889    0.000    0.000    0.000 
#    0.000    0.000    0.000    0.000    0.000    0.000 
#
# Total GULP energy -150895.620944 kJ/mol
# GULP energy per Si atom -5588.726702 kJ/mol
# Density = 2.518226 g / cm^3
# Si number density = 25.239709 Si / 1000 Ang^3
#
#
#
# Elastic Constant Matrix: (Units=GPa)
#
#
# Indices 1 2 3 4 5 6 
#
# 1 80.1177 12.9680 18.8063 3.1344 0.0000 0.0000
# 2 12.9680 80.1177 18.8063 -3.1344 0.0000 0.0000
# 3 18.8063 18.8063 73.0267 0.0000 0.0000 0.0000
# 4 3.1344 -3.1344 0.0000 44.3229 0.0000 0.0000
# 5 0.0000 0.0000 0.0000 0.0000 44.3229 3.1344
# 6 0.0000 0.0000 0.0000 0.0000 3.1344 33.5748
#
#
#
# Elastic Compliance Matrix: (Units=1/GPa)
#
#
# Indices 1 2 3 4 5 6 
#
# 1 0.013491 -0.001500 -0.003088 -0.001060 0.000000 0.000000
# 2 -0.001500 0.013491 -0.003088 0.001060 0.000000 0.000000
# 3 -0.003088 -0.003088 0.015284 0.000000 0.000000 0.000000
# 4 -0.001060 0.001060 0.000000 0.022712 0.000000 0.000000
# 5 0.000000 0.000000 0.000000 0.000000 0.022712 -0.002120
# 6 0.000000 0.000000 0.000000 0.000000 -0.002120 0.029982
#
#
# Mechanical properties :
#
#
# Convention : Reuss Voigt Hill
#
# Bulk Modulus (GPa) = 37.15600 37.15812 37.15706
# Shear Modulus (GPa) = 35.21269 36.62289 35.91779
#
# Velocity S-wave (km/s) = 3.73920 3.81334 3.77645
# Velocity P-wave (km/s) = 5.77887 5.84318 5.81111
#
# Compressibility (1/GPa) = 0.02691356
#
# Stress axis : x y z
#
# Youngs Moduli (GPa) = 74.12471 74.12471 65.42775
#
# Poissons Ratio (x) = 0.11121 0.20203
# Poissons Ratio (y) = 0.11121 0.20203
# Poissons Ratio (z) = 0.22889 0.22889
#
# Static dielectric constant tensor:
#      x y z
#    x 2.026700 0.000000 0.000000 
#    y 0.000000 2.026700 0.000000 
#    z 0.000000 0.000000 2.052630 
# 
# From -- ./inp_files/2685.got.cif
#   From: 2010.05.17/outbox.cif.g08.bks.cpg/sg152_2_cif.got.tgz:2685.got - 2010.05.20 10:36:06.
