data_PCOD9576892
_publ_section_title
;
Structure prediction by ZEFSAII (Michael W. Deem and Ramdas Pophale) SiO2 
 PCOD9576892
Probable space group: R 3 2
;
_chemical_formula_sum "Si O2"
_cell_formula_units_Z 144
_cell_length_a 22.396950
_cell_length_b 22.396950
_cell_length_c 19.200655
_cell_angle_alpha 90.000000
_cell_angle_beta 90.000000
_cell_angle_gamma 120.000000
_cell_volume 8341.121298
_symmetry_space_group_name_H-M "R 3 2"
_symmetry_group_IT_number 155
_symmetry_cell_setting 'hexagonal'
loop_
_space_group_symop_operation_xyz
x,y,z
-y,x-y,z
-x+y,-x,z
x-y,-y,-z
-x,-x+y,-z
y,x,-z
2/3+x,1/3+y,1/3+z
2/3-y,1/3+x-y,1/3+z
2/3-x+y,1/3-x,1/3+z
2/3+x-y,1/3-y,1/3-z
2/3-x,1/3-x+y,1/3-z
2/3+y,1/3+x,1/3-z
1/3+x,2/3+y,2/3+z
1/3-y,2/3+x-y,2/3+z
1/3-x+y,2/3-x,2/3+z
1/3+x-y,2/3-y,2/3-z
1/3-x,2/3-x+y,2/3-z
1/3+y,2/3+x,2/3-z
loop_
_atom_site_type_symbol
_atom_site_label
_atom_site_fract_x
_atom_site_fract_y
_atom_site_fract_z
Si Si1 0.183448 0.950405 0.673608
Si Si2 0.339253 0.407556 0.859538
Si Si3 0.259134 0.993805 0.194077
Si Si4 0.870210 0.604236 0.379744
Si Si5 0.145481 0.714040 0.999646
Si Si6 0.805111 0.091089 0.600341
Si Si7 0.264789 0.872408 0.622078
Si Si8 0.591667 0.720571 0.229194
O O1 0.105028 0.891753 0.660952
O O2 0.229651 0.917477 0.645582
O O3 0.201563 0.971877 0.753897
O O4 0.210791 0.019595 0.629259
O O5 0.280608 0.333334 0.833334
O O6 0.375648 0.454207 0.792764
O O7 0.307354 0.433064 0.919034
O O8 0.399201 0.398760 0.896038
O O9 0.217414 0.952809 0.125825
O O10 0.272022 0.938920 0.236755
O O11 0.333334 0.052266 0.166667
O O12 0.896335 0.563002 0.333334
O O13 0.917805 0.685619 0.360869
O O14 0.792754 0.586494 0.365563
O O15 0.116522 0.642471 0.040682
O O16 0.801131 0.134464 0.666667
O O17 0.869784 0.140561 0.552778
O O18 0.333334 0.898158 0.666667
O O19 0.555421 0.666667 0.166667
#
# Coordination Sequence:
#
# PCOD9576892 Si02
#       8
#    18  18  18  18  18  18  18  18
#     4  11  21  35  53  78 114 142 179 226 266 332
#     4  11  19  33  54  78 113 142 177 218 268 340
#     4  11  19  32  52  78 111 148 173 210 274 328
#     4  11  21  35  54  81 113 146 178 226 275 323
#     4  10  22  35  53  82 109 143 182 219 280 322
#     4  10  20  35  54  78 109 145 181 222 269 324
#     4  11  21  35  54  83 114 144 183 222 273 330
#     4  11  21  33  54  81 110 143 182 218 267 322
#
# _framework density 17.263866
#
# number of rings (size 3 to 8) (size 9 to 14) (size 15 to 20)
#    0.000    1.250    6.250    2.250    1.750    2.500 
#    0.000    0.000    0.000    0.750    0.000    2.625 
#    0.000    0.000    0.000    0.000    0.000    0.000 
#
# Total GULP energy -267885.304428 kJ/mol
# GULP energy per Si atom -5580.943842 kJ/mol
# Density = 1.722457 g / cm^3
# Si number density = 17.263866 Si / 1000 Ang^3
#
#
#
# Elastic Constant Matrix: (Units=GPa)
#
#
# Indices 1 2 3 4 5 6 
#
# 1 46.0138 10.5983 -0.5784 2.6658 0.0001 0.0000
# 2 10.5983 46.0138 -0.5784 -2.6658 -0.0001 0.0000
# 3 -0.5784 -0.5784 47.2350 0.0000 0.0000 0.0000
# 4 2.6658 -2.6658 0.0000 14.5858 0.0000 -0.0001
# 5 0.0001 -0.0001 0.0000 0.0000 14.5858 2.6658
# 6 0.0000 0.0000 0.0000 -0.0001 2.6658 17.7077
#
#
#
# Elastic Compliance Matrix: (Units=1/GPa)
#
#
# Indices 1 2 3 4 5 6 
#
# 1 0.023352 -0.005683 0.000216 -0.005307 0.000000 0.000000
# 2 -0.005683 0.023352 0.000216 0.005307 0.000000 0.000000
# 3 0.000216 0.000216 0.021176 0.000000 0.000000 0.000000
# 4 -0.005307 0.005307 0.000000 0.070500 0.000000 0.000001
# 5 0.000000 0.000000 0.000000 0.000000 0.070500 -0.010613
# 6 0.000000 0.000000 0.000000 0.000001 -0.010613 0.058070
#
#
# Mechanical properties :
#
#
# Convention : Reuss Voigt Hill
#
# Bulk Modulus (GPa) = 17.42812 17.57170 17.49991
# Shear Modulus (GPa) = 16.85905 18.03060 17.44482
#
# Velocity S-wave (km/s) = 3.12837 3.23524 3.18226
# Velocity P-wave (km/s) = 4.81311 4.91489 4.86426
#
# Compressibility (1/GPa) = 0.05737855
#
# Stress axis : x y z
#
# Youngs Moduli (GPa) = 42.82320 42.82320 47.22315
#
# Poissons Ratio (x) = 0.24338 -0.01022
# Poissons Ratio (y) = 0.24338 -0.01022
# Poissons Ratio (z) = -0.00927 -0.00927
#
# Static dielectric constant tensor:
#      x y z
#    x 1.568130 0.000000 0.000000 
#    y 0.000000 1.568130 0.000000 
#    z 0.000000 0.000000 1.652260 
# 
# From -- ./inp_files/7047.got.cif
#   From: 2010.05.17/outbox.cif.g08.bks.cpg/sg155_4_cif.got.tgz:7047.got - 2010.05.20 10:44:35.
