data_PCOD9576567
_publ_section_title
;
Structure prediction by ZEFSAII (Michael W. Deem and Ramdas Pophale) SiO2 
 PCOD9576567
Probable space group: P 32 2 1
;
_chemical_formula_sum "Si O2"
_cell_formula_units_Z 30
_cell_length_a 8.941673
_cell_length_b 8.941673
_cell_length_c 17.772648
_cell_angle_alpha 90.000000
_cell_angle_beta 90.000000
_cell_angle_gamma 120.000000
_cell_volume 1230.609712
_symmetry_space_group_name_H-M "P 32 2 1"
_symmetry_group_IT_number 154
_symmetry_cell_setting 'hexagonal'
loop_
_space_group_symop_operation_xyz
x,y,z
-y,x-y,2/3+z
-x+y,-x,1/3+z
x-y,-y,1/3-z
-x,-x+y,2/3-z
y,x,-z
loop_
_atom_site_type_symbol
_atom_site_label
_atom_site_fract_x
_atom_site_fract_y
_atom_site_fract_z
Si Si1 0.564170 0.349290 0.229913
Si Si2 0.606040 0.513236 0.676586
Si Si3 0.799763 0.645254 0.033652
Si Si4 0.928013 0.669250 0.194426
Si Si5 0.081447 0.908180 0.914057
O O1 0.489811 0.152779 0.257890
O O2 0.529550 0.439927 0.302526
O O3 0.766605 0.479919 0.215027
O O4 0.439935 0.346533 0.162799
O O5 0.541076 0.319025 0.700465
O O6 0.751198 0.647042 0.731226
O O7 0.714217 0.863765 0.883610
O O8 0.942533 0.781934 0.975432
O O9 0.627883 0.627883 0.000000
O O10 0.950351 0.830171 0.245777
O O11 0.000000 0.832776 0.833334
#
# Coordination Sequence:
#
# PCOD9576567 Si02
#       5
#     6   6   6   6   6
#     4  10  22  41  70 101 139 180 232 296 346 431
#     4  10  21  40  66  98 138 176 231 290 344 423
#     4  11  22  39  68  98 133 180 237 284 350 422
#     4  10  22  39  68  99 137 178 237 282 357 422
#     4  11  21  39  70  99 133 192 229 287 361 415
#
# _framework density 24.378162
#
# number of rings (size 3 to 8) (size 9 to 14) (size 15 to 20)
#    0.000    1.600    6.000    0.000    2.800    1.600 
#    0.000    0.000   26.400    0.000    0.000    0.000 
#    0.000    0.000    0.000    0.000    0.000    0.000 
#
# Total GULP energy -167082.393473 kJ/mol
# GULP energy per Si atom -5569.413116 kJ/mol
# Density = 2.432268 g / cm^3
# Si number density = 24.378162 Si / 1000 Ang^3
#
#
#
# Elastic Constant Matrix: (Units=GPa)
#
#
# Indices 1 2 3 4 5 6 
#
# 1 47.5373 6.6123 17.3971 -9.1359 -0.0003 0.0000
# 2 6.6123 47.5373 17.3971 9.1359 0.0003 0.0000
# 3 17.3971 17.3971 80.2924 0.0000 0.0000 0.0000
# 4 -9.1359 9.1359 0.0000 36.8600 0.0000 0.0003
# 5 -0.0003 0.0003 0.0000 0.0000 36.8600 -9.1359
# 6 0.0000 0.0000 0.0000 0.0003 -9.1359 20.4625
#
#
#
# Elastic Compliance Matrix: (Units=1/GPa)
#
#
# Indices 1 2 3 4 5 6 
#
# 1 0.024465 -0.003011 -0.004649 0.006810 0.000000 0.000000
# 2 -0.003011 0.024465 -0.004649 -0.006810 0.000000 0.000000
# 3 -0.004649 -0.004649 0.014469 0.000000 0.000000 0.000000
# 4 0.006810 -0.006810 0.000000 0.030505 0.000000 0.000000
# 5 0.000000 0.000000 0.000000 0.000000 0.030505 0.013620
# 6 0.000000 0.000000 0.000000 0.000000 0.013620 0.054951
#
#
# Mechanical properties :
#
#
# Convention : Reuss Voigt Hill
#
# Bulk Modulus (GPa) = 25.78428 28.68668 27.23548
# Shear Modulus (GPa) = 23.05178 27.76720 25.40949
#
# Velocity S-wave (km/s) = 3.07838 3.37860 3.23198
# Velocity P-wave (km/s) = 4.82027 5.19738 5.01238
#
# Compressibility (1/GPa) = 0.03878332
#
# Stress axis : x y z
#
# Youngs Moduli (GPa) = 40.87502 40.87502 69.11381
#
# Poissons Ratio (x) = 0.12305 0.32128
# Poissons Ratio (y) = 0.12305 0.32128
# Poissons Ratio (z) = 0.19001 0.19001
#
# Static dielectric constant tensor:
#      x y z
#    x 2.055150 0.000000 0.000000 
#    y 0.000000 2.055150 0.000000 
#    z 0.000000 0.000000 2.073250 
# 
# From -- ./inp_files/3024.got.cif
#   From: 2010.05.17/outbox.cif.g08.bks.cpg/sg154_2_cif.got.tgz:3024.got - 2010.05.20 10:41:43.
