data_PCOD9576088
_publ_section_title
;
Structure prediction by ZEFSAII (Michael W. Deem and Ramdas Pophale) SiO2 
 PCOD9576088
Probable space group: P 31 2 1
;
_chemical_formula_sum "Si O2"
_cell_formula_units_Z 18
_cell_length_a 7.072328
_cell_length_b 7.072328
_cell_length_c 17.869953
_cell_angle_alpha 90.000000
_cell_angle_beta 90.000000
_cell_angle_gamma 120.000000
_cell_volume 774.067494
_symmetry_space_group_name_H-M "P 31 2 1"
_symmetry_group_IT_number 152
_symmetry_cell_setting 'hexagonal'
loop_
_space_group_symop_operation_xyz
x,y,z
-y,x-y,1/3+z
-x+y,-x,2/3+z
x-y,-y,2/3-z
-x,-x+y,1/3-z
y,x,-z
loop_
_atom_site_type_symbol
_atom_site_label
_atom_site_fract_x
_atom_site_fract_y
_atom_site_fract_z
Si Si1 0.389355 0.700306 0.834849
Si Si2 0.297052 0.972457 0.728661
Si Si3 0.242188 0.060717 0.108998
O O1 0.507563 0.171130 0.767656
O O2 0.545151 0.237085 0.907418
O O3 0.643852 0.782317 0.825346
O O4 0.268657 0.447393 0.853958
O O5 0.290993 0.980068 0.639959
O O6 0.066993 0.943452 0.758139
#
# Coordination Sequence:
#
# PCOD9576088 Si02
#       3
#     6   6   6
#     4  11  22  42  70  99 141 188 236 291 356 418
#     4  10  24  41  68 102 141 186 237 289 360 420
#     4  11  22  44  68 104 144 183 239 292 351 432
#
# _framework density 23.253786999999999
#
# number of rings (size 3 to 8) (size 9 to 14) (size 15 to 20)
#    0.000    1.333    3.333    2.000    0.000    5.333 
#    0.000    0.000    0.000    0.000    0.000    0.000 
#    0.000    0.000    0.000    0.000    0.000    0.000 
#
# Total GULP energy -100576.476270 kJ/mol
# GULP energy per Si atom -5587.582015 kJ/mol
# Density = 2.320086 g / cm^3
# Si number density = 23.253787 Si / 1000 Ang^3
#
#
#
# Elastic Constant Matrix: (Units=GPa)
#
#
# Indices 1 2 3 4 5 6 
#
# 1 120.9632 54.6268 13.1030 -0.4406 0.0000 0.0000
# 2 54.6268 120.9632 13.1030 0.4406 0.0000 0.0000
# 3 13.1030 13.1030 46.5614 0.0000 0.0000 0.0000
# 4 -0.4406 0.4406 0.0000 33.0826 0.0000 0.0000
# 5 0.0000 0.0000 0.0000 0.0000 33.0826 -0.4406
# 6 0.0000 0.0000 0.0000 0.0000 -0.4406 33.1682
#
#
#
# Elastic Compliance Matrix: (Units=1/GPa)
#
#
# Indices 1 2 3 4 5 6 
#
# 1 0.010511 -0.004566 -0.001673 0.000201 0.000000 0.000000
# 2 -0.004566 0.010511 -0.001673 -0.000201 0.000000 0.000000
# 3 -0.001673 -0.001673 0.022419 0.000000 0.000000 0.000000
# 4 0.000201 -0.000201 0.000000 0.030233 0.000000 0.000000
# 5 0.000000 0.000000 0.000000 0.000000 0.030233 0.000402
# 6 0.000000 0.000000 0.000000 0.000000 0.000402 0.030155
#
#
# Mechanical properties :
#
#
# Convention : Reuss Voigt Hill
#
# Bulk Modulus (GPa) = 36.21041 50.01706 43.11373
# Shear Modulus (GPa) = 31.42859 33.71031 32.56945
#
# Velocity S-wave (km/s) = 3.68033 3.81158 3.74653
# Velocity P-wave (km/s) = 5.80219 6.39741 6.10705
#
# Compressibility (1/GPa) = 0.02761637
#
# Stress axis : x y z
#
# Youngs Moduli (GPa) = 95.13784 95.13784 44.60581
#
# Poissons Ratio (x) = 0.43443 0.07462
# Poissons Ratio (y) = 0.43443 0.07462
# Poissons Ratio (z) = 0.15916 0.15916
#
# Static dielectric constant tensor:
#      x y z
#    x 1.910700 0.000000 0.000000 
#    y 0.000000 1.910700 0.000000 
#    z 0.000000 0.000000 1.873040 
# 
# From -- ./inp_files/2197.got.cif
#   From: 2010.05.17/outbox.cif.g08.bks.cpg/sg152_2_cif.got.tgz:2197.got - 2010.05.20 10:36:06.
