data_PCOD9576806
_publ_section_title
;
Structure prediction by ZEFSAII (Michael W. Deem and Ramdas Pophale) SiO2 
 PCOD9576806
Probable space group: R 3 2
;
_chemical_formula_sum "Si O2"
_cell_formula_units_Z 75
_cell_length_a 14.141070
_cell_length_b 14.141070
_cell_length_c 22.022347
_cell_angle_alpha 90.000000
_cell_angle_beta 90.000000
_cell_angle_gamma 120.000000
_cell_volume 3813.807577
_symmetry_space_group_name_H-M "R 3 2"
_symmetry_group_IT_number 155
_symmetry_cell_setting 'hexagonal'
loop_
_space_group_symop_operation_xyz
x,y,z
-y,x-y,z
-x+y,-x,z
x-y,-y,-z
-x,-x+y,-z
y,x,-z
2/3+x,1/3+y,1/3+z
2/3-y,1/3+x-y,1/3+z
2/3-x+y,1/3-x,1/3+z
2/3+x-y,1/3-y,1/3-z
2/3-x,1/3-x+y,1/3-z
2/3+y,1/3+x,1/3-z
1/3+x,2/3+y,2/3+z
1/3-y,2/3+x-y,2/3+z
1/3-x+y,2/3-x,2/3+z
1/3+x-y,2/3-y,2/3-z
1/3-x,2/3-x+y,2/3-z
1/3+y,2/3+x,2/3-z
loop_
_atom_site_type_symbol
_atom_site_label
_atom_site_fract_x
_atom_site_fract_y
_atom_site_fract_z
Si Si1 0.333334 0.666667 0.488122
Si Si2 0.666668 0.333334 0.011241
Si Si3 0.735489 0.735489 0.000000
Si Si4 0.785777 0.164014 0.836469
Si Si5 0.156400 0.485908 0.268256
Si Si6 0.117525 0.476406 0.535210
O O1 0.333334 0.666667 0.415867
O O2 0.209010 0.592864 0.510755
O O3 0.584446 0.217383 0.982346
O O4 0.712105 0.621272 0.972247
O O5 0.769139 0.812827 0.941111
O O6 0.666667 0.056569 0.833334
O O7 0.819140 0.225364 0.771931
O O8 0.774090 0.244788 0.884990
O O9 0.895065 0.165161 0.857188
O O10 0.000000 0.421875 0.500000
#
# Coordination Sequence:
#
# PCOD9576806 Si02
#       6
#     6   6   9  18  18  18
#     4  12  30  43  62  94 123 174 229 287 319 366
#     4  12  21  31  56  97 129 153 214 263 322 384
#     4  10  20  40  66  82 114 178 220 244 326 366
#     4  10  18  34  61  99 132 163 196 252 327 395
#     4  10  19  31  59  92 127 163 206 253 316 399
#     4  11  23  45  67  89 131 172 216 275 322 385
#
# _framework density 19.665386000000002
#
# number of rings (size 3 to 8) (size 9 to 14) (size 15 to 20)
#    0.000    1.440    7.200    1.440    0.000    1.920 
#    0.000    0.000    0.000    2.880    0.000    0.000 
#    0.000    0.000    0.000    0.000    0.000    0.000 
#
# Total GULP energy -139386.342083 kJ/mol
# GULP energy per Si atom -5575.453683 kJ/mol
# Density = 1.962063 g / cm^3
# Si number density = 19.665386 Si / 1000 Ang^3
#
#
#
# Elastic Constant Matrix: (Units=GPa)
#
#
# Indices 1 2 3 4 5 6 
#
# 1 59.1891 19.8793 35.7419 -1.0286 0.0000 0.0000
# 2 19.8793 59.1896 35.7421 1.0287 0.0000 0.0000
# 3 35.7419 35.7421 181.9023 -0.0003 0.0000 0.0000
# 4 -1.0286 1.0287 -0.0003 23.5385 0.0000 0.0000
# 5 0.0000 0.0000 0.0000 0.0000 23.5384 -1.0289
# 6 0.0000 0.0000 0.0000 0.0000 -1.0289 19.6546
#
#
#
# Elastic Compliance Matrix: (Units=1/GPa)
#
#
# Indices 1 2 3 4 5 6 
#
# 1 0.020438 -0.005059 -0.003022 0.001114 0.000000 0.000000
# 2 -0.005059 0.020438 -0.003022 -0.001114 0.000000 0.000000
# 3 -0.003022 -0.003022 0.006685 0.000000 0.000000 0.000000
# 4 0.001114 -0.001114 0.000000 0.042581 0.000000 0.000000
# 5 0.000000 0.000000 0.000000 0.000000 0.042581 0.002229
# 6 0.000000 0.000000 0.000000 0.000000 0.002229 0.050995
#
#
# Mechanical properties :
#
#
# Convention : Reuss Voigt Hill
#
# Bulk Modulus (GPa) = 39.43841 53.66751 46.55296
# Shear Modulus (GPa) = 23.32346 27.27413 25.29880
#
# Velocity S-wave (km/s) = 3.44759 3.72816 3.59062
# Velocity P-wave (km/s) = 5.99551 6.77362 6.39641
#
# Compressibility (1/GPa) = 0.02535599
#
# Stress axis : x y z
#
# Youngs Moduli (GPa) = 48.92785 48.92824 149.58885
#
# Poissons Ratio (x) = 0.24753 0.45204
# Poissons Ratio (y) = 0.24752 0.45204
# Poissons Ratio (z) = 0.14785 0.14785
#
# Static dielectric constant tensor:
#      x y z
#    x 1.722650 0.000000 0.000000 
#    y 0.000000 1.722640 0.000000 
#    z 0.000000 0.000000 1.699750 
# 
# From -- ./inp_files/6814.got.cif
#   From: 2010.05.17/outbox.cif.g08.bks.cpg/sg155_4_cif.got.tgz:6814.got - 2010.05.20 10:44:35.
