data_PCOD9576609
_publ_section_title
;
Structure prediction by ZEFSAII (Michael W. Deem and Ramdas Pophale) SiO2 
 PCOD9576609
Probable space group: P 32 2 1
;
_chemical_formula_sum "Si O2"
_cell_formula_units_Z 24
_cell_length_a 16.565149
_cell_length_b 16.565149
_cell_length_c 4.814379
_cell_angle_alpha 90.000000
_cell_angle_beta 90.000000
_cell_angle_gamma 120.000000
_cell_volume 1144.093718
_symmetry_space_group_name_H-M "P 32 2 1"
_symmetry_group_IT_number 154
_symmetry_cell_setting 'hexagonal'
loop_
_space_group_symop_operation_xyz
x,y,z
-y,x-y,2/3+z
-x+y,-x,1/3+z
x-y,-y,1/3-z
-x,-x+y,2/3-z
y,x,-z
loop_
_atom_site_type_symbol
_atom_site_label
_atom_site_fract_x
_atom_site_fract_y
_atom_site_fract_z
Si Si1 0.000000 0.515147 0.833334
Si Si2 0.617082 0.897045 0.257761
Si Si3 0.408131 0.000000 0.666667
Si Si4 0.630886 0.790832 0.793080
Si Si5 0.062006 0.161434 0.098045
O O1 0.072257 0.612689 0.983731
O O2 0.040771 0.481429 0.586268
O O3 0.633104 0.838142 0.496201
O O4 0.704711 0.000000 0.166667
O O5 0.581377 0.828824 0.995507
O O6 0.316205 0.917124 0.514386
O O7 0.737712 0.843338 0.894480
O O8 0.000000 0.089482 0.333334
O O9 0.141077 0.141077 0.000000
O O10 0.000000 0.152797 0.833334
#
# Coordination Sequence:
#
# PCOD9576609 Si02
#       5
#     3   6   3   6   6
#     4  10  24  44  70  96 134 178 226 294 346 416
#     4  10  22  41  69  95 129 177 239 273 326 424
#     4  12  24  42  68 106 144 168 222 310 354 408
#     4  12  23  40  65 101 135 180 225 282 343 406
#     4  12  24  38  55  85 137 186 228 264 315 371
#
# _framework density 20.977304
#
# number of rings (size 3 to 8) (size 9 to 14) (size 15 to 20)
#    0.750    0.000    1.250    8.250    1.750    0.000 
#    0.000    0.000    0.000   15.000    0.000    0.000 
#    0.000    0.000    0.000    0.000    0.000    0.000 
#
# Total GULP energy -133718.539460 kJ/mol
# GULP energy per Si atom -5571.605811 kJ/mol
# Density = 2.092956 g / cm^3
# Si number density = 20.977304 Si / 1000 Ang^3
#
#
#
# Elastic Constant Matrix: (Units=GPa)
#
#
# Indices 1 2 3 4 5 6 
#
# 1 74.5746 34.8544 24.3434 3.2929 -0.0001 0.0000
# 2 34.8544 74.5746 24.3434 -3.2929 0.0001 0.0000
# 3 24.3434 24.3434 112.8957 0.0000 0.0000 0.0000
# 4 3.2929 -3.2929 0.0000 33.1850 0.0000 0.0001
# 5 -0.0001 0.0001 0.0000 0.0000 33.1850 3.2929
# 6 0.0000 0.0000 0.0000 0.0001 3.2929 19.8601
#
#
#
# Elastic Compliance Matrix: (Units=1/GPa)
#
#
# Indices 1 2 3 4 5 6 
#
# 1 0.017853 -0.007745 -0.002180 -0.002540 0.000000 0.000000
# 2 -0.007745 0.017853 -0.002180 0.002540 0.000000 0.000000
# 3 -0.002180 -0.002180 0.009798 0.000000 0.000000 0.000000
# 4 -0.002540 0.002540 0.000000 0.030638 0.000000 0.000000
# 5 0.000000 0.000000 0.000000 0.000000 0.030638 -0.005080
# 6 0.000000 0.000000 0.000000 0.000000 -0.005080 0.051195
#
#
# Mechanical properties :
#
#
# Convention : Reuss Voigt Hill
#
# Bulk Modulus (GPa) = 46.95824 47.68084 47.31954
# Shear Modulus (GPa) = 26.41590 29.14626 27.78108
#
# Velocity S-wave (km/s) = 3.55246 3.73153 3.64310
# Velocity P-wave (km/s) = 6.26582 6.43000 6.34844
#
# Compressibility (1/GPa) = 0.02129552
#
# Stress axis : x y z
#
# Youngs Moduli (GPa) = 56.01401 56.01401 102.06487
#
# Poissons Ratio (x) = 0.43381 0.22246
# Poissons Ratio (y) = 0.43381 0.22246
# Poissons Ratio (z) = 0.12209 0.12209
#
# Static dielectric constant tensor:
#      x y z
#    x 1.798500 0.000000 0.000000 
#    y 0.000000 1.798500 0.000000 
#    z 0.000000 0.000000 1.824980 
# 
# From -- ./inp_files/212.got.cif
#   From: 2010.05.17/outbox.cif.g08.bks.cpg/sg154_1_cif.got.tgz:212.got - 2010.05.20 10:41:43.
