data_PCOD9576307
_publ_section_title
;
Structure prediction by ZEFSAII (Michael W. Deem and Ramdas Pophale) SiO2 
 PCOD9576307
Probable space group: P 32 1 2
;
_chemical_formula_sum "Si O2"
_cell_formula_units_Z 36
_cell_length_a 7.719725
_cell_length_b 7.719725
_cell_length_c 31.534063
_cell_angle_alpha 90.000000
_cell_angle_beta 90.000000
_cell_angle_gamma 120.000000
_cell_volume 1627.474611
_symmetry_space_group_name_H-M "P 32 1 2"
_symmetry_group_IT_number 153
_symmetry_cell_setting 'hexagonal'
loop_
_space_group_symop_operation_xyz
x,y,z
-y,x-y,2/3+z
-x+y,-x,1/3+z
-y,-x,1/3-z
-x+y,y,2/3-z
x,x-y,-z
loop_
_atom_site_type_symbol
_atom_site_label
_atom_site_fract_x
_atom_site_fract_y
_atom_site_fract_z
Si Si1 0.398333 0.270102 0.115664
Si Si2 0.018529 0.259275 0.372980
Si Si3 0.099882 0.403988 0.965151
Si Si4 0.291746 0.065067 0.794276
Si Si5 0.183673 0.419833 0.789108
Si Si6 0.649568 0.615727 0.311292
O O1 0.617687 0.469904 0.118741
O O2 0.273332 0.273089 0.156539
O O3 0.313974 0.273874 0.069483
O O4 0.386689 0.054634 0.118396
O O5 0.085546 0.262809 0.421843
O O6 0.061675 0.475818 0.359594
O O7 0.092800 0.185600 0.333334
O O8 0.779898 0.118314 0.377387
O O9 0.217041 0.509991 0.921992
O O10 0.089551 0.544776 0.000000
O O11 0.216549 0.306930 0.987895
O O12 0.221353 0.230077 0.793830
O O13 0.267958 0.535915 0.833334
O O14 0.749092 0.498183 0.333334
#
# Coordination Sequence:
#
# PCOD9576307 Si02
#       6
#     6   6   6   6   6   6
#     4   9  16  31  53  84 111 149 185 240 288 358
#     4  10  21  36  57  83 114 148 187 237 285 344
#     4  11  22  36  56  83 115 148 190 238 285 346
#     4   8  17  30  53  83 117 142 192 234 295 349
#     4   9  17  32  56  83 110 151 191 240 292 353
#     4  11  20  34  58  83 111 146 188 231 288 342
#
# _framework density 22.120159999999998
#
# number of rings (size 3 to 8) (size 9 to 14) (size 15 to 20)
#    0.000    2.333    1.667    1.500    2.333    0.000 
#    0.000    0.000   11.000    0.000    0.000    0.000 
#    0.000    0.000    0.000    0.000    0.000    0.000 
#
# Total GULP energy -200401.836297 kJ/mol
# GULP energy per Si atom -5566.717675 kJ/mol
# Density = 2.206981 g / cm^3
# Si number density = 22.120160 Si / 1000 Ang^3
#
#
#
# Elastic Constant Matrix: (Units=GPa)
#
#
# Indices 1 2 3 4 5 6 
#
# 1 40.2340 1.8750 22.1949 0.0005 4.6443 0.0000
# 2 1.8750 40.2340 22.1949 -0.0005 -4.6443 0.0000
# 3 22.1949 22.1949 225.9824 0.0000 0.0000 0.0000
# 4 0.0005 -0.0005 0.0000 17.5127 0.0000 -4.6443
# 5 4.6443 -4.6443 0.0000 0.0000 17.5127 0.0005
# 6 0.0000 0.0000 0.0000 -4.6443 0.0005 19.1795
#
#
#
# Elastic Compliance Matrix: (Units=1/GPa)
#
#
# Indices 1 2 3 4 5 6 
#
# 1 0.027175 -0.000684 -0.002602 -0.000001 -0.007388 0.000000
# 2 -0.000684 0.027175 -0.002602 0.000001 0.007388 0.000000
# 3 -0.002602 -0.002602 0.004936 0.000000 0.000000 0.000000
# 4 -0.000001 0.000001 0.000000 0.061020 0.000000 0.014776
# 5 -0.007388 0.007388 0.000000 0.000000 0.061020 -0.000002
# 6 0.000000 0.000000 0.000000 0.014776 -0.000002 0.055717
#
#
# Mechanical properties :
#
#
# Convention : Reuss Voigt Hill
#
# Bulk Modulus (GPa) = 21.04810 44.33113 32.68962
# Shear Modulus (GPa) = 18.89261 28.18671 23.53966
#
# Velocity S-wave (km/s) = 2.92565 3.57354 3.26570
# Velocity P-wave (km/s) = 4.57696 6.09192 5.38795
#
# Compressibility (1/GPa) = 0.04751022
#
# Stress axis : x y z
#
# Youngs Moduli (GPa) = 36.79915 36.79915 202.58538
#
# Poissons Ratio (x) = 0.02517 0.52708
# Poissons Ratio (y) = 0.02517 0.52708
# Poissons Ratio (z) = 0.09574 0.09574
#
# Static dielectric constant tensor:
#      x y z
#    x 1.838510 0.000000 0.000000 
#    y 0.000000 1.838510 0.000000 
#    z 0.000000 0.000000 1.932880 
# 
# From -- ./inp_files/4970.got.cif
#   From: 2010.05.17/outbox.cif.g08.bks.cpg/sg153_3_cif.got.tgz:4970.got - 2010.05.20 10:38:56.
