data_PCOD9576311
_publ_section_title
;
Structure prediction by ZEFSAII (Michael W. Deem and Ramdas Pophale) SiO2 
 PCOD9576311
Probable space group: P 32 1 2
;
_chemical_formula_sum "Si O2"
_cell_formula_units_Z 42
_cell_length_a 7.662024
_cell_length_b 7.662024
_cell_length_c 32.199651
_cell_angle_alpha 90.000000
_cell_angle_beta 90.000000
_cell_angle_gamma 120.000000
_cell_volume 1637.075889
_symmetry_space_group_name_H-M "P 32 1 2"
_symmetry_group_IT_number 153
_symmetry_cell_setting 'hexagonal'
loop_
_space_group_symop_operation_xyz
x,y,z
-y,x-y,2/3+z
-x+y,-x,1/3+z
-y,-x,1/3-z
-x+y,y,2/3-z
x,x-y,-z
loop_
_atom_site_type_symbol
_atom_site_label
_atom_site_fract_x
_atom_site_fract_y
_atom_site_fract_z
Si Si1 0.804903 0.941213 0.123951
Si Si2 0.143994 0.613005 0.604035
Si Si3 0.813613 0.782735 0.663359
Si Si4 0.538632 0.590966 0.351654
Si Si5 0.514650 0.250869 0.595782
Si Si6 0.714295 0.670611 0.567210
Si Si7 0.523594 0.732879 0.801496
O O1 0.641222 0.762765 0.093544
O O2 0.964754 0.862620 0.121676
O O3 0.720473 0.917805 0.170568
O O4 0.802904 0.127715 0.101478
O O5 0.002020 0.553578 0.644286
O O6 0.364341 0.749842 0.625291
O O7 0.143885 0.446254 0.574030
O O8 0.698285 0.907206 0.671038
O O9 0.729048 0.602405 0.697032
O O10 0.744880 0.725785 0.615796
O O11 0.052626 0.947375 0.666667
O O12 0.606424 0.487638 0.385957
O O13 0.681840 0.443953 0.571147
O O14 0.500021 0.607588 0.546010
O O15 0.384807 0.769613 0.833334
#
# Coordination Sequence:
#
# PCOD9576311 Si02
#       7
#     6   6   6   6   6   6   6
#     4  10  23  45  68 100 145 188 238 305 364 436
#     4   9  18  38  68  96 138 187 227 292 367 425
#     4  12  24  40  68 105 144 186 240 302 383 445
#     4  10  21  38  68 106 140 182 234 299 365 442
#     4  11  25  44  72 107 147 187 250 306 373 458
#     4  12  24  46  73 100 143 194 236 310 375 433
#     4  10  22  45  70 100 140 192 250 293 366 447
#
# _framework density 25.655498000000001
#
# number of rings (size 3 to 8) (size 9 to 14) (size 15 to 20)
#    0.000    1.429    2.857    2.143    4.000    2.857 
#   10.286    0.000    0.000    0.000    0.000    0.000 
#    0.000    0.000    0.000    0.000    0.000    0.000 
#
# Total GULP energy -234400.623725 kJ/mol
# GULP energy per Si atom -5580.967232 kJ/mol
# Density = 2.559710 g / cm^3
# Si number density = 25.655498 Si / 1000 Ang^3
#
#
#
# Elastic Constant Matrix: (Units=GPa)
#
#
# Indices 1 2 3 4 5 6 
#
# 1 63.2682 -14.9102 10.7100 -0.0001 1.5347 0.0000
# 2 -14.9102 63.2682 10.7100 0.0001 -1.5347 0.0000
# 3 10.7100 10.7100 150.3170 0.0000 0.0000 0.0000
# 4 -0.0001 0.0001 0.0000 42.5877 0.0000 -1.5347
# 5 1.5347 -1.5347 0.0000 0.0000 42.5877 -0.0001
# 6 0.0000 0.0000 0.0000 -1.5347 -0.0001 39.0892
#
#
#
# Elastic Compliance Matrix: (Units=1/GPa)
#
#
# Indices 1 2 3 4 5 6 
#
# 1 0.017081 0.004272 -0.001521 0.000000 -0.000462 0.000000
# 2 0.004272 0.017081 -0.001521 0.000000 0.000462 0.000000
# 3 -0.001521 -0.001521 0.006869 0.000000 0.000000 0.000000
# 4 0.000000 0.000000 0.000000 0.023514 0.000000 0.000923
# 5 -0.000462 0.000462 0.000000 0.000000 0.023514 0.000000
# 6 0.000000 0.000000 0.000000 0.000923 0.000000 0.025619
#
#
# Mechanical properties :
#
#
# Convention : Reuss Voigt Hill
#
# Bulk Modulus (GPa) = 22.99390 32.20811 27.60100
# Shear Modulus (GPa) = 39.77171 42.87584 41.32377
#
# Velocity S-wave (km/s) = 3.94156 4.09248 4.01773
# Velocity P-wave (km/s) = 5.44945 5.90869 5.68371
#
# Compressibility (1/GPa) = 0.04348980
#
# Stress axis : x y z
#
# Youngs Moduli (GPa) = 58.54399 58.54399 145.57311
#
# Poissons Ratio (x) = -0.25009 0.22147
# Poissons Ratio (y) = -0.25009 0.22147
# Poissons Ratio (z) = 0.08907 0.08907
#
# Static dielectric constant tensor:
#      x y z
#    x 2.226890 0.000000 0.000000 
#    y 0.000000 2.226890 0.000000 
#    z 0.000000 0.000000 1.988440 
# 
# From -- ./inp_files/5198.got.cif
#   From: 2010.05.17/outbox.cif.g08.bks.cpg/sg153_3_cif.got.tgz:5198.got - 2010.05.20 10:38:56.
