data_PCOD9576253
_publ_section_title
;
Structure prediction by ZEFSAII (Michael W. Deem and Ramdas Pophale) SiO2 
 PCOD9576253
Probable space group: P 32 1 2
;
_chemical_formula_sum "Si O2"
_cell_formula_units_Z 33
_cell_length_a 11.527879
_cell_length_b 11.527879
_cell_length_c 15.929344
_cell_angle_alpha 90.000000
_cell_angle_beta 90.000000
_cell_angle_gamma 120.000000
_cell_volume 1833.273841
_symmetry_space_group_name_H-M "P 32 1 2"
_symmetry_group_IT_number 153
_symmetry_cell_setting 'hexagonal'
loop_
_space_group_symop_operation_xyz
x,y,z
-y,x-y,2/3+z
-x+y,-x,1/3+z
-y,-x,1/3-z
-x+y,y,2/3-z
x,x-y,-z
loop_
_atom_site_type_symbol
_atom_site_label
_atom_site_fract_x
_atom_site_fract_y
_atom_site_fract_z
Si Si1 0.762761 0.503360 0.550899
Si Si2 0.184642 0.815359 0.666667
Si Si3 0.476982 0.376287 0.519257
Si Si4 0.938331 0.696955 0.408735
Si Si5 0.048951 0.821103 0.841375
Si Si6 0.533265 0.515984 0.999780
O O1 0.753620 0.376810 0.500000
O O2 0.611889 0.464578 0.571554
O O3 0.839823 0.627520 0.487988
O O4 0.856295 0.523952 0.629622
O O5 0.107994 0.826650 0.748137
O O6 0.113763 0.657418 0.647906
O O7 0.471307 0.235654 0.500000
O O8 0.326039 0.329196 0.546415
O O9 0.502101 0.458548 0.432535
O O10 0.856888 0.713776 0.333334
O O11 0.983247 0.591773 0.376951
O O12 0.062895 0.835433 0.437627
O O13 0.918416 0.836832 0.833334
#
# Coordination Sequence:
#
# PCOD9576253 Si02
#       6
#     6   3   6   6   6   6
#     4   9  17  29  52  83 111 136 177 232 286 325
#     4  10  20  36  56  78 110 148 190 226 282 354
#     4   9  18  33  52  80 115 141 179 231 281 335
#     4  11  20  34  57  86 110 143 189 242 282 340
#     4  10  22  36  53  78 112 157 185 226 281 347
#     4  10  19  33  56  84 112 143 187 234 290 337
#
# _framework density 18.000582999999999
#
# number of rings (size 3 to 8) (size 9 to 14) (size 15 to 20)
#    0.000    2.182    3.636    0.000    1.273    0.000 
#    0.000    0.000    0.000    8.727    0.000    0.000 
#    0.000    0.000    0.000    0.000    0.000    0.000 
#
# Total GULP energy -184020.531591 kJ/mol
# GULP energy per Si atom -5576.379745 kJ/mol
# Density = 1.795961 g / cm^3
# Si number density = 18.000583 Si / 1000 Ang^3
#
#
#
# Elastic Constant Matrix: (Units=GPa)
#
#
# Indices 1 2 3 4 5 6 
#
# 1 132.9635 70.1327 36.2395 0.0001 -6.5980 0.0000
# 2 70.1327 132.9635 36.2395 -0.0001 6.5980 0.0000
# 3 36.2395 36.2395 45.4344 0.0000 0.0000 0.0000
# 4 0.0001 -0.0001 0.0000 20.7674 0.0000 6.5980
# 5 -6.5980 6.5980 0.0000 0.0000 20.7674 0.0001
# 6 0.0000 0.0000 0.0000 6.5980 0.0001 31.4154
#
#
#
# Elastic Compliance Matrix: (Units=1/GPa)
#
#
# Indices 1 2 3 4 5 6 
#
# 1 0.011968 -0.005085 -0.005490 0.000000 0.005418 0.000000
# 2 -0.005085 0.011968 -0.005490 0.000000 -0.005418 0.000000
# 3 -0.005490 -0.005490 0.030768 0.000000 0.000000 0.000000
# 4 0.000000 0.000000 0.000000 0.051595 0.000000 -0.010836
# 5 0.005418 -0.005418 0.000000 0.000000 0.051595 0.000000
# 6 0.000000 0.000000 0.000000 -0.010836 0.000000 0.034107
#
#
# Mechanical properties :
#
#
# Convention : Reuss Voigt Hill
#
# Bulk Modulus (GPa) = 44.29962 66.28720 55.29341
# Shear Modulus (GPa) = 21.58359 25.84003 23.71181
#
# Velocity S-wave (km/s) = 3.46649 3.79292 3.63337
# Velocity P-wave (km/s) = 6.37852 7.48910 6.95601
#
# Compressibility (1/GPa) = 0.02257356
#
# Stress axis : x y z
#
# Youngs Moduli (GPa) = 83.55374 83.55374 32.50164
#
# Poissons Ratio (x) = 0.42490 0.17843
# Poissons Ratio (y) = 0.42490 0.17843
# Poissons Ratio (z) = 0.45871 0.45871
#
# Static dielectric constant tensor:
#      x y z
#    x 1.617250 0.000000 0.000000 
#    y 0.000000 1.617250 0.000000 
#    z 0.000000 0.000000 1.636100 
# 
# From -- ./inp_files/2906.got.cif
#   From: 2010.05.17/outbox.cif.g08.bks.cpg/sg153_2_cif.got.tgz:2906.got - 2010.05.20 10:38:56.
