data_PCOD9576460
_publ_section_title
;
Structure prediction by ZEFSAII (Michael W. Deem and Ramdas Pophale) SiO2 
 PCOD9576460
Probable space group: P 32 2 1
;
_chemical_formula_sum "Si O2"
_cell_formula_units_Z 18
_cell_length_a 9.106269
_cell_length_b 9.106269
_cell_length_c 9.350126
_cell_angle_alpha 90.000000
_cell_angle_beta 90.000000
_cell_angle_gamma 120.000000
_cell_volume 671.473760
_symmetry_space_group_name_H-M "P 32 2 1"
_symmetry_group_IT_number 154
_symmetry_cell_setting 'hexagonal'
loop_
_space_group_symop_operation_xyz
x,y,z
-y,x-y,2/3+z
-x+y,-x,1/3+z
x-y,-y,1/3-z
-x,-x+y,2/3-z
y,x,-z
loop_
_atom_site_type_symbol
_atom_site_label
_atom_site_fract_x
_atom_site_fract_y
_atom_site_fract_z
Si Si1 0.426782 0.251433 0.424862
Si Si2 0.465550 0.666940 0.954167
Si Si3 0.270204 0.280269 0.850731
O O1 0.397042 0.397042 0.500000
O O2 0.608778 0.304380 0.357496
O O3 0.430259 0.145834 0.562038
O O4 0.289712 0.180806 0.296069
O O5 0.377467 0.479478 0.891674
O O6 0.596323 0.817186 0.853688
O O7 0.187755 0.187755 0.000000
#
# Coordination Sequence:
#
# PCOD9576460 Si02
#       3
#     6   6   6
#     4  10  20  31  49  77 113 147 193 240 296 357
#     4  11  20  35  52  84 116 150 195 242 306 359
#     4  11  20  33  56  77 116 153 192 246 302 365
#
# _framework density 26.806705000000001
#
# number of rings (size 3 to 8) (size 9 to 14) (size 15 to 20)
#    0.000    1.333    6.667    0.000    0.000    0.000 
#    0.000    0.000    0.000    0.000    0.000    2.333 
#   30.000    0.667    0.000    0.333    0.667    0.000 
#
# Total GULP energy -100340.962915 kJ/mol
# GULP energy per Si atom -5574.497940 kJ/mol
# Density = 2.674569 g / cm^3
# Si number density = 26.806705 Si / 1000 Ang^3
#
#
#
# Elastic Constant Matrix: (Units=GPa)
#
#
# Indices 1 2 3 4 5 6 
#
# 1 100.0441 40.1475 32.2868 0.5254 0.0000 0.0000
# 2 40.1475 100.0441 32.2868 -0.5254 0.0000 0.0000
# 3 32.2868 32.2868 210.9183 0.0000 0.0000 0.0000
# 4 0.5254 -0.5254 0.0000 29.7468 0.0000 0.0000
# 5 0.0000 0.0000 0.0000 0.0000 29.7468 0.5254
# 6 0.0000 0.0000 0.0000 0.0000 0.5254 29.9483
#
#
#
# Elastic Compliance Matrix: (Units=1/GPa)
#
#
# Indices 1 2 3 4 5 6 
#
# 1 0.012187 -0.004513 -0.001175 -0.000295 0.000000 0.000000
# 2 -0.004513 0.012187 -0.001175 0.000295 0.000000 0.000000
# 3 -0.001175 -0.001175 0.005101 0.000000 0.000000 0.000000
# 4 -0.000295 0.000295 0.000000 0.033628 0.000000 0.000000
# 5 0.000000 0.000000 0.000000 0.000000 0.033628 -0.000590
# 6 0.000000 0.000000 0.000000 0.000000 -0.000590 0.033401
#
#
# Mechanical properties :
#
#
# Convention : Reuss Voigt Hill
#
# Bulk Modulus (GPa) = 63.49112 68.93876 66.21494
# Shear Modulus (GPa) = 33.53287 38.30738 35.92013
#
# Velocity S-wave (km/s) = 3.54066 3.78434 3.66453
# Velocity P-wave (km/s) = 6.36013 6.69834 6.53143
#
# Compressibility (1/GPa) = 0.01575023
#
# Stress axis : x y z
#
# Youngs Moduli (GPa) = 82.05188 82.05188 196.04663
#
# Poissons Ratio (x) = 0.37032 0.23031
# Poissons Ratio (y) = 0.37032 0.23031
# Poissons Ratio (z) = 0.09639 0.09639
#
# Static dielectric constant tensor:
#      x y z
#    x 2.117560 0.000000 0.000000 
#    y 0.000000 2.117560 0.000000 
#    z 0.000000 0.000000 2.310170 
# 
# From -- ./inp_files/747.got.cif
#   From: 2010.05.17/outbox.cif.g08.bks.cpg/sg154_1_cif.got.tgz:747.got - 2010.05.20 10:41:43.
