data_PCOD9576385
_publ_section_title
;
Structure prediction by ZEFSAII (Michael W. Deem and Ramdas Pophale) SiO2 
 PCOD9576385
Probable space group: P 32 2 1
;
_chemical_formula_sum "Si O2"
_cell_formula_units_Z 48
_cell_length_a 16.764885
_cell_length_b 16.764885
_cell_length_c 11.830401
_cell_angle_alpha 90.000000
_cell_angle_beta 90.000000
_cell_angle_gamma 120.000000
_cell_volume 2879.593965
_symmetry_space_group_name_H-M "P 32 2 1"
_symmetry_group_IT_number 154
_symmetry_cell_setting 'hexagonal'
loop_
_space_group_symop_operation_xyz
x,y,z
-y,x-y,2/3+z
-x+y,-x,1/3+z
x-y,-y,1/3-z
-x,-x+y,2/3-z
y,x,-z
loop_
_atom_site_type_symbol
_atom_site_label
_atom_site_fract_x
_atom_site_fract_y
_atom_site_fract_z
Si Si1 0.926978 0.378649 0.229618
Si Si2 0.202978 0.418967 0.283687
Si Si3 0.499678 0.875462 0.404271
Si Si4 0.331646 0.913830 0.421971
Si Si5 0.212439 0.639314 0.835918
Si Si6 0.350167 0.573743 0.128422
Si Si7 0.050379 0.656983 0.719796
Si Si8 0.248294 0.772291 0.241749
O O1 0.848410 0.279996 0.276011
O O2 0.877360 0.437538 0.206835
O O3 0.000000 0.423566 0.333334
O O4 0.978819 0.371727 0.118937
O O5 0.128299 0.382112 0.184687
O O6 0.281804 0.515427 0.229404
O O7 0.250179 0.359592 0.315587
O O8 0.408605 0.880951 0.439974
O O9 0.465504 0.806800 0.297225
O O10 0.542966 0.838629 0.498144
O O11 0.575282 0.974328 0.355767
O O12 0.277370 0.868665 0.305923
O O13 0.318340 0.706407 0.806391
O O14 0.131695 0.639013 0.763395
O O15 0.201571 0.539209 0.834262
O O16 0.293742 0.534917 0.012796
O O17 0.000000 0.661785 0.833334
#
# Coordination Sequence:
#
# PCOD9576385 Si02
#       8
#     6   6   6   6   6   6   6   6
#     4  10  18  30  46  68  98 125 167 214 254 289
#     4  10  19  30  48  69  93 128 168 205 251 299
#     4  10  20  33  46  67 101 126 166 216 257 293
#     4   9  19  32  46  70  94 126 163 217 255 292
#     4  10  19  30  48  69  92 129 174 206 244 295
#     4  11  19  29  50  72  92 127 175 211 252 287
#     4  10  21  34  45  68  98 131 167 206 253 299
#     4  10  19  32  49  68  97 127 174 219 254 292
#
# _framework density 16.669017
#
# number of rings (size 3 to 8) (size 9 to 14) (size 15 to 20)
#    0.000    2.000    1.250    5.250    1.750    0.000 
#    0.000    1.875    0.000    0.000    0.000    0.000 
#    0.000    0.000    0.000   20.250    0.000    0.750 
#
# Total GULP energy -267284.844363 kJ/mol
# GULP energy per Si atom -5568.434258 kJ/mol
# Density = 1.663108 g / cm^3
# Si number density = 16.669017 Si / 1000 Ang^3
#
#
#
# Elastic Constant Matrix: (Units=GPa)
#
#
# Indices 1 2 3 4 5 6 
#
# 1 61.6782 14.4169 22.2191 -4.6226 0.0000 0.0000
# 2 14.4169 61.6782 22.2191 4.6226 0.0000 0.0000
# 3 22.2191 22.2191 55.5188 0.0000 0.0000 0.0000
# 4 -4.6226 4.6226 0.0000 26.7868 0.0000 0.0000
# 5 0.0000 0.0000 0.0000 0.0000 26.7868 -4.6226
# 6 0.0000 0.0000 0.0000 0.0000 -4.6226 23.6306
#
#
#
# Elastic Compliance Matrix: (Units=1/GPa)
#
#
# Indices 1 2 3 4 5 6 
#
# 1 0.019524 -0.002374 -0.006863 0.003779 0.000000 0.000000
# 2 -0.002374 0.019524 -0.006863 -0.003779 0.000000 0.000000
# 3 -0.006863 -0.006863 0.023505 0.000000 0.000000 0.000000
# 4 0.003779 -0.003779 0.000000 0.038636 0.000000 0.000000
# 5 0.000000 0.000000 0.000000 0.000000 0.038636 0.007558
# 6 0.000000 0.000000 0.000000 0.000000 0.007558 0.043796
#
#
# Mechanical properties :
#
#
# Convention : Reuss Voigt Hill
#
# Bulk Modulus (GPa) = 32.94781 32.95391 32.95086
# Shear Modulus (GPa) = 22.12967 23.44218 22.78592
#
# Velocity S-wave (km/s) = 3.64757 3.75418 3.70126
# Velocity P-wave (km/s) = 6.12768 6.21323 6.17061
#
# Compressibility (1/GPa) = 0.03035103
#
# Stress axis : x y z
#
# Youngs Moduli (GPa) = 51.21934 51.21934 42.54329
#
# Poissons Ratio (x) = 0.12161 0.29199
# Poissons Ratio (y) = 0.12161 0.29199
# Poissons Ratio (z) = 0.35154 0.35154
#
# Static dielectric constant tensor:
#      x y z
#    x 1.579670 0.000000 0.000000 
#    y 0.000000 1.579670 0.000000 
#    z 0.000000 0.000000 1.654850 
# 
# From -- ./inp_files/1819.got.cif
#   From: 2010.05.17/outbox.cif.g08.bks.cpg/sg154_1_cif.got.tgz:1819.got - 2010.05.20 10:41:43.
