data_PCOD9576319
_publ_section_title
;
Structure prediction by ZEFSAII (Michael W. Deem and Ramdas Pophale) SiO2 
 PCOD9576319
Probable space group: P 32 1 2
;
_chemical_formula_sum "Si O2"
_cell_formula_units_Z 42
_cell_length_a 9.208377
_cell_length_b 9.208377
_cell_length_c 28.633786
_cell_angle_alpha 90.000000
_cell_angle_beta 90.000000
_cell_angle_gamma 120.000000
_cell_volume 2102.691647
_symmetry_space_group_name_H-M "P 32 1 2"
_symmetry_group_IT_number 153
_symmetry_cell_setting 'hexagonal'
loop_
_space_group_symop_operation_xyz
x,y,z
-y,x-y,2/3+z
-x+y,-x,1/3+z
-y,-x,1/3-z
-x+y,y,2/3-z
x,x-y,-z
loop_
_atom_site_type_symbol
_atom_site_label
_atom_site_fract_x
_atom_site_fract_y
_atom_site_fract_z
Si Si1 0.779455 0.384776 0.950845
Si Si2 0.978945 0.127806 0.219815
Si Si3 0.258338 0.352206 0.604517
Si Si4 0.791320 0.761758 0.582712
Si Si5 0.277721 0.974680 0.017767
Si Si6 0.941567 0.502922 0.761674
Si Si7 0.465534 0.875513 0.478122
O O1 0.833749 0.251825 0.936500
O O2 0.671195 0.412741 0.912158
O O3 0.944654 0.567890 0.959152
O O4 0.685798 0.342899 0.000000
O O5 0.907911 0.092090 0.166667
O O6 0.006005 0.304163 0.239151
O O7 0.142585 0.110581 0.223472
O O8 0.837443 0.987520 0.253158
O O9 0.148832 0.392103 0.640161
O O10 0.331480 0.462838 0.558200
O O11 0.781224 0.879993 0.622185
O O12 0.634846 0.715221 0.548953
O O13 0.419781 0.991386 0.054474
O O14 0.307501 0.153751 0.000000
O O15 0.992478 0.479885 0.813346
O O16 0.388691 0.694346 0.500000
#
# Coordination Sequence:
#
# PCOD9576319 Si02
#       7
#     6   6   6   6   6   6   6
#     4  10  21  41  66  99 135 179 223 272 356 407
#     4  11  22  43  71 100 131 182 233 280 344 413
#     4  10  22  39  71  93 135 182 226 271 339 420
#     4  11  23  38  75  96 130 177 234 280 331 418
#     4  12  23  42  69 105 133 178 232 285 342 402
#     4  11  25  43  69  98 140 181 224 289 349 415
#     4  11  22  43  67 100 136 181 231 276 350 412
#
# _framework density 19.974398999999998
#
# number of rings (size 3 to 8) (size 9 to 14) (size 15 to 20)
#    0.000    1.143    5.714    0.857    0.000    0.000 
#    0.000    4.286    0.000    0.000    0.000    0.000 
#    0.000    0.000    0.000    0.000    0.000    0.000 
#
# Total GULP energy -234362.276424 kJ/mol
# GULP energy per Si atom -5580.054201 kJ/mol
# Density = 1.992894 g / cm^3
# Si number density = 19.974399 Si / 1000 Ang^3
#
#
#
# Elastic Constant Matrix: (Units=GPa)
#
#
# Indices 1 2 3 4 5 6 
#
# 1 89.6472 55.9277 50.5184 -0.0005 10.1656 0.0000
# 2 55.9277 89.6472 50.5184 0.0005 -10.1656 0.0000
# 3 50.5184 50.5184 127.5860 0.0000 0.0000 0.0000
# 4 -0.0005 0.0005 0.0000 33.3981 0.0000 -10.1656
# 5 10.1656 -10.1656 0.0000 0.0000 33.3981 -0.0005
# 6 0.0000 0.0000 0.0000 -10.1656 -0.0005 16.8598
#
#
#
# Elastic Compliance Matrix: (Units=1/GPa)
#
#
# Indices 1 2 3 4 5 6 
#
# 1 0.022897 -0.013425 -0.003751 0.000001 -0.011056 0.000000
# 2 -0.013425 0.022897 -0.003751 -0.000001 0.011056 0.000000
# 3 -0.003751 -0.003751 0.010808 0.000000 0.000000 0.000000
# 4 0.000001 -0.000001 0.000000 0.036672 0.000000 0.022111
# 5 -0.011056 0.011056 0.000000 0.000000 0.036672 0.000001
# 6 0.000000 0.000000 0.000000 0.022111 0.000001 0.072645
#
#
# Mechanical properties :
#
#
# Convention : Reuss Voigt Hill
#
# Bulk Modulus (GPa) = 67.79524 68.97884 68.38704
# Shear Modulus (GPa) = 20.05122 26.72556 23.38839
#
# Velocity S-wave (km/s) = 3.17179 3.66182 3.42558
# Velocity P-wave (km/s) = 6.88683 7.24480 7.06808
#
# Compressibility (1/GPa) = 0.01475030
#
# Stress axis : x y z
#
# Youngs Moduli (GPa) = 43.67296 43.67296 92.52344
#
# Poissons Ratio (x) = 0.58631 0.34703
# Poissons Ratio (y) = 0.58631 0.34703
# Poissons Ratio (z) = 0.16380 0.16380
#
# Static dielectric constant tensor:
#      x y z
#    x 1.762280 0.000000 0.000000 
#    y 0.000000 1.762280 0.000000 
#    z 0.000000 0.000000 1.724010 
# 
# From -- ./inp_files/5191.got.cif
#   From: 2010.05.17/outbox.cif.g08.bks.cpg/sg153_3_cif.got.tgz:5191.got - 2010.05.20 10:38:56.
