data_PCOD9576171
_publ_section_title
;
Structure prediction by ZEFSAII (Michael W. Deem and Ramdas Pophale) SiO2 
 PCOD9576171
Probable space group: P 31 2 1
;
_chemical_formula_sum "Si O2"
_cell_formula_units_Z 30
_cell_length_a 16.930782
_cell_length_b 16.930782
_cell_length_c 4.689075
_cell_angle_alpha 90.000000
_cell_angle_beta 90.000000
_cell_angle_gamma 120.000000
_cell_volume 1164.050566
_symmetry_space_group_name_H-M "P 31 2 1"
_symmetry_group_IT_number 152
_symmetry_cell_setting 'hexagonal'
loop_
_space_group_symop_operation_xyz
x,y,z
-y,x-y,1/3+z
-x+y,-x,2/3+z
x-y,-y,2/3-z
-x,-x+y,1/3-z
y,x,-z
loop_
_atom_site_type_symbol
_atom_site_label
_atom_site_fract_x
_atom_site_fract_y
_atom_site_fract_z
Si Si1 0.129917 0.290474 0.169324
Si Si2 0.092840 0.000000 0.833334
Si Si3 0.832873 0.376445 0.101368
Si Si4 0.257198 0.350726 0.670079
Si Si5 0.359950 0.000000 0.833334
Si Si6 0.663902 0.190537 0.287178
O O1 0.068897 0.190470 0.309189
O O2 0.194471 0.356263 0.419386
O O3 0.068901 0.330052 0.030238
O O4 0.187680 0.284763 0.909769
O O5 0.000000 0.936357 0.666667
O O6 0.927858 0.381836 0.017630
O O7 0.759787 0.280347 0.234380
O O8 0.848232 0.453666 0.333370
O O9 0.786479 0.388771 0.823653
O O10 0.313045 0.313045 0.500000
O O11 0.318436 0.439679 0.859470
#
# Coordination Sequence:
#
# PCOD9576171 Si02
#       6
#     6   3   6   6   3   6
#     4  11  27  49  77 108 153 204 250 321 376 451
#     4  11  26  42  74 111 146 194 258 311 368 450
#     4  12  27  50  79 113 155 202 258 326 390 474
#     4  12  26  50  75 109 156 207 250 311 387 464
#     4  11  28  52  80 115 154 200 264 319 390 460
#     4  12  27  49  78 113 154 202 255 320 398 464
#
# _framework density 25.772075000000001
#
# number of rings (size 3 to 8) (size 9 to 14) (size 15 to 20)
#    0.000    0.400    2.000    5.400    8.400    4.800 
#    0.000    0.000    0.000    0.000    0.000    0.000 
#    0.000    0.000    0.000    0.000    0.000    0.000 
#
# Total GULP energy -167715.720372 kJ/mol
# GULP energy per Si atom -5590.524012 kJ/mol
# Density = 2.571342 g / cm^3
# Si number density = 25.772075 Si / 1000 Ang^3
#
#
#
# Elastic Constant Matrix: (Units=GPa)
#
#
# Indices 1 2 3 4 5 6 
#
# 1 124.5626 45.6918 31.7831 0.6517 0.0000 0.0000
# 2 45.6918 124.5626 31.7831 -0.6517 0.0000 0.0000
# 3 31.7831 31.7831 118.3583 0.0000 0.0000 0.0000
# 4 0.6517 -0.6517 0.0000 28.5236 0.0000 0.0000
# 5 0.0000 0.0000 0.0000 0.0000 28.5236 0.6517
# 6 0.0000 0.0000 0.0000 0.0000 0.6517 39.4354
#
#
#
# Elastic Compliance Matrix: (Units=1/GPa)
#
#
# Indices 1 2 3 4 5 6 
#
# 1 0.009606 -0.003078 -0.001753 -0.000290 0.000000 0.000000
# 2 -0.003078 0.009606 -0.001753 0.000290 0.000000 0.000000
# 3 -0.001753 -0.001753 0.009390 0.000000 0.000000 0.000000
# 4 -0.000290 0.000290 0.000000 0.035072 0.000000 0.000000
# 5 0.000000 0.000000 0.000000 0.000000 0.035072 -0.000580
# 6 0.000000 0.000000 0.000000 0.000000 -0.000580 0.025368
#
#
# Mechanical properties :
#
#
# Convention : Reuss Voigt Hill
#
# Bulk Modulus (GPa) = 64.78980 65.11104 64.95042
# Shear Modulus (GPa) = 35.10590 36.51154 35.80872
#
# Velocity S-wave (km/s) = 3.69476 3.76800 3.73156
# Velocity P-wave (km/s) = 6.58755 6.65203 6.61987
#
# Compressibility (1/GPa) = 0.01543453
#
# Stress axis : x y z
#
# Youngs Moduli (GPa) = 104.10260 104.10260 106.49177
#
# Poissons Ratio (x) = 0.32041 0.18668
# Poissons Ratio (y) = 0.32041 0.18668
# Poissons Ratio (z) = 0.18249 0.18249
#
# Static dielectric constant tensor:
#      x y z
#    x 2.080130 0.000000 0.000000 
#    y 0.000000 2.080130 0.000000 
#    z 0.000000 0.000000 2.009450 
# 
# From -- ./inp_files/399.got.cif
#   From: 2010.05.17/outbox.cif.g08.bks.cpg/sg152_1_cif.got.tgz:399.got - 2010.05.20 10:36:06.
