data_PCOD9576614
_publ_section_title
;
Structure prediction by ZEFSAII (Michael W. Deem and Ramdas Pophale) SiO2 
 PCOD9576614
Probable space group: P 32 2 1
;
_chemical_formula_sum "Si O2"
_cell_formula_units_Z 18
_cell_length_a 7.765068
_cell_length_b 7.765068
_cell_length_c 13.553353
_cell_angle_alpha 90.000000
_cell_angle_beta 90.000000
_cell_angle_gamma 120.000000
_cell_volume 707.730493
_symmetry_space_group_name_H-M "P 32 2 1"
_symmetry_group_IT_number 154
_symmetry_cell_setting 'hexagonal'
loop_
_space_group_symop_operation_xyz
x,y,z
-y,x-y,2/3+z
-x+y,-x,1/3+z
x-y,-y,1/3-z
-x,-x+y,2/3-z
y,x,-z
loop_
_atom_site_type_symbol
_atom_site_label
_atom_site_fract_x
_atom_site_fract_y
_atom_site_fract_z
Si Si1 0.000000 0.755299 0.333334
Si Si2 0.668063 0.086366 0.951578
Si Si3 0.324888 0.648151 0.893319
Si Si4 0.070882 0.000000 0.166667
O O1 0.152357 0.702401 0.279882
O O2 0.917437 0.832808 0.241841
O O3 0.647635 0.250698 0.886006
O O4 0.876591 0.118422 0.913017
O O5 0.506481 0.860993 0.925303
O O6 0.655330 0.133949 0.065327
#
# Coordination Sequence:
#
# PCOD9576614 Si02
#       4
#     3   6   6   3
#     4  10  22  42  66  98 134 178 232 290 352 420
#     4  11  23  41  69 100 136 183 230 290 350 417
#     4  11  23  43  68  98 136 179 233 290 353 418
#     4  10  22  42  68  96 134 174 226 284 346 408
#
# _framework density 25.433413000000002
#
# number of rings (size 3 to 8) (size 9 to 14) (size 15 to 20)
#    0.000    1.333    0.000    8.000    0.000    1.333 
#    0.000    6.667    0.000    2.000    0.000    0.000 
#    0.000    0.000    0.000    0.000    0.000    0.000 
#
# Total GULP energy -100333.414034 kJ/mol
# GULP energy per Si atom -5574.078557 kJ/mol
# Density = 2.537553 g / cm^3
# Si number density = 25.433413 Si / 1000 Ang^3
#
#
#
# Elastic Constant Matrix: (Units=GPa)
#
#
# Indices 1 2 3 4 5 6 
#
# 1 85.3315 22.5337 40.4579 7.3210 0.0002 0.0000
# 2 22.5337 85.3315 40.4579 -7.3210 -0.0002 0.0000
# 3 40.4579 40.4579 166.3759 0.0000 0.0000 0.0000
# 4 7.3210 -7.3210 0.0000 56.0646 0.0000 -0.0002
# 5 0.0002 -0.0002 0.0000 0.0000 56.0646 7.3210
# 6 0.0000 0.0000 0.0000 -0.0002 7.3210 31.3989
#
#
#
# Elastic Compliance Matrix: (Units=1/GPa)
#
#
# Indices 1 2 3 4 5 6 
#
# 1 0.013882 -0.002542 -0.002757 -0.002145 0.000000 0.000000
# 2 -0.002542 0.013882 -0.002757 0.002145 0.000000 0.000000
# 3 -0.002757 -0.002757 0.007352 0.000000 0.000000 0.000000
# 4 -0.002145 0.002145 0.000000 0.018397 0.000000 0.000000
# 5 0.000000 0.000000 0.000000 0.000000 0.018397 -0.004289
# 6 0.000000 0.000000 0.000000 0.000000 -0.004289 0.032848
#
#
# Mechanical properties :
#
#
# Convention : Reuss Voigt Hill
#
# Bulk Modulus (GPa) = 52.63003 60.43752 56.53378
# Shear Modulus (GPa) = 39.30673 44.27825 41.79249
#
# Velocity S-wave (km/s) = 3.93552 4.17699 4.05805
# Velocity P-wave (km/s) = 6.43345 6.86132 6.65082
#
# Compressibility (1/GPa) = 0.01900056
#
# Stress axis : x y z
#
# Youngs Moduli (GPa) = 72.03707 72.03707 136.02616
#
# Poissons Ratio (x) = 0.18315 0.37508
# Poissons Ratio (y) = 0.18315 0.37508
# Poissons Ratio (z) = 0.19863 0.19863
#
# Static dielectric constant tensor:
#      x y z
#    x 2.051790 0.000000 0.000000 
#    y 0.000000 2.051790 0.000000 
#    z 0.000000 0.000000 2.081150 
# 
# From -- ./inp_files/2198.got.cif
#   From: 2010.05.17/outbox.cif.g08.bks.cpg/sg154_2_cif.got.tgz:2198.got - 2010.05.20 10:41:43.
