data_PCOD9576377
_publ_section_title
;
Structure prediction by ZEFSAII (Michael W. Deem and Ramdas Pophale) SiO2 
 PCOD9576377
Probable space group: P 32 2 1
;
_chemical_formula_sum "Si O2"
_cell_formula_units_Z 39
_cell_length_a 14.121228
_cell_length_b 14.121228
_cell_length_c 11.470674
_cell_angle_alpha 90.000000
_cell_angle_beta 90.000000
_cell_angle_gamma 120.000000
_cell_volume 1980.908881
_symmetry_space_group_name_H-M "P 32 2 1"
_symmetry_group_IT_number 154
_symmetry_cell_setting 'hexagonal'
loop_
_space_group_symop_operation_xyz
x,y,z
-y,x-y,2/3+z
-x+y,-x,1/3+z
x-y,-y,1/3-z
-x,-x+y,2/3-z
y,x,-z
loop_
_atom_site_type_symbol
_atom_site_label
_atom_site_fract_x
_atom_site_fract_y
_atom_site_fract_z
Si Si1 0.660272 0.660272 0.000000
Si Si2 0.918399 0.357344 0.702682
Si Si3 0.294728 0.881888 0.891301
Si Si4 0.352664 0.475764 0.493256
Si Si5 0.188747 0.657021 0.559378
Si Si6 0.262864 0.383357 0.003621
Si Si7 0.154688 0.561299 0.205280
O O1 0.673409 0.729194 0.118526
O O2 0.645230 0.548409 0.052071
O O3 0.887918 0.420009 0.799743
O O4 0.845355 0.226844 0.706620
O O5 0.884849 0.403618 0.590163
O O6 0.039935 0.379772 0.671041
O O7 0.199488 0.756356 0.900575
O O8 0.398825 0.868072 0.858079
O O9 0.376550 0.376550 0.500000
O O10 0.333625 0.495616 0.359382
O O11 0.148437 0.715480 0.467904
O O12 0.320321 0.716234 0.546225
O O13 0.278847 0.278847 0.000000
O O14 0.357041 0.476066 0.922489
#
# Coordination Sequence:
#
# PCOD9576377 Si02
#       7
#     3   6   6   6   6   6   6
#     4  10  16  32  56  76 108 154 194 244 294 348
#     4  10  24  38  55  87 122 162 203 247 311 372
#     4  11  21  38  58  81 123 156 196 259 300 375
#     4  12  24  39  57  91 124 161 203 252 320 383
#     4  11  20  35  56  85 118 157 199 246 308 371
#     4  11  20  35  58  85 114 161 208 252 295 366
#     4  10  18  33  56  82 113 153 203 242 297 361
#
# _framework density 19.687930999999999
#
# number of rings (size 3 to 8) (size 9 to 14) (size 15 to 20)
#    0.000    1.231    5.385    1.846    0.000    3.692 
#    0.000    0.000    0.000    0.000    2.000    0.000 
#    0.000    0.000    0.000    0.000    0.000    0.000 
#
# Total GULP energy -217409.011549 kJ/mol
# GULP energy per Si atom -5574.590040 kJ/mol
# Density = 1.964312 g / cm^3
# Si number density = 19.687931 Si / 1000 Ang^3
#
#
#
# Elastic Constant Matrix: (Units=GPa)
#
#
# Indices 1 2 3 4 5 6 
#
# 1 91.7981 45.3431 17.4165 0.5193 0.0000 0.0000
# 2 45.3431 91.7981 17.4165 -0.5193 0.0000 0.0000
# 3 17.4165 17.4165 62.8922 0.0000 0.0000 0.0000
# 4 0.5193 -0.5193 0.0000 16.8376 0.0000 0.0000
# 5 0.0000 0.0000 0.0000 0.0000 16.8376 0.5193
# 6 0.0000 0.0000 0.0000 0.0000 0.5193 23.2275
#
#
#
# Elastic Compliance Matrix: (Units=1/GPa)
#
#
# Indices 1 2 3 4 5 6 
#
# 1 0.014692 -0.006849 -0.002172 -0.000664 0.000000 0.000000
# 2 -0.006849 0.014692 -0.002172 0.000664 0.000000 0.000000
# 3 -0.002172 -0.002172 0.017103 0.000000 0.000000 0.000000
# 4 -0.000664 0.000664 0.000000 0.059432 0.000000 0.000000
# 5 0.000000 0.000000 0.000000 0.000000 0.059432 -0.001329
# 6 0.000000 0.000000 0.000000 0.000000 -0.001329 0.043082
#
#
# Mechanical properties :
#
#
# Convention : Reuss Voigt Hill
#
# Bulk Modulus (GPa) = 41.49051 45.20450 43.34750
# Shear Modulus (GPa) = 20.93333 22.46801 21.70067
#
# Velocity S-wave (km/s) = 3.26430 3.38184 3.32359
# Velocity P-wave (km/s) = 5.94368 6.18543 6.06576
#
# Compressibility (1/GPa) = 0.02410190
#
# Stress axis : x y z
#
# Youngs Moduli (GPa) = 68.06306 68.06306 58.46849
#
# Poissons Ratio (x) = 0.46615 0.12700
# Poissons Ratio (y) = 0.46615 0.12700
# Poissons Ratio (z) = 0.14784 0.14784
#
# Static dielectric constant tensor:
#      x y z
#    x 1.731440 0.000000 0.000000 
#    y 0.000000 1.731440 0.000000 
#    z 0.000000 0.000000 1.803370 
# 
# From -- ./inp_files/1688.got.cif
#   From: 2010.05.17/outbox.cif.g08.bks.cpg/sg154_1_cif.got.tgz:1688.got - 2010.05.20 10:41:43.
