data_PCOD9576447
_publ_section_title
;
Structure prediction by ZEFSAII (Michael W. Deem and Ramdas Pophale) SiO2 
 PCOD9576447
Probable space group: P 32 2 1
;
_chemical_formula_sum "Si O2"
_cell_formula_units_Z 36
_cell_length_a 9.645122
_cell_length_b 9.645122
_cell_length_c 23.677437
_cell_angle_alpha 90.000000
_cell_angle_beta 90.000000
_cell_angle_gamma 120.000000
_cell_volume 1907.571267
_symmetry_space_group_name_H-M "P 32 2 1"
_symmetry_group_IT_number 154
_symmetry_cell_setting 'hexagonal'
loop_
_space_group_symop_operation_xyz
x,y,z
-y,x-y,2/3+z
-x+y,-x,1/3+z
x-y,-y,1/3-z
-x,-x+y,2/3-z
y,x,-z
loop_
_atom_site_type_symbol
_atom_site_label
_atom_site_fract_x
_atom_site_fract_y
_atom_site_fract_z
Si Si1 0.911188 0.701705 0.952596
Si Si2 0.423712 0.000000 0.666667
Si Si3 0.318056 0.046900 0.504853
Si Si4 0.857614 0.019238 0.789629
Si Si5 0.000000 0.953897 0.333334
Si Si6 0.612135 0.118428 0.779300
Si Si7 0.515569 0.389192 0.450868
O O1 0.753548 0.598802 0.990901
O O2 0.829226 0.728037 0.896659
O O3 0.017595 0.625321 0.931905
O O4 0.016328 0.871231 0.982683
O O5 0.500356 0.967761 0.612599
O O6 0.378795 0.922044 0.516727
O O7 0.163709 0.970256 0.466165
O O8 0.447509 0.212108 0.476814
O O9 0.897437 0.051485 0.723063
O O10 0.708105 0.039273 0.805563
O O11 0.000000 0.122063 0.833334
O O12 0.748355 0.302099 0.769494
O O13 0.495851 0.495851 0.500000
#
# Coordination Sequence:
#
# PCOD9576447 Si02
#       7
#     6   3   6   6   3   6   6
#     4   9  18  37  65  82 110 159 209 244 289 360
#     4   9  21  40  56  82 120 166 196 244 308 368
#     4  10  19  39  63  85 116 161 206 240 303 370
#     4  12  22  38  63  92 120 162 207 253 302 364
#     4  11  19  36  64  90 118 154 212 256 282 364
#     4  11  23  37  58  90 128 156 194 256 317 359
#     4  10  19  38  61  88 115 158 206 251 298 365
#
# _framework density 18.872164999999999
#
# number of rings (size 3 to 8) (size 9 to 14) (size 15 to 20)
#    0.000    1.667    3.333    2.500    0.000    0.000 
#    3.000    0.000    0.000    0.000    0.000    0.000 
#    0.000    0.000    0.000    0.000    0.000    0.000 
#
# Total GULP energy -200742.733202 kJ/mol
# GULP energy per Si atom -5576.187033 kJ/mol
# Density = 1.882921 g / cm^3
# Si number density = 18.872165 Si / 1000 Ang^3
#
#
#
# Elastic Constant Matrix: (Units=GPa)
#
#
# Indices 1 2 3 4 5 6 
#
# 1 73.2104 20.2043 5.4598 0.9768 0.0005 0.0000
# 2 20.2043 73.2104 5.4598 -0.9768 -0.0005 0.0000
# 3 5.4598 5.4598 47.9524 0.0000 0.0000 0.0000
# 4 0.9768 -0.9768 0.0000 10.8753 0.0000 -0.0005
# 5 0.0005 -0.0005 0.0000 0.0000 10.8753 0.9768
# 6 0.0000 0.0000 0.0000 -0.0005 0.9768 26.5030
#
#
#
# Elastic Compliance Matrix: (Units=1/GPa)
#
#
# Indices 1 2 3 4 5 6 
#
# 1 0.014889 -0.004040 -0.001235 -0.001700 -0.000001 0.000000
# 2 -0.004040 0.014889 -0.001235 0.001700 0.000001 0.000000
# 3 -0.001235 -0.001235 0.021135 0.000000 0.000000 0.000000
# 4 -0.001700 0.001700 0.000000 0.092257 0.000000 0.000002
# 5 -0.000001 0.000001 0.000000 0.000000 0.092257 -0.003400
# 6 0.000000 0.000000 0.000000 0.000002 -0.003400 0.037857
#
#
# Mechanical properties :
#
#
# Convention : Reuss Voigt Hill
#
# Bulk Modulus (GPa) = 26.39018 28.51341 27.45180
# Shear Modulus (GPa) = 16.72608 20.53403 18.63005
#
# Velocity S-wave (km/s) = 2.98028 3.30215 3.14534
# Velocity P-wave (km/s) = 5.08496 5.44798 5.26959
#
# Compressibility (1/GPa) = 0.03789288
#
# Stress axis : x y z
#
# Youngs Moduli (GPa) = 67.16418 67.16418 47.31420
#
# Poissons Ratio (x) = 0.27131 0.05845
# Poissons Ratio (y) = 0.27131 0.05845
# Poissons Ratio (z) = 0.08297 0.08297
#
# Static dielectric constant tensor:
#      x y z
#    x 1.650600 0.000000 0.000000 
#    y 0.000000 1.650600 0.000000 
#    z 0.000000 0.000000 1.677560 
# 
# From -- ./inp_files/3493.got.cif
#   From: 2010.05.17/outbox.cif.g08.bks.cpg/sg154_2_cif.got.tgz:3493.got - 2010.05.20 10:41:43.
