data_PCOD9576686
_publ_section_title
;
Structure prediction by ZEFSAII (Michael W. Deem and Ramdas Pophale) SiO2 
 PCOD9576686
Probable space group: P 32 2 1
;
_chemical_formula_sum "Si O2"
_cell_formula_units_Z 36
_cell_length_a 11.526625
_cell_length_b 11.526625
_cell_length_c 13.634109
_cell_angle_alpha 90.000000
_cell_angle_beta 90.000000
_cell_angle_gamma 120.000000
_cell_volume 1568.778837
_symmetry_space_group_name_H-M "P 32 2 1"
_symmetry_group_IT_number 154
_symmetry_cell_setting 'hexagonal'
loop_
_space_group_symop_operation_xyz
x,y,z
-y,x-y,2/3+z
-x+y,-x,1/3+z
x-y,-y,1/3-z
-x,-x+y,2/3-z
y,x,-z
loop_
_atom_site_type_symbol
_atom_site_label
_atom_site_fract_x
_atom_site_fract_y
_atom_site_fract_z
Si Si1 0.852272 0.663645 0.840562
Si Si2 0.068174 0.000000 0.166667
Si Si3 0.789217 0.383566 0.916178
Si Si4 0.468053 0.720705 0.882659
Si Si5 0.355808 0.000000 0.666667
Si Si6 0.305977 0.055707 0.304168
Si Si7 0.890164 0.707764 0.254573
O O1 0.852813 0.529684 0.869113
O O2 0.793438 0.647959 0.733678
O O3 0.000000 0.787176 0.833334
O O4 0.762649 0.680461 0.922877
O O5 0.183274 0.056451 0.250012
O O6 0.085632 0.139703 0.121863
O O7 0.646552 0.291114 0.864263
O O8 0.769017 0.408864 0.029903
O O9 0.884149 0.320854 0.905126
O O10 0.598227 0.844696 0.831127
O O11 0.520460 0.629879 0.936221
O O12 0.242841 0.907063 0.347659
O O13 0.000000 0.721103 0.333334
#
# Coordination Sequence:
#
# PCOD9576686 Si02
#       7
#     6   3   6   6   3   6   6
#     4  11  25  45  73 104 142 196 245 304 369 446
#     4  10  26  46  74 110 148 194 246 316 378 454
#     4  11  26  48  71 109 151 196 254 313 377 463
#     4  11  24  49  74 108 153 200 257 315 383 462
#     4  10  24  48  76 106 140 200 248 314 368 454
#     4  11  24  46  71 108 146 193 239 310 374 441
#     4  10  24  49  75 110 151 195 253 312 385 461
#
# _framework density 22.947783999999999
#
# number of rings (size 3 to 8) (size 9 to 14) (size 15 to 20)
#    0.000    1.333    3.333    0.000    7.000    4.000 
#   18.000    0.000    0.000    0.000    0.000    0.000 
#    0.000    0.000    0.000    0.000    0.000    0.000 
#
# Total GULP energy -201231.230182 kJ/mol
# GULP energy per Si atom -5589.756394 kJ/mol
# Density = 2.289555 g / cm^3
# Si number density = 22.947784 Si / 1000 Ang^3
#
#
#
# Elastic Constant Matrix: (Units=GPa)
#
#
# Indices 1 2 3 4 5 6 
#
# 1 95.9681 63.2281 48.8108 9.9780 0.0001 0.0000
# 2 63.2281 95.9681 48.8108 -9.9780 -0.0001 0.0000
# 3 48.8108 48.8108 127.1342 0.0000 0.0000 0.0000
# 4 9.9780 -9.9780 0.0000 28.2834 0.0000 -0.0001
# 5 0.0001 -0.0001 0.0000 0.0000 28.2834 9.9780
# 6 0.0000 0.0000 0.0000 -0.0001 9.9780 16.3700
#
#
#
# Elastic Compliance Matrix: (Units=1/GPa)
#
#
# Indices 1 2 3 4 5 6 
#
# 1 0.023563 -0.015347 -0.003154 -0.013727 0.000000 0.000000
# 2 -0.015347 0.023563 -0.003154 0.013727 0.000000 0.000000
# 3 -0.003154 -0.003154 0.010288 0.000000 0.000000 0.000000
# 4 -0.013727 0.013727 0.000000 0.045042 0.000000 0.000000
# 5 0.000000 0.000000 0.000000 0.000000 0.045042 -0.027454
# 6 0.000000 0.000000 0.000000 0.000000 -0.027454 0.077822
#
#
# Mechanical properties :
#
#
# Convention : Reuss Voigt Hill
#
# Bulk Modulus (GPa) = 70.91095 71.19662 71.05378
# Shear Modulus (GPa) = 18.29271 25.13541 21.71406
#
# Velocity S-wave (km/s) = 2.82644 3.31317 3.07944
# Velocity P-wave (km/s) = 6.45134 6.76232 6.60866
#
# Compressibility (1/GPa) = 0.01410219
#
# Stress axis : x y z
#
# Youngs Moduli (GPa) = 42.43882 42.43882 97.20267
#
# Poissons Ratio (x) = 0.65133 0.30661
# Poissons Ratio (y) = 0.65133 0.30661
# Poissons Ratio (z) = 0.13387 0.13387
#
# Static dielectric constant tensor:
#      x y z
#    x 1.868240 0.000000 0.000000 
#    y 0.000000 1.868240 0.000000 
#    z 0.000000 0.000000 1.875290 
# 
# From -- ./inp_files/2037.got.cif
#   From: 2010.05.17/outbox.cif.g08.bks.cpg/sg154_2_cif.got.tgz:2037.got - 2010.05.20 10:41:43.
