data_PCOD9576862
_publ_section_title
;
Structure prediction by ZEFSAII (Michael W. Deem and Ramdas Pophale) SiO2 
 PCOD9576862
Probable space group: R 3 2
;
_chemical_formula_sum "Si O2"
_cell_formula_units_Z 81
_cell_length_a 14.497649
_cell_length_b 14.497649
_cell_length_c 21.220444
_cell_angle_alpha 90.000000
_cell_angle_beta 90.000000
_cell_angle_gamma 120.000000
_cell_volume 3862.604659
_symmetry_space_group_name_H-M "R 3 2"
_symmetry_group_IT_number 155
_symmetry_cell_setting 'hexagonal'
loop_
_space_group_symop_operation_xyz
x,y,z
-y,x-y,z
-x+y,-x,z
x-y,-y,-z
-x,-x+y,-z
y,x,-z
2/3+x,1/3+y,1/3+z
2/3-y,1/3+x-y,1/3+z
2/3-x+y,1/3-x,1/3+z
2/3+x-y,1/3-y,1/3-z
2/3-x,1/3-x+y,1/3-z
2/3+y,1/3+x,1/3-z
1/3+x,2/3+y,2/3+z
1/3-y,2/3+x-y,2/3+z
1/3-x+y,2/3-x,2/3+z
1/3+x-y,2/3-y,2/3-z
1/3-x,2/3-x+y,2/3-z
1/3+y,2/3+x,2/3-z
loop_
_atom_site_type_symbol
_atom_site_label
_atom_site_fract_x
_atom_site_fract_y
_atom_site_fract_z
Si Si1 0.254888 0.324678 0.259358
Si Si2 0.000000 0.279298 0.000000
Si Si3 0.176678 0.241749 0.065029
Si Si4 0.283473 0.042109 0.782803
Si Si5 0.076765 0.869703 0.820101
O O1 0.243983 0.333334 0.333334
O O2 0.381023 0.394574 0.244709
O O3 0.168575 0.345116 0.225548
O O4 0.213342 0.202697 0.238706
O O5 0.942452 0.316139 0.050448
O O6 0.079702 0.257836 0.043118
O O7 0.158301 0.155218 0.118439
O O8 0.209479 0.209479 0.000000
O O9 0.345851 0.012518 0.833334
O O10 0.160735 0.991363 0.805230
O O11 0.153312 0.819979 0.833334
#
# Coordination Sequence:
#
# PCOD9576862 Si02
#       5
#    18   9  18  18  18
#     4  10  19  37  58  86 123 171 213 258 341 395
#     4  12  22  38  66  98 126 172 230 278 326 404
#     4  10  21  39  65  88 130 170 215 272 346 398
#     4  11  21  36  60  93 128 166 223 275 331 402
#     4   9  19  36  59  86 120 170 212 268 329 398
#
# _framework density 20.970306000000001
#
# number of rings (size 3 to 8) (size 9 to 14) (size 15 to 20)
#    0.000    1.778    1.111    6.667    0.000    0.000 
#    2.000    0.000   14.667    0.889    0.000    4.667 
#    0.000    0.000    0.000    0.000    0.000    0.000 
#
# Total GULP energy -150605.273554 kJ/mol
# GULP energy per Si atom -5577.973095 kJ/mol
# Density = 2.092258 g / cm^3
# Si number density = 20.970306 Si / 1000 Ang^3
#
#
#
# Elastic Constant Matrix: (Units=GPa)
#
#
# Indices 1 2 3 4 5 6 
#
# 1 92.7571 52.5497 47.6373 7.1590 -0.0002 0.0000
# 2 52.5497 92.7571 47.6373 -7.1590 0.0002 0.0000
# 3 47.6373 47.6373 134.2690 0.0000 0.0000 0.0000
# 4 7.1590 -7.1590 0.0000 37.4543 0.0000 0.0002
# 5 -0.0002 0.0002 0.0000 0.0000 37.4543 7.1590
# 6 0.0000 0.0000 0.0000 0.0002 7.1590 20.1037
#
#
#
# Elastic Compliance Matrix: (Units=1/GPa)
#
#
# Indices 1 2 3 4 5 6 
#
# 1 0.017828 -0.008860 -0.003182 -0.005101 0.000000 0.000000
# 2 -0.008860 0.017828 -0.003182 0.005101 0.000000 0.000000
# 3 -0.003182 -0.003182 0.009706 0.000000 0.000000 0.000000
# 4 -0.005101 0.005101 0.000000 0.028649 0.000000 0.000000
# 5 0.000000 0.000000 0.000000 0.000000 0.028649 -0.010202
# 6 0.000000 0.000000 0.000000 0.000000 -0.010202 0.053375
#
#
# Mechanical properties :
#
#
# Convention : Reuss Voigt Hill
#
# Bulk Modulus (GPa) = 67.04821 68.38130 67.71476
# Shear Modulus (GPa) = 26.11606 30.46640 28.29123
#
# Velocity S-wave (km/s) = 3.53283 3.81574 3.67701
# Velocity P-wave (km/s) = 6.97736 7.21752 7.09845
#
# Compressibility (1/GPa) = 0.01491464
#
# Stress axis : x y z
#
# Youngs Moduli (GPa) = 56.09184 56.09184 103.03429
#
# Poissons Ratio (x) = 0.49695 0.32784
# Poissons Ratio (y) = 0.49695 0.32784
# Poissons Ratio (z) = 0.17848 0.17848
#
# Static dielectric constant tensor:
#      x y z
#    x 1.810760 0.000000 0.000000 
#    y 0.000000 1.810760 0.000000 
#    z 0.000000 0.000000 1.774990 
# 
# From -- ./inp_files/7373.got.cif
#   From: 2010.05.17/outbox.cif.g08.bks.cpg/sg155_4_cif.got.tgz:7373.got - 2010.05.20 10:44:35.
