data_PCOD9576991
_publ_section_title
;
Structure prediction by ZEFSAII (Michael W. Deem and Ramdas Pophale) SiO2 
 PCOD9576991
Probable space group: R 3 2
;
_chemical_formula_sum "Si O2"
_cell_formula_units_Z 54
_cell_length_a 17.603970
_cell_length_b 17.603970
_cell_length_c 8.474666
_cell_angle_alpha 90.000000
_cell_angle_beta 90.000000
_cell_angle_gamma 120.000000
_cell_volume 2274.439883
_symmetry_space_group_name_H-M "R 3 2"
_symmetry_group_IT_number 155
_symmetry_cell_setting 'hexagonal'
loop_
_space_group_symop_operation_xyz
x,y,z
-y,x-y,z
-x+y,-x,z
x-y,-y,-z
-x,-x+y,-z
y,x,-z
2/3+x,1/3+y,1/3+z
2/3-y,1/3+x-y,1/3+z
2/3-x+y,1/3-x,1/3+z
2/3+x-y,1/3-y,1/3-z
2/3-x,1/3-x+y,1/3-z
2/3+y,1/3+x,1/3-z
1/3+x,2/3+y,2/3+z
1/3-y,2/3+x-y,2/3+z
1/3-x+y,2/3-x,2/3+z
1/3+x-y,2/3-y,2/3-z
1/3-x,2/3-x+y,2/3-z
1/3+y,2/3+x,2/3-z
loop_
_atom_site_type_symbol
_atom_site_label
_atom_site_fract_x
_atom_site_fract_y
_atom_site_fract_z
Si Si1 0.756712 0.571471 0.251264
Si Si2 0.657233 0.904530 0.512357
Si Si3 0.168364 0.581129 0.264123
O O1 0.797984 0.666667 0.166667
O O2 0.666667 0.549072 0.333334
O O3 0.826333 0.582508 0.387235
O O4 0.732257 0.496063 0.118462
O O5 0.666667 0.881484 0.333334
O O6 0.747018 0.920091 0.587611
O O7 0.663510 0.000000 0.500000
O O8 0.237223 0.666667 0.166667
O O9 0.169422 0.502755 0.166667
#
# Coordination Sequence:
#
# PCOD9576991 Si02
#       3
#    18  18  18
#     4  10  22  40  64  97 129 167 221 275 337 413
#     4  10  22  39  62  91 127 171 216 274 338 407
#     4  10  21  39  61  88 125 168 214 269 333 400
#
# _framework density 23.74211
#
# number of rings (size 3 to 8) (size 9 to 14) (size 15 to 20)
#    0.000    2.000    0.000    2.333    0.000   13.333 
#    0.000   11.667    0.000    0.000    0.000    0.000 
#    0.000    0.000    0.000    0.000    0.000    0.000 
#
# Total GULP energy -100342.786418 kJ/mol
# GULP energy per Si atom -5574.599245 kJ/mol
# Density = 2.368807 g / cm^3
# Si number density = 23.742110 Si / 1000 Ang^3
#
#
#
# Elastic Constant Matrix: (Units=GPa)
#
#
# Indices 1 2 3 4 5 6 
#
# 1 86.4903 44.8551 49.7315 4.0665 -0.0006 0.0000
# 2 44.8551 86.4902 49.7313 -4.0665 0.0008 0.0000
# 3 49.7315 49.7313 195.1992 0.0001 0.0006 0.0001
# 4 4.0665 -4.0665 0.0001 21.7830 0.0001 0.0007
# 5 -0.0006 0.0008 0.0006 0.0001 21.7834 4.0665
# 6 0.0000 0.0000 0.0001 0.0007 4.0665 20.8176
#
#
#
# Elastic Compliance Matrix: (Units=1/GPa)
#
#
# Indices 1 2 3 4 5 6 
#
# 1 0.017180 -0.007747 -0.002403 -0.004653 0.000001 0.000000
# 2 -0.007747 0.017180 -0.002403 0.004653 -0.000001 0.000000
# 3 -0.002403 -0.002403 0.006348 0.000000 0.000000 0.000000
# 4 -0.004653 0.004653 0.000000 0.047645 0.000000 -0.000002
# 5 0.000001 -0.000001 0.000000 0.000000 0.047644 -0.009307
# 6 0.000000 0.000000 0.000000 -0.000002 -0.009307 0.049854
#
#
# Mechanical properties :
#
#
# Convention : Reuss Voigt Hill
#
# Bulk Modulus (GPa) = 64.09826 72.97949 68.53888
# Shear Modulus (GPa) = 23.13113 27.80092 25.46603
#
# Velocity S-wave (km/s) = 3.12471 3.42563 3.27863
# Velocity P-wave (km/s) = 6.33046 6.81555 6.57748
#
# Compressibility (1/GPa) = 0.01560105
#
# Stress axis : x y z
#
# Youngs Moduli (GPa) = 58.20608 58.20609 157.53954
#
# Poissons Ratio (x) = 0.45091 0.37863
# Poissons Ratio (y) = 0.45091 0.37863
# Poissons Ratio (z) = 0.13989 0.13989
#
# Static dielectric constant tensor:
#      x y z
#    x 1.948780 0.000000 0.000000 
#    y 0.000000 1.948780 0.000000 
#    z 0.000000 0.000000 2.043380 
# 
# From -- ./inp_files/1638.got.cif
#   From: 2010.05.17/outbox.cif.g08.bks.cpg/sg155_1_cif.got.tgz:1638.got - 2010.05.20 10:44:35.
