data_PCOD9576163
_publ_section_title
;
Structure prediction by ZEFSAII (Michael W. Deem and Ramdas Pophale) SiO2 
 PCOD9576163
Probable space group: P 31 2 1
;
_chemical_formula_sum "Si O2"
_cell_formula_units_Z 42
_cell_length_a 8.675792
_cell_length_b 8.675792
_cell_length_c 29.437911
_cell_angle_alpha 90.000000
_cell_angle_beta 90.000000
_cell_angle_gamma 120.000000
_cell_volume 1918.915639
_symmetry_space_group_name_H-M "P 31 2 1"
_symmetry_group_IT_number 152
_symmetry_cell_setting 'hexagonal'
loop_
_space_group_symop_operation_xyz
x,y,z
-y,x-y,1/3+z
-x+y,-x,2/3+z
x-y,-y,2/3-z
-x,-x+y,1/3-z
y,x,-z
loop_
_atom_site_type_symbol
_atom_site_label
_atom_site_fract_x
_atom_site_fract_y
_atom_site_fract_z
Si Si1 0.728380 0.760940 0.447709
Si Si2 0.208944 0.186392 0.355422
Si Si3 0.590995 0.139104 0.215217
Si Si4 0.527892 0.825109 0.615989
Si Si5 0.099519 0.936309 0.120701
Si Si6 0.873786 0.404694 0.704730
Si Si7 0.529339 0.065725 0.541500
O O1 0.697384 0.697384 0.500000
O O2 0.568864 0.785225 0.429748
O O3 0.745419 0.619206 0.416916
O O4 0.898267 0.961856 0.448348
O O5 0.236520 0.358698 0.328614
O O6 0.172827 0.197415 0.408008
O O7 0.388252 0.176743 0.352436
O O8 0.056464 0.000000 0.333334
O O9 0.573629 0.309181 0.203718
O O10 0.448592 0.992118 0.249524
O O11 0.583812 0.042426 0.167995
O O12 0.316063 0.704335 0.620486
O O13 0.561875 0.000080 0.589311
O O14 0.299085 0.971294 0.125874
O O15 0.000000 0.838540 0.166667
O O16 0.000000 0.544528 0.666667
#
# Coordination Sequence:
#
# PCOD9576163 Si02
#       7
#     6   6   6   6   6   6   6
#     4  11  24  45  73 109 148 184 242 304 367 447
#     4  11  24  46  71 105 145 190 242 302 371 445
#     4  12  26  47  73 105 147 194 246 307 369 448
#     4  12  26  46  75 105 149 194 243 308 376 448
#     4  11  25  44  73 109 144 195 248 307 373 446
#     4  11  27  47  71 103 144 190 245 307 369 446
#     4  12  26  45  75 105 148 195 246 304 377 440
#
# _framework density 21.887362
#
# number of rings (size 3 to 8) (size 9 to 14) (size 15 to 20)
#    0.000    0.571    2.857    5.143    8.000    0.571 
#    2.571    0.000    0.000    0.000    0.000    0.000 
#    0.000    0.000    0.000    0.000    0.000    0.000 
#
# Total GULP energy -234867.727144 kJ/mol
# GULP energy per Si atom -5592.088742 kJ/mol
# Density = 2.183755 g / cm^3
# Si number density = 21.887362 Si / 1000 Ang^3
#
#
#
# Elastic Constant Matrix: (Units=GPa)
#
#
# Indices 1 2 3 4 5 6 
#
# 1 69.1949 23.5847 26.9715 0.2292 0.0004 0.0000
# 2 23.5847 69.1949 26.9715 -0.2292 -0.0004 0.0000
# 3 26.9715 26.9715 119.0215 0.0000 0.0000 0.0000
# 4 0.2292 -0.2292 0.0000 27.8685 0.0000 -0.0004
# 5 0.0004 -0.0004 0.0000 0.0000 27.8685 0.2292
# 6 0.0000 0.0000 0.0000 -0.0004 0.2292 22.8051
#
#
#
# Elastic Compliance Matrix: (Units=1/GPa)
#
#
# Indices 1 2 3 4 5 6 
#
# 1 0.017170 -0.004756 -0.002813 -0.000180 0.000000 0.000000
# 2 -0.004756 0.017170 -0.002813 0.000180 0.000000 0.000000
# 3 -0.002813 -0.002813 0.009677 0.000000 0.000000 0.000000
# 4 -0.000180 0.000180 0.000000 0.035886 0.000000 0.000001
# 5 0.000000 0.000000 0.000000 0.000000 0.035886 -0.000361
# 6 0.000000 0.000000 0.000000 0.000001 -0.000361 0.043853
#
#
# Mechanical properties :
#
#
# Convention : Reuss Voigt Hill
#
# Bulk Modulus (GPa) = 43.00703 45.82962 44.41832
# Shear Modulus (GPa) = 26.57340 27.70069 27.13705
#
# Velocity S-wave (km/s) = 3.48817 3.56139 3.52497
# Velocity P-wave (km/s) = 5.99291 6.15594 6.07498
#
# Compressibility (1/GPa) = 0.02325201
#
# Stress axis : x y z
#
# Youngs Moduli (GPa) = 58.24029 58.24029 103.33999
#
# Poissons Ratio (x) = 0.27702 0.29070
# Poissons Ratio (y) = 0.27702 0.29070
# Poissons Ratio (z) = 0.16384 0.16384
#
# Static dielectric constant tensor:
#      x y z
#    x 1.813660 0.000000 0.000000 
#    y 0.000000 1.813660 0.000000 
#    z 0.000000 0.000000 1.794400 
# 
# From -- ./inp_files/3708.got.cif
#   From: 2010.05.17/outbox.cif.g08.bks.cpg/sg152_2_cif.got.tgz:3708.got - 2010.05.20 10:36:06.
