data_PCOD9576067
_publ_section_title
;
Structure prediction by ZEFSAII (Michael W. Deem and Ramdas Pophale) SiO2 
 PCOD9576067
Probable space group: P 31 2 1
;
_chemical_formula_sum "Si O2"
_cell_formula_units_Z 24
_cell_length_a 13.436106
_cell_length_b 13.436106
_cell_length_c 7.464431
_cell_angle_alpha 90.000000
_cell_angle_beta 90.000000
_cell_angle_gamma 120.000000
_cell_volume 1167.008938
_symmetry_space_group_name_H-M "P 31 2 1"
_symmetry_group_IT_number 152
_symmetry_cell_setting 'hexagonal'
loop_
_space_group_symop_operation_xyz
x,y,z
-y,x-y,1/3+z
-x+y,-x,2/3+z
x-y,-y,2/3-z
-x,-x+y,1/3-z
y,x,-z
loop_
_atom_site_type_symbol
_atom_site_label
_atom_site_fract_x
_atom_site_fract_y
_atom_site_fract_z
Si Si1 0.337918 0.011702 0.043491
Si Si2 0.534728 0.418389 0.274045
Si Si3 0.374796 0.250290 0.985863
Si Si4 0.794974 0.559122 0.248056
O O1 0.240342 0.896069 0.139021
O O2 0.306501 0.000000 0.833334
O O3 0.449348 0.995406 0.052847
O O4 0.360952 0.137022 0.083259
O O5 0.474083 0.356115 0.093071
O O6 0.667496 0.448890 0.274986
O O7 0.333021 0.467458 0.563017
O O8 0.262187 0.262187 0.000000
O O9 0.406543 0.256849 0.777271
#
# Coordination Sequence:
#
# PCOD9576067 Si02
#       4
#     6   6   6   6
#     4   8  20  41  56  88 136 159 203 270 301 362
#     4  10  23  37  65  91 134 164 205 258 318 375
#     4  11  24  37  62  90 122 180 210 243 320 382
#     4   9  23  38  62  93 131 167 207 262 314 367
#
# _framework density 20.565394000000001
#
# number of rings (size 3 to 8) (size 9 to 14) (size 15 to 20)
#    1.500    1.000    0.000    0.000    7.000    3.000 
#    0.000    0.000    0.000    0.000   58.500    0.000 
#    0.000    0.000    0.000    0.000    0.000    0.000 
#
# Total GULP energy -133673.557582 kJ/mol
# GULP energy per Si atom -5569.731566 kJ/mol
# Density = 2.051859 g / cm^3
# Si number density = 20.565394 Si / 1000 Ang^3
#
#
#
# Elastic Constant Matrix: (Units=GPa)
#
#
# Indices 1 2 3 4 5 6 
#
# 1 116.6084 54.3541 34.7446 7.3708 0.0000 0.0000
# 2 54.3541 116.6084 34.7446 -7.3708 0.0000 0.0000
# 3 34.7446 34.7446 84.5369 0.0000 0.0000 0.0000
# 4 7.3708 -7.3708 0.0000 18.5771 0.0000 0.0000
# 5 0.0000 0.0000 0.0000 0.0000 18.5771 7.3708
# 6 0.0000 0.0000 0.0000 0.0000 7.3708 31.1271
#
#
#
# Elastic Compliance Matrix: (Units=1/GPa)
#
#
# Indices 1 2 3 4 5 6 
#
# 1 0.012376 -0.005353 -0.002886 -0.007034 0.000000 0.000000
# 2 -0.005353 0.012376 -0.002886 0.007034 0.000000 0.000000
# 3 -0.002886 -0.002886 0.014202 0.000000 0.000000 0.000000
# 4 -0.007034 0.007034 0.000000 0.059411 0.000000 0.000000
# 5 0.000000 0.000000 0.000000 0.000000 0.059411 -0.014068
# 6 0.000000 0.000000 0.000000 0.000000 -0.014068 0.035458
#
#
# Mechanical properties :
#
#
# Convention : Reuss Voigt Hill
#
# Bulk Modulus (GPa) = 59.87463 62.82672 61.35067
# Shear Modulus (GPa) = 22.61915 26.58364 24.60139
#
# Velocity S-wave (km/s) = 3.32002 3.59923 3.46244
# Velocity P-wave (km/s) = 6.62376 6.92016 6.77358
#
# Compressibility (1/GPa) = 0.01670156
#
# Stress axis : x y z
#
# Youngs Moduli (GPa) = 80.80429 80.80429 70.41467
#
# Poissons Ratio (x) = 0.43256 0.20323
# Poissons Ratio (y) = 0.43256 0.20323
# Poissons Ratio (z) = 0.23322 0.23322
#
# Static dielectric constant tensor:
#      x y z
#    x 1.791330 0.000000 0.000000 
#    y 0.000000 1.791330 0.000000 
#    z 0.000000 0.000000 1.736850 
# 
# From -- ./inp_files/1610.got.cif
#   From: 2010.05.17/outbox.cif.g08.bks.cpg/sg152_1_cif.got.tgz:1610.got - 2010.05.20 10:36:06.
