data_PCOD9576758
_publ_section_title
;
Structure prediction by ZEFSAII (Michael W. Deem and Ramdas Pophale) SiO2 
 PCOD9576758
Probable space group: R 3 2
;
_chemical_formula_sum "Si O2"
_cell_formula_units_Z 114
_cell_length_a 21.522450
_cell_length_b 21.522450
_cell_length_c 14.675649
_cell_angle_alpha 90.000000
_cell_angle_beta 90.000000
_cell_angle_gamma 120.000000
_cell_volume 5887.234879
_symmetry_space_group_name_H-M "R 3 2"
_symmetry_group_IT_number 155
_symmetry_cell_setting 'hexagonal'
loop_
_space_group_symop_operation_xyz
x,y,z
-y,x-y,z
-x+y,-x,z
x-y,-y,-z
-x,-x+y,-z
y,x,-z
2/3+x,1/3+y,1/3+z
2/3-y,1/3+x-y,1/3+z
2/3-x+y,1/3-x,1/3+z
2/3+x-y,1/3-y,1/3-z
2/3-x,1/3-x+y,1/3-z
2/3+y,1/3+x,1/3-z
1/3+x,2/3+y,2/3+z
1/3-y,2/3+x-y,2/3+z
1/3-x+y,2/3-x,2/3+z
1/3+x-y,2/3-y,2/3-z
1/3-x,2/3-x+y,2/3-z
1/3+y,2/3+x,2/3-z
loop_
_atom_site_type_symbol
_atom_site_label
_atom_site_fract_x
_atom_site_fract_y
_atom_site_fract_z
Si Si1 0.051592 0.404269 0.774290
Si Si2 0.492080 0.969039 0.238266
Si Si3 0.432002 0.333334 0.833334
Si Si4 0.806773 0.345127 0.224796
Si Si5 0.666668 0.333334 0.221409
Si Si6 0.523930 0.948818 0.430858
Si Si7 0.487116 0.364836 0.230549
Si Si8 0.342953 0.342953 0.000000
O O1 0.056253 0.389586 0.666667
O O2 0.132942 0.460436 0.807719
O O3 0.017585 0.333334 0.833334
O O4 0.002142 0.441770 0.784246
O O5 0.496549 0.905938 0.184826
O O6 0.479062 0.940283 0.341634
O O7 0.574004 0.037790 0.228360
O O8 0.401623 0.351998 0.924995
O O9 0.803394 0.333334 0.333334
O O10 0.725156 0.311261 0.192039
O O11 0.839129 0.429161 0.210997
O O12 0.666668 0.333334 0.333334
O O13 0.520650 0.883815 0.487532
O O14 0.607225 0.994296 0.395822
O O15 0.514062 0.000000 0.500000
O O16 0.476471 0.333334 0.333334
#
# Coordination Sequence:
#
# PCOD9576758 Si02
#       8
#    18  18   9  18   6  18  18   9
#     4  10  23  46  63  85 117 169 226 263 300 368
#     4  10  21  33  52  84 120 161 208 248 306 373
#     4  10  18  30  50  82 122 154 194 238 312 376
#     4   9  19  35  57  83 115 152 195 244 301 378
#     4   9  15  33  57  84 117 150 175 239 322 384
#     4  11  17  27  44  78 119 157 187 244 303 355
#     4  11  18  27  48  82 119 157 188 228 302 370
#     4  10  16  26  44  72 120 162 182 228 302 372
#
# _framework density 19.363928999999999
#
# number of rings (size 3 to 8) (size 9 to 14) (size 15 to 20)
#    0.000    1.895    3.947    2.368    1.105    0.632 
#    7.105    0.000    0.000    0.000    0.000    0.000 
#    0.789    0.000    0.000    0.000    0.000    0.000 
#
# Total GULP energy -211553.132923 kJ/mol
# GULP energy per Si atom -5567.187709 kJ/mol
# Density = 1.931986 g / cm^3
# Si number density = 19.363929 Si / 1000 Ang^3
#
#
#
# Elastic Constant Matrix: (Units=GPa)
#
#
# Indices 1 2 3 4 5 6 
#
# 1 100.8618 49.7667 27.7192 4.6296 0.0005 0.0004
# 2 49.7667 100.8636 27.7193 -4.6300 -0.0004 -0.0003
# 3 27.7192 27.7193 66.9874 -0.0001 0.0000 0.0000
# 4 4.6296 -4.6300 -0.0001 17.6908 0.0001 -0.0001
# 5 0.0005 -0.0004 0.0000 0.0001 17.6909 4.6300
# 6 0.0004 -0.0003 0.0000 -0.0001 4.6300 25.5484
#
#
#
# Elastic Compliance Matrix: (Units=1/GPa)
#
#
# Indices 1 2 3 4 5 6 
#
# 1 0.014189 -0.006357 -0.003241 -0.005377 0.000000 0.000000
# 2 -0.006357 0.014188 -0.003241 0.005377 0.000000 0.000000
# 3 -0.003241 -0.003241 0.017610 0.000000 0.000000 0.000000
# 4 -0.005377 0.005377 0.000000 0.059341 0.000000 0.000000
# 5 0.000000 0.000000 0.000000 0.000000 0.059341 -0.010754
# 6 0.000000 0.000000 0.000000 0.000000 -0.010754 0.041090
#
#
# Mechanical properties :
#
#
# Convention : Reuss Voigt Hill
#
# Bulk Modulus (GPa) = 49.23557 53.23592 51.23574
# Shear Modulus (GPa) = 20.99025 23.08651 22.03838
#
# Velocity S-wave (km/s) = 3.29597 3.45663 3.37726
# Velocity P-wave (km/s) = 6.32188 6.59417 6.45946
#
# Compressibility (1/GPa) = 0.02031052
#
# Stress axis : x y z
#
# Youngs Moduli (GPa) = 70.47924 70.48042 56.78545
#
# Poissons Ratio (x) = 0.44804 0.18402
# Poissons Ratio (y) = 0.44803 0.18402
# Poissons Ratio (z) = 0.22840 0.22840
#
# Static dielectric constant tensor:
#      x y z
#    x 1.770140 0.000000 0.000000 
#    y 0.000000 1.770140 0.000000 
#    z 0.000000 0.000000 1.684520 
# 
# From -- ./inp_files/5249.got.cif
#   From: 2010.05.17/outbox.cif.g08.bks.cpg/sg155_3_cif.got.tgz:5249.got - 2010.05.20 10:44:35.
