data_PCOD9576564
_publ_section_title
;
Structure prediction by ZEFSAII (Michael W. Deem and Ramdas Pophale) SiO2 
 PCOD9576564
Probable space group: P 32 2 1
;
_chemical_formula_sum "Si O2"
_cell_formula_units_Z 36
_cell_length_a 8.068912
_cell_length_b 8.068912
_cell_length_c 27.397898
_cell_angle_alpha 90.000000
_cell_angle_beta 90.000000
_cell_angle_gamma 120.000000
_cell_volume 1544.819825
_symmetry_space_group_name_H-M "P 32 2 1"
_symmetry_group_IT_number 154
_symmetry_cell_setting 'hexagonal'
loop_
_space_group_symop_operation_xyz
x,y,z
-y,x-y,2/3+z
-x+y,-x,1/3+z
x-y,-y,1/3-z
-x,-x+y,2/3-z
y,x,-z
loop_
_atom_site_type_symbol
_atom_site_label
_atom_site_fract_x
_atom_site_fract_y
_atom_site_fract_z
Si Si1 0.942246 0.458723 0.549534
Si Si2 0.870802 0.312983 0.722348
Si Si3 0.871397 0.419031 0.019994
Si Si4 0.970040 0.558545 0.224039
Si Si5 0.288344 0.381173 0.550784
Si Si6 0.690765 0.805357 0.047748
O O1 0.755499 0.250254 0.554603
O O2 0.996304 0.559529 0.603310
O O3 0.939451 0.549560 0.497304
O O4 0.134369 0.446447 0.543626
O O5 0.739343 0.405568 0.706319
O O6 0.963058 0.456861 0.768128
O O7 0.006290 0.350032 0.676297
O O8 0.737354 0.099952 0.740805
O O9 0.813388 0.516528 0.977985
O O10 0.978573 0.379322 0.249589
O O11 0.300130 0.300130 0.500000
O O12 0.207045 0.203723 0.587941
O O13 0.799225 0.799225 0.000000
#
# Coordination Sequence:
#
# PCOD9576564 Si02
#       6
#     6   6   6   6   6   6
#     4  11  24  40  66  96 132 170 219 276 330 395
#     4  10  22  41  62  94 125 169 217 268 328 385
#     4  10  21  40  63  96 126 166 216 267 323 396
#     4  12  24  42  68  97 131 172 224 276 332 401
#     4  10  21  42  63  88 130 170 210 263 329 391
#     4  11  22  39  70  91 127 173 213 266 330 401
#
# _framework density 23.303688000000001
#
# number of rings (size 3 to 8) (size 9 to 14) (size 15 to 20)
#    0.000    1.333    3.333    3.000    0.000    0.000 
#    9.000    0.833    0.000    0.000    0.000    0.000 
#    0.000    0.000    0.000    0.000    0.000    0.000 
#
# Total GULP energy -200642.751313 kJ/mol
# GULP energy per Si atom -5573.409759 kJ/mol
# Density = 2.325065 g / cm^3
# Si number density = 23.303688 Si / 1000 Ang^3
#
#
#
# Elastic Constant Matrix: (Units=GPa)
#
#
# Indices 1 2 3 4 5 6 
#
# 1 29.2545 -6.4204 10.2633 4.2065 0.0000 0.0000
# 2 -6.4204 29.2545 10.2633 -4.2065 0.0000 0.0000
# 3 10.2633 10.2633 110.4250 0.0000 0.0000 0.0000
# 4 4.2065 -4.2065 0.0000 32.2008 0.0000 0.0000
# 5 0.0000 0.0000 0.0000 0.0000 32.2008 4.2065
# 6 0.0000 0.0000 0.0000 0.0000 4.2065 17.8374
#
#
#
# Elastic Compliance Matrix: (Units=1/GPa)
#
#
# Indices 1 2 3 4 5 6 
#
# 1 0.038354 0.009432 -0.004441 -0.003778 0.000000 0.000000
# 2 0.009432 0.038354 -0.004441 0.003778 0.000000 0.000000
# 3 -0.004441 -0.004441 0.009882 0.000000 0.000000 0.000000
# 4 -0.003778 0.003778 0.000000 0.032042 0.000000 0.000000
# 5 0.000000 0.000000 0.000000 0.000000 0.032042 -0.007556
# 6 0.000000 0.000000 0.000000 0.000000 -0.007556 0.057844
#
#
# Mechanical properties :
#
#
# Convention : Reuss Voigt Hill
#
# Bulk Modulus (GPa) = 11.40392 21.90515 16.65453
# Shear Modulus (GPa) = 21.12831 26.76966 23.94899
#
# Velocity S-wave (km/s) = 3.01433 3.39297 3.20924
# Velocity P-wave (km/s) = 4.12543 4.97694 4.57105
#
# Compressibility (1/GPa) = 0.08768914
#
# Stress axis : x y z
#
# Youngs Moduli (GPa) = 26.07268 26.07268 101.19899
#
# Poissons Ratio (x) = -0.24593 0.44947
# Poissons Ratio (y) = -0.24593 0.44947
# Poissons Ratio (z) = 0.11580 0.11580
#
# Static dielectric constant tensor:
#      x y z
#    x 1.940740 0.000000 0.000000 
#    y 0.000000 1.940740 0.000000 
#    z 0.000000 0.000000 2.206160 
# 
# From -- ./inp_files/3464.got.cif
#   From: 2010.05.17/outbox.cif.g08.bks.cpg/sg154_2_cif.got.tgz:3464.got - 2010.05.20 10:41:43.
