data_PCOD9576675
_publ_section_title
;
Structure prediction by ZEFSAII (Michael W. Deem and Ramdas Pophale) SiO2 
 PCOD9576675
Probable space group: P 32 2 1
;
_chemical_formula_sum "Si O2"
_cell_formula_units_Z 42
_cell_length_a 10.769522
_cell_length_b 10.769522
_cell_length_c 15.986139
_cell_angle_alpha 90.000000
_cell_angle_beta 90.000000
_cell_angle_gamma 120.000000
_cell_volume 1605.709852
_symmetry_space_group_name_H-M "P 32 2 1"
_symmetry_group_IT_number 154
_symmetry_cell_setting 'hexagonal'
loop_
_space_group_symop_operation_xyz
x,y,z
-y,x-y,2/3+z
-x+y,-x,1/3+z
x-y,-y,1/3-z
-x,-x+y,2/3-z
y,x,-z
loop_
_atom_site_type_symbol
_atom_site_label
_atom_site_fract_x
_atom_site_fract_y
_atom_site_fract_z
Si Si1 0.519296 0.750411 0.090836
Si Si2 0.078129 0.614646 0.470285
Si Si3 0.971118 0.817201 0.220963
Si Si4 0.679051 0.782493 0.266033
Si Si5 0.946187 0.777583 0.023821
Si Si6 0.597742 0.349561 0.159486
Si Si7 0.630329 0.707135 0.588749
O O1 0.486174 0.590793 0.076278
O O2 0.591647 0.779008 0.184316
O O3 0.629607 0.845193 0.022325
O O4 0.364972 0.739162 0.100568
O O5 0.078097 0.736998 0.414986
O O6 0.232059 0.699187 0.521505
O O7 0.921379 0.508042 0.510126
O O8 0.846244 0.850324 0.238702
O O9 0.133773 0.910371 0.250970
O O10 0.960813 0.790332 0.122537
O O11 0.639458 0.644906 0.324306
O O12 0.698034 0.901869 0.329978
O O13 0.883509 0.883509 0.000000
O O14 0.511446 0.232340 0.087253
O O15 0.637693 0.637693 0.500000
#
# Coordination Sequence:
#
# PCOD9576675 Si02
#       7
#     6   6   6   6   6   6   6
#     4  10  24  44  69 108 144 191 252 314 389 457
#     4   9  21  48  74 101 150 192 256 315 389 466
#     4  11  23  44  70 104 148 199 259 312 393 465
#     4  12  24  43  71 107 151 204 256 322 383 471
#     4  12  24  40  71 108 154 202 251 329 383 465
#     4   9  22  45  76 103 146 195 248 319 381 473
#     4  11  23  44  70 106 149 198 247 314 393 463
#
# _framework density 26.156656000000002
#
# number of rings (size 3 to 8) (size 9 to 14) (size 15 to 20)
#    0.857    0.571    2.857    2.571    0.000    1.143 
#    7.714    1.429    0.000    0.000    0.000    0.000 
#    0.000    0.000    0.000    0.000    0.000    0.000 
#
# Total GULP energy -234046.989147 kJ/mol
# GULP energy per Si atom -5572.547361 kJ/mol
# Density = 2.609712 g / cm^3
# Si number density = 26.156656 Si / 1000 Ang^3
#
#
#
# Elastic Constant Matrix: (Units=GPa)
#
#
# Indices 1 2 3 4 5 6 
#
# 1 179.6743 -34.0520 14.0449 70.7467 0.0000 0.0000
# 2 -34.0520 179.6743 14.0449 -70.7467 0.0000 0.0000
# 3 14.0449 14.0449 98.7096 0.0000 0.0000 0.0000
# 4 70.7467 -70.7467 0.0000 111.3077 0.0000 0.0000
# 5 0.0000 0.0000 0.0000 0.0000 111.3077 70.7467
# 6 0.0000 0.0000 0.0000 0.0000 70.7467 106.8631
#
#
#
# Elastic Compliance Matrix: (Units=1/GPa)
#
#
# Indices 1 2 3 4 5 6 
#
# 1 0.007569 -0.000509 -0.001005 -0.005134 0.000000 0.000000
# 2 -0.000509 0.007569 -0.001005 0.005134 0.000000 0.000000
# 3 -0.001005 -0.001005 0.010417 0.000000 0.000000 0.000000
# 4 -0.005134 0.005134 0.000000 0.015511 0.000000 0.000000
# 5 0.000000 0.000000 0.000000 0.000000 0.015511 -0.010269
# 6 0.000000 0.000000 0.000000 0.000000 -0.010269 0.016156
#
#
# Mechanical properties :
#
#
# Convention : Reuss Voigt Hill
#
# Bulk Modulus (GPa) = 48.73354 49.57041 49.15198
# Shear Modulus (GPa) = 59.09565 96.83042 77.96304
#
# Velocity S-wave (km/s) = 4.75836 6.09096 5.46543
# Velocity P-wave (km/s) = 6.99008 8.27399 7.65898
#
# Compressibility (1/GPa) = 0.02051975
#
# Stress axis : x y z
#
# Youngs Moduli (GPa) = 132.11057 132.11057 96.00045
#
# Poissons Ratio (x) = 0.06718 0.09645
# Poissons Ratio (y) = 0.06718 0.09645
# Poissons Ratio (z) = 0.13273 0.13273
#
# Static dielectric constant tensor:
#      x y z
#    x 2.214180 0.000000 0.000000 
#    y 0.000000 2.214180 0.000000 
#    z 0.000000 0.000000 2.098090 
# 
# From -- ./inp_files/2420.got.cif
#   From: 2010.05.17/outbox.cif.g08.bks.cpg/sg154_2_cif.got.tgz:2420.got - 2010.05.20 10:41:43.
