data_PCOD9576439
_publ_section_title
;
Structure prediction by ZEFSAII (Michael W. Deem and Ramdas Pophale) SiO2 
 PCOD9576439
Probable space group: P 32 2 1
;
_chemical_formula_sum "Si O2"
_cell_formula_units_Z 42
_cell_length_a 8.020777
_cell_length_b 8.020777
_cell_length_c 34.502794
_cell_angle_alpha 90.000000
_cell_angle_beta 90.000000
_cell_angle_gamma 120.000000
_cell_volume 1922.285016
_symmetry_space_group_name_H-M "P 32 2 1"
_symmetry_group_IT_number 154
_symmetry_cell_setting 'hexagonal'
loop_
_space_group_symop_operation_xyz
x,y,z
-y,x-y,2/3+z
-x+y,-x,1/3+z
x-y,-y,1/3-z
-x,-x+y,2/3-z
y,x,-z
loop_
_atom_site_type_symbol
_atom_site_label
_atom_site_fract_x
_atom_site_fract_y
_atom_site_fract_z
Si Si1 0.366133 0.228702 0.035438
Si Si2 0.116646 0.592918 0.079979
Si Si3 0.327487 0.405367 0.112778
Si Si4 0.486898 0.907668 0.044169
Si Si5 0.222951 0.426847 0.299601
Si Si6 0.179651 0.223954 0.810099
Si Si7 0.197174 0.915106 0.760630
O O1 0.304582 0.256004 0.078726
O O2 0.409252 0.053742 0.036803
O O3 0.574703 0.416973 0.029448
O O4 0.234812 0.234812 0.000000
O O5 0.158568 0.450226 0.103717
O O6 0.128114 0.756275 0.108359
O O7 0.908977 0.498114 0.060693
O O8 0.292985 0.700025 0.049891
O O9 0.305093 0.342039 0.157010
O O10 0.534272 0.597969 0.106623
O O11 0.624785 0.931567 0.080670
O O12 0.602202 0.898696 0.007091
O O13 0.052868 0.247160 0.277245
O O14 0.000000 0.202874 0.833334
O O15 0.135113 0.017525 0.792888
#
# Coordination Sequence:
#
# PCOD9576439 Si02
#       7
#     6   6   6   6   6   6   6
#     4  11  22  37  59  88 119 155 196 241 296 355
#     4  10  22  38  60  87 115 154 197 243 297 349
#     4  10  20  39  60  81 115 156 200 243 294 354
#     4  11  20  37  58  85 118 150 194 247 297 346
#     4  10  19  36  60  83 115 153 192 236 293 359
#     4  11  22  38  57  84 118 151 195 248 296 350
#     4   9  21  37  57  82 111 155 197 236 293 361
#
# _framework density 21.848994999999999
#
# number of rings (size 3 to 8) (size 9 to 14) (size 15 to 20)
#    0.000    1.714    0.000    6.429    0.000    1.143 
#    0.000   15.000    0.000    0.000    0.000    0.000 
#    0.000    0.000    0.000    0.000    0.000    0.000 
#
# Total GULP energy -234405.003108 kJ/mol
# GULP energy per Si atom -5581.071503 kJ/mol
# Density = 2.179927 g / cm^3
# Si number density = 21.848995 Si / 1000 Ang^3
#
#
#
# Elastic Constant Matrix: (Units=GPa)
#
#
# Indices 1 2 3 4 5 6 
#
# 1 51.3203 1.7433 19.8757 -2.5438 0.0002 0.0000
# 2 1.7433 51.3203 19.8757 2.5438 -0.0002 0.0000
# 3 19.8757 19.8757 86.8644 0.0000 0.0000 0.0000
# 4 -2.5438 2.5438 0.0000 27.9900 0.0000 -0.0002
# 5 0.0002 -0.0002 0.0000 0.0000 27.9900 -2.5438
# 6 0.0000 0.0000 0.0000 -0.0002 -2.5438 24.7885
#
#
#
# Elastic Compliance Matrix: (Units=1/GPa)
#
#
# Indices 1 2 3 4 5 6 
#
# 1 0.021552 0.001192 -0.005204 0.001850 0.000000 0.000000
# 2 0.001192 0.021552 -0.005204 -0.001850 0.000000 0.000000
# 3 -0.005204 -0.005204 0.013894 0.000000 0.000000 0.000000
# 4 0.001850 -0.001850 0.000000 0.036063 0.000000 0.000000
# 5 0.000000 0.000000 0.000000 0.000000 0.036063 0.003701
# 6 0.000000 0.000000 0.000000 0.000000 0.003701 0.040721
#
#
# Mechanical properties :
#
#
# Convention : Reuss Voigt Hill
#
# Bulk Modulus (GPa) = 25.93024 30.27717 28.10370
# Shear Modulus (GPa) = 24.85908 26.02108 25.44008
#
# Velocity S-wave (km/s) = 3.37674 3.45476 3.41597
# Velocity P-wave (km/s) = 5.20546 5.45906 5.33377
#
# Compressibility (1/GPa) = 0.03856501
#
# Stress axis : x y z
#
# Youngs Moduli (GPa) = 46.39906 46.39906 71.97503
#
# Poissons Ratio (x) = -0.05529 0.37456
# Poissons Ratio (y) = -0.05529 0.37456
# Poissons Ratio (z) = 0.24146 0.24146
#
# Static dielectric constant tensor:
#      x y z
#    x 1.815710 0.000000 0.000000 
#    y 0.000000 1.815710 0.000000 
#    z 0.000000 0.000000 1.842700 
# 
# From -- ./inp_files/3783.got.cif
#   From: 2010.05.17/outbox.cif.g08.bks.cpg/sg154_2_cif.got.tgz:3783.got - 2010.05.20 10:41:43.
