data_PCOD9576821
_publ_section_title
;
Structure prediction by ZEFSAII (Michael W. Deem and Ramdas Pophale) SiO2 
 PCOD9576821
Probable space group: R 3 2
;
_chemical_formula_sum "Si O2"
_cell_formula_units_Z 144
_cell_length_a 22.143982
_cell_length_b 22.143982
_cell_length_c 21.029681
_cell_angle_alpha 90.000000
_cell_angle_beta 90.000000
_cell_angle_gamma 120.000000
_cell_volume 8930.479052
_symmetry_space_group_name_H-M "R 3 2"
_symmetry_group_IT_number 155
_symmetry_cell_setting 'hexagonal'
loop_
_space_group_symop_operation_xyz
x,y,z
-y,x-y,z
-x+y,-x,z
x-y,-y,-z
-x,-x+y,-z
y,x,-z
2/3+x,1/3+y,1/3+z
2/3-y,1/3+x-y,1/3+z
2/3-x+y,1/3-x,1/3+z
2/3+x-y,1/3-y,1/3-z
2/3-x,1/3-x+y,1/3-z
2/3+y,1/3+x,1/3-z
1/3+x,2/3+y,2/3+z
1/3-y,2/3+x-y,2/3+z
1/3-x+y,2/3-x,2/3+z
1/3+x-y,2/3-y,2/3-z
1/3-x,2/3-x+y,2/3-z
1/3+y,2/3+x,2/3-z
loop_
_atom_site_type_symbol
_atom_site_label
_atom_site_fract_x
_atom_site_fract_y
_atom_site_fract_z
Si Si1 0.471043 0.760347 0.858909
Si Si2 0.153620 0.747069 0.675547
Si Si3 0.307394 0.016022 0.428091
Si Si4 0.484042 0.956713 0.438845
Si Si5 0.763410 0.839397 0.101013
Si Si6 0.918658 0.876614 0.059216
Si Si7 0.436718 0.094694 0.636601
Si Si8 0.166634 0.058542 0.768208
O O1 0.554400 0.812889 0.862950
O O2 0.436999 0.739076 0.787702
O O3 0.456636 0.685998 0.883506
O O4 0.437053 0.795772 0.900228
O O5 0.094642 0.666667 0.666667
O O6 0.129926 0.787518 0.724738
O O7 0.187924 0.787572 0.609099
O O8 0.221419 0.746482 0.703242
O O9 0.378160 0.090443 0.428052
O O10 0.255950 0.019778 0.377208
O O11 0.281833 0.000000 0.500000
O O12 0.319984 0.955663 0.399707
O O13 0.415260 0.927129 0.396341
O O14 0.482859 0.000000 0.500000
O O15 0.839834 0.853935 0.079972
O O16 0.778411 0.865811 0.173416
O O17 0.926117 0.926117 0.000000
O O18 0.460502 0.174777 0.623459
#
# Coordination Sequence:
#
# PCOD9576821 Si02
#       8
#    18  18  18  18  18  18  18  18
#     4  10  20  33  52  71 105 140 182 216 259 307
#     4  11  20  31  48  71 102 139 182 221 255 304
#     4  11  19  31  50  80 107 135 164 220 278 328
#     4  11  20  32  51  75 100 139 186 224 251 316
#     4  10  19  30  49  72 111 135 173 213 260 309
#     4   9  18  30  45  73 102 145 175 206 249 300
#     4  10  21  31  53  77 105 135 179 214 275 325
#     4  10  20  35  51  79 101 143 176 222 258 324
#
# _framework density 16.124555000000001
#
# number of rings (size 3 to 8) (size 9 to 14) (size 15 to 20)
#    0.000    1.750    3.750    2.125    5.250    0.000 
#    0.000    0.000    2.750    6.750    0.000    3.500 
#    0.000    0.000    0.000    0.000    0.000    0.000 
#
# Total GULP energy -267254.984334 kJ/mol
# GULP energy per Si atom -5567.812174 kJ/mol
# Density = 1.608785 g / cm^3
# Si number density = 16.124555 Si / 1000 Ang^3
#
#
#
# Elastic Constant Matrix: (Units=GPa)
#
#
# Indices 1 2 3 4 5 6 
#
# 1 63.2168 30.1475 30.4459 9.1806 0.0002 0.0000
# 2 30.1475 63.2168 30.4459 -9.1806 -0.0002 0.0000
# 3 30.4459 30.4459 97.5076 0.0000 0.0000 0.0000
# 4 9.1806 -9.1806 0.0000 12.6109 0.0000 -0.0002
# 5 0.0002 -0.0002 0.0000 0.0000 12.6109 9.1806
# 6 0.0000 0.0000 0.0000 -0.0002 9.1806 16.5347
#
#
#
# Elastic Compliance Matrix: (Units=1/GPa)
#
#
# Indices 1 2 3 4 5 6 
#
# 1 0.032102 -0.018653 -0.004200 -0.036949 -0.000001 0.000000
# 2 -0.018653 0.032102 -0.004200 0.036949 0.000001 0.000000
# 3 -0.004200 -0.004200 0.012878 0.000000 0.000000 0.000000
# 4 -0.036949 0.036949 0.000000 0.133093 0.000000 0.000002
# 5 -0.000001 0.000001 0.000000 0.000000 0.133093 -0.073898
# 6 0.000000 0.000000 0.000000 0.000002 -0.073898 0.101510
#
#
# Mechanical properties :
#
#
# Convention : Reuss Voigt Hill
#
# Bulk Modulus (GPa) = 43.51741 45.11330 44.31536
# Shear Modulus (GPa) = 9.87086 17.21145 13.54115
#
# Velocity S-wave (km/s) = 2.47688 3.27066 2.90105
# Velocity P-wave (km/s) = 5.93521 6.50398 6.22609
#
# Compressibility (1/GPa) = 0.02297931
#
# Stress axis : x y z
#
# Youngs Moduli (GPa) = 31.15049 31.15049 77.65089
#
# Poissons Ratio (x) = 0.58104 0.32610
# Poissons Ratio (y) = 0.58104 0.32610
# Poissons Ratio (z) = 0.13082 0.13082
#
# Static dielectric constant tensor:
#      x y z
#    x 1.556220 0.000000 0.000000 
#    y 0.000000 1.556220 0.000000 
#    z 0.000000 0.000000 1.590640 
# 
# From -- ./inp_files/7054.got.cif
#   From: 2010.05.17/outbox.cif.g08.bks.cpg/sg155_4_cif.got.tgz:7054.got - 2010.05.20 10:44:35.
