data_PCOD9576175
_publ_section_title
;
Structure prediction by ZEFSAII (Michael W. Deem and Ramdas Pophale) SiO2 
 PCOD9576175
Probable space group: P 31 2 1
;
_chemical_formula_sum "Si O2"
_cell_formula_units_Z 15
_cell_length_a 11.741646
_cell_length_b 11.741646
_cell_length_c 5.389081
_cell_angle_alpha 90.000000
_cell_angle_beta 90.000000
_cell_angle_gamma 120.000000
_cell_volume 643.432966
_symmetry_space_group_name_H-M "P 31 2 1"
_symmetry_group_IT_number 152
_symmetry_cell_setting 'hexagonal'
loop_
_space_group_symop_operation_xyz
x,y,z
-y,x-y,1/3+z
-x+y,-x,2/3+z
x-y,-y,2/3-z
-x,-x+y,1/3-z
y,x,-z
loop_
_atom_site_type_symbol
_atom_site_label
_atom_site_fract_x
_atom_site_fract_y
_atom_site_fract_z
Si Si1 0.623981 0.758887 0.352384
Si Si2 0.870669 0.870669 0.000000
Si Si3 0.405261 0.489662 0.249127
O O1 0.681056 0.681056 0.500000
O O2 0.739149 0.839470 0.153312
O O3 0.482661 0.648481 0.247658
O O4 0.589459 0.839511 0.545185
O O5 0.000000 0.914286 0.166667
O O6 0.441641 0.441641 0.500000
O O7 0.456701 0.456701 0.000000
#
# Coordination Sequence:
#
# PCOD9576175 Si02
#       3
#     6   3   6
#     4  11  28  50  76 115 161 212 275 329 417 474
#     4  12  28  48  78 118 162 214 270 348 408 488
#     4  11  28  49  79 114 160 211 270 334 402 493
#
# _framework density 23.312452
#
# number of rings (size 3 to 8) (size 9 to 14) (size 15 to 20)
#    0.000    0.800    2.000    1.200   14.000    6.400 
#    0.000    0.000    0.000    0.000    0.000    0.000 
#    0.000    0.000    0.000    0.000    0.000    0.000 
#
# Total GULP energy -83904.394611 kJ/mol
# GULP energy per Si atom -5593.626307 kJ/mol
# Density = 2.325939 g / cm^3
# Si number density = 23.312452 Si / 1000 Ang^3
#
#
#
# Elastic Constant Matrix: (Units=GPa)
#
#
# Indices 1 2 3 4 5 6 
#
# 1 157.0284 57.3977 73.2199 -5.5992 0.0002 0.0000
# 2 57.3977 157.0284 73.2199 5.5992 -0.0002 0.0000
# 3 73.2199 73.2199 135.3790 0.0000 0.0000 0.0000
# 4 -5.5992 5.5992 0.0000 58.6635 0.0000 -0.0002
# 5 0.0002 -0.0002 0.0000 0.0000 58.6635 -5.5992
# 6 0.0000 0.0000 0.0000 -0.0002 -5.5992 49.8154
#
#
#
# Elastic Compliance Matrix: (Units=1/GPa)
#
#
# Indices 1 2 3 4 5 6 
#
# 1 0.008771 -0.001375 -0.004000 0.000968 0.000000 0.000000
# 2 -0.001375 0.008771 -0.004000 -0.000968 0.000000 0.000000
# 3 -0.004000 -0.004000 0.011713 0.000000 0.000000 0.000000
# 4 0.000968 -0.000968 0.000000 0.017231 0.000000 0.000000
# 5 0.000000 0.000000 0.000000 0.000000 0.017231 0.001937
# 6 0.000000 0.000000 0.000000 0.000000 0.001937 0.020292
#
#
# Mechanical properties :
#
#
# Convention : Reuss Voigt Hill
#
# Bulk Modulus (GPa) = 95.19527 95.23451 95.21489
# Shear Modulus (GPa) = 47.05462 49.80169 48.42816
#
# Velocity S-wave (km/s) = 4.49757 4.62699 4.56274
# Velocity P-wave (km/s) = 8.23978 8.33579 8.28793
#
# Compressibility (1/GPa) = 0.01050472
#
# Stress axis : x y z
#
# Youngs Moduli (GPa) = 114.01829 114.01829 85.37435
#
# Poissons Ratio (x) = 0.15682 0.34147
# Poissons Ratio (y) = 0.15682 0.34147
# Poissons Ratio (z) = 0.45604 0.45604
#
# Static dielectric constant tensor:
#      x y z
#    x 1.840230 0.000000 0.000000 
#    y 0.000000 1.840230 0.000000 
#    z 0.000000 0.000000 1.823320 
# 
# From -- ./inp_files/77.got.cif
#   From: 2010.05.17/outbox.cif.g08.bks.cpg/sg152_1_cif.got.tgz:77.got - 2010.05.20 10:36:06.
