data_PCOD9576117
_publ_section_title
;
Structure prediction by ZEFSAII (Michael W. Deem and Ramdas Pophale) SiO2 
 PCOD9576117
Probable space group: P 31 2 1
;
_chemical_formula_sum "Si O2"
_cell_formula_units_Z 24
_cell_length_a 15.097689
_cell_length_b 15.097689
_cell_length_c 5.071002
_cell_angle_alpha 90.000000
_cell_angle_beta 90.000000
_cell_angle_gamma 120.000000
_cell_volume 1001.026013
_symmetry_space_group_name_H-M "P 31 2 1"
_symmetry_group_IT_number 152
_symmetry_cell_setting 'hexagonal'
loop_
_space_group_symop_operation_xyz
x,y,z
-y,x-y,1/3+z
-x+y,-x,2/3+z
x-y,-y,2/3-z
-x,-x+y,1/3-z
y,x,-z
loop_
_atom_site_type_symbol
_atom_site_label
_atom_site_fract_x
_atom_site_fract_y
_atom_site_fract_z
Si Si1 0.505568 0.803981 0.063720
Si Si2 0.564945 0.138189 0.120462
Si Si3 0.000000 0.900090 0.666667
Si Si4 0.106417 0.294286 0.816335
Si Si5 0.363328 0.000000 0.833334
O O1 0.500556 0.867103 0.313131
O O2 0.449857 0.683339 0.129607
O O3 0.618776 0.825118 0.011647
O O4 0.458630 0.830303 0.816098
O O5 0.454356 0.039279 0.054185
O O6 0.922857 0.803200 0.831608
O O7 0.928343 0.928343 0.500000
O O8 0.000000 0.260974 0.666667
O O9 0.090722 0.336887 0.099775
#
# Coordination Sequence:
#
# PCOD9576117 Si02
#       5
#     6   6   3   6   3
#     4  11  25  43  71 101 144 183 240 292 356 434
#     4  11  24  43  66 100 136 185 230 290 353 434
#     4  12  24  46  72 100 136 184 244 304 364 444
#     4  11  26  44  71 103 141 193 243 307 373 438
#     4  10  26  42  70  94 146 180 236 286 384 424
#
# _framework density 23.975398999999999
#
# number of rings (size 3 to 8) (size 9 to 14) (size 15 to 20)
#    0.000    1.000    2.500    3.000   14.000    2.000 
#    0.000    0.000    0.000    0.000    0.000    0.000 
#    0.000    0.000    0.000    0.000    0.000    0.000 
#
# Total GULP energy -133957.585852 kJ/mol
# GULP energy per Si atom -5581.566077 kJ/mol
# Density = 2.392083 g / cm^3
# Si number density = 23.975399 Si / 1000 Ang^3
#
#
#
# Elastic Constant Matrix: (Units=GPa)
#
#
# Indices 1 2 3 4 5 6 
#
# 1 111.1685 63.6250 39.3263 -7.2937 0.0000 0.0000
# 2 63.6250 111.1685 39.3263 7.2937 0.0000 0.0000
# 3 39.3263 39.3263 123.9555 0.0000 0.0000 0.0000
# 4 -7.2937 7.2937 0.0000 24.4875 0.0000 0.0000
# 5 0.0000 0.0000 0.0000 0.0000 24.4875 -7.2937
# 6 0.0000 0.0000 0.0000 0.0000 -7.2937 23.7718
#
#
#
# Elastic Compliance Matrix: (Units=1/GPa)
#
#
# Indices 1 2 3 4 5 6 
#
# 1 0.014911 -0.008238 -0.002117 0.006895 0.000000 0.000000
# 2 -0.008238 0.014911 -0.002117 -0.006895 0.000000 0.000000
# 3 -0.002117 -0.002117 0.009411 0.000000 0.000000 0.000000
# 4 0.006895 -0.006895 0.000000 0.044944 0.000000 0.000000
# 5 0.000000 0.000000 0.000000 0.000000 0.044944 0.013790
# 6 0.000000 0.000000 0.000000 0.000000 0.013790 0.046298
#
#
# Mechanical properties :
#
#
# Convention : Reuss Voigt Hill
#
# Bulk Modulus (GPa) = 69.98321 70.09417 70.03869
# Shear Modulus (GPa) = 24.37506 28.15036 26.26271
#
# Velocity S-wave (km/s) = 3.19199 3.43028 3.31328
# Velocity P-wave (km/s) = 6.54507 6.70734 6.62671
#
# Compressibility (1/GPa) = 0.01428914
#
# Stress axis : x y z
#
# Youngs Moduli (GPa) = 67.06311 67.06311 106.25968
#
# Poissons Ratio (x) = 0.55244 0.22499
# Poissons Ratio (y) = 0.55244 0.22499
# Poissons Ratio (z) = 0.14199 0.14199
#
# Static dielectric constant tensor:
#      x y z
#    x 1.942660 0.000000 0.000000 
#    y 0.000000 1.942660 0.000000 
#    z 0.000000 0.000000 1.737390 
# 
# From -- ./inp_files/253.got.cif
#   From: 2010.05.17/outbox.cif.g08.bks.cpg/sg152_1_cif.got.tgz:253.got - 2010.05.20 10:36:06.
