data_PCOD9576813
_publ_section_title
;
Structure prediction by ZEFSAII (Michael W. Deem and Ramdas Pophale) SiO2 
 PCOD9576813
Probable space group: R 3 2
;
_chemical_formula_sum "Si O2"
_cell_formula_units_Z 36
_cell_length_a 17.256911
_cell_length_b 17.256911
_cell_length_c 7.441271
_cell_angle_alpha 90.000000
_cell_angle_beta 90.000000
_cell_angle_gamma 120.000000
_cell_volume 1919.127689
_symmetry_space_group_name_H-M "R 3 2"
_symmetry_group_IT_number 155
_symmetry_cell_setting 'hexagonal'
loop_
_space_group_symop_operation_xyz
x,y,z
-y,x-y,z
-x+y,-x,z
x-y,-y,-z
-x,-x+y,-z
y,x,-z
2/3+x,1/3+y,1/3+z
2/3-y,1/3+x-y,1/3+z
2/3-x+y,1/3-x,1/3+z
2/3+x-y,1/3-y,1/3-z
2/3-x,1/3-x+y,1/3-z
2/3+y,1/3+x,1/3-z
1/3+x,2/3+y,2/3+z
1/3-y,2/3+x-y,2/3+z
1/3-x+y,2/3-x,2/3+z
1/3+x-y,2/3-y,2/3-z
1/3-x,2/3-x+y,2/3-z
1/3+y,2/3+x,2/3-z
loop_
_atom_site_type_symbol
_atom_site_label
_atom_site_fract_x
_atom_site_fract_y
_atom_site_fract_z
Si Si1 0.597268 0.666667 0.666667
Si Si2 0.432329 0.333334 0.833334
Si Si3 0.504855 0.410344 0.202736
O O1 0.630181 0.630181 0.500000
O O2 0.504643 0.588652 0.748057
O O3 0.419490 0.416039 0.772268
O O4 0.457382 0.291723 0.666450
O O5 0.495543 0.333334 0.333334
#
# Coordination Sequence:
#
# PCOD9576813 Si02
#       3
#     9   9  18
#     4  12  26  40  60  98 140 170 202 264 332 386
#     4  10  18  36  68  92 112 160 230 268 294 366
#     4  11  20  38  64  93 120 163 217 263 309 374
#
# _framework density 18.758520999999998
#
# number of rings (size 3 to 8) (size 9 to 14) (size 15 to 20)
#    0.000    1.000    5.000    6.000    0.000    0.000 
#    1.500    0.000    0.000    0.000    6.500    0.000 
#    0.000    0.000    0.000    0.000    0.000    0.000 
#
# Total GULP energy -66991.823811 kJ/mol
# GULP energy per Si atom -5582.651984 kJ/mol
# Density = 1.871583 g / cm^3
# Si number density = 18.758521 Si / 1000 Ang^3
#
#
#
# Elastic Constant Matrix: (Units=GPa)
#
#
# Indices 1 2 3 4 5 6 
#
# 1 124.1919 83.4446 79.4305 -17.0074 0.0007 0.0000
# 2 83.4446 124.1919 79.4305 17.0074 -0.0007 0.0000
# 3 79.4305 79.4305 191.8299 -0.0001 -0.0002 -0.0001
# 4 -17.0074 17.0074 -0.0001 -35.9293 0.0000 -0.0007
# 5 0.0007 -0.0007 -0.0002 0.0000 -35.9295 -17.0075
# 6 0.0000 0.0000 -0.0001 -0.0007 -17.0075 20.3736
#
#
#
# Elastic Compliance Matrix: (Units=1/GPa)
#
#
# Indices 1 2 3 4 5 6 
#
# 1 0.012320 -0.005271 -0.002919 -0.008327 0.000000 0.000000
# 2 -0.005271 0.012320 -0.002919 0.008327 0.000000 0.000000
# 3 -0.002919 -0.002919 0.007630 0.000000 0.000000 0.000000
# 4 -0.008327 0.008327 0.000000 -0.019949 0.000000 -0.000001
# 5 0.000000 0.000000 0.000000 0.000000 -0.019949 -0.016653
# 6 0.000000 0.000000 0.000000 -0.000001 -0.016653 0.035181
#
#
# Mechanical properties :
#
#
# Convention : Reuss Voigt Hill
#
# Bulk Modulus (GPa) = 99.47016 102.75833 101.11424
# Shear Modulus (GPa) = 94.12532 2.89682 48.51107
#
# Velocity S-wave (km/s) = 7.09128 1.24403 5.09087
# Velocity P-wave (km/s) = 10.96313 7.54731 9.41149
#
# Compressibility (1/GPa) = 0.01005327
#
# Stress axis : x y z
#
# Youngs Moduli (GPa) = 81.16891 81.16893 131.05822
#
# Poissons Ratio (x) = 0.42781 0.38255
# Poissons Ratio (y) = 0.42781 0.38255
# Poissons Ratio (z) = 0.23692 0.23692
#
# Static dielectric constant tensor:
#      x y z
#    x 1.630920 0.000000 0.000000 
#    y 0.000000 1.630920 0.000000 
#    z 0.000000 0.000000 1.738840 
# 
# From -- ./inp_files/1448.got.cif
#   From: 2010.05.17/outbox.cif.g08.bks.cpg/sg155_1_cif.got.tgz:1448.got - 2010.05.20 10:44:35.
