data_PCOD9576371
_publ_section_title
;
Structure prediction by ZEFSAII (Michael W. Deem and Ramdas Pophale) SiO2 
 PCOD9576371
Probable space group: P 32 1 2
;
_chemical_formula_sum "Si O2"
_cell_formula_units_Z 36
_cell_length_a 9.082385
_cell_length_b 9.082385
_cell_length_c 25.486869
_cell_angle_alpha 90.000000
_cell_angle_beta 90.000000
_cell_angle_gamma 120.000000
_cell_volume 1820.735809
_symmetry_space_group_name_H-M "P 32 1 2"
_symmetry_group_IT_number 153
_symmetry_cell_setting 'hexagonal'
loop_
_space_group_symop_operation_xyz
x,y,z
-y,x-y,2/3+z
-x+y,-x,1/3+z
-y,-x,1/3-z
-x+y,y,2/3-z
x,x-y,-z
loop_
_atom_site_type_symbol
_atom_site_label
_atom_site_fract_x
_atom_site_fract_y
_atom_site_fract_z
Si Si1 0.470112 0.615131 0.321158
Si Si2 0.619943 0.277500 0.442424
Si Si3 0.315409 0.014783 0.372498
Si Si4 0.356650 0.258072 0.942606
Si Si5 0.354740 0.250015 0.271649
Si Si6 0.996494 0.987142 0.895554
O O1 0.280922 0.561844 0.333334
O O2 0.566752 0.631123 0.374946
O O3 0.447173 0.448588 0.289818
O O4 0.565051 0.811751 0.300164
O O5 0.550778 0.275389 0.500000
O O6 0.485630 0.128555 0.405333
O O7 0.691326 0.464967 0.417678
O O8 0.778909 0.247229 0.442804
O O9 0.343927 0.123766 0.319049
O O10 0.170262 0.016959 0.406651
O O11 0.184268 0.142522 0.910874
O O12 0.341831 0.170916 0.000000
O O13 0.164251 0.160097 0.250862
O O14 0.983171 0.966342 0.833334
#
# Coordination Sequence:
#
# PCOD9576371 Si02
#       6
#     6   6   6   6   6   6
#     4  12  24  40  69  98 125 165 236 280 314 387
#     4  12  25  42  66  99 137 172 216 283 345 390
#     4  12  23  43  67  96 131 177 225 273 328 407
#     4  12  21  45  69  93 126 179 226 269 323 408
#     4  12  23  42  70  97 127 179 231 270 327 413
#     4  12  25  42  66  99 136 172 219 283 341 390
#
# _framework density 19.772224999999999
#
# number of rings (size 3 to 8) (size 9 to 14) (size 15 to 20)
#    0.000    0.000    6.667    4.500    0.000    0.000 
#    0.000    0.000    0.000    0.000    0.000    0.000 
#    0.000    0.000    0.000    0.000    0.000    0.000 
#
# Total GULP energy -200757.594844 kJ/mol
# GULP energy per Si atom -5576.599857 kJ/mol
# Density = 1.972722 g / cm^3
# Si number density = 19.772225 Si / 1000 Ang^3
#
#
#
# Elastic Constant Matrix: (Units=GPa)
#
#
# Indices 1 2 3 4 5 6 
#
# 1 103.4877 16.0474 12.5984 -0.0030 0.7326 0.0000
# 2 16.0474 103.4877 12.5984 0.0030 -0.7326 0.0000
# 3 12.5984 12.5984 82.4465 0.0000 0.0000 0.0000
# 4 -0.0030 0.0030 0.0000 0.1669 0.0000 -0.7326
# 5 0.7326 -0.7326 0.0000 0.0000 0.1669 -0.0030
# 6 0.0000 0.0000 0.0000 -0.7326 -0.0030 43.7202
#
#
#
# Elastic Compliance Matrix: (Units=1/GPa)
#
#
# Indices 1 2 3 4 5 6 
#
# 1 0.010494 -0.001850 -0.001321 0.000224 -0.054188 0.000000
# 2 -0.001850 0.010494 -0.001321 -0.000224 0.054188 0.000000
# 3 -0.001321 -0.001321 0.012533 0.000000 0.000000 0.000000
# 4 0.000224 -0.000224 0.000000 6.467530 -0.000017 0.108376
# 5 -0.054188 0.054188 0.000000 -0.000017 6.467549 0.000448
# 6 0.000000 0.000000 0.000000 0.108376 0.000448 0.024689
#
#
# Mechanical properties :
#
#
# Convention : Reuss Voigt Hill
#
# Bulk Modulus (GPa) = 40.75383 41.32332 41.03857
# Shear Modulus (GPa) = 0.38431 25.35597 12.87014
#
# Velocity S-wave (km/s) = 0.44135 3.58495 2.55408
# Velocity P-wave (km/s) = 4.57341 6.17097 5.43125
#
# Compressibility (1/GPa) = 0.02453757
#
# Stress axis : x y z
#
# Youngs Moduli (GPa) = 95.28983 95.28983 79.79088
#
# Poissons Ratio (x) = 0.17630 0.10539
# Poissons Ratio (y) = 0.17630 0.10539
# Poissons Ratio (z) = 0.12587 0.12587
#
# Static dielectric constant tensor:
#      x y z
#    x 2.175800 0.000000 0.000000 
#    y 0.000000 2.175800 0.000000 
#    z 0.000000 0.000000 1.660620 
# 
# From -- ./inp_files/4755.got.cif
#   From: 2010.05.17/outbox.cif.g08.bks.cpg/sg153_3_cif.got.tgz:4755.got - 2010.05.20 10:38:56.
