data_PCOD9576578
_publ_section_title
;
Structure prediction by ZEFSAII (Michael W. Deem and Ramdas Pophale) SiO2 
 PCOD9576578
Probable space group: P 32 2 1
;
_chemical_formula_sum "Si O2"
_cell_formula_units_Z 33
_cell_length_a 10.998209
_cell_length_b 10.998209
_cell_length_c 15.804357
_cell_angle_alpha 90.000000
_cell_angle_beta 90.000000
_cell_angle_gamma 120.000000
_cell_volume 1655.584683
_symmetry_space_group_name_H-M "P 32 2 1"
_symmetry_group_IT_number 154
_symmetry_cell_setting 'hexagonal'
loop_
_space_group_symop_operation_xyz
x,y,z
-y,x-y,2/3+z
-x+y,-x,1/3+z
x-y,-y,1/3-z
-x,-x+y,2/3-z
y,x,-z
loop_
_atom_site_type_symbol
_atom_site_label
_atom_site_fract_x
_atom_site_fract_y
_atom_site_fract_z
Si Si1 0.357696 0.757048 0.747709
Si Si2 0.895003 0.173656 0.258703
Si Si3 0.235026 0.917382 0.249815
Si Si4 0.767371 0.410486 0.746807
Si Si5 0.362295 0.362295 0.000000
Si Si6 0.727520 0.844630 0.261748
O O1 0.226059 0.782428 0.738783
O O2 0.345637 0.648707 0.676832
O O3 0.345386 0.700336 0.842964
O O4 0.502306 0.898524 0.724011
O O5 0.955784 0.205600 0.163345
O O6 0.000000 0.254108 0.333334
O O7 0.834717 0.009043 0.272383
O O8 0.355731 0.876071 0.237835
O O9 0.096128 0.770798 0.273496
O O10 0.232430 0.000000 0.166667
O O11 0.265638 0.017691 0.330138
O O12 0.833182 0.576330 0.743102
#
# Coordination Sequence:
#
# PCOD9576578 Si02
#       6
#     6   6   6   6   3   6
#     4  10  21  43  67  97 128 170 219 277 328 399
#     4  10  22  41  67  90 129 171 218 266 332 394
#     4  11  25  43  66  95 136 174 219 279 340 398
#     4  10  23  40  68  95 130 168 221 273 336 395
#     4  10  24  46  62 100 134 168 234 276 324 416
#     4  10  24  40  63  98 128 171 219 275 325 411
#
# _framework density 19.932534
#
# number of rings (size 3 to 8) (size 9 to 14) (size 15 to 20)
#    0.000    1.818    0.909    1.091    8.909    5.818 
#    9.818    0.000    0.000    0.000    0.000    0.000 
#    0.000    0.000    0.000    0.000    0.000    0.000 
#
# Total GULP energy -184228.631275 kJ/mol
# GULP energy per Si atom -5582.685796 kJ/mol
# Density = 1.988717 g / cm^3
# Si number density = 19.932534 Si / 1000 Ang^3
#
#
#
# Elastic Constant Matrix: (Units=GPa)
#
#
# Indices 1 2 3 4 5 6 
#
# 1 53.0951 20.6604 33.3184 8.1049 0.0000 0.0000
# 2 20.6604 53.0951 33.3184 -8.1049 0.0000 0.0000
# 3 33.3184 33.3184 101.5766 0.0000 0.0000 0.0000
# 4 8.1049 -8.1049 0.0000 25.2500 0.0000 0.0000
# 5 0.0000 0.0000 0.0000 0.0000 25.2500 8.1049
# 6 0.0000 0.0000 0.0000 0.0000 8.1049 16.2174
#
#
#
# Elastic Compliance Matrix: (Units=1/GPa)
#
#
# Indices 1 2 3 4 5 6 
#
# 1 0.027995 -0.008727 -0.006320 -0.011787 0.000000 0.000000
# 2 -0.008727 0.027995 -0.006320 0.011787 0.000000 0.000000
# 3 -0.006320 -0.006320 0.013991 0.000000 0.000000 0.000000
# 4 -0.011787 0.011787 0.000000 0.047171 0.000000 0.000000
# 5 0.000000 0.000000 0.000000 0.000000 0.047171 -0.023574
# 6 0.000000 0.000000 0.000000 0.000000 -0.023574 0.073444
#
#
# Mechanical properties :
#
#
# Convention : Reuss Voigt Hill
#
# Bulk Modulus (GPa) = 36.70131 42.48455 39.59293
# Shear Modulus (GPa) = 17.26611 21.37480 19.32045
#
# Velocity S-wave (km/s) = 2.94637 3.27824 3.11672
# Velocity P-wave (km/s) = 5.47974 5.97408 5.73224
#
# Compressibility (1/GPa) = 0.02724698
#
# Stress axis : x y z
#
# Youngs Moduli (GPa) = 35.72025 35.72025 71.47397
#
# Poissons Ratio (x) = 0.31172 0.45174
# Poissons Ratio (y) = 0.31172 0.45174
# Poissons Ratio (z) = 0.22576 0.22576
#
# Static dielectric constant tensor:
#      x y z
#    x 1.697360 0.000000 0.000000 
#    y 0.000000 1.697360 0.000000 
#    z 0.000000 0.000000 1.705920 
# 
# From -- ./inp_files/1994.got.cif
#   From: 2010.05.17/outbox.cif.g08.bks.cpg/sg154_1_cif.got.tgz:1994.got - 2010.05.20 10:41:43.
