data_PCOD9576985
_publ_section_title
;
Structure prediction by ZEFSAII (Michael W. Deem and Ramdas Pophale) SiO2 
 PCOD9576985
Probable space group: R 3 2
;
_chemical_formula_sum "Si O2"
_cell_formula_units_Z 81
_cell_length_a 19.628520
_cell_length_b 19.628520
_cell_length_c 11.448478
_cell_angle_alpha 90.000000
_cell_angle_beta 90.000000
_cell_angle_gamma 120.000000
_cell_volume 3819.913206
_symmetry_space_group_name_H-M "R 3 2"
_symmetry_group_IT_number 155
_symmetry_cell_setting 'hexagonal'
loop_
_space_group_symop_operation_xyz
x,y,z
-y,x-y,z
-x+y,-x,z
x-y,-y,-z
-x,-x+y,-z
y,x,-z
2/3+x,1/3+y,1/3+z
2/3-y,1/3+x-y,1/3+z
2/3-x+y,1/3-x,1/3+z
2/3+x-y,1/3-y,1/3-z
2/3-x,1/3-x+y,1/3-z
2/3+y,1/3+x,1/3-z
1/3+x,2/3+y,2/3+z
1/3-y,2/3+x-y,2/3+z
1/3-x+y,2/3-x,2/3+z
1/3+x-y,2/3-y,2/3-z
1/3-x,2/3-x+y,2/3-z
1/3+y,2/3+x,2/3-z
loop_
_atom_site_type_symbol
_atom_site_label
_atom_site_fract_x
_atom_site_fract_y
_atom_site_fract_z
Si Si1 0.172830 0.046633 0.262414
Si Si2 0.084725 0.885767 0.499237
Si Si3 0.611317 0.152679 0.097905
Si Si4 0.584384 0.019306 0.282697
Si Si5 0.190274 0.856940 0.833334
O O1 0.183671 0.048348 0.403541
O O2 0.156541 0.118826 0.241978
O O3 0.255211 0.065176 0.205934
O O4 0.102637 0.967599 0.209192
O O5 0.094827 0.877039 0.361597
O O6 0.076508 0.806928 0.557453
O O7 0.000000 0.880664 0.500000
O O8 0.600061 0.087144 0.190462
O O9 0.666667 0.032275 0.333334
O O10 0.536354 0.024200 0.392379
#
# Coordination Sequence:
#
# PCOD9576985 Si02
#       5
#    18  18  18  18   9
#     4  10  21  38  63  89 130 158 211 260 332 383
#     4   9  21  36  61  92 122 159 199 259 321 387
#     4  11  21  39  62  95 121 168 209 266 319 408
#     4  11  22  37  60  87 125 160 214 267 319 381
#     4  10  22  42  54  90 122 170 202 272 326 382
#
# _framework density 21.20467
#
# number of rings (size 3 to 8) (size 9 to 14) (size 15 to 20)
#    0.000    1.778    2.222    1.778    1.556    0.889 
#    0.000    2.222   19.556    0.000    0.000    0.000 
#    0.000    0.000    0.000    0.000    0.000    0.000 
#
# Total GULP energy -150525.250166 kJ/mol
# GULP energy per Si atom -5575.009265 kJ/mol
# Density = 2.115641 g / cm^3
# Si number density = 21.204670 Si / 1000 Ang^3
#
#
#
# Elastic Constant Matrix: (Units=GPa)
#
#
# Indices 1 2 3 4 5 6 
#
# 1 68.4528 16.1014 10.9774 -5.5685 -0.0001 0.0000
# 2 16.1014 68.4528 10.9774 5.5685 0.0001 0.0000
# 3 10.9774 10.9774 76.7067 0.0000 0.0000 0.0000
# 4 -5.5685 5.5685 0.0000 26.8266 0.0000 0.0001
# 5 -0.0001 0.0001 0.0000 0.0000 26.8266 -5.5685
# 6 0.0000 0.0000 0.0000 0.0001 -5.5685 26.1757
#
#
#
# Elastic Compliance Matrix: (Units=1/GPa)
#
#
# Indices 1 2 3 4 5 6 
#
# 1 0.016134 -0.003850 -0.001758 0.004148 0.000000 0.000000
# 2 -0.003850 0.016134 -0.001758 -0.004148 0.000000 0.000000
# 3 -0.001758 -0.001758 0.013540 0.000000 0.000000 0.000000
# 4 0.004148 -0.004148 0.000000 0.038998 0.000000 0.000000
# 5 0.000000 0.000000 0.000000 0.000000 0.038998 0.008296
# 6 0.000000 0.000000 0.000000 0.000000 0.008296 0.039968
#
#
# Mechanical properties :
#
#
# Convention : Reuss Voigt Hill
#
# Bulk Modulus (GPa) = 32.18042 32.19164 32.18603
# Shear Modulus (GPa) = 26.47423 27.66953 27.07188
#
# Velocity S-wave (km/s) = 3.53726 3.61623 3.57696
# Velocity P-wave (km/s) = 5.64730 5.71406 5.68078
#
# Compressibility (1/GPa) = 0.03107479
#
# Stress axis : x y z
#
# Youngs Moduli (GPa) = 61.98224 61.98224 73.85635
#
# Poissons Ratio (x) = 0.23866 0.12983
# Poissons Ratio (y) = 0.23866 0.12983
# Poissons Ratio (z) = 0.10895 0.10895
#
# Static dielectric constant tensor:
#      x y z
#    x 1.786570 0.000000 0.000000 
#    y 0.000000 1.786570 0.000000 
#    z 0.000000 0.000000 1.833440 
# 
# From -- ./inp_files/3790.got.cif
#   From: 2010.05.17/outbox.cif.g08.bks.cpg/sg155_2_cif.got.tgz:3790.got - 2010.05.20 10:44:35.
