data_PCOD9576596
_publ_section_title
;
Structure prediction by ZEFSAII (Michael W. Deem and Ramdas Pophale) SiO2 
 PCOD9576596
Probable space group: P 32 2 1
;
_chemical_formula_sum "Si O2"
_cell_formula_units_Z 45
_cell_length_a 11.781453
_cell_length_b 11.781453
_cell_length_c 18.632491
_cell_angle_alpha 90.000000
_cell_angle_beta 90.000000
_cell_angle_gamma 120.000000
_cell_volume 2239.748539
_symmetry_space_group_name_H-M "P 32 2 1"
_symmetry_group_IT_number 154
_symmetry_cell_setting 'hexagonal'
loop_
_space_group_symop_operation_xyz
x,y,z
-y,x-y,2/3+z
-x+y,-x,1/3+z
x-y,-y,1/3-z
-x,-x+y,2/3-z
y,x,-z
loop_
_atom_site_type_symbol
_atom_site_label
_atom_site_fract_x
_atom_site_fract_y
_atom_site_fract_z
Si Si1 0.490688 0.548836 0.220798
Si Si2 0.732393 0.000000 0.166667
Si Si3 0.744052 0.119028 0.931273
Si Si4 0.819308 0.228793 0.778829
Si Si5 0.966514 0.553421 0.257907
Si Si6 0.104542 0.136507 0.628720
Si Si7 0.685248 0.208465 0.077021
Si Si8 0.102795 0.323001 0.043657
O O1 0.397548 0.396206 0.238667
O O2 0.486982 0.554725 0.134997
O O3 0.437281 0.641977 0.246125
O O4 0.634264 0.602075 0.255574
O O5 0.793867 0.957741 0.101979
O O6 0.714493 0.113377 0.127891
O O7 0.831175 0.207296 0.863933
O O8 0.823078 0.067707 0.976791
O O9 0.699988 0.185975 0.992869
O O10 0.817763 0.361899 0.766058
O O11 0.902382 0.225008 0.710506
O O12 0.678770 0.103085 0.763959
O O13 0.861890 0.605092 0.267461
O O14 0.000000 0.514770 0.333334
O O15 0.983241 0.154064 0.600449
O O16 0.049237 0.000000 0.666667
#
# Coordination Sequence:
#
# PCOD9576596 Si02
#       8
#     6   3   6   6   6   6   6   6
#     4  11  22  40  67  89 133 176 211 286 336 414
#     4  10  24  42  58  92 128 170 218 270 350 412
#     4  10  23  42  60 105 128 168 236 269 344 419
#     4  10  22  39  70  97 128 173 222 282 326 411
#     4   9  22  39  62  99 125 166 231 270 331 407
#     4  11  24  44  68  92 135 176 224 291 351 418
#     4  11  23  42  63  90 135 177 212 274 346 405
#     4  11  21  42  66  96 132 172 224 286 346 398
#
# _framework density 20.091543000000001
#
# number of rings (size 3 to 8) (size 9 to 14) (size 15 to 20)
#    0.000    1.600    4.000    1.200    3.733    6.933 
#    0.000    0.667    0.000    0.000    0.000    0.000 
#    0.000    0.000    0.000    0.000    0.000    0.000 
#
# Total GULP energy -250749.808900 kJ/mol
# GULP energy per Si atom -5572.217976 kJ/mol
# Density = 2.004581 g / cm^3
# Si number density = 20.091543 Si / 1000 Ang^3
#
#
#
# Elastic Constant Matrix: (Units=GPa)
#
#
# Indices 1 2 3 4 5 6 
#
# 1 -121.9678 160.6325 14.0307 91.6762 0.0002 0.0000
# 2 160.6325 -121.9678 14.0307 -91.6762 -0.0002 0.0000
# 3 14.0307 14.0307 143.4974 0.0000 0.0000 0.0000
# 4 91.6762 -91.6762 0.0000 -16.1437 0.0000 -0.0002
# 5 0.0002 -0.0002 0.0000 0.0000 -16.1437 91.6762
# 6 0.0000 0.0000 0.0000 -0.0002 91.6762 -141.3001
#
#
#
# Elastic Compliance Matrix: (Units=1/GPa)
#
#
# Indices 1 2 3 4 5 6 
#
# 1 0.014579 0.013260 -0.002722 0.007486 0.000000 0.000000
# 2 0.013260 0.014579 -0.002722 -0.007486 0.000000 0.000000
# 3 -0.002722 -0.002722 0.007501 0.000000 0.000000 0.000000
# 4 0.007486 -0.007486 0.000000 0.023075 0.000000 0.000000
# 5 0.000000 0.000000 0.000000 0.000000 0.023075 0.014971
# 6 0.000000 0.000000 0.000000 0.000000 0.014971 0.002636
#
#
# Mechanical properties :
#
#
# Convention : Reuss Voigt Hill
#
# Bulk Modulus (GPa) = 19.12379 30.77219 24.94799
# Shear Modulus (GPa) = 57.31125 -53.99300 1.65913
#
# Velocity S-wave (km/s) = 5.34668 -5.18959 0.90971
# Velocity P-wave (km/s) = 6.90326 4.53430 3.68070
#
# Compressibility (1/GPa) = 0.05229089
#
# Stress axis : x y z
#
# Youngs Moduli (GPa) = 68.59389 68.59389 133.31443
#
# Poissons Ratio (x) = -0.90958 0.36288
# Poissons Ratio (y) = -0.90958 0.36288
# Poissons Ratio (z) = 0.18671 0.18671
#
# Static dielectric constant tensor:
#      x y z
#    x 1.809890 0.000000 0.000000 
#    y 0.000000 1.809890 0.000000 
#    z 0.000000 0.000000 1.819830 
# 
# From -- ./inp_files/2509.got.cif
#   From: 2010.05.17/outbox.cif.g08.bks.cpg/sg154_2_cif.got.tgz:2509.got - 2010.05.20 10:41:43.
