data_PCOD9576225
_publ_section_title
;
Structure prediction by ZEFSAII (Michael W. Deem and Ramdas Pophale) SiO2 
 PCOD9576225
Probable space group: P 32 1 2
;
_chemical_formula_sum "Si O2"
_cell_formula_units_Z 36
_cell_length_a 9.214059
_cell_length_b 9.214059
_cell_length_c 22.921775
_cell_angle_alpha 90.000000
_cell_angle_beta 90.000000
_cell_angle_gamma 120.000000
_cell_volume 1685.314101
_symmetry_space_group_name_H-M "P 32 1 2"
_symmetry_group_IT_number 153
_symmetry_cell_setting 'hexagonal'
loop_
_space_group_symop_operation_xyz
x,y,z
-y,x-y,2/3+z
-x+y,-x,1/3+z
-y,-x,1/3-z
-x+y,y,2/3-z
x,x-y,-z
loop_
_atom_site_type_symbol
_atom_site_label
_atom_site_fract_x
_atom_site_fract_y
_atom_site_fract_z
Si Si1 0.784726 0.036478 0.289863
Si Si2 0.681620 0.308530 0.068338
Si Si3 0.317724 0.254291 0.939732
Si Si4 0.633655 0.050105 0.885677
Si Si5 0.173840 0.663974 0.358424
Si Si6 0.931367 0.884553 0.581792
O O1 0.742837 0.175766 0.265253
O O2 0.951724 0.060124 0.260856
O O3 0.839604 0.061581 0.358721
O O4 0.630944 0.844937 0.281860
O O5 0.490253 0.192654 0.090838
O O6 0.727762 0.480484 0.098885
O O7 0.656523 0.328262 0.000000
O O8 0.282174 0.141087 0.000000
O O9 0.361193 0.428121 0.967608
O O10 0.151222 0.182491 0.901302
O O11 0.507749 0.015497 0.833334
O O12 0.502913 0.933543 0.936216
O O13 0.790703 0.023129 0.876831
O O14 0.341705 0.683409 0.333334
#
# Coordination Sequence:
#
# PCOD9576225 Si02
#       6
#     6   6   6   6   6   6
#     4  10  19  35  65  98 113 148 218 264 299 350
#     4  11  19  36  62  88 121 159 209 259 305 368
#     4  10  17  35  61  93 117 149 212 262 303 351
#     4  12  26  41  58  92 137 169 201 259 333 379
#     4  11  22  36  63  93 121 158 214 264 303 371
#     4  10  19  35  60  91 123 154 202 259 305 376
#
# _framework density 21.361001000000002
#
# number of rings (size 3 to 8) (size 9 to 14) (size 15 to 20)
#    0.000    1.333    8.333    0.500    7.000    0.000 
#    0.000    5.000    0.000    0.000    0.000    0.000 
#    0.000    0.000    0.000    0.000    0.000    0.000 
#
# Total GULP energy -200502.535996 kJ/mol
# GULP energy per Si atom -5569.514889 kJ/mol
# Density = 2.131238 g / cm^3
# Si number density = 21.361001 Si / 1000 Ang^3
#
#
#
# Elastic Constant Matrix: (Units=GPa)
#
#
# Indices 1 2 3 4 5 6 
#
# 1 128.4025 42.7797 17.3827 -0.0007 0.1063 0.0000
# 2 42.7797 128.4025 17.3827 0.0007 -0.1063 0.0000
# 3 17.3827 17.3827 31.8309 0.0000 0.0000 0.0000
# 4 -0.0007 0.0007 0.0000 8.9450 0.0000 -0.1063
# 5 0.1063 -0.1063 0.0000 0.0000 8.9450 -0.0007
# 6 0.0000 0.0000 0.0000 -0.1063 -0.0007 42.8114
#
#
#
# Elastic Compliance Matrix: (Units=1/GPa)
#
#
# Indices 1 2 3 4 5 6 
#
# 1 0.009125 -0.002555 -0.003588 0.000001 -0.000139 0.000000
# 2 -0.002555 0.009125 -0.003588 -0.000001 0.000139 0.000000
# 3 -0.003588 -0.003588 0.035335 0.000000 0.000000 0.000000
# 4 0.000001 -0.000001 0.000000 0.111797 0.000000 0.000277
# 5 -0.000139 0.000139 0.000000 0.000000 0.111797 0.000002
# 6 0.000000 0.000000 0.000000 0.000277 0.000002 0.023359
#
#
# Mechanical properties :
#
#
# Convention : Reuss Voigt Hill
#
# Bulk Modulus (GPa) = 29.30542 49.30292 39.30417
# Shear Modulus (GPa) = 15.08869 26.21301 20.65085
#
# Velocity S-wave (km/s) = 2.66064 3.50686 3.11264
# Velocity P-wave (km/s) = 4.81535 6.28716 5.59982
#
# Compressibility (1/GPa) = 0.03412338
#
# Stress axis : x y z
#
# Youngs Moduli (GPa) = 109.58956 109.58956 28.30068
#
# Poissons Ratio (x) = 0.27995 0.10155
# Poissons Ratio (y) = 0.27995 0.10155
# Poissons Ratio (z) = 0.39322 0.39322
#
# Static dielectric constant tensor:
#      x y z
#    x 1.677370 0.000000 0.000000 
#    y 0.000000 1.677370 0.000000 
#    z 0.000000 0.000000 1.889340 
# 
# From -- ./inp_files/4731.got.cif
#   From: 2010.05.17/outbox.cif.g08.bks.cpg/sg153_3_cif.got.tgz:4731.got - 2010.05.20 10:38:56.
