data_PCOD9576260
_publ_section_title
;
Structure prediction by ZEFSAII (Michael W. Deem and Ramdas Pophale) SiO2 
 PCOD9576260
Probable space group: P 32 1 2
;
_chemical_formula_sum "Si O2"
_cell_formula_units_Z 24
_cell_length_a 8.621787
_cell_length_b 8.621787
_cell_length_c 16.362518
_cell_angle_alpha 90.000000
_cell_angle_beta 90.000000
_cell_angle_gamma 120.000000
_cell_volume 1053.356423
_symmetry_space_group_name_H-M "P 32 1 2"
_symmetry_group_IT_number 153
_symmetry_cell_setting 'hexagonal'
loop_
_space_group_symop_operation_xyz
x,y,z
-y,x-y,2/3+z
-x+y,-x,1/3+z
-y,-x,1/3-z
-x+y,y,2/3-z
x,x-y,-z
loop_
_atom_site_type_symbol
_atom_site_label
_atom_site_fract_x
_atom_site_fract_y
_atom_site_fract_z
Si Si1 0.465039 0.303451 0.289992
Si Si2 0.482054 0.364597 0.903059
Si Si3 0.825967 0.011922 0.811222
Si Si4 0.959907 0.627975 0.896391
O O1 0.664457 0.383887 0.249935
O O2 0.496299 0.456242 0.355892
O O3 0.317483 0.261803 0.222121
O O4 0.402004 0.128691 0.347680
O O5 0.499575 0.466300 0.817510
O O6 0.292153 0.189085 0.909625
O O7 0.683858 0.820709 0.773931
O O8 0.000803 0.001605 0.833334
O O9 0.819394 0.638788 0.833334
#
# Coordination Sequence:
#
# PCOD9576260 Si02
#       4
#     6   6   6   6
#     4  10  19  36  62  85 117 169 214 256 314 385
#     4  10  20  39  64  88 120 171 219 254 320 409
#     4  11  23  37  60  96 129 159 213 276 327 382
#     4   9  20  36  58  91 126 161 214 262 308 389
#
# _framework density 22.784309
#
# number of rings (size 3 to 8) (size 9 to 14) (size 15 to 20)
#    0.000    2.000    0.000    6.750    0.000   13.000 
#    0.000    2.500    0.000    9.000    0.000    0.000 
#    0.000    0.000    0.000    0.000    0.000    0.000 
#
# Total GULP energy -133614.764826 kJ/mol
# GULP energy per Si atom -5567.281868 kJ/mol
# Density = 2.273245 g / cm^3
# Si number density = 22.784309 Si / 1000 Ang^3
#
#
#
# Elastic Constant Matrix: (Units=GPa)
#
#
# Indices 1 2 3 4 5 6 
#
# 1 95.9047 22.9211 18.6455 0.0001 2.6043 0.0000
# 2 22.9211 95.9047 18.6455 -0.0001 -2.6043 0.0000
# 3 18.6455 18.6455 112.4045 0.0000 0.0000 0.0000
# 4 0.0001 -0.0001 0.0000 25.0937 0.0000 -2.6043
# 5 2.6043 -2.6043 0.0000 0.0000 25.0937 0.0001
# 6 0.0000 0.0000 0.0000 -2.6043 0.0001 36.4918
#
#
#
# Elastic Compliance Matrix: (Units=1/GPa)
#
#
# Indices 1 2 3 4 5 6 
#
# 1 0.011341 -0.002463 -0.001473 0.000000 -0.001433 0.000000
# 2 -0.002463 0.011341 -0.001473 0.000000 0.001433 0.000000
# 3 -0.001473 -0.001473 0.009385 0.000000 0.000000 0.000000
# 4 0.000000 0.000000 0.000000 0.040148 0.000000 0.002865
# 5 -0.001433 0.001433 0.000000 0.000000 0.040148 0.000000
# 6 0.000000 0.000000 0.000000 0.002865 0.000000 0.027608
#
#
# Mechanical properties :
#
#
# Convention : Reuss Voigt Hill
#
# Bulk Modulus (GPa) = 47.05858 47.18201 47.12029
# Shear Modulus (GPa) = 31.67149 33.60263 32.63706
#
# Velocity S-wave (km/s) = 3.73239 3.84450 3.78886
# Velocity P-wave (km/s) = 6.26683 6.36081 6.31399
#
# Compressibility (1/GPa) = 0.02125011
#
# Stress axis : x y z
#
# Youngs Moduli (GPa) = 88.17646 88.17646 106.55304
#
# Poissons Ratio (x) = 0.21718 0.15691
# Poissons Ratio (y) = 0.21718 0.15691
# Poissons Ratio (z) = 0.12985 0.12985
#
# Static dielectric constant tensor:
#      x y z
#    x 1.934820 0.000000 0.000000 
#    y 0.000000 1.934820 0.000000 
#    z 0.000000 0.000000 2.032440 
# 
# From -- ./inp_files/4161.got.cif
#   From: 2010.05.17/outbox.cif.g08.bks.cpg/sg153_3_cif.got.tgz:4161.got - 2010.05.20 10:38:56.
