data_PCOD9576281
_publ_section_title
;
Structure prediction by ZEFSAII (Michael W. Deem and Ramdas Pophale) SiO2 
 PCOD9576281
Probable space group: P 32 1 2
;
_chemical_formula_sum "Si O2"
_cell_formula_units_Z 33
_cell_length_a 8.247678
_cell_length_b 8.247678
_cell_length_c 27.541476
_cell_angle_alpha 90.000000
_cell_angle_beta 90.000000
_cell_angle_gamma 120.000000
_cell_volume 1622.487043
_symmetry_space_group_name_H-M "P 32 1 2"
_symmetry_group_IT_number 153
_symmetry_cell_setting 'hexagonal'
loop_
_space_group_symop_operation_xyz
x,y,z
-y,x-y,2/3+z
-x+y,-x,1/3+z
-y,-x,1/3-z
-x+y,y,2/3-z
x,x-y,-z
loop_
_atom_site_type_symbol
_atom_site_label
_atom_site_fract_x
_atom_site_fract_y
_atom_site_fract_z
Si Si1 0.097992 0.195983 0.833334
Si Si2 0.188633 0.493431 0.566323
Si Si3 0.313047 0.331555 0.371177
Si Si4 0.223639 0.915214 0.796335
Si Si5 0.579886 0.708498 0.410463
Si Si6 0.053154 0.719739 0.990037
O O1 0.178011 0.078174 0.806384
O O2 0.058257 0.314893 0.793971
O O3 0.390300 0.678454 0.575297
O O4 0.170959 0.364821 0.612004
O O5 0.178295 0.393727 0.515341
O O6 0.048873 0.578230 0.560015
O O7 0.185442 0.370884 0.333334
O O8 0.509044 0.517814 0.380773
O O9 0.216892 0.289702 0.423860
O O10 0.323331 0.153663 0.353989
O O11 0.704981 0.871475 0.372972
O O12 0.056880 0.528440 0.000000
#
# Coordination Sequence:
#
# PCOD9576281 Si02
#       6
#     3   6   6   6   6   6
#     4  12  22  36  58  92 124 152 198 250 298 346
#     4   9  19  40  62  80 113 159 200 238 295 359
#     4  11  21  39  63  85 112 154 199 237 291 360
#     4  10  20  35  59  86 113 151 197 243 289 347
#     4  10  21  38  59  83 119 161 193 235 297 361
#     4  10  21  38  60  87 117 152 197 247 296 351
#
# _framework density 20.339143
#
# number of rings (size 3 to 8) (size 9 to 14) (size 15 to 20)
#    0.000    1.818    0.000    7.091    0.000    0.000 
#    0.000   17.273    0.000    2.182    0.000    0.000 
#    0.000    0.000    0.000    0.000    0.000    0.000 
#
# Total GULP energy -184075.087702 kJ/mol
# GULP energy per Si atom -5578.032961 kJ/mol
# Density = 2.029285 g / cm^3
# Si number density = 20.339143 Si / 1000 Ang^3
#
#
#
# Elastic Constant Matrix: (Units=GPa)
#
#
# Indices 1 2 3 4 5 6 
#
# 1 68.2433 35.1222 40.1675 -0.0006 11.9720 0.0000
# 2 35.1222 68.2433 40.1675 0.0006 -11.9720 0.0000
# 3 40.1675 40.1675 114.1428 0.0000 0.0000 0.0000
# 4 -0.0006 0.0006 0.0000 32.3480 0.0000 -11.9720
# 5 11.9720 -11.9720 0.0000 0.0000 32.3480 -0.0006
# 6 0.0000 0.0000 0.0000 -11.9720 -0.0006 16.5606
#
#
#
# Elastic Compliance Matrix: (Units=1/GPa)
#
#
# Indices 1 2 3 4 5 6 
#
# 1 0.027269 -0.013952 -0.004686 0.000001 -0.015256 0.000000
# 2 -0.013952 0.027269 -0.004686 -0.000001 0.015256 0.000000
# 3 -0.004686 -0.004686 0.012059 0.000000 0.000000 0.000000
# 4 0.000001 -0.000001 0.000000 0.042206 0.000000 0.030512
# 5 -0.015256 0.015256 0.000000 0.000000 0.042206 0.000001
# 6 0.000000 0.000000 0.000000 0.030512 0.000001 0.082442
#
#
# Mechanical properties :
#
#
# Convention : Reuss Voigt Hill
#
# Bulk Modulus (GPa) = 50.13171 53.50487 51.81829
# Shear Modulus (GPa) = 17.43685 25.26280 21.34983
#
# Velocity S-wave (km/s) = 2.93115 3.52814 3.24341
# Velocity P-wave (km/s) = 6.01307 6.55442 6.28957
#
# Compressibility (1/GPa) = 0.01994745
#
# Stress axis : x y z
#
# Youngs Moduli (GPa) = 36.67208 36.67208 82.92496
#
# Poissons Ratio (x) = 0.51166 0.38860
# Poissons Ratio (y) = 0.51166 0.38860
# Poissons Ratio (z) = 0.17185 0.17185
#
# Static dielectric constant tensor:
#      x y z
#    x 1.733490 0.000000 0.000000 
#    y 0.000000 1.733490 0.000000 
#    z 0.000000 0.000000 1.722740 
# 
# From -- ./inp_files/4701.got.cif
#   From: 2010.05.17/outbox.cif.g08.bks.cpg/sg153_3_cif.got.tgz:4701.got - 2010.05.20 10:38:56.
