data_PCOD9576433
_publ_section_title
;
Structure prediction by ZEFSAII (Michael W. Deem and Ramdas Pophale) SiO2 
 PCOD9576433
Probable space group: P 32 2 1
;
_chemical_formula_sum "Si O2"
_cell_formula_units_Z 36
_cell_length_a 9.288480
_cell_length_b 9.288480
_cell_length_c 24.872562
_cell_angle_alpha 90.000000
_cell_angle_beta 90.000000
_cell_angle_gamma 120.000000
_cell_volume 1858.405382
_symmetry_space_group_name_H-M "P 32 2 1"
_symmetry_group_IT_number 154
_symmetry_cell_setting 'hexagonal'
loop_
_space_group_symop_operation_xyz
x,y,z
-y,x-y,2/3+z
-x+y,-x,1/3+z
x-y,-y,1/3-z
-x,-x+y,2/3-z
y,x,-z
loop_
_atom_site_type_symbol
_atom_site_label
_atom_site_fract_x
_atom_site_fract_y
_atom_site_fract_z
Si Si1 0.039883 0.660376 0.950670
Si Si2 0.662426 0.319430 0.437931
Si Si3 0.320340 0.329848 0.745921
Si Si4 0.636997 0.369001 0.558490
Si Si5 0.023164 0.139257 0.394843
Si Si6 0.980756 0.469114 0.271482
O O1 0.895476 0.492747 0.924082
O O2 0.020230 0.809554 0.923633
O O3 0.216802 0.677236 0.939982
O O4 0.004674 0.660164 0.014143
O O5 0.601554 0.346191 0.495194
O O6 0.854806 0.454581 0.426675
O O7 0.655338 0.143167 0.435921
O O8 0.296957 0.478052 0.766083
O O9 0.163438 0.146841 0.758424
O O10 0.618690 0.196583 0.580496
O O11 0.000000 0.078417 0.333334
O O12 0.021999 0.314092 0.395478
O O13 0.000000 0.523753 0.333334
#
# Coordination Sequence:
#
# PCOD9576433 Si02
#       6
#     6   6   6   6   6   6
#     4  10  19  35  56  79 107 144 184 227 281 345
#     4  11  21  34  54  82 112 142 184 237 283 330
#     4  10  19  35  57  80 105 145 189 226 273 343
#     4  11  21  34  54  82 113 143 181 236 290 330
#     4   7  14  29  52  75  98 132 179 219 257 319
#     4   9  17  33  53  74 102 144 187 221 263 335
#
# _framework density 19.371445000000001
#
# number of rings (size 3 to 8) (size 9 to 14) (size 15 to 20)
#    0.000    2.333    0.000    6.500    0.000    0.000 
#    0.000    1.667    0.000    8.000    0.000    0.000 
#    0.000    0.000    0.000    0.000    0.000    0.000 
#
# Total GULP energy -200706.940041 kJ/mol
# GULP energy per Si atom -5575.192779 kJ/mol
# Density = 1.932735 g / cm^3
# Si number density = 19.371445 Si / 1000 Ang^3
#
#
#
# Elastic Constant Matrix: (Units=GPa)
#
#
# Indices 1 2 3 4 5 6 
#
# 1 75.7271 21.3849 -17.3559 0.4152 -0.0001 0.0000
# 2 21.3849 75.7271 -17.3559 -0.4152 0.0001 0.0000
# 3 -17.3559 -17.3559 35.3680 0.0000 0.0000 0.0000
# 4 0.4152 -0.4152 0.0000 20.3672 0.0000 0.0001
# 5 -0.0001 0.0001 0.0000 0.0000 20.3672 0.4152
# 6 0.0000 0.0000 0.0000 0.0001 0.4152 27.1711
#
#
#
# Elastic Compliance Matrix: (Units=1/GPa)
#
#
# Indices 1 2 3 4 5 6 
#
# 1 0.015448 -0.002960 0.006128 -0.000375 0.000000 0.000000
# 2 -0.002960 0.015448 0.006128 0.000375 0.000000 0.000000
# 3 0.006128 0.006128 0.034288 0.000000 0.000000 0.000000
# 4 -0.000375 0.000375 0.000000 0.049114 0.000000 0.000000
# 5 0.000000 0.000000 0.000000 0.000000 0.049114 -0.000751
# 6 0.000000 0.000000 0.000000 0.000000 -0.000751 0.036815
#
#
# Mechanical properties :
#
#
# Convention : Reuss Voigt Hill
#
# Bulk Modulus (GPa) = 11.93656 17.79650 14.86653
# Shear Modulus (GPa) = 23.85949 26.92435 25.39192
#
# Velocity S-wave (km/s) = 3.51334 3.73218 3.62441
# Velocity P-wave (km/s) = 4.75746 5.27059 5.02058
#
# Compressibility (1/GPa) = 0.08377624
#
# Stress axis : x y z
#
# Youngs Moduli (GPa) = 64.73444 64.73444 29.16432
#
# Poissons Ratio (x) = 0.19161 -0.17872
# Poissons Ratio (y) = 0.19161 -0.17872
# Poissons Ratio (z) = -0.39670 -0.39670
#
# Static dielectric constant tensor:
#      x y z
#    x 1.702540 0.000000 0.000000 
#    y 0.000000 1.702540 0.000000 
#    z 0.000000 0.000000 1.714340 
# 
# From -- ./inp_files/3463.got.cif
#   From: 2010.05.17/outbox.cif.g08.bks.cpg/sg154_2_cif.got.tgz:3463.got - 2010.05.20 10:41:43.
