data_PCOD9576866
_publ_section_title
;
Structure prediction by ZEFSAII (Michael W. Deem and Ramdas Pophale) SiO2 
 PCOD9576866
Probable space group: R 3 2
;
_chemical_formula_sum "Si O2"
_cell_formula_units_Z 126
_cell_length_a 20.583932
_cell_length_b 20.583932
_cell_length_c 16.283169
_cell_angle_alpha 90.000000
_cell_angle_beta 90.000000
_cell_angle_gamma 120.000000
_cell_volume 5974.839439
_symmetry_space_group_name_H-M "R 3 2"
_symmetry_group_IT_number 155
_symmetry_cell_setting 'hexagonal'
loop_
_space_group_symop_operation_xyz
x,y,z
-y,x-y,z
-x+y,-x,z
x-y,-y,-z
-x,-x+y,-z
y,x,-z
2/3+x,1/3+y,1/3+z
2/3-y,1/3+x-y,1/3+z
2/3-x+y,1/3-x,1/3+z
2/3+x-y,1/3-y,1/3-z
2/3-x,1/3-x+y,1/3-z
2/3+y,1/3+x,1/3-z
1/3+x,2/3+y,2/3+z
1/3-y,2/3+x-y,2/3+z
1/3-x+y,2/3-x,2/3+z
1/3+x-y,2/3-y,2/3-z
1/3-x,2/3-x+y,2/3-z
1/3+y,2/3+x,2/3-z
loop_
_atom_site_type_symbol
_atom_site_label
_atom_site_fract_x
_atom_site_fract_y
_atom_site_fract_z
Si Si1 0.554304 0.018593 0.905358
Si Si2 0.515411 0.138887 0.252057
Si Si3 0.616615 0.459114 0.700719
Si Si4 0.152414 0.691203 0.492858
Si Si5 0.957456 0.838343 0.639171
Si Si6 0.587168 0.569468 0.805719
Si Si7 0.853874 0.753018 0.189680
O O1 0.609284 0.106713 0.907769
O O2 0.470676 0.001421 0.881578
O O3 0.565376 0.962646 0.846054
O O4 0.557392 0.000000 0.000000
O O5 0.515518 0.182185 0.333334
O O6 0.594097 0.148887 0.221154
O O7 0.476069 0.163972 0.184130
O O8 0.457877 0.049366 0.258471
O O9 0.703931 0.485825 0.694073
O O10 0.575879 0.370281 0.715520
O O11 0.603101 0.506836 0.768672
O O12 0.580298 0.472705 0.618868
O O13 0.185617 0.701559 0.400318
O O14 0.107878 0.603220 0.509647
O O15 0.666667 0.637945 0.833334
O O16 0.797770 0.666667 0.166667
#
# Coordination Sequence:
#
# PCOD9576866 Si02
#       7
#    18  18  18  18  18  18  18
#     4   9  19  38  60  81 121 166 212 255 311 384
#     4  11  23  41  64  95 127 166 222 275 330 388
#     4  11  22  38  63  97 129 169 218 263 328 396
#     4   9  21  41  63  91 120 168 216 261 328 397
#     4  10  19  38  63  89 128 168 213 258 320 394
#     4  11  22  36  58  94 127 164 207 266 323 381
#     4  11  23  43  67  95 129 169 219 273 335 394
#
# _framework density 21.088432999999998
#
# number of rings (size 3 to 8) (size 9 to 14) (size 15 to 20)
#    0.000    1.714    2.857    1.571    0.000    1.714 
#    6.000    0.000    3.143    0.000    0.000    0.000 
#    0.000    0.000    0.000    0.000    0.000    0.000 
#
# Total GULP energy -234415.425857 kJ/mol
# GULP energy per Si atom -5581.319663 kJ/mol
# Density = 2.104044 g / cm^3
# Si number density = 21.088433 Si / 1000 Ang^3
#
#
#
# Elastic Constant Matrix: (Units=GPa)
#
#
# Indices 1 2 3 4 5 6 
#
# 1 71.7844 21.2105 15.6878 2.7046 0.0000 0.0000
# 2 21.2105 71.7844 15.6878 -2.7046 0.0000 0.0000
# 3 15.6878 15.6878 51.4618 0.0000 0.0000 0.0000
# 4 2.7046 -2.7046 0.0000 19.1284 0.0000 0.0000
# 5 0.0000 0.0000 0.0000 0.0000 19.1284 2.7046
# 6 0.0000 0.0000 0.0000 0.0000 2.7046 25.2869
#
#
#
# Elastic Compliance Matrix: (Units=1/GPa)
#
#
# Indices 1 2 3 4 5 6 
#
# 1 0.016031 -0.004045 -0.003654 -0.002839 0.000000 0.000000
# 2 -0.004045 0.016031 -0.003654 0.002839 0.000000 0.000000
# 3 -0.003654 -0.003654 0.021660 0.000000 0.000000 0.000000
# 4 -0.002839 0.002839 0.000000 0.053081 0.000000 0.000000
# 5 0.000000 0.000000 0.000000 0.000000 0.053081 -0.005677
# 6 0.000000 0.000000 0.000000 0.000000 -0.005677 0.040153
#
#
# Mechanical properties :
#
#
# Convention : Reuss Voigt Hill
#
# Bulk Modulus (GPa) = 32.24121 33.35589 32.79855
# Shear Modulus (GPa) = 21.45164 22.20506 21.82835
#
# Velocity S-wave (km/s) = 3.19285 3.24844 3.22077
# Velocity P-wave (km/s) = 5.37719 5.47004 5.42381
#
# Compressibility (1/GPa) = 0.03101621
#
# Stress axis : x y z
#
# Youngs Moduli (GPa) = 62.37770 62.37770 46.16890
#
# Poissons Ratio (x) = 0.25234 0.16870
# Poissons Ratio (y) = 0.25234 0.16870
# Poissons Ratio (z) = 0.22792 0.22792
#
# Static dielectric constant tensor:
#      x y z
#    x 1.773160 0.000000 0.000000 
#    y 0.000000 1.773160 0.000000 
#    z 0.000000 0.000000 1.773980 
# 
# From -- ./inp_files/6258.got.cif
#   From: 2010.05.17/outbox.cif.g08.bks.cpg/sg155_4_cif.got.tgz:6258.got - 2010.05.20 10:44:35.
