data_PCOD9576922
_publ_section_title
;
Structure prediction by ZEFSAII (Michael W. Deem and Ramdas Pophale) SiO2 
 PCOD9576922
Probable space group: R 3 2
;
_chemical_formula_sum "Si O2"
_cell_formula_units_Z 126
_cell_length_a 20.006553
_cell_length_b 20.006553
_cell_length_c 18.984771
_cell_angle_alpha 90.000000
_cell_angle_beta 90.000000
_cell_angle_gamma 120.000000
_cell_volume 6580.827886
_symmetry_space_group_name_H-M "R 3 2"
_symmetry_group_IT_number 155
_symmetry_cell_setting 'hexagonal'
loop_
_space_group_symop_operation_xyz
x,y,z
-y,x-y,z
-x+y,-x,z
x-y,-y,-z
-x,-x+y,-z
y,x,-z
2/3+x,1/3+y,1/3+z
2/3-y,1/3+x-y,1/3+z
2/3-x+y,1/3-x,1/3+z
2/3+x-y,1/3-y,1/3-z
2/3-x,1/3-x+y,1/3-z
2/3+y,1/3+x,1/3-z
1/3+x,2/3+y,2/3+z
1/3-y,2/3+x-y,2/3+z
1/3-x+y,2/3-x,2/3+z
1/3+x-y,2/3-y,2/3-z
1/3-x,2/3-x+y,2/3-z
1/3+y,2/3+x,2/3-z
loop_
_atom_site_type_symbol
_atom_site_label
_atom_site_fract_x
_atom_site_fract_y
_atom_site_fract_z
Si Si1 0.433182 0.009003 0.832869
Si Si2 0.699122 0.147784 0.111446
Si Si3 0.078651 0.530979 0.955271
Si Si4 0.417457 0.833782 0.192225
Si Si5 0.396828 0.272070 0.269954
Si Si6 0.528625 0.145422 0.650907
Si Si7 0.300647 0.090046 0.990068
O O1 0.371010 0.037677 0.833334
O O2 0.515886 0.086759 0.840375
O O3 0.417281 0.950041 0.894166
O O4 0.437658 0.972050 0.759840
O O5 0.614373 0.108981 0.078356
O O6 0.697689 0.140527 0.196349
O O7 0.739278 0.099878 0.082667
O O8 0.749961 0.235397 0.081088
O O9 0.151263 0.527597 0.988484
O O10 0.000000 0.502522 0.000000
O O11 0.333334 0.768093 0.166667
O O12 0.481524 0.814857 0.166667
O O13 0.416183 0.840349 0.276552
O O14 0.420300 0.333334 0.333334
O O15 0.405282 0.201872 0.300805
O O16 0.462037 0.055967 0.652606
O O17 0.257651 0.000000 0.000000
#
# Coordination Sequence:
#
# PCOD9576922 Si02
#       7
#    18  18  18  18  18  18  18
#     4  10  21  36  59  93 124 156 207 266 309 368
#     4  10  24  41  63  93 125 171 205 262 327 378
#     4  12  23  39  64  92 128 166 213 258 323 380
#     4  10  21  37  57  85 124 168 209 243 306 378
#     4  10  21  43  64  89 127 160 216 263 316 385
#     4  10  23  39  59  91 131 157 209 261 310 386
#     4  10  20  37  64  90 117 162 204 259 321 369
#
# _framework density 19.146526999999999
#
# number of rings (size 3 to 8) (size 9 to 14) (size 15 to 20)
#    0.000    1.714    0.000    5.286    6.000    0.000 
#    6.000    0.000    0.000    0.286    0.000    0.000 
#    0.000    0.000    0.000    0.000    0.000    0.000 
#
# Total GULP energy -234474.942478 kJ/mol
# GULP energy per Si atom -5582.736726 kJ/mol
# Density = 1.910295 g / cm^3
# Si number density = 19.146527 Si / 1000 Ang^3
#
#
#
# Elastic Constant Matrix: (Units=GPa)
#
#
# Indices 1 2 3 4 5 6 
#
# 1 101.8391 15.4685 48.4980 23.1776 0.0000 0.0000
# 2 15.4685 101.8391 48.4980 -23.1776 0.0000 0.0000
# 3 48.4980 48.4980 114.0151 0.0000 0.0000 0.0000
# 4 23.1776 -23.1776 0.0000 46.5282 0.0000 0.0000
# 5 0.0000 0.0000 0.0000 0.0000 46.5282 23.1776
# 6 0.0000 0.0000 0.0000 0.0000 23.1776 43.1853
#
#
#
# Elastic Compliance Matrix: (Units=1/GPa)
#
#
# Indices 1 2 3 4 5 6 
#
# 1 0.014476 -0.001327 -0.005593 -0.007872 0.000000 0.000000
# 2 -0.001327 0.014476 -0.005593 0.007872 0.000000 0.000000
# 3 -0.005593 -0.005593 0.013529 0.000000 0.000000 0.000000
# 4 -0.007872 0.007872 0.000000 0.029335 0.000000 0.000000
# 5 0.000000 0.000000 0.000000 0.000000 0.029335 -0.015744
# 6 0.000000 0.000000 0.000000 0.000000 -0.015744 0.031606
#
#
# Mechanical properties :
#
#
# Convention : Reuss Voigt Hill
#
# Bulk Modulus (GPa) = 57.29081 60.29135 58.79108
# Shear Modulus (GPa) = 30.56185 40.93029 35.74607
#
# Velocity S-wave (km/s) = 3.99959 4.62859 4.32554
# Velocity P-wave (km/s) = 7.16354 7.75389 7.46455
#
# Compressibility (1/GPa) = 0.01745481
#
# Stress axis : x y z
#
# Youngs Moduli (GPa) = 69.07895 69.07895 73.91456
#
# Poissons Ratio (x) = 0.09165 0.41343
# Poissons Ratio (y) = 0.09165 0.41343
# Poissons Ratio (z) = 0.38638 0.38638
#
# Static dielectric constant tensor:
#      x y z
#    x 1.640370 0.000000 0.000000 
#    y 0.000000 1.640370 0.000000 
#    z 0.000000 0.000000 1.682830 
# 
# From -- ./inp_files/6291.got.cif
#   From: 2010.05.17/outbox.cif.g08.bks.cpg/sg155_4_cif.got.tgz:6291.got - 2010.05.20 10:44:35.
