data_PCOD9576553
_publ_section_title
;
Structure prediction by ZEFSAII (Michael W. Deem and Ramdas Pophale) SiO2 
 PCOD9576553
Probable space group: P 32 2 1
;
_chemical_formula_sum "Si O2"
_cell_formula_units_Z 36
_cell_length_a 8.470783
_cell_length_b 8.470783
_cell_length_c 26.679299
_cell_angle_alpha 90.000000
_cell_angle_beta 90.000000
_cell_angle_gamma 120.000000
_cell_volume 1657.876436
_symmetry_space_group_name_H-M "P 32 2 1"
_symmetry_group_IT_number 154
_symmetry_cell_setting 'hexagonal'
loop_
_space_group_symop_operation_xyz
x,y,z
-y,x-y,2/3+z
-x+y,-x,1/3+z
x-y,-y,1/3-z
-x,-x+y,2/3-z
y,x,-z
loop_
_atom_site_type_symbol
_atom_site_label
_atom_site_fract_x
_atom_site_fract_y
_atom_site_fract_z
Si Si1 0.504243 0.769206 0.533799
Si Si2 0.138381 0.594060 0.032204
Si Si3 0.417713 0.355257 0.945472
Si Si4 0.165327 0.871275 0.102620
Si Si5 0.753107 0.520394 0.735652
Si Si6 0.028341 0.061117 0.610865
O O1 0.573805 0.840951 0.478051
O O2 0.656609 0.719120 0.552318
O O3 0.312589 0.591286 0.546430
O O4 0.521939 0.931733 0.568463
O O5 0.287923 0.561485 0.059552
O O6 0.170354 0.788179 0.049442
O O7 0.939931 0.433383 0.048595
O O8 0.176910 0.608417 0.973105
O O9 0.443431 0.443431 0.000000
O O10 0.221505 0.167306 0.945913
O O11 0.998335 0.909673 0.097268
O O12 0.905048 0.733166 0.737237
O O13 0.052900 0.000000 0.666667
#
# Coordination Sequence:
#
# PCOD9576553 Si02
#       6
#     6   6   6   6   6   6
#     4  10  21  39  59  83 122 161 201 250 322 382
#     4  11  21  35  60  88 119 155 206 258 308 371
#     4   9  17  33  57  81 110 157 201 235 301 378
#     4  10  21  39  60  85 118 162 198 260 317 377
#     4  11  21  36  60  90 120 158 206 260 311 375
#     4   9  17  34  60  86 113 153 205 249 305 382
#
# _framework density 21.714525999999999
#
# number of rings (size 3 to 8) (size 9 to 14) (size 15 to 20)
#    0.000    2.000    3.333    1.000    0.000    1.333 
#    0.000   15.000    0.000    0.000    0.000    0.000 
#    0.000    0.000    0.000    0.000    0.000    0.000 
#
# Total GULP energy -200802.136813 kJ/mol
# GULP energy per Si atom -5577.837134 kJ/mol
# Density = 2.166510 g / cm^3
# Si number density = 21.714526 Si / 1000 Ang^3
#
#
#
# Elastic Constant Matrix: (Units=GPa)
#
#
# Indices 1 2 3 4 5 6 
#
# 1 62.0128 13.2780 11.8895 -5.2407 0.0000 0.0000
# 2 13.2780 62.0128 11.8895 5.2407 0.0000 0.0000
# 3 11.8895 11.8895 65.8631 0.0000 0.0000 0.0000
# 4 -5.2407 5.2407 0.0000 24.0880 0.0000 0.0000
# 5 0.0000 0.0000 0.0000 0.0000 24.0880 -5.2407
# 6 0.0000 0.0000 0.0000 0.0000 -5.2407 24.3674
#
#
#
# Elastic Compliance Matrix: (Units=1/GPa)
#
#
# Indices 1 2 3 4 5 6 
#
# 1 0.017806 -0.003721 -0.002543 0.004683 0.000000 0.000000
# 2 -0.003721 0.017806 -0.002543 -0.004683 0.000000 0.000000
# 3 -0.002543 -0.002543 0.016101 0.000000 0.000000 0.000000
# 4 0.004683 -0.004683 0.000000 0.043552 0.000000 0.000000
# 5 0.000000 0.000000 0.000000 0.000000 0.043552 0.009367
# 6 0.000000 0.000000 0.000000 0.000000 0.009367 0.043053
#
#
# Mechanical properties :
#
#
# Convention : Reuss Voigt Hill
#
# Bulk Modulus (GPa) = 29.32520 29.33365 29.32943
# Shear Modulus (GPa) = 23.71369 24.69744 24.20557
#
# Velocity S-wave (km/s) = 3.30823 3.37615 3.34236
# Velocity P-wave (km/s) = 5.30346 5.36059 5.33210
#
# Compressibility (1/GPa) = 0.03410036
#
# Stress axis : x y z
#
# Youngs Moduli (GPa) = 56.16194 56.16194 62.10802
#
# Poissons Ratio (x) = 0.20897 0.15791
# Poissons Ratio (y) = 0.20897 0.15791
# Poissons Ratio (z) = 0.14280 0.14280
#
# Static dielectric constant tensor:
#      x y z
#    x 1.797370 0.000000 0.000000 
#    y 0.000000 1.797370 0.000000 
#    z 0.000000 0.000000 1.855880 
# 
# From -- ./inp_files/3444.got.cif
#   From: 2010.05.17/outbox.cif.g08.bks.cpg/sg154_2_cif.got.tgz:3444.got - 2010.05.20 10:41:43.
