data_PCOD9576637
_publ_section_title
;
Structure prediction by ZEFSAII (Michael W. Deem and Ramdas Pophale) SiO2 
 PCOD9576637
Probable space group: P 32 2 1
;
_chemical_formula_sum "Si O2"
_cell_formula_units_Z 42
_cell_length_a 15.586574
_cell_length_b 15.586574
_cell_length_c 11.313791
_cell_angle_alpha 90.000000
_cell_angle_beta 90.000000
_cell_angle_gamma 120.000000
_cell_volume 2380.346140
_symmetry_space_group_name_H-M "P 32 2 1"
_symmetry_group_IT_number 154
_symmetry_cell_setting 'hexagonal'
loop_
_space_group_symop_operation_xyz
x,y,z
-y,x-y,2/3+z
-x+y,-x,1/3+z
x-y,-y,1/3-z
-x,-x+y,2/3-z
y,x,-z
loop_
_atom_site_type_symbol
_atom_site_label
_atom_site_fract_x
_atom_site_fract_y
_atom_site_fract_z
Si Si1 0.975832 0.323357 0.701192
Si Si2 0.290266 0.532027 0.696642
Si Si3 0.486730 0.732999 0.637776
Si Si4 0.518087 0.431287 0.910065
Si Si5 0.931164 0.284139 0.222368
Si Si6 0.546803 0.445087 0.656204
Si Si7 0.610839 0.886968 0.171861
O O1 0.858211 0.270970 0.682982
O O2 0.000000 0.297280 0.833334
O O3 0.022127 0.313844 0.575836
O O4 0.023407 0.442453 0.708453
O O5 0.396157 0.624065 0.664956
O O6 0.279670 0.519971 0.836229
O O7 0.205141 0.556553 0.655751
O O8 0.271041 0.432148 0.632836
O O9 0.475624 0.811818 0.717281
O O10 0.623626 0.534214 0.905176
O O11 0.483013 0.417091 0.775269
O O12 0.450355 0.450355 0.000000
O O13 0.826339 0.184813 0.225380
O O14 0.000000 0.294006 0.333334
O O15 0.483304 0.366677 0.558091
O O16 0.696104 0.000000 0.166667
#
# Coordination Sequence:
#
# PCOD9576637 Si02
#       7
#     6   6   6   6   6   6   6
#     4  11  20  40  56  80 113 157 194 234 289 352
#     4  12  21  37  54  87 116 154 204 228 286 356
#     4  12  24  33  60  80 117 160 196 237 286 346
#     4  10  23  38  54  81 116 156 191 237 282 343
#     4  10  23  41  59  83 119 154 196 239 300 355
#     4  11  21  39  54  79 122 147 196 234 284 344
#     4  12  23  37  61  88 115 151 199 254 289 345
#
# _framework density 17.644493000000001
#
# number of rings (size 3 to 8) (size 9 to 14) (size 15 to 20)
#    0.000    0.857    5.714    3.000   10.000    0.000 
#    0.000    0.000    0.000    0.000    0.000    4.000 
#    0.000    0.000    0.000    0.000    0.000    0.000 
#
# Total GULP energy -234420.959302 kJ/mol
# GULP energy per Si atom -5581.451412 kJ/mol
# Density = 1.760433 g / cm^3
# Si number density = 17.644493 Si / 1000 Ang^3
#
#
#
# Elastic Constant Matrix: (Units=GPa)
#
#
# Indices 1 2 3 4 5 6 
#
# 1 53.9839 10.4334 -1.0552 2.6517 0.0000 0.0000
# 2 10.4334 53.9839 -1.0552 -2.6517 0.0000 0.0000
# 3 -1.0552 -1.0552 50.2170 0.0000 0.0000 0.0000
# 4 2.6517 -2.6517 0.0000 16.6331 0.0000 0.0000
# 5 0.0000 0.0000 0.0000 0.0000 16.6331 2.6517
# 6 0.0000 0.0000 0.0000 0.0000 2.6517 21.7752
#
#
#
# Elastic Compliance Matrix: (Units=1/GPa)
#
#
# Indices 1 2 3 4 5 6 
#
# 1 0.019475 -0.003941 0.000326 -0.003733 0.000000 0.000000
# 2 -0.003941 0.019475 0.000326 0.003733 0.000000 0.000000
# 3 0.000326 0.000326 0.019927 0.000000 0.000000 0.000000
# 4 -0.003733 0.003733 0.000000 0.061311 0.000000 0.000000
# 5 0.000000 0.000000 0.000000 0.000000 0.061311 -0.007466
# 6 0.000000 0.000000 0.000000 0.000000 -0.007466 0.046833
#
#
# Mechanical properties :
#
#
# Convention : Reuss Voigt Hill
#
# Bulk Modulus (GPa) = 19.11975 19.42564 19.27269
# Shear Modulus (GPa) = 19.81421 20.99907 20.40664
#
# Velocity S-wave (km/s) = 3.35471 3.45355 3.40449
# Velocity P-wave (km/s) = 5.08577 5.19000 5.13815
#
# Compressibility (1/GPa) = 0.05230195
#
# Stress axis : x y z
#
# Youngs Moduli (GPa) = 51.34665 51.34665 50.18242
#
# Poissons Ratio (x) = 0.20236 -0.01638
# Poissons Ratio (y) = 0.20236 -0.01638
# Poissons Ratio (z) = -0.01676 -0.01676
#
# Static dielectric constant tensor:
#      x y z
#    x 1.608250 0.000000 0.000000 
#    y 0.000000 1.608250 0.000000 
#    z 0.000000 0.000000 1.760520 
# 
# From -- ./inp_files/1731.got.cif
#   From: 2010.05.17/outbox.cif.g08.bks.cpg/sg154_1_cif.got.tgz:1731.got - 2010.05.20 10:41:43.
