data_PCOD9576412
_publ_section_title
;
Structure prediction by ZEFSAII (Michael W. Deem and Ramdas Pophale) SiO2 
 PCOD9576412
Probable space group: P 32 2 1
;
_chemical_formula_sum "Si O2"
_cell_formula_units_Z 30
_cell_length_a 18.890183
_cell_length_b 18.890183
_cell_length_c 4.987640
_cell_angle_alpha 90.000000
_cell_angle_beta 90.000000
_cell_angle_gamma 120.000000
_cell_volume 1541.338624
_symmetry_space_group_name_H-M "P 32 2 1"
_symmetry_group_IT_number 154
_symmetry_cell_setting 'hexagonal'
loop_
_space_group_symop_operation_xyz
x,y,z
-y,x-y,2/3+z
-x+y,-x,1/3+z
x-y,-y,1/3-z
-x,-x+y,2/3-z
y,x,-z
loop_
_atom_site_type_symbol
_atom_site_label
_atom_site_fract_x
_atom_site_fract_y
_atom_site_fract_z
Si Si1 0.152433 0.058498 0.917705
Si Si2 0.341729 0.177428 0.844975
Si Si3 0.285305 0.768024 0.377099
Si Si4 0.343600 0.540642 0.550481
Si Si5 0.085339 0.719749 0.974907
O O1 0.249653 0.105889 0.876323
O O2 0.104133 0.000000 0.666667
O O3 0.121180 0.121180 0.000000
O O4 0.132413 0.000000 0.166667
O O5 0.421559 0.169640 0.902929
O O6 0.351095 0.203359 0.535864
O O7 0.353157 0.250786 0.050069
O O8 0.381085 0.804093 0.334609
O O9 0.242165 0.694638 0.599630
O O10 0.250092 0.727067 0.093370
O O11 0.348901 0.458444 0.571446
O O12 0.000000 0.694030 0.833334
#
# Coordination Sequence:
#
# PCOD9576412 Si02
#       5
#     6   6   6   6   6
#     4  12  24  40  61  85 111 142 181 231 284 337
#     4  10  22  37  57  80 110 144 179 223 275 334
#     4  10  19  33  52  81 110 143 183 220 267 315
#     4  10  19  30  52  77 107 140 177 224 262 308
#     4  10  19  34  54  79 105 139 182 222 267 320
#
# _framework density 19.463601000000001
#
# number of rings (size 3 to 8) (size 9 to 14) (size 15 to 20)
#    0.000    1.600    0.000    6.600    0.000    0.000 
#    0.000    1.000    0.000    4.800    0.000    0.000 
#    0.000    0.000    0.000    0.000    0.000    0.000 
#
# Total GULP energy -167137.935292 kJ/mol
# GULP energy per Si atom -5571.264510 kJ/mol
# Density = 1.941930 g / cm^3
# Si number density = 19.463601 Si / 1000 Ang^3
#
#
#
# Elastic Constant Matrix: (Units=GPa)
#
#
# Indices 1 2 3 4 5 6 
#
# 1 73.2282 33.4458 6.2975 -4.9450 0.0000 0.0000
# 2 33.4458 73.2282 6.2975 4.9450 0.0000 0.0000
# 3 6.2975 6.2975 96.0071 0.0000 0.0000 0.0000
# 4 -4.9450 4.9450 0.0000 19.5213 0.0000 0.0000
# 5 0.0000 0.0000 0.0000 0.0000 19.5213 -4.9450
# 6 0.0000 0.0000 0.0000 0.0000 -4.9450 19.8912
#
#
#
# Elastic Compliance Matrix: (Units=1/GPa)
#
#
# Indices 1 2 3 4 5 6 
#
# 1 0.018137 -0.008689 -0.000620 0.006795 0.000000 0.000000
# 2 -0.008689 0.018137 -0.000620 -0.006795 0.000000 0.000000
# 3 -0.000620 -0.000620 0.010497 0.000000 0.000000 0.000000
# 4 0.006795 -0.006795 0.000000 0.054669 0.000000 0.000000
# 5 0.000000 0.000000 0.000000 0.000000 0.054669 0.013591
# 6 0.000000 0.000000 0.000000 0.000000 0.013591 0.053652
#
#
# Mechanical properties :
#
#
# Convention : Reuss Voigt Hill
#
# Bulk Modulus (GPa) = 37.15616 37.17168 37.16392
# Shear Modulus (GPa) = 20.95656 24.88162 22.91909
#
# Velocity S-wave (km/s) = 3.28488 3.57930 3.43525
# Velocity P-wave (km/s) = 5.78954 6.01842 5.90509
#
# Compressibility (1/GPa) = 0.02691343
#
# Stress axis : x y z
#
# Youngs Moduli (GPa) = 55.13654 55.13654 95.26360
#
# Poissons Ratio (x) = 0.47910 0.05903
# Poissons Ratio (y) = 0.47910 0.05903
# Poissons Ratio (z) = 0.03417 0.03417
#
# Static dielectric constant tensor:
#      x y z
#    x 1.766420 0.000000 0.000000 
#    y 0.000000 1.766420 0.000000 
#    z 0.000000 0.000000 1.655850 
# 
# From -- ./inp_files/335.got.cif
#   From: 2010.05.17/outbox.cif.g08.bks.cpg/sg154_1_cif.got.tgz:335.got - 2010.05.20 10:41:43.
