data_PCOD9576666
_publ_section_title
;
Structure prediction by ZEFSAII (Michael W. Deem and Ramdas Pophale) SiO2 
 PCOD9576666
Probable space group: P 32 2 1
;
_chemical_formula_sum "Si O2"
_cell_formula_units_Z 27
_cell_length_a 7.400477
_cell_length_b 7.400477
_cell_length_c 20.670711
_cell_angle_alpha 90.000000
_cell_angle_beta 90.000000
_cell_angle_gamma 120.000000
_cell_volume 980.404900
_symmetry_space_group_name_H-M "P 32 2 1"
_symmetry_group_IT_number 154
_symmetry_cell_setting 'hexagonal'
loop_
_space_group_symop_operation_xyz
x,y,z
-y,x-y,2/3+z
-x+y,-x,1/3+z
x-y,-y,1/3-z
-x,-x+y,2/3-z
y,x,-z
loop_
_atom_site_type_symbol
_atom_site_label
_atom_site_fract_x
_atom_site_fract_y
_atom_site_fract_z
Si Si1 0.419671 0.535160 0.673887
Si Si2 0.225315 0.427470 0.230288
Si Si3 0.810414 0.970537 0.090313
Si Si4 0.199583 0.199583 0.000000
Si Si5 0.238757 0.776140 0.139877
O O1 0.508030 0.405863 0.716036
O O2 0.262524 0.524414 0.731121
O O3 0.395305 0.643307 0.850095
O O4 0.584403 0.778421 0.658618
O O5 0.992649 0.277052 0.255488
O O6 0.274106 0.271912 0.189099
O O7 0.692822 0.066844 0.050671
O O8 0.802524 0.000000 0.166667
O O9 0.043173 0.084156 0.059807
O O10 0.391450 0.000000 0.166667
#
# Coordination Sequence:
#
# PCOD9576666 Si02
#       5
#     6   6   6   3   6
#     4  10  26  50  89 140 191 260 325 397 496 585
#     4  10  23  52  88 135 184 250 311 393 495 583
#     4  12  25  53  98 133 199 259 324 409 492 580
#     4  12  24  56  88 136 198 256 330 410 484 592
#     4  10  23  50  90 137 184 242 310 401 490 584
#
# _framework density 27.539645
#
# number of rings (size 3 to 8) (size 9 to 14) (size 15 to 20)
#    1.333    0.000    2.222    2.000    0.000    2.667 
#   12.000    4.444   19.556    1.333    0.000    0.000 
#    0.000    0.000    0.000    0.000    0.000    0.000 
#
# Total GULP energy -151380.648625 kJ/mol
# GULP energy per Si atom -5606.690690 kJ/mol
# Density = 2.747696 g / cm^3
# Si number density = 27.539645 Si / 1000 Ang^3
#
#
#
# Elastic Constant Matrix: (Units=GPa)
#
#
# Indices 1 2 3 4 5 6 
#
# 1 213.5649 96.3153 107.0076 -14.2612 -0.0002 0.0000
# 2 96.3153 213.5649 107.0076 14.2612 0.0002 0.0000
# 3 107.0076 107.0076 260.0463 0.0000 0.0000 0.0000
# 4 -14.2612 14.2612 0.0000 47.3375 0.0000 0.0002
# 5 -0.0002 0.0002 0.0000 0.0000 47.3375 -14.2612
# 6 0.0000 0.0000 0.0000 0.0002 -14.2612 58.6248
#
#
#
# Elastic Compliance Matrix: (Units=1/GPa)
#
#
# Indices 1 2 3 4 5 6 
#
# 1 0.006856 -0.002348 -0.001855 0.002773 0.000000 0.000000
# 2 -0.002348 0.006856 -0.001855 -0.002773 0.000000 0.000000
# 3 -0.001855 -0.001855 0.005372 0.000000 0.000000 0.000000
# 4 0.002773 -0.002773 0.000000 0.022795 0.000000 0.000000
# 5 0.000000 0.000000 0.000000 0.000000 0.022795 0.005545
# 6 0.000000 0.000000 0.000000 0.000000 0.005545 0.018407
#
#
# Mechanical properties :
#
#
# Convention : Reuss Voigt Hill
#
# Bulk Modulus (GPa) = 143.50797 145.31522 144.41160
# Shear Modulus (GPa) = 51.27174 55.78301 53.52738
#
# Velocity S-wave (km/s) = 4.31947 4.50550 4.41347
# Velocity P-wave (km/s) = 8.78065 8.94127 8.86133
#
# Compressibility (1/GPa) = 0.00696825
#
# Stress axis : x y z
#
# Youngs Moduli (GPa) = 145.86224 145.86224 186.14274
#
# Poissons Ratio (x) = 0.34241 0.34532
# Poissons Ratio (y) = 0.34241 0.34532
# Poissons Ratio (z) = 0.27059 0.27059
#
# Static dielectric constant tensor:
#      x y z
#    x 2.234930 0.000000 0.000000 
#    y 0.000000 2.234930 0.000000 
#    z 0.000000 0.000000 2.124910 
# 
# From -- ./inp_files/2978.got.cif
#   From: 2010.05.17/outbox.cif.g08.bks.cpg/sg154_2_cif.got.tgz:2978.got - 2010.05.20 10:41:43.
