data_PCOD9576021
_publ_section_title
;
Structure prediction by ZEFSAII (Michael W. Deem and Ramdas Pophale) SiO2 
 PCOD9576021
Probable space group: P 31 2 1
;
_chemical_formula_sum "Si O2"
_cell_formula_units_Z 30
_cell_length_a 14.637005
_cell_length_b 14.637005
_cell_length_c 7.882378
_cell_angle_alpha 90.000000
_cell_angle_beta 90.000000
_cell_angle_gamma 120.000000
_cell_volume 1462.488069
_symmetry_space_group_name_H-M "P 31 2 1"
_symmetry_group_IT_number 152
_symmetry_cell_setting 'hexagonal'
loop_
_space_group_symop_operation_xyz
x,y,z
-y,x-y,1/3+z
-x+y,-x,2/3+z
x-y,-y,2/3-z
-x,-x+y,1/3-z
y,x,-z
loop_
_atom_site_type_symbol
_atom_site_label
_atom_site_fract_x
_atom_site_fract_y
_atom_site_fract_z
Si Si1 0.141424 0.933238 0.501849
Si Si2 0.198834 0.131332 0.672255
Si Si3 0.343334 0.410066 0.253038
Si Si4 0.848556 0.571730 0.791752
Si Si5 0.633720 0.380700 0.678687
O O1 0.158271 0.834910 0.520633
O O2 0.015118 0.877142 0.478476
O O3 0.197293 0.000000 0.333334
O O4 0.187742 0.018601 0.649147
O O5 0.152468 0.152468 0.500000
O O6 0.317460 0.228242 0.686736
O O7 0.418461 0.357491 0.255935
O O8 0.382007 0.524145 0.332732
O O9 0.324365 0.427369 0.057651
O O10 0.729756 0.477331 0.779786
O O11 0.672316 0.382665 0.483667
#
# Coordination Sequence:
#
# PCOD9576021 Si02
#       5
#     6   6   6   6   6
#     4   9  18  34  49  81 113 150 193 235 291 360
#     4   9  18  34  51  79 116 153 191 236 296 355
#     4   9  19  38  59  80 117 154 188 245 305 348
#     4   9  19  39  58  83 114 156 193 242 300 357
#     4  10  22  41  64  90 116 154 205 247 301 360
#
# _framework density 20.512986999999999
#
# number of rings (size 3 to 8) (size 9 to 14) (size 15 to 20)
#    0.000    2.800    0.000    0.000    0.000    5.600 
#   50.400    0.000    0.000    0.000    0.000    0.000 
#    0.000    0.000    0.000    0.000    0.000    0.000 
#
# Total GULP energy -167053.599476 kJ/mol
# GULP energy per Si atom -5568.453316 kJ/mol
# Density = 2.046630 g / cm^3
# Si number density = 20.512987 Si / 1000 Ang^3
#
#
#
# Elastic Constant Matrix: (Units=GPa)
#
#
# Indices 1 2 3 4 5 6 
#
# 1 77.8217 56.5063 -0.7696 3.0972 -0.0006 0.0000
# 2 56.5063 77.8217 -0.7696 -3.0972 0.0006 0.0000
# 3 -0.7696 -0.7696 59.7101 0.0000 0.0000 0.0000
# 4 3.0972 -3.0972 0.0000 -7.7838 0.0000 0.0006
# 5 -0.0006 0.0006 0.0000 0.0000 -7.7838 3.0972
# 6 0.0000 0.0000 0.0000 0.0006 3.0972 10.6577
#
#
#
# Elastic Compliance Matrix: (Units=1/GPa)
#
#
# Indices 1 2 3 4 5 6 
#
# 1 0.024749 -0.017303 0.000096 0.016733 -0.000003 0.000000
# 2 -0.017303 0.024749 0.000096 -0.016733 0.000003 0.000000
# 3 0.000096 0.000096 0.016750 0.000000 0.000000 0.000000
# 4 0.016733 -0.016733 0.000000 -0.115156 0.000000 0.000007
# 5 -0.000003 0.000003 0.000000 0.000000 -0.115156 0.033465
# 6 0.000000 0.000000 0.000000 0.000007 0.033465 0.084104
#
#
# Mechanical properties :
#
#
# Convention : Reuss Voigt Hill
#
# Bulk Modulus (GPa) = 31.22557 36.14310 33.68433
# Shear Modulus (GPa) = -142.60108 9.71044 -66.44532
#
# Velocity S-wave (km/s) = -8.34676 2.17809 -5.69756
# Velocity P-wave (km/s) = 8.81112 4.89728 5.17941
#
# Compressibility (1/GPa) = 0.03202504
#
# Stress axis : x y z
#
# Youngs Moduli (GPa) = 40.40623 40.40623 59.70129
#
# Poissons Ratio (x) = 0.69915 -0.00573
# Poissons Ratio (y) = 0.69915 -0.00573
# Poissons Ratio (z) = -0.00388 -0.00388
#
# Static dielectric constant tensor:
#      x y z
#    x 1.749130 0.000000 0.000000 
#    y 0.000000 1.749130 0.000000 
#    z 0.000000 0.000000 1.832150 
# 
# From -- ./inp_files/1006.got.cif
#   From: 2010.05.17/outbox.cif.g08.bks.cpg/sg152_1_cif.got.tgz:1006.got - 2010.05.20 10:36:06.
