data_PCOD9576659
_publ_section_title
;
Structure prediction by ZEFSAII (Michael W. Deem and Ramdas Pophale) SiO2 
 PCOD9576659
Probable space group: P 32 2 1
;
_chemical_formula_sum "Si O2"
_cell_formula_units_Z 45
_cell_length_a 12.077652
_cell_length_b 12.077652
_cell_length_c 16.551956
_cell_angle_alpha 90.000000
_cell_angle_beta 90.000000
_cell_angle_gamma 120.000000
_cell_volume 2090.956407
_symmetry_space_group_name_H-M "P 32 2 1"
_symmetry_group_IT_number 154
_symmetry_cell_setting 'hexagonal'
loop_
_space_group_symop_operation_xyz
x,y,z
-y,x-y,2/3+z
-x+y,-x,1/3+z
x-y,-y,1/3-z
-x,-x+y,2/3-z
y,x,-z
loop_
_atom_site_type_symbol
_atom_site_label
_atom_site_fract_x
_atom_site_fract_y
_atom_site_fract_z
Si Si1 0.286183 0.104916 0.738774
Si Si2 0.748758 0.876232 0.408552
Si Si3 0.637940 0.563371 0.860331
Si Si4 0.465232 0.934492 0.252467
Si Si5 0.485961 0.305735 0.633868
Si Si6 0.508921 0.720092 0.296171
Si Si7 0.143473 0.330052 0.924746
Si Si8 0.579313 0.000000 0.666667
O O1 0.198081 0.168358 0.749209
O O2 0.425161 0.217491 0.711507
O O3 0.225415 0.000000 0.666667
O O4 0.315928 0.030091 0.807421
O O5 0.643114 0.816336 0.337862
O O6 0.671801 0.827483 0.493719
O O7 0.839689 0.814078 0.394852
O O8 0.757077 0.553798 0.896741
O O9 0.624253 0.515617 0.768960
O O10 0.521999 0.483958 0.924651
O O11 0.454619 0.799089 0.250884
O O12 0.333397 0.915841 0.285456
O O13 0.483513 0.000000 0.166667
O O14 0.597919 0.029903 0.295322
O O15 0.635874 0.402923 0.637800
O O16 0.280800 0.387515 0.967063
#
# Coordination Sequence:
#
# PCOD9576659 Si02
#       8
#     6   6   6   6   6   6   6   3
#     4  10  23  45  69  93 145 182 228 296 342 406
#     4  11  24  47  66 103 138 186 239 289 352 424
#     4  11  25  46  68 104 141 185 236 298 354 420
#     4  12  21  41  68  96 137 178 228 290 345 406
#     4  11  21  44  65 100 137 173 231 288 346 404
#     4  12  25  39  75 104 132 183 243 287 350 434
#     4  11  26  47  67 100 150 185 232 298 356 430
#     4  12  26  48  72 100 148 192 226 292 382 424
#
# _framework density 21.521253000000002
#
# number of rings (size 3 to 8) (size 9 to 14) (size 15 to 20)
#    0.000    0.800    7.333    0.800    2.800    1.067 
#    2.400    0.000    0.000    0.000    0.000    0.000 
#    0.000    0.000    0.000    0.000    0.000    0.000 
#
# Total GULP energy -250786.421581 kJ/mol
# GULP energy per Si atom -5573.031591 kJ/mol
# Density = 2.147227 g / cm^3
# Si number density = 21.521253 Si / 1000 Ang^3
#
#
#
# Elastic Constant Matrix: (Units=GPa)
#
#
# Indices 1 2 3 4 5 6 
#
# 1 99.5743 32.7235 18.0293 5.6358 0.0002 0.0000
# 2 32.7235 99.5743 18.0293 -5.6358 -0.0002 0.0000
# 3 18.0293 18.0293 45.8328 0.0000 0.0000 0.0000
# 4 5.6358 -5.6358 0.0000 5.5370 0.0000 -0.0002
# 5 0.0002 -0.0002 0.0000 0.0000 5.5370 5.6358
# 6 0.0000 0.0000 0.0000 -0.0002 5.6358 33.4254
#
#
#
# Elastic Compliance Matrix: (Units=1/GPa)
#
#
# Indices 1 2 3 4 5 6 
#
# 1 0.013262 -0.004796 -0.003330 -0.018380 -0.000001 0.000000
# 2 -0.004796 0.013262 -0.003330 0.018380 0.000001 0.000000
# 3 -0.003330 -0.003330 0.024439 0.000000 0.000000 0.000000
# 4 -0.018380 0.018380 0.000000 0.218017 0.000000 0.000001
# 5 -0.000001 0.000001 0.000000 0.000000 0.218017 -0.036760
# 6 0.000000 0.000000 0.000000 0.000001 -0.036760 0.036115
#
#
# Mechanical properties :
#
#
# Convention : Reuss Voigt Hill
#
# Bulk Modulus (GPa) = 35.65096 42.50505 39.07801
# Shear Modulus (GPa) = 9.00291 20.64652 14.82472
#
# Velocity S-wave (km/s) = 2.04752 3.10071 2.62742
# Velocity P-wave (km/s) = 4.71076 5.71072 5.23467
#
# Compressibility (1/GPa) = 0.02804973
#
# Stress axis : x y z
#
# Youngs Moduli (GPa) = 75.40307 75.40307 40.91879
#
# Poissons Ratio (x) = 0.36160 0.13628
# Poissons Ratio (y) = 0.36160 0.13628
# Poissons Ratio (z) = 0.25113 0.25113
#
# Static dielectric constant tensor:
#      x y z
#    x 1.814760 0.000000 0.000000 
#    y 0.000000 1.814760 0.000000 
#    z 0.000000 0.000000 1.810180 
# 
# From -- ./inp_files/2504.got.cif
#   From: 2010.05.17/outbox.cif.g08.bks.cpg/sg154_2_cif.got.tgz:2504.got - 2010.05.20 10:41:43.
