data_PCOD9576792
_publ_section_title
;
Structure prediction by ZEFSAII (Michael W. Deem and Ramdas Pophale) SiO2 
 PCOD9576792
Probable space group: R 3 2
;
_chemical_formula_sum "Si O2"
_cell_formula_units_Z 63
_cell_length_a 20.782554
_cell_length_b 20.782554
_cell_length_c 8.760625
_cell_angle_alpha 90.000000
_cell_angle_beta 90.000000
_cell_angle_gamma 120.000000
_cell_volume 3276.902786
_symmetry_space_group_name_H-M "R 3 2"
_symmetry_group_IT_number 155
_symmetry_cell_setting 'hexagonal'
loop_
_space_group_symop_operation_xyz
x,y,z
-y,x-y,z
-x+y,-x,z
x-y,-y,-z
-x,-x+y,-z
y,x,-z
2/3+x,1/3+y,1/3+z
2/3-y,1/3+x-y,1/3+z
2/3-x+y,1/3-x,1/3+z
2/3+x-y,1/3-y,1/3-z
2/3-x,1/3-x+y,1/3-z
2/3+y,1/3+x,1/3-z
1/3+x,2/3+y,2/3+z
1/3-y,2/3+x-y,2/3+z
1/3-x+y,2/3-x,2/3+z
1/3+x-y,2/3-y,2/3-z
1/3-x,2/3-x+y,2/3-z
1/3+y,2/3+x,2/3-z
loop_
_atom_site_type_symbol
_atom_site_label
_atom_site_fract_x
_atom_site_fract_y
_atom_site_fract_z
Si Si1 0.979961 0.459121 0.153670
Si Si2 0.254912 0.046097 0.257855
Si Si3 0.877596 0.471824 0.406627
Si Si4 0.666667 0.963122 0.833334
O O1 0.930183 0.373941 0.098099
O O2 0.931029 0.475723 0.269078
O O3 0.051900 0.468281 0.243335
O O4 0.000000 0.506328 0.000000
O O5 0.333334 0.085988 0.166667
O O6 0.201007 0.070855 0.177619
O O7 0.808996 0.475662 0.333334
O O8 0.927409 0.547595 0.500335
O O9 0.662624 0.995957 0.666667
#
# Coordination Sequence:
#
# PCOD9576792 Si02
#       4
#    18  18  18   9
#     4  11  20  33  57  84 113 146 185 236 297 352
#     4  10  18  33  52  81 111 144 182 232 286 348
#     4  10  20  35  49  75 113 147 187 229 284 344
#     4  10  20  36  54  74 108 156 202 236 282 336
#
# _framework density 19.225472
#
# number of rings (size 3 to 8) (size 9 to 14) (size 15 to 20)
#    0.000    1.714    4.286    6.000    0.000    4.571 
#    0.000    0.000    0.000    4.571    0.000    0.000 
#    0.000    0.000    0.000    0.000    0.000    0.000 
#
# Total GULP energy -117073.408801 kJ/mol
# GULP energy per Si atom -5574.924229 kJ/mol
# Density = 1.918171 g / cm^3
# Si number density = 19.225472 Si / 1000 Ang^3
#
#
#
# Elastic Constant Matrix: (Units=GPa)
#
#
# Indices 1 2 3 4 5 6 
#
# 1 66.3193 8.3350 20.2115 -8.0796 0.0000 0.0000
# 2 8.3350 66.3195 20.2116 8.0796 -0.0003 0.0000
# 3 20.2115 20.2116 128.2410 -0.0003 -0.0004 -0.0001
# 4 -8.0796 8.0796 -0.0003 19.9027 -0.0002 -0.0002
# 5 0.0000 -0.0003 -0.0004 -0.0002 19.9025 -8.0796
# 6 0.0000 0.0000 -0.0001 -0.0002 -8.0796 28.9922
#
#
#
# Elastic Compliance Matrix: (Units=1/GPa)
#
#
# Indices 1 2 3 4 5 6 
#
# 1 0.017045 -0.002401 -0.002308 0.007894 0.000000 0.000000
# 2 -0.002401 0.017045 -0.002308 -0.007894 0.000000 0.000000
# 3 -0.002308 -0.002308 0.008525 0.000000 0.000000 0.000000
# 4 0.007894 -0.007894 0.000000 0.056654 0.000001 0.000001
# 5 0.000000 0.000000 0.000000 0.000001 0.056655 0.015789
# 6 0.000000 0.000000 0.000000 0.000001 0.015789 0.038892
#
#
# Mechanical properties :
#
#
# Convention : Reuss Voigt Hill
#
# Bulk Modulus (GPa) = 34.98633 39.82176 37.40405
# Shear Modulus (GPa) = 22.89608 27.90091 25.39849
#
# Velocity S-wave (km/s) = 3.45472 3.81366 3.63862
# Velocity P-wave (km/s) = 5.84387 6.33640 6.09511
#
# Compressibility (1/GPa) = 0.02858259
#
# Stress axis : x y z
#
# Youngs Moduli (GPa) = 58.66670 58.66682 117.29700
#
# Poissons Ratio (x) = 0.14083 0.27073
# Poissons Ratio (y) = 0.14083 0.27074
# Poissons Ratio (z) = 0.13541 0.13541
#
# Static dielectric constant tensor:
#      x y z
#    x 1.684660 0.000000 0.000000 
#    y 0.000000 1.684660 0.000000 
#    z 0.000000 0.000000 1.758180 
# 
# From -- ./inp_files/1972.got.cif
#   From: 2010.05.17/outbox.cif.g08.bks.cpg/sg155_1_cif.got.tgz:1972.got - 2010.05.20 10:44:35.
