data_PCOD9576104
_publ_section_title
;
Structure prediction by ZEFSAII (Michael W. Deem and Ramdas Pophale) SiO2 
 PCOD9576104
Probable space group: P 31 2 1
;
_chemical_formula_sum "Si O2"
_cell_formula_units_Z 24
_cell_length_a 15.027086
_cell_length_b 15.027086
_cell_length_c 5.183537
_cell_angle_alpha 90.000000
_cell_angle_beta 90.000000
_cell_angle_gamma 120.000000
_cell_volume 1013.692839
_symmetry_space_group_name_H-M "P 31 2 1"
_symmetry_group_IT_number 152
_symmetry_cell_setting 'hexagonal'
loop_
_space_group_symop_operation_xyz
x,y,z
-y,x-y,1/3+z
-x+y,-x,2/3+z
x-y,-y,2/3-z
-x,-x+y,1/3-z
y,x,-z
loop_
_atom_site_type_symbol
_atom_site_label
_atom_site_fract_x
_atom_site_fract_y
_atom_site_fract_z
Si Si1 0.932994 0.813562 0.417660
Si Si2 0.068677 0.545602 0.423356
Si Si3 0.730708 0.447894 0.757357
Si Si4 0.115408 0.383831 0.266731
O O1 0.875905 0.875905 0.500000
O O2 0.847904 0.698177 0.332571
O O3 0.000000 0.817968 0.666667
O O4 0.000000 0.865808 0.166667
O O5 0.171202 0.655456 0.391390
O O6 0.106566 0.461819 0.463714
O O7 0.000000 0.538993 0.666667
O O8 0.000000 0.513688 0.166667
O O9 0.747295 0.377978 0.547539
O O10 0.731516 0.542333 0.621236
O O11 0.000000 0.315073 0.166667
#
# Coordination Sequence:
#
# PCOD9576104 Si02
#       4
#     6   6   6   6
#     4  11  24  44  72 105 142 184 235 294 360 435
#     4  11  25  46  72 105 146 191 242 300 367 437
#     4  12  24  45  73 107 145 192 251 304 368 437
#     4  10  24  47  70 102 143 192 236 297 366 437
#
# _framework density 23.675809000000001
#
# number of rings (size 3 to 8) (size 9 to 14) (size 15 to 20)
#    0.000    1.000    2.500    4.500    0.000    9.000 
#    0.000    6.250    0.000    1.500    0.000    0.000 
#    0.000    0.000    0.000    0.000    0.000    0.000 
#
# Total GULP energy -134351.856194 kJ/mol
# GULP energy per Si atom -5597.994008 kJ/mol
# Density = 2.362192 g / cm^3
# Si number density = 23.675809 Si / 1000 Ang^3
#
#
#
# Elastic Constant Matrix: (Units=GPa)
#
#
# Indices 1 2 3 4 5 6 
#
# 1 112.2373 52.4987 37.8290 -6.7455 0.0001 0.0000
# 2 52.4987 112.2373 37.8290 6.7455 -0.0001 0.0000
# 3 37.8290 37.8290 107.4925 0.0000 0.0000 0.0000
# 4 -6.7455 6.7455 0.0000 34.7145 0.0000 -0.0001
# 5 0.0001 -0.0001 0.0000 0.0000 34.7145 -6.7455
# 6 0.0000 0.0000 0.0000 -0.0001 -6.7455 29.8693
#
#
#
# Elastic Compliance Matrix: (Units=1/GPa)
#
#
# Indices 1 2 3 4 5 6 
#
# 1 0.012374 -0.005134 -0.002548 0.003402 0.000000 0.000000
# 2 -0.005134 0.012374 -0.002548 -0.003402 0.000000 0.000000
# 3 -0.002548 -0.002548 0.011096 0.000000 0.000000 0.000000
# 4 0.003402 -0.003402 0.000000 0.030129 0.000000 0.000000
# 5 0.000000 0.000000 0.000000 0.000000 0.030129 0.006804
# 6 0.000000 0.000000 0.000000 0.000000 0.006804 0.035016
#
#
# Mechanical properties :
#
#
# Convention : Reuss Voigt Hill
#
# Bulk Modulus (GPa) = 64.99778 65.36450 65.18114
# Shear Modulus (GPa) = 31.90691 33.44703 32.67697
#
# Velocity S-wave (km/s) = 3.67503 3.76268 3.71911
# Velocity P-wave (km/s) = 6.74690 6.82240 6.78475
#
# Compressibility (1/GPa) = 0.01538514
#
# Stress axis : x y z
#
# Youngs Moduli (GPa) = 80.81307 80.81307 90.11877
#
# Poissons Ratio (x) = 0.41487 0.22963
# Poissons Ratio (y) = 0.41487 0.22963
# Poissons Ratio (z) = 0.20592 0.20592
#
# Static dielectric constant tensor:
#      x y z
#    x 1.907150 0.000000 0.000000 
#    y 0.000000 1.907150 0.000000 
#    z 0.000000 0.000000 1.893930 
# 
# From -- ./inp_files/181.got.cif
#   From: 2010.05.17/outbox.cif.g08.bks.cpg/sg152_1_cif.got.tgz:181.got - 2010.05.20 10:36:06.
