data_PCOD9576955
_publ_section_title
;
Structure prediction by ZEFSAII (Michael W. Deem and Ramdas Pophale) SiO2 
 PCOD9576955
Probable space group: R 3 2
;
_chemical_formula_sum "Si O2"
_cell_formula_units_Z 72
_cell_length_a 23.015498
_cell_length_b 23.015498
_cell_length_c 7.858789
_cell_angle_alpha 90.000000
_cell_angle_beta 90.000000
_cell_angle_gamma 120.000000
_cell_volume 3605.180498
_symmetry_space_group_name_H-M "R 3 2"
_symmetry_group_IT_number 155
_symmetry_cell_setting 'hexagonal'
loop_
_space_group_symop_operation_xyz
x,y,z
-y,x-y,z
-x+y,-x,z
x-y,-y,-z
-x,-x+y,-z
y,x,-z
2/3+x,1/3+y,1/3+z
2/3-y,1/3+x-y,1/3+z
2/3-x+y,1/3-x,1/3+z
2/3+x-y,1/3-y,1/3-z
2/3-x,1/3-x+y,1/3-z
2/3+y,1/3+x,1/3-z
1/3+x,2/3+y,2/3+z
1/3-y,2/3+x-y,2/3+z
1/3-x+y,2/3-x,2/3+z
1/3+x-y,2/3-y,2/3-z
1/3-x,2/3-x+y,2/3-z
1/3+y,2/3+x,2/3-z
loop_
_atom_site_type_symbol
_atom_site_label
_atom_site_fract_x
_atom_site_fract_y
_atom_site_fract_z
Si Si1 0.379670 0.455071 0.433459
Si Si2 0.427191 0.502001 0.049729
Si Si3 0.502002 0.074817 0.450307
Si Si4 0.455081 0.075401 0.066535
O O1 0.399624 0.399624 0.500000
O O2 0.300859 0.428995 0.413616
O O3 0.418088 0.525527 0.535448
O O4 0.404347 0.476278 0.239419
O O5 0.474473 0.581908 0.035502
O O6 0.480529 0.480529 0.000000
O O7 0.476298 0.071954 0.260591
O O8 0.461464 0.095665 0.580325
O O9 0.480516 0.000000 0.500000
O O10 0.399634 0.000000 0.000000
#
# Coordination Sequence:
#
# PCOD9576955 Si02
#       4
#    18  18  18  18
#     4  10  21  34  53  77 106 138 176 214 263 313
#     4  10  21  34  52  78 104 141 174 215 263 310
#     4  10  21  34  52  78 104 141 174 215 263 310
#     4  10  21  34  53  77 106 138 176 214 263 313
#
# _framework density 19.971259
#
# number of rings (size 3 to 8) (size 9 to 14) (size 15 to 20)
#    0.000    2.000    0.000    6.000    7.000    6.000 
#    0.000    0.000    0.000    1.000    0.000    0.000 
#    0.000    0.000    0.000    0.000    0.000    0.000 
#
# Total GULP energy -133649.879757 kJ/mol
# GULP energy per Si atom -5568.744990 kJ/mol
# Density = 1.992580 g / cm^3
# Si number density = 19.971259 Si / 1000 Ang^3
#
#
#
# Elastic Constant Matrix: (Units=GPa)
#
#
# Indices 1 2 3 4 5 6 
#
# 1 68.7058 27.5935 25.7437 5.3357 0.0103 0.0030
# 2 27.5935 68.6939 25.7210 -5.3297 -0.0072 -0.0005
# 3 25.7437 25.7210 76.3662 0.0002 -0.0241 -0.0041
# 4 5.3357 -5.3297 0.0002 28.4970 0.0006 0.0005
# 5 0.0103 -0.0072 -0.0241 0.0006 28.4938 5.3253
# 6 0.0030 -0.0005 -0.0041 0.0005 5.3253 20.5504
#
#
#
# Elastic Compliance Matrix: (Units=1/GPa)
#
#
# Indices 1 2 3 4 5 6 
#
# 1 0.019118 -0.006451 -0.004272 -0.004786 -0.000012 -0.000001
# 2 -0.006451 0.019116 -0.004264 0.004783 0.000004 0.000000
# 3 -0.004272 -0.004264 0.015971 0.000002 0.000014 0.000000
# 4 -0.004786 0.004783 0.000002 0.036882 0.000002 -0.000001
# 5 -0.000012 0.000004 0.000014 0.000002 0.036882 -0.009557
# 6 -0.000001 0.000000 0.000000 -0.000001 -0.009557 0.051138
#
#
# Mechanical properties :
#
#
# Convention : Reuss Voigt Hill
#
# Bulk Modulus (GPa) = 41.26900 41.32026 41.29463
# Shear Modulus (GPa) = 23.02468 24.48875 23.75672
#
# Velocity S-wave (km/s) = 3.39911 3.50551 3.45272
# Velocity P-wave (km/s) = 6.00952 6.09259 6.05119
#
# Compressibility (1/GPa) = 0.02423127
#
# Stress axis : x y z
#
# Youngs Moduli (GPa) = 52.30630 52.31118 62.61331
#
# Poissons Ratio (x) = 0.33748 0.26748
# Poissons Ratio (y) = 0.33744 0.26697
# Poissons Ratio (z) = 0.22345 0.22305
#
# Static dielectric constant tensor:
#      x y z
#    x 1.756960 0.000000 -0.000010 
#    y 0.000000 1.756970 0.000010 
#    z -0.000010 0.000010 1.785600 
# 
# From -- ./inp_files/2444.got.cif
#   From: 2010.05.17/outbox.cif.g08.bks.cpg/sg155_2_cif.got.tgz:2444.got - 2010.05.20 10:44:35.
