data_PCOD9576031
_publ_section_title
;
Structure prediction by ZEFSAII (Michael W. Deem and Ramdas Pophale) SiO2 
 PCOD9576031
Probable space group: P 31 2 1
;
_chemical_formula_sum "Si O2"
_cell_formula_units_Z 33
_cell_length_a 13.929662
_cell_length_b 13.929662
_cell_length_c 9.625918
_cell_angle_alpha 90.000000
_cell_angle_beta 90.000000
_cell_angle_gamma 120.000000
_cell_volume 1617.535968
_symmetry_space_group_name_H-M "P 31 2 1"
_symmetry_group_IT_number 152
_symmetry_cell_setting 'hexagonal'
loop_
_space_group_symop_operation_xyz
x,y,z
-y,x-y,1/3+z
-x+y,-x,2/3+z
x-y,-y,2/3-z
-x,-x+y,1/3-z
y,x,-z
loop_
_atom_site_type_symbol
_atom_site_label
_atom_site_fract_x
_atom_site_fract_y
_atom_site_fract_z
Si Si1 0.286122 0.286122 0.000000
Si Si2 0.253159 0.712219 0.280177
Si Si3 0.712865 0.229786 0.034247
Si Si4 0.453644 0.428217 0.229914
Si Si5 0.228218 0.885795 0.753539
Si Si6 0.664355 0.596448 0.882551
O O1 0.333300 0.380267 0.881269
O O2 0.273587 0.176971 0.932025
O O3 0.319637 0.644601 0.275992
O O4 0.306721 0.814791 0.384529
O O5 0.127623 0.624628 0.330578
O O6 0.247593 0.752083 0.125335
O O7 0.621578 0.099683 0.044354
O O8 0.803719 0.251808 0.152132
O O9 0.546563 0.534568 0.149966
O O10 0.277680 0.908374 0.599336
O O11 0.277986 0.000000 0.833334
O O12 0.689447 0.689447 0.000000
#
# Coordination Sequence:
#
# PCOD9576031 Si02
#       6
#     3   6   6   6   6   6
#     4  10  22  42  66  92 124 178 212 288 346 404
#     4  12  23  42  61  99 137 179 233 279 337 411
#     4  11  25  38  64  95 134 182 222 276 334 404
#     4  11  22  40  63  94 137 175 223 274 342 403
#     4  11  23  44  67  95 129 174 229 283 347 412
#     4  12  24  39  68  96 135 178 225 275 338 418
#
# _framework density 20.401399999999999
#
# number of rings (size 3 to 8) (size 9 to 14) (size 15 to 20)
#    0.000    0.727    2.727    6.000    0.000    1.455 
#    0.000    0.000    2.000    0.000    0.000    0.000 
#    0.000    0.000    0.000    0.000    0.000    0.000 
#
# Total GULP energy -184446.233399 kJ/mol
# GULP energy per Si atom -5589.279800 kJ/mol
# Density = 2.035497 g / cm^3
# Si number density = 20.401400 Si / 1000 Ang^3
#
#
#
# Elastic Constant Matrix: (Units=GPa)
#
#
# Indices 1 2 3 4 5 6 
#
# 1 78.1162 42.1108 41.1295 -1.3668 0.0002 0.0000
# 2 42.1108 78.1162 41.1295 1.3668 -0.0002 0.0000
# 3 41.1295 41.1295 161.9462 0.0000 0.0000 0.0000
# 4 -1.3668 1.3668 0.0000 35.7335 0.0000 -0.0002
# 5 0.0002 -0.0002 0.0000 0.0000 35.7335 -1.3668
# 6 0.0000 0.0000 0.0000 -0.0002 -1.3668 18.0027
#
#
#
# Elastic Compliance Matrix: (Units=1/GPa)
#
#
# Indices 1 2 3 4 5 6 
#
# 1 0.018961 -0.008894 -0.002557 0.001065 0.000000 0.000000
# 2 -0.008894 0.018961 -0.002557 -0.001065 0.000000 0.000000
# 3 -0.002557 -0.002557 0.007474 0.000000 0.000000 0.000000
# 4 0.001065 -0.001065 0.000000 0.028066 0.000000 0.000000
# 5 0.000000 0.000000 0.000000 0.000000 0.028066 0.002131
# 6 0.000000 0.000000 0.000000 0.000000 0.002131 0.055709
#
#
# Mechanical properties :
#
#
# Convention : Reuss Voigt Hill
#
# Bulk Modulus (GPa) = 57.53559 62.99091 60.26325
# Shear Modulus (GPa) = 26.17185 30.81450 28.49318
#
# Velocity S-wave (km/s) = 3.58557 3.89062 3.74120
# Velocity P-wave (km/s) = 6.73830 7.15020 6.94730
#
# Compressibility (1/GPa) = 0.01738055
#
# Stress axis : x y z
#
# Youngs Moduli (GPa) = 52.74064 52.74064 133.80550
#
# Poissons Ratio (x) = 0.46907 0.34210
# Poissons Ratio (y) = 0.46907 0.34210
# Poissons Ratio (z) = 0.13484 0.13484
#
# Static dielectric constant tensor:
#      x y z
#    x 1.741430 0.000000 0.000000 
#    y 0.000000 1.741430 0.000000 
#    z 0.000000 0.000000 1.783910 
# 
# From -- ./inp_files/1150.got.cif
#   From: 2010.05.17/outbox.cif.g08.bks.cpg/sg152_1_cif.got.tgz:1150.got - 2010.05.20 10:36:06.
