data_PCOD9576437
_publ_section_title
;
Structure prediction by ZEFSAII (Michael W. Deem and Ramdas Pophale) SiO2 
 PCOD9576437
Probable space group: P 32 2 1
;
_chemical_formula_sum "Si O2"
_cell_formula_units_Z 48
_cell_length_a 11.356615
_cell_length_b 11.356615
_cell_length_c 21.041874
_cell_angle_alpha 90.000000
_cell_angle_beta 90.000000
_cell_angle_gamma 120.000000
_cell_volume 2350.243463
_symmetry_space_group_name_H-M "P 32 2 1"
_symmetry_group_IT_number 154
_symmetry_cell_setting 'hexagonal'
loop_
_space_group_symop_operation_xyz
x,y,z
-y,x-y,2/3+z
-x+y,-x,1/3+z
x-y,-y,1/3-z
-x,-x+y,2/3-z
y,x,-z
loop_
_atom_site_type_symbol
_atom_site_label
_atom_site_fract_x
_atom_site_fract_y
_atom_site_fract_z
Si Si1 0.038075 0.445459 0.185060
Si Si2 0.776427 0.899954 0.851425
Si Si3 0.424953 0.866438 0.194600
Si Si4 0.050612 0.009226 0.401447
Si Si5 0.278294 0.625620 0.279761
Si Si6 0.429040 0.396815 0.746804
Si Si7 0.307550 0.302446 0.389384
Si Si8 0.755191 0.291717 0.246771
O O1 0.056808 0.521811 0.118583
O O2 0.887499 0.397806 0.209406
O O3 0.053211 0.314330 0.176534
O O4 0.141657 0.531164 0.240737
O O5 0.857662 0.954416 0.786145
O O6 0.676490 0.952497 0.874075
O O7 0.889039 0.936353 0.905795
O O8 0.331517 0.774633 0.251324
O O9 0.575520 0.922380 0.224522
O O10 0.397720 0.767434 0.135267
O O11 0.428097 0.000000 0.166667
O O12 0.199017 0.143945 0.395227
O O13 0.000000 0.944122 0.333334
O O14 0.374228 0.558614 0.265498
O O15 0.261033 0.615576 0.355090
O O16 0.352724 0.377219 0.679746
O O17 0.234535 0.392475 0.400880
#
# Coordination Sequence:
#
# PCOD9576437 Si02
#       8
#     6   6   6   6   6   6   6   6
#     4  11  20  37  63  86 123 161 206 258 312 364
#     4  10  22  36  61  94 120 157 212 262 312 377
#     4  10  21  38  61  88 126 155 203 259 310 371
#     4  11  20  35  64  90 123 158 201 263 326 375
#     4  10  22  35  60  89 117 164 198 260 311 365
#     4  10  21  38  57  88 128 158 207 252 313 379
#     4  10  20  34  60  92 123 158 196 261 314 372
#     4  10  19  35  58  90 120 150 205 260 307 359
#
# _framework density 20.423414000000001
#
# number of rings (size 3 to 8) (size 9 to 14) (size 15 to 20)
#    0.000    1.750    3.750    1.125    3.500    1.000 
#    0.000    1.250    2.750    0.000    0.000    0.000 
#    0.000    0.000    0.000    0.000    0.000    0.000 
#
# Total GULP energy -268022.437753 kJ/mol
# GULP energy per Si atom -5583.800787 kJ/mol
# Density = 2.037693 g / cm^3
# Si number density = 20.423414 Si / 1000 Ang^3
#
#
#
# Elastic Constant Matrix: (Units=GPa)
#
#
# Indices 1 2 3 4 5 6 
#
# 1 28.5498 4.8751 4.9025 0.1997 0.0000 0.0000
# 2 4.8751 28.5498 4.9025 -0.1997 0.0000 0.0000
# 3 4.9025 4.9025 87.9606 0.0000 0.0000 0.0000
# 4 0.1997 -0.1997 0.0000 21.5009 0.0000 0.0000
# 5 0.0000 0.0000 0.0000 0.0000 21.5009 0.1997
# 6 0.0000 0.0000 0.0000 0.0000 0.1997 11.8373
#
#
#
# Elastic Compliance Matrix: (Units=1/GPa)
#
#
# Indices 1 2 3 4 5 6 
#
# 1 0.036330 -0.005915 -0.001695 -0.000392 0.000000 0.000000
# 2 -0.005915 0.036330 -0.001695 0.000392 0.000000 0.000000
# 3 -0.001695 -0.001695 0.011558 0.000000 0.000000 0.000000
# 4 -0.000392 0.000392 0.000000 0.046517 0.000000 0.000000
# 5 0.000000 0.000000 0.000000 0.000000 0.046517 -0.000785
# 6 0.000000 0.000000 0.000000 0.000000 -0.000785 0.084492
#
#
# Mechanical properties :
#
#
# Convention : Reuss Voigt Hill
#
# Bulk Modulus (GPa) = 15.24226 19.38005 17.31116
# Shear Modulus (GPa) = 16.54397 19.65983 18.10190
#
# Velocity S-wave (km/s) = 2.84922 3.10597 2.98036
# Velocity P-wave (km/s) = 4.27825 4.72995 4.50976
#
# Compressibility (1/GPa) = 0.06560708
#
# Stress axis : x y z
#
# Youngs Moduli (GPa) = 27.52509 27.52509 86.52247
#
# Poissons Ratio (x) = 0.16282 0.14667
# Poissons Ratio (y) = 0.16282 0.14667
# Poissons Ratio (z) = 0.04666 0.04666
#
# Static dielectric constant tensor:
#      x y z
#    x 1.743020 0.000000 0.000000 
#    y 0.000000 1.743020 0.000000 
#    z 0.000000 0.000000 1.716610 
# 
# From -- ./inp_files/2864.got.cif
#   From: 2010.05.17/outbox.cif.g08.bks.cpg/sg154_2_cif.got.tgz:2864.got - 2010.05.20 10:41:43.
