data_PCOD9576268
_publ_section_title
;
Structure prediction by ZEFSAII (Michael W. Deem and Ramdas Pophale) SiO2 
 PCOD9576268
Probable space group: P 32 1 2
;
_chemical_formula_sum "Si O2"
_cell_formula_units_Z 42
_cell_length_a 8.653908
_cell_length_b 8.653908
_cell_length_c 29.963233
_cell_angle_alpha 90.000000
_cell_angle_beta 90.000000
_cell_angle_gamma 120.000000
_cell_volume 1943.317900
_symmetry_space_group_name_H-M "P 32 1 2"
_symmetry_group_IT_number 153
_symmetry_cell_setting 'hexagonal'
loop_
_space_group_symop_operation_xyz
x,y,z
-y,x-y,2/3+z
-x+y,-x,1/3+z
-y,-x,1/3-z
-x+y,y,2/3-z
x,x-y,-z
loop_
_atom_site_type_symbol
_atom_site_label
_atom_site_fract_x
_atom_site_fract_y
_atom_site_fract_z
Si Si1 0.912293 0.582098 0.716834
Si Si2 0.370238 0.253726 0.912968
Si Si3 0.175015 0.745448 0.568598
Si Si4 0.566444 0.973724 0.700693
Si Si5 0.259997 0.798434 0.219287
Si Si6 0.802082 0.852762 0.184967
Si Si7 0.616539 0.948733 0.265252
O O1 0.865966 0.429653 0.754305
O O2 0.743605 0.608011 0.710535
O O3 0.083122 0.763883 0.733156
O O4 0.977541 0.507220 0.676126
O O5 0.225310 0.318630 0.914906
O O6 0.363442 0.126584 0.952491
O O7 0.311390 0.131100 0.869635
O O8 0.037214 0.565571 0.593089
O O9 0.350473 0.731558 0.560319
O O10 0.117209 0.782110 0.521799
O O11 0.560679 0.783275 0.702427
O O12 0.210497 0.789504 0.166667
O O13 0.448375 0.944312 0.240092
O O14 0.729515 0.922285 0.225498
O O15 0.986866 0.013135 0.166667
#
# Coordination Sequence:
#
# PCOD9576268 Si02
#       7
#     6   6   6   6   6   6   6
#     4  11  22  46  65  96 134 182 235 276 334 416
#     4  10  24  40  62  92 139 175 212 287 339 396
#     4  10  21  39  70  97 130 173 219 281 343 412
#     4  10  23  45  65  95 135 177 229 280 333 406
#     4  10  19  39  65  98 130 167 215 274 341 408
#     4  11  20  41  64 102 138 164 219 283 357 419
#     4  10  22  40  73  97 126 183 223 282 343 400
#
# _framework density 21.612521999999998
#
# number of rings (size 3 to 8) (size 9 to 14) (size 15 to 20)
#    0.000    1.714    2.857    1.286    0.000    0.000 
#   10.286    8.571    0.000    0.000    0.000    0.000 
#    0.000    0.000    0.000    0.000    0.000    0.000 
#
# Total GULP energy -234483.303363 kJ/mol
# GULP energy per Si atom -5582.935794 kJ/mol
# Density = 2.156333 g / cm^3
# Si number density = 21.612522 Si / 1000 Ang^3
#
#
#
# Elastic Constant Matrix: (Units=GPa)
#
#
# Indices 1 2 3 4 5 6 
#
# 1 87.9008 37.2019 40.1955 -0.0003 -16.2037 0.0000
# 2 37.2019 87.9008 40.1955 0.0003 16.2037 0.0000
# 3 40.1955 40.1955 96.6872 0.0000 0.0000 0.0000
# 4 -0.0003 0.0003 0.0000 15.5943 0.0000 16.2037
# 5 -16.2037 16.2037 0.0000 0.0000 15.5943 -0.0003
# 6 0.0000 0.0000 0.0000 16.2037 -0.0003 25.3494
#
#
#
# Elastic Compliance Matrix: (Units=1/GPa)
#
#
# Indices 1 2 3 4 5 6 
#
# 1 0.034822 -0.023915 -0.004534 0.000001 0.061032 0.000000
# 2 -0.023915 0.034822 -0.004534 -0.000001 -0.061032 0.000000
# 3 -0.004534 -0.004534 0.014113 0.000000 0.000000 0.000000
# 4 0.000001 -0.000001 0.000000 0.190959 0.000000 -0.122063
# 5 0.061032 -0.061032 0.000000 0.000000 0.190959 0.000002
# 6 0.000000 0.000000 0.000000 -0.122063 0.000002 0.117473
#
#
# Mechanical properties :
#
#
# Convention : Reuss Voigt Hill
#
# Bulk Modulus (GPa) = 56.21273 56.40828 56.31051
# Shear Modulus (GPa) = 7.63307 21.63400 14.63353
#
# Velocity S-wave (km/s) = 1.88134 3.16728 2.60491
# Velocity P-wave (km/s) = 5.54843 6.28745 5.92946
#
# Compressibility (1/GPa) = 0.01778956
#
# Stress axis : x y z
#
# Youngs Moduli (GPa) = 28.71757 28.71757 70.85755
#
# Poissons Ratio (x) = 0.68677 0.32130
# Poissons Ratio (y) = 0.68677 0.32130
# Poissons Ratio (z) = 0.13022 0.13022
#
# Static dielectric constant tensor:
#      x y z
#    x 1.817540 0.000000 0.000000 
#    y 0.000000 1.817540 0.000000 
#    z 0.000000 0.000000 1.821090 
# 
# From -- ./inp_files/5201.got.cif
#   From: 2010.05.17/outbox.cif.g08.bks.cpg/sg153_3_cif.got.tgz:5201.got - 2010.05.20 10:38:56.
