data_PCOD9576568
_publ_section_title
;
Structure prediction by ZEFSAII (Michael W. Deem and Ramdas Pophale) SiO2 
 PCOD9576568
Probable space group: P 32 2 1
;
_chemical_formula_sum "Si O2"
_cell_formula_units_Z 36
_cell_length_a 7.907257
_cell_length_b 7.907257
_cell_length_c 28.659378
_cell_angle_alpha 90.000000
_cell_angle_beta 90.000000
_cell_angle_gamma 120.000000
_cell_volume 1551.847715
_symmetry_space_group_name_H-M "P 32 2 1"
_symmetry_group_IT_number 154
_symmetry_cell_setting 'hexagonal'
loop_
_space_group_symop_operation_xyz
x,y,z
-y,x-y,2/3+z
-x+y,-x,1/3+z
x-y,-y,1/3-z
-x,-x+y,2/3-z
y,x,-z
loop_
_atom_site_type_symbol
_atom_site_label
_atom_site_fract_x
_atom_site_fract_y
_atom_site_fract_z
Si Si1 0.191114 0.214945 0.212029
Si Si2 0.444630 0.889287 0.938052
Si Si3 0.179438 0.584631 0.799035
Si Si4 0.182220 0.791271 0.452592
Si Si5 0.913055 0.808265 0.384445
Si Si6 0.980785 0.519432 0.706700
O O1 0.264902 0.416955 0.239071
O O2 0.382280 0.189446 0.202039
O O3 0.117220 0.239447 0.162019
O O4 0.063255 0.044933 0.248502
O O5 0.231024 0.713664 0.947677
O O6 0.420695 0.055821 0.911535
O O7 0.553578 0.961777 0.987611
O O8 0.399082 0.756466 0.808488
O O9 0.000000 0.538275 0.833334
O O10 0.128909 0.634468 0.748175
O O11 0.007379 0.704758 0.415091
O O12 0.688343 0.658389 0.375787
O O13 0.000000 0.872897 0.333334
#
# Coordination Sequence:
#
# PCOD9576568 Si02
#       6
#     6   6   6   6   6   6
#     4  10  22  40  65  92 135 175 216 277 342 405
#     4  11  23  41  68  96 131 181 227 287 337 414
#     4  10  21  40  67  95 129 180 221 271 343 408
#     4  11  22  40  67  99 128 174 230 280 341 403
#     4  11  22  40  69  97 134 180 222 273 349 413
#     4  11  22  42  68  95 134 178 230 277 346 415
#
# _framework density 23.198153999999999
#
# number of rings (size 3 to 8) (size 9 to 14) (size 15 to 20)
#    0.000    1.333    1.667    6.500    0.000    1.333 
#    0.000   10.833    7.333    0.000    0.000    0.000 
#    0.000    0.000    0.000    0.000    0.000    0.000 
#
# Total GULP energy -201253.579755 kJ/mol
# GULP energy per Si atom -5590.377215 kJ/mol
# Density = 2.314535 g / cm^3
# Si number density = 23.198154 Si / 1000 Ang^3
#
#
#
# Elastic Constant Matrix: (Units=GPa)
#
#
# Indices 1 2 3 4 5 6 
#
# 1 44.3595 -0.3113 37.6393 10.3102 -0.0002 0.0000
# 2 -0.3113 44.3595 37.6393 -10.3102 0.0002 0.0000
# 3 37.6393 37.6393 189.2349 0.0000 0.0000 0.0000
# 4 10.3102 -10.3102 0.0000 13.4246 0.0000 0.0002
# 5 -0.0002 0.0002 0.0000 0.0000 13.4246 10.3102
# 6 0.0000 0.0000 0.0000 0.0002 10.3102 22.3354
#
#
#
# Elastic Compliance Matrix: (Units=1/GPa)
#
#
# Indices 1 2 3 4 5 6 
#
# 1 0.034537 -0.000144 -0.006841 -0.026635 0.000000 0.000000
# 2 -0.000144 0.034537 -0.006841 0.026635 0.000000 0.000000
# 3 -0.006841 -0.006841 0.008006 0.000000 0.000000 0.000000
# 4 -0.026635 0.026635 0.000000 0.115402 0.000000 -0.000001
# 5 0.000000 0.000000 0.000000 0.000000 0.115402 -0.053270
# 6 0.000000 0.000000 0.000000 -0.000001 -0.053270 0.069362
#
#
# Mechanical properties :
#
#
# Convention : Reuss Voigt Hill
#
# Bulk Modulus (GPa) = 20.23091 47.54315 33.88703
# Shear Modulus (GPa) = 11.86594 23.36936 17.61765
#
# Velocity S-wave (km/s) = 2.26410 3.17737 2.75879
# Velocity P-wave (km/s) = 3.94648 5.83093 4.97868
#
# Compressibility (1/GPa) = 0.04942931
#
# Stress axis : x y z
#
# Youngs Moduli (GPa) = 28.95418 28.95418 124.90913
#
# Poissons Ratio (x) = 0.00416 0.85450
# Poissons Ratio (y) = 0.00416 0.85450
# Poissons Ratio (z) = 0.19808 0.19808
#
# Static dielectric constant tensor:
#      x y z
#    x 1.888760 0.000000 0.000000 
#    y 0.000000 1.888760 0.000000 
#    z 0.000000 0.000000 1.890200 
# 
# From -- ./inp_files/3467.got.cif
#   From: 2010.05.17/outbox.cif.g08.bks.cpg/sg154_2_cif.got.tgz:3467.got - 2010.05.20 10:41:43.
