data_PCOD9576802
_publ_section_title
;
Structure prediction by ZEFSAII (Michael W. Deem and Ramdas Pophale) SiO2 
 PCOD9576802
Probable space group: R 3 2
;
_chemical_formula_sum "Si O2"
_cell_formula_units_Z 63
_cell_length_a 22.677840
_cell_length_b 22.677840
_cell_length_c 7.509576
_cell_angle_alpha 90.000000
_cell_angle_beta 90.000000
_cell_angle_gamma 120.000000
_cell_volume 3344.640331
_symmetry_space_group_name_H-M "R 3 2"
_symmetry_group_IT_number 155
_symmetry_cell_setting 'hexagonal'
loop_
_space_group_symop_operation_xyz
x,y,z
-y,x-y,z
-x+y,-x,z
x-y,-y,-z
-x,-x+y,-z
y,x,-z
2/3+x,1/3+y,1/3+z
2/3-y,1/3+x-y,1/3+z
2/3-x+y,1/3-x,1/3+z
2/3+x-y,1/3-y,1/3-z
2/3-x,1/3-x+y,1/3-z
2/3+y,1/3+x,1/3-z
1/3+x,2/3+y,2/3+z
1/3-y,2/3+x-y,2/3+z
1/3-x+y,2/3-x,2/3+z
1/3+x-y,2/3-y,2/3-z
1/3-x,2/3-x+y,2/3-z
1/3+y,2/3+x,2/3-z
loop_
_atom_site_type_symbol
_atom_site_label
_atom_site_fract_x
_atom_site_fract_y
_atom_site_fract_z
Si Si1 0.666667 0.134085 0.833334
Si Si2 0.608557 0.459578 0.701113
Si Si3 0.666667 0.526433 0.333334
Si Si4 0.197448 0.866819 0.042151
Si Si5 0.566184 0.000000 0.000000
O O1 0.609084 0.146537 0.742821
O O2 0.699590 0.104722 0.693774
O O3 0.666667 0.466068 0.833334
O O4 0.634973 0.473374 0.497131
O O5 0.593016 0.520599 0.747655
O O6 0.726242 0.598950 0.405729
O O7 0.136853 0.813435 0.162588
O O8 0.183837 0.850503 0.833334
#
# Coordination Sequence:
#
# PCOD9576802 Si02
#       5
#     9  18   9  18   9
#     4  10  22  42  62  88 122 170 214 260 318 364
#     4  10  21  38  59  86 121 160 197 258 310 368
#     4  10  18  34  59  94 120 151 198 240 316 378
#     4   9  19  34  58  88 121 149 194 240 310 375
#     4  10  20  42  57  84 118 165 208 254 306 360
#
# _framework density 18.836105
#
# number of rings (size 3 to 8) (size 9 to 14) (size 15 to 20)
#    0.000    2.286    0.000    3.429    0.000    3.429 
#   21.429   11.429    0.000    0.000    0.000    0.000 
#    0.000    0.000    0.000    0.000    0.000    0.000 
#
# Total GULP energy -116973.025432 kJ/mol
# GULP energy per Si atom -5570.144068 kJ/mol
# Density = 1.879323 g / cm^3
# Si number density = 18.836105 Si / 1000 Ang^3
#
#
#
# Elastic Constant Matrix: (Units=GPa)
#
#
# Indices 1 2 3 4 5 6 
#
# 1 189.4522 -30.0808 51.5273 28.4755 0.1356 -1.0494
# 2 -30.0808 188.3319 50.6068 -28.3171 -0.1332 0.6865
# 3 51.5273 50.6068 65.0622 0.1202 -0.0476 -0.4113
# 4 28.4755 -28.3171 0.1202 38.5514 0.0657 -0.1435
# 5 0.1356 -0.1332 -0.0476 0.0657 38.4015 27.7338
# 6 -1.0494 0.6865 -0.4113 -0.1435 27.7338 107.5578
#
#
#
# Elastic Compliance Matrix: (Units=1/GPa)
#
#
# Indices 1 2 3 4 5 6 
#
# 1 0.009190 0.003535 -0.010020 -0.004161 -0.000052 0.000037
# 2 0.003535 0.009171 -0.009941 0.004156 0.000050 -0.000069
# 3 -0.010020 -0.009941 0.031038 0.000003 -0.000026 0.000091
# 4 -0.004161 0.004156 0.000003 0.032065 -0.000010 -0.000022
# 5 -0.000052 0.000050 -0.000026 -0.000010 0.032001 -0.008252
# 6 0.000037 -0.000069 0.000091 -0.000022 -0.008252 0.011426
#
#
# Mechanical properties :
#
#
# Convention : Reuss Voigt Hill
#
# Bulk Modulus (GPa) = 60.43293 65.21698 62.82495
# Shear Modulus (GPa) = 30.62617 61.62166 46.12392
#
# Velocity S-wave (km/s) = 4.03666 5.72588 4.95380
# Velocity P-wave (km/s) = 7.34025 8.85510 8.13302
#
# Compressibility (1/GPa) = 0.01654727
#
# Stress axis : x y z
#
# Youngs Moduli (GPa) = 108.80852 109.04391 32.21859
#
# Poissons Ratio (x) = -0.38543 0.32283
# Poissons Ratio (y) = -0.38460 0.32027
# Poissons Ratio (z) = 1.09026 1.08395
#
# Static dielectric constant tensor:
#      x y z
#    x 1.677840 -0.000020 0.000030 
#    y -0.000020 1.677860 0.000020 
#    z 0.000030 0.000020 1.676400 
# 
# From -- ./inp_files/2083.got.cif
#   From: 2010.05.17/outbox.cif.g08.bks.cpg/sg155_2_cif.got.tgz:2083.got - 2010.05.20 10:44:35.
