data_PCOD9576672
_publ_section_title
;
Structure prediction by ZEFSAII (Michael W. Deem and Ramdas Pophale) SiO2 
 PCOD9576672
Probable space group: P 32 2 1
;
_chemical_formula_sum "Si O2"
_cell_formula_units_Z 21
_cell_length_a 14.014214
_cell_length_b 14.014214
_cell_length_c 6.419609
_cell_angle_alpha 90.000000
_cell_angle_beta 90.000000
_cell_angle_gamma 120.000000
_cell_volume 1091.884495
_symmetry_space_group_name_H-M "P 32 2 1"
_symmetry_group_IT_number 154
_symmetry_cell_setting 'hexagonal'
loop_
_space_group_symop_operation_xyz
x,y,z
-y,x-y,2/3+z
-x+y,-x,1/3+z
x-y,-y,1/3-z
-x,-x+y,2/3-z
y,x,-z
loop_
_atom_site_type_symbol
_atom_site_label
_atom_site_fract_x
_atom_site_fract_y
_atom_site_fract_z
Si Si1 0.874340 0.200698 0.401209
Si Si2 0.266985 0.266985 0.000000
Si Si3 0.478119 0.121047 0.079630
Si Si4 0.284142 0.435424 0.654844
O O1 0.864139 0.295677 0.526044
O O2 0.000000 0.252802 0.333334
O O3 0.839524 0.099218 0.559159
O O4 0.789426 0.157048 0.208931
O O5 0.357981 0.300033 0.180094
O O6 0.481144 0.213184 0.230417
O O7 0.392318 0.000000 0.166667
O O8 0.596889 0.132027 0.069635
#
# Coordination Sequence:
#
# PCOD9576672 Si02
#       4
#     6   3   6   6
#     4  11  23  43  71  93 134 173 218 273 331 392
#     4  10  24  42  68  94 130 172 220 272 332 392
#     4  11  24  41  66 101 135 174 220 268 335 396
#     4  11  25  42  67  99 133 178 218 273 330 396
#
# _framework density 19.232803000000001
#
# number of rings (size 3 to 8) (size 9 to 14) (size 15 to 20)
#    0.000    1.143    2.857    2.571    6.000    2.286 
#    0.000    0.000   15.714    0.000    0.000    0.000 
#    0.000    0.000    0.000    0.000    0.000    0.000 
#
# Total GULP energy -117362.404262 kJ/mol
# GULP energy per Si atom -5588.685917 kJ/mol
# Density = 1.918903 g / cm^3
# Si number density = 19.232803 Si / 1000 Ang^3
#
#
#
# Elastic Constant Matrix: (Units=GPa)
#
#
# Indices 1 2 3 4 5 6 
#
# 1 87.5045 55.3739 50.6304 -10.1157 0.0000 0.0000
# 2 55.3739 87.5045 50.6304 10.1157 0.0000 0.0000
# 3 50.6304 50.6304 117.9180 0.0000 0.0000 0.0000
# 4 -10.1157 10.1157 0.0000 29.2386 0.0000 0.0000
# 5 0.0000 0.0000 0.0000 0.0000 29.2386 -10.1157
# 6 0.0000 0.0000 0.0000 0.0000 -10.1157 16.0653
#
#
#
# Elastic Compliance Matrix: (Units=1/GPa)
#
#
# Indices 1 2 3 4 5 6 
#
# 1 0.024926 -0.014866 -0.004320 0.013767 0.000000 0.000000
# 2 -0.014866 0.024926 -0.004320 -0.013767 0.000000 0.000000
# 3 -0.004320 -0.004320 0.012190 0.000000 0.000000 0.000000
# 4 0.013767 -0.013767 0.000000 0.043727 0.000000 0.000000
# 5 0.000000 0.000000 0.000000 0.000000 0.043727 0.027533
# 6 0.000000 0.000000 0.000000 0.000000 0.027533 0.079583
#
#
# Mechanical properties :
#
#
# Convention : Reuss Voigt Hill
#
# Bulk Modulus (GPa) = 66.52406 67.35515 66.93960
# Shear Modulus (GPa) = 17.78732 23.99465 20.89099
#
# Velocity S-wave (km/s) = 3.04442 3.53596 3.29936
# Velocity P-wave (km/s) = 6.85726 7.19497 7.02814
#
# Compressibility (1/GPa) = 0.01503216
#
# Stress axis : x y z
#
# Youngs Moduli (GPa) = 40.11893 40.11893 82.03523
#
# Poissons Ratio (x) = 0.59639 0.35436
# Poissons Ratio (y) = 0.59639 0.35436
# Poissons Ratio (z) = 0.17330 0.17330
#
# Static dielectric constant tensor:
#      x y z
#    x 1.638200 0.000000 0.000000 
#    y 0.000000 1.638200 0.000000 
#    z 0.000000 0.000000 1.685550 
# 
# From -- ./inp_files/158.got.cif
#   From: 2010.05.17/outbox.cif.g08.bks.cpg/sg154_1_cif.got.tgz:158.got - 2010.05.20 10:41:43.
