data_PCOD9576323
_publ_section_title
;
Structure prediction by ZEFSAII (Michael W. Deem and Ramdas Pophale) SiO2 
 PCOD9576323
Probable space group: P 32 1 2
;
_chemical_formula_sum "Si O2"
_cell_formula_units_Z 30
_cell_length_a 8.839564
_cell_length_b 8.839564
_cell_length_c 21.872634
_cell_angle_alpha 90.000000
_cell_angle_beta 90.000000
_cell_angle_gamma 120.000000
_cell_volume 1480.108002
_symmetry_space_group_name_H-M "P 32 1 2"
_symmetry_group_IT_number 153
_symmetry_cell_setting 'hexagonal'
loop_
_space_group_symop_operation_xyz
x,y,z
-y,x-y,2/3+z
-x+y,-x,1/3+z
-y,-x,1/3-z
-x+y,y,2/3-z
x,x-y,-z
loop_
_atom_site_type_symbol
_atom_site_label
_atom_site_fract_x
_atom_site_fract_y
_atom_site_fract_z
Si Si1 0.867226 0.657863 0.700877
Si Si2 0.214458 0.529231 0.764031
Si Si3 0.474263 0.525738 0.666667
Si Si4 0.120655 0.792954 0.583539
Si Si5 0.927339 0.463670 0.500000
Si Si6 0.830372 0.541073 0.267320
O O1 0.673276 0.619611 0.690250
O O2 0.833700 0.469333 0.719928
O O3 0.979041 0.714647 0.637936
O O4 0.997576 0.805016 0.749311
O O5 0.278324 0.556647 0.833334
O O6 0.354352 0.518630 0.721983
O O7 0.207680 0.698367 0.739703
O O8 0.023744 0.356473 0.758989
O O9 0.036688 0.658789 0.527782
O O10 0.817579 0.328556 0.554063
O O11 0.802648 0.605295 0.333334
#
# Coordination Sequence:
#
# PCOD9576323 Si02
#       6
#     6   6   3   6   3   6
#     4  10  21  42  71  94 135 176 233 279 350 423
#     4  11  26  43  68 100 140 180 237 290 359 429
#     4  12  24  44  72 100 140 188 228 300 364 414
#     4  10  21  43  68  98 131 186 228 288 351 430
#     4  12  22  38  76  98 140 186 238 290 368 416
#     4  11  23  42  69  98 133 185 232 283 345 430
#
# _framework density 20.268789000000002
#
# number of rings (size 3 to 8) (size 9 to 14) (size 15 to 20)
#    0.000    1.200    4.000    2.400    5.600    0.000 
#    3.600    0.000    4.400    0.000    0.000    0.000 
#    0.000    0.000    0.000    0.000    0.000    0.000 
#
# Total GULP energy -167258.480352 kJ/mol
# GULP energy per Si atom -5575.282678 kJ/mol
# Density = 2.022266 g / cm^3
# Si number density = 20.268789 Si / 1000 Ang^3
#
#
#
# Elastic Constant Matrix: (Units=GPa)
#
#
# Indices 1 2 3 4 5 6 
#
# 1 94.3045 64.8670 37.4306 -0.0010 5.4756 0.0000
# 2 64.8670 94.3045 37.4306 0.0010 -5.4756 0.0000
# 3 37.4306 37.4306 77.2614 0.0000 0.0000 0.0000
# 4 -0.0010 0.0010 0.0000 10.5554 0.0000 -5.4756
# 5 5.4756 -5.4756 0.0000 0.0000 10.5554 -0.0010
# 6 0.0000 0.0000 0.0000 -5.4756 -0.0010 14.7188
#
#
#
# Elastic Compliance Matrix: (Units=1/GPa)
#
#
# Indices 1 2 3 4 5 6 
#
# 1 0.025115 -0.016979 -0.003942 0.000004 -0.021836 0.000000
# 2 -0.016979 0.025115 -0.003942 -0.000004 0.021836 0.000000
# 3 -0.003942 -0.003942 0.016762 0.000000 0.000000 0.000000
# 4 0.000004 -0.000004 0.000000 0.117394 0.000000 0.043673
# 5 -0.021836 0.021836 0.000000 0.000000 0.117394 0.000008
# 6 0.000000 0.000000 0.000000 0.043673 0.000008 0.084188
#
#
# Mechanical properties :
#
#
# Convention : Reuss Voigt Hill
#
# Bulk Modulus (GPa) = 57.91062 60.59186 59.25124
# Shear Modulus (GPa) = 11.32634 15.57538 13.45086
#
# Velocity S-wave (km/s) = 2.36647 2.77509 2.57889
# Velocity P-wave (km/s) = 6.00835 6.34249 6.17768
#
# Compressibility (1/GPa) = 0.01726799
#
# Stress axis : x y z
#
# Youngs Moduli (GPa) = 39.81666 39.81666 59.65717
#
# Poissons Ratio (x) = 0.67603 0.23516
# Poissons Ratio (y) = 0.67603 0.23516
# Poissons Ratio (z) = 0.15695 0.15695
#
# Static dielectric constant tensor:
#      x y z
#    x 1.739400 0.000000 0.000000 
#    y 0.000000 1.739400 0.000000 
#    z 0.000000 0.000000 1.781230 
# 
# From -- ./inp_files/4323.got.cif
#   From: 2010.05.17/outbox.cif.g08.bks.cpg/sg153_3_cif.got.tgz:4323.got - 2010.05.20 10:38:56.
