data_PCOD9576661
_publ_section_title
;
Structure prediction by ZEFSAII (Michael W. Deem and Ramdas Pophale) SiO2 
 PCOD9576661
Probable space group: P 32 2 1
;
_chemical_formula_sum "Si O2"
_cell_formula_units_Z 42
_cell_length_a 9.633635
_cell_length_b 9.633635
_cell_length_c 19.632007
_cell_angle_alpha 90.000000
_cell_angle_beta 90.000000
_cell_angle_gamma 120.000000
_cell_volume 1577.886307
_symmetry_space_group_name_H-M "P 32 2 1"
_symmetry_group_IT_number 154
_symmetry_cell_setting 'hexagonal'
loop_
_space_group_symop_operation_xyz
x,y,z
-y,x-y,2/3+z
-x+y,-x,1/3+z
x-y,-y,1/3-z
-x,-x+y,2/3-z
y,x,-z
loop_
_atom_site_type_symbol
_atom_site_label
_atom_site_fract_x
_atom_site_fract_y
_atom_site_fract_z
Si Si1 0.718381 0.868124 0.724647
Si Si2 0.975871 0.690378 0.125711
Si Si3 0.485637 0.589947 0.641904
Si Si4 0.557805 0.206261 0.742370
Si Si5 0.506482 0.162314 0.210651
Si Si6 0.552865 0.697958 0.080847
Si Si7 0.795904 0.021454 0.019965
O O1 0.555684 0.702354 0.708039
O O2 0.448729 0.699275 0.590305
O O3 0.858050 0.827829 0.713150
O O4 0.743616 0.000000 0.666667
O O5 0.156006 0.724792 0.130470
O O6 0.829085 0.518823 0.103241
O O7 0.984467 0.798681 0.060457
O O8 0.726265 0.931711 0.800231
O O9 0.620993 0.549499 0.617455
O O10 0.328673 0.416780 0.644651
O O11 0.519444 0.178747 0.661846
O O12 0.447557 0.025349 0.771455
O O13 0.697976 0.256093 0.208966
O O14 0.425930 0.000000 0.166667
O O15 0.716192 0.863475 0.067025
#
# Coordination Sequence:
#
# PCOD9576661 Si02
#       7
#     6   6   6   6   6   6   6
#     4  12  28  48  73 119 161 203 268 338 404 488
#     4  11  25  47  75 111 151 209 261 325 402 483
#     4  11  25  50  76 114 154 204 267 329 401 478
#     4  10  23  45  73 108 148 197 256 321 394 463
#     4  11  23  46  73 107 149 201 259 316 385 474
#     4   9  22  43  73 103 151 195 244 318 392 456
#     4  10  24  48  79 111 154 209 262 326 404 479
#
# _framework density 26.617885999999999
#
# number of rings (size 3 to 8) (size 9 to 14) (size 15 to 20)
#    0.000    1.429    1.429    1.714   10.000    2.286 
#    7.714    0.000    0.000    0.000    0.000    0.000 
#    0.000    0.000    0.000    0.000    0.000    0.000 
#
# Total GULP energy -235378.620923 kJ/mol
# GULP energy per Si atom -5604.252879 kJ/mol
# Density = 2.655730 g / cm^3
# Si number density = 26.617886 Si / 1000 Ang^3
#
#
#
# Elastic Constant Matrix: (Units=GPa)
#
#
# Indices 1 2 3 4 5 6 
#
# 1 199.8845 98.3788 59.7321 9.2134 -0.0001 0.0000
# 2 98.3788 199.8845 59.7321 -9.2134 0.0001 0.0000
# 3 59.7321 59.7321 111.5434 0.0000 0.0000 0.0000
# 4 9.2134 -9.2134 0.0000 36.5401 0.0000 0.0001
# 5 -0.0001 0.0001 0.0000 0.0000 36.5401 9.2134
# 6 0.0000 0.0000 0.0000 0.0001 9.2134 50.7529
#
#
#
# Elastic Compliance Matrix: (Units=1/GPa)
#
#
# Indices 1 2 3 4 5 6 
#
# 1 0.007296 -0.003028 -0.002286 -0.002603 0.000000 0.000000
# 2 -0.003028 0.007296 -0.002286 0.002603 0.000000 0.000000
# 3 -0.002286 -0.002286 0.011413 0.000000 0.000000 0.000000
# 4 -0.002603 0.002603 0.000000 0.028680 0.000000 0.000000
# 5 0.000000 0.000000 0.000000 0.000000 0.028680 -0.005206
# 6 0.000000 0.000000 0.000000 0.000000 -0.005206 0.020648
#
#
# Mechanical properties :
#
#
# Convention : Reuss Voigt Hill
#
# Bulk Modulus (GPa) = 92.53345 105.22202 98.87773
# Shear Modulus (GPa) = 40.71168 44.33123 42.52146
#
# Velocity S-wave (km/s) = 3.91511 4.08544 4.00118
# Velocity P-wave (km/s) = 7.43482 7.86580 7.65334
#
# Compressibility (1/GPa) = 0.01080690
#
# Stress axis : x y z
#
# Youngs Moduli (GPa) = 137.05713 137.05713 87.61879
#
# Poissons Ratio (x) = 0.41501 0.20027
# Poissons Ratio (y) = 0.41501 0.20027
# Poissons Ratio (z) = 0.31327 0.31327
#
# Static dielectric constant tensor:
#      x y z
#    x 2.060090 0.000000 0.000000 
#    y 0.000000 2.060090 0.000000 
#    z 0.000000 0.000000 2.188090 
# 
# From -- ./inp_files/3789.got.cif
#   From: 2010.05.17/outbox.cif.g08.bks.cpg/sg154_2_cif.got.tgz:3789.got - 2010.05.20 10:41:43.
