data_PCOD9576490
_publ_section_title
;
Structure prediction by ZEFSAII (Michael W. Deem and Ramdas Pophale) SiO2 
 PCOD9576490
Probable space group: P 32 2 1
;
_chemical_formula_sum "Si O2"
_cell_formula_units_Z 39
_cell_length_a 8.357342
_cell_length_b 8.357342
_cell_length_c 32.568520
_cell_angle_alpha 90.000000
_cell_angle_beta 90.000000
_cell_angle_gamma 120.000000
_cell_volume 1969.994460
_symmetry_space_group_name_H-M "P 32 2 1"
_symmetry_group_IT_number 154
_symmetry_cell_setting 'hexagonal'
loop_
_space_group_symop_operation_xyz
x,y,z
-y,x-y,2/3+z
-x+y,-x,1/3+z
x-y,-y,1/3-z
-x,-x+y,2/3-z
y,x,-z
loop_
_atom_site_type_symbol
_atom_site_label
_atom_site_fract_x
_atom_site_fract_y
_atom_site_fract_z
Si Si1 0.826466 0.541336 0.207438
Si Si2 0.716172 0.248854 0.274179
Si Si3 0.796344 0.796344 0.000000
Si Si4 0.384519 0.468594 0.544205
Si Si5 0.770400 0.097016 0.946567
Si Si6 0.837094 0.755008 0.456106
Si Si7 0.451703 0.521077 0.215823
O O1 0.837119 0.407103 0.240798
O O2 0.612574 0.475306 0.208728
O O3 0.871695 0.529176 0.160143
O O4 0.964552 0.749139 0.221203
O O5 0.534591 0.262069 0.290990
O O6 0.864785 0.248771 0.305588
O O7 0.621198 0.063418 0.246880
O O8 0.985997 0.827328 0.021681
O O9 0.379696 0.379696 0.500000
O O10 0.538374 0.685083 0.539592
O O11 0.194513 0.456727 0.554644
O O12 0.925692 0.172036 0.911371
O O13 0.588202 0.939346 0.923304
O O14 0.845239 0.845239 0.500000
#
# Coordination Sequence:
#
# PCOD9576490 Si02
#       7
#     6   6   3   6   6   6   6
#     4  11  22  37  63 102 133 168 217 271 356 411
#     4  10  25  47  66  99 134 176 236 281 332 420
#     4  12  28  48  76  86 140 198 236 278 342 408
#     4  10  20  37  65  98 135 167 209 284 352 401
#     4  10  25  47  66  99 133 177 235 281 335 411
#     4  10  20  38  64  98 135 165 206 278 341 409
#     4  11  22  36  66 100 137 166 212 286 343 416
#
# _framework density 19.797011000000001
#
# number of rings (size 3 to 8) (size 9 to 14) (size 15 to 20)
#    0.000    1.538    3.077    0.923    6.462    1.846 
#    5.538    0.000    0.000    0.000    0.000    0.000 
#    0.000    0.000    0.000    0.000    0.000    0.000 
#
# Total GULP energy -217329.459452 kJ/mol
# GULP energy per Si atom -5572.550242 kJ/mol
# Density = 1.975195 g / cm^3
# Si number density = 19.797011 Si / 1000 Ang^3
#
#
#
# Elastic Constant Matrix: (Units=GPa)
#
#
# Indices 1 2 3 4 5 6 
#
# 1 59.2053 5.3138 31.1386 0.0851 0.0000 0.0000
# 2 5.3138 59.2053 31.1386 -0.0851 0.0000 0.0000
# 3 31.1386 31.1386 60.4019 0.0000 0.0000 0.0000
# 4 0.0851 -0.0851 0.0000 28.6391 0.0000 0.0000
# 5 0.0000 0.0000 0.0000 0.0000 28.6391 0.0851
# 6 0.0000 0.0000 0.0000 0.0000 0.0851 26.9457
#
#
#
# Elastic Compliance Matrix: (Units=1/GPa)
#
#
# Indices 1 2 3 4 5 6 
#
# 1 0.024704 0.006148 -0.015904 -0.000055 0.000000 0.000000
# 2 0.006148 0.024704 -0.015904 0.000055 0.000000 0.000000
# 3 -0.015904 -0.015904 0.032954 0.000000 0.000000 0.000000
# 4 -0.000055 0.000055 0.000000 0.034918 0.000000 0.000000
# 5 0.000000 0.000000 0.000000 0.000000 0.034918 -0.000110
# 6 0.000000 0.000000 0.000000 0.000000 -0.000110 0.037112
#
#
# Mechanical properties :
#
#
# Convention : Reuss Voigt Hill
#
# Bulk Modulus (GPa) = 32.21816 34.88825 33.55320
# Shear Modulus (GPa) = 19.92215 24.25957 22.09086
#
# Velocity S-wave (km/s) = 3.17570 3.50439 3.34409
# Velocity P-wave (km/s) = 5.45494 5.83400 5.64765
#
# Compressibility (1/GPa) = 0.03103840
#
# Stress axis : x y z
#
# Youngs Moduli (GPa) = 40.48003 40.48003 30.34538
#
# Poissons Ratio (x) = -0.24885 0.48263
# Poissons Ratio (y) = -0.24885 0.48263
# Poissons Ratio (z) = 0.64381 0.64381
#
# Static dielectric constant tensor:
#      x y z
#    x 1.712150 0.000000 0.000000 
#    y 0.000000 1.712150 0.000000 
#    z 0.000000 0.000000 1.731440 
# 
# From -- ./inp_files/3683.got.cif
#   From: 2010.05.17/outbox.cif.g08.bks.cpg/sg154_2_cif.got.tgz:3683.got - 2010.05.20 10:41:43.
