data_PCOD9576870
_publ_section_title
;
Structure prediction by ZEFSAII (Michael W. Deem and Ramdas Pophale) SiO2 
 PCOD9576870
Probable space group: R 3 2
;
_chemical_formula_sum "Si O2"
_cell_formula_units_Z 99
_cell_length_a 25.329934
_cell_length_b 25.329934
_cell_length_c 10.321273
_cell_angle_alpha 90.000000
_cell_angle_beta 90.000000
_cell_angle_gamma 120.000000
_cell_volume 5734.981397
_symmetry_space_group_name_H-M "R 3 2"
_symmetry_group_IT_number 155
_symmetry_cell_setting 'hexagonal'
loop_
_space_group_symop_operation_xyz
x,y,z
-y,x-y,z
-x+y,-x,z
x-y,-y,-z
-x,-x+y,-z
y,x,-z
2/3+x,1/3+y,1/3+z
2/3-y,1/3+x-y,1/3+z
2/3-x+y,1/3-x,1/3+z
2/3+x-y,1/3-y,1/3-z
2/3-x,1/3-x+y,1/3-z
2/3+y,1/3+x,1/3-z
1/3+x,2/3+y,2/3+z
1/3-y,2/3+x-y,2/3+z
1/3-x+y,2/3-x,2/3+z
1/3+x-y,2/3-y,2/3-z
1/3-x,2/3-x+y,2/3-z
1/3+y,2/3+x,2/3-z
loop_
_atom_site_type_symbol
_atom_site_label
_atom_site_fract_x
_atom_site_fract_y
_atom_site_fract_z
Si Si1 0.402735 0.596487 0.930287
Si Si2 0.557997 0.738759 0.184247
Si Si3 0.909503 0.226834 0.908618
Si Si4 0.526484 0.739600 0.666768
Si Si5 0.741579 0.480343 0.051616
Si Si6 0.333334 0.042259 0.166667
O O1 0.405901 0.582562 0.779555
O O2 0.333213 0.556457 0.972286
O O3 0.430752 0.669193 0.945427
O O4 0.448131 0.584109 0.017751
O O5 0.534155 0.666667 0.166667
O O6 0.630557 0.773666 0.176027
O O7 0.527451 0.753984 0.063783
O O8 0.900120 0.161926 0.949984
O O9 0.976241 0.272920 0.848913
O O10 0.915169 0.260721 0.044035
O O11 0.499537 0.666667 0.666667
O O12 0.514589 0.756639 0.809244
#
# Coordination Sequence:
#
# PCOD9576870 Si02
#       6
#    18  18  18  18  18   9
#     4  10  21  34  53  74 101 139 174 222 257 307
#     4  10  21  32  50  75 107 139 175 208 252 311
#     4  11  20  32  48  78 110 149 176 203 254 306
#     4  10  20  33  51  75 106 137 177 211 249 308
#     4  10  20  36  52  73 102 139 176 217 262 305
#     4  10  20  28  52  68 114 158 172 196 246 308
#
# _framework density 17.26248
#
# number of rings (size 3 to 8) (size 9 to 14) (size 15 to 20)
#    0.000    1.818    2.727    2.545    5.091    0.727 
#    0.000    3.636    0.000    0.000    0.000    0.000 
#   27.273    0.000    0.000    0.000    0.000    0.000 
#
# Total GULP energy -184181.416724 kJ/mol
# GULP energy per Si atom -5581.255052 kJ/mol
# Density = 1.722319 g / cm^3
# Si number density = 17.262480 Si / 1000 Ang^3
#
#
#
# Elastic Constant Matrix: (Units=GPa)
#
#
# Indices 1 2 3 4 5 6 
#
# 1 61.7948 14.9159 -1.4147 -14.5373 0.0010 -0.0006
# 2 14.9159 61.7934 -1.4185 14.5346 -0.0053 0.0001
# 3 -1.4147 -1.4185 50.8215 -0.0043 -0.0074 0.0016
# 4 -14.5373 14.5346 -0.0043 42.2515 -0.0144 0.0023
# 5 0.0010 -0.0053 -0.0074 -0.0144 42.2334 -14.5344
# 6 -0.0006 0.0001 0.0016 0.0023 -14.5344 23.4386
#
#
#
# Elastic Compliance Matrix: (Units=1/GPa)
#
#
# Indices 1 2 3 4 5 6 
#
# 1 0.020084 -0.007034 0.000364 0.009330 0.000002 0.000001
# 2 -0.007034 0.020083 0.000364 -0.009329 0.000000 0.000000
# 3 0.000364 0.000364 0.019697 0.000002 0.000004 0.000001
# 4 0.009330 -0.009329 0.000002 0.030087 0.000010 0.000004
# 5 0.000002 0.000000 0.000004 0.000010 0.030102 0.018666
# 6 0.000001 0.000000 0.000001 0.000004 0.018666 0.054240
#
#
# Mechanical properties :
#
#
# Convention : Reuss Voigt Hill
#
# Bulk Modulus (GPa) = 21.16356 22.06391 21.61374
# Shear Modulus (GPa) = 24.67231 32.40649 28.53940
#
# Velocity S-wave (km/s) = 3.78464 4.33746 4.07044
# Velocity P-wave (km/s) = 5.60218 6.15580 5.88551
#
# Compressibility (1/GPa) = 0.04725103
#
# Stress axis : x y z
#
# Youngs Moduli (GPa) = 49.79185 49.79214 50.76915
#
# Poissons Ratio (x) = 0.35024 -0.01845
# Poissons Ratio (y) = 0.35024 -0.01848
# Poissons Ratio (z) = -0.01810 -0.01812
#
# Static dielectric constant tensor:
#      x y z
#    x 1.579300 0.000000 0.000000 
#    y 0.000000 1.579300 0.000000 
#    z 0.000000 0.000000 1.636960 
# 
# From -- ./inp_files/4004.got.cif
#   From: 2010.05.17/outbox.cif.g08.bks.cpg/sg155_3_cif.got.tgz:4004.got - 2010.05.20 10:44:35.
