data_PCOD9576373
_publ_section_title
;
Structure prediction by ZEFSAII (Michael W. Deem and Ramdas Pophale) SiO2 
 PCOD9576373
Probable space group: P 32 1 2
;
_chemical_formula_sum "Si O2"
_cell_formula_units_Z 24
_cell_length_a 13.896836
_cell_length_b 13.896836
_cell_length_c 7.022817
_cell_angle_alpha 90.000000
_cell_angle_beta 90.000000
_cell_angle_gamma 120.000000
_cell_volume 1174.556326
_symmetry_space_group_name_H-M "P 32 1 2"
_symmetry_group_IT_number 153
_symmetry_cell_setting 'hexagonal'
loop_
_space_group_symop_operation_xyz
x,y,z
-y,x-y,2/3+z
-x+y,-x,1/3+z
-y,-x,1/3-z
-x+y,y,2/3-z
x,x-y,-z
loop_
_atom_site_type_symbol
_atom_site_label
_atom_site_fract_x
_atom_site_fract_y
_atom_site_fract_z
Si Si1 0.564582 0.282291 0.000000
Si Si2 0.866684 0.133317 0.166667
Si Si3 0.233714 0.616857 0.500000
Si Si4 0.786628 0.893314 0.000000
Si Si5 0.643989 0.574280 0.589684
Si Si6 0.620095 0.742887 0.324471
O O1 0.631679 0.263357 0.833334
O O2 0.496982 0.321724 0.873268
O O3 0.744422 0.096145 0.259980
O O4 0.972673 0.151551 0.296584
O O5 0.316390 0.632779 0.333334
O O6 0.157098 0.487049 0.532028
O O7 0.712547 0.876492 0.811265
O O8 0.518101 0.481900 0.666667
O O9 0.649942 0.662821 0.438138
O O10 0.586926 0.793463 0.500000
#
# Coordination Sequence:
#
# PCOD9576373 Si02
#       6
#     3   3   3   3   6   6
#     4  12  24  48  71 106 153 196 250 302 384 478
#     4  12  28  52  80 114 152 212 272 328 408 474
#     4  12  26  42  70 106 148 192 238 302 382 458
#     4  12  28  52  77 110 153 200 270 324 392 470
#     4  12  27  46  78 111 154 200 258 326 399 477
#     4  12  27  47  72 109 149 193 253 316 383 461
#
# _framework density 20.433249
#
# number of rings (size 3 to 8) (size 9 to 14) (size 15 to 20)
#    0.000    0.000    6.250    3.000    8.750    2.000 
#    0.000    0.000    0.000    0.000    0.000    0.000 
#    0.000    0.000    0.000    0.000    0.000    0.000 
#
# Total GULP energy -133699.963414 kJ/mol
# GULP energy per Si atom -5570.831809 kJ/mol
# Density = 2.038674 g / cm^3
# Si number density = 20.433249 Si / 1000 Ang^3
#
#
#
# Elastic Constant Matrix: (Units=GPa)
#
#
# Indices 1 2 3 4 5 6 
#
# 1 95.9359 10.2570 20.6680 0.0000 1.3665 0.0000
# 2 10.2570 95.9359 20.6680 0.0000 -1.3665 0.0000
# 3 20.6680 20.6680 76.9290 0.0000 0.0000 0.0000
# 4 0.0000 0.0000 0.0000 55.6887 0.0000 -1.3665
# 5 1.3665 -1.3665 0.0000 0.0000 55.6887 0.0000
# 6 0.0000 0.0000 0.0000 -1.3665 0.0000 42.8394
#
#
#
# Elastic Compliance Matrix: (Units=1/GPa)
#
#
# Indices 1 2 3 4 5 6 
#
# 1 0.011099 -0.000582 -0.002825 0.000000 -0.000287 0.000000
# 2 -0.000582 0.011099 -0.002825 0.000000 0.000287 0.000000
# 3 -0.002825 -0.002825 0.014517 0.000000 0.000000 0.000000
# 4 0.000000 0.000000 0.000000 0.017971 0.000000 0.000573
# 5 -0.000287 0.000287 0.000000 0.000000 0.017971 0.000000
# 6 0.000000 0.000000 0.000000 0.000573 0.000000 0.023361
#
#
# Mechanical properties :
#
#
# Convention : Reuss Voigt Hill
#
# Bulk Modulus (GPa) = 41.23929 41.33186 41.28558
# Shear Modulus (GPa) = 42.89401 45.32389 44.10895
#
# Velocity S-wave (km/s) = 4.58670 4.71483 4.65121
# Velocity P-wave (km/s) = 6.94814 7.06478 7.00670
#
# Compressibility (1/GPa) = 0.02424872
#
# Stress axis : x y z
#
# Youngs Moduli (GPa) = 90.10118 90.10118 68.88391
#
# Poissons Ratio (x) = 0.05244 0.19463
# Poissons Ratio (y) = 0.05244 0.19463
# Poissons Ratio (z) = 0.25457 0.25457
#
# Static dielectric constant tensor:
#      x y z
#    x 1.689350 0.000000 0.000000 
#    y 0.000000 1.689350 0.000000 
#    z 0.000000 0.000000 1.653010 
# 
# From -- ./inp_files/322.got.cif
#   From: 2010.05.17/outbox.cif.g08.bks.cpg/sg153_1_cif.got.tgz:322.got - 2010.05.20 10:38:56.
