data_PCOD9576837
_publ_section_title
;
Structure prediction by ZEFSAII (Michael W. Deem and Ramdas Pophale) SiO2 
 PCOD9576837
Probable space group: R 3 2
;
_chemical_formula_sum "Si O2"
_cell_formula_units_Z 126
_cell_length_a 18.077694
_cell_length_b 18.077694
_cell_length_c 24.734831
_cell_angle_alpha 90.000000
_cell_angle_beta 90.000000
_cell_angle_gamma 120.000000
_cell_volume 7000.444886
_symmetry_space_group_name_H-M "R 3 2"
_symmetry_group_IT_number 155
_symmetry_cell_setting 'hexagonal'
loop_
_space_group_symop_operation_xyz
x,y,z
-y,x-y,z
-x+y,-x,z
x-y,-y,-z
-x,-x+y,-z
y,x,-z
2/3+x,1/3+y,1/3+z
2/3-y,1/3+x-y,1/3+z
2/3-x+y,1/3-x,1/3+z
2/3+x-y,1/3-y,1/3-z
2/3-x,1/3-x+y,1/3-z
2/3+y,1/3+x,1/3-z
1/3+x,2/3+y,2/3+z
1/3-y,2/3+x-y,2/3+z
1/3-x+y,2/3-x,2/3+z
1/3+x-y,2/3-y,2/3-z
1/3-x,2/3-x+y,2/3-z
1/3+y,2/3+x,2/3-z
loop_
_atom_site_type_symbol
_atom_site_label
_atom_site_fract_x
_atom_site_fract_y
_atom_site_fract_z
Si Si1 0.584185 0.760745 0.143891
Si Si2 0.686826 0.180716 0.602380
Si Si3 0.332290 0.909156 0.801999
Si Si4 0.982229 0.596472 0.882715
Si Si5 0.011142 0.431845 0.635013
Si Si6 0.497682 0.184194 0.095165
Si Si7 0.924399 0.511422 0.704886
O O1 0.523393 0.666667 0.166667
O O2 0.674766 0.767215 0.128847
O O3 0.600577 0.835494 0.187108
O O4 0.552289 0.776391 0.086745
O O5 0.724429 0.125751 0.575719
O O6 0.757555 0.278920 0.603359
O O7 0.607603 0.169536 0.567614
O O8 0.646539 0.142700 0.660313
O O9 0.276752 0.943419 0.833334
O O10 0.280620 0.866729 0.747098
O O11 0.343074 0.849228 0.844550
O O12 0.992746 0.659413 0.833334
O O13 0.931333 0.616213 0.928982
O O14 0.037998 0.371331 0.666667
O O15 0.920651 0.375525 0.605073
O O16 0.994879 0.495860 0.672980
#
# Coordination Sequence:
#
# PCOD9576837 Si02
#       7
#    18  18  18  18  18  18  18
#     4  10  19  36  62  88 117 157 210 251 288 369
#     4  11  22  38  55  80 121 156 196 257 301 371
#     4   9  17  33  57  85 109 140 199 251 296 343
#     4  10  22  38  58  83 121 165 198 244 315 383
#     4  10  19  33  58  85 117 144 195 266 295 343
#     4  10  22  36  56  85 111 157 200 244 311 366
#     4  10  22  35  54  90 119 157 200 241 313 366
#
# _framework density 17.998856
#
# number of rings (size 3 to 8) (size 9 to 14) (size 15 to 20)
#    0.000    2.000    2.857    0.714    0.000    6.286 
#    0.000    0.000    0.000    7.714    0.000    0.000 
#    0.000    0.000    0.000    0.000    0.000    0.000 
#
# Total GULP energy -233805.024887 kJ/mol
# GULP energy per Si atom -5566.786307 kJ/mol
# Density = 1.795789 g / cm^3
# Si number density = 17.998856 Si / 1000 Ang^3
#
#
#
# Elastic Constant Matrix: (Units=GPa)
#
#
# Indices 1 2 3 4 5 6 
#
# 1 60.0405 21.6133 38.3802 -3.7253 0.0001 0.0000
# 2 21.6133 60.0405 38.3802 3.7253 -0.0001 0.0000
# 3 38.3802 38.3802 99.0724 0.0000 0.0000 0.0000
# 4 -3.7253 3.7253 0.0000 19.6783 0.0000 -0.0001
# 5 0.0001 -0.0001 0.0000 0.0000 19.6783 -3.7253
# 6 0.0000 0.0000 0.0000 -0.0001 -3.7253 19.2136
#
#
#
# Elastic Compliance Matrix: (Units=1/GPa)
#
#
# Indices 1 2 3 4 5 6 
#
# 1 0.023138 -0.003877 -0.007462 0.005114 0.000000 0.000000
# 2 -0.003877 0.023138 -0.007462 -0.005114 0.000000 0.000000
# 3 -0.007462 -0.007462 0.015875 0.000000 0.000000 0.000000
# 4 0.005114 -0.005114 0.000000 0.052754 0.000000 0.000000
# 5 0.000000 0.000000 0.000000 0.000000 0.052754 0.010228
# 6 0.000000 0.000000 0.000000 0.000000 0.010228 0.054030
#
#
# Mechanical properties :
#
#
# Convention : Reuss Voigt Hill
#
# Bulk Modulus (GPa) = 40.73211 46.21122 43.47167
# Shear Modulus (GPa) = 18.69352 19.76601 19.22977
#
# Velocity S-wave (km/s) = 3.22622 3.31748 3.27217
# Velocity P-wave (km/s) = 6.04628 6.35645 6.20331
#
# Compressibility (1/GPa) = 0.02455066
#
# Stress axis : x y z
#
# Youngs Moduli (GPa) = 43.21874 43.21874 62.99228
#
# Poissons Ratio (x) = 0.16754 0.47004
# Poissons Ratio (y) = 0.16754 0.47004
# Poissons Ratio (z) = 0.32249 0.32249
#
# Static dielectric constant tensor:
#      x y z
#    x 1.619550 0.000000 0.000000 
#    y 0.000000 1.619550 0.000000 
#    z 0.000000 0.000000 1.636980 
# 
# From -- ./inp_files/7533.got.cif
#   From: 2010.05.17/outbox.cif.g08.bks.cpg/sg155_4_cif.got.tgz:7533.got - 2010.05.20 10:44:35.
