data_PCOD9576653
_publ_section_title
;
Structure prediction by ZEFSAII (Michael W. Deem and Ramdas Pophale) SiO2 
 PCOD9576653
Probable space group: P 32 2 1
;
_chemical_formula_sum "Si O2"
_cell_formula_units_Z 45
_cell_length_a 13.998841
_cell_length_b 13.998841
_cell_length_c 12.054693
_cell_angle_alpha 90.000000
_cell_angle_beta 90.000000
_cell_angle_gamma 120.000000
_cell_volume 2045.836619
_symmetry_space_group_name_H-M "P 32 2 1"
_symmetry_group_IT_number 154
_symmetry_cell_setting 'hexagonal'
loop_
_space_group_symop_operation_xyz
x,y,z
-y,x-y,2/3+z
-x+y,-x,1/3+z
x-y,-y,1/3-z
-x,-x+y,2/3-z
y,x,-z
loop_
_atom_site_type_symbol
_atom_site_label
_atom_site_fract_x
_atom_site_fract_y
_atom_site_fract_z
Si Si1 0.112641 0.618097 0.288832
Si Si2 0.832254 0.592793 0.172958
Si Si3 0.114081 0.000000 0.666667
Si Si4 0.267393 0.997046 0.859298
Si Si5 0.466254 0.251498 0.448907
Si Si6 0.060964 0.182490 0.725118
Si Si7 0.327133 0.596646 0.324170
Si Si8 0.704914 0.063236 0.927691
O O1 0.127453 0.717444 0.369880
O O2 0.222929 0.613977 0.308356
O O3 0.093359 0.639865 0.162460
O O4 0.000000 0.512979 0.333334
O O5 0.735043 0.622205 0.169306
O O6 0.937887 0.673277 0.098514
O O7 0.795103 0.476939 0.115034
O O8 0.180934 0.994202 0.771026
O O9 0.993195 0.893107 0.669605
O O10 0.261118 0.878734 0.858985
O O11 0.222679 0.009794 0.978012
O O12 0.557149 0.264430 0.357994
O O13 0.530619 0.310578 0.561488
O O14 0.400731 0.304181 0.386866
O O15 0.882587 0.882587 0.500000
O O16 0.164982 0.297707 0.760843
#
# Coordination Sequence:
#
# PCOD9576653 Si02
#       8
#     6   6   3   6   6   6   6   6
#     4  10  23  43  72  96 130 176 233 287 338 411
#     4  11  23  42  70  98 129 176 232 278 345 406
#     4  12  22  38  62 100 132 182 224 278 338 418
#     4  11  24  41  66  99 137 178 226 284 339 420
#     4  11  26  44  70  96 141 176 230 290 354 421
#     4  11  22  38  63  97 141 179 226 269 347 415
#     4  12  24  45  67  98 132 176 233 285 350 416
#     4  10  23  43  65  99 135 177 223 287 345 407
#
# _framework density 21.995889999999999
#
# number of rings (size 3 to 8) (size 9 to 14) (size 15 to 20)
#    0.000    1.067    2.667    3.600    1.867    0.533 
#    0.000    0.000    8.800    0.000    0.000    0.000 
#    0.000    0.000    0.000    0.000    0.000    0.000 
#
# Total GULP energy -251318.914430 kJ/mol
# GULP energy per Si atom -5584.864765 kJ/mol
# Density = 2.194583 g / cm^3
# Si number density = 21.995890 Si / 1000 Ang^3
#
#
#
# Elastic Constant Matrix: (Units=GPa)
#
#
# Indices 1 2 3 4 5 6 
#
# 1 56.3824 4.7565 14.5872 -4.8688 0.0000 0.0000
# 2 4.7565 56.3824 14.5872 4.8688 0.0000 0.0000
# 3 14.5872 14.5872 63.7565 0.0000 0.0000 0.0000
# 4 -4.8688 4.8688 0.0000 31.6538 0.0000 0.0000
# 5 0.0000 0.0000 0.0000 0.0000 31.6538 -4.8688
# 6 0.0000 0.0000 0.0000 0.0000 -4.8688 25.8129
#
#
#
# Elastic Compliance Matrix: (Units=1/GPa)
#
#
# Indices 1 2 3 4 5 6 
#
# 1 0.019155 -0.000794 -0.004201 0.003068 0.000000 0.000000
# 2 -0.000794 0.019155 -0.004201 -0.003068 0.000000 0.000000
# 3 -0.004201 -0.004201 0.017607 0.000000 0.000000 0.000000
# 4 0.003068 -0.003068 0.000000 0.032536 0.000000 0.000000
# 5 0.000000 0.000000 0.000000 0.000000 0.032536 0.006137
# 6 0.000000 0.000000 0.000000 0.000000 0.006137 0.039898
#
#
# Mechanical properties :
#
#
# Convention : Reuss Voigt Hill
#
# Bulk Modulus (GPa) = 26.64882 27.15363 26.90123
# Shear Modulus (GPa) = 26.07076 27.33013 26.70044
#
# Velocity S-wave (km/s) = 3.44649 3.52875 3.48786
# Velocity P-wave (km/s) = 5.28955 5.38279 5.33638
#
# Compressibility (1/GPa) = 0.03752512
#
# Stress axis : x y z
#
# Youngs Moduli (GPa) = 52.20613 52.20613 56.79573
#
# Poissons Ratio (x) = 0.04145 0.23859
# Poissons Ratio (y) = 0.04145 0.23859
# Poissons Ratio (z) = 0.21931 0.21931
#
# Static dielectric constant tensor:
#      x y z
#    x 1.699480 0.000000 0.000000 
#    y 0.000000 1.699480 0.000000 
#    z 0.000000 0.000000 1.917040 
# 
# From -- ./inp_files/1790.got.cif
#   From: 2010.05.17/outbox.cif.g08.bks.cpg/sg154_1_cif.got.tgz:1790.got - 2010.05.20 10:41:43.
