data_PCOD9576613
_publ_section_title
;
Structure prediction by ZEFSAII (Michael W. Deem and Ramdas Pophale) SiO2 
 PCOD9576613
Probable space group: P 32 2 1
;
_chemical_formula_sum "Si O2"
_cell_formula_units_Z 42
_cell_length_a 15.162888
_cell_length_b 15.162888
_cell_length_c 11.380238
_cell_angle_alpha 90.000000
_cell_angle_beta 90.000000
_cell_angle_gamma 120.000000
_cell_volume 2265.926563
_symmetry_space_group_name_H-M "P 32 2 1"
_symmetry_group_IT_number 154
_symmetry_cell_setting 'hexagonal'
loop_
_space_group_symop_operation_xyz
x,y,z
-y,x-y,2/3+z
-x+y,-x,1/3+z
x-y,-y,1/3-z
-x,-x+y,2/3-z
y,x,-z
loop_
_atom_site_type_symbol
_atom_site_label
_atom_site_fract_x
_atom_site_fract_y
_atom_site_fract_z
Si Si1 0.611030 0.343966 0.089833
Si Si2 0.322291 0.429399 0.066903
Si Si3 0.431495 0.852540 0.342487
Si Si4 0.602158 0.723087 0.367248
Si Si5 0.102767 0.709242 0.870514
Si Si6 0.153866 0.624593 0.643482
Si Si7 0.892445 0.258109 0.686092
O O1 0.603556 0.235151 0.085974
O O2 0.568627 0.360242 0.210808
O O3 0.728238 0.419751 0.064400
O O4 0.536846 0.347782 0.992293
O O5 0.364119 0.458151 0.198670
O O6 0.377526 0.377526 0.000000
O O7 0.199348 0.361185 0.046294
O O8 0.538352 0.928353 0.286122
O O9 0.357774 0.895519 0.368629
O O10 0.610363 0.811861 0.282631
O O11 0.492555 0.619456 0.339454
O O12 0.704117 0.715510 0.344841
O O13 0.610692 0.746450 0.508039
O O14 0.145205 0.686349 0.752958
O O15 0.000000 0.708089 0.833334
#
# Coordination Sequence:
#
# PCOD9576613 Si02
#       7
#     6   6   6   6   6   6   6
#     4  11  20  36  56  79 120 161 199 237 289 360
#     4  11  26  38  58  86 120 165 208 252 301 367
#     4  11  19  35  54  80 119 160 197 237 282 355
#     4  11  23  40  63  87 120 163 207 251 304 372
#     4  12  24  34  57  90 121 154 202 257 306 362
#     4  12  22  37  56  90 127 165 201 240 310 364
#     4  10  22  42  60  83 116 161 208 251 299 367
#
# _framework density 18.535464000000001
#
# number of rings (size 3 to 8) (size 9 to 14) (size 15 to 20)
#    0.000    0.857    5.714    4.286    6.000    0.000 
#    0.000    0.714    0.000    0.000    3.714    0.000 
#    0.000    0.000    0.000    0.000    0.000    0.000 
#
# Total GULP energy -234117.744153 kJ/mol
# GULP energy per Si atom -5574.232004 kJ/mol
# Density = 1.849328 g / cm^3
# Si number density = 18.535464 Si / 1000 Ang^3
#
#
#
# Elastic Constant Matrix: (Units=GPa)
#
#
# Indices 1 2 3 4 5 6 
#
# 1 70.4169 32.6455 34.4194 0.0914 0.0000 0.0000
# 2 32.6455 70.4169 34.4194 -0.0914 0.0000 0.0000
# 3 34.4194 34.4194 109.9497 0.0000 0.0000 0.0000
# 4 0.0914 -0.0914 0.0000 29.7844 0.0000 0.0000
# 5 0.0000 0.0000 0.0000 0.0000 29.7844 0.0914
# 6 0.0000 0.0000 0.0000 0.0000 0.0914 18.8857
#
#
#
# Elastic Compliance Matrix: (Units=1/GPa)
#
#
# Indices 1 2 3 4 5 6 
#
# 1 0.019372 -0.007104 -0.003840 -0.000081 0.000000 0.000000
# 2 -0.007104 0.019372 -0.003840 0.000081 0.000000 0.000000
# 3 -0.003840 -0.003840 0.011500 0.000000 0.000000 0.000000
# 4 -0.000081 0.000081 0.000000 0.033575 0.000000 0.000000
# 5 0.000000 0.000000 0.000000 0.000000 0.033575 -0.000163
# 6 0.000000 0.000000 0.000000 0.000000 -0.000163 0.052951
#
#
# Mechanical properties :
#
#
# Convention : Reuss Voigt Hill
#
# Bulk Modulus (GPa) = 48.37047 50.41687 49.39367
# Shear Modulus (GPa) = 24.17742 25.64420 24.91081
#
# Velocity S-wave (km/s) = 3.61555 3.72361 3.66997
# Velocity P-wave (km/s) = 6.60170 6.76360 6.68314
#
# Compressibility (1/GPa) = 0.02067377
#
# Stress axis : x y z
#
# Youngs Moduli (GPa) = 51.62163 51.62163 86.95992
#
# Poissons Ratio (x) = 0.36670 0.33397
# Poissons Ratio (y) = 0.36670 0.33397
# Poissons Ratio (z) = 0.19825 0.19825
#
# Static dielectric constant tensor:
#      x y z
#    x 1.691750 0.000000 0.000000 
#    y 0.000000 1.691750 0.000000 
#    z 0.000000 0.000000 1.697440 
# 
# From -- ./inp_files/1723.got.cif
#   From: 2010.05.17/outbox.cif.g08.bks.cpg/sg154_1_cif.got.tgz:1723.got - 2010.05.20 10:41:43.
