data_PCOD9576570
_publ_section_title
;
Structure prediction by ZEFSAII (Michael W. Deem and Ramdas Pophale) SiO2 
 PCOD9576570
Probable space group: P 32 2 1
;
_chemical_formula_sum "Si O2"
_cell_formula_units_Z 42
_cell_length_a 11.854007
_cell_length_b 11.854007
_cell_length_c 17.931255
_cell_angle_alpha 90.000000
_cell_angle_beta 90.000000
_cell_angle_gamma 120.000000
_cell_volume 2182.085066
_symmetry_space_group_name_H-M "P 32 2 1"
_symmetry_group_IT_number 154
_symmetry_cell_setting 'hexagonal'
loop_
_space_group_symop_operation_xyz
x,y,z
-y,x-y,2/3+z
-x+y,-x,1/3+z
x-y,-y,1/3-z
-x,-x+y,2/3-z
y,x,-z
loop_
_atom_site_type_symbol
_atom_site_label
_atom_site_fract_x
_atom_site_fract_y
_atom_site_fract_z
Si Si1 0.173452 0.673644 0.045840
Si Si2 0.428059 0.802903 0.714286
Si Si3 0.665022 0.051725 0.482400
Si Si4 0.379680 0.039828 0.252222
Si Si5 0.613848 0.002148 0.078687
Si Si6 0.319425 0.208286 0.051169
Si Si7 0.802257 0.650523 0.012612
O O1 0.278648 0.629812 0.058256
O O2 0.219906 0.819102 0.071076
O O3 0.042173 0.589429 0.093782
O O4 0.143704 0.672628 0.958161
O O5 0.495500 0.872061 0.792316
O O6 0.542617 0.854056 0.652770
O O7 0.318148 0.831646 0.683188
O O8 0.786474 0.149130 0.429131
O O9 0.692927 0.957241 0.535839
O O10 0.516717 0.053917 0.276870
O O11 0.367986 0.000000 0.166667
O O12 0.246144 0.926507 0.285694
O O13 0.625980 0.000000 0.166667
O O14 0.673429 0.922871 0.039467
O O15 0.209103 0.209103 0.000000
O O16 0.756358 0.756358 0.000000
#
# Coordination Sequence:
#
# PCOD9576570 Si02
#       7
#     6   6   6   6   6   6   6
#     4  11  22  40  64  99 127 169 222 267 341 404
#     4  11  23  38  66 102 132 167 219 284 340 411
#     4  10  24  40  64  92 141 175 219 276 343 409
#     4  11  20  38  67  89 126 170 212 276 324 397
#     4  10  23  43  61  95 129 168 221 273 331 400
#     4  10  21  41  62  94 127 168 227 270 325 401
#     4  11  24  43  65  96 138 178 218 282 348 412
#
# _framework density 19.247647000000001
#
# number of rings (size 3 to 8) (size 9 to 14) (size 15 to 20)
#    0.000    1.429    4.286    1.286    4.000    1.143 
#    5.143    2.857    0.000    0.000    0.000    0.000 
#    0.000    0.000    0.000    0.000    0.000    0.000 
#
# Total GULP energy -234066.043742 kJ/mol
# GULP energy per Si atom -5573.001041 kJ/mol
# Density = 1.920384 g / cm^3
# Si number density = 19.247647 Si / 1000 Ang^3
#
#
#
# Elastic Constant Matrix: (Units=GPa)
#
#
# Indices 1 2 3 4 5 6 
#
# 1 71.3378 -6.7325 15.5578 5.1733 0.0004 0.0000
# 2 -6.7325 71.3378 15.5578 -5.1733 -0.0004 0.0000
# 3 15.5578 15.5578 110.2189 0.0000 0.0000 0.0000
# 4 5.1733 -5.1733 0.0000 42.2659 0.0000 -0.0004
# 5 0.0004 -0.0004 0.0000 0.0000 42.2659 5.1733
# 6 0.0000 0.0000 0.0000 -0.0004 5.1733 39.0351
#
#
#
# Elastic Compliance Matrix: (Units=1/GPa)
#
#
# Indices 1 2 3 4 5 6 
#
# 1 0.014814 0.001794 -0.002344 -0.001594 0.000000 0.000000
# 2 0.001794 0.014814 -0.002344 0.001594 0.000000 0.000000
# 3 -0.002344 -0.002344 0.009735 0.000000 0.000000 0.000000
# 4 -0.001594 0.001594 0.000000 0.024050 0.000000 0.000000
# 5 0.000000 0.000000 0.000000 0.000000 0.024050 -0.003187
# 6 0.000000 0.000000 0.000000 0.000000 -0.003187 0.026040
#
#
# Mechanical properties :
#
#
# Convention : Reuss Voigt Hill
#
# Bulk Modulus (GPa) = 29.78583 33.51785 31.65184
# Shear Modulus (GPa) = 38.31918 39.94748 39.13333
#
# Velocity S-wave (km/s) = 4.46673 4.56065 4.51394
# Velocity P-wave (km/s) = 6.48929 6.72194 6.60664
#
# Compressibility (1/GPa) = 0.03357301
#
# Stress axis : x y z
#
# Youngs Moduli (GPa) = 67.50417 67.50417 102.72591
#
# Poissons Ratio (x) = -0.12108 0.24081
# Poissons Ratio (y) = -0.12108 0.24081
# Poissons Ratio (z) = 0.15824 0.15824
#
# Static dielectric constant tensor:
#      x y z
#    x 1.589400 0.000000 0.000000 
#    y 0.000000 1.589400 0.000000 
#    z 0.000000 0.000000 1.703770 
# 
# From -- ./inp_files/2437.got.cif
#   From: 2010.05.17/outbox.cif.g08.bks.cpg/sg154_2_cif.got.tgz:2437.got - 2010.05.20 10:41:43.
