data_PCOD9576207
_publ_section_title
;
Structure prediction by ZEFSAII (Michael W. Deem and Ramdas Pophale) SiO2 
 PCOD9576207
Probable space group: P 31 2 1
;
_chemical_formula_sum "Si O2"
_cell_formula_units_Z 15
_cell_length_a 7.334288
_cell_length_b 7.334288
_cell_length_c 11.588323
_cell_angle_alpha 90.000000
_cell_angle_beta 90.000000
_cell_angle_gamma 120.000000
_cell_volume 539.842588
_symmetry_space_group_name_H-M "P 31 2 1"
_symmetry_group_IT_number 152
_symmetry_cell_setting 'hexagonal'
loop_
_space_group_symop_operation_xyz
x,y,z
-y,x-y,1/3+z
-x+y,-x,2/3+z
x-y,-y,2/3-z
-x,-x+y,1/3-z
y,x,-z
loop_
_atom_site_type_symbol
_atom_site_label
_atom_site_fract_x
_atom_site_fract_y
_atom_site_fract_z
Si Si1 0.745986 0.413550 0.357078
Si Si2 0.227883 0.340983 0.798525
Si Si3 0.757316 0.000000 0.833334
O O1 0.766824 0.225544 0.415508
O O2 0.487414 0.789234 0.028861
O O3 0.863498 0.554254 0.245225
O O4 0.863940 0.601326 0.453795
O O5 0.988059 0.165571 0.785489
#
# Coordination Sequence:
#
# PCOD9576207 Si02
#       3
#     6   6   3
#     4  12  28  54  85 131 181 240 314 377 465 541
#     4  12  29  53  88 124 185 241 303 392 457 551
#     4  12  28  56  88 134 180 250 318 372 472 558
#
# _framework density 27.785876999999999
#
# number of rings (size 3 to 8) (size 9 to 14) (size 15 to 20)
#    0.000    0.000    4.000    3.600    5.600    3.200 
#    7.200    0.000    0.000    0.000    0.000    0.000 
#    0.000    0.000    0.000    0.000    0.000    0.000 
#
# Total GULP energy -83705.817744 kJ/mol
# GULP energy per Si atom -5580.387850 kJ/mol
# Density = 2.772264 g / cm^3
# Si number density = 27.785877 Si / 1000 Ang^3
#
#
#
# Elastic Constant Matrix: (Units=GPa)
#
#
# Indices 1 2 3 4 5 6 
#
# 1 232.2548 99.4751 84.4904 22.1070 -0.0002 0.0000
# 2 99.4751 232.2548 84.4904 -22.1070 0.0002 0.0000
# 3 84.4904 84.4904 110.1413 0.0000 0.0000 0.0000
# 4 22.1070 -22.1070 0.0000 31.2362 0.0000 0.0002
# 5 -0.0002 0.0002 0.0000 0.0000 31.2362 22.1070
# 6 0.0000 0.0000 0.0000 0.0002 22.1070 66.3899
#
#
#
# Elastic Compliance Matrix: (Units=1/GPa)
#
#
# Indices 1 2 3 4 5 6 
#
# 1 0.007401 -0.002453 -0.003796 -0.006974 0.000000 0.000000
# 2 -0.002453 0.007401 -0.003796 0.006974 0.000000 0.000000
# 3 -0.003796 -0.003796 0.014903 0.000000 0.000000 0.000000
# 4 -0.006974 0.006974 0.000000 0.041885 0.000000 0.000000
# 5 0.000000 0.000000 0.000000 0.000000 0.041885 -0.013947
# 6 0.000000 0.000000 0.000000 0.000000 -0.013947 0.019707
#
#
# Mechanical properties :
#
#
# Convention : Reuss Voigt Hill
#
# Bulk Modulus (GPa) = 103.99355 123.50697 113.75026
# Shear Modulus (GPa) = 31.95417 46.18545 39.06981
#
# Velocity S-wave (km/s) = 3.39487 4.08142 3.75387
# Velocity P-wave (km/s) = 7.27151 8.17048 7.73407
#
# Compressibility (1/GPa) = 0.00961598
#
# Stress axis : x y z
#
# Youngs Moduli (GPa) = 135.12282 135.12282 67.10254
#
# Poissons Ratio (x) = 0.33142 0.25470
# Poissons Ratio (y) = 0.33142 0.25470
# Poissons Ratio (z) = 0.51288 0.51288
#
# Static dielectric constant tensor:
#      x y z
#    x 2.234450 0.000000 0.000000 
#    y 0.000000 2.234450 0.000000 
#    z 0.000000 0.000000 6.401160 
# 
# From -- ./inp_files/1404.got.cif
#   From: 2010.05.17/outbox.cif.g08.bks.cpg/sg152_1_cif.got.tgz:1404.got - 2010.05.20 10:36:06.
