data_PCOD9576511
_publ_section_title
;
Structure prediction by ZEFSAII (Michael W. Deem and Ramdas Pophale) SiO2 
 PCOD9576511
Probable space group: P 32 2 1
;
_chemical_formula_sum "Si O2"
_cell_formula_units_Z 36
_cell_length_a 11.766150
_cell_length_b 11.766150
_cell_length_c 14.510849
_cell_angle_alpha 90.000000
_cell_angle_beta 90.000000
_cell_angle_gamma 120.000000
_cell_volume 1739.771515
_symmetry_space_group_name_H-M "P 32 2 1"
_symmetry_group_IT_number 154
_symmetry_cell_setting 'hexagonal'
loop_
_space_group_symop_operation_xyz
x,y,z
-y,x-y,2/3+z
-x+y,-x,1/3+z
x-y,-y,1/3-z
-x,-x+y,2/3-z
y,x,-z
loop_
_atom_site_type_symbol
_atom_site_label
_atom_site_fract_x
_atom_site_fract_y
_atom_site_fract_z
Si Si1 0.656192 0.835646 0.411067
Si Si2 0.287278 0.251986 0.893102
Si Si3 0.404965 0.785644 0.120806
Si Si4 0.929267 0.509559 0.697727
Si Si5 0.661678 0.684887 0.743996
Si Si6 0.512004 0.090922 0.576427
O O1 0.509373 0.737522 0.448932
O O2 0.633531 0.934033 0.349046
O O3 0.696981 0.755540 0.341937
O O4 0.741959 0.920336 0.496464
O O5 0.297719 0.122960 0.881183
O O6 0.432809 0.377882 0.877452
O O7 0.257611 0.257611 0.000000
O O8 0.453022 0.814658 0.226274
O O9 0.422209 0.670376 0.076406
O O10 0.492599 0.926217 0.072520
O O11 0.905311 0.389291 0.632910
O O12 0.651468 0.591286 0.827673
O O13 0.444598 0.000000 0.666667
#
# Coordination Sequence:
#
# PCOD9576511 Si02
#       6
#     6   6   6   6   6   6
#     4  11  22  40  70  97 129 184 221 280 346 404
#     4  11  25  43  65  98 138 172 230 283 343 413
#     4  10  22  38  64  94 135 166 230 276 339 409
#     4  10  20  39  62  96 127 175 218 279 330 412
#     4  11  23  42  69  98 136 178 231 280 344 414
#     4  11  24  38  62 103 137 178 214 294 353 398
#
# _framework density 20.692371000000001
#
# number of rings (size 3 to 8) (size 9 to 14) (size 15 to 20)
#    0.000    1.333    3.333    2.000    2.333    3.333 
#    0.000    0.000    7.333    0.000    0.000    0.000 
#    0.000    0.000    0.000    0.000    0.000    0.000 
#
# Total GULP energy -200928.832515 kJ/mol
# GULP energy per Si atom -5581.356459 kJ/mol
# Density = 2.064527 g / cm^3
# Si number density = 20.692371 Si / 1000 Ang^3
#
#
#
# Elastic Constant Matrix: (Units=GPa)
#
#
# Indices 1 2 3 4 5 6 
#
# 1 80.9281 41.2133 36.4902 -4.9659 0.0000 0.0000
# 2 41.2133 80.9281 36.4902 4.9659 0.0000 0.0000
# 3 36.4902 36.4902 79.1054 0.0000 0.0000 0.0000
# 4 -4.9659 4.9659 0.0000 31.4710 0.0000 0.0000
# 5 0.0000 0.0000 0.0000 0.0000 31.4710 -4.9659
# 6 0.0000 0.0000 0.0000 0.0000 -4.9659 19.8574
#
#
#
# Elastic Compliance Matrix: (Units=1/GPa)
#
#
# Indices 1 2 3 4 5 6 
#
# 1 0.018758 -0.007456 -0.005214 0.004136 0.000000 0.000000
# 2 -0.007456 0.018758 -0.005214 -0.004136 0.000000 0.000000
# 3 -0.005214 -0.005214 0.017451 0.000000 0.000000 0.000000
# 4 0.004136 -0.004136 0.000000 0.033081 0.000000 0.000000
# 5 0.000000 0.000000 0.000000 0.000000 0.033081 0.008273
# 6 0.000000 0.000000 0.000000 0.000000 0.008273 0.052428
#
#
# Mechanical properties :
#
#
# Convention : Reuss Voigt Hill
#
# Bulk Modulus (GPa) = 52.07903 52.14988 52.11445
# Shear Modulus (GPa) = 23.17779 25.01108 24.09443
#
# Velocity S-wave (km/s) = 3.35044 3.48042 3.41605
# Velocity P-wave (km/s) = 6.33957 6.43493 6.38743
#
# Compressibility (1/GPa) = 0.01920159
#
# Stress axis : x y z
#
# Youngs Moduli (GPa) = 53.30999 53.30999 57.30233
#
# Poissons Ratio (x) = 0.39747 0.29875
# Poissons Ratio (y) = 0.39747 0.29875
# Poissons Ratio (z) = 0.27794 0.27794
#
# Static dielectric constant tensor:
#      x y z
#    x 1.776890 0.000000 0.000000 
#    y 0.000000 1.776890 0.000000 
#    z 0.000000 0.000000 1.812200 
# 
# From -- ./inp_files/1989.got.cif
#   From: 2010.05.17/outbox.cif.g08.bks.cpg/sg154_1_cif.got.tgz:1989.got - 2010.05.20 10:41:43.
