data_PCOD9576173
_publ_section_title
;
Structure prediction by ZEFSAII (Michael W. Deem and Ramdas Pophale) SiO2 
 PCOD9576173
Probable space group: P 31 2 1
;
_chemical_formula_sum "Si O2"
_cell_formula_units_Z 18
_cell_length_a 7.649255
_cell_length_b 7.649255
_cell_length_c 11.725985
_cell_angle_alpha 90.000000
_cell_angle_beta 90.000000
_cell_angle_gamma 120.000000
_cell_volume 594.180294
_symmetry_space_group_name_H-M "P 31 2 1"
_symmetry_group_IT_number 152
_symmetry_cell_setting 'hexagonal'
loop_
_space_group_symop_operation_xyz
x,y,z
-y,x-y,1/3+z
-x+y,-x,2/3+z
x-y,-y,2/3-z
-x,-x+y,1/3-z
y,x,-z
loop_
_atom_site_type_symbol
_atom_site_label
_atom_site_fract_x
_atom_site_fract_y
_atom_site_fract_z
Si Si1 0.222564 0.343653 0.715868
Si Si2 0.701135 0.258328 0.853549
Si Si3 0.272786 0.034012 0.981449
O O1 0.329781 0.486215 0.603470
O O2 0.264693 0.166123 0.753315
O O3 0.000000 0.233352 0.666667
O O4 0.283694 0.504207 0.816402
O O5 0.360026 0.106895 0.575342
O O6 0.498656 0.164330 0.930887
O O7 0.173814 0.173814 0.000000
#
# Coordination Sequence:
#
# PCOD9576173 Si02
#       3
#     6   6   6
#     4  11  28  54  84 122 169 219 284 352 420 507
#     4  12  26  54  81 120 163 220 276 345 425 495
#     4  11  26  52  79 114 162 216 273 343 420 497
#
# _framework density 30.293834
#
# number of rings (size 3 to 8) (size 9 to 14) (size 15 to 20)
#    0.000    0.667    3.333    2.000    4.667    0.000 
#   24.000    0.000    0.000    0.000    0.000    0.000 
#    0.000    0.000    0.000    0.000    0.000    0.000 
#
# Total GULP energy -100771.057729 kJ/mol
# GULP energy per Si atom -5598.392096 kJ/mol
# Density = 3.022488 g / cm^3
# Si number density = 30.293834 Si / 1000 Ang^3
#
#
#
# Elastic Constant Matrix: (Units=GPa)
#
#
# Indices 1 2 3 4 5 6 
#
# 1 237.7449 108.8241 50.1830 -20.3375 0.0000 0.0000
# 2 108.8241 237.7449 50.1830 20.3375 0.0000 0.0000
# 3 50.1830 50.1830 156.4693 0.0000 0.0000 0.0000
# 4 -20.3375 20.3375 0.0000 56.2724 0.0000 0.0000
# 5 0.0000 0.0000 0.0000 0.0000 56.2724 -20.3375
# 6 0.0000 0.0000 0.0000 0.0000 -20.3375 64.4604
#
#
#
# Elastic Compliance Matrix: (Units=1/GPa)
#
#
# Indices 1 2 3 4 5 6 
#
# 1 0.005968 -0.002787 -0.001020 0.003164 0.000000 0.000000
# 2 -0.002787 0.005968 -0.001020 -0.003164 0.000000 0.000000
# 3 -0.001020 -0.001020 0.007045 0.000000 0.000000 0.000000
# 4 0.003164 -0.003164 0.000000 0.020058 0.000000 0.000000
# 5 0.000000 0.000000 0.000000 0.000000 0.020058 0.006328
# 6 0.000000 0.000000 0.000000 0.000000 0.006328 0.017510
#
#
# Mechanical properties :
#
#
# Convention : Reuss Voigt Hill
#
# Bulk Modulus (GPa) = 107.22178 116.70435 111.96307
# Shear Modulus (GPa) = 55.94677 63.58561 59.76619
#
# Velocity S-wave (km/s) = 4.30211 4.58641 4.44653
# Velocity P-wave (km/s) = 7.75553 8.16423 7.96250
#
# Compressibility (1/GPa) = 0.00932646
#
# Stress axis : x y z
#
# Youngs Moduli (GPa) = 167.56201 167.56201 141.93639
#
# Poissons Ratio (x) = 0.46701 0.14480
# Poissons Ratio (y) = 0.46701 0.14480
# Poissons Ratio (z) = 0.17094 0.17094
#
# Static dielectric constant tensor:
#      x y z
#    x 2.349260 0.000000 0.000000 
#    y 0.000000 2.349260 0.000000 
#    z 0.000000 0.000000 2.669460 
# 
# From -- ./inp_files/777.got.cif
#   From: 2010.05.17/outbox.cif.g08.bks.cpg/sg152_1_cif.got.tgz:777.got - 2010.05.20 10:36:06.
