data_PCOD9576960
_publ_section_title
;
Structure prediction by ZEFSAII (Michael W. Deem and Ramdas Pophale) SiO2 
 PCOD9576960
Probable space group: R 3 2
;
_chemical_formula_sum "Si O2"
_cell_formula_units_Z 108
_cell_length_a 17.837321
_cell_length_b 17.837321
_cell_length_c 20.283867
_cell_angle_alpha 90.000000
_cell_angle_beta 90.000000
_cell_angle_gamma 120.000000
_cell_volume 5589.084065
_symmetry_space_group_name_H-M "R 3 2"
_symmetry_group_IT_number 155
_symmetry_cell_setting 'hexagonal'
loop_
_space_group_symop_operation_xyz
x,y,z
-y,x-y,z
-x+y,-x,z
x-y,-y,-z
-x,-x+y,-z
y,x,-z
2/3+x,1/3+y,1/3+z
2/3-y,1/3+x-y,1/3+z
2/3-x+y,1/3-x,1/3+z
2/3+x-y,1/3-y,1/3-z
2/3-x,1/3-x+y,1/3-z
2/3+y,1/3+x,1/3-z
1/3+x,2/3+y,2/3+z
1/3-y,2/3+x-y,2/3+z
1/3-x+y,2/3-x,2/3+z
1/3+x-y,2/3-y,2/3-z
1/3-x,2/3-x+y,2/3-z
1/3+y,2/3+x,2/3-z
loop_
_atom_site_type_symbol
_atom_site_label
_atom_site_fract_x
_atom_site_fract_y
_atom_site_fract_z
Si Si1 0.925040 0.504061 0.165662
Si Si2 0.580554 0.679367 0.430058
Si Si3 0.362742 0.232210 0.958433
Si Si4 0.242111 0.393940 0.892691
Si Si5 0.774125 0.773212 0.609595
Si Si6 0.178267 0.725974 0.224467
O O1 0.902051 0.406923 0.148676
O O2 0.858631 0.523477 0.125056
O O3 0.947431 0.533739 0.242465
O O4 0.020417 0.560497 0.134338
O O5 0.507144 0.581409 0.443922
O O6 0.681863 0.707038 0.425026
O O7 0.568270 0.695541 0.353129
O O8 0.398610 0.166848 0.942292
O O9 0.445325 0.326481 0.944360
O O10 0.350127 0.234133 0.036459
O O11 0.235962 0.333334 0.833334
O O12 0.866580 0.806571 0.576354
O O13 0.180260 0.666667 0.166667
#
# Coordination Sequence:
#
# PCOD9576960 Si02
#       6
#    18  18  18  18  18  18
#     4  10  21  37  58  82 113 148 186 237 288 342
#     4   9  20  36  57  81 111 155 189 235 286 333
#     4  10  21  36  58  84 115 153 186 230 288 336
#     4  11  23  37  57  86 111 143 198 244 280 338
#     4   9  18  35  56  81 117 153 191 224 272 346
#     4   9  18  32  55  85 113 147 182 218 279 344
#
# _framework density 19.32338
#
# number of rings (size 3 to 8) (size 9 to 14) (size 15 to 20)
#    0.000    2.333    0.000    2.500    2.333    9.333 
#    2.000    0.000    0.000    0.000    0.000    0.000 
#    0.000    0.000    0.000    0.000    0.000    0.000 
#
# Total GULP energy -200524.436344 kJ/mol
# GULP energy per Si atom -5570.123232 kJ/mol
# Density = 1.927940 g / cm^3
# Si number density = 19.323380 Si / 1000 Ang^3
#
#
#
# Elastic Constant Matrix: (Units=GPa)
#
#
# Indices 1 2 3 4 5 6 
#
# 1 36.1955 11.5304 32.2125 -1.4587 0.0003 0.0000
# 2 11.5304 36.1955 32.2125 1.4587 -0.0003 0.0000
# 3 32.2125 32.2125 112.5033 0.0000 0.0000 0.0000
# 4 -1.4587 1.4587 0.0000 25.1584 0.0000 -0.0003
# 5 0.0003 -0.0003 0.0000 0.0000 25.1584 -1.4587
# 6 0.0000 0.0000 0.0000 -0.0003 -1.4587 12.3325
#
#
#
# Elastic Compliance Matrix: (Units=1/GPa)
#
#
# Indices 1 2 3 4 5 6 
#
# 1 0.037488 -0.003335 -0.009779 0.002367 -0.000001 0.000000
# 2 -0.003335 0.037488 -0.009779 -0.002367 0.000001 0.000000
# 3 -0.009779 -0.009779 0.014489 0.000000 0.000000 0.000000
# 4 0.002367 -0.002367 0.000000 0.040023 0.000000 0.000001
# 5 -0.000001 0.000001 0.000000 0.000000 0.040023 0.004734
# 6 0.000000 0.000000 0.000000 0.000001 0.004734 0.081646
#
#
# Mechanical properties :
#
#
# Convention : Reuss Voigt Hill
#
# Bulk Modulus (GPa) = 22.89394 37.42280 30.15837
# Shear Modulus (GPa) = 16.05125 19.79246 17.92185
#
# Velocity S-wave (km/s) = 2.88525 3.20390 3.04874
# Velocity P-wave (km/s) = 4.79302 5.75285 5.29473
#
# Compressibility (1/GPa) = 0.04367968
#
# Stress axis : x y z
#
# Youngs Moduli (GPa) = 26.67496 26.67496 69.01983
#
# Poissons Ratio (x) = 0.08895 0.67495
# Poissons Ratio (y) = 0.08895 0.67495
# Poissons Ratio (z) = 0.26086 0.26086
#
# Static dielectric constant tensor:
#      x y z
#    x 1.700060 0.000000 0.000000 
#    y 0.000000 1.700060 0.000000 
#    z 0.000000 0.000000 1.749110 
# 
# From -- ./inp_files/7478.got.cif
#   From: 2010.05.17/outbox.cif.g08.bks.cpg/sg155_4_cif.got.tgz:7478.got - 2010.05.20 10:44:35.
