data_PCOD9576743
_publ_section_title
;
Structure prediction by ZEFSAII (Michael W. Deem and Ramdas Pophale) SiO2 
 PCOD9576743
Probable space group: P 32 2 1
;
_chemical_formula_sum "Si O2"
_cell_formula_units_Z 21
_cell_length_a 7.989926
_cell_length_b 7.989926
_cell_length_c 14.259255
_cell_angle_alpha 90.000000
_cell_angle_beta 90.000000
_cell_angle_gamma 120.000000
_cell_volume 788.338944
_symmetry_space_group_name_H-M "P 32 2 1"
_symmetry_group_IT_number 154
_symmetry_cell_setting 'hexagonal'
loop_
_space_group_symop_operation_xyz
x,y,z
-y,x-y,2/3+z
-x+y,-x,1/3+z
x-y,-y,1/3-z
-x,-x+y,2/3-z
y,x,-z
loop_
_atom_site_type_symbol
_atom_site_label
_atom_site_fract_x
_atom_site_fract_y
_atom_site_fract_z
Si Si1 0.320064 0.204170 0.747099
Si Si2 0.590099 0.154561 0.045977
Si Si3 0.793501 0.793501 0.500000
Si Si4 0.385776 0.843557 0.778180
O O1 0.384535 0.367271 0.665828
O O2 0.098532 0.127147 0.761613
O O3 0.365012 0.029417 0.753107
O O4 0.405948 0.328780 0.841699
O O5 0.624781 0.316120 0.967062
O O6 0.735368 0.248195 0.133289
O O7 0.384036 0.085689 0.092173
#
# Coordination Sequence:
#
# PCOD9576743 Si02
#       4
#     6   6   3   6
#     4  12  27  53  85 132 173 245 310 379 474 582
#     4  12  27  60  89 130 191 246 319 401 475 581
#     4  12  28  54  86 130 178 232 314 388 470 568
#     4  12  28  56  90 127 186 250 308 394 485 563
#
# _framework density 26.638289
#
# number of rings (size 3 to 8) (size 9 to 14) (size 15 to 20)
#    0.000    0.000    5.714    1.714    0.000    5.714 
#   10.286    0.000    0.000    0.000    0.000    0.000 
#    0.000    0.000    0.000    0.000    0.000    0.000 
#
# Total GULP energy -117308.834487 kJ/mol
# GULP energy per Si atom -5586.134976 kJ/mol
# Density = 2.657766 g / cm^3
# Si number density = 26.638289 Si / 1000 Ang^3
#
#
#
# Elastic Constant Matrix: (Units=GPa)
#
#
# Indices 1 2 3 4 5 6 
#
# 1 107.3357 22.8067 73.9195 20.7821 0.0000 0.0000
# 2 22.8067 107.3357 73.9195 -20.7821 0.0000 0.0000
# 3 73.9195 73.9195 210.1302 0.0000 0.0000 0.0000
# 4 20.7821 -20.7821 0.0000 -26.3155 0.0000 0.0000
# 5 0.0000 0.0000 0.0000 0.0000 -26.3155 20.7821
# 6 0.0000 0.0000 0.0000 0.0000 20.7821 42.2645
#
#
#
# Elastic Compliance Matrix: (Units=1/GPa)
#
#
# Indices 1 2 3 4 5 6 
#
# 1 0.010660 0.002138 -0.004502 0.006729 0.000000 0.000000
# 2 0.002138 0.010660 -0.004502 -0.006729 0.000000 0.000000
# 3 -0.004502 -0.004502 0.007926 0.000000 0.000000 0.000000
# 4 0.006729 -0.006729 0.000000 -0.027372 0.000000 0.000000
# 5 0.000000 0.000000 0.000000 0.000000 -0.027372 0.013459
# 6 0.000000 0.000000 0.000000 0.000000 0.013459 0.017043
#
#
# Mechanical properties :
#
#
# Convention : Reuss Voigt Hill
#
# Bulk Modulus (GPa) = 64.45647 85.12147 74.78897
# Shear Modulus (GPa) = 478.52688 14.87041 246.69864
#
# Velocity S-wave (km/s) = 13.41748 2.36526 9.63388
# Velocity P-wave (km/s) = 16.25693 6.28357 12.32418
#
# Compressibility (1/GPa) = 0.01551435
#
# Stress axis : x y z
#
# Youngs Moduli (GPa) = 93.81065 93.81065 126.15916
#
# Poissons Ratio (x) = -0.20061 0.56799
# Poissons Ratio (y) = -0.20061 0.56799
# Poissons Ratio (z) = 0.42235 0.42235
#
# Static dielectric constant tensor:
#      x y z
#    x 2.413670 0.000000 0.000000 
#    y 0.000000 2.413670 0.000000 
#    z 0.000000 0.000000 2.117660 
# 
# From -- ./inp_files/2263.got.cif
#   From: 2010.05.17/outbox.cif.g08.bks.cpg/sg154_2_cif.got.tgz:2263.got - 2010.05.20 10:41:43.
