data_PCOD9576198
_publ_section_title
;
Structure prediction by ZEFSAII (Michael W. Deem and Ramdas Pophale) SiO2 
 PCOD9576198
Probable space group: P 31 2 1
;
_chemical_formula_sum "Si O2"
_cell_formula_units_Z 18
_cell_length_a 7.770762
_cell_length_b 7.770762
_cell_length_c 12.153798
_cell_angle_alpha 90.000000
_cell_angle_beta 90.000000
_cell_angle_gamma 120.000000
_cell_volume 635.579471
_symmetry_space_group_name_H-M "P 31 2 1"
_symmetry_group_IT_number 152
_symmetry_cell_setting 'hexagonal'
loop_
_space_group_symop_operation_xyz
x,y,z
-y,x-y,1/3+z
-x+y,-x,2/3+z
x-y,-y,2/3-z
-x,-x+y,1/3-z
y,x,-z
loop_
_atom_site_type_symbol
_atom_site_label
_atom_site_fract_x
_atom_site_fract_y
_atom_site_fract_z
Si Si1 0.547391 0.351483 0.765779
Si Si2 0.787836 0.113913 0.722831
Si Si3 0.685408 0.807709 0.385929
O O1 0.669778 0.234493 0.749515
O O2 0.351199 0.282240 0.691638
O O3 0.479522 0.332474 0.891522
O O4 0.675110 0.572235 0.718604
O O5 0.000000 0.246802 0.666667
O O6 0.784978 0.000000 0.833334
O O7 0.724994 0.724994 0.500000
O O8 0.864071 0.000000 0.333334
#
# Coordination Sequence:
#
# PCOD9576198 Si02
#       3
#     6   6   6
#     4  12  25  56  88 130 187 237 316 391 472 575
#     4  12  29  55  90 136 183 249 317 389 479 573
#     4  12  29  53  88 130 182 246 316 394 481 574
#
# _framework density 28.320611
#
# number of rings (size 3 to 8) (size 9 to 14) (size 15 to 20)
#    0.000    0.000    6.667    1.000    4.667    9.333 
#    0.000    3.333    0.000    0.000    0.000    0.000 
#    0.000    0.000    0.000    0.000    0.000    0.000 
#
# Total GULP energy -100831.750727 kJ/mol
# GULP energy per Si atom -5601.763929 kJ/mol
# Density = 2.825615 g / cm^3
# Si number density = 28.320611 Si / 1000 Ang^3
#
#
#
# Elastic Constant Matrix: (Units=GPa)
#
#
# Indices 1 2 3 4 5 6 
#
# 1 160.8888 64.8810 42.7526 -2.9853 0.0001 0.0000
# 2 64.8810 160.8888 42.7526 2.9853 -0.0001 0.0000
# 3 42.7526 42.7526 105.0344 0.0000 0.0000 0.0000
# 4 -2.9853 2.9853 0.0000 58.7488 0.0000 -0.0001
# 5 0.0001 -0.0001 0.0000 0.0000 58.7488 -2.9853
# 6 0.0000 0.0000 0.0000 -0.0001 -2.9853 48.0039
#
#
#
# Elastic Compliance Matrix: (Units=1/GPa)
#
#
# Indices 1 2 3 4 5 6 
#
# 1 0.007843 -0.002606 -0.002131 0.000531 0.000000 0.000000
# 2 -0.002606 0.007843 -0.002131 -0.000531 0.000000 0.000000
# 3 -0.002131 -0.002131 0.011256 0.000000 0.000000 0.000000
# 4 0.000531 -0.000531 0.000000 0.017076 0.000000 0.000000
# 5 0.000000 0.000000 0.000000 0.000000 0.017076 0.001062
# 6 0.000000 0.000000 0.000000 0.000000 0.001062 0.020898
#
#
# Mechanical properties :
#
#
# Convention : Reuss Voigt Hill
#
# Bulk Modulus (GPa) = 75.73976 80.84271 78.29124
# Shear Modulus (GPa) = 49.93551 51.52870 50.73210
#
# Velocity S-wave (km/s) = 4.20363 4.27016 4.23702
# Velocity P-wave (km/s) = 7.09665 7.27460 7.18618
#
# Compressibility (1/GPa) = 0.01320310
#
# Stress axis : x y z
#
# Youngs Moduli (GPa) = 127.50739 127.50739 88.84281
#
# Poissons Ratio (x) = 0.33230 0.18936
# Poissons Ratio (y) = 0.33230 0.18936
# Poissons Ratio (z) = 0.27178 0.27178
#
# Static dielectric constant tensor:
#      x y z
#    x 2.701710 0.000000 0.000000 
#    y 0.000000 2.701710 0.000000 
#    z 0.000000 0.000000 2.064180 
# 
# From -- ./inp_files/1539.got.cif
#   From: 2010.05.17/outbox.cif.g08.bks.cpg/sg152_1_cif.got.tgz:1539.got - 2010.05.20 10:36:06.
