data_PCOD9576518
_publ_section_title
;
Structure prediction by ZEFSAII (Michael W. Deem and Ramdas Pophale) SiO2 
 PCOD9576518
Probable space group: P 32 2 1
;
_chemical_formula_sum "Si O2"
_cell_formula_units_Z 24
_cell_length_a 10.395441
_cell_length_b 10.395441
_cell_length_c 10.542415
_cell_angle_alpha 90.000000
_cell_angle_beta 90.000000
_cell_angle_gamma 120.000000
_cell_volume 986.635132
_symmetry_space_group_name_H-M "P 32 2 1"
_symmetry_group_IT_number 154
_symmetry_cell_setting 'hexagonal'
loop_
_space_group_symop_operation_xyz
x,y,z
-y,x-y,2/3+z
-x+y,-x,1/3+z
x-y,-y,1/3-z
-x,-x+y,2/3-z
y,x,-z
loop_
_atom_site_type_symbol
_atom_site_label
_atom_site_fract_x
_atom_site_fract_y
_atom_site_fract_z
Si Si1 0.012326 0.741519 0.560496
Si Si2 0.610233 0.000000 0.166667
Si Si3 0.822175 0.403591 0.182373
Si Si4 0.278190 0.000000 0.666667
Si Si5 0.214391 0.510113 0.769458
O O1 0.073632 0.652894 0.480502
O O2 0.007146 0.698564 0.708937
O O3 0.837062 0.651439 0.527971
O O4 0.141972 0.913950 0.566060
O O5 0.573582 0.130364 0.146626
O O6 0.879869 0.317685 0.272698
O O7 0.656890 0.375945 0.213355
O O8 0.835882 0.354202 0.039865
#
# Coordination Sequence:
#
# PCOD9576518 Si02
#       5
#     6   3   6   3   6
#     4  11  22  37  64  93 130 168 223 281 326 404
#     4  10  20  40  62  86 128 178 208 262 346 400
#     4  11  22  38  66  92 131 170 231 266 335 407
#     4  12  22  40  60 104 128 178 218 290 338 386
#     4  11  21  42  63  94 123 185 213 272 332 418
#
# _framework density 24.325102999999999
#
# number of rings (size 3 to 8) (size 9 to 14) (size 15 to 20)
#    0.000    1.000    7.500    1.500    0.000    0.000 
#    0.000    3.750    0.000    0.000    0.000    1.750 
#    0.000    0.000    0.000    0.000    0.000    0.000 
#
# Total GULP energy -133685.048976 kJ/mol
# GULP energy per Si atom -5570.210374 kJ/mol
# Density = 2.426974 g / cm^3
# Si number density = 24.325103 Si / 1000 Ang^3
#
#
#
# Elastic Constant Matrix: (Units=GPa)
#
#
# Indices 1 2 3 4 5 6 
#
# 1 65.2300 10.8524 -4.9314 -1.1807 0.0000 0.0000
# 2 10.8524 65.2300 -4.9314 1.1807 0.0000 0.0000
# 3 -4.9314 -4.9314 35.7706 0.0000 0.0000 0.0000
# 4 -1.1807 1.1807 0.0000 26.4360 0.0000 0.0000
# 5 0.0000 0.0000 0.0000 0.0000 26.4360 -1.1807
# 6 0.0000 0.0000 0.0000 0.0000 -1.1807 27.1888
#
#
#
# Elastic Compliance Matrix: (Units=1/GPa)
#
#
# Indices 1 2 3 4 5 6 
#
# 1 0.015904 -0.002521 0.001845 0.000823 0.000000 0.000000
# 2 -0.002521 0.015904 0.001845 -0.000823 0.000000 0.000000
# 3 0.001845 0.001845 0.028465 0.000000 0.000000 0.000000
# 4 0.000823 -0.000823 0.000000 0.037901 0.000000 0.000000
# 5 0.000000 0.000000 0.000000 0.000000 0.037901 0.001646
# 6 0.000000 0.000000 0.000000 0.000000 0.001646 0.036851
#
#
# Mechanical properties :
#
#
# Convention : Reuss Voigt Hill
#
# Bulk Modulus (GPa) = 15.97185 18.68999 17.33092
# Shear Modulus (GPa) = 26.11528 27.02823 26.57176
#
# Velocity S-wave (km/s) = 3.28013 3.33697 3.30867
# Velocity P-wave (km/s) = 4.57448 4.74840 4.66225
#
# Compressibility (1/GPa) = 0.06261015
#
# Stress axis : x y z
#
# Youngs Moduli (GPa) = 62.87637 62.87637 35.13129
#
# Poissons Ratio (x) = 0.15854 -0.06482
# Poissons Ratio (y) = 0.15854 -0.06482
# Poissons Ratio (z) = -0.11600 -0.11600
#
# Static dielectric constant tensor:
#      x y z
#    x 2.291540 0.000000 0.000000 
#    y 0.000000 2.291540 0.000000 
#    z 0.000000 0.000000 1.974750 
# 
# From -- ./inp_files/1602.got.cif
#   From: 2010.05.17/outbox.cif.g08.bks.cpg/sg154_1_cif.got.tgz:1602.got - 2010.05.20 10:41:43.
