data_PCOD9576663
_publ_section_title
;
Structure prediction by ZEFSAII (Michael W. Deem and Ramdas Pophale) SiO2 
 PCOD9576663
Probable space group: P 32 2 1
;
_chemical_formula_sum "Si O2"
_cell_formula_units_Z 36
_cell_length_a 11.333528
_cell_length_b 11.333528
_cell_length_c 14.181909
_cell_angle_alpha 90.000000
_cell_angle_beta 90.000000
_cell_angle_gamma 120.000000
_cell_volume 1577.595177
_symmetry_space_group_name_H-M "P 32 2 1"
_symmetry_group_IT_number 154
_symmetry_cell_setting 'hexagonal'
loop_
_space_group_symop_operation_xyz
x,y,z
-y,x-y,2/3+z
-x+y,-x,1/3+z
x-y,-y,1/3-z
-x,-x+y,2/3-z
y,x,-z
loop_
_atom_site_type_symbol
_atom_site_label
_atom_site_fract_x
_atom_site_fract_y
_atom_site_fract_z
Si Si1 0.585336 0.581332 0.137546
Si Si2 0.380389 0.609290 0.995026
Si Si3 0.812349 0.848885 0.193145
Si Si4 0.659792 0.000000 0.166667
Si Si5 0.175642 0.319636 0.982609
Si Si6 0.426148 0.905002 0.013497
Si Si7 0.286153 0.000000 0.166667
O O1 0.477936 0.604255 0.076423
O O2 0.736631 0.715849 0.126157
O O3 0.532853 0.561055 0.244882
O O4 0.596981 0.453950 0.099352
O O5 0.372724 0.745600 0.998948
O O6 0.230194 0.477876 0.999244
O O7 0.690703 0.883557 0.203731
O O8 0.846583 0.787860 0.283141
O O9 0.936239 0.000000 0.166667
O O10 0.560938 0.956763 0.077587
O O11 0.123262 0.276725 0.877350
O O12 0.307164 0.307164 0.000000
O O13 0.334840 0.941522 0.081329
#
# Coordination Sequence:
#
# PCOD9576663 Si02
#       7
#     6   6   6   3   6   6   3
#     4  11  23  46  71 109 143 191 249 300 371 445
#     4  11  26  46  73 108 149 194 247 311 372 448
#     4  10  23  48  70  99 143 189 253 298 358 451
#     4   9  22  45  72 108 140 193 249 294 378 450
#     4  12  27  49  69 108 150 194 252 307 378 439
#     4  11  24  45  78 107 150 194 241 314 381 444
#     4  11  28  47  72 114 152 191 249 310 378 456
#
# _framework density 22.819541999999998
#
# number of rings (size 3 to 8) (size 9 to 14) (size 15 to 20)
#    0.500    0.667    5.000    0.000    5.833    1.333 
#    6.000    0.000    0.000    0.000    0.000    0.000 
#    0.000    0.000    0.000    0.000    0.000    0.000 
#
# Total GULP energy -200980.878109 kJ/mol
# GULP energy per Si atom -5582.802170 kJ/mol
# Density = 2.276760 g / cm^3
# Si number density = 22.819542 Si / 1000 Ang^3
#
#
#
# Elastic Constant Matrix: (Units=GPa)
#
#
# Indices 1 2 3 4 5 6 
#
# 1 87.9729 47.8778 45.4997 -11.0401 0.0000 0.0000
# 2 47.8778 87.9729 45.4997 11.0401 0.0000 0.0000
# 3 45.4997 45.4997 146.8723 0.0000 0.0000 0.0000
# 4 -11.0401 11.0401 0.0000 18.4962 0.0000 0.0000
# 5 0.0000 0.0000 0.0000 0.0000 18.4962 -11.0401
# 6 0.0000 0.0000 0.0000 0.0000 -11.0401 20.0475
#
#
#
# Elastic Compliance Matrix: (Units=1/GPa)
#
#
# Indices 1 2 3 4 5 6 
#
# 1 0.023221 -0.013932 -0.002877 0.022176 0.000000 0.000000
# 2 -0.013932 0.023221 -0.002877 -0.022176 0.000000 0.000000
# 3 -0.002877 -0.002877 0.008591 0.000000 0.000000 0.000000
# 4 0.022176 -0.022176 0.000000 0.080538 0.000000 0.000000
# 5 0.000000 0.000000 0.000000 0.000000 0.080538 0.044352
# 6 0.000000 0.000000 0.000000 0.000000 0.044352 0.074306
#
#
# Mechanical properties :
#
#
# Convention : Reuss Voigt Hill
#
# Bulk Modulus (GPa) = 63.86302 66.73027 65.29664
# Shear Modulus (GPa) = 14.92495 23.67074 19.29784
#
# Velocity S-wave (km/s) = 2.56020 3.22421 2.91120
# Velocity P-wave (km/s) = 6.06518 6.57014 6.32270
#
# Compressibility (1/GPa) = 0.01565851
#
# Stress axis : x y z
#
# Youngs Moduli (GPa) = 43.06490 43.06490 116.39443
#
# Poissons Ratio (x) = 0.59999 0.33492
# Poissons Ratio (y) = 0.59999 0.33492
# Poissons Ratio (z) = 0.12392 0.12392
#
# Static dielectric constant tensor:
#      x y z
#    x 1.869400 0.000000 0.000000 
#    y 0.000000 1.869400 0.000000 
#    z 0.000000 0.000000 1.840990 
# 
# From -- ./inp_files/2019.got.cif
#   From: 2010.05.17/outbox.cif.g08.bks.cpg/sg154_2_cif.got.tgz:2019.got - 2010.05.20 10:41:43.
