data_PCOD9576294
_publ_section_title
;
Structure prediction by ZEFSAII (Michael W. Deem and Ramdas Pophale) SiO2 
 PCOD9576294
Probable space group: P 32 1 2
;
_chemical_formula_sum "Si O2"
_cell_formula_units_Z 48
_cell_length_a 11.992772
_cell_length_b 11.992772
_cell_length_c 18.952800
_cell_angle_alpha 90.000000
_cell_angle_beta 90.000000
_cell_angle_gamma 120.000000
_cell_volume 2360.712860
_symmetry_space_group_name_H-M "P 32 1 2"
_symmetry_group_IT_number 153
_symmetry_cell_setting 'hexagonal'
loop_
_space_group_symop_operation_xyz
x,y,z
-y,x-y,2/3+z
-x+y,-x,1/3+z
-y,-x,1/3-z
-x+y,y,2/3-z
x,x-y,-z
loop_
_atom_site_type_symbol
_atom_site_label
_atom_site_fract_x
_atom_site_fract_y
_atom_site_fract_z
Si Si1 0.828827 0.203887 0.972909
Si Si2 0.621178 0.704732 0.050059
Si Si3 0.970456 0.773311 0.155852
Si Si4 0.708784 0.648719 0.790869
Si Si5 0.630288 0.360703 0.078514
Si Si6 0.071309 0.260492 0.537072
Si Si7 0.922162 0.420759 0.788981
Si Si8 0.428503 0.993420 0.959181
O O1 0.930562 0.186873 0.926238
O O2 0.763230 0.268389 0.926066
O O3 0.712183 0.058017 0.984556
O O4 0.886892 0.281272 0.044618
O O5 0.671778 0.753359 0.128392
O O6 0.478888 0.583449 0.056957
O O7 0.626686 0.813343 0.000000
O O8 0.874400 0.811984 0.195163
O O9 0.954449 0.639893 0.182903
O O10 0.112854 0.887147 0.166667
O O11 0.823776 0.647551 0.833334
O O12 0.740112 0.795976 0.787893
O O13 0.576123 0.551350 0.831746
O O14 0.592787 0.232763 0.121698
O O15 0.516720 0.394394 0.087116
O O16 0.617138 0.308569 0.000000
O O17 0.055292 0.339814 0.601076
O O18 0.970659 0.435514 0.707858
#
# Coordination Sequence:
#
# PCOD9576294 Si02
#       8
#     6   6   6   6   6   6   6   6
#     4  10  24  40  64  99 139 180 226 290 355 424
#     4  10  20  40  64  95 138 175 227 285 344 417
#     4  11  26  44  65  99 140 186 235 287 351 426
#     4  12  25  43  67 104 140 183 229 291 364 420
#     4   9  18  37  63 100 130 163 220 283 348 399
#     4  11  23  42  69  97 133 183 236 279 350 428
#     4  11  24  41  69 101 137 177 226 295 354 420
#     4  10  20  39  65 100 127 173 232 282 339 410
#
# _framework density 20.332841999999999
#
# number of rings (size 3 to 8) (size 9 to 14) (size 15 to 20)
#    0.000    1.500    1.250    4.500    5.250    1.000 
#    0.000    2.500    0.000    0.000    0.000    0.000 
#    0.000    0.000    0.000    0.000    0.000    0.000 
#
# Total GULP energy -267979.903052 kJ/mol
# GULP energy per Si atom -5582.914647 kJ/mol
# Density = 2.028656 g / cm^3
# Si number density = 20.332842 Si / 1000 Ang^3
#
#
#
# Elastic Constant Matrix: (Units=GPa)
#
#
# Indices 1 2 3 4 5 6 
#
# 1 115.5382 56.1335 39.1253 0.0000 -5.9379 0.0000
# 2 56.1335 115.5382 39.1253 0.0000 5.9379 0.0000
# 3 39.1253 39.1253 96.7593 0.0000 0.0000 0.0000
# 4 0.0000 0.0000 0.0000 27.3179 0.0000 5.9379
# 5 -5.9379 5.9379 0.0000 0.0000 27.3179 0.0000
# 6 0.0000 0.0000 0.0000 5.9379 0.0000 29.7024
#
#
#
# Elastic Compliance Matrix: (Units=1/GPa)
#
#
# Indices 1 2 3 4 5 6 
#
# 1 0.012370 -0.005229 -0.002888 0.000000 0.003825 0.000000
# 2 -0.005229 0.012370 -0.002888 0.000000 -0.003825 0.000000
# 3 -0.002888 -0.002888 0.012670 0.000000 0.000000 0.000000
# 4 0.000000 0.000000 0.000000 0.038269 0.000000 -0.007651
# 5 0.003825 -0.003825 0.000000 0.000000 0.038269 0.000000
# 6 0.000000 0.000000 0.000000 -0.007651 0.000000 0.035197
#
#
# Mechanical properties :
#
#
# Convention : Reuss Voigt Hill
#
# Bulk Modulus (GPa) = 64.92552 66.28929 65.60741
# Shear Modulus (GPa) = 28.36292 29.76439 29.06365
#
# Velocity S-wave (km/s) = 3.73893 3.83019 3.78484
# Velocity P-wave (km/s) = 7.11619 7.22726 7.17194
#
# Compressibility (1/GPa) = 0.01540226
#
# Stress axis : x y z
#
# Youngs Moduli (GPa) = 80.84171 80.84171 78.92538
#
# Poissons Ratio (x) = 0.42269 0.22791
# Poissons Ratio (y) = 0.42269 0.22791
# Poissons Ratio (z) = 0.23344 0.23344
#
# Static dielectric constant tensor:
#      x y z
#    x 1.740230 0.000000 0.000000 
#    y 0.000000 1.740230 0.000000 
#    z 0.000000 0.000000 1.805180 
# 
# From -- ./inp_files/4067.got.cif
#   From: 2010.05.17/outbox.cif.g08.bks.cpg/sg153_3_cif.got.tgz:4067.got - 2010.05.20 10:38:56.
