data_PCOD9576172
_publ_section_title
;
Structure prediction by ZEFSAII (Michael W. Deem and Ramdas Pophale) SiO2 
 PCOD9576172
Probable space group: P 31 2 1
;
_chemical_formula_sum "Si O2"
_cell_formula_units_Z 21
_cell_length_a 9.121374
_cell_length_b 9.121374
_cell_length_c 10.289627
_cell_angle_alpha 90.000000
_cell_angle_beta 90.000000
_cell_angle_gamma 120.000000
_cell_volume 741.396942
_symmetry_space_group_name_H-M "P 31 2 1"
_symmetry_group_IT_number 152
_symmetry_cell_setting 'hexagonal'
loop_
_space_group_symop_operation_xyz
x,y,z
-y,x-y,1/3+z
-x+y,-x,2/3+z
x-y,-y,2/3-z
-x,-x+y,1/3-z
y,x,-z
loop_
_atom_site_type_symbol
_atom_site_label
_atom_site_fract_x
_atom_site_fract_y
_atom_site_fract_z
Si Si1 0.884734 0.614514 0.521615
Si Si2 0.779027 0.451285 0.888011
Si Si3 0.746333 0.746333 0.000000
Si Si4 0.283071 0.055340 0.625365
O O1 0.925404 0.576756 0.788097
O O2 0.747691 0.413670 0.505005
O O3 0.911095 0.708679 0.381123
O O4 0.804816 0.696320 0.615775
O O5 0.876288 0.359043 0.942369
O O6 0.742582 0.567644 0.985423
O O7 0.817252 0.796319 0.148276
#
# Coordination Sequence:
#
# PCOD9576172 Si02
#       4
#     6   6   3   6
#     4  11  27  51  86 118 168 218 295 345 435 509
#     4  12  25  51  81 125 162 220 283 358 421 509
#     4  12  28  44  80 124 172 208 284 352 424 506
#     4  11  26  49  79 120 166 222 272 354 426 517
#
# _framework density 28.324905999999999
#
# number of rings (size 3 to 8) (size 9 to 14) (size 15 to 20)
#    0.000    0.571    2.857    3.429    4.000    4.571 
#    0.000    5.714    0.000    0.000    0.000    0.000 
#    0.000    0.000    0.000    0.000    0.000    0.000 
#
# Total GULP energy -117321.066453 kJ/mol
# GULP energy per Si atom -5586.717450 kJ/mol
# Density = 2.826044 g / cm^3
# Si number density = 28.324906 Si / 1000 Ang^3
#
#
#
# Elastic Constant Matrix: (Units=GPa)
#
#
# Indices 1 2 3 4 5 6 
#
# 1 144.2108 72.4479 62.1407 0.8414 0.0000 0.0000
# 2 72.4479 144.2108 62.1407 -0.8414 0.0000 0.0000
# 3 62.1407 62.1407 194.0138 0.0000 0.0000 0.0000
# 4 0.8414 -0.8414 0.0000 61.0655 0.0000 0.0000
# 5 0.0000 0.0000 0.0000 0.0000 61.0655 0.8414
# 6 0.0000 0.0000 0.0000 0.0000 0.8414 35.8814
#
#
#
# Elastic Compliance Matrix: (Units=1/GPa)
#
#
# Indices 1 2 3 4 5 6 
#
# 1 0.009797 -0.004142 -0.001811 -0.000192 0.000000 0.000000
# 2 -0.004142 0.009797 -0.001811 0.000192 0.000000 0.000000
# 3 -0.001811 -0.001811 0.006314 0.000000 0.000000 0.000000
# 4 -0.000192 0.000192 0.000000 0.016381 0.000000 0.000000
# 5 0.000000 0.000000 0.000000 0.000000 0.016381 -0.000384
# 6 0.000000 0.000000 0.000000 0.000000 -0.000384 0.027879
#
#
# Mechanical properties :
#
#
# Convention : Reuss Voigt Hill
#
# Bulk Modulus (GPa) = 96.34817 97.32156 96.83486
# Shear Modulus (GPa) = 47.37641 50.64956 49.01299
#
# Velocity S-wave (km/s) = 4.09419 4.23326 4.16430
# Velocity P-wave (km/s) = 7.51259 7.63725 7.57518
#
# Compressibility (1/GPa) = 0.01037902
#
# Stress axis : x y z
#
# Youngs Moduli (GPa) = 102.07355 102.07355 158.36824
#
# Poissons Ratio (x) = 0.42283 0.28681
# Poissons Ratio (y) = 0.42283 0.28681
# Poissons Ratio (z) = 0.18486 0.18486
#
# Static dielectric constant tensor:
#      x y z
#    x 2.206180 0.000000 0.000000 
#    y 0.000000 2.206180 0.000000 
#    z 0.000000 0.000000 2.667980 
# 
# From -- ./inp_files/1579.got.cif
#   From: 2010.05.17/outbox.cif.g08.bks.cpg/sg152_1_cif.got.tgz:1579.got - 2010.05.20 10:36:06.
