data_PCOD9576428
_publ_section_title
;
Structure prediction by ZEFSAII (Michael W. Deem and Ramdas Pophale) SiO2 
 PCOD9576428
Probable space group: P 32 2 1
;
_chemical_formula_sum "Si O2"
_cell_formula_units_Z 30
_cell_length_a 17.774454
_cell_length_b 17.774454
_cell_length_c 4.965518
_cell_angle_alpha 90.000000
_cell_angle_beta 90.000000
_cell_angle_gamma 120.000000
_cell_volume 1358.587861
_symmetry_space_group_name_H-M "P 32 2 1"
_symmetry_group_IT_number 154
_symmetry_cell_setting 'hexagonal'
loop_
_space_group_symop_operation_xyz
x,y,z
-y,x-y,2/3+z
-x+y,-x,1/3+z
x-y,-y,1/3-z
-x,-x+y,2/3-z
y,x,-z
loop_
_atom_site_type_symbol
_atom_site_label
_atom_site_fract_x
_atom_site_fract_y
_atom_site_fract_z
Si Si1 0.762497 0.668850 0.117849
Si Si2 0.213070 0.697305 0.143227
Si Si3 0.325062 0.191468 0.295520
Si Si4 0.322974 0.800902 0.640066
Si Si5 0.162639 0.162639 0.000000
Si Si6 0.085265 0.000000 0.666667
O O1 0.841936 0.680747 0.933325
O O2 0.685554 0.572195 0.037418
O O3 0.736989 0.736989 0.000000
O O4 0.790727 0.671083 0.427822
O O5 0.139629 0.721761 0.072766
O O6 0.249632 0.737547 0.433121
O O7 0.185847 0.597849 0.183743
O O8 0.291055 0.750627 0.925957
O O9 0.240388 0.193749 0.210550
O O10 0.148476 0.069948 0.886007
O O11 0.063776 0.063776 0.500000
#
# Coordination Sequence:
#
# PCOD9576428 Si02
#       6
#     6   6   6   6   3   3
#     4  10  22  39  58  86 113 161 195 246 294 364
#     4  10  19  35  56  92 116 161 192 251 290 356
#     4  10  24  38  61  84 124 152 202 239 319 358
#     4  10  19  33  58  85 121 148 205 237 294 349
#     4  11  24  42  60  90 119 158 198 267 302 382
#     4   9  22  38  58  86 109 140 206 249 304 350
#
# _framework density 22.081752999999999
#
# number of rings (size 3 to 8) (size 9 to 14) (size 15 to 20)
#    0.000    2.000    0.000    3.000    4.200    3.200 
#    3.600    0.000    0.000    0.000    0.000    0.000 
#    0.000    0.000    0.000    0.000    0.000    0.000 
#
# Total GULP energy -167359.889003 kJ/mol
# GULP energy per Si atom -5578.662967 kJ/mol
# Density = 2.203149 g / cm^3
# Si number density = 22.081753 Si / 1000 Ang^3
#
#
#
# Elastic Constant Matrix: (Units=GPa)
#
#
# Indices 1 2 3 4 5 6 
#
# 1 91.9152 36.2845 1.4244 -0.5812 0.0000 0.0000
# 2 36.2845 91.9152 1.4244 0.5812 0.0000 0.0000
# 3 1.4244 1.4244 88.7983 0.0000 0.0000 0.0000
# 4 -0.5812 0.5812 0.0000 25.6052 0.0000 0.0000
# 5 0.0000 0.0000 0.0000 0.0000 25.6052 -0.5812
# 6 0.0000 0.0000 0.0000 0.0000 -0.5812 27.8154
#
#
#
# Elastic Compliance Matrix: (Units=1/GPa)
#
#
# Indices 1 2 3 4 5 6 
#
# 1 0.012894 -0.005091 -0.000125 0.000408 0.000000 0.000000
# 2 -0.005091 0.012894 -0.000125 -0.000408 0.000000 0.000000
# 3 -0.000125 -0.000125 0.011265 0.000000 0.000000 0.000000
# 4 0.000408 -0.000408 0.000000 0.039073 0.000000 0.000000
# 5 0.000000 0.000000 0.000000 0.000000 0.039073 0.000816
# 6 0.000000 0.000000 0.000000 0.000000 0.000816 0.035968
#
#
# Mechanical properties :
#
#
# Convention : Reuss Voigt Hill
#
# Bulk Modulus (GPa) = 37.92039 38.98838 38.45439
# Shear Modulus (GPa) = 29.30151 31.37150 30.33650
#
# Velocity S-wave (km/s) = 3.64669 3.77330 3.71054
# Velocity P-wave (km/s) = 5.91110 6.05628 5.98413
#
# Compressibility (1/GPa) = 0.02637103
#
# Stress axis : x y z
#
# Youngs Moduli (GPa) = 77.55750 77.55750 88.76668
#
# Poissons Ratio (x) = 0.39481 0.01111
# Poissons Ratio (y) = 0.39481 0.01111
# Poissons Ratio (z) = 0.00971 0.00971
#
# Static dielectric constant tensor:
#      x y z
#    x 1.887610 0.000000 0.000000 
#    y 0.000000 1.887610 0.000000 
#    z 0.000000 0.000000 1.888030 
# 
# From -- ./inp_files/370.got.cif
#   From: 2010.05.17/outbox.cif.g08.bks.cpg/sg154_1_cif.got.tgz:370.got - 2010.05.20 10:41:43.
