data_PCOD9576241
_publ_section_title
;
Structure prediction by ZEFSAII (Michael W. Deem and Ramdas Pophale) SiO2 
 PCOD9576241
Probable space group: P 32 1 2
;
_chemical_formula_sum "Si O2"
_cell_formula_units_Z 39
_cell_length_a 9.186736
_cell_length_b 9.186736
_cell_length_c 22.589536
_cell_angle_alpha 90.000000
_cell_angle_beta 90.000000
_cell_angle_gamma 120.000000
_cell_volume 1651.050718
_symmetry_space_group_name_H-M "P 32 1 2"
_symmetry_group_IT_number 153
_symmetry_cell_setting 'hexagonal'
loop_
_space_group_symop_operation_xyz
x,y,z
-y,x-y,2/3+z
-x+y,-x,1/3+z
-y,-x,1/3-z
-x+y,y,2/3-z
x,x-y,-z
loop_
_atom_site_type_symbol
_atom_site_label
_atom_site_fract_x
_atom_site_fract_y
_atom_site_fract_z
Si Si1 0.452546 0.963614 0.246827
Si Si2 0.978750 0.957499 0.833334
Si Si3 0.616650 0.156833 0.537974
Si Si4 0.387872 0.776191 0.763114
Si Si5 0.773710 0.044134 0.742009
Si Si6 0.254560 0.235344 0.653486
Si Si7 0.256498 0.954061 0.595772
O O1 0.443995 0.021909 0.181158
O O2 0.645323 0.023314 0.266713
O O3 0.356289 0.025808 0.288957
O O4 0.368208 0.766240 0.259158
O O5 0.906418 0.044932 0.789920
O O6 0.823080 0.846704 0.875903
O O7 0.640934 0.320467 0.500000
O O8 0.768640 0.195035 0.582580
O O9 0.450012 0.065420 0.576885
O O10 0.377176 0.754352 0.833334
O O11 0.574540 0.929371 0.754385
O O12 0.239462 0.796146 0.735924
O O13 0.781960 0.928318 0.688466
O O14 0.236959 0.054852 0.649694
#
# Coordination Sequence:
#
# PCOD9576241 Si02
#       7
#     6   3   6   6   6   6   6
#     4  10  20  38  65  87 125 162 215 252 316 376
#     4  10  18  36  58  84 114 166 198 236 304 384
#     4  12  21  35  60  99 117 152 210 268 299 361
#     4  11  19  35  62  94 114 157 206 262 296 372
#     4  10  22  35  60  89 126 151 203 255 315 363
#     4   9  20  42  60  87 123 177 198 248 318 398
#     4  11  19  36  63  86 119 156 211 247 306 375
#
# _framework density 23.621321999999999
#
# number of rings (size 3 to 8) (size 9 to 14) (size 15 to 20)
#    0.000    1.538    5.385    1.385    0.000    1.231 
#    2.769    0.000    3.385    7.385    0.000    0.000 
#    0.000    0.000    0.000    0.000    0.000    0.000 
#
# Total GULP energy -217807.558916 kJ/mol
# GULP energy per Si atom -5584.809203 kJ/mol
# Density = 2.356756 g / cm^3
# Si number density = 23.621322 Si / 1000 Ang^3
#
#
#
# Elastic Constant Matrix: (Units=GPa)
#
#
# Indices 1 2 3 4 5 6 
#
# 1 131.3028 -9.5050 25.5381 -0.0021 -9.0434 0.0000
# 2 -9.5050 131.3028 25.5381 0.0021 9.0434 0.0000
# 3 25.5381 25.5381 30.3267 0.0000 0.0000 0.0000
# 4 -0.0021 0.0021 0.0000 19.6785 0.0000 9.0434
# 5 -9.0434 9.0434 0.0000 0.0000 19.6785 -0.0021
# 6 0.0000 0.0000 0.0000 9.0434 -0.0021 70.4039
#
#
#
# Elastic Compliance Matrix: (Units=1/GPa)
#
#
# Indices 1 2 3 4 5 6 
#
# 1 0.010120 0.002573 -0.010688 0.000001 0.003468 0.000000
# 2 0.002573 0.010120 -0.010688 -0.000001 -0.003468 0.000000
# 3 -0.010688 -0.010688 0.050976 0.000000 0.000000 0.000000
# 4 0.000001 -0.000001 0.000000 0.054005 0.000000 -0.006937
# 5 0.003468 -0.003468 0.000000 0.000000 0.054005 0.000002
# 6 0.000000 0.000000 0.000000 -0.006937 0.000002 0.015095
#
#
# Mechanical properties :
#
#
# Convention : Reuss Voigt Hill
#
# Bulk Modulus (GPa) = 29.75556 41.78609 35.77083
# Shear Modulus (GPa) = 20.56509 38.70962 29.63735
#
# Velocity S-wave (km/s) = 2.95382 4.05255 3.54600
# Velocity P-wave (km/s) = 4.92521 6.29491 5.65171
#
# Compressibility (1/GPa) = 0.03360716
#
# Stress axis : x y z
#
# Youngs Moduli (GPa) = 98.81456 98.81456 19.61722
#
# Poissons Ratio (x) = -0.25421 0.20968
# Poissons Ratio (y) = -0.25421 0.20968
# Poissons Ratio (z) = 1.05617 1.05617
#
# Static dielectric constant tensor:
#      x y z
#    x 1.816000 0.000000 0.000000 
#    y 0.000000 1.816000 0.000000 
#    z 0.000000 0.000000 2.259410 
# 
# From -- ./inp_files/5084.got.cif
#   From: 2010.05.17/outbox.cif.g08.bks.cpg/sg153_3_cif.got.tgz:5084.got - 2010.05.20 10:38:56.
