data_PCOD9576468
_publ_section_title
;
Structure prediction by ZEFSAII (Michael W. Deem and Ramdas Pophale) SiO2 
 PCOD9576468
Probable space group: P 32 2 1
;
_chemical_formula_sum "Si O2"
_cell_formula_units_Z 30
_cell_length_a 18.592389
_cell_length_b 18.592389
_cell_length_c 5.087295
_cell_angle_alpha 90.000000
_cell_angle_beta 90.000000
_cell_angle_gamma 120.000000
_cell_volume 1522.958077
_symmetry_space_group_name_H-M "P 32 2 1"
_symmetry_group_IT_number 154
_symmetry_cell_setting 'hexagonal'
loop_
_space_group_symop_operation_xyz
x,y,z
-y,x-y,2/3+z
-x+y,-x,1/3+z
x-y,-y,1/3-z
-x,-x+y,2/3-z
y,x,-z
loop_
_atom_site_type_symbol
_atom_site_label
_atom_site_fract_x
_atom_site_fract_y
_atom_site_fract_z
Si Si1 0.157400 0.693453 0.349544
Si Si2 0.812638 0.900383 0.150901
Si Si3 0.899941 0.723249 0.341538
Si Si4 0.744329 0.330853 0.844534
Si Si5 0.485581 0.904308 0.173254
O O1 0.139938 0.766452 0.268526
O O2 0.256267 0.727859 0.350765
O O3 0.115066 0.652924 0.625800
O O4 0.117729 0.621738 0.128962
O O5 0.772949 0.877296 0.442390
O O6 0.873652 0.000000 0.166667
O O7 0.861673 0.861673 0.000000
O O8 0.737485 0.878193 0.950994
O O9 0.000000 0.765459 0.333334
O O10 0.715587 0.394628 0.740905
O O11 0.840850 0.389712 0.901476
O O12 0.512842 0.000000 0.166667
#
# Coordination Sequence:
#
# PCOD9576468 Si02
#       5
#     6   6   6   6   6
#     4  11  22  37  62  84 118 155 200 243 305 361
#     4  10  21  36  56  80 111 148 194 245 296 358
#     4  10  20  35  54  81 112 146 190 241 295 351
#     4  10  20  38  60  87 120 154 200 243 300 364
#     4  11  22  36  59  89 120 153 200 254 299 357
#
# _framework density 19.698508
#
# number of rings (size 3 to 8) (size 9 to 14) (size 15 to 20)
#    0.000    1.600    2.000    3.600    0.000    4.000 
#    0.000    2.000    0.000    0.000    0.000    0.000 
#    0.000    0.000    0.000    0.000    0.000    0.000 
#
# Total GULP energy -167254.238964 kJ/mol
# GULP energy per Si atom -5575.141299 kJ/mol
# Density = 1.965367 g / cm^3
# Si number density = 19.698508 Si / 1000 Ang^3
#
#
#
# Elastic Constant Matrix: (Units=GPa)
#
#
# Indices 1 2 3 4 5 6 
#
# 1 87.1695 43.1816 15.6879 -1.8404 0.0000 0.0000
# 2 43.1816 87.1695 15.6879 1.8404 0.0000 0.0000
# 3 15.6879 15.6879 79.7646 0.0000 0.0000 0.0000
# 4 -1.8404 1.8404 0.0000 20.6973 0.0000 0.0000
# 5 0.0000 0.0000 0.0000 0.0000 20.6973 -1.8404
# 6 0.0000 0.0000 0.0000 0.0000 -1.8404 21.9940
#
#
#
# Elastic Compliance Matrix: (Units=1/GPa)
#
#
# Indices 1 2 3 4 5 6 
#
# 1 0.015478 -0.007426 -0.001584 0.002037 0.000000 0.000000
# 2 -0.007426 0.015478 -0.001584 -0.002037 0.000000 0.000000
# 3 -0.001584 -0.001584 0.013160 0.000000 0.000000 0.000000
# 4 0.002037 -0.002037 0.000000 0.048678 0.000000 0.000000
# 5 0.000000 0.000000 0.000000 0.000000 0.048678 0.004073
# 6 0.000000 0.000000 0.000000 0.000000 0.004073 0.045808
#
#
# Mechanical properties :
#
#
# Convention : Reuss Voigt Hill
#
# Bulk Modulus (GPa) = 43.61045 44.80206 44.20626
# Shear Modulus (GPa) = 23.13640 24.64745 23.89193
#
# Velocity S-wave (km/s) = 3.43085 3.54112 3.48642
# Velocity P-wave (km/s) = 6.15478 6.28591 6.22069
#
# Compressibility (1/GPa) = 0.02293028
#
# Stress axis : x y z
#
# Youngs Moduli (GPa) = 64.60627 64.60627 75.98851
#
# Poissons Ratio (x) = 0.47974 0.12035
# Poissons Ratio (y) = 0.47974 0.12035
# Poissons Ratio (z) = 0.10232 0.10232
#
# Static dielectric constant tensor:
#      x y z
#    x 1.713260 0.000000 0.000000 
#    y 0.000000 1.713260 0.000000 
#    z 0.000000 0.000000 1.716860 
# 
# From -- ./inp_files/344.got.cif
#   From: 2010.05.17/outbox.cif.g08.bks.cpg/sg154_1_cif.got.tgz:344.got - 2010.05.20 10:41:43.
