data_PCOD9576503
_publ_section_title
;
Structure prediction by ZEFSAII (Michael W. Deem and Ramdas Pophale) SiO2 
 PCOD9576503
Probable space group: P 32 2 1
;
_chemical_formula_sum "Si O2"
_cell_formula_units_Z 45
_cell_length_a 14.049838
_cell_length_b 14.049838
_cell_length_c 13.153028
_cell_angle_alpha 90.000000
_cell_angle_beta 90.000000
_cell_angle_gamma 120.000000
_cell_volume 2248.531674
_symmetry_space_group_name_H-M "P 32 2 1"
_symmetry_group_IT_number 154
_symmetry_cell_setting 'hexagonal'
loop_
_space_group_symop_operation_xyz
x,y,z
-y,x-y,2/3+z
-x+y,-x,1/3+z
x-y,-y,1/3-z
-x,-x+y,2/3-z
y,x,-z
loop_
_atom_site_type_symbol
_atom_site_label
_atom_site_fract_x
_atom_site_fract_y
_atom_site_fract_z
Si Si1 0.768095 0.963826 0.563834
Si Si2 0.627256 0.582550 0.320039
Si Si3 0.284702 0.459143 0.016065
Si Si4 0.113924 0.731601 0.557254
Si Si5 0.418703 0.359947 0.391941
Si Si6 0.297130 0.735354 0.673077
Si Si7 0.750135 0.750135 0.500000
Si Si8 0.692992 0.500349 0.761046
O O1 0.641838 0.903098 0.609024
O O2 0.767364 0.870679 0.497264
O O3 0.839298 0.000000 0.666667
O O4 0.805109 0.072494 0.498727
O O5 0.721630 0.555467 0.286927
O O6 0.534360 0.470887 0.372288
O O7 0.686741 0.677469 0.403682
O O8 0.570847 0.630745 0.244614
O O9 0.334614 0.453800 0.125099
O O10 0.362989 0.577988 0.969154
O O11 0.228397 0.782170 0.615428
O O12 0.019150 0.658416 0.636191
O O13 0.371906 0.371906 0.500000
O O14 0.435055 0.254588 0.390328
O O15 0.231443 0.605879 0.645218
O O16 0.299653 0.759164 0.792580
#
# Coordination Sequence:
#
# PCOD9576503 Si02
#       8
#     6   6   6   6   6   6   3   6
#     4   9  21  40  65  94 123 159 212 268 317 383
#     4  11  21  36  58  89 119 162 217 259 310 384
#     4  10  22  39  60  87 124 164 211 258 315 388
#     4  11  22  39  59  89 121 164 206 256 324 377
#     4  12  21  36  59  82 124 159 208 259 311 382
#     4  12  22  38  60  85 129 168 209 255 320 396
#     4  10  20  38  66  92 118 162 218 272 312 374
#     4  12  24  38  60  91 125 171 215 262 323 397
#
# _framework density 20.013062000000001
#
# number of rings (size 3 to 8) (size 9 to 14) (size 15 to 20)
#    0.000    1.067    6.000    0.800    0.000    2.133 
#    0.000    0.667    0.000    4.800    1.733    0.000 
#    0.000    0.000    0.000    0.000    0.000    0.000 
#
# Total GULP energy -250970.143900 kJ/mol
# GULP energy per Si atom -5577.114309 kJ/mol
# Density = 1.996751 g / cm^3
# Si number density = 20.013062 Si / 1000 Ang^3
#
#
#
# Elastic Constant Matrix: (Units=GPa)
#
#
# Indices 1 2 3 4 5 6 
#
# 1 72.1047 29.5555 26.0221 -0.2135 0.0000 0.0000
# 2 29.5555 72.1047 26.0221 0.2135 0.0000 0.0000
# 3 26.0221 26.0221 82.4378 0.0000 0.0000 0.0000
# 4 -0.2135 0.2135 0.0000 20.5391 0.0000 0.0000
# 5 0.0000 0.0000 0.0000 0.0000 20.5391 -0.2135
# 6 0.0000 0.0000 0.0000 0.0000 -0.2135 21.2746
#
#
#
# Elastic Compliance Matrix: (Units=1/GPa)
#
#
# Indices 1 2 3 4 5 6 
#
# 1 0.017619 -0.005886 -0.003704 0.000244 0.000000 0.000000
# 2 -0.005886 0.017619 -0.003704 -0.000244 0.000000 0.000000
# 3 -0.003704 -0.003704 0.014468 0.000000 0.000000 0.000000
# 4 0.000244 -0.000244 0.000000 0.048693 0.000000 0.000000
# 5 0.000000 0.000000 0.000000 0.000000 0.048693 0.000489
# 6 0.000000 0.000000 0.000000 0.000000 0.000489 0.047009
#
#
# Mechanical properties :
#
#
# Convention : Reuss Voigt Hill
#
# Bulk Modulus (GPa) = 43.25303 43.31628 43.28465
# Shear Modulus (GPa) = 21.89207 22.14038 22.01623
#
# Velocity S-wave (km/s) = 3.31099 3.32971 3.32036
# Velocity P-wave (km/s) = 6.02297 6.03934 6.03116
#
# Compressibility (1/GPa) = 0.02311977
#
# Stress axis : x y z
#
# Youngs Moduli (GPa) = 56.75794 56.75794 69.11593
#
# Poissons Ratio (x) = 0.33408 0.25597
# Poissons Ratio (y) = 0.33408 0.25597
# Poissons Ratio (z) = 0.21020 0.21020
#
# Static dielectric constant tensor:
#      x y z
#    x 1.740690 0.000000 0.000000 
#    y 0.000000 1.740690 0.000000 
#    z 0.000000 0.000000 1.726270 
# 
# From -- ./inp_files/1800.got.cif
#   From: 2010.05.17/outbox.cif.g08.bks.cpg/sg154_1_cif.got.tgz:1800.got - 2010.05.20 10:41:43.
