data_PCOD9576073
_publ_section_title
;
Structure prediction by ZEFSAII (Michael W. Deem and Ramdas Pophale) SiO2 
 PCOD9576073
Probable space group: P 31 2 1
;
_chemical_formula_sum "Si O2"
_cell_formula_units_Z 27
_cell_length_a 12.103349
_cell_length_b 12.103349
_cell_length_c 10.295122
_cell_angle_alpha 90.000000
_cell_angle_beta 90.000000
_cell_angle_gamma 120.000000
_cell_volume 1306.090414
_symmetry_space_group_name_H-M "P 31 2 1"
_symmetry_group_IT_number 152
_symmetry_cell_setting 'hexagonal'
loop_
_space_group_symop_operation_xyz
x,y,z
-y,x-y,1/3+z
-x+y,-x,2/3+z
x-y,-y,2/3-z
-x,-x+y,1/3-z
y,x,-z
loop_
_atom_site_type_symbol
_atom_site_label
_atom_site_fract_x
_atom_site_fract_y
_atom_site_fract_z
Si Si1 0.000000 0.581920 0.166667
Si Si2 0.732978 0.526389 0.103832
Si Si3 0.777816 0.516704 0.803558
Si Si4 0.996844 0.389175 0.969968
Si Si5 0.797871 0.797871 0.500000
Si Si6 0.239406 0.239406 0.000000
O O1 0.867339 0.580604 0.180190
O O2 0.964447 0.484161 0.046177
O O3 0.626758 0.378309 0.126764
O O4 0.544991 0.760971 0.048042
O O5 0.658201 0.591905 0.164455
O O6 0.678628 0.531047 0.712726
O O7 0.910556 0.633233 0.749889
O O8 0.953082 0.263655 0.056046
O O9 0.801256 0.919789 0.430978
#
# Coordination Sequence:
#
# PCOD9576073 Si02
#       6
#     3   6   6   6   3   3
#     4  11  24  42  63 100 136 178 221 288 349 416
#     4  12  24  42  68 103 134 184 227 284 352 420
#     4  11  25  43  69 100 139 180 234 289 350 428
#     4  10  23  42  65  95 138 172 229 279 352 419
#     4   9  22  46  67  98 134 184 227 294 351 418
#     4  10  24  48  70 100 138 188 236 294 360 420
#
# _framework density 20.672383
#
# number of rings (size 3 to 8) (size 9 to 14) (size 15 to 20)
#    0.000    1.333    2.222    2.000    6.222    0.000 
#    8.000    0.000    0.000    0.000    0.000    0.000 
#    0.000    0.000    0.000    0.000    0.000    0.000 
#
# Total GULP energy -150534.302384 kJ/mol
# GULP energy per Si atom -5575.344533 kJ/mol
# Density = 2.062533 g / cm^3
# Si number density = 20.672383 Si / 1000 Ang^3
#
#
#
# Elastic Constant Matrix: (Units=GPa)
#
#
# Indices 1 2 3 4 5 6 
#
# 1 63.5758 44.0453 14.1620 14.0434 0.0000 0.0000
# 2 44.0453 63.5758 14.1620 -14.0434 0.0000 0.0000
# 3 14.1620 14.1620 104.4653 0.0000 0.0000 0.0000
# 4 14.0434 -14.0434 0.0000 18.9258 0.0000 0.0000
# 5 0.0000 0.0000 0.0000 0.0000 18.9258 14.0434
# 6 0.0000 0.0000 0.0000 0.0000 14.0434 9.7653
#
#
#
# Elastic Compliance Matrix: (Units=1/GPa)
#
#
# Indices 1 2 3 4 5 6 
#
# 1 -0.376725 0.386361 -0.001306 0.566227 -0.000001 0.000000
# 2 0.386361 -0.376725 -0.001306 -0.566227 0.000001 0.000000
# 3 -0.001306 -0.001306 0.009927 0.000000 0.000000 0.000000
# 4 0.566227 -0.566227 0.000000 -0.787469 0.000000 0.000002
# 5 -0.000001 0.000001 0.000000 0.000000 -0.787469 1.132454
# 6 0.000000 0.000000 0.000000 0.000002 1.132454 -1.526172
#
#
# Mechanical properties :
#
#
# Convention : Reuss Voigt Hill
#
# Bulk Modulus (GPa) = 41.71370 41.81728 41.76549
# Shear Modulus (GPa) = -1.08598 20.13986 9.52694
#
# Velocity S-wave (km/s) = -0.72558 3.12467 2.14908
# Velocity P-wave (km/s) = 4.41818 5.76980 5.13862
#
# Compressibility (1/GPa) = 0.02397294
#
# Stress axis : x y z
#
# Youngs Moduli (GPa) = -2.65446 -2.65446 100.73813
#
# Poissons Ratio (x) = 1.02558 0.13159
# Poissons Ratio (y) = 1.02558 0.13159
# Poissons Ratio (z) = -0.00347 -0.00347
#
# Static dielectric constant tensor:
#      x y z
#    x 1.753760 0.000000 0.000000 
#    y 0.000000 1.753760 0.000000 
#    z 0.000000 0.000000 1.738650 
# 
# From -- ./inp_files/1931.got.cif
#   From: 2010.05.17/outbox.cif.g08.bks.cpg/sg152_1_cif.got.tgz:1931.got - 2010.05.20 10:36:06.
