data_PCOD9576683
_publ_section_title
;
Structure prediction by ZEFSAII (Michael W. Deem and Ramdas Pophale) SiO2 
 PCOD9576683
Probable space group: P 32 2 1
;
_chemical_formula_sum "Si O2"
_cell_formula_units_Z 24
_cell_length_a 13.223505
_cell_length_b 13.223505
_cell_length_c 6.792397
_cell_angle_alpha 90.000000
_cell_angle_beta 90.000000
_cell_angle_gamma 120.000000
_cell_volume 1028.600807
_symmetry_space_group_name_H-M "P 32 2 1"
_symmetry_group_IT_number 154
_symmetry_cell_setting 'hexagonal'
loop_
_space_group_symop_operation_xyz
x,y,z
-y,x-y,2/3+z
-x+y,-x,1/3+z
x-y,-y,1/3-z
-x,-x+y,2/3-z
y,x,-z
loop_
_atom_site_type_symbol
_atom_site_label
_atom_site_fract_x
_atom_site_fract_y
_atom_site_fract_z
Si Si1 0.676490 0.833318 0.161532
Si Si2 0.903399 0.129287 0.594077
Si Si3 0.235426 0.579129 0.384172
Si Si4 0.886033 0.588579 0.469842
O O1 0.774783 0.813447 0.265004
O O2 0.558051 0.716975 0.095045
O O3 0.626030 0.894964 0.304041
O O4 0.742908 0.891065 0.959920
O O5 0.831886 0.180011 0.709762
O O6 0.869617 0.000000 0.666667
O O7 0.351826 0.609973 0.258318
O O8 0.174608 0.627433 0.236416
O O9 0.000000 0.642766 0.333334
#
# Coordination Sequence:
#
# PCOD9576683 Si02
#       4
#     6   6   6   6
#     4  11  24  47  76 111 155 204 266 326 389 480
#     4  10  24  47  74 104 153 206 263 324 392 463
#     4  12  24  45  74 113 158 201 250 324 403 473
#     4  11  25  43  71 110 151 198 262 322 393 469
#
# _framework density 23.332667000000001
#
# number of rings (size 3 to 8) (size 9 to 14) (size 15 to 20)
#    0.000    1.000    5.000    0.750    3.500    4.000 
#    4.500    0.000    5.500    0.000    0.000    0.000 
#    0.000    0.000    0.000    0.000    0.000    0.000 
#
# Total GULP energy -134027.629223 kJ/mol
# GULP energy per Si atom -5584.484551 kJ/mol
# Density = 2.327956 g / cm^3
# Si number density = 23.332667 Si / 1000 Ang^3
#
#
#
# Elastic Constant Matrix: (Units=GPa)
#
#
# Indices 1 2 3 4 5 6 
#
# 1 128.0796 76.8024 43.6410 3.6682 0.0000 0.0000
# 2 76.8024 128.0796 43.6410 -3.6682 0.0000 0.0000
# 3 43.6410 43.6410 115.6873 0.0000 0.0000 0.0000
# 4 3.6682 -3.6682 0.0000 35.1250 0.0000 0.0000
# 5 0.0000 0.0000 0.0000 0.0000 35.1250 3.6682
# 6 0.0000 0.0000 0.0000 0.0000 3.6682 25.6386
#
#
#
# Elastic Compliance Matrix: (Units=1/GPa)
#
#
# Indices 1 2 3 4 5 6 
#
# 1 0.012807 -0.006991 -0.002194 -0.002068 0.000000 0.000000
# 2 -0.006991 0.012807 -0.002194 0.002068 0.000000 0.000000
# 3 -0.002194 -0.002194 0.010299 0.000000 0.000000 0.000000
# 4 -0.002068 0.002068 0.000000 0.028902 0.000000 0.000000
# 5 0.000000 0.000000 0.000000 0.000000 0.028902 -0.004135
# 6 0.000000 0.000000 0.000000 0.000000 -0.004135 0.039595
#
#
# Mechanical properties :
#
#
# Convention : Reuss Voigt Hill
#
# Bulk Modulus (GPa) = 76.01734 77.77949 76.89841
# Shear Modulus (GPa) = 31.16175 33.02850 32.09512
#
# Velocity S-wave (km/s) = 3.65847 3.76646 3.71286
# Velocity P-wave (km/s) = 7.10608 7.23342 7.17003
#
# Compressibility (1/GPa) = 0.01315489
#
# Stress axis : x y z
#
# Youngs Moduli (GPa) = 78.08499 78.08499 97.09570
#
# Poissons Ratio (x) = 0.54590 0.21301
# Poissons Ratio (y) = 0.54590 0.21301
# Poissons Ratio (z) = 0.17130 0.17130
#
# Static dielectric constant tensor:
#      x y z
#    x 1.903500 0.000000 0.000000 
#    y 0.000000 1.903500 0.000000 
#    z 0.000000 0.000000 2.004320 
# 
# From -- ./inp_files/172.got.cif
#   From: 2010.05.17/outbox.cif.g08.bks.cpg/sg154_1_cif.got.tgz:172.got - 2010.05.20 10:41:43.
