data_PCOD9576370
_publ_section_title
;
Structure prediction by ZEFSAII (Michael W. Deem and Ramdas Pophale) SiO2 
 PCOD9576370
Probable space group: P 32 1 2
;
_chemical_formula_sum "Si O2"
_cell_formula_units_Z 21
_cell_length_a 11.741980
_cell_length_b 11.741980
_cell_length_c 8.217566
_cell_angle_alpha 90.000000
_cell_angle_beta 90.000000
_cell_angle_gamma 120.000000
_cell_volume 981.197663
_symmetry_space_group_name_H-M "P 32 1 2"
_symmetry_group_IT_number 153
_symmetry_cell_setting 'hexagonal'
loop_
_space_group_symop_operation_xyz
x,y,z
-y,x-y,2/3+z
-x+y,-x,1/3+z
-y,-x,1/3-z
-x+y,y,2/3-z
x,x-y,-z
loop_
_atom_site_type_symbol
_atom_site_label
_atom_site_fract_x
_atom_site_fract_y
_atom_site_fract_z
Si Si1 0.018731 0.677039 0.057693
Si Si2 0.776019 0.552038 0.833334
Si Si3 0.050991 0.101982 0.833334
Si Si4 0.871352 0.390421 0.663609
Si Si5 0.375670 0.751340 0.333334
O O1 0.969339 0.563045 0.193367
O O2 0.005190 0.796738 0.131181
O O3 0.919215 0.632723 0.907600
O O4 0.157615 0.693492 0.003395
O O5 0.785457 0.459203 0.700562
O O6 0.982509 0.017492 0.666667
O O7 0.765293 0.234708 0.666667
O O8 0.940803 0.470402 0.500000
O O9 0.338156 0.669078 0.500000
#
# Coordination Sequence:
#
# PCOD9576370 Si02
#       5
#     6   3   3   6   3
#     4  12  25  49  74 109 153 202 264 317 382 468
#     4  12  21  38  70 108 155 194 244 324 388 439
#     4  12  29  56  78 112 157 210 260 314 388 475
#     4  12  21  35  65 109 150 193 241 313 390 442
#     4  12  28  56  80 110 154 208 264 322 384 468
#
# _framework density 21.402415000000001
#
# number of rings (size 3 to 8) (size 9 to 14) (size 15 to 20)
#    0.000    0.000    8.571    1.714    0.000    1.143 
#    7.714    0.000    0.000    0.000    0.000    0.000 
#    0.000    0.000    0.000    0.000    0.000    0.000 
#
# Total GULP energy -117058.146994 kJ/mol
# GULP energy per Si atom -5574.197476 kJ/mol
# Density = 2.135370 g / cm^3
# Si number density = 21.402415 Si / 1000 Ang^3
#
#
#
# Elastic Constant Matrix: (Units=GPa)
#
#
# Indices 1 2 3 4 5 6 
#
# 1 80.1467 16.5579 45.6512 0.0002 -5.2314 0.0000
# 2 16.5579 80.1467 45.6512 -0.0002 5.2314 0.0000
# 3 45.6512 45.6512 138.5511 0.0000 0.0000 0.0000
# 4 0.0002 -0.0002 0.0000 31.4334 0.0000 5.2314
# 5 -5.2314 5.2314 0.0000 0.0000 31.4334 0.0002
# 6 0.0000 0.0000 0.0000 5.2314 0.0002 31.7944
#
#
#
# Elastic Compliance Matrix: (Units=1/GPa)
#
#
# Indices 1 2 3 4 5 6 
#
# 1 0.015589 -0.000579 -0.004946 0.000000 0.002691 0.000000
# 2 -0.000579 0.015589 -0.004946 0.000000 -0.002691 0.000000
# 3 -0.004946 -0.004946 0.010477 0.000000 0.000000 0.000000
# 4 0.000000 0.000000 0.000000 0.032709 0.000000 -0.005382
# 5 0.002691 -0.002691 0.000000 0.000000 0.032709 0.000000
# 6 0.000000 0.000000 0.000000 -0.005382 0.000000 0.032338
#
#
# Mechanical properties :
#
#
# Convention : Reuss Voigt Hill
#
# Bulk Modulus (GPa) = 48.27599 57.17392 52.72496
# Shear Modulus (GPa) = 29.89404 31.66452 30.77928
#
# Velocity S-wave (km/s) = 3.74138 3.85058 3.79637
# Velocity P-wave (km/s) = 6.42411 6.82210 6.62609
#
# Compressibility (1/GPa) = 0.02071423
#
# Stress axis : x y z
#
# Youngs Moduli (GPa) = 64.14576 64.14576 95.44999
#
# Poissons Ratio (x) = 0.03716 0.47207
# Poissons Ratio (y) = 0.03716 0.47207
# Poissons Ratio (z) = 0.31725 0.31725
#
# Static dielectric constant tensor:
#      x y z
#    x 1.843170 0.000000 0.000000 
#    y 0.000000 1.843170 0.000000 
#    z 0.000000 0.000000 1.648440 
# 
# From -- ./inp_files/1320.got.cif
#   From: 2010.05.17/outbox.cif.g08.bks.cpg/sg153_1_cif.got.tgz:1320.got - 2010.05.20 10:38:56.
