data_PCOD9576545
_publ_section_title
;
Structure prediction by ZEFSAII (Michael W. Deem and Ramdas Pophale) SiO2 
 PCOD9576545
Probable space group: P 32 2 1
;
_chemical_formula_sum "Si O2"
_cell_formula_units_Z 18
_cell_length_a 11.503542
_cell_length_b 11.503542
_cell_length_c 7.120876
_cell_angle_alpha 90.000000
_cell_angle_beta 90.000000
_cell_angle_gamma 120.000000
_cell_volume 816.069637
_symmetry_space_group_name_H-M "P 32 2 1"
_symmetry_group_IT_number 154
_symmetry_cell_setting 'hexagonal'
loop_
_space_group_symop_operation_xyz
x,y,z
-y,x-y,2/3+z
-x+y,-x,1/3+z
x-y,-y,1/3-z
-x,-x+y,2/3-z
y,x,-z
loop_
_atom_site_type_symbol
_atom_site_label
_atom_site_fract_x
_atom_site_fract_y
_atom_site_fract_z
Si Si1 0.873141 0.074520 0.966589
Si Si2 0.889807 0.309417 0.194166
Si Si3 0.427669 0.348406 0.695650
O O1 0.000000 0.113530 0.833334
O O2 0.880559 0.214767 0.022573
O O3 0.865500 0.000000 0.166667
O O4 0.722155 0.980508 0.885971
O O5 0.750304 0.233025 0.305126
O O6 0.000000 0.313315 0.333334
O O7 0.930785 0.459145 0.140933
O O8 0.402481 0.402481 0.500000
#
# Coordination Sequence:
#
# PCOD9576545 Si02
#       3
#     6   6   6
#     4   9  20  41  66  95 129 168 218 273 330 398
#     4  10  21  37  59  90 125 164 213 265 328 393
#     4   9  21  38  59  91 123 162 214 266 328 397
#
# _framework density 22.056940000000001
#
# number of rings (size 3 to 8) (size 9 to 14) (size 15 to 20)
#    0.000    3.333    0.000    1.000    0.000    8.000 
#    0.000   31.667    0.000   16.000    0.000    0.000 
#    0.000    0.000    0.000    0.000    0.000    0.000 
#
# Total GULP energy -100409.891673 kJ/mol
# GULP energy per Si atom -5578.327315 kJ/mol
# Density = 2.200674 g / cm^3
# Si number density = 22.056940 Si / 1000 Ang^3
#
#
#
# Elastic Constant Matrix: (Units=GPa)
#
#
# Indices 1 2 3 4 5 6 
#
# 1 125.0123 53.5604 42.4788 -4.9109 0.0000 0.0000
# 2 53.5604 125.0123 42.4788 4.9109 0.0000 0.0000
# 3 42.4788 42.4788 73.8427 0.0000 0.0000 0.0000
# 4 -4.9109 4.9109 0.0000 15.6577 0.0000 0.0000
# 5 0.0000 0.0000 0.0000 0.0000 15.6577 -4.9109
# 6 0.0000 0.0000 0.0000 0.0000 -4.9109 35.7260
#
#
#
# Elastic Compliance Matrix: (Units=1/GPa)
#
#
# Indices 1 2 3 4 5 6 
#
# 1 0.011168 -0.003458 -0.004435 0.004587 0.000000 0.000000
# 2 -0.003458 0.011168 -0.004435 -0.004587 0.000000 0.000000
# 3 -0.004435 -0.004435 0.018645 0.000000 0.000000 0.000000
# 4 0.004587 -0.004587 0.000000 0.066744 0.000000 0.000000
# 5 0.000000 0.000000 0.000000 0.000000 0.066744 0.009175
# 6 0.000000 0.000000 0.000000 0.000000 0.009175 0.029252
#
#
# Mechanical properties :
#
#
# Convention : Reuss Voigt Hill
#
# Bulk Modulus (GPa) = 61.25889 66.76702 64.01295
# Shear Modulus (GPa) = 21.38399 25.76489 23.57444
#
# Velocity S-wave (km/s) = 3.11704 3.42147 3.27280
# Velocity P-wave (km/s) = 6.38655 6.77824 6.58531
#
# Compressibility (1/GPa) = 0.01632416
#
# Stress axis : x y z
#
# Youngs Moduli (GPa) = 89.54116 89.54116 53.63302
#
# Poissons Ratio (x) = 0.30963 0.23788
# Poissons Ratio (y) = 0.30963 0.23788
# Poissons Ratio (z) = 0.39714 0.39714
#
# Static dielectric constant tensor:
#      x y z
#    x 1.810420 0.000000 0.000000 
#    y 0.000000 1.810420 0.000000 
#    z 0.000000 0.000000 1.831010 
# 
# From -- ./inp_files/739.got.cif
#   From: 2010.05.17/outbox.cif.g08.bks.cpg/sg154_1_cif.got.tgz:739.got - 2010.05.20 10:41:43.
