data_PCOD9576759
_publ_section_title
;
Structure prediction by ZEFSAII (Michael W. Deem and Ramdas Pophale) SiO2 
 PCOD9576759
Probable space group: R 3 2
;
_chemical_formula_sum "Si O2"
_cell_formula_units_Z 81
_cell_length_a 15.263490
_cell_length_b 15.263490
_cell_length_c 16.209269
_cell_angle_alpha 90.000000
_cell_angle_beta 90.000000
_cell_angle_gamma 120.000000
_cell_volume 3270.406628
_symmetry_space_group_name_H-M "R 3 2"
_symmetry_group_IT_number 155
_symmetry_cell_setting 'hexagonal'
loop_
_space_group_symop_operation_xyz
x,y,z
-y,x-y,z
-x+y,-x,z
x-y,-y,-z
-x,-x+y,-z
y,x,-z
2/3+x,1/3+y,1/3+z
2/3-y,1/3+x-y,1/3+z
2/3-x+y,1/3-x,1/3+z
2/3+x-y,1/3-y,1/3-z
2/3-x,1/3-x+y,1/3-z
2/3+y,1/3+x,1/3-z
1/3+x,2/3+y,2/3+z
1/3-y,2/3+x-y,2/3+z
1/3-x+y,2/3-x,2/3+z
1/3+x-y,2/3-y,2/3-z
1/3-x,2/3-x+y,2/3-z
1/3+y,2/3+x,2/3-z
loop_
_atom_site_type_symbol
_atom_site_label
_atom_site_fract_x
_atom_site_fract_y
_atom_site_fract_z
Si Si1 0.684689 0.018022 0.666667
Si Si2 0.373380 0.868477 0.397657
Si Si3 0.666667 0.580725 0.333334
Si Si4 0.564918 0.000000 0.500000
Si Si5 0.876317 0.239923 0.487638
Si Si6 0.624284 0.157592 0.751433
O O1 0.649625 0.943873 0.747753
O O2 0.785888 0.024815 0.629813
O O3 0.262399 0.828028 0.434060
O O4 0.384713 0.809120 0.321228
O O5 0.403264 0.977503 0.359213
O O6 0.457148 0.903985 0.470858
O O7 0.710689 0.557259 0.412658
O O8 0.851672 0.130726 0.461011
O O9 0.000000 0.303867 0.500000
O O10 0.666667 0.222063 0.833334
#
# Coordination Sequence:
#
# PCOD9576759 Si02
#       6
#     9  18   9   9  18  18
#     4  10  20  32  47  76 120 163 190 234 302 380
#     4   9  16  28  53  78 113 145 189 249 299 351
#     4   8  12  24  45  80 102 131 178 252 302 330
#     4  10  16  30  50  70 118 148 194 238 296 352
#     4   9  16  30  53  85 110 143 201 256 295 345
#     4  10  20  34  53  82 129 159 192 245 315 357
#
# _framework density 24.767562999999999
#
# number of rings (size 3 to 8) (size 9 to 14) (size 15 to 20)
#    0.000    2.667    4.444    0.000    0.000    0.000 
#    0.000    6.667    0.000    0.444    0.000    0.000 
#    8.889    0.000    0.000    0.000    0.000    0.000 
#
# Total GULP energy -150396.453513 kJ/mol
# GULP energy per Si atom -5570.239019 kJ/mol
# Density = 2.471119 g / cm^3
# Si number density = 24.767563 Si / 1000 Ang^3
#
#
#
# Elastic Constant Matrix: (Units=GPa)
#
#
# Indices 1 2 3 4 5 6 
#
# 1 61.4701 23.2366 46.5842 -3.9110 -0.0002 0.0000
# 2 23.2366 61.4701 46.5842 3.9110 0.0002 0.0000
# 3 46.5842 46.5842 192.2414 0.0000 0.0000 0.0000
# 4 -3.9110 3.9110 0.0000 27.7480 0.0000 0.0002
# 5 -0.0002 0.0002 0.0000 0.0000 27.7480 -3.9110
# 6 0.0000 0.0000 0.0000 0.0002 -3.9110 19.1167
#
#
#
# Elastic Compliance Matrix: (Units=1/GPa)
#
#
# Indices 1 2 3 4 5 6 
#
# 1 0.021513 -0.005418 -0.003900 0.003796 0.000000 0.000000
# 2 -0.005418 0.021513 -0.003900 -0.003796 0.000000 0.000000
# 3 -0.003900 -0.003900 0.007092 0.000000 0.000000 0.000000
# 4 0.003796 -0.003796 0.000000 0.037109 0.000000 0.000000
# 5 0.000000 0.000000 0.000000 0.000000 0.037109 0.007592
# 6 0.000000 0.000000 0.000000 0.000000 0.007592 0.053863
#
#
# Mechanical properties :
#
#
# Convention : Reuss Voigt Hill
#
# Bulk Modulus (GPa) = 42.22676 60.88794 51.55735
# Shear Modulus (GPa) = 23.52599 28.17432 25.85016
#
# Velocity S-wave (km/s) = 3.08534 3.37642 3.23416
# Velocity P-wave (km/s) = 5.45698 6.31168 5.89983
#
# Compressibility (1/GPa) = 0.02368166
#
# Stress axis : x y z
#
# Youngs Moduli (GPa) = 46.48248 46.48248 141.00372
#
# Poissons Ratio (x) = 0.25185 0.54995
# Poissons Ratio (y) = 0.25185 0.54995
# Poissons Ratio (z) = 0.18129 0.18129
#
# Static dielectric constant tensor:
#      x y z
#    x 2.006240 0.000000 0.000000 
#    y 0.000000 2.006240 0.000000 
#    z 0.000000 0.000000 2.129200 
# 
# From -- ./inp_files/5002.got.cif
#   From: 2010.05.17/outbox.cif.g08.bks.cpg/sg155_3_cif.got.tgz:5002.got - 2010.05.20 10:44:35.
