data_PCOD9576959
_publ_section_title
;
Structure prediction by ZEFSAII (Michael W. Deem and Ramdas Pophale) SiO2 
 PCOD9576959
Probable space group: R 3 2
;
_chemical_formula_sum "Si O2"
_cell_formula_units_Z 72
_cell_length_a 21.937901
_cell_length_b 21.937901
_cell_length_c 10.157749
_cell_angle_alpha 90.000000
_cell_angle_beta 90.000000
_cell_angle_gamma 120.000000
_cell_volume 4233.682187
_symmetry_space_group_name_H-M "R 3 2"
_symmetry_group_IT_number 155
_symmetry_cell_setting 'hexagonal'
loop_
_space_group_symop_operation_xyz
x,y,z
-y,x-y,z
-x+y,-x,z
x-y,-y,-z
-x,-x+y,-z
y,x,-z
2/3+x,1/3+y,1/3+z
2/3-y,1/3+x-y,1/3+z
2/3-x+y,1/3-x,1/3+z
2/3+x-y,1/3-y,1/3-z
2/3-x,1/3-x+y,1/3-z
2/3+y,1/3+x,1/3-z
1/3+x,2/3+y,2/3+z
1/3-y,2/3+x-y,2/3+z
1/3-x+y,2/3-x,2/3+z
1/3+x-y,2/3-y,2/3-z
1/3-x,2/3-x+y,2/3-z
1/3+y,2/3+x,2/3-z
loop_
_atom_site_type_symbol
_atom_site_label
_atom_site_fract_x
_atom_site_fract_y
_atom_site_fract_z
Si Si1 0.865597 0.278122 0.214841
Si Si2 0.801070 0.055212 0.118493
Si Si3 0.809851 0.476463 0.982514
Si Si4 0.666611 0.476463 0.982514
O O1 0.917094 0.250428 0.166667
O O2 0.897055 0.333334 0.333334
O O3 0.791422 0.208578 0.253076
O O4 0.849127 0.313611 0.091473
O O5 0.749573 0.082906 0.166667
O O6 0.817540 0.019723 0.241860
O O7 0.769613 0.000000 0.000000
O O8 0.728096 0.456193 0.984788
O O9 0.816351 0.408175 0.009177
O O10 0.835154 0.501821 0.833334
O O11 0.666667 0.501821 0.833334
#
# Coordination Sequence:
#
# PCOD9576959 Si02
#       4
#    18  18  18  18
#     4  10  21  36  53  74 101 134 171 209 249 294
#     4  10  21  36  53  74 101 134 171 209 249 294
#     4   9  17  31  53  80 106 130 159 200 252 306
#     4   9  17  31  53  80 106 130 159 200 252 306
#
# _framework density 17.006471999999999
#
# number of rings (size 3 to 8) (size 9 to 14) (size 15 to 20)
#    0.000    2.500    0.000    2.000    0.000    4.000 
#    0.000    0.000    0.000   23.000    0.000    0.000 
#    0.000    0.000    0.000    0.000    0.000    0.000 
#
# Total GULP energy -133876.361975 kJ/mol
# GULP energy per Si atom -5578.181749 kJ/mol
# Density = 1.696776 g / cm^3
# Si number density = 17.006472 Si / 1000 Ang^3
#
#
#
# Elastic Constant Matrix: (Units=GPa)
#
#
# Indices 1 2 3 4 5 6 
#
# 1 117.4083 78.4526 100.0911 -0.4839 -0.0008 0.0000
# 2 78.4526 117.4082 100.0905 0.4840 0.0013 0.0000
# 3 100.0911 100.0905 144.5982 -0.0001 0.0009 0.0000
# 4 -0.4839 0.4840 -0.0001 13.4210 0.0000 0.0014
# 5 -0.0008 0.0013 0.0009 0.0000 13.4215 -0.4838
# 6 0.0000 0.0000 0.0000 0.0014 -0.4838 19.4778
#
#
#
# Elastic Compliance Matrix: (Units=1/GPa)
#
#
# Indices 1 2 3 4 5 6 
#
# 1 0.021573 -0.004120 -0.012081 0.000926 0.000002 0.000000
# 2 -0.004120 0.021573 -0.012081 -0.000927 -0.000002 0.000000
# 3 -0.012081 -0.012081 0.023641 0.000000 -0.000001 0.000000
# 4 0.000926 -0.000927 0.000000 0.074577 0.000000 -0.000005
# 5 0.000002 -0.000002 -0.000001 0.000000 0.074574 0.001852
# 6 0.000000 0.000000 0.000000 -0.000005 0.001852 0.051387
#
#
# Mechanical properties :
#
#
# Convention : Reuss Voigt Hill
#
# Bulk Modulus (GPa) = 97.82018 104.07589 100.94803
# Shear Modulus (GPa) = 15.27662 15.98276 15.62969
#
# Velocity S-wave (km/s) = 3.00039 3.06895 3.03486
# Velocity P-wave (km/s) = 8.34550 8.59585 8.47160
#
# Compressibility (1/GPa) = 0.01022284
#
# Stress axis : x y z
#
# Youngs Moduli (GPa) = 46.35317 46.35385 42.29942
#
# Poissons Ratio (x) = 0.19097 0.51104
# Poissons Ratio (y) = 0.19097 0.51102
# Poissons Ratio (z) = 0.56001 0.56001
#
# Static dielectric constant tensor:
#      x y z
#    x 1.556010 0.000000 0.000000 
#    y 0.000000 1.556010 0.000000 
#    z 0.000000 0.000000 1.557010 
# 
# From -- ./inp_files/2114.got.cif
#   From: 2010.05.17/outbox.cif.g08.bks.cpg/sg155_2_cif.got.tgz:2114.got - 2010.05.20 10:44:35.
