data_PCOD9576234
_publ_section_title
;
Structure prediction by ZEFSAII (Michael W. Deem and Ramdas Pophale) SiO2 
 PCOD9576234
Probable space group: P 32 1 2
;
_chemical_formula_sum "Si O2"
_cell_formula_units_Z 48
_cell_length_a 12.463028
_cell_length_b 12.463028
_cell_length_c 18.758037
_cell_angle_alpha 90.000000
_cell_angle_beta 90.000000
_cell_angle_gamma 120.000000
_cell_volume 2523.278349
_symmetry_space_group_name_H-M "P 32 1 2"
_symmetry_group_IT_number 153
_symmetry_cell_setting 'hexagonal'
loop_
_space_group_symop_operation_xyz
x,y,z
-y,x-y,2/3+z
-x+y,-x,1/3+z
-y,-x,1/3-z
-x+y,y,2/3-z
x,x-y,-z
loop_
_atom_site_type_symbol
_atom_site_label
_atom_site_fract_x
_atom_site_fract_y
_atom_site_fract_z
Si Si1 0.536283 0.029992 0.661154
Si Si2 0.606945 0.098904 0.504354
Si Si3 0.691245 0.919080 0.435327
Si Si4 0.272696 0.168956 0.653160
Si Si5 0.710795 0.255207 0.945859
Si Si6 0.054257 0.373880 0.125236
Si Si7 0.266183 0.757459 0.991485
Si Si8 0.255916 0.329719 0.386454
O O1 0.617990 0.094695 0.589966
O O2 0.562806 0.135734 0.719179
O O3 0.528495 0.901454 0.684676
O O4 0.399281 0.985761 0.632280
O O5 0.682570 0.229273 0.463173
O O6 0.652547 0.011101 0.470588
O O7 0.462849 0.032139 0.481069
O O8 0.732019 0.866010 0.500000
O O9 0.571616 0.811508 0.393772
O O10 0.797291 0.997292 0.377959
O O11 0.409483 0.214596 0.686174
O O12 0.285746 0.250557 0.584614
O O13 0.217551 0.028208 0.631279
O O14 0.712639 0.356320 0.000000
O O15 0.166691 0.460974 0.072930
O O16 0.105895 0.347571 0.197277
O O17 0.310040 0.655020 0.000000
O O18 0.185443 0.370885 0.333334
#
# Coordination Sequence:
#
# PCOD9576234 Si02
#       8
#     6   6   6   6   6   6   6   6
#     4  10  22  35  55  86 120 160 196 240 300 369
#     4  10  18  33  57  90 115 150 198 251 307 345
#     4  10  18  31  55  90 123 152 193 251 303 355
#     4   9  19  33  59  89 116 145 199 259 294 348
#     4  10  19  34  59  82 119 151 199 250 300 358
#     4  10  19  33  62  90 116 148 197 262 302 350
#     4  11  20  33  57  91 126 160 197 240 306 372
#     4  10  21  39  56  81 120 158 197 243 301 362
#
# _framework density 19.022870999999999
#
# number of rings (size 3 to 8) (size 9 to 14) (size 15 to 20)
#    0.000    2.000    3.750    0.750    0.000    0.500 
#    0.000    3.125   13.750    3.000    0.000    0.000 
#    0.000    0.000    0.000    0.000    0.000    0.000 
#
# Total GULP energy -267569.739948 kJ/mol
# GULP energy per Si atom -5574.369582 kJ/mol
# Density = 1.897957 g / cm^3
# Si number density = 19.022871 Si / 1000 Ang^3
#
#
#
# Elastic Constant Matrix: (Units=GPa)
#
#
# Indices 1 2 3 4 5 6 
#
# 1 60.1661 28.2157 24.6745 -0.0006 4.3610 0.0000
# 2 28.2157 60.1661 24.6745 0.0006 -4.3610 0.0000
# 3 24.6745 24.6745 75.3702 0.0000 0.0000 0.0000
# 4 -0.0006 0.0006 0.0000 18.7800 0.0000 -4.3610
# 5 4.3610 -4.3610 0.0000 0.0000 18.7800 -0.0006
# 6 0.0000 0.0000 0.0000 -4.3610 -0.0006 15.9752
#
#
#
# Elastic Compliance Matrix: (Units=1/GPa)
#
#
# Indices 1 2 3 4 5 6 
#
# 1 0.023631 -0.009786 -0.004533 0.000001 -0.007760 0.000000
# 2 -0.009786 0.023631 -0.004533 -0.000001 0.007760 0.000000
# 3 -0.004533 -0.004533 0.016236 0.000000 0.000000 0.000000
# 4 0.000001 -0.000001 0.000000 0.056852 0.000000 0.015520
# 5 -0.007760 0.007760 0.000000 0.000000 0.056852 0.000002
# 6 0.000000 0.000000 0.000000 0.015520 0.000002 0.066834
#
#
# Mechanical properties :
#
#
# Convention : Reuss Voigt Hill
#
# Bulk Modulus (GPa) = 38.76604 38.98130 38.87367
# Shear Modulus (GPa) = 17.22140 18.58290 17.90215
#
# Velocity S-wave (km/s) = 3.01208 3.12888 3.07104
# Velocity P-wave (km/s) = 5.70261 5.79565 5.74932
#
# Compressibility (1/GPa) = 0.02579577
#
# Stress axis : x y z
#
# Youngs Moduli (GPa) = 42.31706 42.31706 61.59296
#
# Poissons Ratio (x) = 0.41410 0.27918
# Poissons Ratio (y) = 0.41410 0.27918
# Poissons Ratio (z) = 0.19181 0.19181
#
# Static dielectric constant tensor:
#      x y z
#    x 1.683800 0.000000 0.000000 
#    y 0.000000 1.683800 0.000000 
#    z 0.000000 0.000000 1.650820 
# 
# From -- ./inp_files/4060.got.cif
#   From: 2010.05.17/outbox.cif.g08.bks.cpg/sg153_3_cif.got.tgz:4060.got - 2010.05.20 10:38:56.
