data_PCOD9576094
_publ_section_title
;
Structure prediction by ZEFSAII (Michael W. Deem and Ramdas Pophale) SiO2 
 PCOD9576094
Probable space group: P 31 2 1
;
_chemical_formula_sum "Si O2"
_cell_formula_units_Z 33
_cell_length_a 7.513543
_cell_length_b 7.513543
_cell_length_c 27.654784
_cell_angle_alpha 90.000000
_cell_angle_beta 90.000000
_cell_angle_gamma 120.000000
_cell_volume 1352.042847
_symmetry_space_group_name_H-M "P 31 2 1"
_symmetry_group_IT_number 152
_symmetry_cell_setting 'hexagonal'
loop_
_space_group_symop_operation_xyz
x,y,z
-y,x-y,1/3+z
-x+y,-x,2/3+z
x-y,-y,2/3-z
-x,-x+y,1/3-z
y,x,-z
loop_
_atom_site_type_symbol
_atom_site_label
_atom_site_fract_x
_atom_site_fract_y
_atom_site_fract_z
Si Si1 0.113701 0.163735 0.619549
Si Si2 0.375312 0.590431 0.978233
Si Si3 0.481522 0.481522 0.500000
Si Si4 0.232530 0.333262 0.785924
Si Si5 0.445597 0.775252 0.738256
Si Si6 0.672525 0.405200 0.795275
O O1 0.198366 0.401320 0.637319
O O2 0.313078 0.169085 0.598144
O O3 0.000000 0.028397 0.666667
O O4 0.947867 0.102221 0.577190
O O5 0.286271 0.537652 0.925132
O O6 0.425848 0.425848 0.000000
O O7 0.222718 0.602853 0.016515
O O8 0.496023 0.588423 0.446657
O O9 0.512859 0.294200 0.480879
O O10 0.315074 0.538210 0.753343
O O11 0.426751 0.304892 0.796473
O O12 0.181559 0.402357 0.836251
#
# Coordination Sequence:
#
# PCOD9576094 Si02
#       6
#     6   6   3   6   6   6
#     4  11  21  43  69 102 141 187 241 303 371 457
#     4  11  22  41  72 102 143 188 247 303 377 458
#     4  10  24  42  68  94 146 180 246 294 366 450
#     4  11  24  43  70 100 142 190 245 305 377 452
#     4  11  23  42  71 100 134 193 234 301 376 443
#     4  11  24  43  68 103 139 197 242 307 379 450
#
# _framework density 24.407506999999999
#
# number of rings (size 3 to 8) (size 9 to 14) (size 15 to 20)
#    0.000    1.091    5.455    2.182    5.091    0.000 
#    3.273    0.909    0.000    0.000    0.000    0.000 
#    0.000    0.000    0.000    0.000    0.000    0.000 
#
# Total GULP energy -184303.655401 kJ/mol
# GULP energy per Si atom -5584.959255 kJ/mol
# Density = 2.435195 g / cm^3
# Si number density = 24.407507 Si / 1000 Ang^3
#
#
#
# Elastic Constant Matrix: (Units=GPa)
#
#
# Indices 1 2 3 4 5 6 
#
# 1 55.9088 31.2905 33.3875 -13.4174 0.0001 0.0000
# 2 31.2905 55.9088 33.3875 13.4174 -0.0001 0.0000
# 3 33.3875 33.3875 215.2784 0.0000 0.0000 0.0000
# 4 -13.4174 13.4174 0.0000 12.1113 0.0000 -0.0001
# 5 0.0001 -0.0001 0.0000 0.0000 12.1113 -13.4174
# 6 0.0000 0.0000 0.0000 -0.0001 -13.4174 12.3091
#
#
#
# Elastic Compliance Matrix: (Units=1/GPa)
#
#
# Indices 1 2 3 4 5 6 
#
# 1 -0.091333 0.104346 -0.002018 -0.216782 0.000002 0.000000
# 2 0.104346 -0.091333 -0.002018 0.216782 -0.000002 0.000000
# 3 -0.002018 -0.002018 0.005271 0.000000 0.000000 0.000000
# 4 -0.216782 0.216782 0.000000 -0.397751 0.000000 -0.000004
# 5 0.000002 -0.000002 0.000000 0.000000 -0.397751 -0.433563
# 6 0.000000 0.000000 0.000000 -0.000004 -0.433563 -0.391359
#
#
# Mechanical properties :
#
#
# Convention : Reuss Voigt Hill
#
# Bulk Modulus (GPa) = 43.05677 58.13633 50.59655
# Shear Modulus (GPa) = -3.21103 22.57503 9.68200
#
# Velocity S-wave (km/s) = -1.14824 3.04455 1.99385
# Velocity P-wave (km/s) = 3.99013 6.01912 5.10642
#
# Compressibility (1/GPa) = 0.02322515
#
# Stress axis : x y z
#
# Youngs Moduli (GPa) = -10.94896 -10.94896 189.71108
#
# Poissons Ratio (x) = 1.14248 0.38289
# Poissons Ratio (y) = 1.14248 0.38289
# Poissons Ratio (z) = -0.02210 -0.02210
#
# Static dielectric constant tensor:
#      x y z
#    x 2.024980 0.000000 0.000000 
#    y 0.000000 2.024980 0.000000 
#    z 0.000000 0.000000 1.985720 
# 
# From -- ./inp_files/3346.got.cif
#   From: 2010.05.17/outbox.cif.g08.bks.cpg/sg152_2_cif.got.tgz:3346.got - 2010.05.20 10:36:06.
