data_PCOD9576682
_publ_section_title
;
Structure prediction by ZEFSAII (Michael W. Deem and Ramdas Pophale) SiO2 
 PCOD9576682
Probable space group: P 32 2 1
;
_chemical_formula_sum "Si O2"
_cell_formula_units_Z 45
_cell_length_a 11.588725
_cell_length_b 11.588725
_cell_length_c 17.681315
_cell_angle_alpha 90.000000
_cell_angle_beta 90.000000
_cell_angle_gamma 120.000000
_cell_volume 2056.442200
_symmetry_space_group_name_H-M "P 32 2 1"
_symmetry_group_IT_number 154
_symmetry_cell_setting 'hexagonal'
loop_
_space_group_symop_operation_xyz
x,y,z
-y,x-y,2/3+z
-x+y,-x,1/3+z
x-y,-y,1/3-z
-x,-x+y,2/3-z
y,x,-z
loop_
_atom_site_type_symbol
_atom_site_label
_atom_site_fract_x
_atom_site_fract_y
_atom_site_fract_z
Si Si1 0.638619 0.290800 0.946101
Si Si2 0.871195 0.583200 0.387206
Si Si3 0.972965 0.134511 0.716036
Si Si4 0.028594 0.028594 0.500000
Si Si5 0.816705 0.586835 0.984961
Si Si6 0.865940 0.629977 0.682182
Si Si7 0.345805 0.851197 0.525830
Si Si8 0.767702 0.674800 0.825854
O O1 0.764669 0.435531 0.960119
O O2 0.576038 0.273232 0.862927
O O3 0.523174 0.269174 0.004732
O O4 0.688647 0.188137 0.964086
O O5 0.846805 0.700810 0.416398
O O6 0.893862 0.494497 0.447907
O O7 0.000000 0.647414 0.333334
O O8 0.085124 0.268580 0.678157
O O9 0.049581 0.085143 0.770719
O O10 0.892765 0.000000 0.666667
O O11 0.171583 0.050643 0.478940
O O12 0.770051 0.642753 0.914517
O O13 0.974583 0.680505 0.987114
O O14 0.746052 0.569746 0.066444
O O15 0.810113 0.594774 0.768378
O O16 0.345217 0.968275 0.477979
#
# Coordination Sequence:
#
# PCOD9576682 Si02
#       8
#     6   6   6   3   6   6   6   6
#     4  11  28  44  70 106 143 198 250 302 375 454
#     4  10  24  47  70 103 143 188 245 306 364 444
#     4  11  23  43  71 103 147 185 241 306 373 447
#     4  12  24  42  70 114 140 188 242 302 382 434
#     4  11  25  46  71 104 143 193 248 304 377 448
#     4  12  26  45  72 110 148 195 239 314 386 449
#     4  11  25  45  75 101 142 196 249 301 370 452
#     4  12  23  46  74 103 144 186 244 309 367 460
#
# _framework density 21.882453999999999
#
# number of rings (size 3 to 8) (size 9 to 14) (size 15 to 20)
#    0.000    0.800    2.667    3.600   11.200    1.067 
#    0.000    0.000    0.000    0.000    0.000    0.000 
#    0.000    0.000    0.000    0.000    0.000    0.000 
#
# Total GULP energy -251357.927005 kJ/mol
# GULP energy per Si atom -5585.731711 kJ/mol
# Density = 2.183265 g / cm^3
# Si number density = 21.882454 Si / 1000 Ang^3
#
#
#
# Elastic Constant Matrix: (Units=GPa)
#
#
# Indices 1 2 3 4 5 6 
#
# 1 73.4278 39.4721 14.5604 -6.3582 0.0001 0.0000
# 2 39.4721 73.4278 14.5604 6.3582 -0.0001 0.0000
# 3 14.5604 14.5604 77.0868 0.0000 0.0000 0.0000
# 4 -6.3582 6.3582 0.0000 27.1517 0.0000 -0.0001
# 5 0.0001 -0.0001 0.0000 0.0000 27.1517 -6.3582
# 6 0.0000 0.0000 0.0000 -0.0001 -6.3582 16.9778
#
#
#
# Elastic Compliance Matrix: (Units=1/GPa)
#
#
# Indices 1 2 3 4 5 6 
#
# 1 0.020796 -0.011485 -0.001759 0.007559 0.000000 0.000000
# 2 -0.011485 0.020796 -0.001759 -0.007559 0.000000 0.000000
# 3 -0.001759 -0.001759 0.013637 0.000000 0.000000 0.000000
# 4 0.007559 -0.007559 0.000000 0.040371 0.000000 0.000000
# 5 0.000000 0.000000 0.000000 0.000000 0.040371 0.015119
# 6 0.000000 0.000000 0.000000 0.000000 0.015119 0.064562
#
#
# Mechanical properties :
#
#
# Convention : Reuss Voigt Hill
#
# Bulk Modulus (GPa) = 39.64470 40.12534 39.88502
# Shear Modulus (GPa) = 20.92526 24.61285 22.76906
#
# Velocity S-wave (km/s) = 3.09570 3.35741 3.22920
# Velocity P-wave (km/s) = 5.56185 5.77980 5.67188
#
# Compressibility (1/GPa) = 0.02522405
#
# Stress axis : x y z
#
# Youngs Moduli (GPa) = 48.08589 48.08589 73.33113
#
# Poissons Ratio (x) = 0.55227 0.12897
# Poissons Ratio (y) = 0.55227 0.12897
# Poissons Ratio (z) = 0.08457 0.08457
#
# Static dielectric constant tensor:
#      x y z
#    x 1.769060 0.000000 0.000000 
#    y 0.000000 1.769060 0.000000 
#    z 0.000000 0.000000 -15.507760 
# 
# From -- ./inp_files/2490.got.cif
#   From: 2010.05.17/outbox.cif.g08.bks.cpg/sg154_2_cif.got.tgz:2490.got - 2010.05.20 10:41:43.
