data_PCOD9576002
_publ_section_title
;
Structure prediction by ZEFSAII (Michael W. Deem and Ramdas Pophale) SiO2 
 PCOD9576002
Probable space group: P 31 2 1
;
_chemical_formula_sum "Si O2"
_cell_formula_units_Z 30
_cell_length_a 8.240613
_cell_length_b 8.240613
_cell_length_c 23.743845
_cell_angle_alpha 90.000000
_cell_angle_beta 90.000000
_cell_angle_gamma 120.000000
_cell_volume 1396.370671
_symmetry_space_group_name_H-M "P 31 2 1"
_symmetry_group_IT_number 152
_symmetry_cell_setting 'hexagonal'
loop_
_space_group_symop_operation_xyz
x,y,z
-y,x-y,1/3+z
-x+y,-x,2/3+z
x-y,-y,2/3-z
-x,-x+y,1/3-z
y,x,-z
loop_
_atom_site_type_symbol
_atom_site_label
_atom_site_fract_x
_atom_site_fract_y
_atom_site_fract_z
Si Si1 0.015441 0.615058 0.276822
Si Si2 0.904764 0.478538 0.574520
Si Si3 0.273243 0.000000 0.333334
Si Si4 0.693678 0.336789 0.460863
Si Si5 0.388681 0.034292 0.616410
Si Si6 0.778548 0.000000 0.333334
O O1 0.111706 0.830146 0.298669
O O2 0.149852 0.601628 0.229550
O O3 0.034002 0.500624 0.328660
O O4 0.799881 0.555385 0.264118
O O5 0.762053 0.404954 0.523550
O O6 0.896183 0.325225 0.618018
O O7 0.112573 0.582246 0.547298
O O8 0.898413 0.623870 0.617842
O O9 0.886579 0.403765 0.425222
O O10 0.171023 0.943179 0.634115
#
# Coordination Sequence:
#
# PCOD9576002 Si02
#       6
#     6   6   3   6   6   3
#     4  11  22  39  67  95 125 174 217 266 343 393
#     4   9  20  38  65  90 128 173 215 265 338 390
#     4   9  21  40  62  89 123 172 215 261 330 405
#     4  10  22  39  62  99 127 173 219 277 331 399
#     4  11  22  39  64  95 132 170 223 277 324 408
#     4   9  21  42  64  89 133 180 217 273 328 405
#
# _framework density 21.484265000000001
#
# number of rings (size 3 to 8) (size 9 to 14) (size 15 to 20)
#    0.000    2.000    2.000    1.800    2.800    0.000 
#    0.000    9.000    0.000    9.600    0.000    0.000 
#    0.000    0.000    0.000    0.000    0.000    0.000 
#
# Total GULP energy -167244.488726 kJ/mol
# GULP energy per Si atom -5574.816291 kJ/mol
# Density = 2.143537 g / cm^3
# Si number density = 21.484265 Si / 1000 Ang^3
#
#
#
# Elastic Constant Matrix: (Units=GPa)
#
#
# Indices 1 2 3 4 5 6 
#
# 1 113.1161 43.2804 57.9728 -17.4619 0.0000 0.0000
# 2 43.2804 113.1161 57.9728 17.4619 0.0000 0.0000
# 3 57.9728 57.9728 145.6769 0.0000 0.0000 0.0000
# 4 -17.4619 17.4619 0.0000 -24.5190 0.0000 0.0000
# 5 0.0000 0.0000 0.0000 0.0000 -24.5190 -17.4619
# 6 0.0000 0.0000 0.0000 0.0000 -17.4619 34.9179
#
#
#
# Elastic Compliance Matrix: (Units=1/GPa)
#
#
# Indices 1 2 3 4 5 6 
#
# 1 0.009814 -0.000744 -0.003609 -0.007520 0.000000 0.000000
# 2 -0.000744 0.009814 -0.003609 0.007520 0.000000 0.000000
# 3 -0.003609 -0.003609 0.009737 0.000000 0.000000 0.000000
# 4 -0.007520 0.007520 0.000000 -0.030074 0.000000 0.000000
# 5 0.000000 0.000000 0.000000 0.000000 -0.030074 -0.015040
# 6 0.000000 0.000000 0.000000 0.000000 -0.015040 0.021118
#
#
# Mechanical properties :
#
#
# Convention : Reuss Voigt Hill
#
# Bulk Modulus (GPa) = 74.40810 76.70678 75.55744
# Shear Modulus (GPa) = 465.46461 11.35486 238.40974
#
# Velocity S-wave (km/s) = 14.73513 2.30145 10.54563
# Velocity P-wave (km/s) = 18.00577 6.54549 13.54716
#
# Compressibility (1/GPa) = 0.01343940
#
# Stress axis : x y z
#
# Youngs Moduli (GPa) = 101.89190 101.89190 102.69846
#
# Poissons Ratio (x) = 0.07586 0.37068
# Poissons Ratio (y) = 0.07586 0.37068
# Poissons Ratio (z) = 0.36777 0.36777
#
# Static dielectric constant tensor:
#      x y z
#    x 1.832760 0.000000 0.000000 
#    y 0.000000 1.832760 0.000000 
#    z 0.000000 0.000000 1.719110 
# 
# From -- ./inp_files/3027.got.cif
#   From: 2010.05.17/outbox.cif.g08.bks.cpg/sg152_2_cif.got.tgz:3027.got - 2010.05.20 10:36:06.
