data_PCOD9576604
_publ_section_title
;
Structure prediction by ZEFSAII (Michael W. Deem and Ramdas Pophale) SiO2 
 PCOD9576604
Probable space group: P 32 2 1
;
_chemical_formula_sum "Si O2"
_cell_formula_units_Z 27
_cell_length_a 7.312562
_cell_length_b 7.312562
_cell_length_c 21.120208
_cell_angle_alpha 90.000000
_cell_angle_beta 90.000000
_cell_angle_gamma 120.000000
_cell_volume 978.065512
_symmetry_space_group_name_H-M "P 32 2 1"
_symmetry_group_IT_number 154
_symmetry_cell_setting 'hexagonal'
loop_
_space_group_symop_operation_xyz
x,y,z
-y,x-y,2/3+z
-x+y,-x,1/3+z
x-y,-y,1/3-z
-x,-x+y,2/3-z
y,x,-z
loop_
_atom_site_type_symbol
_atom_site_label
_atom_site_fract_x
_atom_site_fract_y
_atom_site_fract_z
Si Si1 0.779223 0.249268 0.349767
Si Si2 0.089982 0.427425 0.041975
Si Si3 0.874743 0.006756 0.775469
Si Si4 0.551371 0.374801 0.817925
Si Si5 0.419833 0.000000 0.166667
O O1 0.553828 0.043642 0.335598
O O2 0.761991 0.435853 0.315761
O O3 0.784464 0.274424 0.425330
O O4 0.000000 0.269301 0.333334
O O5 0.035103 0.185100 0.049615
O O6 0.018310 0.455401 0.112470
O O7 0.641459 0.938666 0.801097
O O8 0.000000 0.973518 0.833334
O O9 0.986653 0.263164 0.774878
O O10 0.788386 0.435558 0.837598
#
# Coordination Sequence:
#
# PCOD9576604 Si02
#       5
#     6   6   6   6   3
#     4  10  24  45  66  97 144 185 229 294 353 430
#     4  10  24  43  67 103 138 184 244 287 360 439
#     4  10  23  42  70 104 138 182 242 298 353 421
#     4  10  23  43  69 104 138 186 236 291 359 427
#     4  10  22  40  72  98 140 182 228 308 350 412
#
# _framework density 27.605512000000001
#
# number of rings (size 3 to 8) (size 9 to 14) (size 15 to 20)
#    2.000    0.000    0.000    2.667    1.556    5.333 
#    0.000    0.000    0.000    0.000    0.000    0.000 
#    0.000    0.000    0.000    0.000    0.000    0.000 
#
# Total GULP energy -150501.037705 kJ/mol
# GULP energy per Si atom -5574.112508 kJ/mol
# Density = 2.754268 g / cm^3
# Si number density = 27.605512 Si / 1000 Ang^3
#
#
#
# Elastic Constant Matrix: (Units=GPa)
#
#
# Indices 1 2 3 4 5 6 
#
# 1 139.7901 42.0232 23.7920 -10.1379 0.0002 0.0000
# 2 42.0232 139.7901 23.7920 10.1379 -0.0002 0.0000
# 3 23.7920 23.7920 57.6791 0.0000 0.0000 0.0000
# 4 -10.1379 10.1379 0.0000 29.6495 0.0000 -0.0002
# 5 0.0002 -0.0002 0.0000 0.0000 29.6495 -10.1379
# 6 0.0000 0.0000 0.0000 -0.0002 -10.1379 48.8835
#
#
#
# Elastic Compliance Matrix: (Units=1/GPa)
#
#
# Indices 1 2 3 4 5 6 
#
# 1 0.008587 -0.002422 -0.002543 0.003764 0.000000 0.000000
# 2 -0.002422 0.008587 -0.002543 -0.003764 0.000000 0.000000
# 3 -0.002543 -0.002543 0.019436 0.000000 0.000000 0.000000
# 4 0.003764 -0.003764 0.000000 0.036302 0.000000 0.000000
# 5 0.000000 0.000000 0.000000 0.000000 0.036302 0.007529
# 6 0.000000 0.000000 0.000000 0.000000 0.007529 0.022018
#
#
# Mechanical properties :
#
#
# Convention : Reuss Voigt Hill
#
# Bulk Modulus (GPa) = 46.30963 57.38597 51.84780
# Shear Modulus (GPa) = 32.58472 38.14664 35.36568
#
# Velocity S-wave (km/s) = 3.43938 3.72136 3.58314
# Velocity P-wave (km/s) = 5.70827 6.26878 5.99508
#
# Compressibility (1/GPa) = 0.02159378
#
# Stress axis : x y z
#
# Youngs Moduli (GPa) = 116.44931 116.44931 51.45222
#
# Poissons Ratio (x) = 0.28200 0.13086
# Poissons Ratio (y) = 0.28200 0.13086
# Poissons Ratio (z) = 0.29617 0.29617
#
# Static dielectric constant tensor:
#      x y z
#    x 2.211350 0.000000 0.000000 
#    y 0.000000 2.211350 0.000000 
#    z 0.000000 0.000000 2.437760 
# 
# From -- ./inp_files/3302.got.cif
#   From: 2010.05.17/outbox.cif.g08.bks.cpg/sg154_2_cif.got.tgz:3302.got - 2010.05.20 10:41:43.
