data_PCOD9576358
_publ_section_title
;
Structure prediction by ZEFSAII (Michael W. Deem and Ramdas Pophale) SiO2 
 PCOD9576358
Probable space group: P 32 1 2
;
_chemical_formula_sum "Si O2"
_cell_formula_units_Z 33
_cell_length_a 13.878166
_cell_length_b 13.878166
_cell_length_c 9.204118
_cell_angle_alpha 90.000000
_cell_angle_beta 90.000000
_cell_angle_gamma 120.000000
_cell_volume 1535.242432
_symmetry_space_group_name_H-M "P 32 1 2"
_symmetry_group_IT_number 153
_symmetry_cell_setting 'hexagonal'
loop_
_space_group_symop_operation_xyz
x,y,z
-y,x-y,2/3+z
-x+y,-x,1/3+z
-y,-x,1/3-z
-x+y,y,2/3-z
x,x-y,-z
loop_
_atom_site_type_symbol
_atom_site_label
_atom_site_fract_x
_atom_site_fract_y
_atom_site_fract_z
Si Si1 0.359910 0.538991 0.928124
Si Si2 0.127658 0.704115 0.554305
Si Si3 0.299564 0.088914 0.869275
Si Si4 0.097622 0.936115 0.498383
Si Si5 0.492731 0.507270 0.666667
Si Si6 0.913776 0.661642 0.942347
O O1 0.292139 0.584278 0.833334
O O2 0.415703 0.503111 0.801479
O O3 0.279826 0.453175 0.053608
O O4 0.464731 0.618652 0.027438
O O5 0.193726 0.806274 0.666667
O O6 0.995679 0.661288 0.529437
O O7 0.301642 0.171024 0.746938
O O8 0.173999 0.995036 0.913639
O O9 0.355087 0.177544 0.000000
O O10 0.089799 0.910202 0.666667
O O11 0.073437 0.036719 0.500000
O O12 0.222309 0.981739 0.443300
O O13 0.433890 0.378430 0.623018
O O14 0.812004 0.624007 0.833334
#
# Coordination Sequence:
#
# PCOD9576358 Si02
#       6
#     6   6   6   6   3   6
#     4  11  26  44  70 107 149 201 254 313 390 476
#     4  11  26  45  70 104 154 200 250 314 389 478
#     4  12  25  42  71 102 144 191 242 306 377 460
#     4  11  21  39  63 103 142 181 224 286 375 470
#     4  12  26  48  74 106 148 196 270 328 382 474
#     4  11  25  45  72 101 142 194 249 308 391 456
#
# _framework density 21.494975
#
# number of rings (size 3 to 8) (size 9 to 14) (size 15 to 20)
#    0.000    0.727    3.636    4.364    8.909    0.000 
#    0.000    0.000   10.000    0.000    0.000    0.000 
#    0.000    0.000    0.000    0.000    0.000    0.000 
#
# Total GULP energy -183844.690238 kJ/mol
# GULP energy per Si atom -5571.051219 kJ/mol
# Density = 2.144605 g / cm^3
# Si number density = 21.494975 Si / 1000 Ang^3
#
#
#
# Elastic Constant Matrix: (Units=GPa)
#
#
# Indices 1 2 3 4 5 6 
#
# 1 129.7532 42.5261 50.0673 -0.0004 -0.7284 0.0000
# 2 42.5261 129.7532 50.0673 0.0004 0.7284 0.0000
# 3 50.0673 50.0673 152.8267 0.0000 0.0000 0.0000
# 4 -0.0004 0.0004 0.0000 25.9615 0.0000 0.7284
# 5 -0.7284 0.7284 0.0000 0.0000 25.9615 -0.0004
# 6 0.0000 0.0000 0.0000 0.7284 -0.0004 43.6135
#
#
#
# Elastic Compliance Matrix: (Units=1/GPa)
#
#
# Indices 1 2 3 4 5 6 
#
# 1 0.009320 -0.002150 -0.002349 0.000000 0.000322 0.000000
# 2 -0.002150 0.009320 -0.002349 0.000000 -0.000322 0.000000
# 3 -0.002349 -0.002349 0.008082 0.000000 0.000000 0.000000
# 4 0.000000 0.000000 0.000000 0.038537 0.000000 -0.000644
# 5 0.000322 -0.000322 0.000000 0.000000 0.038537 0.000000
# 6 0.000000 0.000000 0.000000 -0.000644 0.000000 0.022939
#
#
# Mechanical properties :
#
#
# Convention : Reuss Voigt Hill
#
# Bulk Modulus (GPa) = 76.76707 77.51718 77.14213
# Shear Modulus (GPa) = 34.53702 37.08545 35.81124
#
# Velocity S-wave (km/s) = 4.01278 4.15819 4.08613
# Velocity P-wave (km/s) = 7.56712 7.69385 7.63075
#
# Compressibility (1/GPa) = 0.01302642
#
# Stress axis : x y z
#
# Youngs Moduli (GPa) = 107.29914 107.29914 123.72582
#
# Poissons Ratio (x) = 0.23069 0.29062
# Poissons Ratio (y) = 0.23069 0.29062
# Poissons Ratio (z) = 0.25203 0.25203
#
# Static dielectric constant tensor:
#      x y z
#    x 1.893030 0.000000 0.000000 
#    y 0.000000 1.893030 0.000000 
#    z 0.000000 0.000000 1.917740 
# 
# From -- ./inp_files/1692.got.cif
#   From: 2010.05.17/outbox.cif.g08.bks.cpg/sg153_1_cif.got.tgz:1692.got - 2010.05.20 10:38:56.
