data_PCOD9576657
_publ_section_title
;
Structure prediction by ZEFSAII (Michael W. Deem and Ramdas Pophale) SiO2 
 PCOD9576657
Probable space group: P 32 2 1
;
_chemical_formula_sum "Si O2"
_cell_formula_units_Z 45
_cell_length_a 11.826783
_cell_length_b 11.826783
_cell_length_c 18.245047
_cell_angle_alpha 90.000000
_cell_angle_beta 90.000000
_cell_angle_gamma 120.000000
_cell_volume 2210.084480
_symmetry_space_group_name_H-M "P 32 2 1"
_symmetry_group_IT_number 154
_symmetry_cell_setting 'hexagonal'
loop_
_space_group_symop_operation_xyz
x,y,z
-y,x-y,2/3+z
-x+y,-x,1/3+z
x-y,-y,1/3-z
-x,-x+y,2/3-z
y,x,-z
loop_
_atom_site_type_symbol
_atom_site_label
_atom_site_fract_x
_atom_site_fract_y
_atom_site_fract_z
Si Si1 0.173378 0.265791 0.907588
Si Si2 0.178996 0.935853 0.403058
Si Si3 0.518066 0.986609 0.747427
Si Si4 0.712254 0.412739 0.895451
Si Si5 0.455977 0.488753 0.362050
Si Si6 0.235358 0.357613 0.551916
Si Si7 0.000000 0.354492 0.833334
Si Si8 0.389788 0.874695 0.444024
O O1 0.165576 0.127968 0.891385
O O2 0.327035 0.365642 0.920099
O O3 0.118485 0.327532 0.849449
O O4 0.092818 0.243815 0.983047
O O5 0.248590 0.855394 0.427151
O O6 0.278075 0.086098 0.422672
O O7 0.418353 0.837641 0.765168
O O8 0.476555 0.000000 0.666667
O O9 0.498070 0.070027 0.808547
O O10 0.788948 0.508233 0.827041
O O11 0.654342 0.257513 0.892306
O O12 0.815605 0.468927 0.962342
O O13 0.396467 0.337503 0.382380
O O14 0.558010 0.572735 0.428075
O O15 0.521212 0.503446 0.283563
O O16 0.266107 0.266107 0.500000
#
# Coordination Sequence:
#
# PCOD9576657 Si02
#       8
#     6   6   6   6   6   6   3   6
#     4  11  24  43  69 104 140 186 238 295 356 425
#     4  11  22  44  67  99 139 186 234 288 360 427
#     4  12  25  43  65  98 142 186 232 296 358 416
#     4  11  23  45  70 104 141 187 232 302 353 435
#     4  11  25  45  70 107 138 183 236 298 361 429
#     4  10  23  44  72  99 144 187 233 297 369 429
#     4  12  22  42  74 102 138 176 234 292 354 430
#     4  12  25  39  73 102 142 187 239 293 362 437
#
# _framework density 20.361212999999999
#
# number of rings (size 3 to 8) (size 9 to 14) (size 15 to 20)
#    0.000    0.800    7.333    0.800    2.800    2.133 
#    0.000    0.000   11.733    0.000    0.000    0.000 
#    0.000    0.000    0.000    0.000    0.000    0.000 
#
# Total GULP energy -251035.597705 kJ/mol
# GULP energy per Si atom -5578.568838 kJ/mol
# Density = 2.031487 g / cm^3
# Si number density = 20.361213 Si / 1000 Ang^3
#
#
#
# Elastic Constant Matrix: (Units=GPa)
#
#
# Indices 1 2 3 4 5 6 
#
# 1 105.8360 35.9775 17.9928 -2.6031 -0.0002 0.0000
# 2 35.9775 105.8360 17.9928 2.6031 0.0002 0.0000
# 3 17.9928 17.9928 56.0621 0.0000 0.0000 0.0000
# 4 -2.6031 2.6031 0.0000 17.0553 0.0000 0.0002
# 5 -0.0002 0.0002 0.0000 0.0000 17.0553 -2.6031
# 6 0.0000 0.0000 0.0000 0.0002 -2.6031 34.9292
#
#
#
# Elastic Compliance Matrix: (Units=1/GPa)
#
#
# Indices 1 2 3 4 5 6 
#
# 1 0.011078 -0.003401 -0.002464 0.002210 0.000000 0.000000
# 2 -0.003401 0.011078 -0.002464 -0.002210 0.000000 0.000000
# 3 -0.002464 -0.002464 0.019419 0.000000 0.000000 0.000000
# 4 0.002210 -0.002210 0.000000 0.059307 0.000000 0.000000
# 5 0.000000 0.000000 0.000000 0.000000 0.059307 0.004420
# 6 0.000000 0.000000 0.000000 0.000000 0.004420 0.028959
#
#
# Mechanical properties :
#
#
# Convention : Reuss Voigt Hill
#
# Bulk Modulus (GPa) = 40.13310 45.74003 42.93657
# Shear Modulus (GPa) = 23.35225 26.85936 25.10581
#
# Velocity S-wave (km/s) = 3.39026 3.63594 3.51525
# Velocity P-wave (km/s) = 5.92271 6.33560 6.13263
#
# Compressibility (1/GPa) = 0.02491709
#
# Stress axis : x y z
#
# Youngs Moduli (GPa) = 90.26876 90.26876 51.49638
#
# Poissons Ratio (x) = 0.30703 0.12688
# Poissons Ratio (y) = 0.30703 0.12688
# Poissons Ratio (z) = 0.22240 0.22240
#
# Static dielectric constant tensor:
#      x y z
#    x 1.747780 0.000000 0.000000 
#    y 0.000000 1.747780 0.000000 
#    z 0.000000 0.000000 2.339110 
# 
# From -- ./inp_files/2507.got.cif
#   From: 2010.05.17/outbox.cif.g08.bks.cpg/sg154_2_cif.got.tgz:2507.got - 2010.05.20 10:41:43.
