data_PCOD9576828
_publ_section_title
;
Structure prediction by ZEFSAII (Michael W. Deem and Ramdas Pophale) SiO2 
 PCOD9576828
Probable space group: R 3 2
;
_chemical_formula_sum "Si O2"
_cell_formula_units_Z 105
_cell_length_a 21.880223
_cell_length_b 21.880223
_cell_length_c 16.242179
_cell_angle_alpha 90.000000
_cell_angle_beta 90.000000
_cell_angle_gamma 120.000000
_cell_volume 6734.082179
_symmetry_space_group_name_H-M "R 3 2"
_symmetry_group_IT_number 155
_symmetry_cell_setting 'hexagonal'
loop_
_space_group_symop_operation_xyz
x,y,z
-y,x-y,z
-x+y,-x,z
x-y,-y,-z
-x,-x+y,-z
y,x,-z
2/3+x,1/3+y,1/3+z
2/3-y,1/3+x-y,1/3+z
2/3-x+y,1/3-x,1/3+z
2/3+x-y,1/3-y,1/3-z
2/3-x,1/3-x+y,1/3-z
2/3+y,1/3+x,1/3-z
1/3+x,2/3+y,2/3+z
1/3-y,2/3+x-y,2/3+z
1/3-x+y,2/3-x,2/3+z
1/3+x-y,2/3-y,2/3-z
1/3-x,2/3-x+y,2/3-z
1/3+y,2/3+x,2/3-z
loop_
_atom_site_type_symbol
_atom_site_label
_atom_site_fract_x
_atom_site_fract_y
_atom_site_fract_z
Si Si1 0.381938 0.237844 0.500632
Si Si2 0.778390 0.956926 0.920262
Si Si3 0.333334 0.272884 0.666667
Si Si4 0.861857 0.923023 0.206019
Si Si5 0.869102 0.633681 0.989261
Si Si6 0.333334 0.666667 0.763595
Si Si7 0.075349 0.906357 0.757172
O O1 0.420167 0.317520 0.463046
O O2 0.349651 0.239822 0.587518
O O3 0.448383 0.225259 0.509644
O O4 0.323491 0.190735 0.433930
O O5 0.809171 0.926083 0.852989
O O6 0.703793 0.898507 0.955019
O O7 0.825645 0.000000 0.000000
O O8 0.265683 0.282407 0.651549
O O9 0.920866 0.954720 0.133596
O O10 0.877311 0.867289 0.250456
O O11 0.881187 0.992978 0.258917
O O12 0.803432 0.569125 0.032792
O O13 0.333334 0.666668 0.666667
#
# Coordination Sequence:
#
# PCOD9576828 Si02
#       7
#    18  18   9  18  18   6  18
#     4  10  20  30  48  79 103 131 161 211 262 311
#     4   9  17  28  46  75 109 131 157 200 259 317
#     4  12  18  30  52  80 112 126 158 212 276 314
#     4   9  19  32  45  70 106 137 175 199 248 307
#     4  11  19  29  51  79 108 128 164 208 269 318
#     4   9  18  30  48  69 108 145 173 202 231 303
#     4  10  19  32  49  73 102 144 170 208 252 308
#
# _framework density 15.592325000000001
#
# number of rings (size 3 to 8) (size 9 to 14) (size 15 to 20)
#    0.000    2.057    6.000    1.371    0.000   10.286 
#    0.000    0.000    0.000    1.029    8.914    0.000 
#    0.000    0.000    0.000    0.000    0.000    0.000 
#
# Total GULP energy -195007.496448 kJ/mol
# GULP energy per Si atom -5571.642756 kJ/mol
# Density = 1.555684 g / cm^3
# Si number density = 15.592325 Si / 1000 Ang^3
#
#
#
# Elastic Constant Matrix: (Units=GPa)
#
#
# Indices 1 2 3 4 5 6 
#
# 1 89.2314 43.5606 39.9774 2.3868 0.0000 0.0000
# 2 43.5606 89.2315 39.9774 -2.3866 0.0000 0.0000
# 3 39.9774 39.9774 82.9010 0.0001 0.0000 0.0000
# 4 2.3868 -2.3866 0.0001 12.8849 0.0000 0.0000
# 5 0.0000 0.0000 0.0000 0.0000 12.8849 2.3867
# 6 0.0000 0.0000 0.0000 0.0000 2.3867 22.8354
#
#
#
# Elastic Compliance Matrix: (Units=1/GPa)
#
#
# Indices 1 2 3 4 5 6 
#
# 1 0.016470 -0.005858 -0.005117 -0.004136 0.000000 0.000000
# 2 -0.005858 0.016470 -0.005117 0.004136 0.000000 0.000000
# 3 -0.005117 -0.005117 0.016998 0.000000 0.000000 0.000000
# 4 -0.004136 0.004136 0.000000 0.079142 0.000000 0.000000
# 5 0.000000 0.000000 0.000000 0.000000 0.079142 -0.008272
# 6 0.000000 0.000000 0.000000 0.000000 -0.008272 0.044656
#
#
# Mechanical properties :
#
#
# Convention : Reuss Voigt Hill
#
# Bulk Modulus (GPa) = 56.33081 56.48829 56.40955
# Shear Modulus (GPa) = 17.18321 18.91094 18.04707
#
# Velocity S-wave (km/s) = 3.32328 3.48636 3.40580
# Velocity P-wave (km/s) = 7.13662 7.24660 7.19182
#
# Compressibility (1/GPa) = 0.01775227
#
# Stress axis : x y z
#
# Youngs Moduli (GPa) = 60.71678 60.71691 58.83038
#
# Poissons Ratio (x) = 0.35569 0.30105
# Poissons Ratio (y) = 0.35569 0.30105
# Poissons Ratio (z) = 0.31071 0.31071
#
# Static dielectric constant tensor:
#      x y z
#    x 1.530140 0.000000 0.000000 
#    y 0.000000 1.530140 0.000000 
#    z 0.000000 0.000000 1.539930 
# 
# From -- ./inp_files/5357.got.cif
#   From: 2010.05.17/outbox.cif.g08.bks.cpg/sg155_3_cif.got.tgz:5357.got - 2010.05.20 10:44:35.
