data_PCOD9576634
_publ_section_title
;
Structure prediction by ZEFSAII (Michael W. Deem and Ramdas Pophale) SiO2 
 PCOD9576634
Probable space group: P 32 2 1
;
_chemical_formula_sum "Si O2"
_cell_formula_units_Z 18
_cell_length_a 7.869780
_cell_length_b 7.869780
_cell_length_c 12.272467
_cell_angle_alpha 90.000000
_cell_angle_beta 90.000000
_cell_angle_gamma 120.000000
_cell_volume 658.245181
_symmetry_space_group_name_H-M "P 32 2 1"
_symmetry_group_IT_number 154
_symmetry_cell_setting 'hexagonal'
loop_
_space_group_symop_operation_xyz
x,y,z
-y,x-y,2/3+z
-x+y,-x,1/3+z
x-y,-y,1/3-z
-x,-x+y,2/3-z
y,x,-z
loop_
_atom_site_type_symbol
_atom_site_label
_atom_site_fract_x
_atom_site_fract_y
_atom_site_fract_z
Si Si1 0.168880 0.859272 0.018265
Si Si2 0.684046 0.244569 0.174483
Si Si3 0.320736 0.096008 0.809444
O O1 0.313275 0.831792 0.097759
O O2 0.981508 0.821960 0.086470
O O3 0.118595 0.688326 0.928540
O O4 0.269610 0.048091 0.939169
O O5 0.732766 0.459474 0.132245
O O6 0.887401 0.289150 0.232652
#
# Coordination Sequence:
#
# PCOD9576634 Si02
#       3
#     6   6   6
#     4  10  22  47  90 139 192 239 322 400 475 589
#     4  10  22  45  91 133 189 246 319 394 486 577
#     4  10  22  46  90 140 186 245 325 386 496 574
#
# _framework density 27.345431999999999
#
# number of rings (size 3 to 8) (size 9 to 14) (size 15 to 20)
#    2.000    0.000    3.333    0.000    0.000    1.333 
#    0.000    6.667   22.000    0.000    8.667    0.000 
#    0.000    0.000    0.000    0.000    0.000    0.000 
#
# Total GULP energy -100815.306726 kJ/mol
# GULP energy per Si atom -5600.850374 kJ/mol
# Density = 2.728319 g / cm^3
# Si number density = 27.345432 Si / 1000 Ang^3
#
#
#
# Elastic Constant Matrix: (Units=GPa)
#
#
# Indices 1 2 3 4 5 6 
#
# 1 172.9803 72.6759 59.2082 -17.3051 0.0000 0.0000
# 2 72.6759 172.9803 59.2082 17.3051 0.0000 0.0000
# 3 59.2082 59.2082 137.0625 0.0000 0.0000 0.0000
# 4 -17.3051 17.3051 0.0000 66.0539 0.0000 0.0000
# 5 0.0000 0.0000 0.0000 0.0000 66.0539 -17.3051
# 6 0.0000 0.0000 0.0000 0.0000 -17.3051 50.1522
#
#
#
# Elastic Compliance Matrix: (Units=1/GPa)
#
#
# Indices 1 2 3 4 5 6 
#
# 1 0.008051 -0.002910 -0.002221 0.002871 0.000000 0.000000
# 2 -0.002910 0.008051 -0.002221 -0.002871 0.000000 0.000000
# 3 -0.002221 -0.002221 0.009215 0.000000 0.000000 0.000000
# 4 0.002871 -0.002871 0.000000 0.016644 0.000000 0.000000
# 5 0.000000 0.000000 0.000000 0.000000 0.016644 0.005743
# 6 0.000000 0.000000 0.000000 0.000000 0.005743 0.021921
#
#
# Mechanical properties :
#
#
# Convention : Reuss Voigt Hill
#
# Bulk Modulus (GPa) = 94.21872 96.13421 95.17647
# Shear Modulus (GPa) = 50.62488 55.91406 53.26947
#
# Velocity S-wave (km/s) = 4.30735 4.52678 4.41843
# Velocity P-wave (km/s) = 7.69854 7.90911 7.80454
#
# Compressibility (1/GPa) = 0.01061360
#
# Stress axis : x y z
#
# Youngs Moduli (GPa) = 124.20989 124.20989 108.52175
#
# Poissons Ratio (x) = 0.36140 0.24102
# Poissons Ratio (y) = 0.36140 0.24102
# Poissons Ratio (z) = 0.27586 0.27586
#
# Static dielectric constant tensor:
#      x y z
#    x 2.123780 0.000000 0.000000 
#    y 0.000000 2.123780 0.000000 
#    z 0.000000 0.000000 2.355040 
# 
# From -- ./inp_files/1470.got.cif
#   From: 2010.05.17/outbox.cif.g08.bks.cpg/sg154_1_cif.got.tgz:1470.got - 2010.05.20 10:41:43.
