data_PCOD9576423
_publ_section_title
;
Structure prediction by ZEFSAII (Michael W. Deem and Ramdas Pophale) SiO2 
 PCOD9576423
Probable space group: P 32 2 1
;
_chemical_formula_sum "Si O2"
_cell_formula_units_Z 36
_cell_length_a 9.193146
_cell_length_b 9.193146
_cell_length_c 21.554701
_cell_angle_alpha 90.000000
_cell_angle_beta 90.000000
_cell_angle_gamma 120.000000
_cell_volume 1577.614718
_symmetry_space_group_name_H-M "P 32 2 1"
_symmetry_group_IT_number 154
_symmetry_cell_setting 'hexagonal'
loop_
_space_group_symop_operation_xyz
x,y,z
-y,x-y,2/3+z
-x+y,-x,1/3+z
x-y,-y,1/3-z
-x,-x+y,2/3-z
y,x,-z
loop_
_atom_site_type_symbol
_atom_site_label
_atom_site_fract_x
_atom_site_fract_y
_atom_site_fract_z
Si Si1 0.158465 0.157387 0.377603
Si Si2 0.479128 0.349095 0.556678
Si Si3 0.131399 0.357655 0.073368
Si Si4 0.980394 0.489501 0.231466
Si Si5 0.682234 0.139349 0.894964
Si Si6 0.893637 0.156799 0.447473
O O1 0.302290 0.350641 0.385593
O O2 0.211846 0.016913 0.374266
O O3 0.000000 0.106251 0.333334
O O4 0.057057 0.140542 0.441017
O O5 0.403802 0.403802 0.500000
O O6 0.669140 0.495014 0.568526
O O7 0.505220 0.188318 0.541737
O O8 0.326016 0.417680 0.059661
O O9 0.110053 0.519493 0.067209
O O10 0.123701 0.316910 0.147248
O O11 0.089045 0.613922 0.175955
O O12 0.087550 0.407149 0.255889
O O13 0.743779 0.009977 0.910201
#
# Coordination Sequence:
#
# PCOD9576423 Si02
#       6
#     6   6   6   6   6   6
#     4  11  22  35  49  70 104 146 183 216 257 308
#     4  10  19  33  54  77 105 138 171 214 265 317
#     4   9  17  33  54  76 100 132 171 215 266 315
#     4   8  16  30  52  79 103 128 165 215 267 312
#     4   9  17  30  54  84 104 125 166 217 268 319
#     4   9  17  33  55  78 104 129 164 217 265 317
#
# _framework density 22.819257
#
# number of rings (size 3 to 8) (size 9 to 14) (size 15 to 20)
#    0.000    2.667    0.000    4.500    0.000    2.667 
#    0.000    9.167    0.000    0.000    0.000    0.000 
#    0.000    0.000    0.000    0.000    0.000    0.000 
#
# Total GULP energy -200599.781096 kJ/mol
# GULP energy per Si atom -5572.216142 kJ/mol
# Density = 2.276732 g / cm^3
# Si number density = 22.819257 Si / 1000 Ang^3
#
#
#
# Elastic Constant Matrix: (Units=GPa)
#
#
# Indices 1 2 3 4 5 6 
#
# 1 126.0057 48.4348 4.9573 -5.7387 -0.0001 0.0000
# 2 48.4348 126.0057 4.9573 5.7387 0.0001 0.0000
# 3 4.9573 4.9573 24.8437 0.0000 0.0000 0.0000
# 4 -5.7387 5.7387 0.0000 7.4383 0.0000 0.0001
# 5 -0.0001 0.0001 0.0000 0.0000 7.4383 -5.7387
# 6 0.0000 0.0000 0.0000 0.0001 -5.7387 38.7854
#
#
#
# Elastic Compliance Matrix: (Units=1/GPa)
#
#
# Indices 1 2 3 4 5 6 
#
# 1 0.010176 -0.004377 -0.001157 0.011228 0.000000 0.000000
# 2 -0.004377 0.010176 -0.001157 -0.011228 0.000000 0.000000
# 3 -0.001157 -0.001157 0.040713 0.000000 0.000000 0.000000
# 4 0.011228 -0.011228 0.000000 0.151763 0.000000 0.000000
# 5 0.000000 0.000000 0.000000 0.000000 0.151763 0.022455
# 6 0.000000 0.000000 0.000000 0.000000 0.022455 0.029105
#
#
# Mechanical properties :
#
#
# Convention : Reuss Voigt Hill
#
# Bulk Modulus (GPa) = 20.97222 43.72821 32.35021
# Shear Modulus (GPa) = 11.82110 25.29946 18.56028
#
# Velocity S-wave (km/s) = 2.27850 3.33331 2.85504
# Velocity P-wave (km/s) = 4.01654 5.83259 5.00758
#
# Compressibility (1/GPa) = 0.04768213
#
# Stress axis : x y z
#
# Youngs Moduli (GPa) = 98.27504 98.27504 24.56192
#
# Poissons Ratio (x) = 0.43016 0.02842
# Poissons Ratio (y) = 0.43016 0.02842
# Poissons Ratio (z) = 0.11371 0.11371
#
# Static dielectric constant tensor:
#      x y z
#    x 1.864100 0.000000 0.000000 
#    y 0.000000 1.864100 0.000000 
#    z 0.000000 0.000000 1.960850 
# 
# From -- ./inp_files/3610.got.cif
#   From: 2010.05.17/outbox.cif.g08.bks.cpg/sg154_2_cif.got.tgz:3610.got - 2010.05.20 10:41:43.
