data_PCOD9576910
_publ_section_title
;
Structure prediction by ZEFSAII (Michael W. Deem and Ramdas Pophale) SiO2 
 PCOD9576910
Probable space group: R 3 2
;
_chemical_formula_sum "Si O2"
_cell_formula_units_Z 60
_cell_length_a 13.484315
_cell_length_b 13.484315
_cell_length_c 16.738471
_cell_angle_alpha 90.000000
_cell_angle_beta 90.000000
_cell_angle_gamma 120.000000
_cell_volume 2635.749874
_symmetry_space_group_name_H-M "R 3 2"
_symmetry_group_IT_number 155
_symmetry_cell_setting 'hexagonal'
loop_
_space_group_symop_operation_xyz
x,y,z
-y,x-y,z
-x+y,-x,z
x-y,-y,-z
-x,-x+y,-z
y,x,-z
2/3+x,1/3+y,1/3+z
2/3-y,1/3+x-y,1/3+z
2/3-x+y,1/3-x,1/3+z
2/3+x-y,1/3-y,1/3-z
2/3-x,1/3-x+y,1/3-z
2/3+y,1/3+x,1/3-z
1/3+x,2/3+y,2/3+z
1/3-y,2/3+x-y,2/3+z
1/3-x+y,2/3-x,2/3+z
1/3+x-y,2/3-y,2/3-z
1/3-x,2/3-x+y,2/3-z
1/3+y,2/3+x,2/3-z
loop_
_atom_site_type_symbol
_atom_site_label
_atom_site_fract_x
_atom_site_fract_y
_atom_site_fract_z
Si Si1 0.987755 0.204087 0.864324
Si Si2 0.210639 0.366135 0.682674
Si Si3 0.201504 0.037802 0.694499
Si Si4 0.000000 0.000000 0.594104
O O1 0.023778 0.333334 0.833334
O O2 0.896770 0.159577 0.935200
O O3 0.935624 0.125641 0.786552
O O4 0.101580 0.221021 0.909710
O O5 0.333334 0.379461 0.666667
O O6 0.099861 0.245891 0.699970
O O7 0.333334 0.098176 0.666667
O O8 0.127264 0.058088 0.630002
O O9 0.000000 0.000000 0.500000
#
# Coordination Sequence:
#
# PCOD9576910 Si02
#       4
#    18  18  18   6
#     4   9  18  39  65  99 133 184 227 277 359 408
#     4  10  20  36  68 105 138 176 230 286 348 421
#     4  11  24  48  72  95 143 191 229 299 356 419
#     4  12  33  45  72 109 131 190 252 282 345 426
#
# _framework density 22.763921
#
# number of rings (size 3 to 8) (size 9 to 14) (size 15 to 20)
#    0.000    1.800    6.000    0.000    8.400    1.200 
#    7.200    4.500    0.000    0.000    0.000    0.000 
#    0.000    0.000    0.000    0.000    0.000    0.000 
#
# Total GULP energy -111558.847971 kJ/mol
# GULP energy per Si atom -5577.942399 kJ/mol
# Density = 2.271211 g / cm^3
# Si number density = 22.763921 Si / 1000 Ang^3
#
#
#
# Elastic Constant Matrix: (Units=GPa)
#
#
# Indices 1 2 3 4 5 6 
#
# 1 58.6005 29.7493 28.1078 -2.3643 -0.0001 0.0000
# 2 29.7493 58.6005 28.1078 2.3643 0.0001 0.0000
# 3 28.1078 28.1078 217.3834 0.0000 0.0000 0.0000
# 4 -2.3643 2.3643 0.0000 21.3842 0.0000 0.0001
# 5 -0.0001 0.0001 0.0000 0.0000 21.3842 -2.3643
# 6 0.0000 0.0000 0.0000 0.0001 -2.3643 14.4256
#
#
#
# Elastic Compliance Matrix: (Units=1/GPa)
#
#
# Indices 1 2 3 4 5 6 
#
# 1 0.023817 -0.011483 -0.001595 0.003903 0.000000 0.000000
# 2 -0.011483 0.023817 -0.001595 -0.003903 0.000000 0.000000
# 3 -0.001595 -0.001595 0.005013 0.000000 0.000000 0.000000
# 4 0.003903 -0.003903 0.000000 0.047627 0.000000 0.000000
# 5 0.000000 0.000000 0.000000 0.000000 0.047627 0.007806
# 6 0.000000 0.000000 0.000000 0.000000 0.007806 0.070601
#
#
# Mechanical properties :
#
#
# Convention : Reuss Voigt Hill
#
# Bulk Modulus (GPa) = 42.91775 56.27936 49.59855
# Shear Modulus (GPa) = 19.56084 28.01342 23.78713
#
# Velocity S-wave (km/s) = 2.93455 3.51181 3.23607
# Velocity P-wave (km/s) = 5.51148 6.42031 5.98318
#
# Compressibility (1/GPa) = 0.02330039
#
# Stress axis : x y z
#
# Youngs Moduli (GPa) = 41.98713 41.98713 199.49886
#
# Poissons Ratio (x) = 0.48216 0.31814
# Poissons Ratio (y) = 0.48216 0.31814
# Poissons Ratio (z) = 0.06696 0.06696
#
# Static dielectric constant tensor:
#      x y z
#    x 1.898830 0.000000 0.000000 
#    y 0.000000 1.898830 0.000000 
#    z 0.000000 0.000000 1.865140 
# 
# From -- ./inp_files/4754.got.cif
#   From: 2010.05.17/outbox.cif.g08.bks.cpg/sg155_3_cif.got.tgz:4754.got - 2010.05.20 10:44:35.
