data_PCOD9576118
_publ_section_title
;
Structure prediction by ZEFSAII (Michael W. Deem and Ramdas Pophale) SiO2 
 PCOD9576118
Probable space group: P 31 2 1
;
_chemical_formula_sum "Si O2"
_cell_formula_units_Z 24
_cell_length_a 15.229797
_cell_length_b 15.229797
_cell_length_c 4.897891
_cell_angle_alpha 90.000000
_cell_angle_beta 90.000000
_cell_angle_gamma 120.000000
_cell_volume 983.847931
_symmetry_space_group_name_H-M "P 31 2 1"
_symmetry_group_IT_number 152
_symmetry_cell_setting 'hexagonal'
loop_
_space_group_symop_operation_xyz
x,y,z
-y,x-y,1/3+z
-x+y,-x,2/3+z
x-y,-y,2/3-z
-x,-x+y,1/3-z
y,x,-z
loop_
_atom_site_type_symbol
_atom_site_label
_atom_site_fract_x
_atom_site_fract_y
_atom_site_fract_z
Si Si1 0.316023 0.753563 0.976593
Si Si2 0.214015 0.103712 0.985883
Si Si3 0.068020 0.581835 0.407396
Si Si4 0.651171 0.850288 0.821897
O O1 0.253050 0.635658 0.063344
O O2 0.410424 0.832501 0.160210
O O3 0.245941 0.804540 0.995151
O O4 0.277938 0.189973 0.761355
O O5 0.188842 0.000000 0.833334
O O6 0.113229 0.113229 0.000000
O O7 0.277705 0.124263 0.267334
O O8 0.103071 0.692796 0.296663
O O9 0.000000 0.559225 0.666667
O O10 0.000000 0.504569 0.166667
#
# Coordination Sequence:
#
# PCOD9576118 Si02
#       4
#     6   6   6   6
#     4  10  26  43  70 101 147 194 240 294 358 422
#     4  12  27  48  73 103 139 183 236 300 371 440
#     4  11  24  42  68  99 138 183 237 290 349 417
#     4  11  25  45  71 100 140 183 237 288 356 430
#
# _framework density 24.394013999999999
#
# number of rings (size 3 to 8) (size 9 to 14) (size 15 to 20)
#    0.000    1.000    0.000    5.250   14.000    5.000 
#    0.000    0.000    0.000    0.000    0.000    0.000 
#    0.000    0.000    0.000    0.000    0.000    0.000 
#
# Total GULP energy -133802.317248 kJ/mol
# GULP energy per Si atom -5575.096552 kJ/mol
# Density = 2.433849 g / cm^3
# Si number density = 24.394014 Si / 1000 Ang^3
#
#
#
# Elastic Constant Matrix: (Units=GPa)
#
#
# Indices 1 2 3 4 5 6 
#
# 1 73.7532 17.1330 13.0729 -4.0372 0.0002 0.0000
# 2 17.1330 73.7532 13.0729 4.0372 -0.0002 0.0000
# 3 13.0729 13.0729 118.0377 0.0000 0.0000 0.0000
# 4 -4.0372 4.0372 0.0000 14.3973 0.0000 -0.0002
# 5 0.0002 -0.0002 0.0000 0.0000 14.3973 -4.0372
# 6 0.0000 0.0000 0.0000 -0.0002 -4.0372 28.3101
#
#
#
# Elastic Compliance Matrix: (Units=1/GPa)
#
#
# Indices 1 2 3 4 5 6 
#
# 1 0.014881 -0.003516 -0.001259 0.005159 0.000000 0.000000
# 2 -0.003516 0.014881 -0.001259 -0.005159 0.000000 0.000000
# 3 -0.001259 -0.001259 0.008751 0.000000 0.000000 0.000000
# 4 0.005159 -0.005159 0.000000 0.072351 0.000000 0.000000
# 5 0.000000 0.000000 0.000000 0.000000 0.072351 0.010318
# 6 0.000000 0.000000 0.000000 0.000000 0.010318 0.036794
#
#
# Mechanical properties :
#
#
# Convention : Reuss Voigt Hill
#
# Bulk Modulus (GPa) = 37.81336 39.12240 38.46788
# Shear Modulus (GPa) = 20.75631 26.23863 23.49747
#
# Velocity S-wave (km/s) = 2.92014 3.28322 3.10699
# Velocity P-wave (km/s) = 5.18694 5.51772 5.35489
#
# Compressibility (1/GPa) = 0.02644568
#
# Stress axis : x y z
#
# Youngs Moduli (GPa) = 67.19963 67.19963 114.27699
#
# Poissons Ratio (x) = 0.23629 0.14384
# Poissons Ratio (y) = 0.23629 0.14384
# Poissons Ratio (z) = 0.08458 0.08458
#
# Static dielectric constant tensor:
#      x y z
#    x 2.034560 0.000000 0.000000 
#    y 0.000000 2.034560 0.000000 
#    z 0.000000 0.000000 2.004210 
# 
# From -- ./inp_files/166.got.cif
#   From: 2010.05.17/outbox.cif.g08.bks.cpg/sg152_1_cif.got.tgz:166.got - 2010.05.20 10:36:06.
