data_PCOD9576226
_publ_section_title
;
Structure prediction by ZEFSAII (Michael W. Deem and Ramdas Pophale) SiO2 
 PCOD9576226
Probable space group: P 32 1 2
;
_chemical_formula_sum "Si O2"
_cell_formula_units_Z 42
_cell_length_a 8.314949
_cell_length_b 8.314949
_cell_length_c 31.568021
_cell_angle_alpha 90.000000
_cell_angle_beta 90.000000
_cell_angle_gamma 120.000000
_cell_volume 1890.153906
_symmetry_space_group_name_H-M "P 32 1 2"
_symmetry_group_IT_number 153
_symmetry_cell_setting 'hexagonal'
loop_
_space_group_symop_operation_xyz
x,y,z
-y,x-y,2/3+z
-x+y,-x,1/3+z
-y,-x,1/3-z
-x+y,y,2/3-z
x,x-y,-z
loop_
_atom_site_type_symbol
_atom_site_label
_atom_site_fract_x
_atom_site_fract_y
_atom_site_fract_z
Si Si1 0.535716 0.119454 0.967245
Si Si2 0.790834 0.462401 0.928737
Si Si3 0.869372 0.034966 0.309951
Si Si4 0.285368 0.805031 0.019754
Si Si5 0.647035 0.664627 0.816714
Si Si6 0.804179 0.781121 0.232400
Si Si7 0.414900 0.974421 0.107802
O O1 0.734018 0.260358 0.946862
O O2 0.389054 0.051176 0.928720
O O3 0.502925 0.251463 0.000000
O O4 0.476037 0.937607 0.994518
O O5 0.600952 0.444353 0.910012
O O6 0.853363 0.618980 0.964611
O O7 0.944142 0.537710 0.892141
O O8 0.730163 0.860961 0.339520
O O9 0.890109 0.954839 0.264732
O O10 0.065527 0.131053 0.333334
O O11 0.328894 0.829851 0.069264
O O12 0.208279 0.604140 0.000000
O O13 0.488277 0.572302 0.851809
O O14 0.836390 0.672779 0.833334
O O15 0.699526 0.870439 0.803339
O O16 0.952444 0.727296 0.215567
#
# Coordination Sequence:
#
# PCOD9576226 Si02
#       7
#     6   6   6   6   6   6   6
#     4  10  17  36  62  85 117 158 201 259 324 376
#     4   9  19  33  61  92 118 151 209 262 303 373
#     4  10  18  35  62  90 121 161 200 248 325 383
#     4  11  21  35  58  87 127 166 199 252 325 386
#     4   9  19  34  58  87 119 161 219 260 303 372
#     4   9  16  33  63  79 113 169 205 244 321 378
#     4  10  18  37  59  85 121 165 209 257 311 372
#
# _framework density 22.220413000000001
#
# number of rings (size 3 to 8) (size 9 to 14) (size 15 to 20)
#    0.000    2.286    4.286    0.857    0.000    1.143 
#    2.571    0.000   12.571    0.000    0.000    0.000 
#    0.000    0.000    0.000    0.000    0.000    0.000 
#
# Total GULP energy -234497.828143 kJ/mol
# GULP energy per Si atom -5583.281622 kJ/mol
# Density = 2.216984 g / cm^3
# Si number density = 22.220413 Si / 1000 Ang^3
#
#
#
# Elastic Constant Matrix: (Units=GPa)
#
#
# Indices 1 2 3 4 5 6 
#
# 1 73.1983 18.8525 31.4876 0.0001 -3.0580 0.0000
# 2 18.8525 73.1983 31.4876 -0.0001 3.0580 0.0000
# 3 31.4876 31.4876 104.8264 0.0000 0.0000 0.0000
# 4 0.0001 -0.0001 0.0000 14.2836 0.0000 3.0580
# 5 -3.0580 3.0580 0.0000 0.0000 14.2836 0.0001
# 6 0.0000 0.0000 0.0000 3.0580 0.0001 27.1729
#
#
#
# Elastic Compliance Matrix: (Units=1/GPa)
#
#
# Indices 1 2 3 4 5 6 
#
# 1 0.016264 -0.002591 -0.004107 0.000000 0.004037 0.000000
# 2 -0.002591 0.016264 -0.004107 0.000000 -0.004037 0.000000
# 3 -0.004107 -0.004107 0.012007 0.000000 0.000000 0.000000
# 4 0.000000 0.000000 0.000000 0.071739 0.000000 -0.008073
# 5 0.004037 -0.004037 0.000000 0.000000 0.071739 0.000000
# 6 0.000000 0.000000 0.000000 -0.008073 0.000000 0.037710
#
#
# Mechanical properties :
#
#
# Convention : Reuss Voigt Hill
#
# Bulk Modulus (GPa) = 43.62034 46.09759 44.85897
# Shear Modulus (GPa) = 19.60975 22.44104 21.02540
#
# Velocity S-wave (km/s) = 2.97393 3.18139 3.07941
# Velocity P-wave (km/s) = 5.60943 5.85539 5.73373
#
# Compressibility (1/GPa) = 0.02292508
#
# Stress axis : x y z
#
# Youngs Moduli (GPa) = 61.48467 61.48467 83.28467
#
# Poissons Ratio (x) = 0.15929 0.34207
# Poissons Ratio (y) = 0.15929 0.34207
# Poissons Ratio (z) = 0.25253 0.25253
#
# Static dielectric constant tensor:
#      x y z
#    x 1.843760 0.000000 0.000000 
#    y 0.000000 1.843760 0.000000 
#    z 0.000000 0.000000 1.826630 
# 
# From -- ./inp_files/5163.got.cif
#   From: 2010.05.17/outbox.cif.g08.bks.cpg/sg153_3_cif.got.tgz:5163.got - 2010.05.20 10:38:56.
