data_PCOD9576912
_publ_section_title
;
Structure prediction by ZEFSAII (Michael W. Deem and Ramdas Pophale) SiO2 
 PCOD9576912
Probable space group: R 3 2
;
_chemical_formula_sum "Si O2"
_cell_formula_units_Z 108
_cell_length_a 23.807130
_cell_length_b 23.807130
_cell_length_c 12.396116
_cell_angle_alpha 90.000000
_cell_angle_beta 90.000000
_cell_angle_gamma 120.000000
_cell_volume 6084.576422
_symmetry_space_group_name_H-M "R 3 2"
_symmetry_group_IT_number 155
_symmetry_cell_setting 'hexagonal'
loop_
_space_group_symop_operation_xyz
x,y,z
-y,x-y,z
-x+y,-x,z
x-y,-y,-z
-x,-x+y,-z
y,x,-z
2/3+x,1/3+y,1/3+z
2/3-y,1/3+x-y,1/3+z
2/3-x+y,1/3-x,1/3+z
2/3+x-y,1/3-y,1/3-z
2/3-x,1/3-x+y,1/3-z
2/3+y,1/3+x,1/3-z
1/3+x,2/3+y,2/3+z
1/3-y,2/3+x-y,2/3+z
1/3-x+y,2/3-x,2/3+z
1/3+x-y,2/3-y,2/3-z
1/3-x,2/3-x+y,2/3-z
1/3+y,2/3+x,2/3-z
loop_
_atom_site_type_symbol
_atom_site_label
_atom_site_fract_x
_atom_site_fract_y
_atom_site_fract_z
Si Si1 0.409517 0.819714 0.646533
Si Si2 0.075493 0.509025 0.464720
Si Si3 0.600910 0.804177 0.522661
Si Si4 0.177677 0.269528 0.595248
Si Si5 0.978524 0.265510 0.874147
Si Si6 0.075150 0.609606 0.020144
O O1 0.333334 0.770971 0.666667
O O2 0.449218 0.782552 0.666667
O O3 0.428352 0.865624 0.539028
O O4 0.430021 0.872406 0.739296
O O5 0.081864 0.533998 0.342879
O O6 0.079447 0.443913 0.477625
O O7 0.000000 0.485967 0.500000
O O8 0.652336 0.870046 0.583055
O O9 0.633929 0.759653 0.516915
O O10 0.578934 0.818973 0.410069
O O11 0.166900 0.248974 0.469562
O O12 0.217393 0.237662 0.645210
O O13 0.988653 0.333334 0.833334
O O14 0.000000 0.271667 0.000000
O O15 0.000000 0.587564 0.000000
#
# Coordination Sequence:
#
# PCOD9576912 Si02
#       6
#    18  18  18  18  18  18
#     4  12  23  38  59  86 121 158 201 253 308 367
#     4  11  19  37  59  85 115 153 194 244 305 362
#     4  11  19  39  59  85 119 151 204 251 300 367
#     4  10  20  37  56  82 115 156 196 236 309 359
#     4  11  21  37  60  87 126 160 194 251 307 373
#     4   9  21  37  56  80 119 153 194 253 294 366
#
# _framework density 17.749797999999998
#
# number of rings (size 3 to 8) (size 9 to 14) (size 15 to 20)
#    0.000    1.333    5.000    2.167    0.000    2.667 
#    6.000    0.833    0.000    0.000    0.000    0.000 
#    0.000    0.000    0.000    0.000    0.000    0.000 
#
# Total GULP energy -200600.799138 kJ/mol
# GULP energy per Si atom -5572.244421 kJ/mol
# Density = 1.770940 g / cm^3
# Si number density = 17.749798 Si / 1000 Ang^3
#
#
#
# Elastic Constant Matrix: (Units=GPa)
#
#
# Indices 1 2 3 4 5 6 
#
# 1 61.2654 30.3123 30.1468 32.7305 -0.0130 0.0001
# 2 30.3123 61.2653 30.1464 -32.7308 0.0135 -0.0002
# 3 30.1468 30.1464 88.4793 -0.0012 0.0018 -0.0003
# 4 32.7305 -32.7308 -0.0012 -135.0636 0.0047 0.0117
# 5 -0.0130 0.0135 0.0018 0.0047 -135.0673 32.7312
# 6 0.0001 -0.0002 -0.0003 0.0117 32.7312 15.4764
#
#
#
# Elastic Compliance Matrix: (Units=1/GPa)
#
#
# Indices 1 2 3 4 5 6 
#
# 1 0.017719 -0.003641 -0.004797 0.005176 -0.000002 0.000000
# 2 -0.003641 0.017719 -0.004797 -0.005176 0.000002 0.000000
# 3 -0.004797 -0.004797 0.014571 0.000000 0.000000 0.000000
# 4 0.005176 -0.005176 0.000000 -0.004895 0.000000 0.000004
# 5 -0.000002 0.000002 0.000000 0.000000 -0.004895 0.010352
# 6 0.000000 0.000000 0.000000 0.000004 0.010352 0.042720
#
#
# Mechanical properties :
#
#
# Convention : Reuss Voigt Hill
#
# Bulk Modulus (GPa) = 42.48124 43.58012 43.03068
# Shear Modulus (GPa) = 42.64283 -42.90393 -0.13055
#
# Velocity S-wave (km/s) = 4.90679 -4.92179 -0.27150
# Velocity P-wave (km/s) = 7.48915 2.77360 4.91907
#
# Compressibility (1/GPa) = 0.02353980
#
# Stress axis : x y z
#
# Youngs Moduli (GPa) = 56.43728 56.43722 68.63123
#
# Poissons Ratio (x) = 0.20550 0.32919
# Poissons Ratio (y) = 0.20550 0.32919
# Poissons Ratio (z) = 0.27070 0.27070
#
# Static dielectric constant tensor:
#      x y z
#    x 1.852330 0.000010 0.000000 
#    y 0.000010 1.852340 0.000000 
#    z 0.000000 0.000000 1.629030 
# 
# From -- ./inp_files/4062.got.cif
#   From: 2010.05.17/outbox.cif.g08.bks.cpg/sg155_3_cif.got.tgz:4062.got - 2010.05.20 10:44:35.
