data_PCOD9576306
_publ_section_title
;
Structure prediction by ZEFSAII (Michael W. Deem and Ramdas Pophale) SiO2 
 PCOD9576306
Probable space group: P 32 1 2
;
_chemical_formula_sum "Si O2"
_cell_formula_units_Z 48
_cell_length_a 12.645070
_cell_length_b 12.645070
_cell_length_c 19.350483
_cell_angle_alpha 90.000000
_cell_angle_beta 90.000000
_cell_angle_gamma 120.000000
_cell_volume 2679.568829
_symmetry_space_group_name_H-M "P 32 1 2"
_symmetry_group_IT_number 153
_symmetry_cell_setting 'hexagonal'
loop_
_space_group_symop_operation_xyz
x,y,z
-y,x-y,2/3+z
-x+y,-x,1/3+z
-y,-x,1/3-z
-x+y,y,2/3-z
x,x-y,-z
loop_
_atom_site_type_symbol
_atom_site_label
_atom_site_fract_x
_atom_site_fract_y
_atom_site_fract_z
Si Si1 0.871952 0.979973 0.849795
Si Si2 0.449959 0.667150 0.812508
Si Si3 0.514310 0.820562 0.673289
Si Si4 0.794752 0.707502 0.901663
Si Si5 0.788725 0.983675 0.694308
Si Si6 0.392815 0.937688 0.271285
Si Si7 0.127150 0.433811 0.282886
Si Si8 0.947474 0.767981 0.038049
O O1 0.823776 0.844400 0.880128
O O2 0.808633 0.974285 0.776499
O O3 0.014444 0.028888 0.833334
O O4 0.872008 0.070306 0.908132
O O5 0.313795 0.627589 0.833334
O O6 0.484104 0.756665 0.748012
O O7 0.455362 0.546340 0.792407
O O8 0.535322 0.732445 0.876874
O O9 0.648215 0.937416 0.677654
O O10 0.520726 0.717672 0.626811
O O11 0.410870 0.848796 0.647786
O O12 0.829161 0.658321 0.833334
O O13 0.658446 0.645712 0.931216
O O14 0.878513 0.716919 0.965743
O O15 0.819345 0.890249 0.652873
O O16 0.882760 0.117241 0.666667
O O17 0.490818 0.981635 0.333334
O O18 0.328299 0.017642 0.263248
O O19 0.190548 0.381096 0.333334
#
# Coordination Sequence:
#
# PCOD9576306 Si02
#       8
#     6   6   6   6   6   6   6   6
#     4  11  19  32  52  80 113 146 183 225 280 343
#     4  11  19  35  55  83 119 143 182 227 281 343
#     4  10  21  35  52  81 111 150 181 227 282 335
#     4  11  23  36  55  82 112 148 187 233 287 339
#     4  11  20  34  54  78 114 149 184 229 281 337
#     4   9  20  34  53  77 110 145 184 227 281 331
#     4  12  22  36  58  86 116 149 189 232 286 352
#     4  11  20  35  53  78 113 146 188 231 280 344
#
# _framework density 17.913329999999998
#
# number of rings (size 3 to 8) (size 9 to 14) (size 15 to 20)
#    0.000    1.250    6.250    2.250    3.500    1.500 
#    0.000    0.000    0.000    0.750    0.000    0.000 
#    0.000    0.000    0.000    0.000    0.000    0.000 
#
# Total GULP energy -267776.964934 kJ/mol
# GULP energy per Si atom -5578.686769 kJ/mol
# Density = 1.787256 g / cm^3
# Si number density = 17.913330 Si / 1000 Ang^3
#
#
#
# Elastic Constant Matrix: (Units=GPa)
#
#
# Indices 1 2 3 4 5 6 
#
# 1 55.6662 10.1072 15.2840 0.0003 -1.8447 0.0000
# 2 10.1072 55.6662 15.2840 -0.0003 1.8447 0.0000
# 3 15.2840 15.2840 78.4768 0.0000 0.0000 0.0000
# 4 0.0003 -0.0003 0.0000 8.8529 0.0000 1.8447
# 5 -1.8447 1.8447 0.0000 0.0000 8.8529 0.0003
# 6 0.0000 0.0000 0.0000 1.8447 0.0003 22.7795
#
#
#
# Elastic Compliance Matrix: (Units=1/GPa)
#
#
# Indices 1 2 3 4 5 6 
#
# 1 0.019522 -0.002805 -0.003256 -0.000001 0.004652 0.000000
# 2 -0.002805 0.019522 -0.003256 0.000001 -0.004652 0.000000
# 3 -0.003256 -0.003256 0.014011 0.000000 0.000000 0.000000
# 4 -0.000001 0.000001 0.000000 0.114896 0.000000 -0.009304
# 5 0.004652 -0.004652 0.000000 0.000000 0.114896 -0.000001
# 6 0.000000 0.000000 0.000000 -0.009304 -0.000001 0.044652
#
#
# Mechanical properties :
#
#
# Convention : Reuss Voigt Hill
#
# Bulk Modulus (GPa) = 29.05164 30.12883 29.59024
# Shear Modulus (GPa) = 13.98195 18.03935 16.01065
#
# Velocity S-wave (km/s) = 2.79683 3.17682 2.99287
# Velocity P-wave (km/s) = 5.16554 5.50564 5.33830
#
# Compressibility (1/GPa) = 0.03442146
#
# Stress axis : x y z
#
# Youngs Moduli (GPa) = 51.22551 51.22551 71.37358
#
# Poissons Ratio (x) = 0.14367 0.23237
# Poissons Ratio (y) = 0.14367 0.23237
# Poissons Ratio (z) = 0.16678 0.16678
#
# Static dielectric constant tensor:
#      x y z
#    x 1.624940 0.000000 0.000000 
#    y 0.000000 1.624940 0.000000 
#    z 0.000000 0.000000 1.669370 
# 
# From -- ./inp_files/4047.got.cif
#   From: 2010.05.17/outbox.cif.g08.bks.cpg/sg153_3_cif.got.tgz:4047.got - 2010.05.20 10:38:56.
