data_PCOD9576591
_publ_section_title
;
Structure prediction by ZEFSAII (Michael W. Deem and Ramdas Pophale) SiO2 
 PCOD9576591
Probable space group: P 32 2 1
;
_chemical_formula_sum "Si O2"
_cell_formula_units_Z 39
_cell_length_a 7.900837
_cell_length_b 7.900837
_cell_length_c 33.817585
_cell_angle_alpha 90.000000
_cell_angle_beta 90.000000
_cell_angle_gamma 120.000000
_cell_volume 1828.181990
_symmetry_space_group_name_H-M "P 32 2 1"
_symmetry_group_IT_number 154
_symmetry_cell_setting 'hexagonal'
loop_
_space_group_symop_operation_xyz
x,y,z
-y,x-y,2/3+z
-x+y,-x,1/3+z
x-y,-y,1/3-z
-x,-x+y,2/3-z
y,x,-z
loop_
_atom_site_type_symbol
_atom_site_label
_atom_site_fract_x
_atom_site_fract_y
_atom_site_fract_z
Si Si1 0.192580 0.638638 0.617349
Si Si2 0.840141 0.272559 0.129144
Si Si3 0.285224 0.408617 0.921368
Si Si4 0.562348 0.069852 0.240230
Si Si5 0.518628 0.278450 0.864832
Si Si6 0.067702 0.719906 0.986492
Si Si7 0.000000 0.851851 0.333334
O O1 0.374558 0.828131 0.600081
O O2 0.279342 0.549416 0.649006
O O3 0.120265 0.486489 0.581480
O O4 0.032020 0.665953 0.638646
O O5 0.056405 0.357745 0.145172
O O6 0.682432 0.045237 0.122108
O O7 0.757745 0.376556 0.157409
O O8 0.088602 0.416262 0.908950
O O9 0.383673 0.347109 0.887432
O O10 0.229193 0.283107 0.961392
O O11 0.648681 0.062140 0.283246
O O12 0.626667 0.287817 0.225743
O O13 0.117377 0.940917 0.985813
#
# Coordination Sequence:
#
# PCOD9576591 Si02
#       7
#     6   6   6   6   6   6   3
#     4  10  22  40  65  90 132 166 220 266 338 401
#     4  10  23  43  65 101 126 174 228 278 328 415
#     4  10  24  42  64  99 129 175 223 275 337 414
#     4  10  24  44  68  97 134 175 225 274 346 404
#     4  12  24  44  73  90 137 177 222 283 343 393
#     4  10  22  38  62  95 126 169 212 268 338 401
#     4  12  24  38  62  98 138 158 224 278 328 414
#
# _framework density 21.332668000000002
#
# number of rings (size 3 to 8) (size 9 to 14) (size 15 to 20)
#    0.000    1.846    0.000    6.000    8.615    0.000 
#    0.000    3.077    0.000    0.000    0.000    0.000 
#    0.000    0.000    0.000    0.000    0.000    0.000 
#
# Total GULP energy -217483.186549 kJ/mol
# GULP energy per Si atom -5576.491963 kJ/mol
# Density = 2.128411 g / cm^3
# Si number density = 21.332668 Si / 1000 Ang^3
#
#
#
# Elastic Constant Matrix: (Units=GPa)
#
#
# Indices 1 2 3 4 5 6 
#
# 1 35.7191 6.0952 -1.9203 16.9787 0.0001 0.0000
# 2 6.0952 35.7191 -1.9203 -16.9787 -0.0001 0.0000
# 3 -1.9203 -1.9203 55.8828 0.0000 0.0000 0.0000
# 4 16.9787 -16.9787 0.0000 27.5514 0.0000 -0.0001
# 5 0.0001 -0.0001 0.0000 0.0000 27.5514 16.9787
# 6 0.0000 0.0000 0.0000 -0.0001 16.9787 14.8120
#
#
#
# Elastic Compliance Matrix: (Units=1/GPa)
#
#
# Indices 1 2 3 4 5 6 
#
# 1 0.069484 -0.045493 0.000824 -0.070855 0.000000 0.000000
# 2 -0.045493 0.069484 0.000824 0.070855 0.000000 0.000000
# 3 0.000824 0.000824 0.017951 0.000000 0.000000 0.000000
# 4 -0.070855 0.070855 0.000000 0.123625 0.000000 0.000001
# 5 0.000000 0.000000 0.000000 0.000000 0.123625 -0.141710
# 6 0.000000 0.000000 0.000000 0.000001 -0.141710 0.229952
#
#
# Mechanical properties :
#
#
# Convention : Reuss Voigt Hill
#
# Bulk Modulus (GPa) = 14.44443 14.64780 14.54612
# Shear Modulus (GPa) = 6.71244 22.32073 14.51658
#
# Velocity S-wave (km/s) = 1.77578 3.23819 2.61144
# Velocity P-wave (km/s) = 3.31516 4.56754 3.99078
#
# Compressibility (1/GPa) = 0.06923082
#
# Stress axis : x y z
#
# Youngs Moduli (GPa) = 14.39190 14.39190 55.70645
#
# Poissons Ratio (x) = 0.65472 -0.04592
# Poissons Ratio (y) = 0.65472 -0.04592
# Poissons Ratio (z) = -0.01186 -0.01186
#
# Static dielectric constant tensor:
#      x y z
#    x 1.888350 0.000000 0.000000 
#    y 0.000000 1.888350 0.000000 
#    z 0.000000 0.000000 1.878910 
# 
# From -- ./inp_files/3676.got.cif
#   From: 2010.05.17/outbox.cif.g08.bks.cpg/sg154_2_cif.got.tgz:3676.got - 2010.05.20 10:41:43.
