data_PCOD9576958
_publ_section_title
;
Structure prediction by ZEFSAII (Michael W. Deem and Ramdas Pophale) SiO2 
 PCOD9576958
Probable space group: R 3 2
;
_chemical_formula_sum "Si O2"
_cell_formula_units_Z 114
_cell_length_a 22.624034
_cell_length_b 22.624034
_cell_length_c 11.200826
_cell_angle_alpha 90.000000
_cell_angle_beta 90.000000
_cell_angle_gamma 120.000000
_cell_volume 4965.017367
_symmetry_space_group_name_H-M "R 3 2"
_symmetry_group_IT_number 155
_symmetry_cell_setting 'hexagonal'
loop_
_space_group_symop_operation_xyz
x,y,z
-y,x-y,z
-x+y,-x,z
x-y,-y,-z
-x,-x+y,-z
y,x,-z
2/3+x,1/3+y,1/3+z
2/3-y,1/3+x-y,1/3+z
2/3-x+y,1/3-x,1/3+z
2/3+x-y,1/3-y,1/3-z
2/3-x,1/3-x+y,1/3-z
2/3+y,1/3+x,1/3-z
1/3+x,2/3+y,2/3+z
1/3-y,2/3+x-y,2/3+z
1/3-x+y,2/3-x,2/3+z
1/3+x-y,2/3-y,2/3-z
1/3-x,2/3-x+y,2/3-z
1/3+y,2/3+x,2/3-z
loop_
_atom_site_type_symbol
_atom_site_label
_atom_site_fract_x
_atom_site_fract_y
_atom_site_fract_z
Si Si1 0.743784 0.882800 0.841500
Si Si2 0.931342 0.060621 0.301764
Si Si3 0.681842 0.070767 0.472383
Si Si4 0.410491 0.958439 0.123343
Si Si5 0.333334 0.666667 0.806514
Si Si6 0.167593 0.578260 0.017480
Si Si7 0.451962 0.917160 0.782784
O O1 0.666667 0.821516 0.833334
O O2 0.797111 0.884737 0.747904
O O3 0.740229 0.950883 0.806754
O O4 0.770065 0.887093 0.977758
O O5 0.952325 0.027857 0.192407
O O6 0.001140 0.103280 0.373140
O O7 0.868000 0.993386 0.358820
O O8 0.666667 0.068576 0.333334
O O9 0.751377 0.137622 0.498134
O O10 0.677656 0.000000 0.500000
O O11 0.333334 0.921917 0.166667
O O12 0.459363 0.018555 0.212778
O O13 0.428164 0.898103 0.098113
O O14 0.423162 0.000000 0.000000
O O15 0.333334 0.666668 0.666667
O O16 0.141630 0.552192 0.880125
#
# Coordination Sequence:
#
# PCOD9576958 Si02
#       7
#    18  18  18  18   6  18  18
#     4  10  21  35  58  92 128 159 205 267 318 386
#     4  10  21  37  61  95 131 163 212 259 330 387
#     4   9  18  33  54  84 121 153 196 254 315 381
#     4  10  24  48  68  90 126 172 226 272 320 386
#     4   9  21  30  57  93 130 173 199 252 318 402
#     4  10  22  41  66  92 130 170 209 270 320 398
#     4  10  21  40  61  89 122 172 209 261 332 374
#
# _framework density 22.960645
#
# number of rings (size 3 to 8) (size 9 to 14) (size 15 to 20)
#    0.000    2.211    1.579    0.316    6.632    1.895 
#    8.526    0.789    0.000    0.000    0.000    0.000 
#    0.000    0.000    0.000    0.000    0.000    0.000 
#
# Total GULP energy -212160.872576 kJ/mol
# GULP energy per Si atom -5583.180857 kJ/mol
# Density = 2.290839 g / cm^3
# Si number density = 22.960645 Si / 1000 Ang^3
#
#
#
# Elastic Constant Matrix: (Units=GPa)
#
#
# Indices 1 2 3 4 5 6 
#
# 1 97.9225 27.1258 19.0787 -1.3552 0.0003 0.0000
# 2 27.1258 97.9221 19.0788 1.3553 -0.0004 -0.0001
# 3 19.0787 19.0788 73.2932 0.0001 -0.0002 -0.0001
# 4 -1.3552 1.3553 0.0001 3.1543 0.0000 -0.0004
# 5 0.0003 -0.0004 -0.0002 0.0000 3.1543 -1.3551
# 6 0.0000 -0.0001 -0.0001 -0.0004 -1.3551 35.3978
#
#
#
# Elastic Compliance Matrix: (Units=1/GPa)
#
#
# Indices 1 2 3 4 5 6 
#
# 1 0.011524 -0.002837 -0.002261 0.006170 -0.000002 0.000000
# 2 -0.002837 0.011524 -0.002261 -0.006170 0.000002 0.000000
# 3 -0.002261 -0.002261 0.014821 0.000000 0.000001 0.000000
# 4 0.006170 -0.006170 0.000000 0.322330 0.000004 0.000004
# 5 -0.000002 0.000002 0.000001 0.000004 0.322333 0.012340
# 6 0.000000 0.000000 0.000000 0.000004 0.012340 0.028723
#
#
# Mechanical properties :
#
#
# Convention : Reuss Voigt Hill
#
# Bulk Modulus (GPa) = 43.19681 44.41161 43.80421
# Shear Modulus (GPa) = 6.81486 21.93158 14.37322
#
# Velocity S-wave (km/s) = 1.72468 3.09395 2.50470
# Velocity P-wave (km/s) = 4.77706 5.66991 5.24253
#
# Compressibility (1/GPa) = 0.02314986
#
# Stress axis : x y z
#
# Youngs Moduli (GPa) = 86.77502 86.77458 67.47150
#
# Poissons Ratio (x) = 0.24619 0.15257
# Poissons Ratio (y) = 0.24619 0.15257
# Poissons Ratio (z) = 0.19622 0.19622
#
# Static dielectric constant tensor:
#      x y z
#    x 1.900040 0.000000 0.000000 
#    y 0.000000 1.900040 0.000000 
#    z 0.000000 0.000000 1.912430 
# 
# From -- ./inp_files/5228.got.cif
#   From: 2010.05.17/outbox.cif.g08.bks.cpg/sg155_3_cif.got.tgz:5228.got - 2010.05.20 10:44:35.
