data_PCOD9576884
_publ_section_title
;
Structure prediction by ZEFSAII (Michael W. Deem and Ramdas Pophale) SiO2 
 PCOD9576884
Probable space group: R 3 2
;
_chemical_formula_sum "Si O2"
_cell_formula_units_Z 84
_cell_length_a 17.757847
_cell_length_b 17.757847
_cell_length_c 18.471308
_cell_angle_alpha 90.000000
_cell_angle_beta 90.000000
_cell_angle_gamma 120.000000
_cell_volume 5044.392849
_symmetry_space_group_name_H-M "R 3 2"
_symmetry_group_IT_number 155
_symmetry_cell_setting 'hexagonal'
loop_
_space_group_symop_operation_xyz
x,y,z
-y,x-y,z
-x+y,-x,z
x-y,-y,-z
-x,-x+y,-z
y,x,-z
2/3+x,1/3+y,1/3+z
2/3-y,1/3+x-y,1/3+z
2/3-x+y,1/3-x,1/3+z
2/3+x-y,1/3-y,1/3-z
2/3-x,1/3-x+y,1/3-z
2/3+y,1/3+x,1/3-z
1/3+x,2/3+y,2/3+z
1/3-y,2/3+x-y,2/3+z
1/3-x+y,2/3-x,2/3+z
1/3+x-y,2/3-y,2/3-z
1/3-x,2/3-x+y,2/3-z
1/3+y,2/3+x,2/3-z
loop_
_atom_site_type_symbol
_atom_site_label
_atom_site_fract_x
_atom_site_fract_y
_atom_site_fract_z
Si Si1 0.134725 0.994475 0.082290
Si Si2 0.026332 0.539317 0.729583
Si Si3 0.333334 0.666667 0.844268
Si Si4 0.500116 0.247695 0.882475
Si Si5 0.000000 0.000000 0.649307
Si Si6 0.395887 0.257406 0.234508
O O1 0.165006 0.923301 0.075379
O O2 0.058946 0.964727 0.141171
O O3 0.205229 0.091674 0.103963
O O4 0.105433 0.000000 0.000000
O O5 0.080866 0.637947 0.759890
O O6 0.015930 0.552272 0.644551
O O7 0.932097 0.477486 0.762174
O O8 0.333334 0.666667 0.930551
O O9 0.533548 0.333334 0.833334
O O10 0.513837 0.180504 0.833334
O O11 0.569276 0.278065 0.948904
O O12 0.333334 0.226491 0.166667
#
# Coordination Sequence:
#
# PCOD9576884 Si02
#       6
#    18  18   6  18   6  18
#     4  10  20  34  52  79 109 145 178 216 270 322
#     4  10  20  34  57  80 106 145 185 217 269 329
#     4  12  19  32  61  78 112 137 187 228 250 347
#     4   9  19  39  59  77 107 141 186 230 275 322
#     4   9  22  35  58  87 100 143 181 234 280 308
#     4  10  21  34  51  80 113 142 174 223 271 320
#
# _framework density 16.652152999999998
#
# number of rings (size 3 to 8) (size 9 to 14) (size 15 to 20)
#    0.000    2.143    2.143    2.143    3.000    0.857 
#    0.000    0.000    0.000    2.571    0.000    0.000 
#    0.000    0.000    0.000    0.000    0.000    0.000 
#
# Total GULP energy -156010.890982 kJ/mol
# GULP energy per Si atom -5571.817535 kJ/mol
# Density = 1.661425 g / cm^3
# Si number density = 16.652153 Si / 1000 Ang^3
#
#
#
# Elastic Constant Matrix: (Units=GPa)
#
#
# Indices 1 2 3 4 5 6 
#
# 1 114.5144 64.5319 65.8286 -10.7783 0.0003 0.0000
# 2 64.5319 114.5146 65.8288 10.7781 -0.0003 0.0000
# 3 65.8286 65.8288 137.1066 0.0000 0.0000 0.0000
# 4 -10.7783 10.7781 0.0000 18.2072 0.0000 -0.0003
# 5 0.0003 -0.0003 0.0000 0.0000 18.2072 -10.7782
# 6 0.0000 0.0000 0.0000 -0.0003 -10.7782 24.9912
#
#
#
# Elastic Compliance Matrix: (Units=1/GPa)
#
#
# Indices 1 2 3 4 5 6 
#
# 1 0.017750 -0.009116 -0.004145 0.015904 0.000000 0.000000
# 2 -0.009116 0.017749 -0.004145 -0.015904 0.000000 0.000000
# 3 -0.004145 -0.004145 0.011274 0.000000 0.000000 0.000000
# 4 0.015904 -0.015904 0.000000 0.073753 0.000000 0.000001
# 5 0.000000 0.000000 0.000000 0.000000 0.073753 0.031808
# 6 0.000000 0.000000 0.000000 0.000001 0.031808 0.053732
#
#
# Mechanical properties :
#
#
# Convention : Reuss Voigt Hill
#
# Bulk Modulus (GPa) = 83.61170 84.27936 83.94553
# Shear Modulus (GPa) = 17.43315 23.61089 20.52202
#
# Velocity S-wave (km/s) = 3.23909 3.76957 3.51436
# Velocity P-wave (km/s) = 8.01927 8.34672 8.18463
#
# Compressibility (1/GPa) = 0.01196005
#
# Stress axis : x y z
#
# Youngs Moduli (GPa) = 56.33958 56.33966 88.70104
#
# Poissons Ratio (x) = 0.51362 0.36766
# Poissons Ratio (y) = 0.51362 0.36766
# Poissons Ratio (z) = 0.23352 0.23353
#
# Static dielectric constant tensor:
#      x y z
#    x 1.572290 0.000000 0.000000 
#    y 0.000000 1.572290 0.000000 
#    z 0.000000 0.000000 1.551150 
# 
# From -- ./inp_files/5017.got.cif
#   From: 2010.05.17/outbox.cif.g08.bks.cpg/sg155_3_cif.got.tgz:5017.got - 2010.05.20 10:44:35.
