data_PCOD9576651
_publ_section_title
;
Structure prediction by ZEFSAII (Michael W. Deem and Ramdas Pophale) SiO2 
 PCOD9576651
Probable space group: P 32 2 1
;
_chemical_formula_sum "Si O2"
_cell_formula_units_Z 42
_cell_length_a 8.417907
_cell_length_b 8.417907
_cell_length_c 27.371100
_cell_angle_alpha 90.000000
_cell_angle_beta 90.000000
_cell_angle_gamma 120.000000
_cell_volume 1679.697709
_symmetry_space_group_name_H-M "P 32 2 1"
_symmetry_group_IT_number 154
_symmetry_cell_setting 'hexagonal'
loop_
_space_group_symop_operation_xyz
x,y,z
-y,x-y,2/3+z
-x+y,-x,1/3+z
x-y,-y,1/3-z
-x,-x+y,2/3-z
y,x,-z
loop_
_atom_site_type_symbol
_atom_site_label
_atom_site_fract_x
_atom_site_fract_y
_atom_site_fract_z
Si Si1 0.000000 0.041273 0.333334
Si Si2 0.000000 0.983080 0.833334
Si Si3 0.855367 0.749225 0.583534
Si Si4 0.649146 0.784267 0.780521
Si Si5 0.535262 0.092836 0.793859
Si Si6 0.400822 0.806049 0.363535
Si Si7 0.811221 0.611867 0.932239
Si Si8 0.438207 0.567573 0.580767
O O1 0.869003 0.095276 0.304134
O O2 0.107377 0.996566 0.293148
O O3 0.876431 0.023158 0.870820
O O4 0.151677 0.984014 0.868224
O O5 0.883472 0.594324 0.608928
O O6 0.649922 0.666174 0.566128
O O7 0.508455 0.626699 0.817257
O O8 0.597101 0.710754 0.725518
O O9 0.624912 0.962710 0.786810
O O10 0.668960 0.299560 0.774170
O O11 0.343231 0.973047 0.764740
O O12 0.292583 0.587153 0.374542
O O13 0.424680 0.847107 0.306383
O O14 0.978420 0.619838 0.901618
#
# Coordination Sequence:
#
# PCOD9576651 Si02
#       8
#     3   3   6   6   6   6   6   6
#     4  12  22  42  66 108 146 184 236 324 362 450
#     4  12  24  46  64 108 144 194 240 312 370 464
#     4  11  25  41  73 100 150 190 248 304 378 456
#     4  11  25  46  74 103 145 197 247 307 388 461
#     4  11  24  50  73 107 148 202 251 316 382 474
#     4  10  23  45  71 103 138 191 254 301 384 462
#     4  10  23  42  70 107 142 192 248 311 382 456
#     4  11  23  47  73 106 145 203 249 320 386 459
#
# _framework density 25.004501000000001
#
# number of rings (size 3 to 8) (size 9 to 14) (size 15 to 20)
#    0.000    1.143    2.857    2.571    2.000    1.714 
#   10.286    0.000    0.000    0.000    0.000    0.000 
#    0.000    0.000    0.000    0.000    0.000    0.000 
#
# Total GULP energy -235092.922214 kJ/mol
# GULP energy per Si atom -5597.450529 kJ/mol
# Density = 2.494759 g / cm^3
# Si number density = 25.004501 Si / 1000 Ang^3
#
#
#
# Elastic Constant Matrix: (Units=GPa)
#
#
# Indices 1 2 3 4 5 6 
#
# 1 71.9893 30.0986 -12.0391 24.3542 0.0000 0.0000
# 2 30.0986 71.9893 -12.0391 -24.3542 0.0000 0.0000
# 3 -12.0391 -12.0391 31.1013 0.0000 0.0000 0.0000
# 4 24.3542 -24.3542 0.0000 27.0281 0.0000 0.0000
# 5 0.0000 0.0000 0.0000 0.0000 27.0281 24.3542
# 6 0.0000 0.0000 0.0000 0.0000 24.3542 20.9454
#
#
#
# Elastic Compliance Matrix: (Units=1/GPa)
#
#
# Indices 1 2 3 4 5 6 
#
# 1 -0.244742 0.255522 0.004173 0.450772 -0.000001 0.000000
# 2 0.255522 -0.244742 0.004173 -0.450772 0.000001 0.000000
# 3 0.004173 0.004173 0.035384 0.000000 0.000000 0.000000
# 4 0.450772 -0.450772 0.000000 -0.775356 0.000000 0.000001
# 5 -0.000001 0.000001 0.000000 0.000000 -0.775356 0.901545
# 6 0.000000 0.000000 0.000000 0.000001 0.901545 -1.000527
#
#
# Mechanical properties :
#
#
# Convention : Reuss Voigt Hill
#
# Bulk Modulus (GPa) = 13.58074 20.79120 17.18597
# Shear Modulus (GPa) = -1.42510 26.27096 12.42293
#
# Velocity S-wave (km/s) = -0.75576 3.24489 2.23138
# Velocity P-wave (km/s) = 2.16369 4.72992 3.67788
#
# Compressibility (1/GPa) = 0.07363370
#
# Stress axis : x y z
#
# Youngs Moduli (GPa) = -4.08594 -4.08594 28.26175
#
# Poissons Ratio (x) = 1.04404 -0.11793
# Poissons Ratio (y) = 1.04404 -0.11793
# Poissons Ratio (z) = 0.01705 0.01705
#
# Static dielectric constant tensor:
#      x y z
#    x 2.006220 0.000000 0.000000 
#    y 0.000000 2.006220 0.000000 
#    z 0.000000 0.000000 1.926010 
# 
# From -- ./inp_files/3832.got.cif
#   From: 2010.05.17/outbox.cif.g08.bks.cpg/sg154_2_cif.got.tgz:3832.got - 2010.05.20 10:41:43.
