data_PCOD9576275
_publ_section_title
;
Structure prediction by ZEFSAII (Michael W. Deem and Ramdas Pophale) SiO2 
 PCOD9576275
Probable space group: P 32 1 2
;
_chemical_formula_sum "Si O2"
_cell_formula_units_Z 21
_cell_length_a 10.774753
_cell_length_b 10.774753
_cell_length_c 9.178938
_cell_angle_alpha 90.000000
_cell_angle_beta 90.000000
_cell_angle_gamma 120.000000
_cell_volume 922.864020
_symmetry_space_group_name_H-M "P 32 1 2"
_symmetry_group_IT_number 153
_symmetry_cell_setting 'hexagonal'
loop_
_space_group_symop_operation_xyz
x,y,z
-y,x-y,2/3+z
-x+y,-x,1/3+z
-y,-x,1/3-z
-x+y,y,2/3-z
x,x-y,-z
loop_
_atom_site_type_symbol
_atom_site_label
_atom_site_fract_x
_atom_site_fract_y
_atom_site_fract_z
Si Si1 0.051683 0.568723 0.245444
Si Si2 0.135287 0.143362 0.182589
Si Si3 0.600480 0.856035 0.280748
Si Si4 0.800370 0.199631 0.666667
O O1 0.092201 0.451991 0.192158
O O2 0.166731 0.683937 0.358680
O O3 0.891331 0.521819 0.299952
O O4 0.077078 0.655721 0.094074
O O5 0.093990 0.187979 0.333334
O O6 0.101177 0.236679 0.070264
O O7 0.292804 0.176910 0.136520
O O8 0.021525 0.978476 0.166667
#
# Coordination Sequence:
#
# PCOD9576275 Si02
#       4
#     6   6   6   3
#     4   9  18  36  56  83 117 159 192 242 299 361
#     4  11  20  33  56  85 113 145 190 247 294 347
#     4   9  19  35  54  82 120 153 193 237 298 360
#     4  10  20  34  60  84 118 152 194 246 306 350
#
# _framework density 22.755247000000001
#
# number of rings (size 3 to 8) (size 9 to 14) (size 15 to 20)
#    0.000    2.286    1.429    1.714    4.000    0.000 
#   15.429    4.286    0.000    6.857    0.000    0.000 
#    0.000    0.000    0.000    0.000    0.000    0.000 
#
# Total GULP energy -117097.488232 kJ/mol
# GULP energy per Si atom -5576.070868 kJ/mol
# Density = 2.270346 g / cm^3
# Si number density = 22.755247 Si / 1000 Ang^3
#
#
#
# Elastic Constant Matrix: (Units=GPa)
#
#
# Indices 1 2 3 4 5 6 
#
# 1 91.7991 47.7488 34.0886 0.0001 2.0939 0.0000
# 2 47.7488 91.7991 34.0886 -0.0001 -2.0939 0.0000
# 3 34.0886 34.0886 68.6245 0.0000 0.0000 0.0000
# 4 0.0001 -0.0001 0.0000 26.8037 0.0000 -2.0939
# 5 2.0939 -2.0939 0.0000 0.0000 26.8037 0.0001
# 6 0.0000 0.0000 0.0000 -2.0939 0.0001 22.0252
#
#
#
# Elastic Compliance Matrix: (Units=1/GPa)
#
#
# Indices 1 2 3 4 5 6 
#
# 1 0.016167 -0.006704 -0.004700 0.000000 -0.001787 0.000000
# 2 -0.006704 0.016167 -0.004700 0.000000 0.001787 0.000000
# 3 -0.004700 -0.004700 0.019242 0.000000 0.000000 0.000000
# 4 0.000000 0.000000 0.000000 0.037587 0.000000 0.003573
# 5 -0.001787 0.001787 0.000000 0.000000 0.037587 0.000000
# 6 0.000000 0.000000 0.000000 0.003573 0.000000 0.045742
#
#
# Mechanical properties :
#
#
# Convention : Reuss Voigt Hill
#
# Bulk Modulus (GPa) = 51.63920 53.78606 52.71263
# Shear Modulus (GPa) = 23.67898 24.21297 23.94598
#
# Velocity S-wave (km/s) = 3.22932 3.26553 3.24748
# Velocity P-wave (km/s) = 6.05370 6.15681 6.10548
#
# Compressibility (1/GPa) = 0.01936513
#
# Stress axis : x y z
#
# Youngs Moduli (GPa) = 61.85523 61.85523 51.97026
#
# Poissons Ratio (x) = 0.41470 0.24428
# Poissons Ratio (y) = 0.41470 0.24428
# Poissons Ratio (z) = 0.29074 0.29074
#
# Static dielectric constant tensor:
#      x y z
#    x 1.866200 0.000000 0.000000 
#    y 0.000000 1.866200 0.000000 
#    z 0.000000 0.000000 1.950400 
# 
# From -- ./inp_files/1293.got.cif
#   From: 2010.05.17/outbox.cif.g08.bks.cpg/sg153_1_cif.got.tgz:1293.got - 2010.05.20 10:38:56.
