data_PCOD9576694
_publ_section_title
;
Structure prediction by ZEFSAII (Michael W. Deem and Ramdas Pophale) SiO2 
 PCOD9576694
Probable space group: P 32 2 1
;
_chemical_formula_sum "Si O2"
_cell_formula_units_Z 42
_cell_length_a 8.870084
_cell_length_b 8.870084
_cell_length_c 25.686209
_cell_angle_alpha 90.000000
_cell_angle_beta 90.000000
_cell_angle_gamma 120.000000
_cell_volume 1750.193671
_symmetry_space_group_name_H-M "P 32 2 1"
_symmetry_group_IT_number 154
_symmetry_cell_setting 'hexagonal'
loop_
_space_group_symop_operation_xyz
x,y,z
-y,x-y,2/3+z
-x+y,-x,1/3+z
x-y,-y,1/3-z
-x,-x+y,2/3-z
y,x,-z
loop_
_atom_site_type_symbol
_atom_site_label
_atom_site_fract_x
_atom_site_fract_y
_atom_site_fract_z
Si Si1 0.000000 0.402001 0.333334
Si Si2 0.983494 0.484559 0.016708
Si Si3 0.640600 0.317378 0.958595
Si Si4 0.731044 0.041416 0.505470
Si Si5 0.195598 0.044245 0.413518
Si Si6 0.340091 0.624757 0.825903
Si Si7 0.000000 0.658702 0.833334
Si Si8 0.199558 0.144428 0.728086
O O1 0.121131 0.562872 0.368834
O O2 0.078812 0.329592 0.290410
O O3 0.941222 0.307353 0.049737
O O4 0.018380 0.676051 0.038010
O O5 0.175037 0.545858 0.996686
O O6 0.840328 0.430650 0.973239
O O7 0.616319 0.238800 0.901813
O O8 0.695586 0.195768 0.486807
O O9 0.818415 0.007945 0.455381
O O10 0.871501 0.117089 0.551093
O O11 0.548949 0.869452 0.517817
O O12 0.260261 0.212170 0.450876
O O13 0.025140 0.030924 0.384650
O O14 0.166719 0.636292 0.825974
#
# Coordination Sequence:
#
# PCOD9576694 Si02
#       8
#     3   6   6   6   6   6   3   6
#     4  10  26  44  74 104 136 198 240 308 368 452
#     4  11  26  48  72 104 145 195 246 318 373 455
#     4  11  25  49  69 101 145 189 250 305 374 447
#     4  12  24  46  70 107 147 192 239 313 382 454
#     4  12  25  46  76 105 148 188 248 308 379 464
#     4  12  27  44  73 104 151 194 243 311 380 461
#     4  12  26  40  68 112 136 196 238 294 374 448
#     4  11  23  44  74 100 142 193 241 301 381 444
#
# _framework density 23.997343999999998
#
# number of rings (size 3 to 8) (size 9 to 14) (size 15 to 20)
#    0.000    0.571    4.286    2.571   10.000    0.000 
#    2.571    0.000    0.000    0.000    0.000    0.000 
#    0.000    0.000    0.000    0.000    0.000    0.000 
#
# Total GULP energy -233994.185771 kJ/mol
# GULP energy per Si atom -5571.290137 kJ/mol
# Density = 2.394272 g / cm^3
# Si number density = 23.997344 Si / 1000 Ang^3
#
#
#
# Elastic Constant Matrix: (Units=GPa)
#
#
# Indices 1 2 3 4 5 6 
#
# 1 130.6011 48.1092 16.1072 20.2799 0.0011 0.0000
# 2 48.1092 130.6011 16.1072 -20.2799 -0.0011 0.0000
# 3 16.1072 16.1072 41.7650 0.0000 0.0000 0.0000
# 4 20.2799 -20.2799 0.0000 65.3213 0.0000 -0.0011
# 5 0.0011 -0.0011 0.0000 0.0000 65.3213 20.2799
# 6 0.0000 0.0000 0.0000 -0.0011 20.2799 41.2459
#
#
#
# Elastic Compliance Matrix: (Units=1/GPa)
#
#
# Indices 1 2 3 4 5 6 
#
# 1 0.010160 -0.004146 -0.002319 -0.004442 0.000000 0.000000
# 2 -0.004146 0.010160 -0.002319 0.004442 0.000000 0.000000
# 3 -0.002319 -0.002319 0.025732 0.000000 0.000000 0.000000
# 4 -0.004442 0.004442 0.000000 0.018067 0.000000 0.000000
# 5 0.000000 0.000000 0.000000 0.000000 0.018067 -0.008883
# 6 0.000000 0.000000 0.000000 0.000000 -0.008883 0.028613
#
#
# Mechanical properties :
#
#
# Convention : Reuss Voigt Hill
#
# Bulk Modulus (GPa) = 35.10894 51.51271 43.31083
# Shear Modulus (GPa) = 36.26804 49.22063 42.74434
#
# Velocity S-wave (km/s) = 3.89181 4.53381 4.22502
# Velocity P-wave (km/s) = 5.90398 6.99427 6.47212
#
# Compressibility (1/GPa) = 0.02848277
#
# Stress axis : x y z
#
# Youngs Moduli (GPa) = 98.42531 98.42531 38.86153
#
# Poissons Ratio (x) = 0.40810 0.09013
# Poissons Ratio (y) = 0.40810 0.09013
# Poissons Ratio (z) = 0.22827 0.22827
#
# Static dielectric constant tensor:
#      x y z
#    x 1.984290 0.000000 0.000000 
#    y 0.000000 1.984290 0.000000 
#    z 0.000000 0.000000 2.059260 
# 
# From -- ./inp_files/3825.got.cif
#   From: 2010.05.17/outbox.cif.g08.bks.cpg/sg154_2_cif.got.tgz:3825.got - 2010.05.20 10:41:43.
