data_PCOD9576414
_publ_section_title
;
Structure prediction by ZEFSAII (Michael W. Deem and Ramdas Pophale) SiO2 
 PCOD9576414
Probable space group: P 32 2 1
;
_chemical_formula_sum "Si O2"
_cell_formula_units_Z 48
_cell_length_a 12.037313
_cell_length_b 12.037313
_cell_length_c 19.779621
_cell_angle_alpha 90.000000
_cell_angle_beta 90.000000
_cell_angle_gamma 120.000000
_cell_volume 2482.033874
_symmetry_space_group_name_H-M "P 32 2 1"
_symmetry_group_IT_number 154
_symmetry_cell_setting 'hexagonal'
loop_
_space_group_symop_operation_xyz
x,y,z
-y,x-y,2/3+z
-x+y,-x,1/3+z
x-y,-y,1/3-z
-x,-x+y,2/3-z
y,x,-z
loop_
_atom_site_type_symbol
_atom_site_label
_atom_site_fract_x
_atom_site_fract_y
_atom_site_fract_z
Si Si1 0.174843 0.538132 0.444055
Si Si2 0.637889 0.449126 0.604293
Si Si3 0.086802 0.678551 0.095212
Si Si4 0.854775 0.723693 0.087332
Si Si5 0.720055 0.336182 0.083378
Si Si6 0.271808 0.148477 0.591311
Si Si7 0.425939 0.373617 0.397951
Si Si8 0.101249 0.518026 0.219180
O O1 0.312821 0.629397 0.411504
O O2 0.191109 0.593887 0.519014
O O3 0.164931 0.399253 0.443996
O O4 0.038512 0.507244 0.413970
O O5 0.767246 0.563647 0.574427
O O6 0.637948 0.446177 0.685315
O O7 0.510681 0.446780 0.581307
O O8 0.092922 0.581839 0.149228
O O9 0.979771 0.718544 0.110867
O O10 0.063878 0.629246 0.017368
O O11 0.843314 0.851703 0.095633
O O12 0.724853 0.608039 0.119140
O O13 0.848520 0.702822 0.005610
O O14 0.617576 0.384145 0.076951
O O15 0.650967 0.184650 0.094828
O O16 0.268853 0.279526 0.581872
#
# Coordination Sequence:
#
# PCOD9576414 Si02
#       8
#     6   6   6   6   6   6   6   6
#     4  10  19  32  49  74 100 138 173 216 266 320
#     4  10  20  35  51  77 107 138 181 221 272 320
#     4  10  19  31  49  77 107 140 173 217 276 327
#     4   9  17  31  51  74 105 135 179 218 269 324
#     4  11  21  33  52  82 105 141 177 222 280 325
#     4   8  16  31  52  76  97 134 174 230 264 306
#     4   9  19  34  53  76 106 133 177 228 270 327
#     4  11  19  30  49  76 107 138 173 216 269 323
#
# _framework density 19.338979999999999
#
# number of rings (size 3 to 8) (size 9 to 14) (size 15 to 20)
#    0.000    2.250    1.250    3.750    0.000    3.500 
#    0.000    0.000    0.000    0.000   16.250    8.750 
#    0.000    0.000    0.000    0.000    0.000    0.000 
#
# Total GULP energy -267281.247639 kJ/mol
# GULP energy per Si atom -5568.359326 kJ/mol
# Density = 1.929496 g / cm^3
# Si number density = 19.338980 Si / 1000 Ang^3
#
#
#
# Elastic Constant Matrix: (Units=GPa)
#
#
# Indices 1 2 3 4 5 6 
#
# 1 115.4379 56.5708 0.8089 -5.6762 0.0000 0.0000
# 2 56.5708 115.4379 0.8089 5.6762 0.0000 0.0000
# 3 0.8089 0.8089 24.9809 0.0000 0.0000 0.0000
# 4 -5.6762 5.6762 0.0000 16.3262 0.0000 0.0000
# 5 0.0000 0.0000 0.0000 0.0000 16.3262 -5.6762
# 6 0.0000 0.0000 0.0000 0.0000 -5.6762 29.4336
#
#
#
# Elastic Compliance Matrix: (Units=1/GPa)
#
#
# Indices 1 2 3 4 5 6 
#
# 1 0.012012 -0.006196 -0.000188 0.006331 0.000000 0.000000
# 2 -0.006196 0.012012 -0.000188 -0.006331 0.000000 0.000000
# 3 -0.000188 -0.000188 0.040043 0.000000 0.000000 0.000000
# 4 0.006331 -0.006331 0.000000 0.065653 0.000000 0.000000
# 5 0.000000 0.000000 0.000000 0.000000 0.065653 0.012661
# 6 0.000000 0.000000 0.000000 0.000000 0.012661 0.036416
#
#
# Mechanical properties :
#
#
# Convention : Reuss Voigt Hill
#
# Bulk Modulus (GPa) = 19.63847 41.35929 30.49888
# Shear Modulus (GPa) = 19.09061 25.59507 22.34284
#
# Velocity S-wave (km/s) = 3.14531 3.64194 3.40270
# Velocity P-wave (km/s) = 4.83400 6.25443 5.58952
#
# Compressibility (1/GPa) = 0.05092047
#
# Stress axis : x y z
#
# Youngs Moduli (GPa) = 83.25123 83.25123 24.97328
#
# Poissons Ratio (x) = 0.51586 0.00470
# Poissons Ratio (y) = 0.51586 0.00470
# Poissons Ratio (z) = 0.01568 0.01568
#
# Static dielectric constant tensor:
#      x y z
#    x 1.708460 0.000000 0.000000 
#    y 0.000000 1.708460 0.000000 
#    z 0.000000 0.000000 1.740080 
# 
# From -- ./inp_files/3193.got.cif
#   From: 2010.05.17/outbox.cif.g08.bks.cpg/sg154_2_cif.got.tgz:3193.got - 2010.05.20 10:41:43.
