data_PCOD9576063
_publ_section_title
;
Structure prediction by ZEFSAII (Michael W. Deem and Ramdas Pophale) SiO2 
 PCOD9576063
Probable space group: P 31 2 1
;
_chemical_formula_sum "Si O2"
_cell_formula_units_Z 21
_cell_length_a 7.708902
_cell_length_b 7.708902
_cell_length_c 16.202237
_cell_angle_alpha 90.000000
_cell_angle_beta 90.000000
_cell_angle_gamma 120.000000
_cell_volume 833.855239
_symmetry_space_group_name_H-M "P 31 2 1"
_symmetry_group_IT_number 152
_symmetry_cell_setting 'hexagonal'
loop_
_space_group_symop_operation_xyz
x,y,z
-y,x-y,1/3+z
-x+y,-x,2/3+z
x-y,-y,2/3-z
-x,-x+y,1/3-z
y,x,-z
loop_
_atom_site_type_symbol
_atom_site_label
_atom_site_fract_x
_atom_site_fract_y
_atom_site_fract_z
Si Si1 0.997411 0.417273 0.753707
Si Si2 0.750410 0.000000 0.333334
Si Si3 0.635668 0.740587 0.582163
Si Si4 0.117000 0.566817 0.418712
O O1 0.901509 0.556544 0.728138
O O2 0.232810 0.557462 0.767341
O O3 0.000000 0.314182 0.666667
O O4 0.907198 0.320648 0.841253
O O5 0.796863 0.854628 0.384994
O O6 0.615200 0.615200 0.500000
O O7 0.498111 0.615588 0.658770
O O8 0.613666 0.935642 0.570434
#
# Coordination Sequence:
#
# PCOD9576063 Si02
#       4
#     6   3   6   6
#     4  10  24  45  70 101 141 186 232 296 347 432
#     4  10  22  46  70  94 146 176 242 288 358 412
#     4  12  26  45  70 106 141 190 236 300 357 439
#     4  12  26  43  76 100 145 188 240 292 368 427
#
# _framework density 25.184225999999999
#
# number of rings (size 3 to 8) (size 9 to 14) (size 15 to 20)
#    0.857    0.000    2.857    3.429    6.000    0.000 
#    0.000    1.429    0.000    0.000    0.000    0.000 
#    0.000    0.000    0.000    0.000    0.000    0.000 
#
# Total GULP energy -117187.710291 kJ/mol
# GULP energy per Si atom -5580.367157 kJ/mol
# Density = 2.512691 g / cm^3
# Si number density = 25.184226 Si / 1000 Ang^3
#
#
#
# Elastic Constant Matrix: (Units=GPa)
#
#
# Indices 1 2 3 4 5 6 
#
# 1 65.3399 4.4989 37.9424 0.6082 -0.0001 0.0000
# 2 4.4989 65.3399 37.9424 -0.6082 0.0001 0.0000
# 3 37.9424 37.9424 217.0405 0.0000 0.0000 0.0000
# 4 0.6082 -0.6082 0.0000 37.0804 0.0000 0.0001
# 5 -0.0001 0.0001 0.0000 0.0000 37.0804 0.6082
# 6 0.0000 0.0000 0.0000 0.0001 0.6082 30.4205
#
#
#
# Elastic Compliance Matrix: (Units=1/GPa)
#
#
# Indices 1 2 3 4 5 6 
#
# 1 0.017059 0.000617 -0.003090 -0.000270 0.000000 0.000000
# 2 0.000617 0.017059 -0.003090 0.000270 0.000000 0.000000
# 3 -0.003090 -0.003090 0.005688 0.000000 0.000000 0.000000
# 4 -0.000270 0.000270 0.000000 0.026977 0.000000 0.000000
# 5 0.000000 0.000000 0.000000 0.000000 0.026977 -0.000539
# 6 0.000000 0.000000 0.000000 0.000000 -0.000539 0.032883
#
#
# Mechanical properties :
#
#
# Convention : Reuss Voigt Hill
#
# Bulk Modulus (GPa) = 34.86751 56.49864 45.68307
# Shear Modulus (GPa) = 33.93752 38.73870 36.33811
#
# Velocity S-wave (km/s) = 3.67491 3.92626 3.80266
# Velocity P-wave (km/s) = 5.64638 6.56025 6.12040
#
# Compressibility (1/GPa) = 0.02868000
#
# Stress axis : x y z
#
# Youngs Moduli (GPa) = 58.62011 58.62011 175.81344
#
# Poissons Ratio (x) = -0.03619 0.54329
# Poissons Ratio (y) = -0.03619 0.54329
# Poissons Ratio (z) = 0.18114 0.18114
#
# Static dielectric constant tensor:
#      x y z
#    x 2.015580 0.000000 0.000000 
#    y 0.000000 2.015580 0.000000 
#    z 0.000000 0.000000 2.161970 
# 
# From -- ./inp_files/2277.got.cif
#   From: 2010.05.17/outbox.cif.g08.bks.cpg/sg152_2_cif.got.tgz:2277.got - 2010.05.20 10:36:06.
