data_PCOD9576730
_publ_section_title
;
Structure prediction by ZEFSAII (Michael W. Deem and Ramdas Pophale) SiO2 
 PCOD9576730
Probable space group: P 32 2 1
;
_chemical_formula_sum "Si O2"
_cell_formula_units_Z 12
_cell_length_a 7.406311
_cell_length_b 7.406311
_cell_length_c 7.787436
_cell_angle_alpha 90.000000
_cell_angle_beta 90.000000
_cell_angle_gamma 120.000000
_cell_volume 369.938057
_symmetry_space_group_name_H-M "P 32 2 1"
_symmetry_group_IT_number 154
_symmetry_cell_setting 'hexagonal'
loop_
_space_group_symop_operation_xyz
x,y,z
-y,x-y,2/3+z
-x+y,-x,1/3+z
x-y,-y,1/3-z
-x,-x+y,2/3-z
y,x,-z
loop_
_atom_site_type_symbol
_atom_site_label
_atom_site_fract_x
_atom_site_fract_y
_atom_site_fract_z
Si Si1 0.090311 0.252362 0.669657
Si Si2 0.760290 0.250807 0.443079
O O1 0.327587 0.312492 0.704368
O O2 0.993267 0.312670 0.511591
O O3 0.000000 0.307451 0.833334
O O4 0.957109 0.000000 0.666667
O O5 0.649648 0.263919 0.623141
#
# Coordination Sequence:
#
# PCOD9576730 Si02
#       2
#     6   6
#     4   9  22  54  96 134 198 267 319 423 523 600
#     4  11  26  58 102 147 200 269 350 426 520 637
#
# _framework density 32.437859000000003
#
# number of rings (size 3 to 8) (size 9 to 14) (size 15 to 20)
#    0.000    2.000    0.000    0.000    0.000    6.000 
#   72.000    0.000   11.000    0.000    0.000    0.000 
#    0.000    0.000    0.000    0.000    0.000    0.000 
#
# Total GULP energy -67064.623905 kJ/mol
# GULP energy per Si atom -5588.718659 kJ/mol
# Density = 3.236403 g / cm^3
# Si number density = 32.437859 Si / 1000 Ang^3
#
#
#
# Elastic Constant Matrix: (Units=GPa)
#
#
# Indices 1 2 3 4 5 6 
#
# 1 240.7699 98.3840 128.6671 5.5738 0.0002 0.0000
# 2 98.3840 240.7699 128.6671 -5.5738 -0.0002 0.0000
# 3 128.6671 128.6671 305.4240 0.0000 0.0000 0.0000
# 4 5.5738 -5.5738 0.0000 58.2154 0.0000 -0.0002
# 5 0.0002 -0.0002 0.0000 0.0000 58.2154 5.5738
# 6 0.0000 0.0000 0.0000 -0.0002 5.5738 71.1929
#
#
#
# Elastic Compliance Matrix: (Units=1/GPa)
#
#
# Indices 1 2 3 4 5 6 
#
# 1 0.005705 -0.001371 -0.001826 -0.000678 0.000000 0.000000
# 2 -0.001371 0.005705 -0.001826 0.000678 0.000000 0.000000
# 3 -0.001826 -0.001826 0.004812 0.000000 0.000000 0.000000
# 4 -0.000678 0.000678 0.000000 0.017307 0.000000 0.000000
# 5 0.000000 0.000000 0.000000 0.000000 0.017307 -0.001355
# 6 0.000000 0.000000 0.000000 0.000000 -0.001355 0.014152
#
#
# Mechanical properties :
#
#
# Convention : Reuss Voigt Hill
#
# Bulk Modulus (GPa) = 161.88808 166.48893 164.18850
# Shear Modulus (GPa) = 64.85613 66.27445 65.56529
#
# Velocity S-wave (km/s) = 4.47631 4.52499 4.50072
# Velocity P-wave (km/s) = 8.75968 8.87342 8.81674
#
# Compressibility (1/GPa) = 0.00617711
#
# Stress axis : x y z
#
# Youngs Moduli (GPa) = 175.28509 175.28509 207.79741
#
# Poissons Ratio (x) = 0.24035 0.37938
# Poissons Ratio (y) = 0.24035 0.37938
# Poissons Ratio (z) = 0.32002 0.32002
#
# Static dielectric constant tensor:
#      x y z
#    x 2.575800 0.000000 0.000000 
#    y 0.000000 2.575800 0.000000 
#    z 0.000000 0.000000 2.842230 
# 
# From -- ./inp_files/654.got.cif
#   From: 2010.05.17/outbox.cif.g08.bks.cpg/sg154_1_cif.got.tgz:654.got - 2010.05.20 10:41:43.
