data_PCOD9576440
_publ_section_title
;
Structure prediction by ZEFSAII (Michael W. Deem and Ramdas Pophale) SiO2 
 PCOD9576440
Probable space group: P 32 2 1
;
_chemical_formula_sum "Si O2"
_cell_formula_units_Z 36
_cell_length_a 12.669373
_cell_length_b 12.669373
_cell_length_c 14.245752
_cell_angle_alpha 90.000000
_cell_angle_beta 90.000000
_cell_angle_gamma 120.000000
_cell_volume 1980.278426
_symmetry_space_group_name_H-M "P 32 2 1"
_symmetry_group_IT_number 154
_symmetry_cell_setting 'hexagonal'
loop_
_space_group_symop_operation_xyz
x,y,z
-y,x-y,2/3+z
-x+y,-x,1/3+z
x-y,-y,1/3-z
-x,-x+y,2/3-z
y,x,-z
loop_
_atom_site_type_symbol
_atom_site_label
_atom_site_fract_x
_atom_site_fract_y
_atom_site_fract_z
Si Si1 0.000000 0.129810 0.833334
Si Si2 0.869108 0.536410 0.087158
Si Si3 0.544356 0.623341 0.137542
Si Si4 0.000000 0.061671 0.333334
Si Si5 0.680325 0.944866 0.563314
Si Si6 0.566959 0.167090 0.725030
Si Si7 0.204329 0.309962 0.428280
O O1 0.872937 0.126589 0.810172
O O2 0.024720 0.067182 0.744135
O O3 0.925919 0.450034 0.103801
O O4 0.723631 0.442532 0.094408
O O5 0.941149 0.645994 0.162516
O O6 0.887741 0.601747 0.988099
O O7 0.616960 0.560963 0.096120
O O8 0.627265 0.765574 0.147714
O O9 0.444932 0.598285 0.054830
O O10 0.100218 0.184872 0.383218
O O11 0.532642 0.861237 0.574173
O O12 0.730208 0.000000 0.666667
O O13 0.282382 0.282382 0.500000
#
# Coordination Sequence:
#
# PCOD9576440 Si02
#       7
#     3   6   6   3   6   6   6
#     4  12  24  34  58  92 132 158 194 254 332 388
#     4  10  19  36  62  88 117 159 207 264 300 361
#     4   9  18  35  59  87 108 153 206 254 292 354
#     4  12  22  36  58  90 122 166 192 244 316 396
#     4  11  20  37  60  91 127 158 204 256 313 381
#     4   9  17  34  62  86 109 154 215 249 289 361
#     4  11  22  36  60  89 124 156 204 255 314 378
#
# _framework density 18.179259999999999
#
# number of rings (size 3 to 8) (size 9 to 14) (size 15 to 20)
#    0.000    1.667    6.667    2.000    0.000    0.000 
#    0.000    6.667    1.833    0.000    0.000    0.000 
#    0.000    0.000    0.000    0.000    0.000    0.000 
#
# Total GULP energy -200564.600403 kJ/mol
# GULP energy per Si atom -5571.238900 kJ/mol
# Density = 1.813788 g / cm^3
# Si number density = 18.179260 Si / 1000 Ang^3
#
#
#
# Elastic Constant Matrix: (Units=GPa)
#
#
# Indices 1 2 3 4 5 6 
#
# 1 77.9581 33.9527 25.3398 -2.1166 0.0000 0.0000
# 2 33.9527 77.9581 25.3398 2.1166 0.0000 0.0000
# 3 25.3398 25.3398 48.1625 0.0000 0.0000 0.0000
# 4 -2.1166 2.1166 0.0000 15.1708 0.0000 0.0000
# 5 0.0000 0.0000 0.0000 0.0000 15.1708 -2.1166
# 6 0.0000 0.0000 0.0000 0.0000 -2.1166 22.0027
#
#
#
# Elastic Compliance Matrix: (Units=1/GPa)
#
#
# Indices 1 2 3 4 5 6 
#
# 1 0.017382 -0.005651 -0.006172 0.003214 0.000000 0.000000
# 2 -0.005651 0.017382 -0.006172 -0.003214 0.000000 0.000000
# 3 -0.006172 -0.006172 0.027257 0.000000 0.000000 0.000000
# 4 0.003214 -0.003214 0.000000 0.066813 0.000000 0.000000
# 5 0.000000 0.000000 0.000000 0.000000 0.066813 0.006427
# 6 0.000000 0.000000 0.000000 0.000000 0.006427 0.046067
#
#
# Mechanical properties :
#
#
# Convention : Reuss Voigt Hill
#
# Bulk Modulus (GPa) = 38.41527 41.48261 39.94894
# Shear Modulus (GPa) = 17.45919 18.43195 17.94557
#
# Velocity S-wave (km/s) = 3.10238 3.18763 3.14530
# Velocity P-wave (km/s) = 5.83183 6.03458 5.93407
#
# Compressibility (1/GPa) = 0.02603131
#
# Stress axis : x y z
#
# Youngs Moduli (GPa) = 57.53035 57.53035 36.68716
#
# Poissons Ratio (x) = 0.32513 0.22643
# Poissons Ratio (y) = 0.32513 0.22643
# Poissons Ratio (z) = 0.35507 0.35507
#
# Static dielectric constant tensor:
#      x y z
#    x 1.626090 0.000000 0.000000 
#    y 0.000000 1.626090 0.000000 
#    z 0.000000 0.000000 1.635730 
# 
# From -- ./inp_files/2030.got.cif
#   From: 2010.05.17/outbox.cif.g08.bks.cpg/sg154_2_cif.got.tgz:2030.got - 2010.05.20 10:41:43.
