data_PCOD9576841
_publ_section_title
;
Structure prediction by ZEFSAII (Michael W. Deem and Ramdas Pophale) SiO2 
 PCOD9576841
Probable space group: R 3 2
;
_chemical_formula_sum "Si O2"
_cell_formula_units_Z 135
_cell_length_a 17.296015
_cell_length_b 17.296015
_cell_length_c 23.665515
_cell_angle_alpha 90.000000
_cell_angle_beta 90.000000
_cell_angle_gamma 120.000000
_cell_volume 6131.104213
_symmetry_space_group_name_H-M "R 3 2"
_symmetry_group_IT_number 155
_symmetry_cell_setting 'hexagonal'
loop_
_space_group_symop_operation_xyz
x,y,z
-y,x-y,z
-x+y,-x,z
x-y,-y,-z
-x,-x+y,-z
y,x,-z
2/3+x,1/3+y,1/3+z
2/3-y,1/3+x-y,1/3+z
2/3-x+y,1/3-x,1/3+z
2/3+x-y,1/3-y,1/3-z
2/3-x,1/3-x+y,1/3-z
2/3+y,1/3+x,1/3-z
1/3+x,2/3+y,2/3+z
1/3-y,2/3+x-y,2/3+z
1/3-x+y,2/3-x,2/3+z
1/3+x-y,2/3-y,2/3-z
1/3-x,2/3-x+y,2/3-z
1/3+y,2/3+x,2/3-z
loop_
_atom_site_type_symbol
_atom_site_label
_atom_site_fract_x
_atom_site_fract_y
_atom_site_fract_z
Si Si1 0.932279 0.116629 0.263014
Si Si2 0.245209 0.855726 0.700832
Si Si3 0.421481 0.479745 0.731653
Si Si4 0.115595 0.892357 0.549966
Si Si5 0.631761 0.000000 0.000000
Si Si6 0.570349 0.135154 0.903889
Si Si7 0.178418 0.744513 0.809954
Si Si8 0.263513 0.474752 0.364479
O O1 0.892236 0.176521 0.287594
O O2 0.897618 0.081520 0.199997
O O3 0.038699 0.173725 0.265223
O O4 0.896347 0.027929 0.301519
O O5 0.333334 0.925954 0.666667
O O6 0.204938 0.771984 0.657526
O O7 0.245176 0.815349 0.762786
O O8 0.519939 0.503398 0.751716
O O9 0.387261 0.381276 0.707350
O O10 0.350752 0.473740 0.777844
O O11 0.124966 0.867381 0.485282
O O12 0.010961 0.851274 0.564367
O O13 0.148749 0.995634 0.560658
O O14 0.553941 0.937893 0.956503
O O15 0.554861 0.110684 0.969001
O O16 0.111356 0.778022 0.833334
#
# Coordination Sequence:
#
# PCOD9576841 Si02
#       8
#    18  18  18  18   9  18  18  18
#     4  11  25  45  66 101 140 191 233 296 365 434
#     4  11  23  44  72  97 133 186 235 300 364 432
#     4  12  21  44  70 102 137 180 243 297 358 430
#     4  10  21  33  59  92 133 183 231 283 348 413
#     4  12  22  38  68 110 132 182 240 292 360 430
#     4  10  19  34  53  87 131 175 225 273 337 416
#     4  10  23  43  72 100 136 181 238 296 358 418
#     4  12  23  40  66  95 140 187 234 282 359 449
#
# _framework density 22.018872000000002
#
# number of rings (size 3 to 8) (size 9 to 14) (size 15 to 20)
#    0.000    1.067    4.000    2.933    2.800    3.200 
#    0.000    0.000    8.800    2.133    0.000    0.000 
#    0.000    0.000    0.000    0.000    0.000    0.000 
#
# Total GULP energy -250592.539334 kJ/mol
# GULP energy per Si atom -5568.723096 kJ/mol
# Density = 2.196876 g / cm^3
# Si number density = 22.018872 Si / 1000 Ang^3
#
#
#
# Elastic Constant Matrix: (Units=GPa)
#
#
# Indices 1 2 3 4 5 6 
#
# 1 58.5464 11.1077 27.5494 -5.9801 0.0003 0.0000
# 2 11.1077 58.5464 27.5494 5.9801 -0.0003 0.0000
# 3 27.5494 27.5494 131.7660 0.0000 0.0000 0.0000
# 4 -5.9801 5.9801 0.0000 9.0282 0.0000 -0.0003
# 5 0.0003 -0.0003 0.0000 0.0000 9.0282 -5.9801
# 6 0.0000 0.0000 0.0000 -0.0003 -5.9801 23.7193
#
#
#
# Elastic Compliance Matrix: (Units=1/GPa)
#
#
# Indices 1 2 3 4 5 6 
#
# 1 0.021254 -0.004052 -0.003596 0.016762 -0.000001 0.000000
# 2 -0.004052 0.021254 -0.003596 -0.016762 0.000001 0.000000
# 3 -0.003596 -0.003596 0.009093 0.000000 0.000000 0.000000
# 4 0.016762 -0.016762 0.000000 0.132970 0.000000 0.000002
# 5 -0.000001 0.000001 0.000000 0.000000 0.132970 0.033524
# 6 0.000000 0.000000 0.000000 0.000002 0.033524 0.050612
#
#
# Mechanical properties :
#
#
# Convention : Reuss Voigt Hill
#
# Bulk Modulus (GPa) = 34.35199 42.36353 38.35776
# Shear Modulus (GPa) = 12.48920 20.53196 16.51058
#
# Velocity S-wave (km/s) = 2.38419 3.05695 2.74129
# Velocity P-wave (km/s) = 4.81811 5.63395 5.24192
#
# Compressibility (1/GPa) = 0.02911039
#
# Stress axis : x y z
#
# Youngs Moduli (GPa) = 47.05057 47.05057 109.97348
#
# Poissons Ratio (x) = 0.19065 0.39552
# Poissons Ratio (y) = 0.19065 0.39552
# Poissons Ratio (z) = 0.16922 0.16922
#
# Static dielectric constant tensor:
#      x y z
#    x 1.904450 0.000000 0.000000 
#    y 0.000000 1.904450 0.000000 
#    z 0.000000 0.000000 1.864770 
# 
# From -- ./inp_files/7574.got.cif
#   From: 2010.05.17/outbox.cif.g08.bks.cpg/sg155_4_cif.got.tgz:7574.got - 2010.05.20 10:44:35.
