data_PCOD9576512
_publ_section_title
;
Structure prediction by ZEFSAII (Michael W. Deem and Ramdas Pophale) SiO2 
 PCOD9576512
Probable space group: P 32 2 1
;
_chemical_formula_sum "Si O2"
_cell_formula_units_Z 36
_cell_length_a 19.578724
_cell_length_b 19.578724
_cell_length_c 5.258081
_cell_angle_alpha 90.000000
_cell_angle_beta 90.000000
_cell_angle_gamma 120.000000
_cell_volume 1745.527407
_symmetry_space_group_name_H-M "P 32 2 1"
_symmetry_group_IT_number 154
_symmetry_cell_setting 'hexagonal'
loop_
_space_group_symop_operation_xyz
x,y,z
-y,x-y,2/3+z
-x+y,-x,1/3+z
x-y,-y,1/3-z
-x,-x+y,2/3-z
y,x,-z
loop_
_atom_site_type_symbol
_atom_site_label
_atom_site_fract_x
_atom_site_fract_y
_atom_site_fract_z
Si Si1 0.717723 0.717723 0.500000
Si Si2 0.222015 0.433626 0.645425
Si Si3 0.874256 0.743150 0.643115
Si Si4 0.627200 0.627200 0.000000
Si Si5 0.863393 0.863393 0.000000
Si Si6 0.683062 0.519186 0.180384
Si Si7 0.744568 0.396918 0.690224
Si Si8 0.120201 0.120201 0.000000
O O1 0.803918 0.729693 0.450244
O O2 0.682930 0.664446 0.751454
O O3 0.204464 0.344203 0.654029
O O4 0.189805 0.443619 0.376607
O O5 0.310093 0.509318 0.643396
O O6 0.177953 0.448949 0.884353
O O7 0.856201 0.784476 0.879525
O O8 0.957371 0.809255 0.536207
O O9 0.548190 0.622178 0.893556
O O10 0.891151 0.931729 0.790135
O O11 0.641115 0.424962 0.181011
O O12 0.658591 0.381049 0.602697
#
# Coordination Sequence:
#
# PCOD9576512 Si02
#       8
#     3   6   6   3   3   6   6   3
#     4  12  22  38  64  90 130 156 216 270 330 388
#     4  11  24  38  65  98 129 170 219 273 333 399
#     4  12  25  42  64  95 130 174 220 287 339 413
#     4  12  21  38  60 100 125 166 216 274 329 400
#     4  12  27  47  66  92 134 168 240 280 358 398
#     4  11  22  36  63  93 130 168 210 271 333 392
#     4  10  20  39  62  97 134 173 221 275 329 399
#     4  12  28  43  66  96 129 180 222 300 339 416
#
# _framework density 20.624137999999999
#
# number of rings (size 3 to 8) (size 9 to 14) (size 15 to 20)
#    0.000    0.667    6.667    1.000    2.333    3.333 
#    0.000    0.833    0.000    0.000   13.000    0.000 
#    0.000    0.000    0.000    0.000    0.000    0.000 
#
# Total GULP energy -200802.351133 kJ/mol
# GULP energy per Si atom -5577.843087 kJ/mol
# Density = 2.057720 g / cm^3
# Si number density = 20.624138 Si / 1000 Ang^3
#
#
#
# Elastic Constant Matrix: (Units=GPa)
#
#
# Indices 1 2 3 4 5 6 
#
# 1 85.1416 20.8971 25.1888 -5.0679 0.0000 0.0000
# 2 20.8971 85.1416 25.1888 5.0679 0.0000 0.0000
# 3 25.1888 25.1888 110.9147 0.0000 0.0000 0.0000
# 4 -5.0679 5.0679 0.0000 24.3078 0.0000 0.0000
# 5 0.0000 0.0000 0.0000 0.0000 24.3078 -5.0679
# 6 0.0000 0.0000 0.0000 0.0000 -5.0679 32.1222
#
#
#
# Elastic Compliance Matrix: (Units=1/GPa)
#
#
# Indices 1 2 3 4 5 6 
#
# 1 0.013333 -0.002762 -0.002401 0.003356 0.000000 0.000000
# 2 -0.002762 0.013333 -0.002401 -0.003356 0.000000 0.000000
# 3 -0.002401 -0.002401 0.010106 0.000000 0.000000 0.000000
# 4 0.003356 -0.003356 0.000000 0.042538 0.000000 0.000000
# 5 0.000000 0.000000 0.000000 0.000000 0.042538 0.006711
# 6 0.000000 0.000000 0.000000 0.000000 0.006711 0.032190
#
#
# Mechanical properties :
#
#
# Convention : Reuss Voigt Hill
#
# Bulk Modulus (GPa) = 46.19863 47.08305 46.64084
# Shear Modulus (GPa) = 28.34776 30.14244 29.24510
#
# Velocity S-wave (km/s) = 3.71144 3.82712 3.76972
# Velocity P-wave (km/s) = 6.38868 6.51213 6.45070
#
# Compressibility (1/GPa) = 0.02164567
#
# Stress axis : x y z
#
# Youngs Moduli (GPa) = 75.00184 75.00184 98.94782
#
# Poissons Ratio (x) = 0.20715 0.23754
# Poissons Ratio (y) = 0.20715 0.23754
# Poissons Ratio (z) = 0.18006 0.18006
#
# Static dielectric constant tensor:
#      x y z
#    x 1.784490 0.000000 0.000000 
#    y 0.000000 1.784490 0.000000 
#    z 0.000000 0.000000 1.809190 
# 
# From -- ./inp_files/515.got.cif
#   From: 2010.05.17/outbox.cif.g08.bks.cpg/sg154_1_cif.got.tgz:515.got - 2010.05.20 10:41:43.
