data_PCOD9576826
_publ_section_title
;
Structure prediction by ZEFSAII (Michael W. Deem and Ramdas Pophale) SiO2 
 PCOD9576826
Probable space group: R 3 2
;
_chemical_formula_sum "Si O2"
_cell_formula_units_Z 144
_cell_length_a 23.723846
_cell_length_b 23.723846
_cell_length_c 15.517158
_cell_angle_alpha 90.000000
_cell_angle_beta 90.000000
_cell_angle_gamma 120.000000
_cell_volume 7563.329244
_symmetry_space_group_name_H-M "R 3 2"
_symmetry_group_IT_number 155
_symmetry_cell_setting 'hexagonal'
loop_
_space_group_symop_operation_xyz
x,y,z
-y,x-y,z
-x+y,-x,z
x-y,-y,-z
-x,-x+y,-z
y,x,-z
2/3+x,1/3+y,1/3+z
2/3-y,1/3+x-y,1/3+z
2/3-x+y,1/3-x,1/3+z
2/3+x-y,1/3-y,1/3-z
2/3-x,1/3-x+y,1/3-z
2/3+y,1/3+x,1/3-z
1/3+x,2/3+y,2/3+z
1/3-y,2/3+x-y,2/3+z
1/3-x+y,2/3-x,2/3+z
1/3+x-y,2/3-y,2/3-z
1/3-x,2/3-x+y,2/3-z
1/3+y,2/3+x,2/3-z
loop_
_atom_site_type_symbol
_atom_site_label
_atom_site_fract_x
_atom_site_fract_y
_atom_site_fract_z
Si Si1 0.867964 0.251489 0.430670
Si Si2 0.073397 0.467102 0.515181
Si Si3 0.408351 0.588910 0.026653
Si Si4 0.203678 0.942739 0.652906
Si Si5 0.262043 0.522416 0.023650
Si Si6 0.073663 0.143292 0.851259
Si Si7 0.153692 0.077314 0.849912
Si Si8 0.617506 0.751909 0.255545
O O1 0.913456 0.329259 0.435745
O O2 0.888250 0.224582 0.348973
O O3 0.795789 0.239786 0.443186
O O4 0.887891 0.217453 0.505609
O O5 0.096493 0.463541 0.416838
O O6 0.119422 0.540160 0.546688
O O7 0.000000 0.446588 0.500000
O O8 0.333938 0.544369 0.055709
O O9 0.429732 0.663999 0.046306
O O10 0.460664 0.573181 0.069425
O O11 0.412919 0.584741 0.921695
O O12 0.130499 0.915336 0.619028
O O13 0.254189 0.007507 0.602024
O O14 0.268433 0.524146 0.919600
O O15 0.123427 0.120827 0.881591
O O16 0.997361 0.097185 0.871671
O O17 0.666667 0.788175 0.333334
#
# Coordination Sequence:
#
# PCOD9576826 Si02
#       8
#    18  18  18  18  18  18  18  18
#     4  11  20  29  47  71  98 128 154 192 240 283
#     4  10  19  31  48  70  94 124 156 187 235 289
#     4   9  15  26  47  66  95 123 162 199 228 279
#     4  10  20  31  45  69 101 124 153 197 238 282
#     4   8  15  27  43  68  92 122 156 193 237 263
#     4   8  15  26  45  69  93 116 147 195 232 276
#     4   9  15  27  45  72  93 119 154 194 242 280
#     4  11  17  29  44  69  99 126 157 190 231 280
#
# _framework density 19.039234
#
# number of rings (size 3 to 8) (size 9 to 14) (size 15 to 20)
#    0.000    2.500    2.500    3.125    0.000    2.000 
#    0.000    0.625    0.000    2.250    0.000    1.750 
#    0.000    2.000    0.000    0.000    0.000    0.000 
#
# Total GULP energy -267716.602211 kJ/mol
# GULP energy per Si atom -5577.429213 kJ/mol
# Density = 1.899590 g / cm^3
# Si number density = 19.039234 Si / 1000 Ang^3
#
#
#
# Elastic Constant Matrix: (Units=GPa)
#
#
# Indices 1 2 3 4 5 6 
#
# 1 141.2248 87.1804 10.0276 2.8169 -0.0002 0.0000
# 2 87.1804 141.2248 10.0276 -2.8169 0.0002 0.0000
# 3 10.0276 10.0276 47.2496 0.0000 0.0000 0.0000
# 4 2.8169 -2.8169 0.0000 13.5742 0.0000 0.0002
# 5 -0.0002 0.0002 0.0000 0.0000 13.5742 2.8169
# 6 0.0000 0.0000 0.0000 0.0002 2.8169 27.0222
#
#
#
# Elastic Compliance Matrix: (Units=1/GPa)
#
#
# Indices 1 2 3 4 5 6 
#
# 1 0.011687 -0.007226 -0.000947 -0.003925 0.000000 0.000000
# 2 -0.007226 0.011687 -0.000947 0.003925 0.000000 0.000000
# 3 -0.000947 -0.000947 0.021566 0.000000 0.000000 0.000000
# 4 -0.003925 0.003925 0.000000 0.075298 0.000000 -0.000001
# 5 0.000000 0.000000 0.000000 0.000000 0.075298 -0.007849
# 6 0.000000 0.000000 0.000000 -0.000001 -0.007849 0.037825
#
#
# Mechanical properties :
#
#
# Convention : Reuss Voigt Hill
#
# Bulk Modulus (GPa) = 37.45112 60.46339 48.95726
# Shear Modulus (GPa) = 19.19392 25.66505 22.42949
#
# Velocity S-wave (km/s) = 3.17854 3.67551 3.43602
# Velocity P-wave (km/s) = 5.76056 7.05965 6.44293
#
# Compressibility (1/GPa) = 0.02670147
#
# Stress axis : x y z
#
# Youngs Moduli (GPa) = 85.56612 85.56612 46.36913
#
# Poissons Ratio (x) = 0.61826 0.04390
# Poissons Ratio (y) = 0.61826 0.04390
# Poissons Ratio (z) = 0.08101 0.08101
#
# Static dielectric constant tensor:
#      x y z
#    x 1.652710 0.000000 0.000000 
#    y 0.000000 1.652710 0.000000 
#    z 0.000000 0.000000 1.806420 
# 
# From -- ./inp_files/6374.got.cif
#   From: 2010.05.17/outbox.cif.g08.bks.cpg/sg155_4_cif.got.tgz:6374.got - 2010.05.20 10:44:35.
