data_PCOD9576087
_publ_section_title
;
Structure prediction by ZEFSAII (Michael W. Deem and Ramdas Pophale) SiO2 
 PCOD9576087
Probable space group: P 31 2 1
;
_chemical_formula_sum "Si O2"
_cell_formula_units_Z 39
_cell_length_a 17.210513
_cell_length_b 17.210513
_cell_length_c 7.932552
_cell_angle_alpha 90.000000
_cell_angle_beta 90.000000
_cell_angle_gamma 120.000000
_cell_volume 2034.844332
_symmetry_space_group_name_H-M "P 31 2 1"
_symmetry_group_IT_number 152
_symmetry_cell_setting 'hexagonal'
loop_
_space_group_symop_operation_xyz
x,y,z
-y,x-y,1/3+z
-x+y,-x,2/3+z
x-y,-y,2/3-z
-x,-x+y,1/3-z
y,x,-z
loop_
_atom_site_type_symbol
_atom_site_label
_atom_site_fract_x
_atom_site_fract_y
_atom_site_fract_z
Si Si1 0.677834 0.677834 0.000000
Si Si2 0.324183 0.324183 0.500000
Si Si3 0.893106 0.901361 0.182151
Si Si4 0.871855 0.162910 0.875365
Si Si5 0.000000 0.800441 0.666667
Si Si6 0.056058 0.601265 0.845049
Si Si7 0.617720 0.819826 0.451317
Si Si8 0.061557 0.435489 0.997574
O O1 0.770810 0.684250 0.052137
O O2 0.623393 0.635589 0.168465
O O3 0.305570 0.223467 0.487044
O O4 0.370718 0.379113 0.327728
O O5 0.867548 0.809952 0.280437
O O6 0.842320 0.955932 0.210725
O O7 0.862962 0.862962 0.000000
O O8 0.000000 0.966601 0.166667
O O9 0.847411 0.202797 0.035378
O O10 0.913207 0.707432 0.609089
O O11 0.146595 0.693256 0.800929
O O12 0.079336 0.532438 0.938296
O O13 0.000000 0.565591 0.666667
O O14 0.581140 0.726964 0.352290
O O15 0.000000 0.404286 0.166667
#
# Coordination Sequence:
#
# PCOD9576087 Si02
#       8
#     3   3   6   6   3   6   6   6
#     4  12  24  38  66 100 136 180 228 276 353 425
#     4  10  24  40  68  98 140 180 240 294 340 414
#     4  12  23  33  50  81 137 188 237 270 306 373
#     4  11  23  38  61  98 134 190 232 279 337 404
#     4  12  26  38  60  94 136 196 230 278 337 405
#     4  11  24  46  73 100 129 181 233 294 364 423
#     4  11  26  44  71  99 137 177 239 291 355 426
#     4  12  25  46  72 103 136 176 232 300 355 432
#
# _framework density 19.166086
#
# number of rings (size 3 to 8) (size 9 to 14) (size 15 to 20)
#    0.000    0.615    6.154    1.846    4.308    0.000 
#    0.000    0.000   10.154    0.000    0.000    0.000 
#    0.000    0.000    0.000    0.000    0.000    0.000 
#
# Total GULP energy -217118.623104 kJ/mol
# GULP energy per Si atom -5567.144182 kJ/mol
# Density = 1.912246 g / cm^3
# Si number density = 19.166086 Si / 1000 Ang^3
#
#
#
# Elastic Constant Matrix: (Units=GPa)
#
#
# Indices 1 2 3 4 5 6 
#
# 1 117.3283 67.1945 43.1033 -6.8336 0.0000 0.0000
# 2 67.1945 117.3283 43.1033 6.8336 0.0000 0.0000
# 3 43.1033 43.1033 105.8656 0.0000 0.0000 0.0000
# 4 -6.8336 6.8336 0.0000 42.2776 0.0000 0.0000
# 5 0.0000 0.0000 0.0000 0.0000 42.2776 -6.8336
# 6 0.0000 0.0000 0.0000 0.0000 -6.8336 25.0669
#
#
#
# Elastic Compliance Matrix: (Units=1/GPa)
#
#
# Indices 1 2 3 4 5 6 
#
# 1 0.013779 -0.007087 -0.002725 0.003373 0.000000 0.000000
# 2 -0.007087 0.013779 -0.002725 -0.003373 0.000000 0.000000
# 3 -0.002725 -0.002725 0.011665 0.000000 0.000000 0.000000
# 4 0.003373 -0.003373 0.000000 0.024744 0.000000 0.000000
# 5 0.000000 0.000000 0.000000 0.000000 0.024744 0.006745
# 6 0.000000 0.000000 0.000000 0.000000 0.006745 0.041732
#
#
# Mechanical properties :
#
#
# Convention : Reuss Voigt Hill
#
# Bulk Modulus (GPa) = 70.67000 71.92494 71.29747
# Shear Modulus (GPa) = 31.20473 34.39916 32.80195
#
# Velocity S-wave (km/s) = 4.03938 4.24110 4.14146
# Velocity P-wave (km/s) = 7.66211 7.84801 7.75561
#
# Compressibility (1/GPa) = 0.01415028
#
# Stress axis : x y z
#
# Youngs Moduli (GPa) = 72.57299 72.57299 85.72838
#
# Poissons Ratio (x) = 0.51431 0.23359
# Poissons Ratio (y) = 0.51431 0.23359
# Poissons Ratio (z) = 0.19775 0.19775
#
# Static dielectric constant tensor:
#      x y z
#    x 1.758420 0.000000 0.000000 
#    y 0.000000 1.758420 0.000000 
#    z 0.000000 0.000000 1.807220 
# 
# From -- ./inp_files/1318.got.cif
#   From: 2010.05.17/outbox.cif.g08.bks.cpg/sg152_1_cif.got.tgz:1318.got - 2010.05.20 10:36:06.
