data_PCOD9576853
_publ_section_title
;
Structure prediction by ZEFSAII (Michael W. Deem and Ramdas Pophale) SiO2 
 PCOD9576853
Probable space group: R 3 2
;
_chemical_formula_sum "Si O2"
_cell_formula_units_Z 144
_cell_length_a 20.881682
_cell_length_b 20.881682
_cell_length_c 19.555023
_cell_angle_alpha 90.000000
_cell_angle_beta 90.000000
_cell_angle_gamma 120.000000
_cell_volume 7384.479995
_symmetry_space_group_name_H-M "R 3 2"
_symmetry_group_IT_number 155
_symmetry_cell_setting 'hexagonal'
loop_
_space_group_symop_operation_xyz
x,y,z
-y,x-y,z
-x+y,-x,z
x-y,-y,-z
-x,-x+y,-z
y,x,-z
2/3+x,1/3+y,1/3+z
2/3-y,1/3+x-y,1/3+z
2/3-x+y,1/3-x,1/3+z
2/3+x-y,1/3-y,1/3-z
2/3-x,1/3-x+y,1/3-z
2/3+y,1/3+x,1/3-z
1/3+x,2/3+y,2/3+z
1/3-y,2/3+x-y,2/3+z
1/3-x+y,2/3-x,2/3+z
1/3+x-y,2/3-y,2/3-z
1/3-x,2/3-x+y,2/3-z
1/3+y,2/3+x,2/3-z
loop_
_atom_site_type_symbol
_atom_site_label
_atom_site_fract_x
_atom_site_fract_y
_atom_site_fract_z
Si Si1 0.408921 0.467991 0.061001
Si Si2 0.487296 0.927971 0.543154
Si Si3 0.780483 0.676838 0.299650
Si Si4 0.602594 0.437045 0.577395
Si Si5 0.894149 0.061923 0.720718
Si Si6 0.627078 0.614950 0.222995
Si Si7 0.363586 0.393044 0.743413
Si Si8 0.194469 0.376185 0.498310
O O1 0.339345 0.389405 0.085963
O O2 0.467910 0.500859 0.122110
O O3 0.444923 0.444923 0.000000
O O4 0.394593 0.526908 0.020719
O O5 0.461965 0.942763 0.616415
O O6 0.424618 0.858575 0.501428
O O7 0.567710 0.935696 0.548615
O O8 0.502838 0.000000 0.500000
O O9 0.853229 0.753825 0.283094
O O10 0.711411 0.658081 0.249278
O O11 0.753935 0.681570 0.375055
O O12 0.565697 0.352793 0.600178
O O13 0.688026 0.477630 0.598163
O O14 0.851167 0.080247 0.780040
O O15 0.620158 0.666667 0.166667
O O16 0.596425 0.536730 0.184638
O O17 0.333334 0.381978 0.666667
O O18 0.434529 0.468331 0.767209
#
# Coordination Sequence:
#
# PCOD9576853 Si02
#       8
#    18  18  18  18  18  18  18  18
#     4   9  22  35  57  89 128 159 201 256 321 376
#     4  10  19  35  61  90 121 166 210 261 317 375
#     4  10  23  39  62  92 124 165 210 268 315 383
#     4  11  23  40  65  88 125 167 222 263 314 378
#     4  11  23  40  61  91 119 170 212 264 314 381
#     4  11  23  39  60  90 128 164 207 260 321 382
#     4  11  21  34  59  94 132 162 203 259 321 389
#     4  11  21  38  60  92 125 164 200 259 323 385
#
# _framework density 19.500357999999999
#
# number of rings (size 3 to 8) (size 9 to 14) (size 15 to 20)
#    0.000    1.500    1.250    4.750   12.250    0.000 
#    0.000    0.000    0.000    0.000    0.000    0.000 
#    0.000    0.000    0.000    0.000    0.000    0.000 
#
# Total GULP energy -267330.794564 kJ/mol
# GULP energy per Si atom -5569.391553 kJ/mol
# Density = 1.945597 g / cm^3
# Si number density = 19.500358 Si / 1000 Ang^3
#
#
#
# Elastic Constant Matrix: (Units=GPa)
#
#
# Indices 1 2 3 4 5 6 
#
# 1 67.2823 12.6550 27.5758 0.7824 -0.0001 0.0000
# 2 12.6550 67.2823 27.5758 -0.7824 0.0001 0.0000
# 3 27.5758 27.5758 99.1145 0.0000 0.0000 0.0000
# 4 0.7824 -0.7824 0.0000 24.4570 0.0000 0.0001
# 5 -0.0001 0.0001 0.0000 0.0000 24.4570 0.7824
# 6 0.0000 0.0000 0.0000 0.0001 0.7824 27.3136
#
#
#
# Elastic Compliance Matrix: (Units=1/GPa)
#
#
# Indices 1 2 3 4 5 6 
#
# 1 0.016902 -0.001421 -0.004307 -0.000586 0.000000 0.000000
# 2 -0.001421 0.016902 -0.004307 0.000586 0.000000 0.000000
# 3 -0.004307 -0.004307 0.012486 0.000000 0.000000 0.000000
# 4 -0.000586 0.000586 0.000000 0.040926 0.000000 0.000000
# 5 0.000000 0.000000 0.000000 0.000000 0.040926 -0.001172
# 6 0.000000 0.000000 0.000000 0.000000 -0.001172 0.036645
#
#
# Mechanical properties :
#
#
# Convention : Reuss Voigt Hill
#
# Bulk Modulus (GPa) = 38.13880 41.03249 39.58564
# Shear Modulus (GPa) = 25.82680 26.30368 26.06524
#
# Velocity S-wave (km/s) = 3.64322 3.67670 3.65999
# Velocity P-wave (km/s) = 6.10719 6.25394 6.18100
#
# Compressibility (1/GPa) = 0.02622002
#
# Stress axis : x y z
#
# Youngs Moduli (GPa) = 59.16414 59.16414 80.08898
#
# Poissons Ratio (x) = 0.08405 0.34497
# Poissons Ratio (y) = 0.08405 0.34497
# Poissons Ratio (z) = 0.25484 0.25484
#
# Static dielectric constant tensor:
#      x y z
#    x 1.704590 0.000000 0.000000 
#    y 0.000000 1.704590 0.000000 
#    z 0.000000 0.000000 1.742880 
# 
# From -- ./inp_files/7056.got.cif
#   From: 2010.05.17/outbox.cif.g08.bks.cpg/sg155_4_cif.got.tgz:7056.got - 2010.05.20 10:44:35.
