data_PCOD9576754
_publ_section_title
;
Structure prediction by ZEFSAII (Michael W. Deem and Ramdas Pophale) SiO2 
 PCOD9576754
Probable space group: P 32 2 1
;
_chemical_formula_sum "Si O2"
_cell_formula_units_Z 18
_cell_length_a 12.000000
_cell_length_b 12.000000
_cell_length_c 6.000000
_cell_angle_alpha 90.000000
_cell_angle_beta 90.000000
_cell_angle_gamma 120.000000
_cell_volume 748.245949
_symmetry_space_group_name_H-M "P 32 2 1"
_symmetry_group_IT_number 154
_symmetry_cell_setting 'hexagonal'
loop_
_space_group_symop_operation_xyz
x,y,z
-y,x-y,2/3+z
-x+y,-x,1/3+z
x-y,-y,1/3-z
-x,-x+y,2/3-z
y,x,-z
loop_
_atom_site_type_symbol
_atom_site_label
_atom_site_fract_x
_atom_site_fract_y
_atom_site_fract_z
Si Si1 0.388783 0.801311 0.369015
Si Si2 0.347247 0.000000 0.666667
Si Si3 0.000000 0.638281 0.833334
Si Si4 0.893737 0.106760 0.019171
O O1 0.269173 0.697354 0.223813
O O2 0.370758 0.906807 0.505591
O O3 0.498344 0.877500 0.182332
O O4 0.308497 0.083420 0.508300
O O5 0.972311 0.712597 0.632084
O O6 0.000000 0.164437 0.833334
O O7 0.901934 0.000000 0.166667
#
# Coordination Sequence:
#
# PCOD9576754 Si02
#       4
#     6   3   3   6
#     4  12  29  50  84 121 165 219 269 340 409 487
#     4  12  28  44  82 114 164 208 282 334 404 490
#     4  10  26  48  84 110 164 206 278 330 412 484
#     4  10  25  49  77 112 157 215 268 340 406 474
#
# _framework density 24.056260999999999
#
# number of rings (size 3 to 8) (size 9 to 14) (size 15 to 20)
#    1.000    0.000    0.000    4.000   16.333    2.667 
#    0.000    0.000    0.000    0.000    0.000    0.000 
#    0.000    0.000    0.000    0.000    0.000    0.000 
#
# Total GULP energy -100491.053021 kJ/mol
# GULP energy per Si atom -5582.836279 kJ/mol
# Density = 2.400151 g / cm^3
# Si number density = 24.056261 Si / 1000 Ang^3
#
#
#
# Elastic Constant Matrix: (Units=GPa)
#
#
# Indices 1 2 3 4 5 6 
#
# 1 158.6153 82.8844 61.0655 -2.8044 0.0000 0.0000
# 2 82.8844 158.6153 61.0655 2.8044 0.0000 0.0000
# 3 61.0655 61.0655 79.1355 0.0000 0.0000 0.0000
# 4 -2.8044 2.8044 0.0000 35.8682 0.0000 0.0000
# 5 0.0000 0.0000 0.0000 0.0000 35.8682 -2.8044
# 6 0.0000 0.0000 0.0000 0.0000 -2.8044 37.8654
#
#
#
# Elastic Compliance Matrix: (Units=1/GPa)
#
#
# Indices 1 2 3 4 5 6 
#
# 1 0.010036 -0.003245 -0.005240 0.001038 0.000000 0.000000
# 2 -0.003245 0.010036 -0.005240 -0.001038 0.000000 0.000000
# 3 -0.005240 -0.005240 0.020724 0.000000 0.000000 0.000000
# 4 0.001038 -0.001038 0.000000 0.028042 0.000000 0.000000
# 5 0.000000 0.000000 0.000000 0.000000 0.028042 0.002077
# 6 0.000000 0.000000 0.000000 0.000000 0.002077 0.026563
#
#
# Mechanical properties :
#
#
# Convention : Reuss Voigt Hill
#
# Bulk Modulus (GPa) = 74.93607 89.59966 82.26787
# Shear Modulus (GPa) = 32.18666 34.67704 33.43185
#
# Velocity S-wave (km/s) = 3.66180 3.80082 3.73196
# Velocity P-wave (km/s) = 7.00688 7.52253 7.26928
#
# Compressibility (1/GPa) = 0.01334471
#
# Stress axis : x y z
#
# Youngs Moduli (GPa) = 99.63906 99.63906 48.25350
#
# Poissons Ratio (x) = 0.32336 0.25286
# Poissons Ratio (y) = 0.32336 0.25286
# Poissons Ratio (z) = 0.52213 0.52213
#
# Static dielectric constant tensor:
#      x y z
#    x 1.947330 0.000000 0.000000 
#    y 0.000000 1.947330 0.000000 
#    z 0.000000 0.000000 1.944820 
# 
# From -- ./inp_files/122.got.cif
#   From: 2010.05.17/outbox.ucp.g08.bks.cvg/sg154_1_cif.got.tgz:122.got - 2010.06.11 15:13:38.
