data_PCOD9576224
_publ_section_title
;
Structure prediction by ZEFSAII (Michael W. Deem and Ramdas Pophale) SiO2 
 PCOD9576224
Probable space group: P 32 1 2
;
_chemical_formula_sum "Si O2"
_cell_formula_units_Z 42
_cell_length_a 11.705162
_cell_length_b 11.705162
_cell_length_c 19.827389
_cell_angle_alpha 90.000000
_cell_angle_beta 90.000000
_cell_angle_gamma 120.000000
_cell_volume 2352.615838
_symmetry_space_group_name_H-M "P 32 1 2"
_symmetry_group_IT_number 153
_symmetry_cell_setting 'hexagonal'
loop_
_space_group_symop_operation_xyz
x,y,z
-y,x-y,2/3+z
-x+y,-x,1/3+z
-y,-x,1/3-z
-x+y,y,2/3-z
x,x-y,-z
loop_
_atom_site_type_symbol
_atom_site_label
_atom_site_fract_x
_atom_site_fract_y
_atom_site_fract_z
Si Si1 0.406334 0.186510 0.665730
Si Si2 0.359531 0.363233 0.769983
Si Si3 0.656559 0.051433 0.588026
Si Si4 0.711658 0.288343 0.666667
Si Si5 0.605125 0.656558 0.921359
Si Si6 0.288343 0.576685 0.333334
Si Si7 0.640468 0.003702 0.230018
Si Si8 0.219823 0.813490 0.000937
O O1 0.361340 0.250496 0.723928
O O2 0.557277 0.228138 0.680990
O O3 0.399955 0.257477 0.596868
O O4 0.324748 0.032317 0.647201
O O5 0.334496 0.315818 0.846924
O O6 0.500000 0.499999 0.765293
O O7 0.257477 0.399954 0.736466
O O8 0.724298 0.204943 0.605633
O O9 0.500000 1.000000 0.587830
O O10 0.675253 0.967683 0.647201
O O11 0.665503 0.684181 0.846924
O O12 0.519354 0.724298 0.938966
O O13 0.442723 0.670860 0.319011
O O14 0.638659 0.889157 0.276072
#
# Coordination Sequence:
#
# PCOD9576224 Si02
#       8
#     6   6   6   3   6   3   6   6
#     4  10  17  31  50  75 104 129 168 215 252 300
#     4  10  17  30  51  74  99 133 174 217 252 292
#     4   9  20  30  48  73  98 140 170 202 263 308
#     4  10  18  33  46  71 114 132 158 210 256 320
#     4   9  20  30  48  73  98 140 170 202 263 308
#     4  10  18  33  46  71 114 132 158 210 256 320
#     4  10  17  30  51  74  99 133 174 217 252 292
#     4  10  17  31  50  75 104 129 168 215 252 300
#
# _framework density 17.85247
#
# number of rings (size 3 to 8) (size 9 to 14) (size 15 to 20)
#    0.000    2.286    2.857    1.714    0.000    1.143 
#    0.000    1.429    0.000    8.571    0.000    8.000 
#    0.000    0.000    0.000    0.000    0.000    0.000 
#
# Total GULP energy -233819.960651 kJ/mol
# GULP energy per Si atom -5567.141920 kJ/mol
# Density = 1.781184 g / cm^3
# Si number density = 17.852470 Si / 1000 Ang^3
#
#
#
# Elastic Constant Matrix: (Units=GPa)
#
#
# Indices 1 2 3 4 5 6 
#
# 1 57.2163 33.0909 31.5347 0.0000 -0.0001 0.0000
# 2 33.0909 57.2163 31.5347 0.0000 0.0001 0.0000
# 3 31.5347 31.5347 90.3938 0.0000 0.0000 0.0000
# 4 0.0000 0.0000 0.0000 11.4643 0.0000 0.0001
# 5 -0.0001 0.0001 0.0000 0.0000 11.4643 0.0000
# 6 0.0000 0.0000 0.0000 0.0001 0.0000 12.0627
#
#
#
# Elastic Compliance Matrix: (Units=1/GPa)
#
#
# Indices 1 2 3 4 5 6 
#
# 1 0.028045 -0.013405 -0.005107 0.000000 0.000001 0.000000
# 2 -0.013405 0.028045 -0.005107 0.000000 -0.000001 0.000000
# 3 -0.005107 -0.005107 0.014626 0.000000 0.000000 0.000000
# 4 0.000000 0.000000 0.000000 0.087228 0.000000 -0.000001
# 5 0.000001 -0.000001 0.000000 0.000000 0.087228 0.000000
# 6 0.000000 0.000000 0.000000 -0.000001 0.000000 0.082900
#
#
# Mechanical properties :
#
#
# Convention : Reuss Voigt Hill
#
# Bulk Modulus (GPa) = 42.59457 44.12746 43.36101
# Shear Modulus (GPa) = 13.05017 14.24265 13.64641
#
# Velocity S-wave (km/s) = 2.70664 2.82760 2.76778
# Velocity P-wave (km/s) = 5.80335 5.95247 5.87838
#
# Compressibility (1/GPa) = 0.02347717
#
# Stress axis : x y z
#
# Youngs Moduli (GPa) = 35.65676 35.65676 68.37036
#
# Poissons Ratio (x) = 0.47798 0.34919
# Poissons Ratio (y) = 0.47798 0.34919
# Poissons Ratio (z) = 0.18211 0.18211
#
# Static dielectric constant tensor:
#      x y z
#    x 1.634600 0.000000 0.000000 
#    y 0.000000 1.634600 0.000000 
#    z 0.000000 0.000000 1.623790 
# 
# From -- ./inp_files/3580.got.cif
#   From: 2010.05.17/outbox.cif.g08.bks.cpg/sg153_2_cif.got.tgz:3580.got - 2010.05.20 10:38:56.
