data_PCOD9576764
_publ_section_title
;
Structure prediction by ZEFSAII (Michael W. Deem and Ramdas Pophale) SiO2 
 PCOD9576764
Probable space group: R 3 2
;
_chemical_formula_sum "Si O2"
_cell_formula_units_Z 63
_cell_length_a 14.561411
_cell_length_b 14.561411
_cell_length_c 13.323151
_cell_angle_alpha 90.000000
_cell_angle_beta 90.000000
_cell_angle_gamma 120.000000
_cell_volume 2446.495955
_symmetry_space_group_name_H-M "R 3 2"
_symmetry_group_IT_number 155
_symmetry_cell_setting 'hexagonal'
loop_
_space_group_symop_operation_xyz
x,y,z
-y,x-y,z
-x+y,-x,z
x-y,-y,-z
-x,-x+y,-z
y,x,-z
2/3+x,1/3+y,1/3+z
2/3-y,1/3+x-y,1/3+z
2/3-x+y,1/3-x,1/3+z
2/3+x-y,1/3-y,1/3-z
2/3-x,1/3-x+y,1/3-z
2/3+y,1/3+x,1/3-z
1/3+x,2/3+y,2/3+z
1/3-y,2/3+x-y,2/3+z
1/3-x+y,2/3-x,2/3+z
1/3+x-y,2/3-y,2/3-z
1/3-x,2/3-x+y,2/3-z
1/3+y,2/3+x,2/3-z
loop_
_atom_site_type_symbol
_atom_site_label
_atom_site_fract_x
_atom_site_fract_y
_atom_site_fract_z
Si Si1 0.549870 0.805658 0.842829
Si Si2 0.488311 0.879382 0.017931
Si Si3 0.666667 0.528972 0.333334
Si Si4 0.244628 0.067294 0.378903
O O1 0.666667 0.911173 0.833334
O O2 0.468157 0.826981 0.905657
O O3 0.512048 0.744437 0.739301
O O4 0.577061 0.739394 0.923181
O O5 0.538814 0.816349 0.071838
O O6 0.385187 0.872488 0.067922
O O7 0.572438 0.000000 0.000000
O O8 0.740530 0.634054 0.400474
#
# Coordination Sequence:
#
# PCOD9576764 Si02
#       4
#    18  18   9  18
#     4   8  19  35  57  90 129 168 233 281 350 432
#     4  10  19  37  60  94 131 176 232 292 353 432
#     4  10  16  40  58  88 128 182 222 286 360 426
#     4   9  19  34  62  88 127 177 231 283 357 421
#
# _framework density 25.751116
#
# number of rings (size 3 to 8) (size 9 to 14) (size 15 to 20)
#    1.714    1.143    1.429    0.571    0.000    0.000 
#    5.143    1.429    0.000    0.000    3.714    0.000 
#    0.000    0.000    0.000    0.000    0.000    0.000 
#
# Total GULP energy -117173.960649 kJ/mol
# GULP energy per Si atom -5579.712412 kJ/mol
# Density = 2.569251 g / cm^3
# Si number density = 25.751116 Si / 1000 Ang^3
#
#
#
# Elastic Constant Matrix: (Units=GPa)
#
#
# Indices 1 2 3 4 5 6 
#
# 1 84.6226 18.7021 37.1044 -6.4556 0.0001 0.0000
# 2 18.7021 84.6226 37.1044 6.4556 -0.0001 0.0000
# 3 37.1044 37.1044 96.3586 0.0000 0.0000 0.0000
# 4 -6.4556 6.4556 0.0000 28.4363 0.0000 -0.0001
# 5 0.0001 -0.0001 0.0000 0.0000 28.4363 -6.4556
# 6 0.0000 0.0000 0.0000 -0.0001 -6.4556 32.9603
#
#
#
# Elastic Compliance Matrix: (Units=1/GPa)
#
#
# Indices 1 2 3 4 5 6 
#
# 1 0.014627 -0.001249 -0.005151 0.003604 0.000000 0.000000
# 2 -0.001249 0.014627 -0.005151 -0.003604 0.000000 0.000000
# 3 -0.005151 -0.005151 0.014345 0.000000 0.000000 0.000000
# 4 0.003604 -0.003604 0.000000 0.036803 0.000000 0.000000
# 5 0.000000 0.000000 0.000000 0.000000 0.036803 0.007208
# 6 0.000000 0.000000 0.000000 0.000000 0.007208 0.031751
#
#
# Mechanical properties :
#
#
# Convention : Reuss Voigt Hill
#
# Bulk Modulus (GPa) = 48.79111 50.15843 49.47477
# Shear Modulus (GPa) = 27.95001 29.47945 28.71473
#
# Velocity S-wave (km/s) = 3.29810 3.38714 3.34291
# Velocity P-wave (km/s) = 5.78719 5.90062 5.84418
#
# Compressibility (1/GPa) = 0.02049554
#
# Stress axis : x y z
#
# Youngs Moduli (GPa) = 68.36741 68.36741 69.70984
#
# Poissons Ratio (x) = 0.08538 0.35911
# Poissons Ratio (y) = 0.08538 0.35911
# Poissons Ratio (z) = 0.35219 0.35219
#
# Static dielectric constant tensor:
#      x y z
#    x 1.999430 0.000000 0.000000 
#    y 0.000000 1.999430 0.000000 
#    z 0.000000 0.000000 2.212500 
# 
# From -- ./inp_files/5771.got.cif
#   From: 2010.05.17/outbox.cif.g08.bks.cpg/sg155_3_cif.got.tgz:5771.got - 2010.05.20 10:44:35.
