data_PCOD9576214
_publ_section_title
;
Structure prediction by ZEFSAII (Michael W. Deem and Ramdas Pophale) SiO2 
 PCOD9576214
Probable space group: P 31 2 1
;
_chemical_formula_sum "Si O2"
_cell_formula_units_Z 42
_cell_length_a 9.000000
_cell_length_b 9.000000
_cell_length_c 30.000000
_cell_angle_alpha 90.000000
_cell_angle_beta 90.000000
_cell_angle_gamma 120.000000
_cell_volume 2104.441731
_symmetry_space_group_name_H-M "P 31 2 1"
_symmetry_group_IT_number 152
_symmetry_cell_setting 'hexagonal'
loop_
_space_group_symop_operation_xyz
x,y,z
-y,x-y,1/3+z
-x+y,-x,2/3+z
x-y,-y,2/3-z
-x,-x+y,1/3-z
y,x,-z
loop_
_atom_site_type_symbol
_atom_site_label
_atom_site_fract_x
_atom_site_fract_y
_atom_site_fract_z
Si Si1 0.815809 0.808370 0.553220
Si Si2 0.255139 0.689456 0.756581
Si Si3 0.338572 0.909515 0.237820
Si Si4 0.855808 0.982509 0.736861
Si Si5 0.464029 0.368335 0.648273
Si Si6 0.422407 0.239784 0.518857
Si Si7 0.536912 0.231911 0.731374
O O1 0.848806 0.848806 0.500000
O O2 0.804948 0.628423 0.563209
O O3 0.624922 0.769393 0.568081
O O4 0.969288 0.951130 0.584545
O O5 0.377371 0.756644 0.713236
O O6 0.389563 0.704647 0.794289
O O7 0.083497 0.509618 0.751452
O O8 0.181146 0.908304 0.262871
O O9 0.287111 0.894480 0.185993
O O10 0.329548 0.727918 0.247778
O O11 0.717566 0.910864 0.696016
O O12 0.725420 0.882734 0.777530
O O13 0.506077 0.356432 0.699272
O O14 0.461046 0.538038 0.630768
O O15 0.394362 0.394362 0.500000
#
# Coordination Sequence:
#
# PCOD9576214 Si02
#       7
#     6   6   6   6   6   6   6
#     4  11  21  37  60  87 113 146 186 229 284 341
#     4  10  21  35  55  80 112 145 184 234 279 333
#     4  10  20  35  55  83 111 147 188 234 287 330
#     4   9  20  37  58  81 113 149 186 230 279 343
#     4   9  21  41  57  78 108 150 190 226 281 331
#     4   9  17  36  57  76 112 153 184 226 287 343
#     4  10  22  39  60  79 112 152 189 233 277 337
#
# _framework density 19.957787
#
# number of rings (size 3 to 8) (size 9 to 14) (size 15 to 20)
#    0.000    2.286    0.000    5.143    0.000    5.714 
#    0.000   10.000    0.000    0.000    0.000    0.000 
#    0.000    0.000    0.000    0.000    0.000    0.000 
#
# Total GULP energy -234144.930447 kJ/mol
# GULP energy per Si atom -5574.879296 kJ/mol
# Density = 1.991236 g / cm^3
# Si number density = 19.957787 Si / 1000 Ang^3
#
#
#
# Elastic Constant Matrix: (Units=GPa)
#
#
# Indices 1 2 3 4 5 6 
#
# 1 87.9368 26.4501 -5.2442 4.9783 0.0000 0.0000
# 2 26.4501 87.9368 -5.2442 -4.9783 0.0000 0.0000
# 3 -5.2442 -5.2442 21.0681 0.0000 0.0000 0.0000
# 4 4.9783 -4.9783 0.0000 15.4682 0.0000 0.0000
# 5 0.0000 0.0000 0.0000 0.0000 15.4682 4.9783
# 6 0.0000 0.0000 0.0000 0.0000 4.9783 30.7434
#
#
#
# Elastic Compliance Matrix: (Units=1/GPa)
#
#
# Indices 1 2 3 4 5 6 
#
# 1 0.013052 -0.004106 0.002227 -0.005522 0.000000 0.000000
# 2 -0.004106 0.013052 0.002227 0.005522 0.000000 0.000000
# 3 0.002227 0.002227 0.048574 0.000000 0.000000 0.000000
# 4 -0.005522 0.005522 0.000000 0.068203 0.000000 0.000000
# 5 0.000000 0.000000 0.000000 0.000000 0.068203 -0.011044
# 6 0.000000 0.000000 0.000000 0.000000 -0.011044 0.034316
#
#
# Mechanical properties :
#
#
# Convention : Reuss Voigt Hill
#
# Bulk Modulus (GPa) = 13.26713 25.42948 19.34831
# Shear Modulus (GPa) = 18.53025 24.40128 21.46576
#
# Velocity S-wave (km/s) = 3.05039 3.50043 3.28313
# Velocity P-wave (km/s) = 4.36675 5.39505 4.90791
#
# Compressibility (1/GPa) = 0.07537423
#
# Stress axis : x y z
#
# Youngs Moduli (GPa) = 76.61573 76.61573 20.58726
#
# Poissons Ratio (x) = 0.31456 -0.04585
# Poissons Ratio (y) = 0.31456 -0.04585
# Poissons Ratio (z) = -0.17062 -0.17062
#
# Static dielectric constant tensor:
#      x y z
#    x 1.700520 0.000000 0.000000 
#    y 0.000000 1.700520 0.000000 
#    z 0.000000 0.000000 1.776580 
# 
# From -- ./inp_files/3713.got.cif
#   From: 2010.05.17/outbox.ucp.g08.bks.cvg/sg152_2_cif.got.tgz:3713.got - 2010.06.11 15:13:12.
