data_PCOD9576954
_publ_section_title
;
Structure prediction by ZEFSAII (Michael W. Deem and Ramdas Pophale) SiO2 
 PCOD9576954
Probable space group: R 3 2
;
_chemical_formula_sum "Si O2"
_cell_formula_units_Z 72
_cell_length_a 24.191151
_cell_length_b 24.191151
_cell_length_c 8.043162
_cell_angle_alpha 90.000000
_cell_angle_beta 90.000000
_cell_angle_gamma 120.000000
_cell_volume 4076.341050
_symmetry_space_group_name_H-M "R 3 2"
_symmetry_group_IT_number 155
_symmetry_cell_setting 'hexagonal'
loop_
_space_group_symop_operation_xyz
x,y,z
-y,x-y,z
-x+y,-x,z
x-y,-y,-z
-x,-x+y,-z
y,x,-z
2/3+x,1/3+y,1/3+z
2/3-y,1/3+x-y,1/3+z
2/3-x+y,1/3-x,1/3+z
2/3+x-y,1/3-y,1/3-z
2/3-x,1/3-x+y,1/3-z
2/3+y,1/3+x,1/3-z
1/3+x,2/3+y,2/3+z
1/3-y,2/3+x-y,2/3+z
1/3-x+y,2/3-x,2/3+z
1/3+x-y,2/3-y,2/3-z
1/3-x,2/3-x+y,2/3-z
1/3+y,2/3+x,2/3-z
loop_
_atom_site_type_symbol
_atom_site_label
_atom_site_fract_x
_atom_site_fract_y
_atom_site_fract_z
Si Si1 0.751463 0.152913 0.189799
Si Si2 0.787435 0.052843 0.758925
Si Si3 0.525920 0.256791 0.053574
Si Si4 0.401696 0.588725 0.986566
O O1 0.813328 0.146662 0.166667
O O2 0.691018 0.103127 0.076302
O O3 0.732660 0.130628 0.378499
O O4 0.760870 0.221292 0.145006
O O5 0.754878 0.088211 0.666667
O O6 0.859533 0.074542 0.704027
O O7 0.550425 0.207694 0.092247
O O8 0.572064 0.332376 0.085176
O O9 0.522525 0.258695 0.852564
#
# Coordination Sequence:
#
# PCOD9576954 Si02
#       4
#    18  18  18  18
#     4  10  21  33  49  75 103 137 173 214 260 312
#     4  10  21  33  50  74 104 137 173 213 263 309
#     4   9  17  31  51  76 105 135 172 207 253 305
#     4   9  17  31  51  76 104 137 169 208 253 307
#
# _framework density 17.662897999999998
#
# number of rings (size 3 to 8) (size 9 to 14) (size 15 to 20)
#    0.000    2.500    0.000    2.000    3.500    5.000 
#    0.000    0.000    0.000    3.000   13.000    0.000 
#    0.000    0.000    0.000    0.000    0.000    0.000 
#
# Total GULP energy -133604.931433 kJ/mol
# GULP energy per Si atom -5566.872143 kJ/mol
# Density = 1.762270 g / cm^3
# Si number density = 17.662898 Si / 1000 Ang^3
#
#
#
# Elastic Constant Matrix: (Units=GPa)
#
#
# Indices 1 2 3 4 5 6 
#
# 1 117.8305 84.7996 33.7655 -2.1087 0.0147 -0.0018
# 2 84.7996 117.8238 33.7395 2.1089 -0.0004 0.0004
# 3 33.7655 33.7395 31.2321 0.0016 0.0474 -0.0022
# 4 -2.1087 2.1089 0.0016 21.8042 0.0037 -0.0008
# 5 0.0147 -0.0004 0.0474 0.0037 21.8307 -2.1090
# 6 -0.0018 0.0004 -0.0022 -0.0008 -2.1090 16.5109
#
#
#
# Elastic Compliance Matrix: (Units=1/GPa)
#
#
# Indices 1 2 3 4 5 6 
#
# 1 0.019190 -0.011472 -0.008353 0.002966 0.000005 0.000002
# 2 -0.011472 0.019178 -0.008315 -0.002964 0.000027 0.000000
# 3 -0.008353 -0.008315 0.050032 -0.000007 -0.000104 -0.000007
# 4 0.002966 -0.002964 -0.000007 0.046436 -0.000010 0.000001
# 5 0.000005 0.000027 -0.000104 -0.000010 0.046380 0.005924
# 6 0.000002 0.000000 -0.000007 0.000001 0.005924 0.061323
#
#
# Mechanical properties :
#
#
# Convention : Reuss Voigt Hill
#
# Bulk Modulus (GPa) = 31.13432 63.49950 47.31691
# Shear Modulus (GPa) = 16.15377 19.66795 17.91086
#
# Velocity S-wave (km/s) = 3.02745 3.34056 3.18785
# Velocity P-wave (km/s) = 5.46679 7.13498 6.35586
#
# Compressibility (1/GPa) = 0.03211890
#
# Stress axis : x y z
#
# Youngs Moduli (GPa) = 52.11070 52.14285 19.98738
#
# Poissons Ratio (x) = 0.59820 0.16696
# Poissons Ratio (y) = 0.59783 0.16619
# Poissons Ratio (z) = 0.43529 0.43355
#
# Static dielectric constant tensor:
#      x y z
#    x 1.612810 0.000000 0.000000 
#    y 0.000000 1.612810 0.000000 
#    z 0.000000 0.000000 1.691560 
# 
# From -- ./inp_files/2103.got.cif
#   From: 2010.05.17/outbox.cif.g08.bks.cpg/sg155_2_cif.got.tgz:2103.got - 2010.05.20 10:44:35.
