data_PCOD9576799
_publ_section_title
;
Structure prediction by ZEFSAII (Michael W. Deem and Ramdas Pophale) SiO2 
 PCOD9576799
Probable space group: R 3 2
;
_chemical_formula_sum "Si O2"
_cell_formula_units_Z 45
_cell_length_a 14.735639
_cell_length_b 14.735639
_cell_length_c 9.996991
_cell_angle_alpha 90.000000
_cell_angle_beta 90.000000
_cell_angle_gamma 120.000000
_cell_volume 1879.913557
_symmetry_space_group_name_H-M "R 3 2"
_symmetry_group_IT_number 155
_symmetry_cell_setting 'hexagonal'
loop_
_space_group_symop_operation_xyz
x,y,z
-y,x-y,z
-x+y,-x,z
x-y,-y,-z
-x,-x+y,-z
y,x,-z
2/3+x,1/3+y,1/3+z
2/3-y,1/3+x-y,1/3+z
2/3-x+y,1/3-x,1/3+z
2/3+x-y,1/3-y,1/3-z
2/3-x,1/3-x+y,1/3-z
2/3+y,1/3+x,1/3-z
1/3+x,2/3+y,2/3+z
1/3-y,2/3+x-y,2/3+z
1/3-x+y,2/3-x,2/3+z
1/3+x-y,2/3-y,2/3-z
1/3-x,2/3-x+y,2/3-z
1/3+y,2/3+x,2/3-z
loop_
_atom_site_type_symbol
_atom_site_label
_atom_site_fract_x
_atom_site_fract_y
_atom_site_fract_z
Si Si1 0.594670 0.544855 0.134157
Si Si2 0.214649 0.666667 0.166667
Si Si3 0.548378 0.058334 0.624426
O O1 0.640684 0.666667 0.166667
O O2 0.524301 0.494215 0.265397
O O3 0.703302 0.546555 0.102570
O O4 0.529126 0.529126 0.000000
O O5 0.236010 0.569344 0.166667
O O6 0.145078 0.647650 0.296310
O O7 0.563822 0.000000 0.500000
#
# Coordination Sequence:
#
# PCOD9576799 Si02
#       3
#    18   9  18
#     4   8  14  26  53  89 120 157 226 282 299 375
#     4  10  22  36  60 100 154 178 200 282 382 398
#     4  10  18  33  60  97 128 175 237 277 322 405
#
# _framework density 23.937272
#
# number of rings (size 3 to 8) (size 9 to 14) (size 15 to 20)
#    0.400    2.400    0.000    7.200    0.000    0.000 
#    0.000    0.000    0.000   24.000   15.600    0.000 
#   12.000    0.000    0.000    0.000    0.000    0.000 
#
# Total GULP energy -83600.041107 kJ/mol
# GULP energy per Si atom -5573.336074 kJ/mol
# Density = 2.388279 g / cm^3
# Si number density = 23.937272 Si / 1000 Ang^3
#
#
#
# Elastic Constant Matrix: (Units=GPa)
#
#
# Indices 1 2 3 4 5 6 
#
# 1 65.2123 58.4905 47.9537 -8.6054 0.0000 0.0000
# 2 58.4905 65.2123 47.9537 8.6054 0.0000 0.0000
# 3 47.9537 47.9537 207.9110 0.0000 0.0000 0.0000
# 4 -8.6054 8.6054 0.0000 30.3293 0.0000 0.0000
# 5 0.0000 0.0000 0.0000 0.0000 30.3293 -8.6054
# 6 0.0000 0.0000 0.0000 0.0000 -8.6054 3.3609
#
#
#
# Elastic Compliance Matrix: (Units=1/GPa)
#
#
# Indices 1 2 3 4 5 6 
#
# 1 0.276871 -0.267027 -0.002271 0.154322 0.000000 0.000000
# 2 -0.267027 0.276871 -0.002271 -0.154322 0.000000 0.000000
# 3 -0.002271 -0.002271 0.005857 0.000000 0.000000 0.000000
# 4 0.154322 -0.154322 0.000000 0.120544 0.000000 0.000000
# 5 0.000000 0.000000 0.000000 0.000000 0.120544 0.308644
# 6 0.000000 0.000000 0.000000 0.000000 0.308644 1.087797
#
#
# Mechanical properties :
#
#
# Convention : Reuss Voigt Hill
#
# Bulk Modulus (GPa) = 60.74045 71.90351 66.32198
# Shear Modulus (GPa) = 2.05161 25.06641 13.55901
#
# Velocity S-wave (km/s) = 0.92679 3.23951 2.38258
# Velocity P-wave (km/s) = 5.15511 6.64049 5.94438
#
# Compressibility (1/GPa) = 0.01646349
#
# Stress axis : x y z
#
# Youngs Moduli (GPa) = 3.61179 3.61179 170.73219
#
# Poissons Ratio (x) = 0.96444 0.38765
# Poissons Ratio (y) = 0.96444 0.38765
# Poissons Ratio (z) = 0.00820 0.00820
#
# Static dielectric constant tensor:
#      x y z
#    x 1.954400 0.000000 0.000000 
#    y 0.000000 1.954400 0.000000 
#    z 0.000000 0.000000 2.026070 
# 
# From -- ./inp_files/3359.got.cif
#   From: 2010.05.17/outbox.cif.g08.bks.cpg/sg155_2_cif.got.tgz:3359.got - 2010.05.20 10:44:35.
