data_PCOD9576341
_publ_section_title
;
Structure prediction by ZEFSAII (Michael W. Deem and Ramdas Pophale) SiO2 
 PCOD9576341
Probable space group: P 32 1 2
;
_chemical_formula_sum "Si O2"
_cell_formula_units_Z 36
_cell_length_a 8.659758
_cell_length_b 8.659758
_cell_length_c 24.971753
_cell_angle_alpha 90.000000
_cell_angle_beta 90.000000
_cell_angle_gamma 120.000000
_cell_volume 1621.777137
_symmetry_space_group_name_H-M "P 32 1 2"
_symmetry_group_IT_number 153
_symmetry_cell_setting 'hexagonal'
loop_
_space_group_symop_operation_xyz
x,y,z
-y,x-y,2/3+z
-x+y,-x,1/3+z
-y,-x,1/3-z
-x+y,y,2/3-z
x,x-y,-z
loop_
_atom_site_type_symbol
_atom_site_label
_atom_site_fract_x
_atom_site_fract_y
_atom_site_fract_z
Si Si1 0.176421 0.202011 0.594520
Si Si2 0.716548 0.674857 0.002749
Si Si3 0.983245 0.688888 0.196005
Si Si4 0.524746 0.678108 0.836238
Si Si5 0.349443 0.338300 0.987591
Si Si6 0.198234 0.186805 0.221252
O O1 0.255268 0.354459 0.549974
O O2 0.041686 0.008073 0.566919
O O3 0.877670 0.170500 0.499267
O O4 0.084231 0.264121 0.639584
O O5 0.508029 0.538086 0.996235
O O6 0.789589 0.675215 0.062141
O O7 0.847606 0.673407 0.957647
O O8 0.748561 0.874281 0.000000
O O9 0.009434 0.709227 0.259390
O O10 0.994545 0.513932 0.182458
O O11 0.180958 0.361649 0.215126
O O12 0.338735 0.677469 0.833334
O O13 0.440237 0.220119 0.000000
O O14 0.152462 0.847539 0.166667
#
# Coordination Sequence:
#
# PCOD9576341 Si02
#       6
#     6   6   6   6   6   6
#     4  11  23  42  67  91 129 175 217 269 336 406
#     4  10  23  43  65  93 127 171 218 268 331 401
#     4  11  23  40  64  93 125 166 215 264 323 396
#     4  11  24  42  65  97 130 171 223 279 336 400
#     4  12  24  41  65  97 130 168 217 273 332 401
#     4  11  22  42  67  93 130 175 220 271 335 406
#
# _framework density 22.197870999999999
#
# number of rings (size 3 to 8) (size 9 to 14) (size 15 to 20)
#    0.000    1.000    0.000    9.000    0.000    2.667 
#    0.000    7.500    0.000    0.000    0.000    0.000 
#    0.000    0.000    0.000    0.000    0.000    0.000 
#
# Total GULP energy -201003.682462 kJ/mol
# GULP energy per Si atom -5583.435624 kJ/mol
# Density = 2.214735 g / cm^3
# Si number density = 22.197871 Si / 1000 Ang^3
#
#
#
# Elastic Constant Matrix: (Units=GPa)
#
#
# Indices 1 2 3 4 5 6 
#
# 1 82.2490 19.1264 22.0284 0.0003 -0.5191 0.0000
# 2 19.1264 82.2490 22.0284 -0.0003 0.5191 0.0000
# 3 22.0284 22.0284 129.3953 0.0000 0.0000 0.0000
# 4 0.0003 -0.0003 0.0000 30.5133 0.0000 0.5191
# 5 -0.5191 0.5191 0.0000 0.0000 30.5133 0.0003
# 6 0.0000 0.0000 0.0000 0.5191 0.0003 31.5613
#
#
#
# Elastic Compliance Matrix: (Units=1/GPa)
#
#
# Indices 1 2 3 4 5 6 
#
# 1 0.013250 -0.002597 -0.001813 0.000000 0.000270 0.000000
# 2 -0.002597 0.013250 -0.001813 0.000000 -0.000270 0.000000
# 3 -0.001813 -0.001813 0.008346 0.000000 0.000000 0.000000
# 4 0.000000 0.000000 0.000000 0.032782 0.000000 -0.000539
# 5 0.000270 -0.000270 0.000000 0.000000 0.032782 0.000000
# 6 0.000000 0.000000 0.000000 -0.000539 0.000000 0.031693
#
#
# Mechanical properties :
#
#
# Convention : Reuss Voigt Hill
#
# Bulk Modulus (GPa) = 44.64949 46.69554 45.67251
# Shear Modulus (GPa) = 32.89144 33.89825 33.39485
#
# Velocity S-wave (km/s) = 3.85351 3.91205 3.88289
# Velocity P-wave (km/s) = 6.32119 6.44105 6.38140
#
# Compressibility (1/GPa) = 0.02239667
#
# Stress axis : x y z
#
# Youngs Moduli (GPa) = 75.47431 75.47431 119.82199
#
# Poissons Ratio (x) = 0.19601 0.21730
# Poissons Ratio (y) = 0.19601 0.21730
# Poissons Ratio (z) = 0.13687 0.13687
#
# Static dielectric constant tensor:
#      x y z
#    x 1.844540 0.000000 0.000000 
#    y 0.000000 1.844540 0.000000 
#    z 0.000000 0.000000 1.812460 
# 
# From -- ./inp_files/4758.got.cif
#   From: 2010.05.17/outbox.cif.g08.bks.cpg/sg153_3_cif.got.tgz:4758.got - 2010.05.20 10:38:56.
