data_PCOD9576051
_publ_section_title
;
Structure prediction by ZEFSAII (Michael W. Deem and Ramdas Pophale) SiO2 
 PCOD9576051
Probable space group: P 31 2 1
;
_chemical_formula_sum "Si O2"
_cell_formula_units_Z 36
_cell_length_a 7.775651
_cell_length_b 7.775651
_cell_length_c 27.967236
_cell_angle_alpha 90.000000
_cell_angle_beta 90.000000
_cell_angle_gamma 120.000000
_cell_volume 1464.379694
_symmetry_space_group_name_H-M "P 31 2 1"
_symmetry_group_IT_number 152
_symmetry_cell_setting 'hexagonal'
loop_
_space_group_symop_operation_xyz
x,y,z
-y,x-y,1/3+z
-x+y,-x,2/3+z
x-y,-y,2/3-z
-x,-x+y,1/3-z
y,x,-z
loop_
_atom_site_type_symbol
_atom_site_label
_atom_site_fract_x
_atom_site_fract_y
_atom_site_fract_z
Si Si1 0.267761 0.564828 0.903804
Si Si2 0.519626 0.131571 0.197262
Si Si3 0.982658 0.814364 0.716086
Si Si4 0.686166 0.309979 0.289693
Si Si5 0.897461 0.576265 0.035344
Si Si6 0.087832 0.962255 0.216489
O O1 0.439015 0.519507 0.883756
O O2 0.161028 0.581206 0.857337
O O3 0.137840 0.370806 0.936526
O O4 0.374375 0.764789 0.934114
O O5 0.660643 0.308217 0.232588
O O6 0.308698 0.119105 0.202453
O O7 0.132012 0.733304 0.704740
O O8 0.000000 0.928390 0.666667
O O9 0.047317 0.953684 0.762429
O O10 0.487814 0.260892 0.319103
O O11 0.877562 0.510484 0.305997
O O12 0.905181 0.740778 0.071753
O O13 0.000000 0.845722 0.166667
#
# Coordination Sequence:
#
# PCOD9576051 Si02
#       6
#     6   6   6   6   6   6
#     4  10  22  44  68  95 138 177 225 286 348 422
#     4  10  24  41  67  99 137 178 229 285 349 425
#     4  11  23  44  70 100 136 182 233 292 355 429
#     4  11  27  44  65 103 137 185 237 295 361 428
#     4  11  27  45  68  99 141 185 235 298 361 425
#     4  11  25  44  72 102 137 188 239 291 366 441
#
# _framework density 24.58379
#
# number of rings (size 3 to 8) (size 9 to 14) (size 15 to 20)
#    0.000    1.333    3.333    0.000    9.333    2.667 
#    0.000    0.000    0.000    0.000    0.000    0.000 
#    0.000    0.000    0.000    0.000    0.000    0.000 
#
# Total GULP energy -201141.777013 kJ/mol
# GULP energy per Si atom -5587.271584 kJ/mol
# Density = 2.452784 g / cm^3
# Si number density = 24.583790 Si / 1000 Ang^3
#
#
#
# Elastic Constant Matrix: (Units=GPa)
#
#
# Indices 1 2 3 4 5 6 
#
# 1 59.7795 6.0189 17.8139 5.7237 0.0001 0.0000
# 2 6.0189 59.7795 17.8139 -5.7237 -0.0001 0.0000
# 3 17.8139 17.8139 140.7713 0.0000 0.0000 0.0000
# 4 5.7237 -5.7237 0.0000 40.6817 0.0000 -0.0001
# 5 0.0001 -0.0001 0.0000 0.0000 40.6817 5.7237
# 6 0.0000 0.0000 0.0000 -0.0001 5.7237 26.8803
#
#
#
# Elastic Compliance Matrix: (Units=1/GPa)
#
#
# Indices 1 2 3 4 5 6 
#
# 1 0.017746 -0.001430 -0.002065 -0.002698 0.000000 0.000000
# 2 -0.001430 0.017746 -0.002065 0.002698 0.000000 0.000000
# 3 -0.002065 -0.002065 0.007626 0.000000 0.000000 0.000000
# 4 -0.002698 0.002698 0.000000 0.025340 0.000000 0.000000
# 5 0.000000 0.000000 0.000000 0.000000 0.025340 -0.005396
# 6 0.000000 0.000000 0.000000 0.000000 -0.005396 0.038351
#
#
# Mechanical properties :
#
#
# Convention : Reuss Voigt Hill
#
# Bulk Modulus (GPa) = 31.25068 38.18042 34.71555
# Shear Modulus (GPa) = 32.48151 36.22766 34.35459
#
# Velocity S-wave (km/s) = 3.63885 3.84297 3.74230
# Velocity P-wave (km/s) = 5.51312 5.93765 5.72932
#
# Compressibility (1/GPa) = 0.03199930
#
# Stress axis : x y z
#
# Youngs Moduli (GPa) = 56.35177 56.35177 131.12563
#
# Poissons Ratio (x) = 0.08057 0.27073
# Poissons Ratio (y) = 0.08057 0.27073
# Poissons Ratio (z) = 0.11635 0.11635
#
# Static dielectric constant tensor:
#      x y z
#    x 1.997190 0.000000 0.000000 
#    y 0.000000 1.997190 0.000000 
#    z 0.000000 0.000000 2.070190 
# 
# From -- ./inp_files/3379.got.cif
#   From: 2010.05.17/outbox.cif.g08.bks.cpg/sg152_2_cif.got.tgz:3379.got - 2010.05.20 10:36:06.
