data_PCOD9576349
_publ_section_title
;
Structure prediction by ZEFSAII (Michael W. Deem and Ramdas Pophale) SiO2 
 PCOD9576349
Probable space group: P 32 1 2
;
_chemical_formula_sum "Si O2"
_cell_formula_units_Z 18
_cell_length_a 7.880353
_cell_length_b 7.880353
_cell_length_c 12.944191
_cell_angle_alpha 90.000000
_cell_angle_beta 90.000000
_cell_angle_gamma 120.000000
_cell_volume 696.140480
_symmetry_space_group_name_H-M "P 32 1 2"
_symmetry_group_IT_number 153
_symmetry_cell_setting 'hexagonal'
loop_
_space_group_symop_operation_xyz
x,y,z
-y,x-y,2/3+z
-x+y,-x,1/3+z
-y,-x,1/3-z
-x+y,y,2/3-z
x,x-y,-z
loop_
_atom_site_type_symbol
_atom_site_label
_atom_site_fract_x
_atom_site_fract_y
_atom_site_fract_z
Si Si1 0.434871 0.406023 0.354757
Si Si2 0.045132 0.090263 0.333334
Si Si3 0.634008 0.268016 0.833334
Si Si4 0.247831 0.834861 0.286026
O O1 0.223319 0.256438 0.403376
O O2 0.598039 0.422707 0.433340
O O3 0.462610 0.320958 0.247083
O O4 0.492319 0.624735 0.324919
O O5 0.130110 0.951245 0.299978
O O6 0.228547 0.771454 0.166667
O O7 0.467731 0.935462 0.333334
#
# Coordination Sequence:
#
# PCOD9576349 Si02
#       4
#     6   3   3   6
#     4  11  25  50  79 113 164 208 265 334 398 474
#     4  12  28  48  82 118 154 218 258 322 404 472
#     4  10  24  46  80 118 154 212 270 326 398 480
#     4  12  30  52  78 120 162 208 271 332 395 483
#
# _framework density 25.856847999999999
#
# number of rings (size 3 to 8) (size 9 to 14) (size 15 to 20)
#    0.000    0.667    1.667    4.000   14.000    0.000 
#    0.000    0.000    0.000    0.000    0.000    0.000 
#    0.000    0.000    0.000    0.000    0.000    0.000 
#
# Total GULP energy -100650.833533 kJ/mol
# GULP energy per Si atom -5591.712974 kJ/mol
# Density = 2.579800 g / cm^3
# Si number density = 25.856848 Si / 1000 Ang^3
#
#
#
# Elastic Constant Matrix: (Units=GPa)
#
#
# Indices 1 2 3 4 5 6 
#
# 1 175.2346 79.1828 36.7323 -0.0002 6.7077 0.0000
# 2 79.1828 175.2346 36.7323 0.0002 -6.7077 0.0000
# 3 36.7323 36.7323 91.3848 0.0000 0.0000 0.0000
# 4 -0.0002 0.0002 0.0000 14.4860 0.0000 -6.7077
# 5 6.7077 -6.7077 0.0000 0.0000 14.4860 -0.0002
# 6 0.0000 0.0000 0.0000 -6.7077 -0.0002 48.0259
#
#
#
# Elastic Compliance Matrix: (Units=1/GPa)
#
#
# Indices 1 2 3 4 5 6 
#
# 1 0.007789 -0.003342 -0.001787 0.000000 -0.005154 0.000000
# 2 -0.003342 0.007789 -0.001787 0.000000 0.005154 0.000000
# 3 -0.001787 -0.001787 0.012380 0.000000 0.000000 0.000000
# 4 0.000000 0.000000 0.000000 0.073805 0.000000 0.010308
# 5 -0.005154 0.005154 0.000000 0.000000 0.073805 0.000000
# 6 0.000000 0.000000 0.000000 0.010308 0.000000 0.022262
#
#
# Mechanical properties :
#
#
# Convention : Reuss Voigt Hill
#
# Bulk Modulus (GPa) = 70.80381 83.01653 76.91017
# Shear Modulus (GPa) = 23.10845 34.68003 28.89424
#
# Velocity S-wave (km/s) = 2.99274 3.66626 3.34648
# Velocity P-wave (km/s) = 6.27570 7.07798 6.68888
#
# Compressibility (1/GPa) = 0.01412353
#
# Stress axis : x y z
#
# Youngs Moduli (GPa) = 128.38971 128.38971 80.77819
#
# Poissons Ratio (x) = 0.42910 0.14438
# Poissons Ratio (y) = 0.42910 0.14438
# Poissons Ratio (z) = 0.22948 0.22948
#
# Static dielectric constant tensor:
#      x y z
#    x 2.129200 0.000000 0.000000 
#    y 0.000000 2.129200 0.000000 
#    z 0.000000 0.000000 2.073700 
# 
# From -- ./inp_files/2221.got.cif
#   From: 2010.05.17/outbox.cif.g08.bks.cpg/sg153_2_cif.got.tgz:2221.got - 2010.05.20 10:38:56.
