data_PCOD9576957
_publ_section_title
;
Structure prediction by ZEFSAII (Michael W. Deem and Ramdas Pophale) SiO2 
 PCOD9576957
Probable space group: R 3 2
;
_chemical_formula_sum "Si O2"
_cell_formula_units_Z 60
_cell_length_a 20.404427
_cell_length_b 20.404427
_cell_length_c 7.200213
_cell_angle_alpha 90.000000
_cell_angle_beta 90.000000
_cell_angle_gamma 120.000000
_cell_volume 2596.120117
_symmetry_space_group_name_H-M "R 3 2"
_symmetry_group_IT_number 155
_symmetry_cell_setting 'hexagonal'
loop_
_space_group_symop_operation_xyz
x,y,z
-y,x-y,z
-x+y,-x,z
x-y,-y,-z
-x,-x+y,-z
y,x,-z
2/3+x,1/3+y,1/3+z
2/3-y,1/3+x-y,1/3+z
2/3-x+y,1/3-x,1/3+z
2/3+x-y,1/3-y,1/3-z
2/3-x,1/3-x+y,1/3-z
2/3+y,1/3+x,1/3-z
1/3+x,2/3+y,2/3+z
1/3-y,2/3+x-y,2/3+z
1/3-x+y,2/3-x,2/3+z
1/3+x-y,2/3-y,2/3-z
1/3-x,2/3-x+y,2/3-z
1/3+y,2/3+x,2/3-z
loop_
_atom_site_type_symbol
_atom_site_label
_atom_site_fract_x
_atom_site_fract_y
_atom_site_fract_z
Si Si1 0.754629 0.174530 0.095666
Si Si2 0.333334 0.666668 0.942830
Si Si3 0.008398 0.155451 0.274907
Si Si4 0.085454 0.588471 0.985149
O O1 0.792888 0.126221 0.166667
O O2 0.805936 0.262969 0.146619
O O3 0.664707 0.132599 0.132319
O O4 0.745640 0.178304 0.871846
O O5 0.349733 0.749375 0.888793
O O6 0.333334 0.666668 0.166667
O O7 0.000000 0.154195 0.500000
O O8 0.088913 0.229714 0.235683
O O9 0.000000 0.568633 0.000000
#
# Coordination Sequence:
#
# PCOD9576957 Si02
#       4
#    18   6  18  18
#     4  10  21  35  57  87 118 152 194 243 292 345
#     4   9  12  24  54  84 103 125 178 240 283 338
#     4   9  16  32  55  85 112 141 189 239 289 343
#     4  10  21  35  56  85 118 156 194 237 291 353
#
# _framework density 23.111411
#
# number of rings (size 3 to 8) (size 9 to 14) (size 15 to 20)
#    0.000    2.400    3.000    0.000    4.200    0.000 
#    0.000    6.000    0.000    0.000    0.000    0.000 
#    0.000    0.000    0.000    0.000    0.000    0.000 
#
# Total GULP energy -111340.712694 kJ/mol
# GULP energy per Si atom -5567.035635 kJ/mol
# Density = 2.305881 g / cm^3
# Si number density = 23.111411 Si / 1000 Ang^3
#
#
#
# Elastic Constant Matrix: (Units=GPa)
#
#
# Indices 1 2 3 4 5 6 
#
# 1 46.3196 115.6727 8.7792 74.1483 0.0119 0.2017
# 2 115.6727 45.9231 7.8262 -74.4725 0.5654 -0.7858
# 3 8.7792 7.8262 113.2084 -0.7176 0.6603 -0.7807
# 4 74.1483 -74.4725 -0.7176 -89.6101 0.6378 -0.9386
# 5 0.0119 0.5654 0.6603 0.6378 -89.9796 75.3553
# 6 0.2017 -0.7858 -0.7807 -0.9386 75.3553 -36.2971
#
#
#
# Elastic Compliance Matrix: (Units=1/GPa)
#
#
# Indices 1 2 3 4 5 6 
#
# 1 0.012432 -0.006198 -0.000438 0.015441 0.000118 0.000059
# 2 -0.006198 0.012420 -0.000476 -0.015446 -0.000072 -0.000044
# 3 -0.000438 -0.000476 0.008900 -0.000038 0.000123 0.000073
# 4 0.015441 -0.015446 -0.000038 0.014455 -0.000063 -0.000084
# 5 0.000118 -0.000072 0.000123 -0.000063 0.015045 0.031235
# 6 0.000059 -0.000044 0.000073 -0.000084 0.031235 0.037297
#
#
# Mechanical properties :
#
#
# Convention : Reuss Voigt Hill
#
# Bulk Modulus (GPa) = 51.21035 52.22304 51.71669
# Shear Modulus (GPa) = 41.22685 -38.29916 1.46385
#
# Velocity S-wave (km/s) = 4.22812 -4.07523 0.79672
# Velocity P-wave (km/s) = 6.78544 0.70846 4.82411
#
# Compressibility (1/GPa) = 0.01952730
#
# Stress axis : x y z
#
# Youngs Moduli (GPa) = 80.44007 80.51829 112.36377
#
# Poissons Ratio (x) = 0.49906 0.04921
# Poissons Ratio (y) = 0.49857 0.05345
# Poissons Ratio (z) = 0.03523 0.03830
#
# Static dielectric constant tensor:
#      x y z
#    x 2.766190 0.009220 0.000020 
#    y 0.009220 2.776430 -0.000480 
#    z 0.000020 -0.000480 1.923700 
# 
# From -- ./inp_files/2037.got.cif
#   From: 2010.05.17/outbox.cif.g08.bks.cpg/sg155_2_cif.got.tgz:2037.got - 2010.05.20 10:44:35.
