data_PCOD9576027
_publ_section_title
;
Structure prediction by ZEFSAII (Michael W. Deem and Ramdas Pophale) SiO2 
 PCOD9576027
Probable space group: P 31 2 1
;
_chemical_formula_sum "Si O2"
_cell_formula_units_Z 24
_cell_length_a 8.537021
_cell_length_b 8.537021
_cell_length_c 18.549439
_cell_angle_alpha 90.000000
_cell_angle_beta 90.000000
_cell_angle_gamma 120.000000
_cell_volume 1170.776808
_symmetry_space_group_name_H-M "P 31 2 1"
_symmetry_group_IT_number 152
_symmetry_cell_setting 'hexagonal'
loop_
_space_group_symop_operation_xyz
x,y,z
-y,x-y,1/3+z
-x+y,-x,2/3+z
x-y,-y,2/3-z
-x,-x+y,1/3-z
y,x,-z
loop_
_atom_site_type_symbol
_atom_site_label
_atom_site_fract_x
_atom_site_fract_y
_atom_site_fract_z
Si Si1 0.027223 0.786754 0.775161
Si Si2 0.649238 0.799050 0.596520
Si Si3 0.115005 0.694623 0.300098
Si Si4 0.000000 0.501976 0.666667
Si Si5 0.847078 0.000000 0.833334
O O1 0.134111 0.793711 0.847906
O O2 0.967514 0.602291 0.733781
O O3 0.169904 0.955535 0.726588
O O4 0.882776 0.844848 0.800044
O O5 0.480867 0.603743 0.610239
O O6 0.648110 0.946830 0.648552
O O7 0.087720 0.787721 0.229396
O O8 0.302117 0.829267 0.340036
#
# Coordination Sequence:
#
# PCOD9576027 Si02
#       5
#     6   6   6   3   3
#     4  10  22  42  63  90 125 159 208 269 319 376
#     4  10  23  41  61  89 127 166 207 261 315 380
#     4  12  24  40  64  92 126 169 213 260 318 382
#     4  12  24  38  64  94 122 166 212 262 324 380
#     4  10  22  42  68  92 126 170 216 268 320 380
#
# _framework density 20.499210000000001
#
# number of rings (size 3 to 8) (size 9 to 14) (size 15 to 20)
#    0.000    1.500    0.000    7.500    0.000    6.000 
#    0.000    0.000    0.000    0.000    0.000    0.000 
#    0.000    0.000    0.000    0.000    0.000    0.000 
#
# Total GULP energy -134225.268008 kJ/mol
# GULP energy per Si atom -5592.719500 kJ/mol
# Density = 2.045255 g / cm^3
# Si number density = 20.499210 Si / 1000 Ang^3
#
#
#
# Elastic Constant Matrix: (Units=GPa)
#
#
# Indices 1 2 3 4 5 6 
#
# 1 88.7584 120.6339 57.2505 -9.3597 -0.0006 0.0000
# 2 120.6339 88.7584 57.2505 9.3597 0.0006 0.0000
# 3 57.2505 57.2505 82.5334 0.0000 0.0000 0.0000
# 4 -9.3597 9.3597 0.0000 25.1358 0.0000 0.0006
# 5 -0.0006 0.0006 0.0000 0.0000 25.1358 -9.3597
# 6 0.0000 0.0000 0.0000 0.0006 -9.3597 -15.9377
#
#
#
# Elastic Compliance Matrix: (Units=1/GPa)
#
#
# Indices 1 2 3 4 5 6 
#
# 1 -0.009024 0.016718 -0.005337 -0.009586 -0.000001 0.000000
# 2 0.016718 -0.009024 -0.005337 0.009586 0.000001 0.000000
# 3 -0.005337 -0.005337 0.019521 0.000000 0.000000 0.000000
# 4 -0.009586 0.009586 0.000000 0.032645 0.000000 0.000001
# 5 -0.000001 0.000001 0.000000 0.000000 0.032645 -0.019171
# 6 0.000000 0.000000 0.000000 0.000001 -0.019171 -0.051485
#
#
# Mechanical properties :
#
#
# Convention : Reuss Voigt Hill
#
# Bulk Modulus (GPa) = 73.74423 81.14667 77.44545
# Shear Modulus (GPa) = 648.55860 8.52778 328.54319
#
# Velocity S-wave (km/s) = 17.80643 2.04183 12.67356
# Velocity P-wave (km/s) = 21.41988 6.72532 15.87515
#
# Compressibility (1/GPa) = 0.01356038
#
# Stress axis : x y z
#
# Youngs Moduli (GPa) = -110.81303 -110.81303 51.22739
#
# Poissons Ratio (x) = 1.85262 0.27341
# Poissons Ratio (y) = 1.85262 0.27341
# Poissons Ratio (z) = -0.59144 -0.59144
#
# Static dielectric constant tensor:
#      x y z
#    x 1.713570 0.000000 0.000000 
#    y 0.000000 1.713570 0.000000 
#    z 0.000000 0.000000 1.749040 
# 
# From -- ./inp_files/2680.got.cif
#   From: 2010.05.17/outbox.cif.g08.bks.cpg/sg152_2_cif.got.tgz:2680.got - 2010.05.20 10:36:06.
