data_PCOD9576610
_publ_section_title
;
Structure prediction by ZEFSAII (Michael W. Deem and Ramdas Pophale) SiO2 
 PCOD9576610
Probable space group: P 32 2 1
;
_chemical_formula_sum "Si O2"
_cell_formula_units_Z 21
_cell_length_a 9.956091
_cell_length_b 9.956091
_cell_length_c 9.468505
_cell_angle_alpha 90.000000
_cell_angle_beta 90.000000
_cell_angle_gamma 120.000000
_cell_volume 812.811350
_symmetry_space_group_name_H-M "P 32 2 1"
_symmetry_group_IT_number 154
_symmetry_cell_setting 'hexagonal'
loop_
_space_group_symop_operation_xyz
x,y,z
-y,x-y,2/3+z
-x+y,-x,1/3+z
x-y,-y,1/3-z
-x,-x+y,2/3-z
y,x,-z
loop_
_atom_site_type_symbol
_atom_site_label
_atom_site_fract_x
_atom_site_fract_y
_atom_site_fract_z
Si Si1 0.548800 0.796249 0.911127
Si Si2 0.323738 0.521248 0.561123
Si Si3 0.269940 0.269940 0.000000
Si Si4 0.987653 0.322821 0.642567
O O1 0.366693 0.692108 0.879464
O O2 0.634525 0.706588 0.853638
O O3 0.615420 0.940007 0.800645
O O4 0.560699 0.843436 0.073672
O O5 0.493498 0.581804 0.623429
O O6 0.171447 0.409528 0.653027
O O7 0.105990 0.255530 0.963412
#
# Coordination Sequence:
#
# PCOD9576610 Si02
#       4
#     6   6   3   6
#     4  10  22  41  70 111 151 204 248 327 380 458
#     4  12  23  44  74 116 155 201 272 328 389 462
#     4   8  22  42  68 110 152 204 258 304 398 468
#     4  10  25  44  74 119 150 205 264 327 388 475
#
# _framework density 25.836252000000002
#
# number of rings (size 3 to 8) (size 9 to 14) (size 15 to 20)
#    1.714    0.000    2.857    0.857    8.000    1.143 
#    5.143    0.000    0.000    1.714   22.286    0.000 
#    0.000    0.000    0.000    0.000    0.000    0.000 
#
# Total GULP energy -117350.919431 kJ/mol
# GULP energy per Si atom -5588.139021 kJ/mol
# Density = 2.577745 g / cm^3
# Si number density = 25.836252 Si / 1000 Ang^3
#
#
#
# Elastic Constant Matrix: (Units=GPa)
#
#
# Indices 1 2 3 4 5 6 
#
# 1 134.9864 73.9456 45.1628 4.8525 0.0000 0.0000
# 2 73.9456 134.9864 45.1628 -4.8525 0.0000 0.0000
# 3 45.1628 45.1628 188.1946 0.0000 0.0000 0.0000
# 4 4.8525 -4.8525 0.0000 45.1594 0.0000 0.0000
# 5 0.0000 0.0000 0.0000 0.0000 45.1594 4.8525
# 6 0.0000 0.0000 0.0000 0.0000 4.8525 30.5204
#
#
#
# Elastic Compliance Matrix: (Units=1/GPa)
#
#
# Indices 1 2 3 4 5 6 
#
# 1 0.011004 -0.005663 -0.001282 -0.001791 0.000000 0.000000
# 2 -0.005663 0.011004 -0.001282 0.001791 0.000000 0.000000
# 3 -0.001282 -0.001282 0.005929 0.000000 0.000000 0.000000
# 4 -0.001791 0.001791 0.000000 0.022529 0.000000 0.000000
# 5 0.000000 0.000000 0.000000 0.000000 0.022529 -0.003582
# 6 0.000000 0.000000 0.000000 0.000000 -0.003582 0.033334
#
#
# Mechanical properties :
#
#
# Convention : Reuss Voigt Hill
#
# Bulk Modulus (GPa) = 87.08457 87.41219 87.24838
# Shear Modulus (GPa) = 39.49169 43.76092 41.62630
#
# Velocity S-wave (km/s) = 3.91389 4.12002 4.01828
# Velocity P-wave (km/s) = 7.36235 7.51927 7.44122
#
# Compressibility (1/GPa) = 0.01148309
#
# Stress axis : x y z
#
# Youngs Moduli (GPa) = 90.87801 90.87801 168.66983
#
# Poissons Ratio (x) = 0.51468 0.21616
# Poissons Ratio (y) = 0.51468 0.21616
# Poissons Ratio (z) = 0.11647 0.11647
#
# Static dielectric constant tensor:
#      x y z
#    x 2.037040 0.000000 0.000000 
#    y 0.000000 2.037040 0.000000 
#    z 0.000000 0.000000 2.174880 
# 
# From -- ./inp_files/904.got.cif
#   From: 2010.05.17/outbox.cif.g08.bks.cpg/sg154_1_cif.got.tgz:904.got - 2010.05.20 10:41:43.
