data_PCOD9576679
_publ_section_title
;
Structure prediction by ZEFSAII (Michael W. Deem and Ramdas Pophale) SiO2 
 PCOD9576679
Probable space group: P 32 2 1
;
_chemical_formula_sum "Si O2"
_cell_formula_units_Z 33
_cell_length_a 11.420632
_cell_length_b 11.420632
_cell_length_c 12.858237
_cell_angle_alpha 90.000000
_cell_angle_beta 90.000000
_cell_angle_gamma 120.000000
_cell_volume 1452.420378
_symmetry_space_group_name_H-M "P 32 2 1"
_symmetry_group_IT_number 154
_symmetry_cell_setting 'hexagonal'
loop_
_space_group_symop_operation_xyz
x,y,z
-y,x-y,2/3+z
-x+y,-x,1/3+z
x-y,-y,1/3-z
-x,-x+y,2/3-z
y,x,-z
loop_
_atom_site_type_symbol
_atom_site_label
_atom_site_fract_x
_atom_site_fract_y
_atom_site_fract_z
Si Si1 0.668073 0.842366 0.134837
Si Si2 0.000000 0.360440 0.833334
Si Si3 0.571196 0.150836 0.718093
Si Si4 0.192892 0.866685 0.550478
Si Si5 0.561575 0.363121 0.383551
Si Si6 0.896489 0.644646 0.535101
O O1 0.756725 0.772430 0.158852
O O2 0.524630 0.774205 0.194501
O O3 0.745856 0.000000 0.166667
O O4 0.657370 0.820286 0.009818
O O5 0.905443 0.397649 0.766077
O O6 0.898109 0.223397 0.892521
O O7 0.476800 0.164459 0.805729
O O8 0.663315 0.306666 0.676754
O O9 0.688476 0.131643 0.766066
O O10 0.471050 0.000000 0.666667
O O11 0.041800 0.770728 0.516874
O O12 0.452930 0.337644 0.295110
#
# Coordination Sequence:
#
# PCOD9576679 Si02
#       6
#     6   3   6   6   6   6
#     4  11  22  44  70 102 133 182 240 282 342 435
#     4  10  24  46  60 104 134 166 238 282 334 438
#     4  11  27  44  65 102 143 172 239 293 352 416
#     4  11  25  42  70 101 143 179 231 294 352 415
#     4  11  24  43  77  94 134 188 234 285 350 430
#     4  11  26  44  70  98 137 184 229 287 360 417
#
# _framework density 22.720697000000001
#
# number of rings (size 3 to 8) (size 9 to 14) (size 15 to 20)
#    0.000    1.091    4.545    0.000   14.000    0.000 
#    3.273    0.000    0.000    0.000    0.000    0.000 
#    0.000    0.000    0.000    0.000    0.000    0.000 
#
# Total GULP energy -183828.196881 kJ/mol
# GULP energy per Si atom -5570.551421 kJ/mol
# Density = 2.266898 g / cm^3
# Si number density = 22.720697 Si / 1000 Ang^3
#
#
#
# Elastic Constant Matrix: (Units=GPa)
#
#
# Indices 1 2 3 4 5 6 
#
# 1 157.3644 81.2458 18.2603 6.8767 0.0000 0.0000
# 2 81.2458 157.3644 18.2603 -6.8767 0.0000 0.0000
# 3 18.2603 18.2603 27.1857 0.0000 0.0000 0.0000
# 4 6.8767 -6.8767 0.0000 21.0078 0.0000 0.0000
# 5 0.0000 0.0000 0.0000 0.0000 21.0078 6.8767
# 6 0.0000 0.0000 0.0000 0.0000 6.8767 38.0593
#
#
#
# Elastic Compliance Matrix: (Units=1/GPa)
#
#
# Indices 1 2 3 4 5 6 
#
# 1 0.009317 -0.004646 -0.003138 -0.004571 0.000000 0.000000
# 2 -0.004646 0.009317 -0.003138 0.004571 0.000000 0.000000
# 3 -0.003138 -0.003138 0.040999 0.000000 0.000000 0.000000
# 4 -0.004571 0.004571 0.000000 0.050594 0.000000 0.000000
# 5 0.000000 0.000000 0.000000 0.000000 0.050594 -0.009142
# 6 0.000000 0.000000 0.000000 0.000000 -0.009142 0.027927
#
#
# Mechanical properties :
#
#
# Convention : Reuss Voigt Hill
#
# Bulk Modulus (GPa) = 26.46134 64.16082 45.31108
# Shear Modulus (GPa) = 22.40278 30.95820 26.68049
#
# Velocity S-wave (km/s) = 3.14348 3.69528 3.43050
# Velocity P-wave (km/s) = 4.98467 6.81961 5.97302
#
# Compressibility (1/GPa) = 0.03779098
#
# Stress axis : x y z
#
# Youngs Moduli (GPa) = 107.32827 107.32827 24.39089
#
# Poissons Ratio (x) = 0.49865 0.07653
# Poissons Ratio (y) = 0.49865 0.07653
# Poissons Ratio (z) = 0.33675 0.33675
#
# Static dielectric constant tensor:
#      x y z
#    x 1.931230 0.000000 0.000000 
#    y 0.000000 1.931230 0.000000 
#    z 0.000000 0.000000 1.949880 
# 
# From -- ./inp_files/1971.got.cif
#   From: 2010.05.17/outbox.cif.g08.bks.cpg/sg154_1_cif.got.tgz:1971.got - 2010.05.20 10:41:43.
