data_PCOD9576860
_publ_section_title
;
Structure prediction by ZEFSAII (Michael W. Deem and Ramdas Pophale) SiO2 
 PCOD9576860
Probable space group: R 3 2
;
_chemical_formula_sum "Si O2"
_cell_formula_units_Z 90
_cell_length_a 16.909353
_cell_length_b 16.909353
_cell_length_c 18.623828
_cell_angle_alpha 90.000000
_cell_angle_beta 90.000000
_cell_angle_gamma 120.000000
_cell_volume 4611.620541
_symmetry_space_group_name_H-M "R 3 2"
_symmetry_group_IT_number 155
_symmetry_cell_setting 'hexagonal'
loop_
_space_group_symop_operation_xyz
x,y,z
-y,x-y,z
-x+y,-x,z
x-y,-y,-z
-x,-x+y,-z
y,x,-z
2/3+x,1/3+y,1/3+z
2/3-y,1/3+x-y,1/3+z
2/3-x+y,1/3-x,1/3+z
2/3+x-y,1/3-y,1/3-z
2/3-x,1/3-x+y,1/3-z
2/3+y,1/3+x,1/3-z
1/3+x,2/3+y,2/3+z
1/3-y,2/3+x-y,2/3+z
1/3-x+y,2/3-x,2/3+z
1/3+x-y,2/3-y,2/3-z
1/3-x,2/3-x+y,2/3-z
1/3+y,2/3+x,2/3-z
loop_
_atom_site_type_symbol
_atom_site_label
_atom_site_fract_x
_atom_site_fract_y
_atom_site_fract_z
Si Si1 0.198247 0.825747 0.406649
Si Si2 0.499240 0.860171 0.592461
Si Si3 0.871355 0.592183 0.028014
Si Si4 0.349774 0.238427 0.868060
Si Si5 0.058590 0.227251 0.809502
O O1 0.215041 0.881708 0.333334
O O2 0.133480 0.719619 0.381373
O O3 0.144234 0.846341 0.468983
O O4 0.290958 0.847962 0.445620
O O5 0.472362 0.805695 0.666667
O O6 0.574957 0.845871 0.551621
O O7 0.417681 0.849941 0.542967
O O8 0.562184 0.967808 0.614791
O O9 0.782916 0.555457 0.076421
O O10 0.856440 0.596407 0.942825
O O11 0.369952 0.333334 0.833334
O O12 0.097565 0.333334 0.833334
#
# Coordination Sequence:
#
# PCOD9576860 Si02
#       5
#    18  18  18  18  18
#     4  12  22  35  61  94 121 161 216 255 301 376
#     4   9  16  33  62  88 112 151 204 253 306 357
#     4  10  19  36  60  87 114 157 205 254 302 353
#     4  11  17  32  63  91 108 142 213 274 283 333
#     4  10  22  39  56  86 133 169 190 249 331 381
#
# _framework density 19.515916000000001
#
# number of rings (size 3 to 8) (size 9 to 14) (size 15 to 20)
#    0.000    1.600    6.000    1.200    0.000    1.600 
#    1.200    8.000    0.000    0.000    0.000    1.400 
#    0.000    0.000    0.000    0.000    0.000    0.000 
#
# Total GULP energy -167097.171602 kJ/mol
# GULP energy per Si atom -5569.905720 kJ/mol
# Density = 1.947150 g / cm^3
# Si number density = 19.515916 Si / 1000 Ang^3
#
#
#
# Elastic Constant Matrix: (Units=GPa)
#
#
# Indices 1 2 3 4 5 6 
#
# 1 55.7749 25.0317 54.8328 5.7612 0.0002 0.0000
# 2 25.0317 55.7749 54.8328 -5.7612 -0.0002 0.0000
# 3 54.8328 54.8328 212.1585 0.0000 0.0000 0.0000
# 4 5.7612 -5.7612 0.0000 26.5268 0.0000 -0.0002
# 5 0.0002 -0.0002 0.0000 0.0000 26.5268 5.7612
# 6 0.0000 0.0000 0.0000 -0.0002 5.7612 15.3716
#
#
#
# Elastic Compliance Matrix: (Units=1/GPa)
#
#
# Indices 1 2 3 4 5 6 
#
# 1 0.027235 -0.008175 -0.004926 -0.007690 0.000000 0.000000
# 2 -0.008175 0.027235 -0.004926 0.007690 0.000000 0.000000
# 3 -0.004926 -0.004926 0.007260 0.000000 0.000000 0.000000
# 4 -0.007690 0.007690 0.000000 0.041038 0.000000 0.000000
# 5 0.000000 0.000000 0.000000 0.000000 0.041038 -0.015381
# 6 0.000000 0.000000 0.000000 0.000000 -0.015381 0.070820
#
#
# Mechanical properties :
#
#
# Convention : Reuss Voigt Hill
#
# Bulk Modulus (GPa) = 38.94624 65.90033 52.42328
# Shear Modulus (GPa) = 19.28713 26.28578 22.78645
#
# Velocity S-wave (km/s) = 3.14710 3.67398 3.42070
# Velocity P-wave (km/s) = 5.76239 7.19988 6.52087
#
# Compressibility (1/GPa) = 0.02567642
#
# Stress axis : x y z
#
# Youngs Moduli (GPa) = 36.71687 36.71687 137.74296
#
# Poissons Ratio (x) = 0.30014 0.67857
# Poissons Ratio (y) = 0.30014 0.67857
# Poissons Ratio (z) = 0.18088 0.18088
#
# Static dielectric constant tensor:
#      x y z
#    x 1.730050 0.000000 0.000000 
#    y 0.000000 1.730050 0.000000 
#    z 0.000000 0.000000 1.754190 
# 
# From -- ./inp_files/6122.got.cif
#   From: 2010.05.17/outbox.cif.g08.bks.cpg/sg155_4_cif.got.tgz:6122.got - 2010.05.20 10:44:35.
