data_PCOD9576409
_publ_section_title
;
Structure prediction by ZEFSAII (Michael W. Deem and Ramdas Pophale) SiO2 
 PCOD9576409
Probable space group: P 32 2 1
;
_chemical_formula_sum "Si O2"
_cell_formula_units_Z 21
_cell_length_a 7.273173
_cell_length_b 7.273173
_cell_length_c 16.978765
_cell_angle_alpha 90.000000
_cell_angle_beta 90.000000
_cell_angle_gamma 120.000000
_cell_volume 777.829777
_symmetry_space_group_name_H-M "P 32 2 1"
_symmetry_group_IT_number 154
_symmetry_cell_setting 'hexagonal'
loop_
_space_group_symop_operation_xyz
x,y,z
-y,x-y,2/3+z
-x+y,-x,1/3+z
x-y,-y,1/3-z
-x,-x+y,2/3-z
y,x,-z
loop_
_atom_site_type_symbol
_atom_site_label
_atom_site_fract_x
_atom_site_fract_y
_atom_site_fract_z
Si Si1 0.270736 0.033322 0.981435
Si Si2 0.752240 0.000000 0.166667
Si Si3 0.976273 0.384269 0.424995
Si Si4 0.315663 0.409908 0.771308
O O1 0.498828 0.100115 0.945673
O O2 0.099815 0.890742 0.913482
O O3 0.244288 0.901137 0.060538
O O4 0.581730 0.581730 0.000000
O O5 0.800193 0.226749 0.203382
O O6 0.801963 0.136903 0.435872
O O7 0.000000 0.791029 0.333334
O O8 0.886708 0.512266 0.472843
#
# Coordination Sequence:
#
# PCOD9576409 Si02
#       4
#     6   3   6   6
#     4  11  23  46  71 105 149 194 251 307 391 446
#     4  10  18  42  74  88 150 206 224 328 378 428
#     4  11  23  44  70 107 152 194 262 322 380 474
#     4  11  25  44  75 106 147 202 250 318 391 456
#
# _framework density 26.998190999999998
#
# number of rings (size 3 to 8) (size 9 to 14) (size 15 to 20)
#    0.000    1.143    5.714    0.000    4.000    0.000 
#   10.286    2.857    0.000    0.000    0.000    0.000 
#    0.000    0.000    0.000    0.000    0.000    0.000 
#
# Total GULP energy -117554.548973 kJ/mol
# GULP energy per Si atom -5597.835665 kJ/mol
# Density = 2.693674 g / cm^3
# Si number density = 26.998191 Si / 1000 Ang^3
#
#
#
# Elastic Constant Matrix: (Units=GPa)
#
#
# Indices 1 2 3 4 5 6 
#
# 1 110.9355 36.1687 39.6300 3.5041 -0.0001 0.0000
# 2 36.1687 110.9355 39.6300 -3.5041 0.0001 0.0000
# 3 39.6300 39.6300 198.7348 0.0000 0.0000 0.0000
# 4 3.5041 -3.5041 0.0000 38.5275 0.0000 0.0001
# 5 -0.0001 0.0001 0.0000 0.0000 38.5275 3.5041
# 6 0.0000 0.0000 0.0000 0.0001 3.5041 37.3834
#
#
#
# Elastic Compliance Matrix: (Units=1/GPa)
#
#
# Indices 1 2 3 4 5 6 
#
# 1 0.010553 -0.002937 -0.001519 -0.001227 0.000000 0.000000
# 2 -0.002937 0.010553 -0.001519 0.001227 0.000000 0.000000
# 3 -0.001519 -0.001519 0.005638 0.000000 0.000000 0.000000
# 4 -0.001227 0.001227 0.000000 0.026179 0.000000 0.000000
# 5 0.000000 0.000000 0.000000 0.000000 0.026179 -0.002454
# 6 0.000000 0.000000 0.000000 0.000000 -0.002454 0.026980
#
#
# Mechanical properties :
#
#
# Convention : Reuss Voigt Hill
#
# Bulk Modulus (GPa) = 67.59068 72.38477 69.98772
# Shear Modulus (GPa) = 40.66324 43.23284 41.94804
#
# Velocity S-wave (km/s) = 3.88512 4.00600 3.94602
# Velocity P-wave (km/s) = 6.72422 6.94741 6.83673
#
# Compressibility (1/GPa) = 0.01479494
#
# Stress axis : x y z
#
# Youngs Moduli (GPa) = 94.75917 94.75917 177.38208
#
# Poissons Ratio (x) = 0.27829 0.26940
# Poissons Ratio (y) = 0.27829 0.26940
# Poissons Ratio (z) = 0.14392 0.14392
#
# Static dielectric constant tensor:
#      x y z
#    x 2.134240 0.000000 0.000000 
#    y 0.000000 2.134240 0.000000 
#    z 0.000000 0.000000 2.069580 
# 
# From -- ./inp_files/2291.got.cif
#   From: 2010.05.17/outbox.cif.g08.bks.cpg/sg154_2_cif.got.tgz:2291.got - 2010.05.20 10:41:43.
