data_PCOD9576274
_publ_section_title
;
Structure prediction by ZEFSAII (Michael W. Deem and Ramdas Pophale) SiO2 
 PCOD9576274
Probable space group: P 32 1 2
;
_chemical_formula_sum "Si O2"
_cell_formula_units_Z 30
_cell_length_a 18.781299
_cell_length_b 18.781299
_cell_length_c 5.008370
_cell_angle_alpha 90.000000
_cell_angle_beta 90.000000
_cell_angle_gamma 120.000000
_cell_volume 1529.953709
_symmetry_space_group_name_H-M "P 32 1 2"
_symmetry_group_IT_number 153
_symmetry_cell_setting 'hexagonal'
loop_
_space_group_symop_operation_xyz
x,y,z
-y,x-y,2/3+z
-x+y,-x,1/3+z
-y,-x,1/3-z
-x+y,y,2/3-z
x,x-y,-z
loop_
_atom_site_type_symbol
_atom_site_label
_atom_site_fract_x
_atom_site_fract_y
_atom_site_fract_z
Si Si1 0.500804 0.594137 0.903450
Si Si2 0.230908 0.857163 0.433570
Si Si3 0.329120 0.090472 0.848644
Si Si4 0.666981 0.031467 0.320964
Si Si5 0.878278 0.020398 0.913601
O O1 0.435634 0.564367 0.666667
O O2 0.547278 0.693121 0.913457
O O3 0.575331 0.581240 0.795075
O O4 0.455904 0.544097 0.166667
O O5 0.165946 0.834055 0.666667
O O6 0.272848 0.951901 0.353041
O O7 0.196195 0.803806 0.166667
O O8 0.363262 0.095735 0.552209
O O9 0.230151 0.031007 0.836167
O O10 0.341605 0.170803 0.000000
O O11 0.374960 0.056871 0.039911
O O12 0.942436 0.057565 0.666667
O O13 0.919870 0.080131 0.166667
O O14 0.862563 0.931282 0.000000
#
# Coordination Sequence:
#
# PCOD9576274 Si02
#       5
#     6   6   6   6   6
#     4  10  20  36  59  81 109 141 178 222 285 338
#     4  10  20  34  55  81 112 140 186 235 275 326
#     4  11  21  37  51  76 108 145 182 233 286 334
#     4  10  22  34  56  77 106 141 185 215 285 321
#     4  11  22  35  51  67  95 137 192 244 293 336
#
# _framework density 19.608439000000001
#
# number of rings (size 3 to 8) (size 9 to 14) (size 15 to 20)
#    1.200    0.400    0.000    7.800    0.000    2.400 
#    0.000    2.000    0.000    6.000    0.000    0.000 
#    0.000    0.000    0.000   75.600    0.000    0.000 
#
# Total GULP energy -167123.896309 kJ/mol
# GULP energy per Si atom -5570.796544 kJ/mol
# Density = 1.956381 g / cm^3
# Si number density = 19.608439 Si / 1000 Ang^3
#
#
#
# Elastic Constant Matrix: (Units=GPa)
#
#
# Indices 1 2 3 4 5 6 
#
# 1 42.0637 8.6271 24.0017 0.0003 2.4350 0.0000
# 2 8.6271 42.0637 24.0017 -0.0003 -2.4350 0.0000
# 3 24.0017 24.0017 131.9810 0.0000 0.0000 0.0000
# 4 0.0003 -0.0003 0.0000 21.0352 0.0000 -2.4350
# 5 2.4350 -2.4350 0.0000 0.0000 21.0352 0.0003
# 6 0.0000 0.0000 0.0000 -2.4350 0.0003 16.7183
#
#
#
# Elastic Compliance Matrix: (Units=1/GPa)
#
#
# Indices 1 2 3 4 5 6 
#
# 1 0.027126 -0.003294 -0.004334 0.000000 -0.003521 0.000000
# 2 -0.003294 0.027126 -0.004334 0.000000 0.003521 0.000000
# 3 -0.004334 -0.004334 0.009153 0.000000 0.000000 0.000000
# 4 0.000000 0.000000 0.000000 0.048355 0.000000 0.007043
# 5 -0.003521 0.003521 0.000000 0.000000 0.048355 -0.000001
# 6 0.000000 0.000000 0.000000 0.007043 -0.000001 0.060841
#
#
# Mechanical properties :
#
#
# Convention : Reuss Voigt Hill
#
# Bulk Modulus (GPa) = 25.32888 36.59661 30.96275
# Shear Modulus (GPa) = 19.37688 22.38959 20.88323
#
# Velocity S-wave (km/s) = 3.14696 3.38277 3.26699
# Velocity P-wave (km/s) = 5.11369 5.82767 5.48232
#
# Compressibility (1/GPa) = 0.03948062
#
# Stress axis : x y z
#
# Youngs Moduli (GPa) = 36.86503 36.86503 109.25162
#
# Poissons Ratio (x) = 0.12144 0.47349
# Poissons Ratio (y) = 0.12144 0.47349
# Poissons Ratio (z) = 0.15977 0.15977
#
# Static dielectric constant tensor:
#      x y z
#    x 1.718150 0.000000 0.000000 
#    y 0.000000 1.718150 0.000000 
#    z 0.000000 0.000000 1.732840 
# 
# From -- ./inp_files/614.got.cif
#   From: 2010.05.17/outbox.cif.g08.bks.cpg/sg153_1_cif.got.tgz:614.got - 2010.05.20 10:38:56.
