data_PCOD9576446
_publ_section_title
;
Structure prediction by ZEFSAII (Michael W. Deem and Ramdas Pophale) SiO2 
 PCOD9576446
Probable space group: P 32 2 1
;
_chemical_formula_sum "Si O2"
_cell_formula_units_Z 30
_cell_length_a 7.124624
_cell_length_b 7.124624
_cell_length_c 25.304863
_cell_angle_alpha 90.000000
_cell_angle_beta 90.000000
_cell_angle_gamma 120.000000
_cell_volume 1112.393701
_symmetry_space_group_name_H-M "P 32 2 1"
_symmetry_group_IT_number 154
_symmetry_cell_setting 'hexagonal'
loop_
_space_group_symop_operation_xyz
x,y,z
-y,x-y,2/3+z
-x+y,-x,1/3+z
x-y,-y,1/3-z
-x,-x+y,2/3-z
y,x,-z
loop_
_atom_site_type_symbol
_atom_site_label
_atom_site_fract_x
_atom_site_fract_y
_atom_site_fract_z
Si Si1 0.598485 0.530564 0.276694
Si Si2 0.027485 0.248024 0.714776
Si Si3 0.468424 0.838280 0.239593
Si Si4 0.737928 0.750654 0.169891
Si Si5 0.725851 0.785964 0.056637
O O1 0.448084 0.275253 0.281535
O O2 0.444921 0.638288 0.273858
O O3 0.735431 0.643289 0.328917
O O4 0.119125 0.388857 0.112346
O O5 0.361288 0.315051 0.598850
O O6 0.892652 0.280210 0.760672
O O7 0.059250 0.044581 0.719555
O O8 0.535109 0.784847 0.183991
O O9 0.938175 0.000000 0.166667
O O10 0.695213 0.657104 0.111162
O O11 0.666837 0.666837 0.000000
#
# Coordination Sequence:
#
# PCOD9576446 Si02
#       5
#     6   6   6   6   6
#     4  10  19  37  64  94 134 170 228 289 345 418
#     4  12  20  38  72  95 126 189 221 281 366 413
#     4   9  21  40  61  92 138 165 219 297 337 408
#     4   8  17  38  57  80 132 167 206 288 331 382
#     4  11  19  38  66  91 130 181 222 280 349 400
#
# _framework density 26.968869000000002
#
# number of rings (size 3 to 8) (size 9 to 14) (size 15 to 20)
#    1.200    0.800    4.000    0.000    0.000    0.000 
#    7.200   11.000    4.400    0.000    0.000    0.000 
#    0.000    0.000    0.000    0.000    0.000    0.000 
#
# Total GULP energy -167366.664720 kJ/mol
# GULP energy per Si atom -5578.888824 kJ/mol
# Density = 2.690749 g / cm^3
# Si number density = 26.968869 Si / 1000 Ang^3
#
#
#
# Elastic Constant Matrix: (Units=GPa)
#
#
# Indices 1 2 3 4 5 6 
#
# 1 91.2920 11.6792 -0.0778 10.8751 0.0001 0.0000
# 2 11.6792 91.2920 -0.0778 -10.8751 -0.0001 0.0000
# 3 -0.0778 -0.0778 174.8583 0.0000 0.0000 0.0000
# 4 10.8751 -10.8751 0.0000 30.5739 0.0000 -0.0001
# 5 0.0001 -0.0001 0.0000 0.0000 30.5739 10.8751
# 6 0.0000 0.0000 0.0000 -0.0001 10.8751 39.8064
#
#
#
# Elastic Compliance Matrix: (Units=1/GPa)
#
#
# Indices 1 2 3 4 5 6 
#
# 1 0.011812 -0.002101 0.000004 -0.004949 0.000000 0.000000
# 2 -0.002101 0.011812 0.000004 0.004949 0.000000 0.000000
# 3 0.000004 0.000004 0.005719 0.000000 0.000000 0.000000
# 4 -0.004949 0.004949 0.000000 0.036228 0.000000 0.000000
# 5 0.000000 0.000000 0.000000 0.000000 0.036228 -0.009898
# 6 0.000000 0.000000 0.000000 0.000000 -0.009898 0.027826
#
#
# Mechanical properties :
#
#
# Convention : Reuss Voigt Hill
#
# Bulk Modulus (GPa) = 39.74703 42.27663 41.01183
# Shear Modulus (GPa) = 35.16285 43.25209 39.20747
#
# Velocity S-wave (km/s) = 3.61478 4.00906 3.81702
# Velocity P-wave (km/s) = 5.67382 6.09428 5.88781
#
# Compressibility (1/GPa) = 0.02515911
#
# Stress axis : x y z
#
# Youngs Moduli (GPa) = 84.65879 84.65879 174.85822
#
# Poissons Ratio (x) = 0.17784 -0.00076
# Poissons Ratio (y) = 0.17784 -0.00076
# Poissons Ratio (z) = -0.00037 -0.00037
#
# Static dielectric constant tensor:
#      x y z
#    x 2.103170 0.000000 0.000000 
#    y 0.000000 2.103170 0.000000 
#    z 0.000000 0.000000 2.941370 
# 
# From -- ./inp_files/3582.got.cif
#   From: 2010.05.17/outbox.cif.g08.bks.cpg/sg154_2_cif.got.tgz:3582.got - 2010.05.20 10:41:43.
