data_PCOD9576652
_publ_section_title
;
Structure prediction by ZEFSAII (Michael W. Deem and Ramdas Pophale) SiO2 
 PCOD9576652
Probable space group: P 32 2 1
;
_chemical_formula_sum "Si O2"
_cell_formula_units_Z 24
_cell_length_a 7.211335
_cell_length_b 7.211335
_cell_length_c 20.218265
_cell_angle_alpha 90.000000
_cell_angle_beta 90.000000
_cell_angle_gamma 120.000000
_cell_volume 910.554318
_symmetry_space_group_name_H-M "P 32 2 1"
_symmetry_group_IT_number 154
_symmetry_cell_setting 'hexagonal'
loop_
_space_group_symop_operation_xyz
x,y,z
-y,x-y,2/3+z
-x+y,-x,1/3+z
x-y,-y,1/3-z
-x,-x+y,2/3-z
y,x,-z
loop_
_atom_site_type_symbol
_atom_site_label
_atom_site_fract_x
_atom_site_fract_y
_atom_site_fract_z
Si Si1 0.051629 0.647168 0.734823
Si Si2 0.323344 0.108186 0.039419
Si Si3 0.904607 0.088350 0.443328
Si Si4 0.330565 0.654280 0.521973
O O1 0.169231 0.899545 0.733938
O O2 0.215927 0.618327 0.783614
O O3 0.977389 0.458689 0.680741
O O4 0.824475 0.571390 0.772982
O O5 0.107589 0.897890 0.059907
O O6 0.256668 0.256668 0.000000
O O7 0.450628 0.244008 0.104082
O O8 0.000637 0.000637 0.500000
O O9 0.761407 0.185244 0.470849
#
# Coordination Sequence:
#
# PCOD9576652 Si02
#       4
#     6   6   6   6
#     4   9  21  42  59  93 116 153 218 246 299 372
#     4  10  23  43  55  89 132 159 199 244 310 379
#     4  12  22  37  69  92 112 164 208 257 314 345
#     4   9  21  41  60  88 125 148 207 263 289 365
#
# _framework density 26.357571
#
# number of rings (size 3 to 8) (size 9 to 14) (size 15 to 20)
#    1.500    0.500    2.500    1.500    7.000    1.000 
#    4.500    0.000    0.000    0.000    0.000    0.000 
#    0.000    0.000    0.000    0.000    0.000    0.000 
#
# Total GULP energy -133801.935208 kJ/mol
# GULP energy per Si atom -5575.080634 kJ/mol
# Density = 2.629758 g / cm^3
# Si number density = 26.357571 Si / 1000 Ang^3
#
#
#
# Elastic Constant Matrix: (Units=GPa)
#
#
# Indices 1 2 3 4 5 6 
#
# 1 125.7035 34.5510 25.7903 -3.9956 0.0000 0.0000
# 2 34.5510 125.7035 25.7903 3.9956 0.0000 0.0000
# 3 25.7903 25.7903 50.1706 0.0000 0.0000 0.0000
# 4 -3.9956 3.9956 0.0000 31.5880 0.0000 0.0000
# 5 0.0000 0.0000 0.0000 0.0000 31.5880 -3.9956
# 6 0.0000 0.0000 0.0000 0.0000 -3.9956 45.5762
#
#
#
# Elastic Compliance Matrix: (Units=1/GPa)
#
#
# Indices 1 2 3 4 5 6 
#
# 1 0.009285 -0.001808 -0.003844 0.001403 0.000000 0.000000
# 2 -0.001808 0.009285 -0.003844 -0.001403 0.000000 0.000000
# 3 -0.003844 -0.003844 0.023884 0.000000 0.000000 0.000000
# 4 0.001403 -0.001403 0.000000 0.032013 0.000000 0.000000
# 5 0.000000 0.000000 0.000000 0.000000 0.032013 0.002806
# 6 0.000000 0.000000 0.000000 0.000000 0.002806 0.022187
#
#
# Mechanical properties :
#
#
# Convention : Reuss Voigt Hill
#
# Bulk Modulus (GPa) = 42.61956 52.64900 47.63428
# Shear Modulus (GPa) = 32.15861 36.11351 34.13606
#
# Velocity S-wave (km/s) = 3.49677 3.70555 3.60267
# Velocity P-wave (km/s) = 5.70158 6.19083 5.95124
#
# Compressibility (1/GPa) = 0.02346340
#
# Stress axis : x y z
#
# Youngs Moduli (GPa) = 107.69548 107.69548 41.86958
#
# Poissons Ratio (x) = 0.19474 0.16093
# Poissons Ratio (y) = 0.19474 0.16093
# Poissons Ratio (z) = 0.41395 0.41395
#
# Static dielectric constant tensor:
#      x y z
#    x 2.082920 0.000000 0.000000 
#    y 0.000000 2.082920 0.000000 
#    z 0.000000 0.000000 2.287970 
# 
# From -- ./inp_files/2962.got.cif
#   From: 2010.05.17/outbox.cif.g08.bks.cpg/sg154_2_cif.got.tgz:2962.got - 2010.05.20 10:41:43.
