data_PCOD9576151
_publ_section_title
;
Structure prediction by ZEFSAII (Michael W. Deem and Ramdas Pophale) SiO2 
 PCOD9576151
Probable space group: P 31 2 1
;
_chemical_formula_sum "Si O2"
_cell_formula_units_Z 42
_cell_length_a 9.354404
_cell_length_b 9.354404
_cell_length_c 26.002099
_cell_angle_alpha 90.000000
_cell_angle_beta 90.000000
_cell_angle_gamma 120.000000
_cell_volume 1970.476609
_symmetry_space_group_name_H-M "P 31 2 1"
_symmetry_group_IT_number 152
_symmetry_cell_setting 'hexagonal'
loop_
_space_group_symop_operation_xyz
x,y,z
-y,x-y,1/3+z
-x+y,-x,2/3+z
x-y,-y,2/3-z
-x,-x+y,1/3-z
y,x,-z
loop_
_atom_site_type_symbol
_atom_site_label
_atom_site_fract_x
_atom_site_fract_y
_atom_site_fract_z
Si Si1 0.657099 0.108935 0.059413
Si Si2 0.566954 0.501653 0.356062
Si Si3 0.071842 0.069434 0.275344
Si Si4 0.547209 0.717894 0.821205
Si Si5 0.228047 0.897975 0.779435
Si Si6 0.963447 0.701823 0.090768
Si Si7 0.422948 0.597478 0.161031
O O1 0.760677 0.268884 0.023928
O O2 0.642928 0.171477 0.115166
O O3 0.766178 0.018237 0.061113
O O4 0.478028 0.008141 0.033939
O O5 0.594771 0.632543 0.401313
O O6 0.403741 0.336246 0.373244
O O7 0.936469 0.092556 0.244033
O O8 0.013573 0.000000 0.333334
O O9 0.092319 0.928356 0.248396
O O10 0.637947 0.845845 0.774916
O O11 0.351496 0.597044 0.814447
O O12 0.624100 0.605592 0.838070
O O13 0.572582 0.845357 0.866721
O O14 0.159557 0.706734 0.790676
O O15 0.298097 0.000000 0.833334
#
# Coordination Sequence:
#
# PCOD9576151 Si02
#       7
#     6   6   6   6   6   6   6
#     4  11  25  42  71  99 141 180 232 285 357 411
#     4  11  22  44  68  97 130 187 229 278 348 422
#     4  11  24  40  67 105 138 181 234 282 347 427
#     4  11  27  41  70  98 134 171 236 291 349 407
#     4  11  22  43  71  95 140 184 227 284 349 414
#     4  11  23  45  67  94 134 184 220 281 353 416
#     4  12  25  44  67 106 135 177 237 296 343 412
#
# _framework density 21.314641999999999
#
# number of rings (size 3 to 8) (size 9 to 14) (size 15 to 20)
#    0.000    0.857    7.143    0.000    8.000    0.000 
#    0.000    0.000    0.000    0.000    0.000    0.000 
#    0.000    0.000    0.000    0.000    0.000    0.000 
#
# Total GULP energy -234555.813477 kJ/mol
# GULP energy per Si atom -5584.662226 kJ/mol
# Density = 2.126613 g / cm^3
# Si number density = 21.314642 Si / 1000 Ang^3
#
#
#
# Elastic Constant Matrix: (Units=GPa)
#
#
# Indices 1 2 3 4 5 6 
#
# 1 97.5062 25.3602 4.2882 2.1785 0.0000 0.0000
# 2 25.3602 97.5062 4.2882 -2.1785 0.0000 0.0000
# 3 4.2882 4.2882 40.1905 0.0000 0.0000 0.0000
# 4 2.1785 -2.1785 0.0000 23.7766 0.0000 0.0000
# 5 0.0000 0.0000 0.0000 0.0000 23.7766 2.1785
# 6 0.0000 0.0000 0.0000 0.0000 2.1785 36.0730
#
#
#
# Elastic Compliance Matrix: (Units=1/GPa)
#
#
# Indices 1 2 3 4 5 6 
#
# 1 0.011069 -0.002869 -0.000875 -0.001277 0.000000 0.000000
# 2 -0.002869 0.011069 -0.000875 0.001277 0.000000 0.000000
# 3 -0.000875 -0.000875 0.025068 0.000000 0.000000 0.000000
# 4 -0.001277 0.001277 0.000000 0.042292 0.000000 0.000000
# 5 0.000000 0.000000 0.000000 0.000000 0.042292 -0.002554
# 6 0.000000 0.000000 0.000000 0.000000 -0.002554 0.027876
#
#
# Mechanical properties :
#
#
# Convention : Reuss Voigt Hill
#
# Bulk Modulus (GPa) = 26.33759 33.67512 30.00636
# Shear Modulus (GPa) = 27.53910 30.14300 28.84105
#
# Velocity S-wave (km/s) = 3.59838 3.76465 3.68245
# Velocity P-wave (km/s) = 5.44498 5.89323 5.67354
#
# Compressibility (1/GPa) = 0.03796854
#
# Stress axis : x y z
#
# Youngs Moduli (GPa) = 90.34288 90.34288 39.89115
#
# Poissons Ratio (x) = 0.25919 0.03490
# Poissons Ratio (y) = 0.25919 0.03490
# Poissons Ratio (z) = 0.07904 0.07904
#
# Static dielectric constant tensor:
#      x y z
#    x 1.770250 0.000000 0.000000 
#    y 0.000000 1.770250 0.000000 
#    z 0.000000 0.000000 1.794930 
# 
# From -- ./inp_files/3730.got.cif
#   From: 2010.05.17/outbox.cif.g08.bks.cpg/sg152_2_cif.got.tgz:3730.got - 2010.05.20 10:36:06.
