data_PCOD9576176
_publ_section_title
;
Structure prediction by ZEFSAII (Michael W. Deem and Ramdas Pophale) SiO2 
 PCOD9576176
Probable space group: P 31 2 1
;
_chemical_formula_sum "Si O2"
_cell_formula_units_Z 18
_cell_length_a 8.215801
_cell_length_b 8.215801
_cell_length_c 11.611119
_cell_angle_alpha 90.000000
_cell_angle_beta 90.000000
_cell_angle_gamma 120.000000
_cell_volume 678.741698
_symmetry_space_group_name_H-M "P 31 2 1"
_symmetry_group_IT_number 152
_symmetry_cell_setting 'hexagonal'
loop_
_space_group_symop_operation_xyz
x,y,z
-y,x-y,1/3+z
-x+y,-x,2/3+z
x-y,-y,2/3-z
-x,-x+y,1/3-z
y,x,-z
loop_
_atom_site_type_symbol
_atom_site_label
_atom_site_fract_x
_atom_site_fract_y
_atom_site_fract_z
Si Si1 0.703792 0.721398 0.872428
Si Si2 0.251938 0.987998 0.954953
Si Si3 0.605741 0.296271 0.834977
O O1 0.508517 0.723242 0.861802
O O2 0.788512 0.788512 0.000000
O O3 0.807334 0.803112 0.249855
O O4 0.506523 0.659737 0.134864
O O5 0.255820 0.795497 0.938364
O O6 0.464917 0.159471 0.934916
O O7 0.163596 0.000000 0.833334
#
# Coordination Sequence:
#
# PCOD9576176 Si02
#       3
#     6   6   6
#     4  12  18  30  52  78  96 128 176 212 236 296
#     4   8  20  36  46  68 108 140 154 198 270 304
#     4   9  22  34  54  75 106 132 168 209 256 296
#
# _framework density 26.519660999999999
#
# number of rings (size 3 to 8) (size 9 to 14) (size 15 to 20)
#    2.000    0.000    0.000    6.000    0.000    0.000 
#    0.000    0.000    0.000    8.000    0.000   37.333 
#    0.000    0.000    0.000    0.000    0.000    0.000 
#
# Total GULP energy -100388.021272 kJ/mol
# GULP energy per Si atom -5577.112293 kJ/mol
# Density = 2.645930 g / cm^3
# Si number density = 26.519661 Si / 1000 Ang^3
#
#
#
# Elastic Constant Matrix: (Units=GPa)
#
#
# Indices 1 2 3 4 5 6 
#
# 1 244.6721 -97.9165 72.4189 59.6149 0.0004 0.0000
# 2 -97.9165 244.6721 72.4189 -59.6149 -0.0004 0.0000
# 3 72.4189 72.4189 356.7377 0.0000 0.0000 0.0000
# 4 59.6149 -59.6149 0.0000 38.1198 0.0000 -0.0004
# 5 0.0004 -0.0004 0.0000 0.0000 38.1198 59.6149
# 6 0.0000 0.0000 0.0000 -0.0004 59.6149 171.2943
#
#
#
# Elastic Compliance Matrix: (Units=1/GPa)
#
#
# Indices 1 2 3 4 5 6 
#
# 1 0.007463 0.001058 -0.001730 -0.010017 0.000000 0.000000
# 2 0.001058 0.007463 -0.001730 0.010017 0.000000 0.000000
# 3 -0.001730 -0.001730 0.003506 0.000000 0.000000 0.000000
# 4 -0.010017 0.010017 0.000000 0.057563 0.000000 0.000000
# 5 0.000000 0.000000 0.000000 0.000000 0.057563 -0.020033
# 6 0.000000 0.000000 0.000000 0.000000 -0.020033 0.012810
#
#
# Mechanical properties :
#
#
# Convention : Reuss Voigt Hill
#
# Bulk Modulus (GPa) = 73.37460 104.43607 88.90534
# Shear Modulus (GPa) = 32.11012 102.78413 67.44712
#
# Velocity S-wave (km/s) = 3.48344 6.23232 5.04857
# Velocity P-wave (km/s) = 6.62625 9.55276 8.22078
#
# Compressibility (1/GPa) = 0.01362869
#
# Stress axis : x y z
#
# Youngs Moduli (GPa) = 133.99143 133.99143 285.26522
#
# Poissons Ratio (x) = -0.14178 0.49347
# Poissons Ratio (y) = -0.14178 0.49347
# Poissons Ratio (z) = 0.23178 0.23178
#
# Static dielectric constant tensor:
#      x y z
#    x 1.927740 0.000000 0.000000 
#    y 0.000000 1.927740 0.000000 
#    z 0.000000 0.000000 1.827700 
# 
# From -- ./inp_files/1570.got.cif
#   From: 2010.05.17/outbox.cif.g08.bks.cpg/sg152_1_cif.got.tgz:1570.got - 2010.05.20 10:36:06.
