data_PCOD9576270
_publ_section_title
;
Structure prediction by ZEFSAII (Michael W. Deem and Ramdas Pophale) SiO2 
 PCOD9576270
Probable space group: P 32 1 2
;
_chemical_formula_sum "Si O2"
_cell_formula_units_Z 36
_cell_length_a 16.636181
_cell_length_b 16.636181
_cell_length_c 10.023782
_cell_angle_alpha 90.000000
_cell_angle_beta 90.000000
_cell_angle_gamma 120.000000
_cell_volume 2402.533866
_symmetry_space_group_name_H-M "P 32 1 2"
_symmetry_group_IT_number 153
_symmetry_cell_setting 'hexagonal'
loop_
_space_group_symop_operation_xyz
x,y,z
-y,x-y,2/3+z
-x+y,-x,1/3+z
-y,-x,1/3-z
-x+y,y,2/3-z
x,x-y,-z
loop_
_atom_site_type_symbol
_atom_site_label
_atom_site_fract_x
_atom_site_fract_y
_atom_site_fract_z
Si Si1 0.640965 0.469751 0.794509
Si Si2 0.530249 0.359035 0.038827
Si Si3 0.776464 0.666667 0.208332
Si Si4 0.837878 0.863581 0.622158
Si Si5 0.333333 0.223537 0.624999
Si Si6 0.837883 0.863583 0.122160
O O1 0.592441 0.407560 0.666667
O O2 0.731122 0.462244 0.833334
O O3 0.682747 0.577441 0.756920
O O4 0.569674 0.430326 0.916668
O O5 0.592443 0.407558 0.166667
O O6 0.422559 0.317255 0.076421
O O7 0.537753 0.268877 0.000000
O O8 0.847659 0.695318 0.333334
O O9 0.771973 0.755893 0.159750
O O10 0.819009 0.638015 0.083333
O O11 0.806009 0.903005 0.500000
O O12 0.771970 0.755892 0.659752
O O13 0.851551 0.925776 0.749999
O O14 0.935541 0.871087 0.583329
O O15 0.304679 0.152340 0.500000
O O16 0.806019 0.903010 0.000000
#
# Coordination Sequence:
#
# PCOD9576270 Si02
#       6
#     6   6   6   6   6   6
#     4  11  20  30  45  64  86 116 154 191 224 264
#     4  11  20  30  45  64  86 116 154 191 224 264
#     4  10  20  32  44  62  90 118 148 192 240 268
#     4  11  20  30  45  64  86 116 154 191 224 264
#     4  10  20  32  44  62  90 118 148 192 240 268
#     4  11  20  30  45  64  86 116 154 191 224 264
#
# _framework density 14.98418
#
# number of rings (size 3 to 8) (size 9 to 14) (size 15 to 20)
#    0.000    1.333    0.000   12.000    0.000    0.000 
#    0.000    0.000    0.000    0.000    0.000    0.000 
#    0.000    0.000    0.000    6.000    0.000   27.333 
#
# Total GULP energy -201065.821047 kJ/mol
# GULP energy per Si atom -5585.161696 kJ/mol
# Density = 1.495008 g / cm^3
# Si number density = 14.984180 Si / 1000 Ang^3
#
#
#
# Elastic Constant Matrix: (Units=GPa)
#
#
# Indices 1 2 3 4 5 6 
#
# 1 87.7323 52.5692 41.9886 -0.0001 -0.0001 0.0000
# 2 52.5692 87.7323 41.9886 0.0001 0.0001 0.0000
# 3 41.9886 41.9886 124.5074 0.0000 0.0000 0.0000
# 4 -0.0001 0.0001 0.0000 29.4601 0.0000 0.0001
# 5 -0.0001 0.0001 0.0000 0.0000 29.4601 -0.0001
# 6 0.0000 0.0000 0.0000 0.0001 -0.0001 17.5815
#
#
#
# Elastic Compliance Matrix: (Units=1/GPa)
#
#
# Indices 1 2 3 4 5 6 
#
# 1 0.018684 -0.009754 -0.003012 0.000000 0.000000 0.000000
# 2 -0.009754 0.018684 -0.003012 0.000000 0.000000 0.000000
# 3 -0.003012 -0.003012 0.010063 0.000000 0.000000 0.000000
# 4 0.000000 0.000000 0.000000 0.033944 0.000000 0.000000
# 5 0.000000 0.000000 0.000000 0.000000 0.033944 0.000000
# 6 0.000000 0.000000 0.000000 0.000000 0.000000 0.056878
#
#
# Mechanical properties :
#
#
# Convention : Reuss Voigt Hill
#
# Bulk Modulus (GPa) = 62.98506 63.67388 63.32947
# Shear Modulus (GPa) = 23.91825 26.19540 25.05683
#
# Velocity S-wave (km/s) = 3.99962 4.18569 4.09371
# Velocity P-wave (km/s) = 7.96586 8.12073 8.04367
#
# Compressibility (1/GPa) = 0.01587678
#
# Stress axis : x y z
#
# Youngs Moduli (GPa) = 53.52032 53.52032 99.37518
#
# Poissons Ratio (x) = 0.52206 0.29927
# Poissons Ratio (y) = 0.52206 0.29927
# Poissons Ratio (z) = 0.16118 0.16118
#
# Static dielectric constant tensor:
#      x y z
#    x 1.498550 0.000000 0.000000 
#    y 0.000000 1.498550 0.000000 
#    z 0.000000 0.000000 1.533280 
# 
# From -- ./inp_files/1799.got.cif
#   From: 2010.05.17/outbox.cif.g08.bks.cpg/sg153_1_cif.got.tgz:1799.got - 2010.05.20 10:38:56.
