data_PCOD9576785
_publ_section_title
;
Structure prediction by ZEFSAII (Michael W. Deem and Ramdas Pophale) SiO2 
 PCOD9576785
Probable space group: R 3 2
;
_chemical_formula_sum "Si O2"
_cell_formula_units_Z 72
_cell_length_a 19.484232
_cell_length_b 19.484232
_cell_length_c 12.326802
_cell_angle_alpha 90.000000
_cell_angle_beta 90.000000
_cell_angle_gamma 120.000000
_cell_volume 4052.729672
_symmetry_space_group_name_H-M "R 3 2"
_symmetry_group_IT_number 155
_symmetry_cell_setting 'hexagonal'
loop_
_space_group_symop_operation_xyz
x,y,z
-y,x-y,z
-x+y,-x,z
x-y,-y,-z
-x,-x+y,-z
y,x,-z
2/3+x,1/3+y,1/3+z
2/3-y,1/3+x-y,1/3+z
2/3-x+y,1/3-x,1/3+z
2/3+x-y,1/3-y,1/3-z
2/3-x,1/3-x+y,1/3-z
2/3+y,1/3+x,1/3-z
1/3+x,2/3+y,2/3+z
1/3-y,2/3+x-y,2/3+z
1/3-x+y,2/3-x,2/3+z
1/3+x-y,2/3-y,2/3-z
1/3-x,2/3-x+y,2/3-z
1/3+y,2/3+x,2/3-z
loop_
_atom_site_type_symbol
_atom_site_label
_atom_site_fract_x
_atom_site_fract_y
_atom_site_fract_z
Si Si1 0.616654 0.762453 0.157313
Si Si2 0.103476 0.926795 0.703764
Si Si3 0.235682 0.720152 0.275690
Si Si4 0.758198 0.765255 0.870943
O O1 0.572893 0.666667 0.166667
O O2 0.574170 0.791236 0.242102
O O3 0.708238 0.791041 0.171633
O O4 0.588231 0.773437 0.038847
O O5 0.010677 0.864637 0.700753
O O6 0.114002 0.006803 0.646155
O O7 0.149130 0.953327 0.816531
O O8 0.221124 0.666667 0.166667
O O9 0.666667 0.724264 0.833334
O O10 0.763444 0.763444 0.000000
#
# Coordination Sequence:
#
# PCOD9576785 Si02
#       4
#    18  18  18  18
#     4   8  16  27  47  77 109 143 176 229 290 348
#     4  10  18  31  51  80 112 151 185 239 302 351
#     4   9  17  29  48  76 111 142 186 235 291 345
#     4  11  20  33  52  82 122 152 188 235 303 370
#
# _framework density 17.765803999999999
#
# number of rings (size 3 to 8) (size 9 to 14) (size 15 to 20)
#    0.000    2.500    2.500    2.750    0.000    3.000 
#    0.000    1.250    0.000    0.000    0.000   14.000 
#    0.000    0.000    0.000    0.000    0.000    0.000 
#
# Total GULP energy -133634.576842 kJ/mol
# GULP energy per Si atom -5568.107368 kJ/mol
# Density = 1.772537 g / cm^3
# Si number density = 17.765804 Si / 1000 Ang^3
#
#
#
# Elastic Constant Matrix: (Units=GPa)
#
#
# Indices 1 2 3 4 5 6 
#
# 1 71.8747 23.4416 37.6372 16.0697 -0.0001 0.0000
# 2 23.4416 71.8747 37.6372 -16.0697 0.0001 0.0000
# 3 37.6372 37.6372 95.4604 0.0000 0.0000 0.0000
# 4 16.0697 -16.0697 0.0000 27.5058 0.0000 0.0001
# 5 -0.0001 0.0001 0.0000 0.0000 27.5058 16.0697
# 6 0.0000 0.0000 0.0000 0.0001 16.0697 24.2165
#
#
#
# Elastic Compliance Matrix: (Units=1/GPa)
#
#
# Indices 1 2 3 4 5 6 
#
# 1 0.024477 -0.009242 -0.006007 -0.019700 0.000000 0.000000
# 2 -0.009242 0.024477 -0.006007 0.019700 0.000000 0.000000
# 3 -0.006007 -0.006007 0.015212 0.000000 0.000000 0.000000
# 4 -0.019700 0.019700 0.000000 0.059374 0.000000 0.000000
# 5 0.000000 0.000000 0.000000 0.000000 0.059374 -0.039400
# 6 0.000000 0.000000 0.000000 0.000000 -0.039400 0.067439
#
#
# Mechanical properties :
#
#
# Convention : Reuss Voigt Hill
#
# Bulk Modulus (GPa) = 46.17796 48.51571 47.34683
# Shear Modulus (GPa) = 16.66196 25.21189 20.93692
#
# Velocity S-wave (km/s) = 3.06578 3.77121 3.43665
# Velocity P-wave (km/s) = 6.21137 6.80665 6.51581
#
# Compressibility (1/GPa) = 0.02165535
#
# Stress axis : x y z
#
# Youngs Moduli (GPa) = 40.85410 40.85410 65.73711
#
# Poissons Ratio (x) = 0.37758 0.39487
# Poissons Ratio (y) = 0.37758 0.39487
# Poissons Ratio (z) = 0.24540 0.24540
#
# Static dielectric constant tensor:
#      x y z
#    x 1.626970 0.000000 0.000000 
#    y 0.000000 1.626970 0.000000 
#    z 0.000000 0.000000 1.657770 
# 
# From -- ./inp_files/3893.got.cif
#   From: 2010.05.17/outbox.cif.g08.bks.cpg/sg155_2_cif.got.tgz:3893.got - 2010.05.20 10:44:35.
