data_PCOD9576965
_publ_section_title
;
Structure prediction by ZEFSAII (Michael W. Deem and Ramdas Pophale) SiO2 
 PCOD9576965
Probable space group: R 3 2
;
_chemical_formula_sum "Si O2"
_cell_formula_units_Z 108
_cell_length_a 22.552026
_cell_length_b 22.552026
_cell_length_c 11.577527
_cell_angle_alpha 90.000000
_cell_angle_beta 90.000000
_cell_angle_gamma 120.000000
_cell_volume 5099.382172
_symmetry_space_group_name_H-M "R 3 2"
_symmetry_group_IT_number 155
_symmetry_cell_setting 'hexagonal'
loop_
_space_group_symop_operation_xyz
x,y,z
-y,x-y,z
-x+y,-x,z
x-y,-y,-z
-x,-x+y,-z
y,x,-z
2/3+x,1/3+y,1/3+z
2/3-y,1/3+x-y,1/3+z
2/3-x+y,1/3-x,1/3+z
2/3+x-y,1/3-y,1/3-z
2/3-x,1/3-x+y,1/3-z
2/3+y,1/3+x,1/3-z
1/3+x,2/3+y,2/3+z
1/3-y,2/3+x-y,2/3+z
1/3-x+y,2/3-x,2/3+z
1/3+x-y,2/3-y,2/3-z
1/3-x,2/3-x+y,2/3-z
1/3+y,2/3+x,2/3-z
loop_
_atom_site_type_symbol
_atom_site_label
_atom_site_fract_x
_atom_site_fract_y
_atom_site_fract_z
Si Si1 0.422293 0.273091 0.657400
Si Si2 0.852067 0.852678 0.867309
Si Si3 0.354415 0.178368 0.848266
Si Si4 0.406453 0.399881 0.635864
Si Si5 0.464734 0.797755 0.801167
Si Si6 0.302086 0.928197 0.454062
O O1 0.420848 0.232168 0.773253
O O2 0.371011 0.214996 0.567870
O O3 0.401736 0.330235 0.684515
O O4 0.487125 0.316990 0.577605
O O5 0.932867 0.877121 0.861716
O O6 0.800243 0.786247 0.791563
O O7 0.852401 0.922698 0.844905
O O8 0.830121 0.830121 0.000000
O O9 0.336921 0.101006 0.861860
O O10 0.345992 0.207737 0.967488
O O11 0.410447 0.410447 0.500000
O O12 0.333334 0.390823 0.666667
O O13 0.485083 0.818417 0.666667
O O14 0.277286 0.943952 0.333334
O O15 0.363012 0.000000 0.500000
#
# Coordination Sequence:
#
# PCOD9576965 Si02
#       6
#    18  18  18  18  18  18
#     4  11  20  37  61  87 123 171 210 260 323 392
#     4  10  21  40  64  97 131 167 215 274 341 402
#     4  11  22  40  61  90 126 176 215 260 328 387
#     4  12  22  34  60  94 134 167 212 270 338 405
#     4  10  21  36  64  94 129 165 212 276 340 396
#     4  12  25  45  68  86 131 186 231 273 320 391
#
# _framework density 21.179036
#
# number of rings (size 3 to 8) (size 9 to 14) (size 15 to 20)
#    0.000    1.000    6.667    1.333    2.333    2.667 
#    0.000    1.667    0.000    0.000    0.000    0.000 
#    0.000    8.000    0.000    0.000    0.000    0.000 
#
# Total GULP energy -200573.782383 kJ/mol
# GULP energy per Si atom -5571.493955 kJ/mol
# Density = 2.113083 g / cm^3
# Si number density = 21.179036 Si / 1000 Ang^3
#
#
#
# Elastic Constant Matrix: (Units=GPa)
#
#
# Indices 1 2 3 4 5 6 
#
# 1 86.4135 59.0395 32.9660 -6.6614 0.0000 0.0000
# 2 59.0395 86.4135 32.9660 6.6614 -0.0001 0.0000
# 3 32.9660 32.9660 106.7217 0.0000 0.0000 0.0000
# 4 -6.6614 6.6614 0.0000 22.7927 0.0000 -0.0001
# 5 0.0000 -0.0001 0.0000 0.0000 22.7927 -6.6614
# 6 0.0000 0.0000 0.0000 -0.0001 -6.6614 13.6870
#
#
#
# Elastic Compliance Matrix: (Units=1/GPa)
#
#
# Indices 1 2 3 4 5 6 
#
# 1 0.025292 -0.017297 -0.002469 0.012447 0.000000 0.000000
# 2 -0.017297 0.025292 -0.002469 -0.012447 0.000000 0.000000
# 3 -0.002469 -0.002469 0.010896 0.000000 0.000000 0.000000
# 4 0.012447 -0.012447 0.000000 0.051149 0.000000 0.000000
# 5 0.000000 0.000000 0.000000 0.000000 0.051149 0.024894
# 6 0.000000 0.000000 0.000000 0.000000 0.024894 0.085178
#
#
# Mechanical properties :
#
#
# Convention : Reuss Voigt Hill
#
# Bulk Modulus (GPa) = 58.79989 58.83243 58.81616
# Shear Modulus (GPa) = 16.71697 22.15963 19.43830
#
# Velocity S-wave (km/s) = 2.81253 3.23817 3.03282
# Velocity P-wave (km/s) = 6.19440 6.46683 6.33208
#
# Compressibility (1/GPa) = 0.01700683
#
# Stress axis : x y z
#
# Youngs Moduli (GPa) = 39.53859 39.53860 91.77859
#
# Poissons Ratio (x) = 0.68391 0.22664
# Poissons Ratio (y) = 0.68391 0.22664
# Poissons Ratio (z) = 0.09764 0.09764
#
# Static dielectric constant tensor:
#      x y z
#    x 1.879110 0.000000 0.000000 
#    y 0.000000 1.879110 0.000000 
#    z 0.000000 0.000000 1.784940 
# 
# From -- ./inp_files/4091.got.cif
#   From: 2010.05.17/outbox.cif.g08.bks.cpg/sg155_3_cif.got.tgz:4091.got - 2010.05.20 10:44:35.
