data_PCOD9576674
_publ_section_title
;
Structure prediction by ZEFSAII (Michael W. Deem and Ramdas Pophale) SiO2 
 PCOD9576674
Probable space group: P 32 2 1
;
_chemical_formula_sum "Si O2"
_cell_formula_units_Z 39
_cell_length_a 10.574597
_cell_length_b 10.574597
_cell_length_c 16.490558
_cell_angle_alpha 90.000000
_cell_angle_beta 90.000000
_cell_angle_gamma 120.000000
_cell_volume 1596.958512
_symmetry_space_group_name_H-M "P 32 2 1"
_symmetry_group_IT_number 154
_symmetry_cell_setting 'hexagonal'
loop_
_space_group_symop_operation_xyz
x,y,z
-y,x-y,2/3+z
-x+y,-x,1/3+z
x-y,-y,1/3-z
-x,-x+y,2/3-z
y,x,-z
loop_
_atom_site_type_symbol
_atom_site_label
_atom_site_fract_x
_atom_site_fract_y
_atom_site_fract_z
Si Si1 0.555244 0.400810 0.482062
Si Si2 0.319293 0.265366 0.779168
Si Si3 0.462759 0.329941 0.077464
Si Si4 0.150695 0.969925 0.867350
Si Si5 0.538851 0.281821 0.643217
Si Si6 0.000000 0.834562 0.333334
Si Si7 0.803208 0.597362 0.673371
O O1 0.542010 0.542010 0.500000
O O2 0.719603 0.445773 0.461718
O O3 0.488068 0.272543 0.550163
O O4 0.461158 0.343799 0.400036
O O5 0.375320 0.377293 0.856310
O O6 0.251906 0.097204 0.805749
O O7 0.438856 0.290202 0.712835
O O8 0.207159 0.299697 0.730433
O O9 0.582820 0.423251 0.007880
O O10 0.326030 0.201571 0.029132
O O11 0.099395 0.057817 0.925858
O O12 0.237063 0.922813 0.929179
O O13 0.000000 0.837576 0.833334
O O14 0.675088 0.446862 0.639629
#
# Coordination Sequence:
#
# PCOD9576674 Si02
#       7
#     6   6   6   6   6   3   6
#     4  11  22  41  69  96 133 183 231 278 347 411
#     4  11  24  45  70 101 138 184 234 289 357 424
#     4  10  25  44  67 100 136 175 234 282 347 417
#     4  11  25  43  68 101 141 179 229 282 355 422
#     4  11  25  43  72  99 137 183 235 296 344 416
#     4  10  24  44  68  96 134 182 226 284 340 420
#     4  11  24  43  68 100 140 181 235 287 349 424
#
# _framework density 24.421423999999998
#
# number of rings (size 3 to 8) (size 9 to 14) (size 15 to 20)
#    0.000    1.231    3.077    1.385    4.308    7.385 
#    0.000    0.000    0.000    0.000    0.000    0.000 
#    0.000    0.000    0.000    0.000    0.000    0.000 
#
# Total GULP energy -217579.838053 kJ/mol
# GULP energy per Si atom -5578.970206 kJ/mol
# Density = 2.436584 g / cm^3
# Si number density = 24.421424 Si / 1000 Ang^3
#
#
#
# Elastic Constant Matrix: (Units=GPa)
#
#
# Indices 1 2 3 4 5 6 
#
# 1 57.9225 -0.0069 17.2614 -4.0428 -0.0001 0.0000
# 2 -0.0069 57.9225 17.2614 4.0428 0.0001 0.0000
# 3 17.2614 17.2614 122.3977 0.0000 0.0000 0.0000
# 4 -4.0428 4.0428 0.0000 41.0155 0.0000 0.0001
# 5 -0.0001 0.0001 0.0000 0.0000 41.0155 -4.0428
# 6 0.0000 0.0000 0.0000 0.0001 -4.0428 28.9647
#
#
#
# Elastic Compliance Matrix: (Units=1/GPa)
#
#
# Indices 1 2 3 4 5 6 
#
# 1 0.018177 0.000674 -0.002659 0.001725 0.000000 0.000000
# 2 0.000674 0.018177 -0.002659 -0.001725 0.000000 0.000000
# 3 -0.002659 -0.002659 0.008920 0.000000 0.000000 0.000000
# 4 0.001725 -0.001725 0.000000 0.024721 0.000000 0.000000
# 5 0.000000 0.000000 0.000000 0.000000 0.024721 0.003450
# 6 0.000000 0.000000 0.000000 0.000000 0.003450 0.035006
#
#
# Mechanical properties :
#
#
# Convention : Reuss Voigt Hill
#
# Bulk Modulus (GPa) = 27.78685 34.14162 30.96423
# Shear Modulus (GPa) = 33.11142 35.78092 34.44617
#
# Velocity S-wave (km/s) = 3.68616 3.83187 3.75972
# Velocity P-wave (km/s) = 5.43321 5.79553 5.61730
#
# Compressibility (1/GPa) = 0.03598825
#
# Stress axis : x y z
#
# Youngs Moduli (GPa) = 55.01390 55.01390 112.10834
#
# Poissons Ratio (x) = -0.03708 0.29804
# Poissons Ratio (y) = -0.03708 0.29804
# Poissons Ratio (z) = 0.14626 0.14626
#
# Static dielectric constant tensor:
#      x y z
#    x 1.981850 0.000000 0.000000 
#    y 0.000000 1.981850 0.000000 
#    z 0.000000 0.000000 2.031120 
# 
# From -- ./inp_files/2442.got.cif
#   From: 2010.05.17/outbox.cif.g08.bks.cpg/sg154_2_cif.got.tgz:2442.got - 2010.05.20 10:41:43.
