data_PCOD9576944
_publ_section_title
;
Structure prediction by ZEFSAII (Michael W. Deem and Ramdas Pophale) SiO2 
 PCOD9576944
Probable space group: R 3 2
;
_chemical_formula_sum "Si O2"
_cell_formula_units_Z 117
_cell_length_a 14.848621
_cell_length_b 14.848621
_cell_length_c 27.273794
_cell_angle_alpha 90.000000
_cell_angle_beta 90.000000
_cell_angle_gamma 120.000000
_cell_volume 5207.729672
_symmetry_space_group_name_H-M "R 3 2"
_symmetry_group_IT_number 155
_symmetry_cell_setting 'hexagonal'
loop_
_space_group_symop_operation_xyz
x,y,z
-y,x-y,z
-x+y,-x,z
x-y,-y,-z
-x,-x+y,-z
y,x,-z
2/3+x,1/3+y,1/3+z
2/3-y,1/3+x-y,1/3+z
2/3-x+y,1/3-x,1/3+z
2/3+x-y,1/3-y,1/3-z
2/3-x,1/3-x+y,1/3-z
2/3+y,1/3+x,1/3-z
1/3+x,2/3+y,2/3+z
1/3-y,2/3+x-y,2/3+z
1/3-x+y,2/3-x,2/3+z
1/3+x-y,2/3-y,2/3-z
1/3-x,2/3-x+y,2/3-z
1/3+y,2/3+x,2/3-z
loop_
_atom_site_type_symbol
_atom_site_label
_atom_site_fract_x
_atom_site_fract_y
_atom_site_fract_z
Si Si1 0.000000 0.616894 0.000000
Si Si2 0.088640 0.884783 0.695221
Si Si3 0.831827 0.020228 0.793157
Si Si4 0.522559 0.715668 0.075866
Si Si5 0.151749 0.727208 0.233357
Si Si6 0.468592 0.156093 0.169768
Si Si7 0.668833 0.699565 0.751018
O O1 0.098618 0.723540 0.983018
O O2 0.952674 0.534270 0.956157
O O3 0.087369 0.938279 0.644297
O O4 0.204693 0.943751 0.716213
O O5 0.003134 0.861469 0.737870
O O6 0.766764 0.080857 0.793404
O O7 0.934471 0.081683 0.825541
O O8 0.773889 0.906271 0.815867
O O9 0.551183 0.822790 0.103732
O O10 0.448365 0.609839 0.105066
O O11 0.622101 0.703365 0.065105
O O12 0.430630 0.128196 0.224825
O O13 0.409438 0.058172 0.132238
#
# Coordination Sequence:
#
# PCOD9576944 Si02
#       7
#     9  18  18  18  18  18  18
#     4   8  18  34  52  86 126 156 212 266 308 386
#     4   9  20  35  60  91 123 167 206 265 331 396
#     4  10  20  40  63  91 126 162 214 282 322 380
#     4  11  21  37  61  91 134 171 205 262 332 408
#     4  10  21  36  59  94 130 168 213 253 325 403
#     4  10  21  40  64  89 122 161 218 270 323 376
#     4  10  21  38  59  87 121 167 210 258 322 388
#
# _framework density 22.466604
#
# number of rings (size 3 to 8) (size 9 to 14) (size 15 to 20)
#    0.000    2.154    1.538    1.077    2.154    3.692 
#   16.615    1.538    0.000    0.000    0.000    0.000 
#    0.000    0.000    0.000    0.000    0.000    0.000 
#
# Total GULP energy -217271.458770 kJ/mol
# GULP energy per Si atom -5571.063045 kJ/mol
# Density = 2.241547 g / cm^3
# Si number density = 22.466604 Si / 1000 Ang^3
#
#
#
# Elastic Constant Matrix: (Units=GPa)
#
#
# Indices 1 2 3 4 5 6 
#
# 1 98.9768 44.3569 9.6090 -5.1610 0.0000 0.0000
# 2 44.3569 98.9768 9.6090 5.1610 0.0000 0.0000
# 3 9.6090 9.6090 34.6913 0.0000 0.0000 0.0000
# 4 -5.1610 5.1610 0.0000 14.0049 0.0000 0.0000
# 5 0.0000 0.0000 0.0000 0.0000 14.0049 -5.1610
# 6 0.0000 0.0000 0.0000 0.0000 -5.1610 27.3100
#
#
#
# Elastic Compliance Matrix: (Units=1/GPa)
#
#
# Indices 1 2 3 4 5 6 
#
# 1 0.013462 -0.006216 -0.002007 0.007252 0.000000 0.000000
# 2 -0.006216 0.013462 -0.002007 -0.007252 0.000000 0.000000
# 3 -0.002007 -0.002007 0.029937 0.000000 0.000000 0.000000
# 4 0.007252 -0.007252 0.000000 0.076749 0.000000 0.000000
# 5 0.000000 0.000000 0.000000 0.000000 0.076749 0.014504
# 6 0.000000 0.000000 0.000000 0.000000 0.014504 0.039358
#
#
# Mechanical properties :
#
#
# Convention : Reuss Voigt Hill
#
# Bulk Modulus (GPa) = 27.47166 39.97720 33.72443
# Shear Modulus (GPa) = 17.71092 22.33528 20.02310
#
# Velocity S-wave (km/s) = 2.81075 3.15644 2.98860
# Velocity P-wave (km/s) = 4.77369 5.57825 5.19158
#
# Compressibility (1/GPa) = 0.03640114
#
# Stress axis : x y z
#
# Youngs Moduli (GPa) = 74.28149 74.28149 33.40294
#
# Poissons Ratio (x) = 0.46177 0.06704
# Poissons Ratio (y) = 0.46177 0.06704
# Poissons Ratio (z) = 0.14908 0.14908
#
# Static dielectric constant tensor:
#      x y z
#    x 1.920220 0.000000 0.000000 
#    y 0.000000 1.920220 0.000000 
#    z 0.000000 0.000000 1.970980 
# 
# From -- ./inp_files/8474.got.cif
#   From: 2010.05.17/outbox.cif.g08.bks.cpg/sg155_5_cif.got.tgz:8474.got - 2010.05.20 10:44:35.
