data_PCOD9576768
_publ_section_title
;
Structure prediction by ZEFSAII (Michael W. Deem and Ramdas Pophale) SiO2 
 PCOD9576768
Probable space group: R 3 2
;
_chemical_formula_sum "Si O2"
_cell_formula_units_Z 72
_cell_length_a 21.627063
_cell_length_b 21.627063
_cell_length_c 10.380661
_cell_angle_alpha 90.000000
_cell_angle_beta 90.000000
_cell_angle_gamma 120.000000
_cell_volume 4204.852161
_symmetry_space_group_name_H-M "R 3 2"
_symmetry_group_IT_number 155
_symmetry_cell_setting 'hexagonal'
loop_
_space_group_symop_operation_xyz
x,y,z
-y,x-y,z
-x+y,-x,z
x-y,-y,-z
-x,-x+y,-z
y,x,-z
2/3+x,1/3+y,1/3+z
2/3-y,1/3+x-y,1/3+z
2/3-x+y,1/3-x,1/3+z
2/3+x-y,1/3-y,1/3-z
2/3-x,1/3-x+y,1/3-z
2/3+y,1/3+x,1/3-z
1/3+x,2/3+y,2/3+z
1/3-y,2/3+x-y,2/3+z
1/3-x+y,2/3-x,2/3+z
1/3+x-y,2/3-y,2/3-z
1/3-x,2/3-x+y,2/3-z
1/3+y,2/3+x,2/3-z
loop_
_atom_site_type_symbol
_atom_site_label
_atom_site_fract_x
_atom_site_fract_y
_atom_site_fract_z
Si Si1 0.452398 0.119065 0.333334
Si Si2 0.666667 0.860560 0.333334
Si Si3 0.137654 0.888878 0.794192
Si Si4 0.032793 0.445651 0.209455
Si Si5 0.581554 0.915217 0.821240
O O1 0.462654 0.178783 0.230573
O O2 0.381701 0.106679 0.410262
O O3 0.704668 0.832771 0.431982
O O4 0.715301 0.927220 0.238280
O O5 0.179508 0.846174 0.833334
O O6 0.173345 0.921575 0.659364
O O7 0.055872 0.828017 0.787000
O O8 0.060629 0.393962 0.166667
O O9 0.569239 0.902573 0.666667
O O10 0.666667 0.967736 0.833334
#
# Coordination Sequence:
#
# PCOD9576768 Si02
#       5
#     9   9  18  18  18
#     4  10  17  34  54  76 116 152 187 236 296 352
#     4  12  23  34  58  82 122 158 197 230 302 360
#     4   9  19  31  50  76 111 150 190 234 292 339
#     4  11  21  33  53  82 116 150 185 239 296 359
#     4  11  21  35  53  79 117 156 191 240 285 350
#
# _framework density 17.123075
#
# number of rings (size 3 to 8) (size 9 to 14) (size 15 to 20)
#    0.000    1.500    1.250    9.000    0.000    0.000 
#    0.000    0.000    0.000    0.000    0.000    0.000 
#  122.500    0.000    0.000    0.000    0.000    0.000 
#
# Total GULP energy -133733.797409 kJ/mol
# GULP energy per Si atom -5572.241559 kJ/mol
# Density = 1.708410 g / cm^3
# Si number density = 17.123075 Si / 1000 Ang^3
#
#
#
# Elastic Constant Matrix: (Units=GPa)
#
#
# Indices 1 2 3 4 5 6 
#
# 1 45.9596 20.2378 14.7226 -2.0710 -0.0002 0.0000
# 2 20.2378 45.9596 14.7226 2.0711 0.0002 0.0000
# 3 14.7226 14.7226 79.3206 0.0001 0.0000 0.0000
# 4 -2.0710 2.0711 0.0001 19.7239 0.0000 0.0002
# 5 -0.0002 0.0002 0.0000 0.0000 19.7239 -2.0711
# 6 0.0000 0.0000 0.0000 0.0002 -2.0711 12.8609
#
#
#
# Elastic Compliance Matrix: (Units=1/GPa)
#
#
# Indices 1 2 3 4 5 6 
#
# 1 0.028006 -0.011540 -0.003056 0.004152 0.000000 0.000000
# 2 -0.011540 0.028006 -0.003056 -0.004152 0.000000 0.000000
# 3 -0.003056 -0.003056 0.013742 0.000000 0.000000 0.000000
# 4 0.004152 -0.004152 0.000000 0.051572 0.000000 -0.000001
# 5 0.000000 0.000000 0.000000 0.000000 0.051572 0.008305
# 6 0.000000 0.000000 0.000000 -0.000001 0.008305 0.079092
#
#
# Mechanical properties :
#
#
# Convention : Reuss Voigt Hill
#
# Bulk Modulus (GPa) = 29.02898 30.06731 29.54815
# Shear Modulus (GPa) = 16.73484 18.56552 17.65018
#
# Velocity S-wave (km/s) = 3.12961 3.29635 3.21406
# Velocity P-wave (km/s) = 5.48172 5.66441 5.57381
#
# Compressibility (1/GPa) = 0.03444833
#
# Stress axis : x y z
#
# Youngs Moduli (GPa) = 35.70671 35.70672 72.77183
#
# Poissons Ratio (x) = 0.41206 0.22241
# Poissons Ratio (y) = 0.41206 0.22240
# Poissons Ratio (z) = 0.10913 0.10913
#
# Static dielectric constant tensor:
#      x y z
#    x 1.569880 0.000000 0.000000 
#    y 0.000000 1.569880 0.000000 
#    z 0.000000 0.000000 2.098030 
# 
# From -- ./inp_files/2471.got.cif
#   From: 2010.05.17/outbox.cif.g08.bks.cpg/sg155_2_cif.got.tgz:2471.got - 2010.05.20 10:44:35.
