data_PCOD9576392
_publ_section_title
;
Structure prediction by ZEFSAII (Michael W. Deem and Ramdas Pophale) SiO2 
 PCOD9576392
Probable space group: P 32 2 1
;
_chemical_formula_sum "Si O2"
_cell_formula_units_Z 48
_cell_length_a 12.101849
_cell_length_b 12.101849
_cell_length_c 19.422857
_cell_angle_alpha 90.000000
_cell_angle_beta 90.000000
_cell_angle_gamma 120.000000
_cell_volume 2463.469581
_symmetry_space_group_name_H-M "P 32 2 1"
_symmetry_group_IT_number 154
_symmetry_cell_setting 'hexagonal'
loop_
_space_group_symop_operation_xyz
x,y,z
-y,x-y,2/3+z
-x+y,-x,1/3+z
x-y,-y,1/3-z
-x,-x+y,2/3-z
y,x,-z
loop_
_atom_site_type_symbol
_atom_site_label
_atom_site_fract_x
_atom_site_fract_y
_atom_site_fract_z
Si Si1 0.637149 0.284256 0.862567
Si Si2 0.310197 0.997072 0.584052
Si Si3 0.790987 0.220951 0.143925
Si Si4 0.961678 0.497547 0.757941
Si Si5 0.374710 0.260538 0.815291
Si Si6 0.873230 0.444440 0.042756
Si Si7 0.299798 0.714684 0.318394
Si Si8 0.391923 0.465285 0.906133
O O1 0.732589 0.432581 0.846889
O O2 0.499716 0.264351 0.844880
O O3 0.657945 0.188572 0.816124
O O4 0.624127 0.254198 0.942420
O O5 0.181310 0.878848 0.552073
O O6 0.439243 0.985388 0.572993
O O7 0.295047 0.000000 0.666667
O O8 0.340193 0.119925 0.537741
O O9 0.687793 0.092812 0.105060
O O10 0.873507 0.330318 0.086689
O O11 0.841979 0.374376 0.725475
O O12 0.000000 0.473957 0.833334
O O13 0.069553 0.541227 0.699874
O O14 0.427332 0.366030 0.754369
O O15 0.337289 0.322981 0.877663
O O16 0.722521 0.398555 0.040502
O O17 0.149101 0.660686 0.311587
#
# Coordination Sequence:
#
# PCOD9576392 Si02
#       8
#     6   6   6   6   6   6   6   6
#     4  10  18  33  51  77 117 153 193 239 301 368
#     4  11  21  34  56  82 119 162 202 249 302 374
#     4  10  20  38  53  82 117 158 198 253 306 369
#     4  11  23  35  54  81 120 159 198 250 302 380
#     4  10  21  32  52  82 112 154 194 244 293 361
#     4  10  19  34  52  78 116 152 198 235 311 371
#     4  11  21  33  56  81 116 166 189 246 315 366
#     4  11  19  34  53  82 117 156 194 242 306 363
#
# _framework density 19.484714
#
# number of rings (size 3 to 8) (size 9 to 14) (size 15 to 20)
#    0.000    1.500    7.500    2.250    3.500    0.000 
#    0.000    0.000    0.000    0.000    0.000    0.875 
#    7.500    0.000    0.000    0.000    0.000    0.000 
#
# Total GULP energy -267306.803278 kJ/mol
# GULP energy per Si atom -5568.891735 kJ/mol
# Density = 1.944037 g / cm^3
# Si number density = 19.484714 Si / 1000 Ang^3
#
#
#
# Elastic Constant Matrix: (Units=GPa)
#
#
# Indices 1 2 3 4 5 6 
#
# 1 55.0127 22.4727 22.7688 1.3354 0.0000 0.0000
# 2 22.4727 55.0127 22.7688 -1.3354 0.0000 0.0000
# 3 22.7688 22.7688 106.7485 0.0000 0.0000 0.0000
# 4 1.3354 -1.3354 0.0000 28.3544 0.0000 0.0000
# 5 0.0000 0.0000 0.0000 0.0000 28.3544 1.3354
# 6 0.0000 0.0000 0.0000 0.0000 1.3354 16.2700
#
#
#
# Elastic Compliance Matrix: (Units=1/GPa)
#
#
# Indices 1 2 3 4 5 6 
#
# 1 0.022803 -0.008048 -0.003147 -0.001453 0.000000 0.000000
# 2 -0.008048 0.022803 -0.003147 0.001453 0.000000 0.000000
# 3 -0.003147 -0.003147 0.010710 0.000000 0.000000 0.000000
# 4 -0.001453 0.001453 0.000000 0.035405 0.000000 0.000000
# 5 0.000000 0.000000 0.000000 0.000000 0.035405 -0.002906
# 6 0.000000 0.000000 0.000000 0.000000 -0.002906 0.061701
#
#
# Mechanical properties :
#
#
# Convention : Reuss Voigt Hill
#
# Bulk Modulus (GPa) = 36.18986 39.19940 37.69463
# Shear Modulus (GPa) = 22.05342 24.51333 23.28338
#
# Velocity S-wave (km/s) = 3.36792 3.55079 3.46056
# Velocity P-wave (km/s) = 5.80841 6.08050 5.94601
#
# Compressibility (1/GPa) = 0.02763205
#
# Stress axis : x y z
#
# Youngs Moduli (GPa) = 43.85393 43.85393 93.36746
#
# Poissons Ratio (x) = 0.35292 0.29385
# Poissons Ratio (y) = 0.35292 0.29385
# Poissons Ratio (z) = 0.13802 0.13802
#
# Static dielectric constant tensor:
#      x y z
#    x 1.724920 0.000000 0.000000 
#    y 0.000000 1.724920 0.000000 
#    z 0.000000 0.000000 1.897770 
# 
# From -- ./inp_files/2868.got.cif
#   From: 2010.05.17/outbox.cif.g08.bks.cpg/sg154_2_cif.got.tgz:2868.got - 2010.05.20 10:41:43.
