data_PCOD9576556
_publ_section_title
;
Structure prediction by ZEFSAII (Michael W. Deem and Ramdas Pophale) SiO2 
 PCOD9576556
Probable space group: P 32 2 1
;
_chemical_formula_sum "Si O2"
_cell_formula_units_Z 42
_cell_length_a 8.346194
_cell_length_b 8.346194
_cell_length_c 33.954914
_cell_angle_alpha 90.000000
_cell_angle_beta 90.000000
_cell_angle_gamma 120.000000
_cell_volume 2048.378539
_symmetry_space_group_name_H-M "P 32 2 1"
_symmetry_group_IT_number 154
_symmetry_cell_setting 'hexagonal'
loop_
_space_group_symop_operation_xyz
x,y,z
-y,x-y,2/3+z
-x+y,-x,1/3+z
x-y,-y,1/3-z
-x,-x+y,2/3-z
y,x,-z
loop_
_atom_site_type_symbol
_atom_site_label
_atom_site_fract_x
_atom_site_fract_y
_atom_site_fract_z
Si Si1 0.033950 0.498719 0.768258
Si Si2 0.140173 0.308735 0.145864
Si Si3 0.413956 0.413956 0.000000
Si Si4 0.407916 0.212988 0.634755
Si Si5 0.000000 0.746130 0.833334
Si Si6 0.247275 0.183991 0.715791
Si Si7 0.564605 0.931479 0.455584
Si Si8 0.890012 0.738203 0.407348
O O1 0.126205 0.625311 0.729972
O O2 0.179457 0.448620 0.788421
O O3 0.982781 0.619201 0.796429
O O4 0.865763 0.300415 0.756224
O O5 0.116451 0.472281 0.127848
O O6 0.310378 0.370338 0.175539
O O7 0.172484 0.203213 0.109990
O O8 0.950822 0.174853 0.168721
O O9 0.615257 0.445264 0.989089
O O10 0.293738 0.327559 0.961515
O O11 0.309220 0.252266 0.671223
O O12 0.252668 0.016363 0.615518
O O13 0.371404 0.333138 0.748765
O O14 0.044752 0.151789 0.723915
#
# Coordination Sequence:
#
# PCOD9576556 Si02
#       8
#     6   6   3   6   3   6   6   6
#     4  11  23  40  63  90 123 160 203 251 305 370
#     4  12  25  41  64  90 122 162 205 256 312 368
#     4  10  22  38  60  88 120 156 200 250 296 356
#     4  10  21  39  63  88 121 163 200 247 308 365
#     4  12  24  40  64  92 122 158 202 254 310 368
#     4   9  21  41  62  87 123 162 202 249 305 367
#     4  11  24  42  63  89 123 163 206 253 307 370
#     4  11  23  39  61  90 123 158 203 254 300 361
#
# _framework density 20.504021000000002
#
# number of rings (size 3 to 8) (size 9 to 14) (size 15 to 20)
#    0.000    1.429    0.000    6.857    0.000    8.000 
#    0.000    0.000    0.000    0.000    0.000    0.000 
#    0.000    0.000    0.000    0.000    0.000    0.000 
#
# Total GULP energy -234775.458476 kJ/mol
# GULP energy per Si atom -5589.891868 kJ/mol
# Density = 2.045735 g / cm^3
# Si number density = 20.504021 Si / 1000 Ang^3
#
#
#
# Elastic Constant Matrix: (Units=GPa)
#
#
# Indices 1 2 3 4 5 6 
#
# 1 47.7754 51.7913 41.3625 -19.2031 0.0008 0.0000
# 2 51.7913 47.7754 41.3625 19.2031 -0.0008 0.0000
# 3 41.3625 41.3625 111.8469 0.0000 0.0000 0.0000
# 4 -19.2031 19.2031 0.0000 17.9215 0.0000 -0.0008
# 5 0.0008 -0.0008 0.0000 0.0000 17.9215 -19.2031
# 6 0.0000 0.0000 0.0000 -0.0008 -19.2031 -2.0079
#
#
#
# Elastic Compliance Matrix: (Units=1/GPa)
#
#
# Indices 1 2 3 4 5 6 
#
# 1 -0.003821 0.018319 -0.005362 -0.023722 0.000001 0.000000
# 2 0.018319 -0.003821 -0.005362 0.023722 -0.000001 0.000000
# 3 -0.005362 -0.005362 0.012906 0.000000 0.000000 0.000000
# 4 -0.023722 0.023722 0.000000 0.004961 0.000000 -0.000002
# 5 0.000001 -0.000001 0.000000 0.000000 0.004961 -0.047445
# 6 0.000000 0.000000 0.000000 -0.000002 -0.047445 -0.044279
#
#
# Mechanical properties :
#
#
# Convention : Reuss Voigt Hill
#
# Bulk Modulus (GPa) = 48.88470 52.93673 50.91072
# Shear Modulus (GPa) = -133.46443 11.62576 -60.91933
#
# Velocity S-wave (km/s) = -8.07670 2.38376 -5.45669
# Velocity P-wave (km/s) = 7.94256 5.78361 3.84929
#
# Compressibility (1/GPa) = 0.02045630
#
# Stress axis : x y z
#
# Youngs Moduli (GPa) = -261.74567 -261.74567 77.48078
#
# Poissons Ratio (x) = 4.79485 0.41543
# Poissons Ratio (y) = 4.79485 0.41543
# Poissons Ratio (z) = -1.40339 -1.40339
#
# Static dielectric constant tensor:
#      x y z
#    x 1.730840 0.000000 0.000000 
#    y 0.000000 1.730840 0.000000 
#    z 0.000000 0.000000 1.720050 
# 
# From -- ./inp_files/3843.got.cif
#   From: 2010.05.17/outbox.cif.g08.bks.cpg/sg154_2_cif.got.tgz:3843.got - 2010.05.20 10:41:43.
