data_PCOD9576448
_publ_section_title
;
Structure prediction by ZEFSAII (Michael W. Deem and Ramdas Pophale) SiO2 
 PCOD9576448
Probable space group: P 32 2 1
;
_chemical_formula_sum "Si O2"
_cell_formula_units_Z 42
_cell_length_a 11.587867
_cell_length_b 11.587867
_cell_length_c 20.102306
_cell_angle_alpha 90.000000
_cell_angle_beta 90.000000
_cell_angle_gamma 120.000000
_cell_volume 2337.671678
_symmetry_space_group_name_H-M "P 32 2 1"
_symmetry_group_IT_number 154
_symmetry_cell_setting 'hexagonal'
loop_
_space_group_symop_operation_xyz
x,y,z
-y,x-y,2/3+z
-x+y,-x,1/3+z
x-y,-y,1/3-z
-x,-x+y,2/3-z
y,x,-z
loop_
_atom_site_type_symbol
_atom_site_label
_atom_site_fract_x
_atom_site_fract_y
_atom_site_fract_z
Si Si1 0.838643 0.405953 0.176966
Si Si2 0.622259 0.184628 0.084411
Si Si3 0.843555 0.233878 0.839599
Si Si4 0.686840 0.947346 0.892817
Si Si5 0.708927 0.328651 0.946728
Si Si6 0.300823 0.022776 0.587593
Si Si7 0.302302 0.371091 0.376666
O O1 0.748559 0.281002 0.129434
O O2 0.895228 0.538310 0.134116
O O3 0.734502 0.399025 0.232448
O O4 0.947228 0.380400 0.213837
O O5 0.496501 0.191531 0.113522
O O6 0.610458 0.040335 0.083359
O O7 0.646100 0.237082 0.009712
O O8 0.795090 0.281844 0.903948
O O9 0.000000 0.296817 0.833334
O O10 0.776529 0.075864 0.847766
O O11 0.720961 0.828243 0.892685
O O12 0.693217 0.984625 0.971031
O O13 0.807212 0.480674 0.968712
O O14 0.295123 0.159939 0.586281
O O15 0.313025 0.000000 0.666667
#
# Coordination Sequence:
#
# PCOD9576448 Si02
#       7
#     6   6   6   6   6   6   6
#     4  10  23  35  63  91 116 154 202 251 308 360
#     4  11  21  37  63  89 118 152 209 253 299 363
#     4  11  23  37  59  88 121 156 200 250 307 361
#     4  11  22  38  60  87 124 157 195 253 315 363
#     4  10  20  37  59  90 118 152 199 252 299 363
#     4   9  22  39  58  86 122 162 209 244 305 375
#     4  10  19  38  62  83 118 165 199 247 298 368
#
# _framework density 17.966595999999999
#
# number of rings (size 3 to 8) (size 9 to 14) (size 15 to 20)
#    0.000    1.714    4.286    0.000    4.000    0.000 
#    2.571    0.000    0.000    0.000    0.000    0.000 
#    0.000    0.000    0.000    0.000    0.000    0.000 
#
# Total GULP energy -234244.967711 kJ/mol
# GULP energy per Si atom -5577.261136 kJ/mol
# Density = 1.792570 g / cm^3
# Si number density = 17.966596 Si / 1000 Ang^3
#
#
#
# Elastic Constant Matrix: (Units=GPa)
#
#
# Indices 1 2 3 4 5 6 
#
# 1 95.1029 67.7899 38.0160 11.1573 0.0003 0.0000
# 2 67.7899 95.1029 38.0160 -11.1573 -0.0003 0.0000
# 3 38.0160 38.0160 83.3878 0.0000 0.0000 0.0000
# 4 11.1573 -11.1573 0.0000 17.7141 0.0000 -0.0003
# 5 0.0003 -0.0003 0.0000 0.0000 17.7141 11.1573
# 6 0.0000 0.0000 0.0000 -0.0003 11.1573 13.6565
#
#
#
# Elastic Compliance Matrix: (Units=1/GPa)
#
#
# Indices 1 2 3 4 5 6 
#
# 1 0.041612 -0.033813 -0.003555 -0.047507 -0.000001 0.000000
# 2 -0.033813 0.041612 -0.003555 0.047507 0.000001 0.000000
# 3 -0.003555 -0.003555 0.015234 0.000000 0.000000 0.000000
# 4 -0.047507 0.047507 0.000000 0.116297 0.000000 0.000003
# 5 -0.000001 0.000001 0.000000 0.000000 0.116297 -0.095014
# 6 0.000000 0.000000 0.000000 0.000003 -0.095014 0.150851
#
#
# Mechanical properties :
#
#
# Convention : Reuss Voigt Hill
#
# Bulk Modulus (GPa) = 60.20594 62.35972 61.28283
# Shear Modulus (GPa) = 8.78290 18.46840 13.62565
#
# Velocity S-wave (km/s) = 2.21339 3.20961 2.75687
# Velocity P-wave (km/s) = 6.33362 6.96560 6.65711
#
# Compressibility (1/GPa) = 0.01660966
#
# Stress axis : x y z
#
# Youngs Moduli (GPa) = 24.03155 24.03155 65.64335
#
# Poissons Ratio (x) = 0.81259 0.23338
# Poissons Ratio (y) = 0.81259 0.23338
# Poissons Ratio (z) = 0.08544 0.08544
#
# Static dielectric constant tensor:
#      x y z
#    x 1.621630 0.000000 0.000000 
#    y 0.000000 1.621630 0.000000 
#    z 0.000000 0.000000 1.630650 
# 
# From -- ./inp_files/2839.got.cif
#   From: 2010.05.17/outbox.cif.g08.bks.cpg/sg154_2_cif.got.tgz:2839.got - 2010.05.20 10:41:43.
