data_PCOD9576170
_publ_section_title
;
Structure prediction by ZEFSAII (Michael W. Deem and Ramdas Pophale) SiO2 
 PCOD9576170
Probable space group: P 31 2 1
;
_chemical_formula_sum "Si O2"
_cell_formula_units_Z 45
_cell_length_a 11.057089
_cell_length_b 11.057089
_cell_length_c 16.630541
_cell_angle_alpha 90.000000
_cell_angle_beta 90.000000
_cell_angle_gamma 120.000000
_cell_volume 1760.834828
_symmetry_space_group_name_H-M "P 31 2 1"
_symmetry_group_IT_number 152
_symmetry_cell_setting 'hexagonal'
loop_
_space_group_symop_operation_xyz
x,y,z
-y,x-y,1/3+z
-x+y,-x,2/3+z
x-y,-y,2/3-z
-x,-x+y,1/3-z
y,x,-z
loop_
_atom_site_type_symbol
_atom_site_label
_atom_site_fract_x
_atom_site_fract_y
_atom_site_fract_z
Si Si1 0.064291 0.377342 0.079352
Si Si2 0.710494 0.262209 0.375527
Si Si3 0.051685 0.086866 0.080922
Si Si4 0.306645 0.123760 0.156174
Si Si5 0.693751 0.532448 0.152049
Si Si6 0.158989 0.576989 0.344473
Si Si7 0.000000 0.713164 0.166667
Si Si8 0.726211 0.888427 0.001561
O O1 0.028435 0.217207 0.074335
O O2 0.000000 0.378704 0.166667
O O3 0.974974 0.414934 0.019681
O O4 0.222226 0.471709 0.042450
O O5 0.800096 0.259365 0.450396
O O6 0.553557 0.154525 0.408483
O O7 0.700260 0.401928 0.365826
O O8 0.213615 0.133843 0.085272
O O9 0.000000 0.015885 0.166667
O O10 0.995539 0.995539 0.000000
O O11 0.259013 0.177426 0.234912
O O12 0.281435 0.969995 0.173356
O O13 0.611888 0.443497 0.228488
O O14 0.854151 0.566839 0.166213
O O15 0.152725 0.716598 0.331056
O O16 0.987682 0.777002 0.079365
O O17 0.764037 0.764037 0.000000
#
# Coordination Sequence:
#
# PCOD9576170 Si02
#       8
#     6   6   6   6   6   6   3   6
#     4  11  28  53  80 126 174 231 294 364 465 556
#     4  12  26  50  82 121 173 227 294 383 454 547
#     4  11  25  52  83 121 172 229 291 362 448 542
#     4  12  26  52  79 123 168 223 306 364 456 538
#     4  12  27  51  82 121 170 232 294 377 447 547
#     4  12  27  48  80 117 167 220 294 364 449 535
#     4  12  28  48  82 118 170 214 292 362 442 546
#     4  12  27  52  82 118 159 227 288 363 450 547
#
# _framework density 25.556062000000001
#
# number of rings (size 3 to 8) (size 9 to 14) (size 15 to 20)
#    0.000    0.267    6.667    0.000    5.600    3.733 
#   12.000    0.000    0.000    0.000    0.000    0.000 
#    0.000    0.000    0.000    0.000    0.000    0.000 
#
# Total GULP energy -250625.543894 kJ/mol
# GULP energy per Si atom -5569.456531 kJ/mol
# Density = 2.549790 g / cm^3
# Si number density = 25.556062 Si / 1000 Ang^3
#
#
#
# Elastic Constant Matrix: (Units=GPa)
#
#
# Indices 1 2 3 4 5 6 
#
# 1 104.7498 45.1260 48.4773 -6.4034 -0.0001 0.0000
# 2 45.1260 104.7498 48.4773 6.4034 0.0001 0.0000
# 3 48.4773 48.4773 198.8887 0.0000 0.0000 0.0000
# 4 -6.4034 6.4034 0.0000 48.0833 0.0000 0.0001
# 5 -0.0001 0.0001 0.0000 0.0000 48.0833 -6.4034
# 6 0.0000 0.0000 0.0000 0.0001 -6.4034 29.8119
#
#
#
# Elastic Compliance Matrix: (Units=1/GPa)
#
#
# Indices 1 2 3 4 5 6 
#
# 1 0.012593 -0.004672 -0.001931 0.002299 0.000000 0.000000
# 2 -0.004672 0.012593 -0.001931 -0.002299 0.000000 0.000000
# 3 -0.001931 -0.001931 0.005969 0.000000 0.000000 0.000000
# 4 0.002299 -0.002299 0.000000 0.021410 0.000000 0.000000
# 5 0.000000 0.000000 0.000000 0.000000 0.021410 0.004599
# 6 0.000000 0.000000 0.000000 0.000000 0.004599 0.034531
#
#
# Mechanical properties :
#
#
# Convention : Reuss Voigt Hill
#
# Bulk Modulus (GPa) = 70.97930 76.94993 73.96461
# Shear Modulus (GPa) = 38.38171 42.94954 40.66563
#
# Velocity S-wave (km/s) = 3.87959 4.10396 3.99335
# Velocity P-wave (km/s) = 6.92117 7.25481 7.08995
#
# Compressibility (1/GPa) = 0.01408861
#
# Stress axis : x y z
#
# Youngs Moduli (GPa) = 79.40638 79.40638 167.52881
#
# Poissons Ratio (x) = 0.37101 0.32345
# Poissons Ratio (y) = 0.37101 0.32345
# Poissons Ratio (z) = 0.15331 0.15331
#
# Static dielectric constant tensor:
#      x y z
#    x 2.057640 0.000000 0.000000 
#    y 0.000000 2.057640 0.000000 
#    z 0.000000 0.000000 2.200470 
# 
# From -- ./inp_files/2526.got.cif
#   From: 2010.05.17/outbox.cif.g08.bks.cpg/sg152_2_cif.got.tgz:2526.got - 2010.05.20 10:36:06.
