data_PCOD9576482
_publ_section_title
;
Structure prediction by ZEFSAII (Michael W. Deem and Ramdas Pophale) SiO2 
 PCOD9576482
Probable space group: P 32 2 1
;
_chemical_formula_sum "Si O2"
_cell_formula_units_Z 21
_cell_length_a 8.913007
_cell_length_b 8.913007
_cell_length_c 14.482862
_cell_angle_alpha 90.000000
_cell_angle_beta 90.000000
_cell_angle_gamma 120.000000
_cell_volume 996.399542
_symmetry_space_group_name_H-M "P 32 2 1"
_symmetry_group_IT_number 154
_symmetry_cell_setting 'hexagonal'
loop_
_space_group_symop_operation_xyz
x,y,z
-y,x-y,2/3+z
-x+y,-x,1/3+z
x-y,-y,1/3-z
-x,-x+y,2/3-z
y,x,-z
loop_
_atom_site_type_symbol
_atom_site_label
_atom_site_fract_x
_atom_site_fract_y
_atom_site_fract_z
Si Si1 0.130669 0.380719 0.669915
Si Si2 0.310548 0.047962 0.817097
Si Si3 0.122998 0.000000 0.166667
Si Si4 0.851742 0.570001 0.983878
O O1 0.014242 0.362018 0.580246
O O2 0.292715 0.351511 0.649306
O O3 0.186993 0.568097 0.710481
O O4 0.017964 0.233576 0.743489
O O5 0.230085 0.879004 0.752273
O O6 0.440000 0.205653 0.751236
O O7 0.163755 0.096525 0.839829
#
# Coordination Sequence:
#
# PCOD9576482 Si02
#       4
#     6   6   3   6
#     4  11  22  38  64  93 124 158 215 261 311 372
#     4  10  20  42  63  87 128 172 206 252 325 387
#     4  10  20  36  68  94 112 170 214 254 302 392
#     4  10  23  39  66  89 125 168 208 260 321 377
#
# _framework density 21.075880000000002
#
# number of rings (size 3 to 8) (size 9 to 14) (size 15 to 20)
#    0.000    1.714    2.857    0.857    4.000    2.286 
#    5.143    0.000    0.000    0.000    0.000    0.000 
#    0.000    0.000    0.000    0.000    0.000    0.000 
#
# Total GULP energy -117245.620424 kJ/mol
# GULP energy per Si atom -5583.124782 kJ/mol
# Density = 2.102791 g / cm^3
# Si number density = 21.075880 Si / 1000 Ang^3
#
#
#
# Elastic Constant Matrix: (Units=GPa)
#
#
# Indices 1 2 3 4 5 6 
#
# 1 51.2672 4.4322 16.0239 -7.2317 -0.0004 0.0000
# 2 4.4322 51.2672 16.0239 7.2317 0.0004 0.0000
# 3 16.0239 16.0239 66.6979 0.0000 0.0000 0.0000
# 4 -7.2317 7.2317 0.0000 4.3492 0.0000 0.0004
# 5 -0.0004 0.0004 0.0000 0.0000 4.3492 -7.2317
# 6 0.0000 0.0000 0.0000 0.0004 -7.2317 23.4175
#
#
#
# Elastic Compliance Matrix: (Units=1/GPa)
#
#
# Indices 1 2 3 4 5 6 
#
# 1 0.032360 -0.011527 -0.005005 0.072973 0.000004 0.000000
# 2 -0.011527 0.032360 -0.005005 -0.072973 -0.000004 0.000000
# 3 -0.005005 -0.005005 0.017398 0.000000 0.000000 0.000000
# 4 0.072973 -0.072973 0.000000 0.472599 0.000000 -0.000008
# 5 0.000004 -0.000004 0.000000 0.000000 0.472599 0.145946
# 6 0.000000 0.000000 0.000000 -0.000008 0.145946 0.087774
#
#
# Mechanical properties :
#
#
# Convention : Reuss Voigt Hill
#
# Bulk Modulus (GPa) = 25.61209 26.91025 26.26117
# Shear Modulus (GPa) = 4.26920 15.27335 9.77128
#
# Velocity S-wave (km/s) = 1.42479 2.69492 2.15553
# Velocity P-wave (km/s) = 3.85816 4.74125 4.32232
#
# Compressibility (1/GPa) = 0.03904406
#
# Stress axis : x y z
#
# Youngs Moduli (GPa) = 30.90230 30.90230 57.47823
#
# Poissons Ratio (x) = 0.35620 0.28769
# Poissons Ratio (y) = 0.35620 0.28769
# Poissons Ratio (z) = 0.15467 0.15467
#
# Static dielectric constant tensor:
#      x y z
#    x 1.757440 0.000000 0.000000 
#    y 0.000000 1.757440 0.000000 
#    z 0.000000 0.000000 1.821920 
# 
# From -- ./inp_files/2205.got.cif
#   From: 2010.05.17/outbox.cif.g08.bks.cpg/sg154_2_cif.got.tgz:2205.got - 2010.05.20 10:41:43.
