data_PCOD9576846
_publ_section_title
;
Structure prediction by ZEFSAII (Michael W. Deem and Ramdas Pophale) SiO2 
 PCOD9576846
Probable space group: R 3 2
;
_chemical_formula_sum "Si O2"
_cell_formula_units_Z 105
_cell_length_a 20.233257
_cell_length_b 20.233257
_cell_length_c 15.208256
_cell_angle_alpha 90.000000
_cell_angle_beta 90.000000
_cell_angle_gamma 120.000000
_cell_volume 5391.897677
_symmetry_space_group_name_H-M "R 3 2"
_symmetry_group_IT_number 155
_symmetry_cell_setting 'hexagonal'
loop_
_space_group_symop_operation_xyz
x,y,z
-y,x-y,z
-x+y,-x,z
x-y,-y,-z
-x,-x+y,-z
y,x,-z
2/3+x,1/3+y,1/3+z
2/3-y,1/3+x-y,1/3+z
2/3-x+y,1/3-x,1/3+z
2/3+x-y,1/3-y,1/3-z
2/3-x,1/3-x+y,1/3-z
2/3+y,1/3+x,1/3-z
1/3+x,2/3+y,2/3+z
1/3-y,2/3+x-y,2/3+z
1/3-x+y,2/3-x,2/3+z
1/3+x-y,2/3-y,2/3-z
1/3-x,2/3-x+y,2/3-z
1/3+y,2/3+x,2/3-z
loop_
_atom_site_type_symbol
_atom_site_label
_atom_site_fract_x
_atom_site_fract_y
_atom_site_fract_z
Si Si1 0.256061 0.856816 0.908577
Si Si2 0.000000 0.000000 0.103867
Si Si3 0.467765 0.569556 0.899261
Si Si4 0.906179 0.666667 0.666667
Si Si5 0.414889 0.333334 0.833334
Si Si6 0.848330 0.969852 0.832794
Si Si7 0.894031 0.560697 0.333334
Si Si8 0.014044 0.521845 0.258547
O O1 0.231147 0.897813 0.833334
O O2 0.346106 0.885221 0.910847
O O3 0.216036 0.766361 0.887542
O O4 0.224198 0.859631 0.004611
O O5 0.952311 0.913332 0.135824
O O6 0.000000 0.000000 0.000000
O O7 0.385597 0.559916 0.878619
O O8 0.489177 0.531240 0.818296
O O9 0.444437 0.512302 0.981451
O O10 0.938127 0.648339 0.755743
O O11 0.487783 0.403344 0.786306
O O12 0.808398 0.980697 0.917459
O O13 0.892088 0.636632 0.356949
#
# Coordination Sequence:
#
# PCOD9576846 Si02
#       8
#    18   6  18   9   9  18   9  18
#     4  12  24  40  64  96 130 175 227 281 330 404
#     4  12  21  33  60  84 123 169 200 265 327 402
#     4  10  24  40  62  90 130 171 215 267 339 408
#     4  10  21  42  66  96 129 174 218 276 342 404
#     4  10  20  40  66  94 128 168 222 278 346 400
#     4  11  21  37  57  89 124 162 213 262 331 395
#     4  10  19  34  56  90 123 158 206 258 334 396
#     4  10  22  38  61  93 127 167 212 275 335 398
#
# _framework density 19.473663999999999
#
# number of rings (size 3 to 8) (size 9 to 14) (size 15 to 20)
#    0.000    1.371    4.286    1.543    0.000    4.800 
#    3.086    2.571    0.000    0.000    0.000    0.000 
#    0.000    0.000    0.000    0.000    0.000    0.000 
#
# Total GULP energy -195022.930055 kJ/mol
# GULP energy per Si atom -5572.083716 kJ/mol
# Density = 1.942934 g / cm^3
# Si number density = 19.473664 Si / 1000 Ang^3
#
#
#
# Elastic Constant Matrix: (Units=GPa)
#
#
# Indices 1 2 3 4 5 6 
#
# 1 94.6322 24.6464 23.6495 -7.0673 0.0001 0.0000
# 2 24.6464 94.6322 23.6495 7.0673 -0.0001 0.0000
# 3 23.6495 23.6495 73.8089 0.0000 0.0000 0.0000
# 4 -7.0673 7.0673 0.0000 16.1592 0.0000 -0.0001
# 5 0.0001 -0.0001 0.0000 0.0000 16.1592 -7.0673
# 6 0.0000 0.0000 0.0000 -0.0001 -7.0673 34.9929
#
#
#
# Elastic Compliance Matrix: (Units=1/GPa)
#
#
# Indices 1 2 3 4 5 6 
#
# 1 0.012639 -0.003035 -0.003077 0.006855 0.000000 0.000000
# 2 -0.003035 0.012639 -0.003077 -0.006855 0.000000 0.000000
# 3 -0.003077 -0.003077 0.015521 0.000000 0.000000 0.000000
# 4 0.006855 -0.006855 0.000000 0.067880 0.000000 0.000000
# 5 0.000000 0.000000 0.000000 0.000000 0.067880 0.013709
# 6 0.000000 0.000000 0.000000 0.000000 0.013709 0.031346
#
#
# Mechanical properties :
#
#
# Convention : Reuss Voigt Hill
#
# Bulk Modulus (GPa) = 44.60415 45.21822 44.91119
# Shear Modulus (GPa) = 21.38993 26.20412 23.79703
#
# Velocity S-wave (km/s) = 3.31781 3.67225 3.49952
# Velocity P-wave (km/s) = 6.13447 6.42270 6.28024
#
# Compressibility (1/GPa) = 0.02241944
#
# Stress axis : x y z
#
# Youngs Moduli (GPa) = 79.12324 79.12324 64.43088
#
# Poissons Ratio (x) = 0.24010 0.19827
# Poissons Ratio (y) = 0.24010 0.19827
# Poissons Ratio (z) = 0.24348 0.24348
#
# Static dielectric constant tensor:
#      x y z
#    x 1.714890 0.000000 0.000000 
#    y 0.000000 1.714890 0.000000 
#    z 0.000000 0.000000 1.709070 
# 
# From -- ./inp_files/5187.got.cif
#   From: 2010.05.17/outbox.cif.g08.bks.cpg/sg155_3_cif.got.tgz:5187.got - 2010.05.20 10:44:35.
