data_PCOD9576947
_publ_section_title
;
Structure prediction by ZEFSAII (Michael W. Deem and Ramdas Pophale) SiO2 
 PCOD9576947
Probable space group: R 3 2
;
_chemical_formula_sum "Si O2"
_cell_formula_units_Z 45
_cell_length_a 19.915900
_cell_length_b 19.915900
_cell_length_c 5.235679
_cell_angle_alpha 90.000000
_cell_angle_beta 90.000000
_cell_angle_gamma 120.000000
_cell_volume 1798.471325
_symmetry_space_group_name_H-M "R 3 2"
_symmetry_group_IT_number 155
_symmetry_cell_setting 'hexagonal'
loop_
_space_group_symop_operation_xyz
x,y,z
-y,x-y,z
-x+y,-x,z
x-y,-y,-z
-x,-x+y,-z
y,x,-z
2/3+x,1/3+y,1/3+z
2/3-y,1/3+x-y,1/3+z
2/3-x+y,1/3-x,1/3+z
2/3+x-y,1/3-y,1/3-z
2/3-x,1/3-x+y,1/3-z
2/3+y,1/3+x,1/3-z
1/3+x,2/3+y,2/3+z
1/3-y,2/3+x-y,2/3+z
1/3-x+y,2/3-x,2/3+z
1/3+x-y,2/3-y,2/3-z
1/3-x,2/3-x+y,2/3-z
1/3+y,2/3+x,2/3-z
loop_
_atom_site_type_symbol
_atom_site_label
_atom_site_fract_x
_atom_site_fract_y
_atom_site_fract_z
Si Si1 0.257920 0.924587 0.833334
Si Si2 0.191205 0.000000 0.500000
Si Si3 0.492773 0.281901 0.573999
Si Si4 0.666667 0.923793 0.333334
O O1 0.199896 0.929791 0.628190
O O2 0.333334 0.945952 0.666667
O O3 0.125045 0.960340 0.290503
O O4 0.536935 0.333334 0.333334
O O5 0.400209 0.248762 0.525727
O O6 0.521067 0.333334 0.833334
O O7 0.716232 0.000000 0.500000
#
# Coordination Sequence:
#
# PCOD9576947 Si02
#       4
#     9   9  18   9
#     4   9  22  42  70 116 154 202 243 334 412 461
#     4  11  26  46  76 114 162 202 273 320 416 477
#     4  11  27  45  74 109 150 211 254 322 383 468
#     4  10  20  42  66 104 150 184 254 318 394 456
#
# _framework density 25.021246999999999
#
# number of rings (size 3 to 8) (size 9 to 14) (size 15 to 20)
#    0.000    1.600    2.000    0.000   14.000    0.000 
#    1.200    0.000    0.000    0.000    0.000    0.000 
#    0.000    0.000    0.000    0.000    0.000    0.000 
#
# Total GULP energy -83793.147614 kJ/mol
# GULP energy per Si atom -5586.209841 kJ/mol
# Density = 2.496430 g / cm^3
# Si number density = 25.021247 Si / 1000 Ang^3
#
#
#
# Elastic Constant Matrix: (Units=GPa)
#
#
# Indices 1 2 3 4 5 6 
#
# 1 99.4990 62.7334 48.2513 -4.2622 -0.0857 -0.0833
# 2 62.7334 99.6092 48.2552 4.3715 -0.1026 0.1072
# 3 48.2513 48.2552 151.0599 0.2297 -0.3719 -0.1166
# 4 -4.2622 4.3715 0.2297 32.7288 0.2765 -0.0903
# 5 -0.0857 -0.1026 -0.3719 0.2765 32.2159 -4.3792
# 6 -0.0833 0.1072 -0.1166 -0.0903 -4.3792 18.3496
#
#
#
# Elastic Compliance Matrix: (Units=1/GPa)
#
#
# Indices 1 2 3 4 5 6 
#
# 1 0.017829 -0.010210 -0.002439 0.003703 -0.000026 0.000137
# 2 -0.010210 0.017804 -0.002421 -0.003691 0.000009 -0.000182
# 3 -0.002439 -0.002421 0.008173 -0.000052 0.000091 0.000076
# 4 0.003703 -0.003691 -0.000052 0.031532 -0.000255 0.000132
# 5 -0.000026 0.000009 0.000091 -0.000255 0.032084 0.007656
# 6 0.000137 -0.000182 0.000076 0.000132 0.007656 0.056327
#
#
# Mechanical properties :
#
#
# Convention : Reuss Voigt Hill
#
# Bulk Modulus (GPa) = 73.17047 74.29419 73.73233
# Shear Modulus (GPa) = 25.19594 29.38740 27.29167
#
# Velocity S-wave (km/s) = 3.17674 3.43081 3.30622
# Velocity P-wave (km/s) = 6.53930 6.74173 6.64128
#
# Compressibility (1/GPa) = 0.01366671
#
# Stress axis : x y z
#
# Youngs Moduli (GPa) = 56.08818 56.16644 122.35945
#
# Poissons Ratio (x) = 0.57345 0.29844
# Poissons Ratio (y) = 0.57265 0.29620
# Poissons Ratio (z) = 0.13680 0.13597
#
# Static dielectric constant tensor:
#      x y z
#    x 2.019390 0.000020 -0.001790 
#    y 0.000020 2.020040 0.002210 
#    z -0.001790 0.002210 0.906350 
# 
# From -- ./inp_files/421.got.cif
#   From: 2010.05.17/outbox.cif.g08.bks.cpg/sg155_1_cif.got.tgz:421.got - 2010.05.20 10:44:35.
