data_PCOD9576488
_publ_section_title
;
Structure prediction by ZEFSAII (Michael W. Deem and Ramdas Pophale) SiO2 
 PCOD9576488
Probable space group: P 32 2 1
;
_chemical_formula_sum "Si O2"
_cell_formula_units_Z 45
_cell_length_a 11.599202
_cell_length_b 11.599202
_cell_length_c 18.565776
_cell_angle_alpha 90.000000
_cell_angle_beta 90.000000
_cell_angle_gamma 120.000000
_cell_volume 2163.216373
_symmetry_space_group_name_H-M "P 32 2 1"
_symmetry_group_IT_number 154
_symmetry_cell_setting 'hexagonal'
loop_
_space_group_symop_operation_xyz
x,y,z
-y,x-y,2/3+z
-x+y,-x,1/3+z
x-y,-y,1/3-z
-x,-x+y,2/3-z
y,x,-z
loop_
_atom_site_type_symbol
_atom_site_label
_atom_site_fract_x
_atom_site_fract_y
_atom_site_fract_z
Si Si1 0.321169 0.882478 0.954578
Si Si2 0.263908 0.803913 0.413419
Si Si3 0.684176 0.116003 0.334063
Si Si4 0.148950 0.244643 0.849983
Si Si5 0.891445 0.181774 0.447059
Si Si6 0.150503 0.802445 0.814976
Si Si7 0.282923 0.282923 0.000000
Si Si8 0.709399 0.170074 0.925012
O O1 0.428989 0.834735 0.959919
O O2 0.222339 0.804729 0.889211
O O3 0.380886 0.039814 0.943404
O O4 0.258310 0.845907 0.033371
O O5 0.218501 0.811495 0.494260
O O6 0.380906 0.768273 0.411291
O O7 0.130505 0.717199 0.366069
O O8 0.827626 0.175457 0.370437
O O9 0.703413 0.139405 0.248883
O O10 0.602545 0.961404 0.358007
O O11 0.176811 0.142046 0.804634
O O12 0.180756 0.235328 0.933088
O O13 0.256758 0.389544 0.818904
O O14 0.000000 0.208547 0.833334
O O15 0.046905 0.281160 0.453352
O O16 0.000000 0.763193 0.833334
#
# Coordination Sequence:
#
# PCOD9576488 Si02
#       8
#     6   6   6   6   6   6   3   6
#     4  10  21  38  60  89 124 163 207 262 315 377
#     4   9  20  38  62  86 124 164 204 264 312 378
#     4  10  21  38  59  88 123 164 207 252 313 384
#     4  10  20  37  62  98 131 171 207 269 332 384
#     4   9  20  37  60  89 128 163 204 258 323 371
#     4  11  20  37  63  94 121 159 214 263 315 387
#     4  10  20  40  62  94 132 164 226 264 312 402
#     4  10  20  39  60  85 126 166 203 259 320 368
#
# _framework density 20.802356
#
# number of rings (size 3 to 8) (size 9 to 14) (size 15 to 20)
#    0.000    2.133    1.333    1.600    0.000    1.067 
#    9.600    2.000    0.000    0.000    0.000    0.000 
#    0.000    0.000    0.000    0.000    0.000    0.000 
#
# Total GULP energy -250858.046842 kJ/mol
# GULP energy per Si atom -5574.623263 kJ/mol
# Density = 2.075501 g / cm^3
# Si number density = 20.802356 Si / 1000 Ang^3
#
#
#
# Elastic Constant Matrix: (Units=GPa)
#
#
# Indices 1 2 3 4 5 6 
#
# 1 65.1710 14.8141 27.6858 5.5731 0.0001 0.0000
# 2 14.8141 65.1710 27.6858 -5.5731 -0.0001 0.0000
# 3 27.6858 27.6858 107.5324 0.0000 0.0000 0.0000
# 4 5.5731 -5.5731 0.0000 16.9251 0.0000 -0.0001
# 5 0.0001 -0.0001 0.0000 0.0000 16.9251 5.5731
# 6 0.0000 0.0000 0.0000 -0.0001 5.5731 25.1785
#
#
#
# Elastic Compliance Matrix: (Units=1/GPa)
#
#
# Indices 1 2 3 4 5 6 
#
# 1 0.018317 -0.003103 -0.003917 -0.007053 0.000000 0.000000
# 2 -0.003103 0.018317 -0.003917 0.007053 0.000000 0.000000
# 3 -0.003917 -0.003917 0.011317 0.000000 0.000000 0.000000
# 4 -0.007053 0.007053 0.000000 0.063728 0.000000 0.000000
# 5 0.000000 0.000000 0.000000 0.000000 0.063728 -0.014106
# 6 0.000000 0.000000 0.000000 0.000000 -0.014106 0.042839
#
#
# Mechanical properties :
#
#
# Convention : Reuss Voigt Hill
#
# Bulk Modulus (GPa) = 38.34902 42.02729 40.18816
# Shear Modulus (GPa) = 20.09556 22.98501 21.54028
#
# Velocity S-wave (km/s) = 3.11146 3.32764 3.22137
# Velocity P-wave (km/s) = 5.60207 5.91703 5.76171
#
# Compressibility (1/GPa) = 0.02607628
#
# Stress axis : x y z
#
# Youngs Moduli (GPa) = 54.59509 54.59509 88.36629
#
# Poissons Ratio (x) = 0.16939 0.34614
# Poissons Ratio (y) = 0.16939 0.34614
# Poissons Ratio (z) = 0.21385 0.21385
#
# Static dielectric constant tensor:
#      x y z
#    x 1.776100 0.000000 0.000000 
#    y 0.000000 1.776100 0.000000 
#    z 0.000000 0.000000 1.727260 
# 
# From -- ./inp_files/2522.got.cif
#   From: 2010.05.17/outbox.cif.g08.bks.cpg/sg154_2_cif.got.tgz:2522.got - 2010.05.20 10:41:43.
