data_PCOD9576352
_publ_section_title
;
Structure prediction by ZEFSAII (Michael W. Deem and Ramdas Pophale) SiO2 
 PCOD9576352
Probable space group: P 32 1 2
;
_chemical_formula_sum "Si O2"
_cell_formula_units_Z 42
_cell_length_a 21.306466
_cell_length_b 21.306466
_cell_length_c 5.517139
_cell_angle_alpha 90.000000
_cell_angle_beta 90.000000
_cell_angle_gamma 120.000000
_cell_volume 2169.039197
_symmetry_space_group_name_H-M "P 32 1 2"
_symmetry_group_IT_number 153
_symmetry_cell_setting 'hexagonal'
loop_
_space_group_symop_operation_xyz
x,y,z
-y,x-y,2/3+z
-x+y,-x,1/3+z
-y,-x,1/3-z
-x+y,y,2/3-z
x,x-y,-z
loop_
_atom_site_type_symbol
_atom_site_label
_atom_site_fract_x
_atom_site_fract_y
_atom_site_fract_z
Si Si1 0.993366 0.667605 0.091606
Si Si2 0.265706 0.194731 0.118172
Si Si3 0.858038 0.993669 0.124948
Si Si4 0.858871 0.592249 0.732600
Si Si5 0.779357 0.352820 0.757487
Si Si6 0.599291 0.529233 0.297754
Si Si7 0.109267 0.292996 0.071858
O O1 0.975061 0.712106 0.284685
O O2 0.992119 0.600982 0.237615
O O3 0.920719 0.628442 0.933208
O O4 0.060911 0.728026 0.938450
O O5 0.205589 0.189362 0.295184
O O6 0.338861 0.207394 0.246930
O O7 0.232780 0.116390 0.000000
O O8 0.793852 0.944674 0.310617
O O9 0.879468 0.939734 0.000000
O O10 0.931440 0.068561 0.166667
O O11 0.776777 0.553554 0.833334
O O12 0.887417 0.550531 0.566282
O O13 0.729841 0.270160 0.666667
O O14 0.780396 0.390198 0.500000
O O15 0.862976 0.379728 0.813687
O O16 0.751264 0.375632 0.000000
O O17 0.523306 0.476695 0.166667
O O18 0.150103 0.300205 0.333334
O O19 0.160098 0.320196 0.833334
#
# Coordination Sequence:
#
# PCOD9576352 Si02
#       7
#     6   6   6   6   6   6   6
#     4  11  22  38  64  82 120 152 195 263 325 381
#     4  11  20  36  56  83 111 145 205 266 322 377
#     4  11  23  36  52  78 114 156 205 261 325 392
#     4  11  22  37  62  88 114 154 214 265 325 372
#     4  11  24  41  60  82 112 156 210 269 330 389
#     4  10  27  39  57  89 120 156 206 264 327 394
#     4  11  24  42  64  89 116 154 206 262 318 381
#
# _framework density 19.363413000000001
#
# number of rings (size 3 to 8) (size 9 to 14) (size 15 to 20)
#    0.000    1.143    2.857    3.857    8.000    1.143 
#    0.000    0.000    0.000    0.000    0.000    0.000 
#    0.000    0.000    0.000    0.000    0.000    7.143 
#
# Total GULP energy -234150.861605 kJ/mol
# GULP energy per Si atom -5575.020514 kJ/mol
# Density = 1.931934 g / cm^3
# Si number density = 19.363413 Si / 1000 Ang^3
#
#
#
# Elastic Constant Matrix: (Units=GPa)
#
#
# Indices 1 2 3 4 5 6 
#
# 1 82.6598 38.1917 42.2235 -0.0010 -2.2942 0.0000
# 2 38.1917 82.6598 42.2235 0.0010 2.2942 0.0000
# 3 42.2235 42.2235 81.3661 0.0000 0.0000 0.0000
# 4 -0.0010 0.0010 0.0000 58.4494 0.0000 2.2942
# 5 -2.2942 2.2942 0.0000 0.0000 58.4494 -0.0010
# 6 0.0000 0.0000 0.0000 2.2942 -0.0010 22.2341
#
#
#
# Elastic Compliance Matrix: (Units=1/GPa)
#
#
# Indices 1 2 3 4 5 6 
#
# 1 0.017781 -0.004799 -0.006737 0.000000 0.000886 0.000000
# 2 -0.004799 0.017781 -0.006737 0.000000 -0.000886 0.000000
# 3 -0.006737 -0.006737 0.019282 0.000000 0.000000 0.000000
# 4 0.000000 0.000000 0.000000 0.017178 0.000000 -0.001773
# 5 0.000886 -0.000886 0.000000 0.000000 0.017178 0.000001
# 6 0.000000 0.000000 0.000000 -0.001773 0.000001 0.045159
#
#
# Mechanical properties :
#
#
# Convention : Reuss Voigt Hill
#
# Bulk Modulus (GPa) = 54.64807 54.66260 54.65533
# Shear Modulus (GPa) = 28.24801 36.09639 32.17220
#
# Velocity S-wave (km/s) = 3.82361 4.32227 4.08057
# Velocity P-wave (km/s) = 6.91209 7.29387 7.10554
#
# Compressibility (1/GPa) = 0.01829891
#
# Stress axis : x y z
#
# Youngs Moduli (GPa) = 56.24052 56.24052 51.86166
#
# Poissons Ratio (x) = 0.26988 0.34938
# Poissons Ratio (y) = 0.26988 0.34938
# Poissons Ratio (z) = 0.37888 0.37888
#
# Static dielectric constant tensor:
#      x y z
#    x 1.722550 0.000000 0.000000 
#    y 0.000000 1.722550 0.000000 
#    z 0.000000 0.000000 1.822530 
# 
# From -- ./inp_files/785.got.cif
#   From: 2010.05.17/outbox.cif.g08.bks.cpg/sg153_1_cif.got.tgz:785.got - 2010.05.20 10:38:56.
