data_PCOD9576269
_publ_section_title
;
Structure prediction by ZEFSAII (Michael W. Deem and Ramdas Pophale) SiO2 
 PCOD9576269
Probable space group: P 32 1 2
;
_chemical_formula_sum "Si O2"
_cell_formula_units_Z 36
_cell_length_a 16.924309
_cell_length_b 16.924309
_cell_length_c 9.911344
_cell_angle_alpha 90.000000
_cell_angle_beta 90.000000
_cell_angle_gamma 120.000000
_cell_volume 2458.584127
_symmetry_space_group_name_H-M "P 32 1 2"
_symmetry_group_IT_number 153
_symmetry_cell_setting 'hexagonal'
loop_
_space_group_symop_operation_xyz
x,y,z
-y,x-y,2/3+z
-x+y,-x,1/3+z
-y,-x,1/3-z
-x+y,y,2/3-z
x,x-y,-z
loop_
_atom_site_type_symbol
_atom_site_label
_atom_site_fract_x
_atom_site_fract_y
_atom_site_fract_z
Si Si1 0.642606 0.469954 0.794305
Si Si2 0.533327 0.359078 0.040346
Si Si3 0.768232 0.653040 0.206114
Si Si4 0.833829 0.858652 0.624411
Si Si5 0.337010 0.222824 0.626098
Si Si6 0.870866 0.856507 0.200861
O O1 0.592407 0.407594 0.666667
O O2 0.731090 0.462179 0.833334
O O3 0.683739 0.576269 0.756999
O O4 0.572882 0.429938 0.918336
O O5 0.598836 0.401165 0.166667
O O6 0.430926 0.329002 0.087883
O O7 0.531958 0.265979 0.000000
O O8 0.831887 0.663773 0.333334
O O9 0.786486 0.754449 0.182003
O O10 0.808919 0.628019 0.076593
O O11 0.804896 0.902448 0.500000
O O12 0.775337 0.749956 0.645371
O O13 0.934861 0.877479 0.584723
O O14 0.838789 0.911749 0.760395
O O15 0.306351 0.153176 0.500000
O O16 0.928669 0.857337 0.333334
#
# Coordination Sequence:
#
# PCOD9576269 Si02
#       6
#     6   6   6   6   6   6
#     4  11  20  29  41  60  85 114 149 183 216 255
#     4  11  19  27  42  60  80 111 149 183 211 254
#     4   9  17  30  43  57  81 112 143 177 219 264
#     4   9  17  28  43  60  81 111 146 181 216 263
#     4  10  20  31  42  61  90 114 139 187 239 259
#     4   8  15  27  41  58  77 102 140 177 207 251
#
# _framework density 14.642574
#
# number of rings (size 3 to 8) (size 9 to 14) (size 15 to 20)
#    0.000    2.333    0.000    7.000    0.000    3.333 
#    0.000    2.500    0.000    0.000    0.000    0.000 
#    0.000    0.000    0.000    4.500    0.000   14.333 
#
# Total GULP energy -200547.445379 kJ/mol
# GULP energy per Si atom -5570.762372 kJ/mol
# Density = 1.460925 g / cm^3
# Si number density = 14.642574 Si / 1000 Ang^3
#
#
#
# Elastic Constant Matrix: (Units=GPa)
#
#
# Indices 1 2 3 4 5 6 
#
# 1 58.8331 58.3031 23.0451 -0.0005 4.7602 0.0000
# 2 58.3031 58.8331 23.0451 0.0005 -4.7602 0.0000
# 3 23.0451 23.0451 74.5399 0.0000 0.0000 0.0000
# 4 -0.0005 0.0005 0.0000 19.9052 0.0000 -4.7602
# 5 4.7602 -4.7602 0.0000 0.0000 19.9052 -0.0005
# 6 0.0000 0.0000 0.0000 -4.7602 -0.0005 0.2650
#
#
#
# Elastic Compliance Matrix: (Units=1/GPa)
#
#
# Indices 1 2 3 4 5 6 
#
# 1 -0.281403 0.291123 -0.003005 -0.000013 0.136915 0.000000
# 2 0.291123 -0.281403 -0.003005 0.000013 -0.136915 0.000000
# 3 -0.003005 -0.003005 0.015274 0.000000 0.000000 0.000000
# 4 -0.000013 0.000013 0.000000 -0.015246 0.000000 -0.273830
# 5 0.136915 -0.136915 0.000000 0.000000 -0.015246 -0.000026
# 6 0.000000 0.000000 0.000000 -0.273830 -0.000026 -1.145053
#
#
# Mechanical properties :
#
#
# Convention : Reuss Voigt Hill
#
# Bulk Modulus (GPa) = 44.06668 44.55477 44.31073
# Shear Modulus (GPa) = -2.18748 13.86927 5.84090
#
# Velocity S-wave (km/s) = -1.22358 3.08098 1.99941
# Velocity P-wave (km/s) = 5.30698 6.56893 5.97139
#
# Compressibility (1/GPa) = 0.02269288
#
# Stress axis : x y z
#
# Youngs Moduli (GPa) = -3.55362 -3.55362 65.47220
#
# Poissons Ratio (x) = 1.03454 0.19674
# Poissons Ratio (y) = 1.03454 0.19674
# Poissons Ratio (z) = -0.01068 -0.01068
#
# Static dielectric constant tensor:
#      x y z
#    x 1.508410 0.000000 0.000000 
#    y 0.000000 1.508410 0.000000 
#    z 0.000000 0.000000 1.540980 
# 
# From -- ./inp_files/1844.got.cif
#   From: 2010.05.17/outbox.cif.g08.bks.cpg/sg153_1_cif.got.tgz:1844.got - 2010.05.20 10:38:56.
