data_PCOD9576983
_publ_section_title
;
Structure prediction by ZEFSAII (Michael W. Deem and Ramdas Pophale) SiO2 
 PCOD9576983
Probable space group: R 3 2
;
_chemical_formula_sum "Si O2"
_cell_formula_units_Z 114
_cell_length_a 21.142973
_cell_length_b 21.142973
_cell_length_c 14.867479
_cell_angle_alpha 90.000000
_cell_angle_beta 90.000000
_cell_angle_gamma 120.000000
_cell_volume 5755.725530
_symmetry_space_group_name_H-M "R 3 2"
_symmetry_group_IT_number 155
_symmetry_cell_setting 'hexagonal'
loop_
_space_group_symop_operation_xyz
x,y,z
-y,x-y,z
-x+y,-x,z
x-y,-y,-z
-x,-x+y,-z
y,x,-z
2/3+x,1/3+y,1/3+z
2/3-y,1/3+x-y,1/3+z
2/3-x+y,1/3-x,1/3+z
2/3+x-y,1/3-y,1/3-z
2/3-x,1/3-x+y,1/3-z
2/3+y,1/3+x,1/3-z
1/3+x,2/3+y,2/3+z
1/3-y,2/3+x-y,2/3+z
1/3-x+y,2/3-x,2/3+z
1/3+x-y,2/3-y,2/3-z
1/3-x,2/3-x+y,2/3-z
1/3+y,2/3+x,2/3-z
loop_
_atom_site_type_symbol
_atom_site_label
_atom_site_fract_x
_atom_site_fract_y
_atom_site_fract_z
Si Si1 0.666668 0.333334 0.942210
Si Si2 0.484371 0.383430 0.708075
Si Si3 0.138773 0.990822 0.606999
Si Si4 0.865016 0.607740 0.448306
Si Si5 0.077158 0.586951 0.497444
Si Si6 0.195855 0.776779 0.351107
Si Si7 0.167537 0.083647 0.023130
O O1 0.666668 0.333334 0.833334
O O2 0.742497 0.341535 0.970938
O O3 0.571148 0.435977 0.714381
O O4 0.445382 0.417564 0.767961
O O5 0.469576 0.389113 0.604060
O O6 0.456667 0.296562 0.713011
O O7 0.150054 0.000000 0.500000
O O8 0.209342 0.052008 0.659151
O O9 0.916919 0.571856 0.445562
O O10 0.821168 0.579064 0.542802
O O11 0.804246 0.571626 0.370182
O O12 0.141449 0.577531 0.539620
O O13 0.000000 0.513869 0.500000
O O14 0.154301 0.820967 0.333334
O O15 0.108525 0.108525 0.000000
O O16 0.135765 0.000000 0.000000
#
# Coordination Sequence:
#
# PCOD9576983 Si02
#       7
#     6  18  18  18  18  18  18
#     4   9  18  36  60  87 117 157 203 241 297 372
#     4  11  23  39  65  91 126 170 209 261 325 383
#     4  11  22  40  62  89 126 167 208 252 314 383
#     4  10  23  38  60  93 127 158 207 268 316 377
#     4  10  21  38  62  92 122 159 208 261 313 378
#     4  11  25  39  61  96 129 164 212 272 323 377
#     4  10  21  39  62  89 124 163 209 258 314 369
#
# _framework density 19.806365
#
# number of rings (size 3 to 8) (size 9 to 14) (size 15 to 20)
#    0.000    1.579    3.158    1.105    6.632    1.263 
#    0.000    0.789    0.000    0.000    0.000    0.000 
#    0.000    0.000    0.000    0.000    0.000    0.000 
#
# Total GULP energy -211783.757223 kJ/mol
# GULP energy per Si atom -5573.256769 kJ/mol
# Density = 1.976129 g / cm^3
# Si number density = 19.806365 Si / 1000 Ang^3
#
#
#
# Elastic Constant Matrix: (Units=GPa)
#
#
# Indices 1 2 3 4 5 6 
#
# 1 92.7959 52.5638 10.5552 22.4988 -0.0031 0.0011
# 2 52.5638 92.7956 10.5538 -22.4982 0.0026 -0.0010
# 3 10.5552 10.5538 52.2899 -0.0027 0.0005 -0.0002
# 4 22.4988 -22.4982 -0.0027 -52.9053 0.0141 -0.0047
# 5 -0.0031 0.0026 0.0005 0.0141 -52.9162 22.5004
# 6 0.0011 -0.0010 -0.0002 -0.0047 22.5004 20.1157
#
#
#
# Elastic Compliance Matrix: (Units=1/GPa)
#
#
# Indices 1 2 3 4 5 6 
#
# 1 0.011966 -0.004879 -0.001430 0.007163 0.000001 0.000000
# 2 -0.004879 0.011966 -0.001431 -0.007163 -0.000001 0.000000
# 3 -0.001430 -0.001431 0.019702 -0.000001 0.000000 0.000000
# 4 0.007163 -0.007163 -0.000001 -0.012809 -0.000004 0.000001
# 5 0.000001 -0.000001 0.000000 -0.000004 -0.012807 0.014325
# 6 0.000000 0.000000 0.000000 0.000001 0.014325 0.033689
#
#
# Mechanical properties :
#
#
# Convention : Reuss Voigt Hill
#
# Bulk Modulus (GPa) = 35.51894 42.80301 39.16097
# Shear Modulus (GPa) = 65.29951 -6.19391 29.55280
#
# Velocity S-wave (km/s) = 5.74809 -1.77032 3.86694
# Velocity P-wave (km/s) = 7.87566 4.18078 6.30496
#
# Compressibility (1/GPa) = 0.02815399
#
# Stress axis : x y z
#
# Youngs Moduli (GPa) = 83.57236 83.57135 50.75717
#
# Poissons Ratio (x) = 0.40770 0.07260
# Poissons Ratio (y) = 0.40771 0.07262
# Poissons Ratio (z) = 0.11954 0.11956
#
# Static dielectric constant tensor:
#      x y z
#    x 2.002670 0.000060 0.000000 
#    y 0.000060 2.002710 -0.000010 
#    z 0.000000 -0.000010 1.694670 
# 
# From -- ./inp_files/5207.got.cif
#   From: 2010.05.17/outbox.cif.g08.bks.cpg/sg155_3_cif.got.tgz:5207.got - 2010.05.20 10:44:35.
