data_PCOD9576880
_publ_section_title
;
Structure prediction by ZEFSAII (Michael W. Deem and Ramdas Pophale) SiO2 
 PCOD9576880
Probable space group: R 3 2
;
_chemical_formula_sum "Si O2"
_cell_formula_units_Z 45
_cell_length_a 18.176137
_cell_length_b 18.176137
_cell_length_c 6.316539
_cell_angle_alpha 90.000000
_cell_angle_beta 90.000000
_cell_angle_gamma 120.000000
_cell_volume 1807.228175
_symmetry_space_group_name_H-M "R 3 2"
_symmetry_group_IT_number 155
_symmetry_cell_setting 'hexagonal'
loop_
_space_group_symop_operation_xyz
x,y,z
-y,x-y,z
-x+y,-x,z
x-y,-y,-z
-x,-x+y,-z
y,x,-z
2/3+x,1/3+y,1/3+z
2/3-y,1/3+x-y,1/3+z
2/3-x+y,1/3-x,1/3+z
2/3+x-y,1/3-y,1/3-z
2/3-x,1/3-x+y,1/3-z
2/3+y,1/3+x,1/3-z
1/3+x,2/3+y,2/3+z
1/3-y,2/3+x-y,2/3+z
1/3-x+y,2/3-x,2/3+z
1/3+x-y,2/3-y,2/3-z
1/3-x,2/3-x+y,2/3-z
1/3+y,2/3+x,2/3-z
loop_
_atom_site_type_symbol
_atom_site_label
_atom_site_fract_x
_atom_site_fract_y
_atom_site_fract_z
Si Si1 0.545503 0.000000 0.500000
Si Si2 0.881156 0.547823 0.833334
Si Si3 0.902696 0.902696 0.000000
Si Si4 0.160708 0.911290 0.237769
O O1 0.629311 0.061213 0.628662
O O2 0.523534 0.049791 0.318663
O O3 0.803018 0.553872 0.736610
O O4 0.848546 0.841573 0.808728
O O5 0.000000 0.921295 0.000000
O O6 0.241699 0.908366 0.333334
#
# Coordination Sequence:
#
# PCOD9576880 Si02
#       4
#     9   9   9  18
#     4  10  20  33  58  88 140 183 238 294 364 441
#     4  10  20  33  58  94 134 181 240 298 366 433
#     4  10  22  42  74 106 148 194 246 318 378 452
#     4  10  22  41  65 100 142 195 245 309 378 456
#
# _framework density 24.900010000000002
#
# number of rings (size 3 to 8) (size 9 to 14) (size 15 to 20)
#    0.400    1.600    0.000    3.600    0.000   16.000 
#    0.000   18.000    4.400    0.000    0.000    0.000 
#    0.000    0.000    0.000    0.000    0.000    0.000 
#
# Total GULP energy -83516.903218 kJ/mol
# GULP energy per Si atom -5567.793548 kJ/mol
# Density = 2.484334 g / cm^3
# Si number density = 24.900010 Si / 1000 Ang^3
#
#
#
# Elastic Constant Matrix: (Units=GPa)
#
#
# Indices 1 2 3 4 5 6 
#
# 1 81.6886 49.5370 30.6375 -10.5451 0.0066 0.0023
# 2 49.5370 81.6857 30.6312 10.5496 0.0026 0.0007
# 3 30.6375 30.6312 124.1873 0.0079 0.0146 0.0064
# 4 -10.5451 10.5496 0.0079 48.6764 0.0043 0.0016
# 5 0.0066 0.0026 0.0146 0.0043 48.6831 -10.5446
# 6 0.0023 0.0007 0.0064 0.0016 -10.5446 16.0759
#
#
#
# Elastic Compliance Matrix: (Units=1/GPa)
#
#
# Indices 1 2 3 4 5 6 
#
# 1 0.022436 -0.013823 -0.002126 0.007857 -0.000003 -0.000005
# 2 -0.013823 0.022436 -0.002123 -0.007857 0.000003 0.000005
# 3 -0.002126 -0.002123 0.009100 -0.000002 -0.000004 -0.000006
# 4 0.007857 -0.007857 -0.000002 0.023949 -0.000004 -0.000006
# 5 -0.000003 0.000003 -0.000004 -0.000004 0.023943 0.015704
# 6 -0.000005 0.000005 -0.000006 -0.000006 0.015704 0.072506
#
#
# Mechanical properties :
#
#
# Convention : Reuss Voigt Hill
#
# Bulk Modulus (GPa) = 56.09340 56.57477 56.33409
# Shear Modulus (GPa) = 23.09934 34.47082 28.78508
#
# Velocity S-wave (km/s) = 3.04909 3.72475 3.40373
# Velocity P-wave (km/s) = 5.91374 6.42405 6.17417
#
# Compressibility (1/GPa) = 0.01782741
#
# Stress axis : x y z
#
# Youngs Moduli (GPa) = 44.57159 44.57152 109.88414
#
# Poissons Ratio (x) = 0.61613 0.23360
# Poissons Ratio (y) = 0.61613 0.23330
# Poissons Ratio (z) = 0.09476 0.09463
#
# Static dielectric constant tensor:
#      x y z
#    x 2.025780 0.000000 0.000000 
#    y 0.000000 2.025780 0.000000 
#    z 0.000000 0.000000 2.021560 
# 
# From -- ./inp_files/418.got.cif
#   From: 2010.05.17/outbox.cif.g08.bks.cpg/sg155_1_cif.got.tgz:418.got - 2010.05.20 10:44:35.
