data_PCOD9576641
_publ_section_title
;
Structure prediction by ZEFSAII (Michael W. Deem and Ramdas Pophale) SiO2 
 PCOD9576641
Probable space group: P 32 2 1
;
_chemical_formula_sum "Si O2"
_cell_formula_units_Z 24
_cell_length_a 7.346615
_cell_length_b 7.346615
_cell_length_c 19.959798
_cell_angle_alpha 90.000000
_cell_angle_beta 90.000000
_cell_angle_gamma 120.000000
_cell_volume 932.956373
_symmetry_space_group_name_H-M "P 32 2 1"
_symmetry_group_IT_number 154
_symmetry_cell_setting 'hexagonal'
loop_
_space_group_symop_operation_xyz
x,y,z
-y,x-y,2/3+z
-x+y,-x,1/3+z
x-y,-y,1/3-z
-x,-x+y,2/3-z
y,x,-z
loop_
_atom_site_type_symbol
_atom_site_label
_atom_site_fract_x
_atom_site_fract_y
_atom_site_fract_z
Si Si1 0.306226 0.129285 0.558640
Si Si2 0.626259 0.593025 0.232292
Si Si3 0.105446 0.942763 0.240752
Si Si4 0.484776 0.658291 0.358562
O O1 0.250308 0.250308 0.500000
O O2 0.080463 0.961750 0.587460
O O3 0.449005 0.283881 0.615658
O O4 0.408124 0.021713 0.513025
O O5 0.508803 0.684250 0.278769
O O6 0.534884 0.364770 0.263898
O O7 0.880365 0.730564 0.241190
O O8 0.290204 0.972343 0.288512
O O9 0.201083 0.000000 0.166667
#
# Coordination Sequence:
#
# PCOD9576641 Si02
#       4
#     6   6   6   6
#     4   9  21  41  60  90 123 155 216 260 311 389
#     4  10  23  38  63  96 122 162 224 256 317 402
#     4   9  21  41  61  88 127 166 208 266 319 378
#     4  12  22  40  66  86 129 170 202 271 327 373
#
# _framework density 25.724677
#
# number of rings (size 3 to 8) (size 9 to 14) (size 15 to 20)
#    0.000    2.500    0.000    4.500    7.000    0.000 
#    0.000    5.000    0.000    0.000    0.000    0.000 
#    0.000    0.000    0.000    0.000    0.000    0.000 
#
# Total GULP energy -134143.496036 kJ/mol
# GULP energy per Si atom -5589.312335 kJ/mol
# Density = 2.566613 g / cm^3
# Si number density = 25.724677 Si / 1000 Ang^3
#
#
#
# Elastic Constant Matrix: (Units=GPa)
#
#
# Indices 1 2 3 4 5 6 
#
# 1 80.2762 14.5019 7.7433 12.7923 -0.0001 0.0000
# 2 14.5019 80.2762 7.7433 -12.7923 0.0001 0.0000
# 3 7.7433 7.7433 70.8482 0.0000 0.0000 0.0000
# 4 12.7923 -12.7923 0.0000 29.6785 0.0000 0.0001
# 5 -0.0001 0.0001 0.0000 0.0000 29.6785 12.7923
# 6 0.0000 0.0000 0.0000 0.0001 12.7923 32.8871
#
#
#
# Elastic Compliance Matrix: (Units=1/GPa)
#
#
# Indices 1 2 3 4 5 6 
#
# 1 0.014504 -0.003762 -0.001174 -0.007873 0.000000 0.000000
# 2 -0.003762 0.014504 -0.001174 0.007873 0.000000 0.000000
# 3 -0.001174 -0.001174 0.014371 0.000000 0.000000 0.000000
# 4 -0.007873 0.007873 0.000000 0.040482 0.000000 0.000000
# 5 0.000000 0.000000 0.000000 0.000000 0.040482 -0.015746
# 6 0.000000 0.000000 0.000000 0.000000 -0.015746 0.036532
#
#
# Mechanical properties :
#
#
# Convention : Reuss Voigt Hill
#
# Bulk Modulus (GPa) = 32.09196 32.37528 32.23362
# Shear Modulus (GPa) = 27.25065 31.87630 29.56347
#
# Velocity S-wave (km/s) = 3.25825 3.52395 3.39370
# Velocity P-wave (km/s) = 5.16306 5.40095 5.28334
#
# Compressibility (1/GPa) = 0.03116046
#
# Stress axis : x y z
#
# Youngs Moduli (GPa) = 68.94456 68.94456 69.58296
#
# Poissons Ratio (x) = 0.25934 0.08170
# Poissons Ratio (y) = 0.25934 0.08170
# Poissons Ratio (z) = 0.08095 0.08095
#
# Static dielectric constant tensor:
#      x y z
#    x 2.087350 0.000000 0.000000 
#    y 0.000000 2.087350 0.000000 
#    z 0.000000 0.000000 2.050810 
# 
# From -- ./inp_files/2621.got.cif
#   From: 2010.05.17/outbox.cif.g08.bks.cpg/sg154_2_cif.got.tgz:2621.got - 2010.05.20 10:41:43.
