data_PCOD9576814
_publ_section_title
;
Structure prediction by ZEFSAII (Michael W. Deem and Ramdas Pophale) SiO2 
 PCOD9576814
Probable space group: R 3 2
;
_chemical_formula_sum "Si O2"
_cell_formula_units_Z 114
_cell_length_a 18.610031
_cell_length_b 18.610031
_cell_length_c 15.247248
_cell_angle_alpha 90.000000
_cell_angle_beta 90.000000
_cell_angle_gamma 120.000000
_cell_volume 4573.158872
_symmetry_space_group_name_H-M "R 3 2"
_symmetry_group_IT_number 155
_symmetry_cell_setting 'hexagonal'
loop_
_space_group_symop_operation_xyz
x,y,z
-y,x-y,z
-x+y,-x,z
x-y,-y,-z
-x,-x+y,-z
y,x,-z
2/3+x,1/3+y,1/3+z
2/3-y,1/3+x-y,1/3+z
2/3-x+y,1/3-x,1/3+z
2/3+x-y,1/3-y,1/3-z
2/3-x,1/3-x+y,1/3-z
2/3+y,1/3+x,1/3-z
1/3+x,2/3+y,2/3+z
1/3-y,2/3+x-y,2/3+z
1/3-x+y,2/3-x,2/3+z
1/3+x-y,2/3-y,2/3-z
1/3-x,2/3-x+y,2/3-z
1/3+y,2/3+x,2/3-z
loop_
_atom_site_type_symbol
_atom_site_label
_atom_site_fract_x
_atom_site_fract_y
_atom_site_fract_z
Si Si1 0.848783 0.394858 0.494108
Si Si2 0.480315 0.464976 0.147328
Si Si3 0.096351 0.644122 0.388408
Si Si4 0.333334 0.666667 0.773201
Si Si5 0.745876 0.903031 0.000686
Si Si6 0.503638 0.770899 0.232432
Si Si7 0.580455 0.696249 0.356340
O O1 0.864112 0.481391 0.533952
O O2 0.750784 0.338874 0.476337
O O3 0.894782 0.417297 0.401328
O O4 0.888827 0.366136 0.569417
O O5 0.414754 0.379590 0.101753
O O6 0.524968 0.459800 0.233505
O O7 0.437285 0.518885 0.161543
O O8 0.550208 0.505117 0.074442
O O9 0.164992 0.681791 0.311342
O O10 0.008767 0.568776 0.359948
O O11 0.333334 0.666668 0.666667
O O12 0.815124 0.000000 0.000000
O O13 0.431804 0.765138 0.166667
O O14 0.518984 0.700613 0.281390
O O15 0.666667 0.697330 0.333334
#
# Coordination Sequence:
#
# PCOD9576814 Si02
#       7
#    18  18  18   6  18  18  18
#     4  12  26  42  65  95 143 193 240 286 358 434
#     4  10  20  37  62 101 129 168 217 282 366 413
#     4  11  22  37  62  99 140 174 222 291 356 429
#     4  12  27  42  66 102 148 206 241 294 357 447
#     4  12  23  36  64 101 142 174 223 294 357 433
#     4  10  18  36  68  96 124 164 216 288 361 405
#     4   9  22  43  67  89 131 181 232 289 349 424
#
# _framework density 24.928063999999999
#
# number of rings (size 3 to 8) (size 9 to 14) (size 15 to 20)
#    0.000    1.263    3.158    5.211    2.211    0.000 
#    0.000    0.789    6.947    0.000    0.000    0.000 
#    0.000    0.000    0.000    0.000    0.000    0.000 
#
# Total GULP energy -212324.823555 kJ/mol
# GULP energy per Si atom -5587.495357 kJ/mol
# Density = 2.487133 g / cm^3
# Si number density = 24.928064 Si / 1000 Ang^3
#
#
#
# Elastic Constant Matrix: (Units=GPa)
#
#
# Indices 1 2 3 4 5 6 
#
# 1 62.7902 22.6862 30.0365 4.5345 0.0001 0.0000
# 2 22.6862 62.7900 30.0365 -4.5343 -0.0001 0.0000
# 3 30.0365 30.0365 158.3540 0.0001 0.0000 0.0000
# 4 4.5345 -4.5343 0.0001 38.6157 0.0000 0.0000
# 5 0.0001 -0.0001 0.0000 0.0000 38.6157 4.5344
# 6 0.0000 0.0000 0.0000 0.0000 4.5344 20.0519
#
#
#
# Elastic Compliance Matrix: (Units=1/GPa)
#
#
# Indices 1 2 3 4 5 6 
#
# 1 0.019557 -0.006058 -0.002560 -0.003008 0.000000 0.000000
# 2 -0.006058 0.019557 -0.002560 0.003008 0.000000 0.000000
# 3 -0.002560 -0.002560 0.007286 0.000000 0.000000 0.000000
# 4 -0.003008 0.003008 0.000000 0.026603 0.000000 0.000000
# 5 0.000000 0.000000 0.000000 0.000000 0.026603 -0.006016
# 6 0.000000 0.000000 0.000000 0.000000 -0.006016 0.051231
#
#
# Mechanical properties :
#
#
# Convention : Reuss Voigt Hill
#
# Bulk Modulus (GPa) = 41.59412 49.93919 45.76665
# Shear Modulus (GPa) = 27.59249 32.86834 30.23041
#
# Velocity S-wave (km/s) = 3.33060 3.63509 3.48617
# Velocity P-wave (km/s) = 5.61359 6.13965 5.88250
#
# Compressibility (1/GPa) = 0.02404186
#
# Stress axis : x y z
#
# Youngs Moduli (GPa) = 51.13263 51.13250 137.24430
#
# Poissons Ratio (x) = 0.30978 0.35140
# Poissons Ratio (y) = 0.30978 0.35140
# Poissons Ratio (z) = 0.13092 0.13092
#
# Static dielectric constant tensor:
#      x y z
#    x 2.065850 0.000000 0.000000 
#    y 0.000000 2.065850 0.000000 
#    z 0.000000 0.000000 1.899780 
# 
# From -- ./inp_files/5216.got.cif
#   From: 2010.05.17/outbox.cif.g08.bks.cpg/sg155_3_cif.got.tgz:5216.got - 2010.05.20 10:44:35.
