data_PCOD9576112
_publ_section_title
;
Structure prediction by ZEFSAII (Michael W. Deem and Ramdas Pophale) SiO2 
 PCOD9576112
Probable space group: P 31 2 1
;
_chemical_formula_sum "Si O2"
_cell_formula_units_Z 42
_cell_length_a 7.912674
_cell_length_b 7.912674
_cell_length_c 31.449504
_cell_angle_alpha 90.000000
_cell_angle_beta 90.000000
_cell_angle_gamma 120.000000
_cell_volume 1705.261467
_symmetry_space_group_name_H-M "P 31 2 1"
_symmetry_group_IT_number 152
_symmetry_cell_setting 'hexagonal'
loop_
_space_group_symop_operation_xyz
x,y,z
-y,x-y,1/3+z
-x+y,-x,2/3+z
x-y,-y,2/3-z
-x,-x+y,1/3-z
y,x,-z
loop_
_atom_site_type_symbol
_atom_site_label
_atom_site_fract_x
_atom_site_fract_y
_atom_site_fract_z
Si Si1 0.916199 0.007561 0.456908
Si Si2 0.346806 0.223355 0.322196
Si Si3 0.499382 0.961821 0.214134
Si Si4 0.633386 0.876166 0.572877
Si Si5 0.203042 0.887033 0.054854
Si Si6 0.721762 0.413185 0.706010
Si Si7 0.596548 0.200912 0.534561
O O1 0.036467 0.036467 0.500000
O O2 0.752443 0.067317 0.461474
O O3 0.816113 0.778266 0.447293
O O4 0.037747 0.118196 0.415439
O O5 0.305544 0.259887 0.274685
O O6 0.567748 0.275344 0.332151
O O7 0.264284 0.332004 0.352546
O O8 0.213245 0.000000 0.333334
O O9 0.546210 0.180636 0.206983
O O10 0.462319 0.906652 0.264033
O O11 0.335755 0.814901 0.180506
O O12 0.453847 0.712439 0.598022
O O13 0.566908 0.983100 0.539600
O O14 0.394381 0.088921 0.036630
O O15 0.265107 0.790883 0.092440
#
# Coordination Sequence:
#
# PCOD9576112 Si02
#       7
#     6   6   6   6   6   6   6
#     4  11  22  41  69 100 138 177 221 286 352 423
#     4  12  25  46  69  95 139 185 236 286 351 422
#     4  11  23  43  70 100 141 180 229 289 356 418
#     4  11  24  43  66  98 138 176 232 282 348 422
#     4  10  25  45  66 102 138 182 233 287 350 422
#     4  10  26  45  67 101 135 180 233 288 352 419
#     4  11  23  43  68 100 139 180 229 288 351 418
#
# _framework density 24.629653999999999
#
# number of rings (size 3 to 8) (size 9 to 14) (size 15 to 20)
#    0.000    1.143    2.857    3.429    6.000    0.571 
#    2.571    0.714    0.000    0.000    0.000    0.000 
#    0.000    0.000    0.000    0.000    0.000    0.000 
#
# Total GULP energy -234782.080050 kJ/mol
# GULP energy per Si atom -5590.049525 kJ/mol
# Density = 2.457360 g / cm^3
# Si number density = 24.629654 Si / 1000 Ang^3
#
#
#
# Elastic Constant Matrix: (Units=GPa)
#
#
# Indices 1 2 3 4 5 6 
#
# 1 81.2585 13.9544 16.7768 -5.0816 0.0001 0.0000
# 2 13.9544 81.2585 16.7768 5.0816 -0.0001 0.0000
# 3 16.7768 16.7768 82.7471 0.0000 0.0000 0.0000
# 4 -5.0816 5.0816 0.0000 44.9985 0.0000 -0.0001
# 5 0.0001 -0.0001 0.0000 0.0000 44.9985 -5.0816
# 6 0.0000 0.0000 0.0000 -0.0001 -5.0816 33.6521
#
#
#
# Elastic Compliance Matrix: (Units=1/GPa)
#
#
# Indices 1 2 3 4 5 6 
#
# 1 0.013213 -0.001902 -0.002293 0.001707 0.000000 0.000000
# 2 -0.001902 0.013213 -0.002293 -0.001707 0.000000 0.000000
# 3 -0.002293 -0.002293 0.013015 0.000000 0.000000 0.000000
# 4 0.001707 -0.001707 0.000000 0.022608 0.000000 0.000000
# 5 0.000000 0.000000 0.000000 0.000000 0.022608 0.003414
# 6 0.000000 0.000000 0.000000 0.000000 0.003414 0.030231
#
#
# Mechanical properties :
#
#
# Convention : Reuss Voigt Hill
#
# Bulk Modulus (GPa) = 37.78755 37.80888 37.79821
# Shear Modulus (GPa) = 36.57940 37.91357 37.24648
#
# Velocity S-wave (km/s) = 3.85798 3.92771 3.89300
# Velocity P-wave (km/s) = 5.93472 5.99612 5.96550
#
# Compressibility (1/GPa) = 0.02646375
#
# Stress axis : x y z
#
# Youngs Moduli (GPa) = 75.68124 75.68124 76.83493
#
# Poissons Ratio (x) = 0.14397 0.17620
# Poissons Ratio (y) = 0.14397 0.17620
# Poissons Ratio (z) = 0.17356 0.17356
#
# Static dielectric constant tensor:
#      x y z
#    x 1.962070 0.000000 0.000000 
#    y 0.000000 1.962070 0.000000 
#    z 0.000000 0.000000 2.014550 
# 
# From -- ./inp_files/3707.got.cif
#   From: 2010.05.17/outbox.cif.g08.bks.cpg/sg152_2_cif.got.tgz:3707.got - 2010.05.20 10:36:06.
