data_PCOD9576996
_publ_section_title
;
Structure prediction by ZEFSAII (Michael W. Deem and Ramdas Pophale) SiO2 
 PCOD9576996
Probable space group: R 3 2
;
_chemical_formula_sum "Si O2"
_cell_formula_units_Z 126
_cell_length_a 17.110592
_cell_length_b 17.110592
_cell_length_c 23.673829
_cell_angle_alpha 90.000000
_cell_angle_beta 90.000000
_cell_angle_gamma 120.000000
_cell_volume 6002.459099
_symmetry_space_group_name_H-M "R 3 2"
_symmetry_group_IT_number 155
_symmetry_cell_setting 'hexagonal'
loop_
_space_group_symop_operation_xyz
x,y,z
-y,x-y,z
-x+y,-x,z
x-y,-y,-z
-x,-x+y,-z
y,x,-z
2/3+x,1/3+y,1/3+z
2/3-y,1/3+x-y,1/3+z
2/3-x+y,1/3-x,1/3+z
2/3+x-y,1/3-y,1/3-z
2/3-x,1/3-x+y,1/3-z
2/3+y,1/3+x,1/3-z
1/3+x,2/3+y,2/3+z
1/3-y,2/3+x-y,2/3+z
1/3-x+y,2/3-x,2/3+z
1/3+x-y,2/3-y,2/3-z
1/3-x,2/3-x+y,2/3-z
1/3+y,2/3+x,2/3-z
loop_
_atom_site_type_symbol
_atom_site_label
_atom_site_fract_x
_atom_site_fract_y
_atom_site_fract_z
Si Si1 0.875959 0.103018 0.660816
Si Si2 0.118386 0.358059 0.634989
Si Si3 0.734280 0.106011 0.048713
Si Si4 0.863880 0.054365 0.178492
Si Si5 0.689581 0.153543 0.394471
Si Si6 0.279792 0.811955 0.442980
Si Si7 0.378266 0.921119 0.107270
O O1 0.840619 0.173952 0.666667
O O2 0.952756 0.133597 0.708506
O O3 0.909183 0.117188 0.596433
O O4 0.791795 0.009805 0.682589
O O5 0.083779 0.417112 0.666667
O O6 0.162498 0.322547 0.681942
O O7 0.204552 0.419233 0.595151
O O8 0.035315 0.282008 0.599660
O O9 0.739445 0.133395 0.114030
O O10 0.720570 0.005785 0.054390
O O11 0.959966 0.137639 0.193668
O O12 0.855617 0.039862 0.111679
O O13 0.838102 0.955247 0.200891
O O14 0.666667 0.178801 0.333334
O O15 0.240827 0.880299 0.450857
O O16 0.333334 0.876274 0.166667
#
# Coordination Sequence:
#
# PCOD9576996 Si02
#       7
#    18  18  18  18  18  18  18
#     4   9  18  37  60  88 123 158 203 259 310 357
#     4  11  22  40  62  89 121 158 204 252 308 366
#     4  10  21  39  65  87 115 161 210 255 303 367
#     4  11  21  38  59  87 121 161 209 256 305 363
#     4  10  23  38  55  85 121 156 197 247 303 361
#     4  10  22  37  60  89 121 161 209 259 302 360
#     4  11  22  37  60  93 124 157 200 254 312 366
#
# _framework density 20.991396000000002
#
# number of rings (size 3 to 8) (size 9 to 14) (size 15 to 20)
#    0.000    1.714    0.000    5.857    0.000    5.714 
#    0.000    3.571    0.000    8.286    0.000    0.000 
#    0.000    0.000    0.000    0.000    0.000    0.000 
#
# Total GULP energy -234104.356026 kJ/mol
# GULP energy per Si atom -5573.913239 kJ/mol
# Density = 2.094362 g / cm^3
# Si number density = 20.991396 Si / 1000 Ang^3
#
#
#
# Elastic Constant Matrix: (Units=GPa)
#
#
# Indices 1 2 3 4 5 6 
#
# 1 59.3394 9.5855 39.6380 3.9286 0.0000 0.0000
# 2 9.5855 59.3394 39.6380 -3.9286 0.0000 0.0000
# 3 39.6380 39.6380 168.1699 0.0000 0.0000 0.0000
# 4 3.9286 -3.9286 0.0000 16.2854 0.0000 0.0000
# 5 0.0000 0.0000 0.0000 0.0000 16.2854 3.9286
# 6 0.0000 0.0000 0.0000 0.0000 3.9286 24.8769
#
#
#
# Elastic Compliance Matrix: (Units=1/GPa)
#
#
# Indices 1 2 3 4 5 6 
#
# 1 0.020400 -0.000495 -0.004692 -0.005041 0.000000 0.000000
# 2 -0.000495 0.020400 -0.004692 0.005041 0.000000 0.000000
# 3 -0.004692 -0.004692 0.008158 0.000000 0.000000 0.000000
# 4 -0.005041 0.005041 0.000000 0.063836 0.000000 0.000000
# 5 0.000000 0.000000 0.000000 0.000000 0.063836 -0.010081
# 6 0.000000 0.000000 0.000000 0.000000 -0.010081 0.041790
#
#
# Mechanical properties :
#
#
# Convention : Reuss Voigt Hill
#
# Bulk Modulus (GPa) = 34.24529 51.61908 42.93218
# Shear Modulus (GPa) = 20.16855 24.68870 22.42863
#
# Velocity S-wave (km/s) = 3.10304 3.43320 3.27229
# Velocity P-wave (km/s) = 5.40258 6.35294 5.89693
#
# Compressibility (1/GPa) = 0.02920110
#
# Stress axis : x y z
#
# Youngs Moduli (GPa) = 49.02000 49.02000 122.57909
#
# Poissons Ratio (x) = 0.02427 0.57509
# Poissons Ratio (y) = 0.02427 0.57509
# Poissons Ratio (z) = 0.22998 0.22998
#
# Static dielectric constant tensor:
#      x y z
#    x 1.788830 0.000000 0.000000 
#    y 0.000000 1.788830 0.000000 
#    z 0.000000 0.000000 1.834040 
# 
# From -- ./inp_files/7538.got.cif
#   From: 2010.05.17/outbox.cif.g08.bks.cpg/sg155_4_cif.got.tgz:7538.got - 2010.05.20 10:44:35.
