data_PCOD9576897
_publ_section_title
;
Structure prediction by ZEFSAII (Michael W. Deem and Ramdas Pophale) SiO2 
 PCOD9576897
Probable space group: R 3 2
;
_chemical_formula_sum "Si O2"
_cell_formula_units_Z 105
_cell_length_a 18.996012
_cell_length_b 18.996012
_cell_length_c 15.168605
_cell_angle_alpha 90.000000
_cell_angle_beta 90.000000
_cell_angle_gamma 120.000000
_cell_volume 4740.248881
_symmetry_space_group_name_H-M "R 3 2"
_symmetry_group_IT_number 155
_symmetry_cell_setting 'hexagonal'
loop_
_space_group_symop_operation_xyz
x,y,z
-y,x-y,z
-x+y,-x,z
x-y,-y,-z
-x,-x+y,-z
y,x,-z
2/3+x,1/3+y,1/3+z
2/3-y,1/3+x-y,1/3+z
2/3-x+y,1/3-x,1/3+z
2/3+x-y,1/3-y,1/3-z
2/3-x,1/3-x+y,1/3-z
2/3+y,1/3+x,1/3-z
1/3+x,2/3+y,2/3+z
1/3-y,2/3+x-y,2/3+z
1/3-x+y,2/3-x,2/3+z
1/3+x-y,2/3-y,2/3-z
1/3-x,2/3-x+y,2/3-z
1/3+y,2/3+x,2/3-z
loop_
_atom_site_type_symbol
_atom_site_label
_atom_site_fract_x
_atom_site_fract_y
_atom_site_fract_z
Si Si1 0.640000 0.809911 0.934377
Si Si2 0.666668 0.333334 0.936322
Si Si3 0.779429 0.054380 0.420825
Si Si4 0.115576 0.448909 0.666667
Si Si5 0.981410 0.174497 0.806718
Si Si6 0.489312 0.259983 0.669214
Si Si7 0.200981 0.912961 0.463611
O O1 0.666667 0.835550 0.833334
O O2 0.549449 0.731247 0.917971
O O3 0.651155 0.885627 0.994826
O O4 0.696022 0.777609 0.980473
O O5 0.666668 0.333334 0.833334
O O6 0.633726 0.391307 0.967147
O O7 0.846384 0.131060 0.474582
O O8 0.715734 0.000000 0.500000
O O9 0.809786 0.995205 0.381036
O O10 0.163863 0.490500 0.577105
O O11 0.910801 0.089215 0.767840
O O12 0.945257 0.235243 0.800204
O O13 0.415086 0.176375 0.705087
O O14 0.225516 0.000000 0.500000
#
# Coordination Sequence:
#
# PCOD9576897 Si02
#       7
#    18   6  18   9  18  18  18
#     4  10  20  35  60  92 125 163 211 277 346 407
#     4  12  21  39  57  79 116 157 204 240 297 381
#     4  10  21  37  56  85 127 172 210 253 322 407
#     4  10  20  36  58  92 120 158 202 276 354 396
#     4  11  22  33  56  88 126 157 203 267 336 400
#     4  11  23  33  55  88 119 165 205 249 309 389
#     4  11  19  33  57  85 123 159 199 257 327 398
#
# _framework density 22.150736999999999
#
# number of rings (size 3 to 8) (size 9 to 14) (size 15 to 20)
#    0.000    1.371    1.714    7.200    2.400    0.000 
#    0.000    0.000    0.000   16.457    0.000    0.000 
#    0.000    0.000    0.000    0.000    0.000    0.000 
#
# Total GULP energy -194930.900697 kJ/mol
# GULP energy per Si atom -5569.454306 kJ/mol
# Density = 2.210032 g / cm^3
# Si number density = 22.150737 Si / 1000 Ang^3
#
#
#
# Elastic Constant Matrix: (Units=GPa)
#
#
# Indices 1 2 3 4 5 6 
#
# 1 10.7235 31.2531 14.2567 15.8469 -0.0002 -0.0002
# 2 31.2531 10.7234 14.2561 -15.8466 0.0001 0.0003
# 3 14.2567 14.2561 128.7691 -0.0001 -0.0001 0.0000
# 4 15.8469 -15.8466 -0.0001 22.8474 0.0000 0.0004
# 5 -0.0002 0.0001 -0.0001 0.0000 22.8476 15.8470
# 6 -0.0002 0.0003 0.0000 0.0004 15.8470 -10.2650
#
#
#
# Elastic Compliance Matrix: (Units=1/GPa)
#
#
# Indices 1 2 3 4 5 6 
#
# 1 0.001118 0.024641 -0.002852 0.016315 -0.000001 0.000001
# 2 0.024641 0.001119 -0.002852 -0.016315 0.000000 0.000000
# 3 -0.002852 -0.002852 0.008397 0.000000 0.000000 0.000000
# 4 0.016315 -0.016315 0.000000 0.021137 0.000000 0.000000
# 5 -0.000001 0.000000 0.000000 0.000000 0.021136 0.032630
# 6 0.000001 0.000000 0.000000 0.000000 0.032630 -0.047045
#
#
# Mechanical properties :
#
#
# Convention : Reuss Voigt Hill
#
# Bulk Modulus (GPa) = 20.61453 29.97199 25.29326
# Shear Modulus (GPa) = -315.60950 13.11601 -151.24674
#
# Velocity S-wave (km/s) = -11.94956 2.43600 -8.27218
# Velocity P-wave (km/s) = 13.45595 4.63384 8.93281
#
# Compressibility (1/GPa) = 0.04850948
#
# Stress axis : x y z
#
# Youngs Moduli (GPa) = 894.08116 893.87135 119.08541
#
# Poissons Ratio (x) = -22.02624 0.33962
# Poissons Ratio (y) = -22.03141 0.33964
# Poissons Ratio (z) = 2.54982 2.54935
#
# Static dielectric constant tensor:
#      x y z
#    x 1.816700 0.000000 0.000000 
#    y 0.000000 1.816700 0.000000 
#    z 0.000000 0.000000 1.928510 
# 
# From -- ./inp_files/5179.got.cif
#   From: 2010.05.17/outbox.cif.g08.bks.cpg/sg155_3_cif.got.tgz:5179.got - 2010.05.20 10:44:35.
