data_PCOD9576774
_publ_section_title
;
Structure prediction by ZEFSAII (Michael W. Deem and Ramdas Pophale) SiO2 
 PCOD9576774
Probable space group: R 3 2
;
_chemical_formula_sum "Si O2"
_cell_formula_units_Z 144
_cell_length_a 23.262391
_cell_length_b 23.262391
_cell_length_c 16.324256
_cell_angle_alpha 90.000000
_cell_angle_beta 90.000000
_cell_angle_gamma 120.000000
_cell_volume 7650.198975
_symmetry_space_group_name_H-M "R 3 2"
_symmetry_group_IT_number 155
_symmetry_cell_setting 'hexagonal'
loop_
_space_group_symop_operation_xyz
x,y,z
-y,x-y,z
-x+y,-x,z
x-y,-y,-z
-x,-x+y,-z
y,x,-z
2/3+x,1/3+y,1/3+z
2/3-y,1/3+x-y,1/3+z
2/3-x+y,1/3-x,1/3+z
2/3+x-y,1/3-y,1/3-z
2/3-x,1/3-x+y,1/3-z
2/3+y,1/3+x,1/3-z
1/3+x,2/3+y,2/3+z
1/3-y,2/3+x-y,2/3+z
1/3-x+y,2/3-x,2/3+z
1/3+x-y,2/3-y,2/3-z
1/3-x,2/3-x+y,2/3-z
1/3+y,2/3+x,2/3-z
loop_
_atom_site_type_symbol
_atom_site_label
_atom_site_fract_x
_atom_site_fract_y
_atom_site_fract_z
Si Si1 0.076825 0.287758 0.094855
Si Si2 0.724675 0.143713 0.989410
Si Si3 0.604990 0.526067 0.489174
Si Si4 0.743043 0.621478 0.746062
Si Si5 0.856287 0.275325 0.989410
Si Si6 0.545103 0.954811 0.079395
Si Si7 0.589841 0.045575 0.238478
Si Si8 0.859400 0.587744 0.177493
O O1 0.086577 0.334059 0.174474
O O2 0.095240 0.339414 0.020565
O O3 0.134215 0.268431 0.098982
O O4 0.003416 0.226597 0.100710
O O5 0.784266 0.215735 0.962689
O O6 0.659715 0.111613 0.933916
O O7 0.755826 0.095240 0.979435
O O8 0.709003 0.148059 0.084093
O O9 0.573421 0.573421 0.500000
O O10 0.624331 0.518608 0.582574
O O11 0.545219 0.454782 0.460921
O O12 0.752593 0.666667 0.666667
O O13 0.673619 0.555055 0.732751
O O14 0.803578 0.607156 0.747134
O O15 0.580089 0.999274 0.158860
O O16 0.580741 0.000000 0.000000
O O17 0.663250 0.106736 0.232623
O O18 0.906754 0.666667 0.166667
#
# Coordination Sequence:
#
# PCOD9576774 Si02
#       8
#    18  18  18  18  18  18  18  18
#     4  10  20  32  49  72  96 124 159 197 240 286
#     4  10  20  32  47  70  97 126 158 197 239 281
#     4  10  20  32  47  68  95 126 156 192 240 287
#     4  10  18  29  48  72  94 123 158 193 237 285
#     4  10  20  32  47  70  97 126 158 197 239 281
#     4  10  18  29  48  72  94 123 158 193 237 285
#     4  10  20  32  49  72  96 124 159 197 240 286
#     4  10  20  32  47  68  95 126 156 192 240 287
#
# _framework density 18.823041
#
# number of rings (size 3 to 8) (size 9 to 14) (size 15 to 20)
#    0.000    2.000    2.500    2.250    0.000    0.000 
#    0.000    0.000    0.000    1.000    0.000    0.000 
#    0.000    6.000    0.000   12.500    0.000    3.000 
#
# Total GULP energy -268154.819132 kJ/mol
# GULP energy per Si atom -5586.558732 kJ/mol
# Density = 1.878020 g / cm^3
# Si number density = 18.823041 Si / 1000 Ang^3
#
#
#
# Elastic Constant Matrix: (Units=GPa)
#
#
# Indices 1 2 3 4 5 6 
#
# 1 102.9129 35.4991 9.5145 -2.5492 -0.0001 0.0000
# 2 35.4991 102.9129 9.5145 2.5492 0.0001 0.0000
# 3 9.5145 9.5145 67.0056 0.0000 0.0000 0.0000
# 4 -2.5492 2.5492 0.0000 18.4488 0.0000 0.0001
# 5 -0.0001 0.0001 0.0000 0.0000 18.4488 -2.5492
# 6 0.0000 0.0000 0.0000 0.0001 -2.5492 33.7069
#
#
#
# Elastic Compliance Matrix: (Units=1/GPa)
#
#
# Indices 1 2 3 4 5 6 
#
# 1 0.011180 -0.003811 -0.001046 0.002071 0.000000 0.000000
# 2 -0.003811 0.011180 -0.001046 -0.002071 0.000000 0.000000
# 3 -0.001046 -0.001046 0.015221 0.000000 0.000000 0.000000
# 4 0.002071 -0.002071 0.000000 0.054777 0.000000 0.000000
# 5 0.000000 0.000000 0.000000 0.000000 0.054777 0.004143
# 6 0.000000 0.000000 0.000000 0.000000 0.004143 0.029981
#
#
# Mechanical properties :
#
#
# Convention : Reuss Voigt Hill
#
# Bulk Modulus (GPa) = 38.79981 42.43195 40.61588
# Shear Modulus (GPa) = 25.31488 28.67446 26.99467
#
# Velocity S-wave (km/s) = 3.67125 3.90727 3.79110
# Velocity P-wave (km/s) = 6.21518 6.55341 6.38653
#
# Compressibility (1/GPa) = 0.02577332
#
# Stress axis : x y z
#
# Youngs Moduli (GPa) = 89.44925 89.44925 65.69756
#
# Poissons Ratio (x) = 0.34088 0.06874
# Poissons Ratio (y) = 0.34088 0.06874
# Poissons Ratio (z) = 0.09359 0.09359
#
# Static dielectric constant tensor:
#      x y z
#    x 1.640550 0.000000 0.000000 
#    y 0.000000 1.640550 0.000000 
#    z 0.000000 0.000000 1.732880 
# 
# From -- ./inp_files/6388.got.cif
#   From: 2010.05.17/outbox.cif.g08.bks.cpg/sg155_4_cif.got.tgz:6388.got - 2010.05.20 10:44:35.
