data_PCOD9576625
_publ_section_title
;
Structure prediction by ZEFSAII (Michael W. Deem and Ramdas Pophale) SiO2 
 PCOD9576625
Probable space group: P 32 2 1
;
_chemical_formula_sum "Si O2"
_cell_formula_units_Z 42
_cell_length_a 9.870366
_cell_length_b 9.870366
_cell_length_c 22.239736
_cell_angle_alpha 90.000000
_cell_angle_beta 90.000000
_cell_angle_gamma 120.000000
_cell_volume 1876.405828
_symmetry_space_group_name_H-M "P 32 2 1"
_symmetry_group_IT_number 154
_symmetry_cell_setting 'hexagonal'
loop_
_space_group_symop_operation_xyz
x,y,z
-y,x-y,2/3+z
-x+y,-x,1/3+z
x-y,-y,1/3-z
-x,-x+y,2/3-z
y,x,-z
loop_
_atom_site_type_symbol
_atom_site_label
_atom_site_fract_x
_atom_site_fract_y
_atom_site_fract_z
Si Si1 0.901274 0.591155 0.933652
Si Si2 0.939861 0.496993 0.565035
Si Si3 0.753126 0.234073 0.484816
Si Si4 0.058664 0.414050 0.976154
Si Si5 0.429763 0.609077 0.979463
Si Si6 0.161154 0.222546 0.703339
Si Si7 0.982609 0.150269 0.204615
O O1 0.851972 0.671171 0.881524
O O2 0.748010 0.483533 0.972856
O O3 0.991034 0.492514 0.929159
O O4 0.012055 0.743620 0.974551
O O5 0.085036 0.581306 0.518933
O O6 0.785373 0.363120 0.533967
O O7 0.985443 0.433789 0.623910
O O8 0.915778 0.637792 0.586179
O O9 0.797780 0.310274 0.418676
O O10 0.887697 0.190356 0.496720
O O11 0.244673 0.505045 0.975183
O O12 0.990677 0.230266 0.967852
O O13 0.509964 0.509964 0.000000
O O14 0.144187 0.066215 0.733152
O O15 0.945072 0.000000 0.166667
#
# Coordination Sequence:
#
# PCOD9576625 Si02
#       7
#     6   6   6   6   6   6   6
#     4  11  20  44  69  91 131 176 222 271 329 394
#     4  10  24  41  66  93 139 175 220 283 344 398
#     4  11  24  42  62  99 134 181 220 287 343 403
#     4  11  25  40  70 101 128 171 235 275 328 405
#     4  12  23  43  68  97 131 178 223 271 337 406
#     4  10  22  44  64  95 134 174 213 284 331 393
#     4  11  24  40  68  96 134 179 228 270 342 409
#
# _framework density 22.383216999999998
#
# number of rings (size 3 to 8) (size 9 to 14) (size 15 to 20)
#    0.000    1.143    5.714    2.143    4.000    4.571 
#    0.000    0.714    0.000    0.000    0.000    0.000 
#    0.000    0.000    0.000    0.000    0.000    0.000 
#
# Total GULP energy -234808.481320 kJ/mol
# GULP energy per Si atom -5590.678127 kJ/mol
# Density = 2.233227 g / cm^3
# Si number density = 22.383217 Si / 1000 Ang^3
#
#
#
# Elastic Constant Matrix: (Units=GPa)
#
#
# Indices 1 2 3 4 5 6 
#
# 1 69.7711 27.1017 -11.7020 -19.7130 0.0001 0.0000
# 2 27.1017 69.7711 -11.7020 19.7130 -0.0001 0.0000
# 3 -11.7020 -11.7020 21.5448 0.0000 0.0000 0.0000
# 4 -19.7130 19.7130 0.0000 19.3156 0.0000 -0.0001
# 5 0.0001 -0.0001 0.0000 0.0000 19.3156 -19.7130
# 6 0.0000 0.0000 0.0000 -0.0001 -19.7130 21.3347
#
#
#
# Elastic Compliance Matrix: (Units=1/GPa)
#
#
# Indices 1 2 3 4 5 6 
#
# 1 0.211531 -0.199649 0.006454 0.419641 -0.000002 0.000000
# 2 -0.199649 0.211531 0.006454 -0.419641 0.000002 0.000000
# 3 0.006454 0.006454 0.053425 0.000000 0.000000 0.000000
# 4 0.419641 -0.419641 0.000000 0.908323 0.000000 0.000004
# 5 -0.000002 0.000002 0.000000 0.000000 0.908323 0.839282
# 6 0.000000 0.000000 0.000000 0.000004 0.839282 0.822360
#
#
# Mechanical properties :
#
#
# Convention : Reuss Voigt Hill
#
# Bulk Modulus (GPa) = 9.70835 18.72025 14.21430
# Shear Modulus (GPa) = 1.41912 22.48580 11.95246
#
# Velocity S-wave (km/s) = 0.79711 3.17295 2.31333
# Velocity P-wave (km/s) = 2.27902 4.66960 3.67418
#
# Compressibility (1/GPa) = 0.10300411
#
# Stress axis : x y z
#
# Youngs Moduli (GPa) = 4.72744 4.72744 18.71769
#
# Poissons Ratio (x) = 0.94383 -0.12080
# Poissons Ratio (y) = 0.94383 -0.12080
# Poissons Ratio (z) = -0.03051 -0.03051
#
# Static dielectric constant tensor:
#      x y z
#    x 1.907520 0.000000 0.000000 
#    y 0.000000 1.907520 0.000000 
#    z 0.000000 0.000000 1.854590 
# 
# From -- ./inp_files/3790.got.cif
#   From: 2010.05.17/outbox.cif.g08.bks.cpg/sg154_2_cif.got.tgz:3790.got - 2010.05.20 10:41:43.
