data_PCOD9576903
_publ_section_title
;
Structure prediction by ZEFSAII (Michael W. Deem and Ramdas Pophale) SiO2 
 PCOD9576903
Probable space group: R 3 2
;
_chemical_formula_sum "Si O2"
_cell_formula_units_Z 144
_cell_length_a 21.689649
_cell_length_b 21.689649
_cell_length_c 19.456071
_cell_angle_alpha 90.000000
_cell_angle_beta 90.000000
_cell_angle_gamma 120.000000
_cell_volume 7926.670800
_symmetry_space_group_name_H-M "R 3 2"
_symmetry_group_IT_number 155
_symmetry_cell_setting 'hexagonal'
loop_
_space_group_symop_operation_xyz
x,y,z
-y,x-y,z
-x+y,-x,z
x-y,-y,-z
-x,-x+y,-z
y,x,-z
2/3+x,1/3+y,1/3+z
2/3-y,1/3+x-y,1/3+z
2/3-x+y,1/3-x,1/3+z
2/3+x-y,1/3-y,1/3-z
2/3-x,1/3-x+y,1/3-z
2/3+y,1/3+x,1/3-z
1/3+x,2/3+y,2/3+z
1/3-y,2/3+x-y,2/3+z
1/3-x+y,2/3-x,2/3+z
1/3+x-y,2/3-y,2/3-z
1/3-x,2/3-x+y,2/3-z
1/3+y,2/3+x,2/3-z
loop_
_atom_site_type_symbol
_atom_site_label
_atom_site_fract_x
_atom_site_fract_y
_atom_site_fract_z
Si Si1 0.168022 0.604072 0.422352
Si Si2 0.515944 0.912200 0.285765
Si Si3 0.270739 0.769384 0.410981
Si Si4 0.421134 0.150723 0.452432
Si Si5 0.083047 0.822277 0.014126
Si Si6 0.435799 0.507124 0.043110
Si Si7 0.594103 0.749714 0.152540
Si Si8 0.897534 0.159543 0.123557
O O1 0.115828 0.598279 0.360959
O O2 0.225650 0.686580 0.431127
O O3 0.205736 0.558983 0.402206
O O4 0.124344 0.569275 0.491587
O O5 0.558301 0.871432 0.267773
O O6 0.452714 0.897531 0.233308
O O7 0.568338 0.997078 0.288524
O O8 0.264945 0.815784 0.472374
O O9 0.235941 0.778263 0.341745
O O10 0.435803 0.213953 0.399975
O O11 0.336256 0.098329 0.455191
O O12 0.461902 0.108366 0.434440
O O13 0.125543 0.849028 0.942719
O O14 0.000000 0.791040 0.000000
O O15 0.484306 0.541123 0.109385
O O16 0.458108 0.458108 0.000000
O O17 0.542295 0.666667 0.166667
O O18 0.875225 0.208558 0.166667
#
# Coordination Sequence:
#
# PCOD9576903 Si02
#       8
#    18  18  18  18  18  18  18  18
#     4  10  20  36  58  84 115 152 196 241 291 347
#     4  10  22  38  58  86 118 155 195 244 296 355
#     4  10  20  36  58  84 115 152 196 241 291 347
#     4  10  22  38  58  86 118 155 195 244 296 355
#     4  11  22  39  58  87 120 155 196 245 299 356
#     4  11  21  38  60  85 118 156 197 242 296 352
#     4  11  22  39  58  87 120 155 196 245 299 356
#     4  11  21  38  60  85 118 156 197 242 296 352
#
# _framework density 18.166516999999999
#
# number of rings (size 3 to 8) (size 9 to 14) (size 15 to 20)
#    0.000    1.500    2.500    3.250    0.000    0.000 
#    0.000    0.000    0.000    7.000    0.000    0.000 
#    0.000    0.000    0.000    0.000    0.000    0.000 
#
# Total GULP energy -268111.510984 kJ/mol
# GULP energy per Si atom -5585.656479 kJ/mol
# Density = 1.812517 g / cm^3
# Si number density = 18.166517 Si / 1000 Ang^3
#
#
#
# Elastic Constant Matrix: (Units=GPa)
#
#
# Indices 1 2 3 4 5 6 
#
# 1 70.3929 32.0408 9.9801 -1.1802 0.0001 0.0000
# 2 32.0408 70.3929 9.9801 1.1802 -0.0001 0.0000
# 3 9.9801 9.9801 40.5034 0.0000 0.0000 0.0000
# 4 -1.1802 1.1802 0.0000 26.8741 0.0000 -0.0001
# 5 0.0001 -0.0001 0.0000 0.0000 26.8741 -1.1802
# 6 0.0000 0.0000 0.0000 -0.0001 -1.1802 19.1761
#
#
#
# Elastic Compliance Matrix: (Units=1/GPa)
#
#
# Indices 1 2 3 4 5 6 
#
# 1 0.018200 -0.007945 -0.002527 0.001148 0.000000 0.000000
# 2 -0.007945 0.018200 -0.002527 -0.001148 0.000000 0.000000
# 3 -0.002527 -0.002527 0.025935 0.000000 0.000000 0.000000
# 4 0.001148 -0.001148 0.000000 0.037311 0.000000 0.000000
# 5 0.000000 0.000000 0.000000 0.000000 0.037311 0.002296
# 6 0.000000 0.000000 0.000000 0.000000 0.002296 0.052290
#
#
# Mechanical properties :
#
#
# Convention : Reuss Voigt Hill
#
# Bulk Modulus (GPa) = 27.52025 31.69904 29.60964
# Shear Modulus (GPa) = 21.99192 23.20406 22.59799
#
# Velocity S-wave (km/s) = 3.48311 3.57781 3.53077
# Velocity P-wave (km/s) = 5.59980 5.87832 5.74075
#
# Compressibility (1/GPa) = 0.03633688
#
# Stress axis : x y z
#
# Youngs Moduli (GPa) = 54.94562 54.94562 38.55863
#
# Poissons Ratio (x) = 0.43654 0.09743
# Poissons Ratio (y) = 0.43654 0.09743
# Poissons Ratio (z) = 0.13884 0.13884
#
# Static dielectric constant tensor:
#      x y z
#    x 1.598850 0.000000 0.000000 
#    y 0.000000 1.598850 0.000000 
#    z 0.000000 0.000000 1.614880 
# 
# From -- ./inp_files/7040.got.cif
#   From: 2010.05.17/outbox.cif.g08.bks.cpg/sg155_4_cif.got.tgz:7040.got - 2010.05.20 10:44:35.
