data_PCOD9576026
_publ_section_title
;
Structure prediction by ZEFSAII (Michael W. Deem and Ramdas Pophale) SiO2 
 PCOD9576026
Probable space group: P 31 2 1
;
_chemical_formula_sum "Si O2"
_cell_formula_units_Z 24
_cell_length_a 9.674344
_cell_length_b 9.674344
_cell_length_c 11.677589
_cell_angle_alpha 90.000000
_cell_angle_beta 90.000000
_cell_angle_gamma 120.000000
_cell_volume 946.513624
_symmetry_space_group_name_H-M "P 31 2 1"
_symmetry_group_IT_number 152
_symmetry_cell_setting 'hexagonal'
loop_
_space_group_symop_operation_xyz
x,y,z
-y,x-y,1/3+z
-x+y,-x,2/3+z
x-y,-y,2/3-z
-x,-x+y,1/3-z
y,x,-z
loop_
_atom_site_type_symbol
_atom_site_label
_atom_site_fract_x
_atom_site_fract_y
_atom_site_fract_z
Si Si1 0.598062 0.840389 0.491960
Si Si2 0.150532 0.977509 0.006720
Si Si3 0.948884 0.395316 0.849986
Si Si4 0.859681 0.496132 0.091911
O O1 0.731891 0.861792 0.403763
O O2 0.498499 0.927994 0.472626
O O3 0.473513 0.653955 0.493893
O O4 0.192763 0.490104 0.571720
O O5 0.265956 0.001500 0.114036
O O6 0.117335 0.814129 0.944846
O O7 0.991576 0.991576 0.000000
O O8 0.894215 0.444922 0.968941
O O9 0.000000 0.638326 0.166667
#
# Coordination Sequence:
#
# PCOD9576026 Si02
#       4
#     6   6   6   6
#     4  10  22  42  62  96 130 173 224 280 339 397
#     4  10  22  42  66  91 134 179 218 287 348 399
#     4  11  24  41  70 102 133 182 233 279 343 418
#     4  11  21  43  68  96 136 181 222 280 344 409
#
# _framework density 25.356210000000001
#
# number of rings (size 3 to 8) (size 9 to 14) (size 15 to 20)
#    0.000    1.500    5.000    3.000    3.500    0.000 
#   13.500    0.000    0.000    0.000    0.000    0.000 
#    0.000    0.000    0.000    0.000    0.000    0.000 
#
# Total GULP energy -134028.686294 kJ/mol
# GULP energy per Si atom -5584.528596 kJ/mol
# Density = 2.529850 g / cm^3
# Si number density = 25.356210 Si / 1000 Ang^3
#
#
#
# Elastic Constant Matrix: (Units=GPa)
#
#
# Indices 1 2 3 4 5 6 
#
# 1 98.6341 41.8123 13.1893 22.4147 -0.0003 0.0000
# 2 41.8123 98.6341 13.1893 -22.4147 0.0003 0.0000
# 3 13.1893 13.1893 68.3173 0.0000 0.0000 0.0000
# 4 22.4147 -22.4147 0.0000 -7.6420 0.0000 0.0003
# 5 -0.0003 0.0003 0.0000 0.0000 -7.6420 22.4147
# 6 0.0000 0.0000 0.0000 0.0003 22.4147 28.4109
#
#
#
# Elastic Compliance Matrix: (Units=1/GPa)
#
#
# Indices 1 2 3 4 5 6 
#
# 1 0.006349 0.001039 -0.001426 0.015576 0.000000 0.000000
# 2 0.001039 0.006349 -0.001426 -0.015576 0.000000 0.000000
# 3 -0.001426 -0.001426 0.015188 0.000000 0.000000 0.000000
# 4 0.015576 -0.015576 0.000000 -0.039485 0.000000 0.000000
# 5 0.000000 0.000000 0.000000 0.000000 -0.039485 0.031152
# 6 0.000000 0.000000 0.000000 0.000000 0.031152 0.010621
#
#
# Mechanical properties :
#
#
# Convention : Reuss Voigt Hill
#
# Bulk Modulus (GPa) = 41.22166 44.66301 42.94234
# Shear Modulus (GPa) = -173.92146 15.78502 -79.06822
#
# Velocity S-wave (km/s) = -8.29097 2.49776 -5.59023
# Velocity P-wave (km/s) = 8.68109 5.09617 4.96942
#
# Compressibility (1/GPa) = 0.02425909
#
# Stress axis : x y z
#
# Youngs Moduli (GPa) = 157.49978 157.49978 65.84014
#
# Poissons Ratio (x) = -0.16362 0.09391
# Poissons Ratio (y) = -0.16362 0.09391
# Poissons Ratio (z) = 0.22465 0.22465
#
# Static dielectric constant tensor:
#      x y z
#    x 2.087820 0.000000 0.000000 
#    y 0.000000 2.087820 0.000000 
#    z 0.000000 0.000000 2.066110 
# 
# From -- ./inp_files/2902.got.cif
#   From: 2010.05.17/outbox.cif.g08.bks.cpg/sg152_2_cif.got.tgz:2902.got - 2010.05.20 10:36:06.
