data_PCOD9576303
_publ_section_title
;
Structure prediction by ZEFSAII (Michael W. Deem and Ramdas Pophale) SiO2 
 PCOD9576303
Probable space group: P 32 1 2
;
_chemical_formula_sum "Si O2"
_cell_formula_units_Z 30
_cell_length_a 15.088176
_cell_length_b 15.088176
_cell_length_c 8.129892
_cell_angle_alpha 90.000000
_cell_angle_beta 90.000000
_cell_angle_gamma 120.000000
_cell_volume 1602.835271
_symmetry_space_group_name_H-M "P 32 1 2"
_symmetry_group_IT_number 153
_symmetry_cell_setting 'hexagonal'
loop_
_space_group_symop_operation_xyz
x,y,z
-y,x-y,2/3+z
-x+y,-x,1/3+z
-y,-x,1/3-z
-x+y,y,2/3-z
x,x-y,-z
loop_
_atom_site_type_symbol
_atom_site_label
_atom_site_fract_x
_atom_site_fract_y
_atom_site_fract_z
Si Si1 0.883726 0.116275 0.666667
Si Si2 0.465870 0.732935 0.000000
Si Si3 0.308227 0.817998 0.014434
Si Si4 0.664075 0.055580 0.621745
Si Si5 0.940738 0.970369 0.500000
Si Si6 0.492918 0.300779 0.666670
Si Si7 0.819640 0.409820 0.500000
O O1 0.766557 0.076465 0.718418
O O2 0.967419 0.118918 0.796446
O O3 0.525617 0.780587 0.830706
O O4 0.393374 0.610753 0.977400
O O5 0.234527 0.765474 0.166667
O O6 0.356059 0.937723 0.036908
O O7 0.703344 0.105047 0.441169
O O8 0.608203 0.112596 0.701008
O O9 0.006763 0.013525 0.333334
O O10 0.578834 0.421167 0.666667
O O11 0.465301 0.232651 0.500000
O O12 0.549598 0.251926 0.765661
#
# Coordination Sequence:
#
# PCOD9576303 Si02
#       7
#     3   3   6   6   3   6   3
#     4  10  22  46  67 102 135 176 228 302 342 420
#     4  10  20  46  63  96 135 186 228 274 358 414
#     4  11  22  41  70  93 137 181 224 291 351 418
#     4  12  25  41  66 103 137 176 242 290 350 430
#     4   8  20  44  74  89 131 178 220 290 372 396
#     4  12  22  39  62  90 132 185 230 275 353 419
#     4  12  20  42  64  85 135 184 212 294 342 410
#
# _framework density 18.716833000000001
#
# number of rings (size 3 to 8) (size 9 to 14) (size 15 to 20)
#    0.600    0.400    7.000    1.200    1.400    1.600 
#    7.200    0.000    0.000    0.000    0.000    0.000 
#    0.000    0.000    0.000    0.000    0.000    0.000 
#
# Total GULP energy -167019.534518 kJ/mol
# GULP energy per Si atom -5567.317817 kJ/mol
# Density = 1.867423 g / cm^3
# Si number density = 18.716833 Si / 1000 Ang^3
#
#
#
# Elastic Constant Matrix: (Units=GPa)
#
#
# Indices 1 2 3 4 5 6 
#
# 1 75.5447 65.3251 29.7251 0.0006 -15.2480 0.0000
# 2 65.3251 75.5447 29.7251 -0.0006 15.2480 0.0000
# 3 29.7251 29.7251 122.9485 0.0000 0.0000 0.0000
# 4 0.0006 -0.0006 0.0000 7.2763 0.0000 15.2480
# 5 -15.2480 15.2480 0.0000 0.0000 7.2763 0.0006
# 6 0.0000 0.0000 0.0000 15.2480 0.0006 5.1098
#
#
#
# Elastic Compliance Matrix: (Units=1/GPa)
#
#
# Indices 1 2 3 4 5 6 
#
# 1 -0.005361 0.013266 -0.001911 0.000002 -0.039033 0.000000
# 2 0.013266 -0.005361 -0.001911 -0.000002 0.039033 0.000000
# 3 -0.001911 -0.001911 0.009058 0.000000 0.000000 0.000000
# 4 0.000002 -0.000002 0.000000 -0.026161 0.000000 0.078066
# 5 -0.039033 0.039033 0.000000 0.000000 -0.026161 0.000003
# 6 0.000000 0.000000 0.000000 0.078066 0.000003 -0.037253
#
#
# Mechanical properties :
#
#
# Convention : Reuss Voigt Hill
#
# Bulk Modulus (GPa) = 58.06088 58.17647 58.11867
# Shear Modulus (GPa) = -47.90019 13.88332 -17.00843
#
# Velocity S-wave (km/s) = -5.06435 2.72647 -3.01778
# Velocity P-wave (km/s) = 1.76317 6.40792 4.35618
#
# Compressibility (1/GPa) = 0.01722330
#
# Stress axis : x y z
#
# Youngs Moduli (GPa) = -186.54848 -186.54848 110.40391
#
# Poissons Ratio (x) = 2.47473 0.21101
# Poissons Ratio (y) = 2.47473 0.21101
# Poissons Ratio (z) = -0.35654 -0.35654
#
# Static dielectric constant tensor:
#      x y z
#    x 1.615270 0.000000 0.000000 
#    y 0.000000 1.615270 0.000000 
#    z 0.000000 0.000000 1.733600 
# 
# From -- ./inp_files/1633.got.cif
#   From: 2010.05.17/outbox.cif.g08.bks.cpg/sg153_1_cif.got.tgz:1633.got - 2010.05.20 10:38:56.
