data_PCOD9576325
_publ_section_title
;
Structure prediction by ZEFSAII (Michael W. Deem and Ramdas Pophale) SiO2 
 PCOD9576325
Probable space group: P 32 1 2
;
_chemical_formula_sum "Si O2"
_cell_formula_units_Z 21
_cell_length_a 12.293704
_cell_length_b 12.293704
_cell_length_c 7.864095
_cell_angle_alpha 90.000000
_cell_angle_beta 90.000000
_cell_angle_gamma 120.000000
_cell_volume 1029.306908
_symmetry_space_group_name_H-M "P 32 1 2"
_symmetry_group_IT_number 153
_symmetry_cell_setting 'hexagonal'
loop_
_space_group_symop_operation_xyz
x,y,z
-y,x-y,2/3+z
-x+y,-x,1/3+z
-y,-x,1/3-z
-x+y,y,2/3-z
x,x-y,-z
loop_
_atom_site_type_symbol
_atom_site_label
_atom_site_fract_x
_atom_site_fract_y
_atom_site_fract_z
Si Si1 0.718512 0.437023 0.833334
Si Si2 0.283499 0.566997 0.333334
Si Si3 0.979733 0.795972 0.985763
Si Si4 0.177716 0.088858 0.000000
Si Si5 0.021783 0.595879 0.848054
O O1 0.647985 0.352016 0.666667
O O2 0.649739 0.520982 0.867251
O O3 0.349142 0.650859 0.166667
O O4 0.355086 0.487582 0.374121
O O5 0.888822 0.777643 0.833334
O O6 0.048238 0.720945 0.944631
O O7 0.900125 0.751890 0.159290
O O8 0.083943 0.941111 0.983969
O O9 0.036196 0.518098 0.000000
#
# Coordination Sequence:
#
# PCOD9576325 Si02
#       5
#     3   3   6   3   6
#     4  10  24  48  72 106 142 180 234 298 356 432
#     4  12  28  51  76 100 143 196 248 300 346 426
#     4  11  20  40  62 102 140 169 219 282 355 426
#     4  10  22  35  68 102 139 168 210 290 374 400
#     4  11  26  47  71 103 141 186 244 285 350 429
#
# _framework density 20.402080000000002
#
# number of rings (size 3 to 8) (size 9 to 14) (size 15 to 20)
#    0.000    1.143    5.714    0.000    6.000    4.571 
#   10.286    0.000    0.000    0.000    0.000    0.000 
#    0.000    0.000    0.000    0.000    0.000    0.000 
#
# Total GULP energy -116993.252966 kJ/mol
# GULP energy per Si atom -5571.107284 kJ/mol
# Density = 2.035564 g / cm^3
# Si number density = 20.402080 Si / 1000 Ang^3
#
#
#
# Elastic Constant Matrix: (Units=GPa)
#
#
# Indices 1 2 3 4 5 6 
#
# 1 121.0201 42.4073 39.3520 -0.0010 1.0187 0.0000
# 2 42.4073 121.0201 39.3520 0.0010 -1.0187 0.0000
# 3 39.3520 39.3520 147.0912 0.0000 0.0000 0.0000
# 4 -0.0010 0.0010 0.0000 32.6633 0.0000 -1.0187
# 5 1.0187 -1.0187 0.0000 0.0000 32.6633 -0.0010
# 6 0.0000 0.0000 0.0000 -1.0187 -0.0010 39.3064
#
#
#
# Elastic Compliance Matrix: (Units=1/GPa)
#
#
# Indices 1 2 3 4 5 6 
#
# 1 0.009877 -0.002853 -0.001879 0.000000 -0.000397 0.000000
# 2 -0.002853 0.009877 -0.001879 0.000000 0.000397 0.000000
# 3 -0.001879 -0.001879 0.007804 0.000000 0.000000 0.000000
# 4 0.000000 0.000000 0.000000 0.030640 0.000000 0.000794
# 5 -0.000397 0.000397 0.000000 0.000000 0.030640 0.000001
# 6 0.000000 0.000000 0.000000 0.000794 0.000001 0.025462
#
#
# Mechanical properties :
#
#
# Convention : Reuss Voigt Hill
#
# Bulk Modulus (GPa) = 69.75832 70.15045 69.95439
# Shear Modulus (GPa) = 37.79213 38.79461 38.29337
#
# Velocity S-wave (km/s) = 4.30858 4.36535 4.33706
# Velocity P-wave (km/s) = 7.68231 7.73738 7.70989
#
# Compressibility (1/GPa) = 0.01433521
#
# Stress axis : x y z
#
# Youngs Moduli (GPa) = 101.24148 101.24148 128.13991
#
# Poissons Ratio (x) = 0.28889 0.24079
# Poissons Ratio (y) = 0.28889 0.24079
# Poissons Ratio (z) = 0.19025 0.19025
#
# Static dielectric constant tensor:
#      x y z
#    x 1.738110 0.000000 0.000000 
#    y 0.000000 1.738110 0.000000 
#    z 0.000000 0.000000 1.587380 
# 
# From -- ./inp_files/1305.got.cif
#   From: 2010.05.17/outbox.cif.g08.bks.cpg/sg153_1_cif.got.tgz:1305.got - 2010.05.20 10:38:56.
