data_PCOD9576190
_publ_section_title
;
Structure prediction by ZEFSAII (Michael W. Deem and Ramdas Pophale) SiO2 
 PCOD9576190
Probable space group: P 31 2 1
;
_chemical_formula_sum "Si O2"
_cell_formula_units_Z 24
_cell_length_a 13.670978
_cell_length_b 13.670978
_cell_length_c 6.779268
_cell_angle_alpha 90.000000
_cell_angle_beta 90.000000
_cell_angle_gamma 120.000000
_cell_volume 1097.267721
_symmetry_space_group_name_H-M "P 31 2 1"
_symmetry_group_IT_number 152
_symmetry_cell_setting 'hexagonal'
loop_
_space_group_symop_operation_xyz
x,y,z
-y,x-y,1/3+z
-x+y,-x,2/3+z
x-y,-y,2/3-z
-x,-x+y,1/3-z
y,x,-z
loop_
_atom_site_type_symbol
_atom_site_label
_atom_site_fract_x
_atom_site_fract_y
_atom_site_fract_z
Si Si1 0.000000 0.606845 0.166667
Si Si2 0.425705 0.742401 0.395035
Si Si3 0.515075 0.591782 0.813661
Si Si4 0.823727 0.647432 0.396902
Si Si5 0.904076 0.904076 0.500000
O O1 0.899284 0.626082 0.239792
O O2 0.031940 0.550429 0.345137
O O3 0.376683 0.745544 0.611656
O O4 0.391568 0.810190 0.246105
O O5 0.560538 0.800193 0.421365
O O6 0.601310 0.698874 0.689059
O O7 0.575336 0.575336 0.000000
O O8 0.881981 0.779508 0.442996
O O9 0.000000 0.953227 0.666667
#
# Coordination Sequence:
#
# PCOD9576190 Si02
#       5
#     3   6   6   6   3
#     4  12  26  50  72 114 152 200 248 310 388 468
#     4  12  24  45  73 115 160 194 239 312 394 488
#     4  12  26  45  75 117 155 199 251 301 390 481
#     4  12  27  48  80 107 156 202 257 325 393 452
#     4  12  32  58  78 108 148 212 294 340 372 440
#
# _framework density 21.872510999999999
#
# number of rings (size 3 to 8) (size 9 to 14) (size 15 to 20)
#    0.000    0.000    5.000    4.500    7.000    3.000 
#    0.000    0.000    0.000    0.000    0.000    0.000 
#    0.000    0.000    0.000    0.000    0.000    0.000 
#
# Total GULP energy -134255.774277 kJ/mol
# GULP energy per Si atom -5593.990595 kJ/mol
# Density = 2.182273 g / cm^3
# Si number density = 21.872511 Si / 1000 Ang^3
#
#
#
# Elastic Constant Matrix: (Units=GPa)
#
#
# Indices 1 2 3 4 5 6 
#
# 1 136.8782 56.5691 46.8597 -6.4655 0.0002 0.0000
# 2 56.5691 136.8782 46.8597 6.4655 -0.0002 0.0000
# 3 46.8597 46.8597 87.8817 0.0000 0.0000 0.0000
# 4 -6.4655 6.4655 0.0000 15.9459 0.0000 -0.0002
# 5 0.0002 -0.0002 0.0000 0.0000 15.9459 -6.4655
# 6 0.0000 0.0000 0.0000 -0.0002 -6.4655 40.1546
#
#
#
# Elastic Compliance Matrix: (Units=1/GPa)
#
#
# Indices 1 2 3 4 5 6 
#
# 1 0.010146 -0.003176 -0.003716 0.005401 0.000000 0.000000
# 2 -0.003176 0.010146 -0.003716 -0.005401 0.000000 0.000000
# 3 -0.003716 -0.003716 0.015342 0.000000 0.000000 0.000000
# 4 0.005401 -0.005401 0.000000 0.067092 0.000000 0.000000
# 5 0.000000 0.000000 0.000000 0.000000 0.067092 0.010803
# 6 0.000000 0.000000 0.000000 0.000000 0.010803 0.026643
#
#
# Mechanical properties :
#
#
# Convention : Reuss Voigt Hill
#
# Bulk Modulus (GPa) = 69.36615 73.57946 71.47280
# Shear Modulus (GPa) = 22.47349 28.49925 25.48637
#
# Velocity S-wave (km/s) = 3.20890 3.61358 3.41724
# Velocity P-wave (km/s) = 6.74627 7.15009 6.95111
#
# Compressibility (1/GPa) = 0.01441625
#
# Stress axis : x y z
#
# Youngs Moduli (GPa) = 98.56362 98.56362 65.17965
#
# Poissons Ratio (x) = 0.31303 0.24223
# Poissons Ratio (y) = 0.31303 0.24223
# Poissons Ratio (z) = 0.36630 0.36630
#
# Static dielectric constant tensor:
#      x y z
#    x 1.912960 0.000000 0.000000 
#    y 0.000000 1.912960 0.000000 
#    z 0.000000 0.000000 1.881660 
# 
# From -- ./inp_files/240.got.cif
#   From: 2010.05.17/outbox.cif.g08.bks.cpg/sg152_1_cif.got.tgz:240.got - 2010.05.20 10:36:06.
