data_PCOD9576751
_publ_section_title
;
Structure prediction by ZEFSAII (Michael W. Deem and Ramdas Pophale) SiO2 
 PCOD9576751
Probable space group: P 32 2 1
;
_chemical_formula_sum "Si O2"
_cell_formula_units_Z 42
_cell_length_a 9.000000
_cell_length_b 9.000000
_cell_length_c 30.000000
_cell_angle_alpha 90.000000
_cell_angle_beta 90.000000
_cell_angle_gamma 120.000000
_cell_volume 2104.441731
_symmetry_space_group_name_H-M "P 32 2 1"
_symmetry_group_IT_number 154
_symmetry_cell_setting 'hexagonal'
loop_
_space_group_symop_operation_xyz
x,y,z
-y,x-y,2/3+z
-x+y,-x,1/3+z
x-y,-y,1/3-z
-x,-x+y,2/3-z
y,x,-z
loop_
_atom_site_type_symbol
_atom_site_label
_atom_site_fract_x
_atom_site_fract_y
_atom_site_fract_z
Si Si1 0.517243 0.979814 0.549129
Si Si2 0.283162 0.464430 0.976564
Si Si3 0.173428 0.224298 0.350770
Si Si4 0.275641 0.700008 0.724831
Si Si5 0.162883 0.867047 0.503580
Si Si6 0.991901 0.015433 0.568217
Si Si7 0.681960 0.761525 0.388109
O O1 0.499636 0.864048 0.593103
O O2 0.343664 0.894406 0.520102
O O3 0.553428 0.158112 0.572665
O O4 0.674863 0.034563 0.514533
O O5 0.079179 0.383445 0.973143
O O6 0.331057 0.331057 0.000000
O O7 0.357951 0.622559 0.011132
O O8 0.278710 0.392338 0.379542
O O9 0.269486 0.193784 0.310346
O O10 0.000000 0.218467 0.333334
O O11 0.099841 0.064592 0.384325
O O12 0.201927 0.505656 0.740346
O O13 0.103336 0.944226 0.544039
O O14 0.152341 0.974767 0.461796
O O15 0.818284 0.836439 0.576804
#
# Coordination Sequence:
#
# PCOD9576751 Si02
#       7
#     6   6   6   6   6   6   6
#     4  11  24  44  64  91 125 169 210 265 311 374
#     4  10  21  41  63  92 125 160 199 267 322 367
#     4  10  20  39  64  91 121 165 201 251 318 388
#     4  11  23  39  63  96 130 152 206 270 324 362
#     4  11  24  44  64  87 122 172 215 251 313 367
#     4  10  22  43  65  86 122 171 210 249 301 389
#     4  11  22  38  65  96 122 159 204 256 315 381
#
# _framework density 19.957787
#
# number of rings (size 3 to 8) (size 9 to 14) (size 15 to 20)
#    0.000    1.429    2.857    3.429    6.000    0.000 
#    5.143    0.000    0.000    0.000    0.000    0.000 
#    0.000    0.000    0.000    0.000    0.000    0.000 
#
# Total GULP energy -234179.254781 kJ/mol
# GULP energy per Si atom -5575.696542 kJ/mol
# Density = 1.991236 g / cm^3
# Si number density = 19.957787 Si / 1000 Ang^3
#
#
#
# Elastic Constant Matrix: (Units=GPa)
#
#
# Indices 1 2 3 4 5 6 
#
# 1 34.4002 -20.0517 -16.3552 0.8983 0.0001 0.0000
# 2 -20.0517 34.4002 -16.3552 -0.8983 -0.0001 0.0000
# 3 -16.3552 -16.3552 34.6360 0.0000 0.0000 0.0000
# 4 0.8983 -0.8983 0.0000 11.8526 0.0000 -0.0001
# 5 0.0001 -0.0001 0.0000 0.0000 11.8526 0.8983
# 6 0.0000 0.0000 0.0000 -0.0001 0.8983 27.2260
#
#
#
# Elastic Compliance Matrix: (Units=1/GPa)
#
#
# Indices 1 2 3 4 5 6 
#
# 1 -0.446389 -0.464800 -0.430266 -0.001395 0.000000 0.000000
# 2 -0.464800 -0.446389 -0.430266 0.001395 0.000000 0.000000
# 3 -0.430266 -0.430266 -0.377475 0.000000 0.000000 0.000000
# 4 -0.001395 0.001395 0.000000 0.084581 0.000000 0.000000
# 5 0.000000 0.000000 0.000000 0.000000 0.084581 -0.002791
# 6 0.000000 0.000000 0.000000 0.000000 -0.002791 0.036822
#
#
# Mechanical properties :
#
#
# Convention : Reuss Voigt Hill
#
# Bulk Modulus (GPa) = -0.25504 -0.23199 -0.24351
# Shear Modulus (GPa) = 17.89396 20.59947 19.24671
#
# Velocity S-wave (km/s) = 2.99756 3.21620 3.10880
# Velocity P-wave (km/s) = 3.44273 3.69803 3.57266
#
# Compressibility (1/GPa) = -3.92091886
#
# Stress axis : x y z
#
# Youngs Moduli (GPa) = -2.24020 -2.24020 -2.64918
#
# Poissons Ratio (x) = -1.04124 -1.13985
# Poissons Ratio (y) = -1.04124 -1.13985
# Poissons Ratio (z) = -0.96388 -0.96388
#
# Static dielectric constant tensor:
#      x y z
#    x 1.742070 0.000000 0.000000 
#    y 0.000000 1.742070 0.000000 
#    z 0.000000 0.000000 1.675890 
# 
# From -- ./inp_files/3759.got.cif
#   From: 2010.05.17/outbox.ucp.g08.bks.cvg/sg154_2_cif.got.tgz:3759.got - 2010.06.11 15:13:38.
