data_PCOD9576523
_publ_section_title
;
Structure prediction by ZEFSAII (Michael W. Deem and Ramdas Pophale) SiO2 
 PCOD9576523
Probable space group: P 32 2 1
;
_chemical_formula_sum "Si O2"
_cell_formula_units_Z 33
_cell_length_a 15.701359
_cell_length_b 15.701359
_cell_length_c 7.846053
_cell_angle_alpha 90.000000
_cell_angle_beta 90.000000
_cell_angle_gamma 120.000000
_cell_volume 1675.160239
_symmetry_space_group_name_H-M "P 32 2 1"
_symmetry_group_IT_number 154
_symmetry_cell_setting 'hexagonal'
loop_
_space_group_symop_operation_xyz
x,y,z
-y,x-y,2/3+z
-x+y,-x,1/3+z
x-y,-y,1/3-z
-x,-x+y,2/3-z
y,x,-z
loop_
_atom_site_type_symbol
_atom_site_label
_atom_site_fract_x
_atom_site_fract_y
_atom_site_fract_z
Si Si1 0.853262 0.253651 0.170323
Si Si2 0.884440 0.436934 0.380373
Si Si3 0.083221 0.882147 0.680230
Si Si4 0.761338 0.179433 0.809242
Si Si5 0.948016 0.356558 0.666147
Si Si6 0.769018 0.000000 0.666667
O O1 0.841121 0.336668 0.270891
O O2 0.848083 0.163180 0.274661
O O3 0.781608 0.211146 0.007054
O O4 0.966732 0.319634 0.106901
O O5 0.819896 0.489098 0.389119
O O6 0.895688 0.405645 0.568481
O O7 0.000000 0.511117 0.333334
O O8 0.000000 0.840565 0.833334
O O9 0.044243 0.845671 0.488765
O O10 0.138100 0.000000 0.666667
O O11 0.864241 0.250272 0.719180
O O12 0.744622 0.072880 0.771402
O O13 0.000000 0.417600 0.833334
#
# Coordination Sequence:
#
# PCOD9576523 Si02
#       6
#     6   6   6   6   6   3
#     4  10  21  44  67  93 132 187 225 273 356 427
#     4  10  20  40  65  93 129 170 223 282 334 410
#     4  12  26  43  66 101 141 188 235 288 351 425
#     4  11  21  40  66  99 127 176 229 279 346 409
#     4   9  20  40  65  86 124 175 219 260 338 421
#     4  12  24  42  68  98 140 180 222 294 340 406
#
# _framework density 19.699607
#
# number of rings (size 3 to 8) (size 9 to 14) (size 15 to 20)
#    0.000    1.455    2.727    3.818    1.273    0.000 
#    6.545    1.818    0.000    0.000    0.000    0.000 
#    0.000    0.000    0.000    0.000    0.000    0.000 
#
# Total GULP energy -183945.986814 kJ/mol
# GULP energy per Si atom -5574.120813 kJ/mol
# Density = 1.965477 g / cm^3
# Si number density = 19.699607 Si / 1000 Ang^3
#
#
#
# Elastic Constant Matrix: (Units=GPa)
#
#
# Indices 1 2 3 4 5 6 
#
# 1 -502.0783 633.6415 53.6408 -726.0883 0.0600 0.0000
# 2 633.6415 -502.0783 53.6408 726.0883 -0.0600 0.0000
# 3 53.6408 53.6408 113.2297 0.0000 0.0000 0.0000
# 4 -726.0883 726.0883 0.0000 -892.2840 0.0000 -0.0600
# 5 0.0600 -0.0600 0.0000 0.0000 -892.2840 -726.0883
# 6 0.0000 0.0000 0.0000 -0.0600 -726.0883 -567.8599
#
#
#
# Elastic Compliance Matrix: (Units=1/GPa)
#
#
# Indices 1 2 3 4 5 6 
#
# 1 0.017068 -0.004682 -0.005867 -0.017699 0.000001 0.000000
# 2 -0.004682 0.017068 -0.005867 0.017699 -0.000001 0.000000
# 3 -0.005867 -0.005867 0.014391 0.000000 0.000000 0.000000
# 4 -0.017699 0.017699 0.000000 0.027684 0.000000 -0.000003
# 5 0.000001 -0.000001 0.000000 0.000000 0.027684 -0.035398
# 6 0.000000 0.000000 0.000000 -0.000003 -0.035398 0.043501
#
#
# Mechanical properties :
#
#
# Convention : Reuss Voigt Hill
#
# Bulk Modulus (GPa) = 63.72667 65.65770 64.69218
# Shear Modulus (GPa) = 26.95985 -579.27558 -276.15786
#
# Velocity S-wave (km/s) = 3.70340 -17.16662 -11.85280
# Velocity P-wave (km/s) = 7.12084 18.96106 12.42609
#
# Compressibility (1/GPa) = 0.01569202
#
# Stress axis : x y z
#
# Youngs Moduli (GPa) = 58.58962 58.58962 69.48897
#
# Poissons Ratio (x) = 0.27434 0.40772
# Poissons Ratio (y) = 0.27434 0.40772
# Poissons Ratio (z) = 0.34377 0.34377
#
# Static dielectric constant tensor:
#      x y z
#    x 9.501940 0.000000 0.000000 
#    y 0.000000 9.501940 0.000000 
#    z 0.000000 0.000000 1.750200 
# 
# From -- ./inp_files/1157.got.cif
#   From: 2010.05.17/outbox.cif.g08.bks.cpg/sg154_1_cif.got.tgz:1157.got - 2010.05.20 10:41:43.
