data_PCOD9576443
_publ_section_title
;
Structure prediction by ZEFSAII (Michael W. Deem and Ramdas Pophale) SiO2 
 PCOD9576443
Probable space group: P 32 2 1
;
_chemical_formula_sum "Si O2"
_cell_formula_units_Z 36
_cell_length_a 11.660044
_cell_length_b 11.660044
_cell_length_c 14.119906
_cell_angle_alpha 90.000000
_cell_angle_beta 90.000000
_cell_angle_gamma 120.000000
_cell_volume 1662.504447
_symmetry_space_group_name_H-M "P 32 2 1"
_symmetry_group_IT_number 154
_symmetry_cell_setting 'hexagonal'
loop_
_space_group_symop_operation_xyz
x,y,z
-y,x-y,2/3+z
-x+y,-x,1/3+z
x-y,-y,1/3-z
-x,-x+y,2/3-z
y,x,-z
loop_
_atom_site_type_symbol
_atom_site_label
_atom_site_fract_x
_atom_site_fract_y
_atom_site_fract_z
Si Si1 0.608134 0.861345 0.187539
Si Si2 0.321862 0.505020 0.189299
Si Si3 0.697314 0.100677 0.939374
Si Si4 0.352365 0.629806 0.389155
Si Si5 0.894247 0.971338 0.408794
Si Si6 0.727429 0.702850 0.109414
O O1 0.553385 0.885662 0.284493
O O2 0.503792 0.832861 0.105028
O O3 0.643574 0.744782 0.176752
O O4 0.740298 0.000000 0.166667
O O5 0.383288 0.410670 0.214822
O O6 0.358324 0.606148 0.277637
O O7 0.360519 0.586125 0.091757
O O8 0.162917 0.415654 0.189361
O O9 0.724934 0.242401 0.902557
O O10 0.825816 0.083276 0.952802
O O11 0.891915 0.891915 0.500000
O O12 0.952430 0.124613 0.436261
O O13 0.000000 0.976474 0.333334
O O14 0.677894 0.677894 0.000000
#
# Coordination Sequence:
#
# PCOD9576443 Si02
#       6
#     6   6   6   6   6   6
#     4  12  21  40  69  99 130 172 231 277 339 409
#     4  11  25  45  63  98 136 177 233 286 350 420
#     4  11  25  43  64  99 135 177 237 280 348 429
#     4  12  25  41  67  95 134 178 222 295 344 415
#     4  10  20  39  64  98 136 169 221 280 342 405
#     4  10  19  36  67  96 127 173 220 277 333 415
#
# _framework density 21.654076
#
# number of rings (size 3 to 8) (size 9 to 14) (size 15 to 20)
#    0.000    1.000    5.000    3.500    2.333    0.667 
#    0.000    5.000    0.000    0.000    0.000    0.000 
#    0.000    0.000    0.000    0.000    0.000    0.000 
#
# Total GULP energy -200842.858180 kJ/mol
# GULP energy per Si atom -5578.968283 kJ/mol
# Density = 2.160479 g / cm^3
# Si number density = 21.654076 Si / 1000 Ang^3
#
#
#
# Elastic Constant Matrix: (Units=GPa)
#
#
# Indices 1 2 3 4 5 6 
#
# 1 99.3894 37.2206 -0.5182 4.3554 0.0001 0.0000
# 2 37.2206 99.3894 -0.5182 -4.3554 -0.0001 0.0000
# 3 -0.5182 -0.5182 28.0211 0.0000 0.0000 0.0000
# 4 4.3554 -4.3554 0.0000 29.4485 0.0000 -0.0001
# 5 0.0001 -0.0001 0.0000 0.0000 29.4485 4.3554
# 6 0.0000 0.0000 0.0000 -0.0001 4.3554 31.0844
#
#
#
# Elastic Compliance Matrix: (Units=1/GPa)
#
#
# Indices 1 2 3 4 5 6 
#
# 1 0.011873 -0.004552 0.000135 -0.002429 0.000000 0.000000
# 2 -0.004552 0.011873 0.000135 0.002429 0.000000 0.000000
# 3 0.000135 0.000135 0.035692 0.000000 0.000000 0.000000
# 4 -0.002429 0.002429 0.000000 0.034676 0.000000 0.000000
# 5 0.000000 0.000000 0.000000 0.000000 0.034676 -0.004859
# 6 0.000000 0.000000 0.000000 0.000000 -0.004859 0.032851
#
#
# Mechanical properties :
#
#
# Convention : Reuss Voigt Hill
#
# Bulk Modulus (GPa) = 19.65552 33.24091 26.44821
# Shear Modulus (GPa) = 26.71446 30.70397 28.70921
#
# Velocity S-wave (km/s) = 3.51621 3.76963 3.64512
# Velocity P-wave (km/s) = 5.05783 5.85926 5.47324
#
# Compressibility (1/GPa) = 0.05087630
#
# Stress axis : x y z
#
# Youngs Moduli (GPa) = 84.22198 84.22198 28.01715
#
# Poissons Ratio (x) = 0.38340 -0.00379
# Poissons Ratio (y) = 0.38340 -0.00379
# Poissons Ratio (z) = -0.01140 -0.01140
#
# Static dielectric constant tensor:
#      x y z
#    x 1.817110 0.000000 0.000000 
#    y 0.000000 1.817110 0.000000 
#    z 0.000000 0.000000 1.818890 
# 
# From -- ./inp_files/1954.got.cif
#   From: 2010.05.17/outbox.cif.g08.bks.cpg/sg154_1_cif.got.tgz:1954.got - 2010.05.20 10:41:43.
