data_PCOD9576823
_publ_section_title
;
Structure prediction by ZEFSAII (Michael W. Deem and Ramdas Pophale) SiO2 
 PCOD9576823
Probable space group: R 3 2
;
_chemical_formula_sum "Si O2"
_cell_formula_units_Z 96
_cell_length_a 22.390126
_cell_length_b 22.390126
_cell_length_c 11.735785
_cell_angle_alpha 90.000000
_cell_angle_beta 90.000000
_cell_angle_gamma 120.000000
_cell_volume 5095.136830
_symmetry_space_group_name_H-M "R 3 2"
_symmetry_group_IT_number 155
_symmetry_cell_setting 'hexagonal'
loop_
_space_group_symop_operation_xyz
x,y,z
-y,x-y,z
-x+y,-x,z
x-y,-y,-z
-x,-x+y,-z
y,x,-z
2/3+x,1/3+y,1/3+z
2/3-y,1/3+x-y,1/3+z
2/3-x+y,1/3-x,1/3+z
2/3+x-y,1/3-y,1/3-z
2/3-x,1/3-x+y,1/3-z
2/3+y,1/3+x,1/3-z
1/3+x,2/3+y,2/3+z
1/3-y,2/3+x-y,2/3+z
1/3-x+y,2/3-x,2/3+z
1/3+x-y,2/3-y,2/3-z
1/3-x,2/3-x+y,2/3-z
1/3+y,2/3+x,2/3-z
loop_
_atom_site_type_symbol
_atom_site_label
_atom_site_fract_x
_atom_site_fract_y
_atom_site_fract_z
Si Si1 0.461279 0.319666 0.459817
Si Si2 0.816552 0.000000 0.500000
Si Si3 0.537572 0.018046 0.753217
Si Si4 0.211006 0.940070 0.408001
Si Si5 0.333334 0.666668 0.304393
Si Si6 0.462325 0.462325 0.500000
Si Si7 0.412060 0.594044 0.976157
O O1 0.492295 0.333334 0.333334
O O2 0.383152 0.256805 0.452764
O O3 0.458330 0.388097 0.492971
O O4 0.501012 0.293484 0.540863
O O5 0.750213 0.947877 0.572872
O O6 0.836963 0.955575 0.421067
O O7 0.495223 0.032037 0.849803
O O8 0.509074 0.007297 0.623288
O O9 0.267148 0.933815 0.333334
O O10 0.158189 0.948506 0.324207
O O11 0.240665 0.000000 0.500000
O O12 0.333334 0.666668 0.166667
O O13 0.406204 0.678045 0.350086
#
# Coordination Sequence:
#
# PCOD9576823 Si02
#       7
#    18   9  18  18   6   9  18
#     4  10  20  35  57  89 129 166 202 251 306 374
#     4  10  19  30  58  86 126 161 198 248 314 354
#     4  10  20  35  56  87 124 162 200 252 304 371
#     4  11  24  43  67  89 121 160 210 265 322 376
#     4  12  24  39  64  95 118 159 213 262 305 367
#     4  10  19  32  58  92 126 163 206 240 310 376
#     4  11  22  39  61  93 127 160 207 259 311 370
#
# _framework density 18.841494999999998
#
# number of rings (size 3 to 8) (size 9 to 14) (size 15 to 20)
#    0.000    1.500    4.688    1.125    2.625    0.000 
#    1.688    0.938    0.000    0.000    0.000    0.000 
#    0.000    0.000    0.000    0.000    0.000    0.000 
#
# Total GULP energy -178444.006317 kJ/mol
# GULP energy per Si atom -5576.375197 kJ/mol
# Density = 1.879861 g / cm^3
# Si number density = 18.841495 Si / 1000 Ang^3
#
#
#
# Elastic Constant Matrix: (Units=GPa)
#
#
# Indices 1 2 3 4 5 6 
#
# 1 47.6166 10.3412 6.5661 -3.6465 0.0001 0.0000
# 2 10.3412 47.6160 6.5660 3.6468 0.0000 0.0000
# 3 6.5661 6.5660 72.3628 0.0000 0.0002 0.0000
# 4 -3.6465 3.6468 0.0000 27.4961 -0.0001 0.0000
# 5 0.0001 0.0000 0.0002 -0.0001 27.4962 -3.6466
# 6 0.0000 0.0000 0.0000 0.0000 -3.6466 18.6377
#
#
#
# Elastic Compliance Matrix: (Units=1/GPa)
#
#
# Indices 1 2 3 4 5 6 
#
# 1 0.022579 -0.004963 -0.001598 0.003653 0.000000 0.000000
# 2 -0.004963 0.022579 -0.001598 -0.003653 0.000000 0.000000
# 3 -0.001598 -0.001598 0.014109 0.000000 0.000000 0.000000
# 4 0.003653 -0.003653 0.000000 0.037338 0.000000 0.000000
# 5 0.000000 0.000000 0.000000 0.000000 0.037338 0.007305
# 6 0.000000 0.000000 0.000000 0.000000 0.007305 0.055084
#
#
# Mechanical properties :
#
#
# Convention : Reuss Voigt Hill
#
# Bulk Modulus (GPa) = 23.28403 23.83801 23.56102
# Shear Modulus (GPa) = 22.76217 24.33415 23.54816
#
# Velocity S-wave (km/s) = 3.47953 3.59767 3.53909
# Velocity P-wave (km/s) = 5.34111 5.47147 5.40668
#
# Compressibility (1/GPa) = 0.04294790
#
# Stress axis : x y z
#
# Youngs Moduli (GPa) = 44.28877 44.28820 70.87510
#
# Poissons Ratio (x) = 0.21980 0.11329
# Poissons Ratio (y) = 0.21981 0.11329
# Poissons Ratio (z) = 0.07079 0.07079
#
# Static dielectric constant tensor:
#      x y z
#    x 1.655410 0.000000 0.000000 
#    y 0.000000 1.655420 0.000000 
#    z 0.000000 0.000000 1.674860 
# 
# From -- ./inp_files/4023.got.cif
#   From: 2010.05.17/outbox.cif.g08.bks.cpg/sg155_3_cif.got.tgz:4023.got - 2010.05.20 10:44:35.
