data_PCOD9576929
_publ_section_title
;
Structure prediction by ZEFSAII (Michael W. Deem and Ramdas Pophale) SiO2 
 PCOD9576929
Probable space group: R 3 2
;
_chemical_formula_sum "Si O2"
_cell_formula_units_Z 114
_cell_length_a 20.710136
_cell_length_b 20.710136
_cell_length_c 16.974290
_cell_angle_alpha 90.000000
_cell_angle_beta 90.000000
_cell_angle_gamma 120.000000
_cell_volume 6305.044427
_symmetry_space_group_name_H-M "R 3 2"
_symmetry_group_IT_number 155
_symmetry_cell_setting 'hexagonal'
loop_
_space_group_symop_operation_xyz
x,y,z
-y,x-y,z
-x+y,-x,z
x-y,-y,-z
-x,-x+y,-z
y,x,-z
2/3+x,1/3+y,1/3+z
2/3-y,1/3+x-y,1/3+z
2/3-x+y,1/3-x,1/3+z
2/3+x-y,1/3-y,1/3-z
2/3-x,1/3-x+y,1/3-z
2/3+y,1/3+x,1/3-z
1/3+x,2/3+y,2/3+z
1/3-y,2/3+x-y,2/3+z
1/3-x+y,2/3-x,2/3+z
1/3+x-y,2/3-y,2/3-z
1/3-x,2/3-x+y,2/3-z
1/3+y,2/3+x,2/3-z
loop_
_atom_site_type_symbol
_atom_site_label
_atom_site_fract_x
_atom_site_fract_y
_atom_site_fract_z
Si Si1 0.089259 0.253504 0.001190
Si Si2 0.812828 0.483414 0.738912
Si Si3 0.819797 0.248828 0.007940
Si Si4 0.577555 0.158317 0.490293
Si Si5 0.090732 0.245651 0.323861
Si Si6 0.000000 0.000000 0.404612
Si Si7 0.507941 0.754670 0.508882
O O1 0.109386 0.221988 0.077902
O O2 0.128184 0.341864 0.005102
O O3 0.108679 0.224699 0.921551
O O4 0.000000 0.217649 0.000000
O O5 0.817505 0.484172 0.833334
O O6 0.874272 0.465754 0.704460
O O7 0.807451 0.553292 0.706711
O O8 0.734562 0.411741 0.711887
O O9 0.799121 0.243714 0.099988
O O10 0.862890 0.336682 0.984962
O O11 0.665347 0.196041 0.502560
O O12 0.554240 0.221766 0.482656
O O13 0.121850 0.333334 0.333334
O O14 0.094915 0.224458 0.233267
O O15 0.000000 0.000000 0.500000
#
# Coordination Sequence:
#
# PCOD9576929 Si02
#       7
#    18  18  18  18  18   6  18
#     4  10  22  39  60  88 119 157 200 240 294 355
#     4  11  22  38  63  90 118 155 197 247 299 354
#     4  11  22  39  64  86 120 160 196 242 298 358
#     4  10  20  38  64  89 117 150 198 249 294 349
#     4  11  24  40  60  91 125 153 197 252 302 354
#     4   9  18  36  60  93 114 142 197 244 297 345
#     4  10  21  38  63  91 118 151 194 253 300 344
#
# _framework density 18.080760999999999
#
# number of rings (size 3 to 8) (size 9 to 14) (size 15 to 20)
#    0.000    1.579    3.158    1.737    2.211    0.000 
#    0.000    4.737    0.000    0.000    0.000    0.000 
#    0.000    0.000    0.000    0.000    0.000    0.000 
#
# Total GULP energy -212217.550803 kJ/mol
# GULP energy per Si atom -5584.672390 kJ/mol
# Density = 1.803961 g / cm^3
# Si number density = 18.080761 Si / 1000 Ang^3
#
#
#
# Elastic Constant Matrix: (Units=GPa)
#
#
# Indices 1 2 3 4 5 6 
#
# 1 80.9646 32.3922 20.5658 1.0962 -0.0001 0.0000
# 2 32.3922 80.9646 20.5658 -1.0962 0.0001 0.0000
# 3 20.5658 20.5658 84.1937 0.0000 0.0000 0.0000
# 4 1.0962 -1.0962 0.0000 17.3150 0.0000 0.0001
# 5 -0.0001 0.0001 0.0000 0.0000 17.3150 1.0962
# 6 0.0000 0.0000 0.0000 0.0001 1.0962 24.2862
#
#
#
# Elastic Compliance Matrix: (Units=1/GPa)
#
#
# Indices 1 2 3 4 5 6 
#
# 1 0.015163 -0.005484 -0.002364 -0.001307 0.000000 0.000000
# 2 -0.005484 0.015163 -0.002364 0.001307 0.000000 0.000000
# 3 -0.002364 -0.002364 0.013032 0.000000 0.000000 0.000000
# 4 -0.001307 0.001307 0.000000 0.057919 0.000000 0.000000
# 5 0.000000 0.000000 0.000000 0.000000 0.057919 -0.002614
# 6 0.000000 0.000000 0.000000 0.000000 -0.002614 0.041294
#
#
# Mechanical properties :
#
#
# Convention : Reuss Voigt Hill
#
# Bulk Modulus (GPa) = 43.60328 43.68562 43.64445
# Shear Modulus (GPa) = 21.87612 23.28986 22.58299
#
# Velocity S-wave (km/s) = 3.48215 3.59291 3.53796
# Velocity P-wave (km/s) = 6.35101 6.43629 6.39379
#
# Compressibility (1/GPa) = 0.02293405
#
# Stress axis : x y z
#
# Youngs Moduli (GPa) = 65.94898 65.94898 76.73137
#
# Poissons Ratio (x) = 0.36164 0.18143
# Poissons Ratio (y) = 0.36164 0.18143
# Poissons Ratio (z) = 0.15593 0.15593
#
# Static dielectric constant tensor:
#      x y z
#    x 1.597350 0.000000 0.000000 
#    y 0.000000 1.597350 0.000000 
#    z 0.000000 0.000000 1.618030 
# 
# From -- ./inp_files/5227.got.cif
#   From: 2010.05.17/outbox.cif.g08.bks.cpg/sg155_3_cif.got.tgz:5227.got - 2010.05.20 10:44:35.
