data_PCOD9576132
_publ_section_title
;
Structure prediction by ZEFSAII (Michael W. Deem and Ramdas Pophale) SiO2 
 PCOD9576132
Probable space group: P 31 2 1
;
_chemical_formula_sum "Si O2"
_cell_formula_units_Z 18
_cell_length_a 7.678534
_cell_length_b 7.678534
_cell_length_c 13.985754
_cell_angle_alpha 90.000000
_cell_angle_beta 90.000000
_cell_angle_gamma 120.000000
_cell_volume 714.123196
_symmetry_space_group_name_H-M "P 31 2 1"
_symmetry_group_IT_number 152
_symmetry_cell_setting 'hexagonal'
loop_
_space_group_symop_operation_xyz
x,y,z
-y,x-y,1/3+z
-x+y,-x,2/3+z
x-y,-y,2/3-z
-x,-x+y,1/3-z
y,x,-z
loop_
_atom_site_type_symbol
_atom_site_label
_atom_site_fract_x
_atom_site_fract_y
_atom_site_fract_z
Si Si1 0.747356 0.537916 0.940991
Si Si2 0.886365 0.809043 0.766584
Si Si3 0.482664 0.371272 0.594960
O O1 0.810702 0.613639 0.832844
O O2 0.699995 0.399805 0.612962
O O3 0.662328 0.662328 0.000000
O O4 0.948037 0.567907 0.990441
O O5 0.000000 0.838295 0.666667
O O6 0.684116 0.821979 0.753895
O O7 0.031556 0.000000 0.833334
O O8 0.489320 0.489320 0.500000
#
# Coordination Sequence:
#
# PCOD9576132 Si02
#       3
#     6   6   6
#     4  12  25  52  85 118 171 227 281 345 424 501
#     4  11  20  48  85 119 168 218 274 354 414 489
#     4  11  25  50  80 124 163 218 286 341 416 510
#
# _framework density 25.205738
#
# number of rings (size 3 to 8) (size 9 to 14) (size 15 to 20)
#    0.000    0.667   10.000    0.000    0.000    2.667 
#   18.000    1.667    0.000    0.000    0.000    0.000 
#    0.000    0.000    0.000    0.000    0.000    0.000 
#
# Total GULP energy -100912.727717 kJ/mol
# GULP energy per Si atom -5606.262651 kJ/mol
# Density = 2.514837 g / cm^3
# Si number density = 25.205738 Si / 1000 Ang^3
#
#
#
# Elastic Constant Matrix: (Units=GPa)
#
#
# Indices 1 2 3 4 5 6 
#
# 1 345.9217 -189.6288 71.0695 -364.3526 0.0030 0.0000
# 2 -189.6288 345.9218 71.0695 364.3526 -0.0030 0.0000
# 3 71.0695 71.0695 186.1458 0.0000 0.0000 0.0000
# 4 -364.3526 364.3526 0.0000 567.8824 0.0000 -0.0030
# 5 0.0030 -0.0030 0.0000 0.0000 567.8824 -364.3526
# 6 0.0000 0.0000 0.0000 -0.0030 -364.3526 267.7753
#
#
#
# Elastic Compliance Matrix: (Units=1/GPa)
#
#
# Indices 1 2 3 4 5 6 
#
# 1 0.012252 -0.002451 -0.003742 0.009433 0.000000 0.000000
# 2 -0.002451 0.012252 -0.003742 -0.009433 0.000000 0.000000
# 3 -0.003742 -0.003742 0.008230 0.000000 0.000000 0.000000
# 4 0.009433 -0.009433 0.000000 0.013866 0.000000 0.000000
# 5 0.000000 0.000000 0.000000 0.000000 0.013866 0.018867
# 6 0.000000 0.000000 0.000000 0.000000 0.018867 0.029406
#
#
# Mechanical properties :
#
#
# Convention : Reuss Voigt Hill
#
# Bulk Modulus (GPa) = 77.73646 87.00108 82.36877
# Shear Modulus (GPa) = 43.84855 342.40663 193.12759
#
# Velocity S-wave (km/s) = 4.17541 11.66789 8.76281
# Velocity P-wave (km/s) = 7.35888 14.70071 11.62463
#
# Compressibility (1/GPa) = 0.01286398
#
# Stress axis : x y z
#
# Youngs Moduli (GPa) = 81.61829 81.61829 121.51234
#
# Poissons Ratio (x) = 0.20002 0.45472
# Poissons Ratio (y) = 0.20002 0.45472
# Poissons Ratio (z) = 0.30543 0.30543
#
# Static dielectric constant tensor:
#      x y z
#    x 2.000820 0.000000 0.000000 
#    y 0.000000 2.000820 0.000000 
#    z 0.000000 0.000000 1.961660 
# 
# From -- ./inp_files/1499.got.cif
#   From: 2010.05.17/outbox.cif.g08.bks.cpg/sg152_1_cif.got.tgz:1499.got - 2010.05.20 10:36:06.
