data_PCOD9576000
_publ_section_title
;
Structure prediction by ZEFSAII (Michael W. Deem and Ramdas Pophale) SiO2 
 PCOD9576000
Probable space group: P 31 2 1
;
_chemical_formula_sum "Si O2"
_cell_formula_units_Z 33
_cell_length_a 8.621701
_cell_length_b 8.621701
_cell_length_c 24.001522
_cell_angle_alpha 90.000000
_cell_angle_beta 90.000000
_cell_angle_gamma 120.000000
_cell_volume 1545.095505
_symmetry_space_group_name_H-M "P 31 2 1"
_symmetry_group_IT_number 152
_symmetry_cell_setting 'hexagonal'
loop_
_space_group_symop_operation_xyz
x,y,z
-y,x-y,1/3+z
-x+y,-x,2/3+z
x-y,-y,2/3-z
-x,-x+y,1/3-z
y,x,-z
loop_
_atom_site_type_symbol
_atom_site_label
_atom_site_fract_x
_atom_site_fract_y
_atom_site_fract_z
Si Si1 0.203495 0.203495 0.000000
Si Si2 0.696142 0.696142 0.000000
Si Si3 0.000000 0.785412 0.166667
Si Si4 0.036004 0.641555 0.282209
Si Si5 0.397971 0.088126 0.643277
Si Si6 0.318482 0.909813 0.532746
Si Si7 0.450446 0.435938 0.904891
O O1 0.342096 0.271967 0.947826
O O2 0.025932 0.207173 0.982211
O O3 0.875540 0.688930 0.009882
O O4 0.585474 0.592098 0.054118
O O5 0.056373 0.709672 0.219453
O O6 0.808246 0.775749 0.182890
O O7 0.098578 0.505779 0.301717
O O8 0.825991 0.537014 0.293270
O O9 0.432111 0.999308 0.588923
O O10 0.171869 0.710636 0.549425
O O11 0.436237 0.895253 0.483548
#
# Coordination Sequence:
#
# PCOD9576000 Si02
#       7
#     3   3   3   6   6   6   6
#     4   9  21  44  58  91 131 172 218 269 327 388
#     4  11  23  42  68  91 133 176 220 269 349 396
#     4  10  22  44  66  96 140 172 222 280 338 396
#     4  11  24  41  70  98 131 179 223 274 338 396
#     4  10  24  40  67  94 131 168 222 270 325 398
#     4  10  22  40  63  96 129 172 219 273 328 391
#     4  10  22  38  68  88 128 169 220 268 326 391
#
# _framework density 21.357903
#
# number of rings (size 3 to 8) (size 9 to 14) (size 15 to 20)
#    0.000    1.818    1.818    0.545   10.182    1.455 
#    0.000    0.000    0.000    0.000    0.000    0.000 
#    0.000    0.000    0.000    0.000    0.000    0.000 
#
# Total GULP energy -183708.840894 kJ/mol
# GULP energy per Si atom -5566.934573 kJ/mol
# Density = 2.130929 g / cm^3
# Si number density = 21.357903 Si / 1000 Ang^3
#
#
#
# Elastic Constant Matrix: (Units=GPa)
#
#
# Indices 1 2 3 4 5 6 
#
# 1 37.2124 11.0328 31.8385 8.2021 -0.0001 0.0000
# 2 11.0328 37.2124 31.8385 -8.2021 0.0001 0.0000
# 3 31.8385 31.8385 117.4103 0.0000 0.0000 0.0000
# 4 8.2021 -8.2021 0.0000 12.5761 0.0000 0.0001
# 5 -0.0001 0.0001 0.0000 0.0000 12.5761 8.2021
# 6 0.0000 0.0000 0.0000 0.0001 8.2021 13.0898
#
#
#
# Elastic Compliance Matrix: (Units=1/GPa)
#
#
# Indices 1 2 3 4 5 6 
#
# 1 0.048439 -0.016158 -0.008754 -0.042130 0.000000 0.000000
# 2 -0.016158 0.048439 -0.008754 0.042130 0.000000 0.000000
# 3 -0.008754 -0.008754 0.013265 0.000000 0.000000 0.000000
# 4 -0.042130 0.042130 0.000000 0.134471 0.000000 -0.000001
# 5 0.000000 0.000000 0.000000 0.000000 0.134471 -0.084260
# 6 0.000000 0.000000 0.000000 -0.000001 -0.084260 0.129193
#
#
# Mechanical properties :
#
#
# Convention : Reuss Voigt Hill
#
# Bulk Modulus (GPa) = 23.35785 37.91719 30.63752
# Shear Modulus (GPa) = 8.47633 15.45674 11.96653
#
# Velocity S-wave (km/s) = 1.99432 2.69309 2.36960
# Velocity P-wave (km/s) = 4.03277 5.24043 4.67575
#
# Compressibility (1/GPa) = 0.04281216
#
# Stress axis : x y z
#
# Youngs Moduli (GPa) = 20.64454 20.64454 75.38768
#
# Poissons Ratio (x) = 0.33357 0.65993
# Poissons Ratio (y) = 0.33357 0.65993
# Poissons Ratio (z) = 0.18072 0.18072
#
# Static dielectric constant tensor:
#      x y z
#    x 1.803210 0.000000 0.000000 
#    y 0.000000 1.803210 0.000000 
#    z 0.000000 0.000000 1.820380 
# 
# From -- ./inp_files/3073.got.cif
#   From: 2010.05.17/outbox.cif.g08.bks.cpg/sg152_2_cif.got.tgz:3073.got - 2010.05.20 10:36:06.
