data_PCOD9576346
_publ_section_title
;
Structure prediction by ZEFSAII (Michael W. Deem and Ramdas Pophale) SiO2 
 PCOD9576346
Probable space group: P 32 1 2
;
_chemical_formula_sum "Si O2"
_cell_formula_units_Z 36
_cell_length_a 8.907164
_cell_length_b 8.907164
_cell_length_c 26.639052
_cell_angle_alpha 90.000000
_cell_angle_beta 90.000000
_cell_angle_gamma 120.000000
_cell_volume 1830.325350
_symmetry_space_group_name_H-M "P 32 1 2"
_symmetry_group_IT_number 153
_symmetry_cell_setting 'hexagonal'
loop_
_space_group_symop_operation_xyz
x,y,z
-y,x-y,2/3+z
-x+y,-x,1/3+z
-y,-x,1/3-z
-x+y,y,2/3-z
x,x-y,-z
loop_
_atom_site_type_symbol
_atom_site_label
_atom_site_fract_x
_atom_site_fract_y
_atom_site_fract_z
Si Si1 0.641239 0.820620 0.000000
Si Si2 0.132238 0.671839 0.372349
Si Si3 0.821230 0.410615 0.500000
Si Si4 0.049268 0.524634 0.000000
Si Si5 0.761605 0.523210 0.333334
Si Si6 0.184347 0.160136 0.432373
Si Si7 0.717572 0.801330 0.197222
Si Si8 0.559542 0.322047 0.587970
O O1 0.507055 0.871281 0.973847
O O2 0.764369 0.824603 0.955030
O O3 0.270591 0.822057 0.336748
O O4 0.184675 0.747885 0.428718
O O5 0.940688 0.635269 0.361747
O O6 0.704037 0.402549 0.546145
O O7 0.929235 0.318481 0.516660
O O8 0.923481 0.457966 0.952580
O O9 0.777943 0.395885 0.293624
O O10 0.161584 0.269071 0.477081
O O11 0.375777 0.186237 0.435354
O O12 0.060224 0.952895 0.442103
#
# Coordination Sequence:
#
# PCOD9576346 Si02
#       8
#     3   6   3   3   3   6   6   6
#     4  11  24  42  73 100 136 188 231 282 354 407
#     4  11  22  44  67 102 137 177 231 285 338 418
#     4  12  24  44  70  92 136 182 228 280 346 418
#     4  10  24  42  67  99 132 180 232 280 342 409
#     4  11  22  42  70 101 132 176 227 280 342 398
#     4  11  24  45  69 100 139 183 228 287 346 411
#     4  11  24  43  66 100 135 178 226 284 343 407
#     4  11  23  43  67  96 134 184 223 277 344 418
#
# _framework density 19.668635999999999
#
# number of rings (size 3 to 8) (size 9 to 14) (size 15 to 20)
#    0.000    1.000    5.000    2.000    0.000    0.667 
#    6.000    0.000    0.000    2.000    0.000    0.000 
#    0.000    0.000    0.000    0.000    0.000    0.000 
#
# Total GULP energy -200745.738300 kJ/mol
# GULP energy per Si atom -5576.270508 kJ/mol
# Density = 1.962387 g / cm^3
# Si number density = 19.668636 Si / 1000 Ang^3
#
#
#
# Elastic Constant Matrix: (Units=GPa)
#
#
# Indices 1 2 3 4 5 6 
#
# 1 98.0089 69.5768 57.6733 0.0005 0.0613 0.0000
# 2 69.5768 98.0089 57.6733 -0.0005 -0.0613 0.0000
# 3 57.6733 57.6733 128.7799 0.0000 0.0000 0.0000
# 4 0.0005 -0.0005 0.0000 38.5107 0.0000 -0.0613
# 5 0.0613 -0.0613 0.0000 0.0000 38.5107 0.0005
# 6 0.0000 0.0000 0.0000 -0.0613 0.0005 14.2161
#
#
#
# Elastic Compliance Matrix: (Units=1/GPa)
#
#
# Indices 1 2 3 4 5 6 
#
# 1 0.021899 -0.013273 -0.003863 0.000000 -0.000056 0.000000
# 2 -0.013273 0.021899 -0.003863 0.000000 0.000056 0.000000
# 3 -0.003863 -0.003863 0.011225 0.000000 0.000000 0.000000
# 4 0.000000 0.000000 0.000000 0.025967 0.000000 0.000112
# 5 -0.000056 0.000056 0.000000 0.000000 0.025967 -0.000001
# 6 0.000000 0.000000 0.000000 0.000112 -0.000001 0.070343
#
#
# Mechanical properties :
#
#
# Convention : Reuss Voigt Hill
#
# Bulk Modulus (GPa) = 76.77589 77.18271 76.97930
# Shear Modulus (GPa) = 22.35732 27.57244 24.96488
#
# Velocity S-wave (km/s) = 3.37515 3.74819 3.56655
# Velocity P-wave (km/s) = 7.36942 7.61962 7.49556
#
# Compressibility (1/GPa) = 0.01302492
#
# Stress axis : x y z
#
# Youngs Moduli (GPa) = 45.66443 45.66443 89.08423
#
# Poissons Ratio (x) = 0.60610 0.34414
# Poissons Ratio (y) = 0.60610 0.34414
# Poissons Ratio (z) = 0.17641 0.17641
#
# Static dielectric constant tensor:
#      x y z
#    x 1.696440 0.000000 0.000000 
#    y 0.000000 1.696440 0.000000 
#    z 0.000000 0.000000 1.761570 
# 
# From -- ./inp_files/4819.got.cif
#   From: 2010.05.17/outbox.cif.g08.bks.cpg/sg153_3_cif.got.tgz:4819.got - 2010.05.20 10:38:56.
