data_PCOD9576181
_publ_section_title
;
Structure prediction by ZEFSAII (Michael W. Deem and Ramdas Pophale) SiO2 
 PCOD9576181
Probable space group: P 31 2 1
;
_chemical_formula_sum "Si O2"
_cell_formula_units_Z 18
_cell_length_a 12.436240
_cell_length_b 12.436240
_cell_length_c 6.825214
_cell_angle_alpha 90.000000
_cell_angle_beta 90.000000
_cell_angle_gamma 120.000000
_cell_volume 914.166061
_symmetry_space_group_name_H-M "P 31 2 1"
_symmetry_group_IT_number 152
_symmetry_cell_setting 'hexagonal'
loop_
_space_group_symop_operation_xyz
x,y,z
-y,x-y,1/3+z
-x+y,-x,2/3+z
x-y,-y,2/3-z
-x,-x+y,1/3-z
y,x,-z
loop_
_atom_site_type_symbol
_atom_site_label
_atom_site_fract_x
_atom_site_fract_y
_atom_site_fract_z
Si Si1 0.320643 0.364540 0.801269
Si Si2 0.860626 0.194973 0.216212
Si Si3 0.785830 0.389668 0.086773
O O1 0.321560 0.239579 0.746158
O O2 0.365307 0.475841 0.653738
O O3 0.406858 0.406858 0.000000
O O4 0.187782 0.327548 0.899517
O O5 0.843332 0.313264 0.187658
O O6 0.000000 0.233618 0.166667
O O7 0.690724 0.398496 0.234218
#
# Coordination Sequence:
#
# PCOD9576181 Si02
#       3
#     6   6   6
#     4   8  21  41  58  95 124 159 223 248 304 393
#     4   9  21  39  64  86 128 172 201 265 309 371
#     4  12  22  37  64  98 130 164 202 266 325 375
#
# _framework density 19.690079000000001
#
# number of rings (size 3 to 8) (size 9 to 14) (size 15 to 20)
#    2.000    0.000    3.333    0.000    4.667    2.667 
#    0.000    0.000   29.333    0.000    0.000    0.000 
#    0.000    0.000    0.000    0.000    0.000    0.000 
#
# Total GULP energy -100238.739742 kJ/mol
# GULP energy per Si atom -5568.818875 kJ/mol
# Density = 1.964526 g / cm^3
# Si number density = 19.690079 Si / 1000 Ang^3
#
#
#
# Elastic Constant Matrix: (Units=GPa)
#
#
# Indices 1 2 3 4 5 6 
#
# 1 117.9000 67.9363 21.6030 -0.0025 0.0000 0.0000
# 2 67.9363 117.9000 21.6030 0.0025 0.0000 0.0000
# 3 21.6030 21.6030 35.9287 0.0000 0.0000 0.0000
# 4 -0.0025 0.0025 0.0000 27.7541 0.0000 0.0000
# 5 0.0000 0.0000 0.0000 0.0000 27.7541 -0.0025
# 6 0.0000 0.0000 0.0000 0.0000 -0.0025 24.9819
#
#
#
# Elastic Compliance Matrix: (Units=1/GPa)
#
#
# Indices 1 2 3 4 5 6 
#
# 1 0.013135 -0.006879 -0.003761 0.000002 0.000000 0.000000
# 2 -0.006879 0.013135 -0.003761 -0.000002 0.000000 0.000000
# 3 -0.003761 -0.003761 0.032356 0.000000 0.000000 0.000000
# 4 0.000002 -0.000002 0.000000 0.036031 0.000000 0.000000
# 5 0.000000 0.000000 0.000000 0.000000 0.036031 0.000004
# 6 0.000000 0.000000 0.000000 0.000000 0.000004 0.040029
#
#
# Mechanical properties :
#
#
# Convention : Reuss Voigt Hill
#
# Bulk Modulus (GPa) = 33.53232 54.89037 44.21135
# Shear Modulus (GPa) = 23.87073 26.80377 25.33725
#
# Velocity S-wave (km/s) = 3.48562 3.69356 3.59110
# Velocity P-wave (km/s) = 5.76771 6.79173 6.30055
#
# Compressibility (1/GPa) = 0.02982197
#
# Stress axis : x y z
#
# Youngs Moduli (GPa) = 76.13223 76.13223 30.90606
#
# Poissons Ratio (x) = 0.52375 0.11625
# Poissons Ratio (y) = 0.52375 0.11625
# Poissons Ratio (z) = 0.28636 0.28636
#
# Static dielectric constant tensor:
#      x y z
#    x 1.690270 0.000000 0.000000 
#    y 0.000000 1.690270 0.000000 
#    z 0.000000 0.000000 1.758650 
# 
# From -- ./inp_files/825.got.cif
#   From: 2010.05.17/outbox.cif.g08.bks.cpg/sg152_1_cif.got.tgz:825.got - 2010.05.20 10:36:06.
