data_PCOD9576537
_publ_section_title
;
Structure prediction by ZEFSAII (Michael W. Deem and Ramdas Pophale) SiO2 
 PCOD9576537
Probable space group: P 32 2 1
;
_chemical_formula_sum "Si O2"
_cell_formula_units_Z 21
_cell_length_a 9.755456
_cell_length_b 9.755456
_cell_length_c 9.881282
_cell_angle_alpha 90.000000
_cell_angle_beta 90.000000
_cell_angle_gamma 120.000000
_cell_volume 814.402455
_symmetry_space_group_name_H-M "P 32 2 1"
_symmetry_group_IT_number 154
_symmetry_cell_setting 'hexagonal'
loop_
_space_group_symop_operation_xyz
x,y,z
-y,x-y,2/3+z
-x+y,-x,1/3+z
x-y,-y,1/3-z
-x,-x+y,2/3-z
y,x,-z
loop_
_atom_site_type_symbol
_atom_site_label
_atom_site_fract_x
_atom_site_fract_y
_atom_site_fract_z
Si Si1 0.575321 0.782514 0.459812
Si Si2 0.438129 0.520896 0.264900
Si Si3 0.000000 0.089852 0.833334
Si Si4 0.220389 0.884599 0.439270
O O1 0.455435 0.610071 0.405212
O O2 0.752697 0.838669 0.405829
O O3 0.537397 0.908071 0.396645
O O4 0.599327 0.793614 0.621723
O O5 0.267429 0.454036 0.198828
O O6 0.606473 0.639872 0.191776
O O7 0.155703 0.080221 0.867975
#
# Coordination Sequence:
#
# PCOD9576537 Si02
#       4
#     6   6   3   6
#     4  11  24  46  76 114 156 207 249 329 386 468
#     4  11  25  45  80 110 158 208 259 313 408 455
#     4  10  20  44  78 106 160 204 250 320 394 448
#     4  11  25  48  76 118 160 202 260 330 384 478
#
# _framework density 25.785779999999999
#
# number of rings (size 3 to 8) (size 9 to 14) (size 15 to 20)
#    0.000    1.143    2.857    3.429    4.000    0.000 
#    0.000    8.571    0.000   27.429    0.000    0.000 
#    0.000    0.000    0.000    0.000    0.000    0.000 
#
# Total GULP energy -116941.605096 kJ/mol
# GULP energy per Si atom -5568.647862 kJ/mol
# Density = 2.572709 g / cm^3
# Si number density = 25.785780 Si / 1000 Ang^3
#
#
#
# Elastic Constant Matrix: (Units=GPa)
#
#
# Indices 1 2 3 4 5 6 
#
# 1 96.0489 10.2306 26.5038 -18.3971 0.0000 0.0000
# 2 10.2306 96.0489 26.5038 18.3971 0.0000 0.0000
# 3 26.5038 26.5038 100.5105 0.0000 0.0000 0.0000
# 4 -18.3971 18.3971 0.0000 21.7088 0.0000 0.0000
# 5 0.0000 0.0000 0.0000 0.0000 21.7088 -18.3971
# 6 0.0000 0.0000 0.0000 0.0000 -18.3971 42.9092
#
#
#
# Elastic Compliance Matrix: (Units=1/GPa)
#
#
# Indices 1 2 3 4 5 6 
#
# 1 0.014568 -0.003734 -0.002857 0.015510 0.000000 0.000000
# 2 -0.003734 0.014568 -0.002857 -0.015510 0.000000 0.000000
# 3 -0.002857 -0.002857 0.011456 0.000000 0.000000 0.000000
# 4 0.015510 -0.015510 0.000000 0.072353 0.000000 0.000000
# 5 0.000000 0.000000 0.000000 0.000000 0.072353 0.031021
# 6 0.000000 0.000000 0.000000 0.000000 0.031021 0.036605
#
#
# Mechanical properties :
#
#
# Convention : Reuss Voigt Hill
#
# Bulk Modulus (GPa) = 46.09030 46.56496 46.32763
# Shear Modulus (GPa) = 20.15874 32.55669 26.35772
#
# Velocity S-wave (km/s) = 2.79906 3.55714 3.20062
# Velocity P-wave (km/s) = 5.32536 5.91342 5.62708
#
# Compressibility (1/GPa) = 0.02169654
#
# Stress axis : x y z
#
# Youngs Moduli (GPa) = 68.64228 68.64228 87.29159
#
# Poissons Ratio (x) = 0.25633 0.24938
# Poissons Ratio (y) = 0.25633 0.24938
# Poissons Ratio (z) = 0.19610 0.19610
#
# Static dielectric constant tensor:
#      x y z
#    x 2.186220 0.000000 0.000000 
#    y 0.000000 2.186220 0.000000 
#    z 0.000000 0.000000 2.280170 
# 
# From -- ./inp_files/2297.got.cif
#   From: 2010.05.17/outbox.cif.g08.bks.cpg/sg154_2_cif.got.tgz:2297.got - 2010.05.20 10:41:43.
