data_PCOD9576022
_publ_section_title
;
Structure prediction by ZEFSAII (Michael W. Deem and Ramdas Pophale) SiO2 
 PCOD9576022
Probable space group: P 31 2 1
;
_chemical_formula_sum "Si O2"
_cell_formula_units_Z 45
_cell_length_a 14.262931
_cell_length_b 14.262931
_cell_length_c 12.682556
_cell_angle_alpha 90.000000
_cell_angle_beta 90.000000
_cell_angle_gamma 120.000000
_cell_volume 2234.369440
_symmetry_space_group_name_H-M "P 31 2 1"
_symmetry_group_IT_number 152
_symmetry_cell_setting 'hexagonal'
loop_
_space_group_symop_operation_xyz
x,y,z
-y,x-y,1/3+z
-x+y,-x,2/3+z
x-y,-y,2/3-z
-x,-x+y,1/3-z
y,x,-z
loop_
_atom_site_type_symbol
_atom_site_label
_atom_site_fract_x
_atom_site_fract_y
_atom_site_fract_z
Si Si1 0.391453 0.221886 0.269973
Si Si2 0.912886 0.341442 0.757493
Si Si3 0.455449 0.775735 0.581987
Si Si4 0.436474 0.093993 0.087625
Si Si5 0.378594 0.622820 0.781384
Si Si6 0.001793 0.842344 0.479378
Si Si7 0.000000 0.963091 0.666667
Si Si8 0.770405 0.648868 0.535554
O O1 0.372614 0.151356 0.375578
O O2 0.423642 0.163046 0.180436
O O3 0.505530 0.333148 0.274794
O O4 0.281093 0.214011 0.231308
O O5 0.824894 0.375205 0.785626
O O6 0.000000 0.413194 0.666667
O O7 0.973934 0.358228 0.868189
O O8 0.440939 0.881182 0.592751
O O9 0.436885 0.714115 0.692686
O O10 0.358205 0.706236 0.500235
O O11 0.562445 0.784152 0.533557
O O12 0.399739 0.128765 0.983721
O O13 0.983312 0.910516 0.389053
O O14 0.887317 0.755004 0.527977
O O15 0.055038 0.925787 0.576642
O O16 0.683499 0.683499 0.500000
#
# Coordination Sequence:
#
# PCOD9576022 Si02
#       8
#     6   6   6   6   6   6   3   6
#     4  10  23  39  67  98 131 175 229 286 346 420
#     4  10  22  41  65 102 135 179 238 284 350 415
#     4  11  23  42  70  95 141 185 223 285 357 417
#     4  10  23  39  66  97 132 181 226 286 345 416
#     4  11  21  44  65  97 141 178 224 282 348 421
#     4  11  24  44  69  97 129 177 233 292 355 429
#     4  10  22  46  68  90 134 170 224 290 360 402
#     4  12  24  44  67  99 137 179 236 288 356 425
#
# _framework density 20.13991
#
# number of rings (size 3 to 8) (size 9 to 14) (size 15 to 20)
#    0.000    1.333    4.000    1.600    4.667    0.000 
#    1.200    0.000    0.000    0.000    0.000    0.000 
#    0.000    0.000    0.000    0.000    0.000    0.000 
#
# Total GULP energy -250793.678999 kJ/mol
# GULP energy per Si atom -5573.192867 kJ/mol
# Density = 2.009407 g / cm^3
# Si number density = 20.139910 Si / 1000 Ang^3
#
#
#
# Elastic Constant Matrix: (Units=GPa)
#
#
# Indices 1 2 3 4 5 6 
#
# 1 59.1077 28.5745 25.0948 5.7477 0.0000 0.0000
# 2 28.5745 59.1077 25.0948 -5.7477 0.0000 0.0000
# 3 25.0948 25.0948 78.2292 0.0000 0.0000 0.0000
# 4 5.7477 -5.7477 0.0000 27.6265 0.0000 0.0000
# 5 0.0000 0.0000 0.0000 0.0000 27.6265 5.7477
# 6 0.0000 0.0000 0.0000 0.0000 5.7477 15.2666
#
#
#
# Elastic Compliance Matrix: (Units=1/GPa)
#
#
# Indices 1 2 3 4 5 6 
#
# 1 0.024752 -0.010782 -0.004481 -0.007393 0.000000 0.000000
# 2 -0.010782 0.024752 -0.004481 0.007393 0.000000 0.000000
# 3 -0.004481 -0.004481 0.015658 0.000000 0.000000 0.000000
# 4 -0.007393 0.007393 0.000000 0.039273 0.000000 0.000000
# 5 0.000000 0.000000 0.000000 0.000000 0.039273 -0.014786
# 6 0.000000 0.000000 0.000000 0.000000 -0.014786 0.071069
#
#
# Mechanical properties :
#
#
# Convention : Reuss Voigt Hill
#
# Bulk Modulus (GPa) = 38.95214 39.33033 39.14123
# Shear Modulus (GPa) = 19.02397 21.94929 20.48663
#
# Velocity S-wave (km/s) = 3.07675 3.30485 3.19284
# Velocity P-wave (km/s) = 5.65726 5.84241 5.75058
#
# Compressibility (1/GPa) = 0.02567253
#
# Stress axis : x y z
#
# Youngs Moduli (GPa) = 40.40027 40.40027 63.86485
#
# Poissons Ratio (x) = 0.43561 0.28620
# Poissons Ratio (y) = 0.43561 0.28620
# Poissons Ratio (z) = 0.18105 0.18105
#
# Static dielectric constant tensor:
#      x y z
#    x 1.813320 0.000000 0.000000 
#    y 0.000000 1.813320 0.000000 
#    z 0.000000 0.000000 1.724800 
# 
# From -- ./inp_files/1869.got.cif
#   From: 2010.05.17/outbox.cif.g08.bks.cpg/sg152_1_cif.got.tgz:1869.got - 2010.05.20 10:36:06.
