data_PCOD9576697
_publ_section_title
;
Structure prediction by ZEFSAII (Michael W. Deem and Ramdas Pophale) SiO2 
 PCOD9576697
Probable space group: P 32 2 1
;
_chemical_formula_sum "Si O2"
_cell_formula_units_Z 36
_cell_length_a 13.218017
_cell_length_b 13.218017
_cell_length_c 13.249142
_cell_angle_alpha 90.000000
_cell_angle_beta 90.000000
_cell_angle_gamma 120.000000
_cell_volume 2004.707424
_symmetry_space_group_name_H-M "P 32 2 1"
_symmetry_group_IT_number 154
_symmetry_cell_setting 'hexagonal'
loop_
_space_group_symop_operation_xyz
x,y,z
-y,x-y,2/3+z
-x+y,-x,1/3+z
x-y,-y,1/3-z
-x,-x+y,2/3-z
y,x,-z
loop_
_atom_site_type_symbol
_atom_site_label
_atom_site_fract_x
_atom_site_fract_y
_atom_site_fract_z
Si Si1 0.474747 0.497467 0.727217
Si Si2 0.083504 0.358879 0.930956
Si Si3 0.126113 0.020732 0.286929
Si Si4 0.778672 0.320331 0.067296
Si Si5 0.747904 0.448227 0.504980
Si Si6 0.320853 0.247298 0.398488
O O1 0.558254 0.609078 0.659357
O O2 0.560761 0.453695 0.765805
O O3 0.414299 0.543793 0.805175
O O4 0.369632 0.397230 0.661060
O O5 0.213520 0.437695 0.891451
O O6 0.000000 0.316866 0.833334
O O7 0.058792 0.241281 0.986553
O O8 0.222302 0.149984 0.325259
O O9 0.106955 0.000000 0.166667
O O10 0.000000 0.977986 0.333334
O O11 0.664955 0.315252 0.114592
O O12 0.788975 0.206696 0.094480
O O13 0.760613 0.308420 0.945994
O O14 0.266202 0.266202 0.500000
#
# Coordination Sequence:
#
# PCOD9576697 Si02
#       6
#     6   6   6   6   6   6
#     4  11  20  37  60  90 118 151 205 254 306 358
#     4  11  18  37  63  86 111 155 206 248 292 357
#     4  11  23  41  61  90 126 162 208 251 306 372
#     4  11  21  38  59  88 120 157 203 253 304 370
#     4  11  21  36  59  88 119 155 203 251 303 369
#     4  11  21  38  66  91 115 160 214 255 298 364
#
# _framework density 17.957733000000001
#
# number of rings (size 3 to 8) (size 9 to 14) (size 15 to 20)
#    0.000    1.000    6.667    5.000    0.000    0.000 
#    6.000    0.833    0.000    0.000    0.000    0.000 
#    0.000    0.000    0.000    0.000    0.000    0.000 
#
# Total GULP energy -200837.408109 kJ/mol
# GULP energy per Si atom -5578.816892 kJ/mol
# Density = 1.791686 g / cm^3
# Si number density = 17.957733 Si / 1000 Ang^3
#
#
#
# Elastic Constant Matrix: (Units=GPa)
#
#
# Indices 1 2 3 4 5 6 
#
# 1 107.6743 39.7756 18.5072 -2.6600 0.0001 0.0000
# 2 39.7756 107.6743 18.5072 2.6600 -0.0001 0.0000
# 3 18.5072 18.5072 43.9330 0.0000 0.0000 0.0000
# 4 -2.6600 2.6600 0.0000 24.0271 0.0000 -0.0001
# 5 0.0001 -0.0001 0.0000 0.0000 24.0271 -2.6600
# 6 0.0000 0.0000 0.0000 -0.0001 -2.6600 33.9494
#
#
#
# Elastic Compliance Matrix: (Units=1/GPa)
#
#
# Indices 1 2 3 4 5 6 
#
# 1 0.011220 -0.003636 -0.003195 0.001645 0.000000 0.000000
# 2 -0.003636 0.011220 -0.003195 -0.001645 0.000000 0.000000
# 3 -0.003195 -0.003195 0.025454 0.000000 0.000000 0.000000
# 4 0.001645 -0.001645 0.000000 0.041984 0.000000 0.000000
# 5 0.000000 0.000000 0.000000 0.000000 0.041984 0.003289
# 6 0.000000 0.000000 0.000000 0.000000 0.003289 0.029713
#
#
# Mechanical properties :
#
#
# Convention : Reuss Voigt Hill
#
# Bulk Modulus (GPa) = 35.91661 45.87353 40.89507
# Shear Modulus (GPa) = 26.19061 28.56682 27.37871
#
# Velocity S-wave (km/s) = 3.82312 3.99279 3.90887
# Velocity P-wave (km/s) = 6.28748 6.84523 6.57227
#
# Compressibility (1/GPa) = 0.02784227
#
# Stress axis : x y z
#
# Youngs Moduli (GPa) = 89.12402 89.12402 39.28710
#
# Poissons Ratio (x) = 0.32409 0.12552
# Poissons Ratio (y) = 0.32409 0.12552
# Poissons Ratio (z) = 0.28474 0.28474
#
# Static dielectric constant tensor:
#      x y z
#    x 1.635280 0.000000 0.000000 
#    y 0.000000 1.635280 0.000000 
#    z 0.000000 0.000000 1.623070 
# 
# From -- ./inp_files/1993.got.cif
#   From: 2010.05.17/outbox.cif.g08.bks.cpg/sg154_1_cif.got.tgz:1993.got - 2010.05.20 10:41:43.
