data_PCOD9576348
_publ_section_title
;
Structure prediction by ZEFSAII (Michael W. Deem and Ramdas Pophale) SiO2 
 PCOD9576348
Probable space group: P 32 1 2
;
_chemical_formula_sum "Si O2"
_cell_formula_units_Z 24
_cell_length_a 15.480761
_cell_length_b 15.480761
_cell_length_c 5.197201
_cell_angle_alpha 90.000000
_cell_angle_beta 90.000000
_cell_angle_gamma 120.000000
_cell_volume 1078.660454
_symmetry_space_group_name_H-M "P 32 1 2"
_symmetry_group_IT_number 153
_symmetry_cell_setting 'hexagonal'
loop_
_space_group_symop_operation_xyz
x,y,z
-y,x-y,2/3+z
-x+y,-x,1/3+z
-y,-x,1/3-z
-x+y,y,2/3-z
x,x-y,-z
loop_
_atom_site_type_symbol
_atom_site_label
_atom_site_fract_x
_atom_site_fract_y
_atom_site_fract_z
Si Si1 0.168903 0.666896 0.340358
Si Si2 0.609482 0.390519 0.666667
Si Si3 0.674598 0.837299 0.000000
Si Si4 0.746273 0.693965 0.847223
Si Si5 0.423333 0.054404 0.024682
O O1 0.200501 0.600251 0.500000
O O2 0.153114 0.750890 0.478213
O O3 0.054246 0.586367 0.263807
O O4 0.262958 0.737043 0.166667
O O5 0.582776 0.291388 0.500000
O O6 0.619209 0.472564 0.456905
O O7 0.738725 0.946295 0.113905
O O8 0.856456 0.712912 0.833334
O O9 0.703786 0.652763 0.568143
O O10 0.679373 0.614230 0.073784
#
# Coordination Sequence:
#
# PCOD9576348 Si02
#       5
#     6   3   3   6   6
#     4  11  25  47  75 107 149 198 246 312 372 451
#     4  12  32  48  69 108 155 196 260 318 362 446
#     4  10  24  46  71 110 149 192 246 312 372 448
#     4  11  24  46  80 107 147 197 249 305 380 445
#     4  11  27  48  74 106 148 200 250 306 378 443
#
# _framework density 22.249818000000001
#
# number of rings (size 3 to 8) (size 9 to 14) (size 15 to 20)
#    0.000    1.000    2.500    1.500   14.000    2.000 
#    0.000    2.500   11.000    0.000    0.000    0.000 
#    0.000    0.000    0.000    0.000    0.000    0.000 
#
# Total GULP energy -134052.042540 kJ/mol
# GULP energy per Si atom -5585.501772 kJ/mol
# Density = 2.219918 g / cm^3
# Si number density = 22.249818 Si / 1000 Ang^3
#
#
#
# Elastic Constant Matrix: (Units=GPa)
#
#
# Indices 1 2 3 4 5 6 
#
# 1 143.0745 55.1220 9.7154 0.0008 -3.9749 0.0000
# 2 55.1220 143.0745 9.7154 -0.0008 3.9749 0.0000
# 3 9.7154 9.7154 22.6265 0.0000 0.0000 0.0000
# 4 0.0008 -0.0008 0.0000 39.4452 0.0000 3.9749
# 5 -3.9749 3.9749 0.0000 0.0000 39.4452 0.0008
# 6 0.0000 0.0000 0.0000 3.9749 0.0008 43.9762
#
#
#
# Elastic Compliance Matrix: (Units=1/GPa)
#
#
# Indices 1 2 3 4 5 6 
#
# 1 0.008371 -0.003104 -0.002262 0.000000 0.001156 0.000000
# 2 -0.003104 0.008371 -0.002262 0.000000 -0.001156 0.000000
# 3 -0.002262 -0.002262 0.046138 0.000000 0.000000 0.000000
# 4 0.000000 0.000000 0.000000 0.025585 0.000000 -0.002313
# 5 0.001156 -0.001156 0.000000 0.000000 0.025585 0.000000
# 6 0.000000 0.000000 0.000000 -0.002313 0.000000 0.022949
#
#
# Mechanical properties :
#
#
# Convention : Reuss Voigt Hill
#
# Bulk Modulus (GPa) = 20.99690 50.87568 35.93629
# Shear Modulus (GPa) = 29.73946 40.18816 34.96381
#
# Velocity S-wave (km/s) = 3.65994 4.25458 3.96841
# Velocity P-wave (km/s) = 5.22662 6.85934 6.09788
#
# Compressibility (1/GPa) = 0.04762609
#
# Stress axis : x y z
#
# Youngs Moduli (GPa) = 119.46349 119.46349 21.67399
#
# Poissons Ratio (x) = 0.37076 0.04902
# Poissons Ratio (y) = 0.37076 0.04902
# Poissons Ratio (z) = 0.27019 0.27019
#
# Static dielectric constant tensor:
#      x y z
#    x 1.808400 0.000000 0.000000 
#    y 0.000000 1.808400 0.000000 
#    z 0.000000 0.000000 1.986380 
# 
# From -- ./inp_files/247.got.cif
#   From: 2010.05.17/outbox.cif.g08.bks.cpg/sg153_1_cif.got.tgz:247.got - 2010.05.20 10:38:56.
