data_PCOD9576902
_publ_section_title
;
Structure prediction by ZEFSAII (Michael W. Deem and Ramdas Pophale) SiO2 
 PCOD9576902
Probable space group: R 3 2
;
_chemical_formula_sum "Si O2"
_cell_formula_units_Z 144
_cell_length_a 21.322549
_cell_length_b 21.322549
_cell_length_c 20.127961
_cell_angle_alpha 90.000000
_cell_angle_beta 90.000000
_cell_angle_gamma 120.000000
_cell_volume 7925.171265
_symmetry_space_group_name_H-M "R 3 2"
_symmetry_group_IT_number 155
_symmetry_cell_setting 'hexagonal'
loop_
_space_group_symop_operation_xyz
x,y,z
-y,x-y,z
-x+y,-x,z
x-y,-y,-z
-x,-x+y,-z
y,x,-z
2/3+x,1/3+y,1/3+z
2/3-y,1/3+x-y,1/3+z
2/3-x+y,1/3-x,1/3+z
2/3+x-y,1/3-y,1/3-z
2/3-x,1/3-x+y,1/3-z
2/3+y,1/3+x,1/3-z
1/3+x,2/3+y,2/3+z
1/3-y,2/3+x-y,2/3+z
1/3-x+y,2/3-x,2/3+z
1/3+x-y,2/3-y,2/3-z
1/3-x,2/3-x+y,2/3-z
1/3+y,2/3+x,2/3-z
loop_
_atom_site_type_symbol
_atom_site_label
_atom_site_fract_x
_atom_site_fract_y
_atom_site_fract_z
Si Si1 0.415040 0.944858 0.310711
Si Si2 0.046645 0.796555 0.689984
Si Si3 0.747016 0.951481 0.439297
Si Si4 0.614507 0.087891 0.143032
Si Si5 0.946391 0.415555 0.939013
Si Si6 0.802593 0.750813 0.060179
Si Si7 0.950141 0.750848 0.063310
Si Si8 0.874014 0.254126 0.483498
O O1 0.460253 0.908013 0.335163
O O2 0.332203 0.890569 0.294298
O O3 0.421611 0.002039 0.366687
O O4 0.452377 0.994674 0.245277
O O5 0.082235 0.750614 0.718324
O O6 0.000875 0.759470 0.624369
O O7 0.993401 0.797738 0.745472
O O8 0.663553 0.913873 0.461537
O O9 0.758207 0.884898 0.419057
O O10 0.795220 0.000000 0.500000
O O11 0.667308 0.111247 0.205360
O O12 0.542907 0.091677 0.160401
O O13 0.995837 0.415661 0.878260
O O14 0.000000 0.458386 0.000000
O O15 0.882633 0.764242 0.070083
O O16 0.765476 0.764500 0.123154
O O17 0.799450 0.799450 0.000000
O O18 0.000000 0.790989 0.000000
#
# Coordination Sequence:
#
# PCOD9576902 Si02
#       8
#    18  18  18  18  18  18  18  18
#     4  10  21  36  56  82 112 147 183 226 277 326
#     4  11  21  35  54  81 115 144 177 225 275 331
#     4  11  21  35  56  82 112 144 181 227 276 330
#     4  11  21  33  54  83 112 144 179 221 280 332
#     4  11  22  35  55  83 111 146 185 223 274 329
#     4   9  19  36  55  79 112 146 182 226 274 324
#     4  11  20  32  55  82 112 146 180 223 275 330
#     4  10  20  36  56  78 111 147 182 229 275 324
#
# _framework density 18.169954000000001
#
# number of rings (size 3 to 8) (size 9 to 14) (size 15 to 20)
#    0.000    1.500    0.000    9.750    0.000    1.000 
#    0.000    5.000    0.000    5.000    0.000    7.000 
#    0.000    0.000    0.000    0.000    0.000    0.000 
#
# Total GULP energy -268337.726281 kJ/mol
# GULP energy per Si atom -5590.369298 kJ/mol
# Density = 1.812860 g / cm^3
# Si number density = 18.169954 Si / 1000 Ang^3
#
#
#
# Elastic Constant Matrix: (Units=GPa)
#
#
# Indices 1 2 3 4 5 6 
#
# 1 100.2950 55.7440 38.9223 8.5392 0.0000 0.0000
# 2 55.7440 100.2950 38.9223 -8.5392 0.0000 0.0000
# 3 38.9223 38.9223 101.7556 0.0000 0.0000 0.0000
# 4 8.5392 -8.5392 0.0000 27.8907 0.0000 0.0000
# 5 0.0000 0.0000 0.0000 0.0000 27.8907 8.5392
# 6 0.0000 0.0000 0.0000 0.0000 8.5392 22.2755
#
#
#
# Elastic Compliance Matrix: (Units=1/GPa)
#
#
# Indices 1 2 3 4 5 6 
#
# 1 0.016675 -0.008756 -0.003029 -0.007786 0.000000 0.000000
# 2 -0.008756 0.016675 -0.003029 0.007786 0.000000 0.000000
# 3 -0.003029 -0.003029 0.012145 0.000000 0.000000 0.000000
# 4 -0.007786 0.007786 0.000000 0.040622 0.000000 0.000000
# 5 0.000000 0.000000 0.000000 0.000000 0.040622 -0.015572
# 6 0.000000 0.000000 0.000000 0.000000 -0.015572 0.050862
#
#
# Mechanical properties :
#
#
# Convention : Reuss Voigt Hill
#
# Bulk Modulus (GPa) = 63.02308 63.28030 63.15169
# Shear Modulus (GPa) = 23.52721 26.86183 25.19452
#
# Velocity S-wave (km/s) = 3.60229 3.84912 3.72775
# Velocity P-wave (km/s) = 7.21545 7.39303 7.30478
#
# Compressibility (1/GPa) = 0.01586720
#
# Stress axis : x y z
#
# Youngs Moduli (GPa) = 59.96825 59.96825 82.33807
#
# Poissons Ratio (x) = 0.52505 0.24944
# Poissons Ratio (y) = 0.52505 0.24944
# Poissons Ratio (z) = 0.18167 0.18167
#
# Static dielectric constant tensor:
#      x y z
#    x 1.616680 0.000000 0.000000 
#    y 0.000000 1.616680 0.000000 
#    z 0.000000 0.000000 1.648910 
# 
# From -- ./inp_files/7067.got.cif
#   From: 2010.05.17/outbox.cif.g08.bks.cpg/sg155_4_cif.got.tgz:7067.got - 2010.05.20 10:44:35.
