data_PCOD9576673
_publ_section_title
;
Structure prediction by ZEFSAII (Michael W. Deem and Ramdas Pophale) SiO2 
 PCOD9576673
Probable space group: P 32 2 1
;
_chemical_formula_sum "Si O2"
_cell_formula_units_Z 18
_cell_length_a 11.134292
_cell_length_b 11.134292
_cell_length_c 8.003962
_cell_angle_alpha 90.000000
_cell_angle_beta 90.000000
_cell_angle_gamma 120.000000
_cell_volume 859.331760
_symmetry_space_group_name_H-M "P 32 2 1"
_symmetry_group_IT_number 154
_symmetry_cell_setting 'hexagonal'
loop_
_space_group_symop_operation_xyz
x,y,z
-y,x-y,2/3+z
-x+y,-x,1/3+z
x-y,-y,1/3-z
-x,-x+y,2/3-z
y,x,-z
loop_
_atom_site_type_symbol
_atom_site_label
_atom_site_fract_x
_atom_site_fract_y
_atom_site_fract_z
Si Si1 0.000000 0.319737 0.833334
Si Si2 0.317267 0.317267 0.000000
Si Si3 0.277803 0.708613 0.238876
Si Si4 0.147477 0.977702 0.487717
O O1 0.128933 0.467360 0.875084
O O2 0.028736 0.247948 0.673068
O O3 0.343287 0.458423 0.919268
O O4 0.251502 0.188490 0.870560
O O5 0.330327 0.686170 0.415684
O O6 0.218869 0.000000 0.666667
O O7 0.053825 0.053825 0.500000
#
# Coordination Sequence:
#
# PCOD9576673 Si02
#       4
#     3   3   6   6
#     4  10  26  46  66 110 136 176 236 274 344 418
#     4  10  24  44  66 108 138 170 238 276 334 428
#     4  11  27  48  72  97 139 181 231 282 338 415
#     4  11  19  37  70 103 144 173 214 288 343 385
#
# _framework density 20.94651
#
# number of rings (size 3 to 8) (size 9 to 14) (size 15 to 20)
#    0.000    1.333    1.667    4.000    7.000    5.333 
#    6.000    0.000    0.000    0.000    0.000    0.000 
#    0.000    0.000    0.000    0.000    0.000    0.000 
#
# Total GULP energy -100477.511904 kJ/mol
# GULP energy per Si atom -5582.083995 kJ/mol
# Density = 2.089883 g / cm^3
# Si number density = 20.946510 Si / 1000 Ang^3
#
#
#
# Elastic Constant Matrix: (Units=GPa)
#
#
# Indices 1 2 3 4 5 6 
#
# 1 30.9550 2.4725 14.6304 -3.6505 -0.0001 0.0000
# 2 2.4725 30.9550 14.6304 3.6505 0.0001 0.0000
# 3 14.6304 14.6304 159.4196 0.0000 0.0000 0.0000
# 4 -3.6505 3.6505 0.0000 7.7070 0.0000 0.0001
# 5 -0.0001 0.0001 0.0000 0.0000 7.7070 -3.6505
# 6 0.0000 0.0000 0.0000 0.0001 -3.6505 14.2413
#
#
#
# Elastic Compliance Matrix: (Units=1/GPa)
#
#
# Indices 1 2 3 4 5 6 
#
# 1 0.036245 -0.003716 -0.002985 0.018928 0.000000 0.000000
# 2 -0.003716 0.036245 -0.002985 -0.018928 0.000000 0.000000
# 3 -0.002985 -0.002985 0.006821 0.000000 0.000000 0.000000
# 4 0.018928 -0.018928 0.000000 0.147684 0.000000 -0.000001
# 5 0.000000 0.000000 0.000000 0.000000 0.147684 0.037856
# 6 0.000000 0.000000 0.000000 -0.000001 0.037856 0.079922
#
#
# Mechanical properties :
#
#
# Convention : Reuss Voigt Hill
#
# Bulk Modulus (GPa) = 16.68419 31.64402 24.16410
# Shear Modulus (GPa) = 10.12243 18.57080 14.34662
#
# Velocity S-wave (km/s) = 2.20068 2.98078 2.61993
# Velocity P-wave (km/s) = 3.79997 5.19486 4.55117
#
# Compressibility (1/GPa) = 0.05993699
#
# Stress axis : x y z
#
# Youngs Moduli (GPa) = 27.59009 27.59009 146.61281
#
# Poissons Ratio (x) = 0.10253 0.43768
# Poissons Ratio (y) = 0.10253 0.43768
# Poissons Ratio (z) = 0.08236 0.08236
#
# Static dielectric constant tensor:
#      x y z
#    x 1.780420 0.000000 0.000000 
#    y 0.000000 1.780420 0.000000 
#    z 0.000000 0.000000 1.781380 
# 
# From -- ./inp_files/793.got.cif
#   From: 2010.05.17/outbox.cif.g08.bks.cpg/sg154_1_cif.got.tgz:793.got - 2010.05.20 10:41:43.
