data_PCOD9576046
_publ_section_title
;
Structure prediction by ZEFSAII (Michael W. Deem and Ramdas Pophale) SiO2 
 PCOD9576046
Probable space group: P 31 2 1
;
_chemical_formula_sum "Si O2"
_cell_formula_units_Z 21
_cell_length_a 8.655640
_cell_length_b 8.655640
_cell_length_c 14.020368
_cell_angle_alpha 90.000000
_cell_angle_beta 90.000000
_cell_angle_gamma 120.000000
_cell_volume 909.679515
_symmetry_space_group_name_H-M "P 31 2 1"
_symmetry_group_IT_number 152
_symmetry_cell_setting 'hexagonal'
loop_
_space_group_symop_operation_xyz
x,y,z
-y,x-y,1/3+z
-x+y,-x,2/3+z
x-y,-y,2/3-z
-x,-x+y,1/3-z
y,x,-z
loop_
_atom_site_type_symbol
_atom_site_label
_atom_site_fract_x
_atom_site_fract_y
_atom_site_fract_z
Si Si1 0.320515 0.956031 0.198562
Si Si2 0.059076 0.354487 0.317391
Si Si3 0.000000 0.059865 0.666667
Si Si4 0.735489 0.327498 0.413846
O O1 0.269670 0.869810 0.093475
O O2 0.153638 0.949867 0.249519
O O3 0.391866 0.847267 0.257363
O O4 0.474256 0.157101 0.172858
O O5 0.210021 0.503484 0.252144
O O6 0.870797 0.347790 0.328467
O O7 0.033904 0.161458 0.298951
#
# Coordination Sequence:
#
# PCOD9576046 Si02
#       4
#     6   6   3   6
#     4  10  24  41  71  95 139 181 227 287 354 403
#     4  10  24  41  65 100 135 179 229 283 348 414
#     4  12  22  44  66  96 142 176 234 286 344 422
#     4  10  22  43  67  97 135 178 231 282 350 416
#
# _framework density 23.085055000000001
#
# number of rings (size 3 to 8) (size 9 to 14) (size 15 to 20)
#    1.714    0.000    0.000    4.286    4.000    1.143 
#    0.000    0.000    0.000    0.000    0.000    0.000 
#    0.000    0.000    0.000    0.000    0.000    0.000 
#
# Total GULP energy -117256.131764 kJ/mol
# GULP energy per Si atom -5583.625322 kJ/mol
# Density = 2.303251 g / cm^3
# Si number density = 23.085055 Si / 1000 Ang^3
#
#
#
# Elastic Constant Matrix: (Units=GPa)
#
#
# Indices 1 2 3 4 5 6 
#
# 1 124.6961 52.6980 -8.0247 -2.9542 -0.0001 0.0000
# 2 52.6980 124.6961 -8.0247 2.9542 0.0001 0.0000
# 3 -8.0247 -8.0247 44.9062 0.0000 0.0000 0.0000
# 4 -2.9542 2.9542 0.0000 22.0519 0.0000 0.0001
# 5 -0.0001 0.0001 0.0000 0.0000 22.0519 -2.9542
# 6 0.0000 0.0000 0.0000 0.0001 -2.9542 35.9991
#
#
#
# Elastic Compliance Matrix: (Units=1/GPa)
#
#
# Indices 1 2 3 4 5 6 
#
# 1 0.009887 -0.004157 0.001024 0.001881 0.000000 0.000000
# 2 -0.004157 0.009887 0.001024 -0.001881 0.000000 0.000000
# 3 0.001024 0.001024 0.022635 0.000000 0.000000 0.000000
# 4 0.001881 -0.001881 0.000000 0.045852 0.000000 0.000000
# 5 0.000000 0.000000 0.000000 0.000000 0.045852 0.003763
# 6 0.000000 0.000000 0.000000 0.000000 0.003763 0.028087
#
#
# Mechanical properties :
#
#
# Convention : Reuss Voigt Hill
#
# Bulk Modulus (GPa) = 26.18498 40.84396 33.51447
# Shear Modulus (GPa) = 27.91010 33.19724 30.55367
#
# Velocity S-wave (km/s) = 3.48086 3.79626 3.64198
# Velocity P-wave (km/s) = 5.24620 6.07838 5.67756
#
# Compressibility (1/GPa) = 0.03818984
#
# Stress axis : x y z
#
# Youngs Moduli (GPa) = 101.14584 101.14584 44.18015
#
# Poissons Ratio (x) = 0.42045 -0.04524
# Poissons Ratio (y) = 0.42045 -0.04524
# Poissons Ratio (z) = -0.10356 -0.10356
#
# Static dielectric constant tensor:
#      x y z
#    x 1.807740 0.000000 0.000000 
#    y 0.000000 1.807740 0.000000 
#    z 0.000000 0.000000 1.957890 
# 
# From -- ./inp_files/2256.got.cif
#   From: 2010.05.17/outbox.cif.g08.bks.cpg/sg152_2_cif.got.tgz:2256.got - 2010.05.20 10:36:06.
