data_PCOD9576194
_publ_section_title
;
Structure prediction by ZEFSAII (Michael W. Deem and Ramdas Pophale) SiO2 
 PCOD9576194
Probable space group: P 31 2 1
;
_chemical_formula_sum "Si O2"
_cell_formula_units_Z 15
_cell_length_a 11.676107
_cell_length_b 11.676107
_cell_length_c 4.861232
_cell_angle_alpha 90.000000
_cell_angle_beta 90.000000
_cell_angle_gamma 120.000000
_cell_volume 573.948747
_symmetry_space_group_name_H-M "P 31 2 1"
_symmetry_group_IT_number 152
_symmetry_cell_setting 'hexagonal'
loop_
_space_group_symop_operation_xyz
x,y,z
-y,x-y,1/3+z
-x+y,-x,2/3+z
x-y,-y,2/3-z
-x,-x+y,1/3-z
y,x,-z
loop_
_atom_site_type_symbol
_atom_site_label
_atom_site_fract_x
_atom_site_fract_y
_atom_site_fract_z
Si Si1 0.133361 0.133361 0.000000
Si Si2 0.580619 0.801931 0.133974
Si Si3 0.874044 0.476487 0.344500
O O1 0.261422 0.165119 0.189523
O O2 0.000000 0.095805 0.166667
O O3 0.532056 0.659101 0.269295
O O4 0.524508 0.861465 0.358925
O O5 0.495967 0.771925 0.851737
O O6 0.000000 0.570841 0.166667
#
# Coordination Sequence:
#
# PCOD9576194 Si02
#       3
#     3   6   6
#     4  12  30  52  78 118 166 228 268 332 414 516
#     4  12  26  49  79 115 155 203 273 329 415 476
#     4  12  24  47  75 113 151 200 255 338 393 474
#
# _framework density 26.134737999999999
#
# number of rings (size 3 to 8) (size 9 to 14) (size 15 to 20)
#    0.000    0.000    4.000    6.000    5.600    0.000 
#    7.200    0.000    0.000    0.000    0.000    0.000 
#    0.000    0.000    0.000    0.000    0.000    0.000 
#
# Total GULP energy -83789.408045 kJ/mol
# GULP energy per Si atom -5585.960536 kJ/mol
# Density = 2.607525 g / cm^3
# Si number density = 26.134738 Si / 1000 Ang^3
#
#
#
# Elastic Constant Matrix: (Units=GPa)
#
#
# Indices 1 2 3 4 5 6 
#
# 1 117.5319 36.0425 21.5560 -0.9959 0.0000 0.0000
# 2 36.0425 117.5319 21.5560 0.9959 0.0000 0.0000
# 3 21.5560 21.5560 145.2557 0.0000 0.0000 0.0000
# 4 -0.9959 0.9959 0.0000 27.1712 0.0000 0.0000
# 5 0.0000 0.0000 0.0000 0.0000 27.1712 -0.9959
# 6 0.0000 0.0000 0.0000 0.0000 -0.9959 40.7447
#
#
#
# Elastic Compliance Matrix: (Units=1/GPa)
#
#
# Indices 1 2 3 4 5 6 
#
# 1 0.009539 -0.002744 -0.001008 0.000450 0.000000 0.000000
# 2 -0.002744 0.009539 -0.001008 -0.000450 0.000000 0.000000
# 3 -0.001008 -0.001008 0.007184 0.000000 0.000000 0.000000
# 4 0.000450 -0.000450 0.000000 0.036837 0.000000 0.000000
# 5 0.000000 0.000000 0.000000 0.000000 0.036837 0.000900
# 6 0.000000 0.000000 0.000000 0.000000 0.000900 0.024565
#
#
# Mechanical properties :
#
#
# Convention : Reuss Voigt Hill
#
# Bulk Modulus (GPa) = 59.73877 59.84758 59.79317
# Shear Modulus (GPa) = 35.81651 39.09507 37.45579
#
# Velocity S-wave (km/s) = 3.70598 3.87189 3.78984
# Velocity P-wave (km/s) = 6.42028 6.55271 6.48684
#
# Compressibility (1/GPa) = 0.01673955
#
# Stress axis : x y z
#
# Youngs Moduli (GPa) = 104.83773 104.83773 139.20441
#
# Poissons Ratio (x) = 0.28767 0.14036
# Poissons Ratio (y) = 0.28767 0.14036
# Poissons Ratio (z) = 0.10571 0.10571
#
# Static dielectric constant tensor:
#      x y z
#    x 2.343160 0.000000 0.000000 
#    y 0.000000 2.343160 0.000000 
#    z 0.000000 0.000000 2.093520 
# 
# From -- ./inp_files/55.got.cif
#   From: 2010.05.17/outbox.cif.g08.bks.cpg/sg152_1_cif.got.tgz:55.got - 2010.05.20 10:36:06.
