data_PCOD9576056
_publ_section_title
;
Structure prediction by ZEFSAII (Michael W. Deem and Ramdas Pophale) SiO2 
 PCOD9576056
Probable space group: P 31 2 1
;
_chemical_formula_sum "Si O2"
_cell_formula_units_Z 18
_cell_length_a 8.054512
_cell_length_b 8.054512
_cell_length_c 12.034682
_cell_angle_alpha 90.000000
_cell_angle_beta 90.000000
_cell_angle_gamma 120.000000
_cell_volume 676.151034
_symmetry_space_group_name_H-M "P 31 2 1"
_symmetry_group_IT_number 152
_symmetry_cell_setting 'hexagonal'
loop_
_space_group_symop_operation_xyz
x,y,z
-y,x-y,1/3+z
-x+y,-x,2/3+z
x-y,-y,2/3-z
-x,-x+y,1/3-z
y,x,-z
loop_
_atom_site_type_symbol
_atom_site_label
_atom_site_fract_x
_atom_site_fract_y
_atom_site_fract_z
Si Si1 0.791474 0.997998 0.117144
Si Si2 0.473956 0.625890 0.164541
Si Si3 0.856121 0.501516 0.265774
O O1 0.662815 0.062391 0.191665
O O2 0.000000 0.091629 0.166667
O O3 0.681873 0.767551 0.117069
O O4 0.782426 0.082187 0.996093
O O5 0.482852 0.623948 0.297729
O O6 0.351449 0.723557 0.120442
O O7 0.000000 0.534374 0.166667
#
# Coordination Sequence:
#
# PCOD9576056 Si02
#       3
#     6   6   6
#     4  10  24  45  78 120 161 214 287 345 430 517
#     4  10  23  41  80 107 162 216 275 348 425 501
#     4  10  22  44  77 115 163 226 276 350 439 508
#
# _framework density 26.621269999999999
#
# number of rings (size 3 to 8) (size 9 to 14) (size 15 to 20)
#    2.000    0.000    0.000    3.000    4.667    1.333 
#    0.000    5.000    0.000    8.000    0.000    0.000 
#    0.000    0.000    0.000    0.000    0.000    0.000 
#
# Total GULP energy -100569.280485 kJ/mol
# GULP energy per Si atom -5587.182249 kJ/mol
# Density = 2.656068 g / cm^3
# Si number density = 26.621270 Si / 1000 Ang^3
#
#
#
# Elastic Constant Matrix: (Units=GPa)
#
#
# Indices 1 2 3 4 5 6 
#
# 1 142.5725 66.2129 56.0939 37.4808 0.0015 0.0000
# 2 66.2129 142.5725 56.0939 -37.4808 -0.0015 0.0000
# 3 56.0939 56.0939 183.0106 0.0000 0.0000 0.0000
# 4 37.4808 -37.4808 0.0000 -42.3055 0.0000 -0.0015
# 5 0.0015 -0.0015 0.0000 0.0000 -42.3055 37.4808
# 6 0.0000 0.0000 0.0000 -0.0015 37.4808 38.1798
#
#
#
# Elastic Compliance Matrix: (Units=1/GPa)
#
#
# Indices 1 2 3 4 5 6 
#
# 1 0.006369 -0.000635 -0.001757 0.006205 0.000000 0.000000
# 2 -0.000635 0.006369 -0.001757 -0.006205 0.000000 0.000000
# 3 -0.001757 -0.001757 0.006542 0.000000 0.000000 0.000000
# 4 0.006205 -0.006205 0.000000 -0.012642 0.000000 0.000000
# 5 0.000000 0.000000 0.000000 0.000000 -0.012642 0.012411
# 6 0.000000 0.000000 0.000000 0.000000 0.012411 0.014008
#
#
# Mechanical properties :
#
#
# Convention : Reuss Voigt Hill
#
# Bulk Modulus (GPa) = 91.07893 91.66186 91.37039
# Shear Modulus (GPa) = 250.45578 10.03074 130.24326
#
# Velocity S-wave (km/s) = 9.71006 1.94322 7.00219
# Velocity P-wave (km/s) = 12.64915 6.28819 9.98855
#
# Compressibility (1/GPa) = 0.01097949
#
# Stress axis : x y z
#
# Youngs Moduli (GPa) = 157.00881 157.00881 152.86943
#
# Poissons Ratio (x) = 0.09972 0.26867
# Poissons Ratio (y) = 0.09972 0.26867
# Poissons Ratio (z) = 0.27594 0.27594
#
# Static dielectric constant tensor:
#      x y z
#    x 2.126090 0.000000 0.000000 
#    y 0.000000 2.126090 0.000000 
#    z 0.000000 0.000000 2.134260 
# 
# From -- ./inp_files/1524.got.cif
#   From: 2010.05.17/outbox.cif.g08.bks.cpg/sg152_1_cif.got.tgz:1524.got - 2010.05.20 10:36:06.
