data_PCOD9576299
_publ_section_title
;
Structure prediction by ZEFSAII (Michael W. Deem and Ramdas Pophale) SiO2 
 PCOD9576299
Probable space group: P 32 1 2
;
_chemical_formula_sum "Si O2"
_cell_formula_units_Z 36
_cell_length_a 9.134548
_cell_length_b 9.134548
_cell_length_c 25.944893
_cell_angle_alpha 90.000000
_cell_angle_beta 90.000000
_cell_angle_gamma 120.000000
_cell_volume 1874.807318
_symmetry_space_group_name_H-M "P 32 1 2"
_symmetry_group_IT_number 153
_symmetry_cell_setting 'hexagonal'
loop_
_space_group_symop_operation_xyz
x,y,z
-y,x-y,2/3+z
-x+y,-x,1/3+z
-y,-x,1/3-z
-x+y,y,2/3-z
x,x-y,-z
loop_
_atom_site_type_symbol
_atom_site_label
_atom_site_fract_x
_atom_site_fract_y
_atom_site_fract_z
Si Si1 0.374047 0.165109 0.709983
Si Si2 0.244169 0.839575 0.334204
Si Si3 0.225521 0.251423 0.558952
Si Si4 0.134450 0.264031 0.444412
Si Si5 0.021635 0.546148 0.715243
Si Si6 0.708411 0.309308 0.109395
O O1 0.277358 0.262896 0.691658
O O2 0.397963 0.061588 0.663665
O O3 0.555152 0.295273 0.732840
O O4 0.272926 0.040037 0.756113
O O5 0.422676 0.845351 0.333334
O O6 0.196097 0.854137 0.392929
O O7 0.112793 0.664512 0.306706
O O8 0.160835 0.285472 0.505485
O O9 0.423856 0.309697 0.552565
O O10 0.147064 0.050893 0.567955
O O11 0.282670 0.422679 0.413629
O O12 0.870641 0.436310 0.754746
O O13 0.661850 0.338151 0.166667
#
# Coordination Sequence:
#
# PCOD9576299 Si02
#       6
#     6   6   6   6   6   6
#     4  12  23  41  65  97 132 165 219 280 327 391
#     4  12  23  40  69 101 128 171 222 278 325 392
#     4  10  20  42  67  87 126 175 214 254 329 392
#     4  10  21  42  65  89 128 177 209 263 330 393
#     4  11  23  42  67  95 129 173 221 262 334 398
#     4  11  21  45  69  89 128 179 213 268 337 392
#
# _framework density 19.201974
#
# number of rings (size 3 to 8) (size 9 to 14) (size 15 to 20)
#    0.000    1.000    8.333    2.000    0.000    1.333 
#   12.000    4.167    0.000    0.000    0.000    0.000 
#    0.000    0.000    0.000    0.000    0.000    0.000 
#
# Total GULP energy -201080.202941 kJ/mol
# GULP energy per Si atom -5585.561193 kJ/mol
# Density = 1.915827 g / cm^3
# Si number density = 19.201974 Si / 1000 Ang^3
#
#
#
# Elastic Constant Matrix: (Units=GPa)
#
#
# Indices 1 2 3 4 5 6 
#
# 1 66.6375 34.0281 36.7038 0.0002 -7.1354 0.0000
# 2 34.0281 66.6375 36.7038 -0.0002 7.1354 0.0000
# 3 36.7038 36.7038 108.7527 0.0000 0.0000 0.0000
# 4 0.0002 -0.0002 0.0000 7.5095 0.0000 7.1354
# 5 -7.1354 7.1354 0.0000 0.0000 7.5095 0.0002
# 6 0.0000 0.0000 0.0000 7.1354 0.0002 16.3047
#
#
#
# Elastic Compliance Matrix: (Units=1/GPa)
#
#
# Indices 1 2 3 4 5 6 
#
# 1 0.032836 -0.019659 -0.004447 -0.000001 0.049880 0.000000
# 2 -0.019659 0.032836 -0.004447 0.000001 -0.049880 0.000000
# 3 -0.004447 -0.004447 0.012197 0.000000 0.000000 0.000000
# 4 -0.000001 0.000001 0.000000 0.227957 0.000000 -0.099761
# 5 0.049880 -0.049880 0.000000 0.000000 0.227957 -0.000003
# 6 0.000000 0.000000 0.000000 -0.099761 -0.000003 0.104990
#
#
# Mechanical properties :
#
#
# Convention : Reuss Voigt Hill
#
# Bulk Modulus (GPa) = 48.16481 50.76658 49.46569
# Shear Modulus (GPa) = 7.11439 15.23754 11.17597
#
# Velocity S-wave (km/s) = 1.92693 2.82004 2.41513
# Velocity P-wave (km/s) = 5.48530 6.09090 5.79602
#
# Compressibility (1/GPa) = 0.02076205
#
# Stress axis : x y z
#
# Youngs Moduli (GPa) = 30.45436 30.45436 81.98747
#
# Poissons Ratio (x) = 0.59871 0.36461
# Poissons Ratio (y) = 0.59871 0.36461
# Poissons Ratio (z) = 0.13544 0.13544
#
# Static dielectric constant tensor:
#      x y z
#    x 1.667050 0.000000 0.000000 
#    y 0.000000 1.667050 0.000000 
#    z 0.000000 0.000000 1.681050 
# 
# From -- ./inp_files/4735.got.cif
#   From: 2010.05.17/outbox.cif.g08.bks.cpg/sg153_3_cif.got.tgz:4735.got - 2010.05.20 10:38:56.
