data_PCOD9576856
_publ_section_title
;
Structure prediction by ZEFSAII (Michael W. Deem and Ramdas Pophale) SiO2 
 PCOD9576856
Probable space group: R 3 2
;
_chemical_formula_sum "Si O2"
_cell_formula_units_Z 99
_cell_length_a 25.414816
_cell_length_b 25.414816
_cell_length_c 9.029112
_cell_angle_alpha 90.000000
_cell_angle_beta 90.000000
_cell_angle_gamma 120.000000
_cell_volume 5050.677186
_symmetry_space_group_name_H-M "R 3 2"
_symmetry_group_IT_number 155
_symmetry_cell_setting 'hexagonal'
loop_
_space_group_symop_operation_xyz
x,y,z
-y,x-y,z
-x+y,-x,z
x-y,-y,-z
-x,-x+y,-z
y,x,-z
2/3+x,1/3+y,1/3+z
2/3-y,1/3+x-y,1/3+z
2/3-x+y,1/3-x,1/3+z
2/3+x-y,1/3-y,1/3-z
2/3-x,1/3-x+y,1/3-z
2/3+y,1/3+x,1/3-z
1/3+x,2/3+y,2/3+z
1/3-y,2/3+x-y,2/3+z
1/3-x+y,2/3-x,2/3+z
1/3+x-y,2/3-y,2/3-z
1/3-x,2/3-x+y,2/3-z
1/3+y,2/3+x,2/3-z
loop_
_atom_site_type_symbol
_atom_site_label
_atom_site_fract_x
_atom_site_fract_y
_atom_site_fract_z
Si Si1 0.555508 0.821356 0.691373
Si Si2 0.880056 0.399017 0.853558
Si Si3 0.142685 0.798517 0.156451
Si Si4 0.000000 0.700329 0.500000
Si Si5 0.411125 0.805601 0.397211
Si Si6 0.078144 0.939454 0.211410
O O1 0.545368 0.878701 0.666667
O O2 0.619338 0.837517 0.618982
O O3 0.534271 0.795712 0.855955
O O4 0.502303 0.765761 0.600858
O O5 0.872934 0.333334 0.833334
O O6 0.942200 0.453866 0.795782
O O7 0.826455 0.399166 0.759294
O O8 0.862319 0.405698 0.019672
O O9 0.141276 0.807943 0.333334
O O10 0.098366 0.726333 0.139840
O O11 0.989543 0.666667 0.666667
O O12 0.435392 0.758529 0.389767
O O13 0.344633 0.773398 0.473124
#
# Coordination Sequence:
#
# PCOD9576856 Si02
#       6
#    18  18  18   9  18  18
#     4  10  21  36  57  86 117 154 198 239 292 369
#     4  10  22  37  57  85 112 153 205 244 293 362
#     4  11  22  39  62  82 120 164 193 254 318 364
#     4  10  24  38  60  96 132 166 210 256 316 398
#     4  10  21  33  58  86 120 152 193 243 283 361
#     4  10  19  36  54  84 119 155 189 231 296 352
#
# _framework density 19.601331999999999
#
# number of rings (size 3 to 8) (size 9 to 14) (size 15 to 20)
#    0.000    1.818    1.818    2.000    2.545    3.636 
#    0.000    3.636    0.000    2.182    0.000    0.000 
#    0.000    0.000    0.000    0.000    0.000    0.000 
#
# Total GULP energy -183839.539182 kJ/mol
# GULP energy per Si atom -5570.895127 kJ/mol
# Density = 1.955672 g / cm^3
# Si number density = 19.601332 Si / 1000 Ang^3
#
#
#
# Elastic Constant Matrix: (Units=GPa)
#
#
# Indices 1 2 3 4 5 6 
#
# 1 111.0373 61.0871 14.4663 -9.9527 0.0036 -0.0036
# 2 61.0871 111.0434 14.4706 9.9494 0.0029 0.0003
# 3 14.4663 14.4706 57.4268 -0.0020 0.0220 -0.0062
# 4 -9.9527 9.9494 -0.0020 18.7104 -0.0030 -0.0028
# 5 0.0036 0.0029 0.0220 -0.0030 18.7245 -9.9537
# 6 -0.0036 0.0003 -0.0062 -0.0028 -9.9537 24.9747
#
#
#
# Elastic Compliance Matrix: (Units=1/GPa)
#
#
# Indices 1 2 3 4 5 6 
#
# 1 0.015734 -0.009667 -0.001527 0.013510 0.000006 0.000006
# 2 -0.009667 0.015733 -0.001530 -0.013509 -0.000004 -0.000005
# 3 -0.001527 -0.001530 0.018184 0.000003 -0.000024 -0.000005
# 4 0.013510 -0.013509 0.000003 0.067816 0.000020 0.000018
# 5 0.000006 -0.000004 -0.000024 0.000020 0.067762 0.027007
# 6 0.000006 -0.000005 -0.000005 0.000018 0.027007 0.050804
#
#
# Mechanical properties :
#
#
# Convention : Reuss Voigt Hill
#
# Bulk Modulus (GPa) = 41.31715 51.06173 46.18944
# Shear Modulus (GPa) = 18.54944 25.11416 21.83180
#
# Velocity S-wave (km/s) = 3.07959 3.58333 3.34097
# Velocity P-wave (km/s) = 5.81117 6.57473 6.20471
#
# Compressibility (1/GPa) = 0.02420303
#
# Stress axis : x y z
#
# Youngs Moduli (GPa) = 63.55531 63.55927 54.99448
#
# Poissons Ratio (x) = 0.61444 0.08399
# Poissons Ratio (y) = 0.61440 0.08413
# Poissons Ratio (z) = 0.09706 0.09723
#
# Static dielectric constant tensor:
#      x y z
#    x 1.677920 0.000000 0.000000 
#    y 0.000000 1.677920 0.000000 
#    z 0.000000 0.000000 1.764850 
# 
# From -- ./inp_files/2859.got.cif
#   From: 2010.05.17/outbox.cif.g08.bks.cpg/sg155_2_cif.got.tgz:2859.got - 2010.05.20 10:44:35.
