data_PCOD9576291
_publ_section_title
;
Structure prediction by ZEFSAII (Michael W. Deem and Ramdas Pophale) SiO2 
 PCOD9576291
Probable space group: P 32 1 2
;
_chemical_formula_sum "Si O2"
_cell_formula_units_Z 42
_cell_length_a 14.011082
_cell_length_b 14.011082
_cell_length_c 10.711347
_cell_angle_alpha 90.000000
_cell_angle_beta 90.000000
_cell_angle_gamma 120.000000
_cell_volume 1821.034065
_symmetry_space_group_name_H-M "P 32 1 2"
_symmetry_group_IT_number 153
_symmetry_cell_setting 'hexagonal'
loop_
_space_group_symop_operation_xyz
x,y,z
-y,x-y,2/3+z
-x+y,-x,1/3+z
-y,-x,1/3-z
-x+y,y,2/3-z
x,x-y,-z
loop_
_atom_site_type_symbol
_atom_site_label
_atom_site_fract_x
_atom_site_fract_y
_atom_site_fract_z
Si Si1 0.089198 0.940693 0.972393
Si Si2 0.683833 0.098050 0.108749
Si Si3 0.439433 0.783869 0.703091
Si Si4 0.981122 0.745041 0.130922
Si Si5 0.472822 0.026190 0.974899
Si Si6 0.565403 0.907789 0.311807
Si Si7 0.301894 0.055986 0.823465
O O1 0.998654 0.816967 0.003826
O O2 0.174567 0.971732 0.086073
O O3 0.039447 0.019724 0.000000
O O4 0.170458 0.977953 0.853311
O O5 0.789700 0.210301 0.166667
O O6 0.634849 0.000318 0.209872
O O7 0.709133 0.048119 0.983383
O O8 0.576510 0.106562 0.062061
O O9 0.327977 0.672024 0.666667
O O10 0.404386 0.808771 0.833334
O O11 0.479310 0.900946 0.637842
O O12 0.536071 0.753782 0.713298
O O13 0.853381 0.671854 0.157253
O O14 0.049165 0.686074 0.103212
O O15 0.519036 0.038072 0.833334
O O16 0.369399 0.040514 0.935854
O O17 0.451097 0.902194 0.333334
#
# Coordination Sequence:
#
# PCOD9576291 Si02
#       7
#     6   6   6   6   6   6   6
#     4   9  20  38  65  98 132 173 225 282 338 437
#     4  11  22  42  67  93 140 182 237 306 365 440
#     4  10  20  38  59  96 140 180 235 285 356 444
#     4  10  20  40  63  96 136 173 228 283 352 418
#     4   9  20  36  63  95 130 181 234 283 346 431
#     4  11  24  39  63  95 136 181 231 300 371 432
#     4  10  20  40  67  94 131 183 236 286 358 436
#
# _framework density 23.063818999999999
#
# number of rings (size 3 to 8) (size 9 to 14) (size 15 to 20)
#    0.000    2.000    1.429    1.714    2.000    0.000 
#   10.286   12.143    3.143    0.000    0.000    0.000 
#    0.000    0.000    0.000    0.000    0.000    0.000 
#
# Total GULP energy -233996.864698 kJ/mol
# GULP energy per Si atom -5571.353921 kJ/mol
# Density = 2.301132 g / cm^3
# Si number density = 23.063819 Si / 1000 Ang^3
#
#
#
# Elastic Constant Matrix: (Units=GPa)
#
#
# Indices 1 2 3 4 5 6 
#
# 1 99.8806 25.8463 22.0969 0.0001 -16.2507 0.0000
# 2 25.8463 99.8806 22.0969 -0.0001 16.2507 0.0000
# 3 22.0969 22.0969 82.8731 0.0000 0.0000 0.0000
# 4 0.0001 -0.0001 0.0000 40.7355 0.0000 16.2507
# 5 -16.2507 16.2507 0.0000 0.0000 40.7355 0.0001
# 6 0.0000 0.0000 0.0000 16.2507 0.0001 37.0172
#
#
#
# Elastic Compliance Matrix: (Units=1/GPa)
#
#
# Indices 1 2 3 4 5 6 
#
# 1 0.012576 -0.003799 -0.002340 0.000000 0.006533 0.000000
# 2 -0.003799 0.012576 -0.002340 0.000000 -0.006533 0.000000
# 3 -0.002340 -0.002340 0.013315 0.000000 0.000000 0.000000
# 4 0.000000 0.000000 0.000000 0.029761 0.000000 -0.013065
# 5 0.006533 -0.006533 0.000000 0.000000 0.029761 0.000000
# 6 0.000000 0.000000 0.000000 -0.013065 0.000000 0.032750
#
#
# Mechanical properties :
#
#
# Convention : Reuss Voigt Hill
#
# Bulk Modulus (GPa) = 46.49682 46.96827 46.73254
# Shear Modulus (GPa) = 32.28608 37.87057 35.07832
#
# Velocity S-wave (km/s) = 3.74553 4.05654 3.90413
# Velocity P-wave (km/s) = 6.23772 6.50764 6.37411
#
# Compressibility (1/GPa) = 0.02150685
#
# Stress axis : x y z
#
# Youngs Moduli (GPa) = 79.51854 79.51854 75.10597
#
# Poissons Ratio (x) = 0.30212 0.17575
# Poissons Ratio (y) = 0.30212 0.17575
# Poissons Ratio (z) = 0.18608 0.18608
#
# Static dielectric constant tensor:
#      x y z
#    x 2.073380 0.000000 0.000000 
#    y 0.000000 2.073380 0.000000 
#    z 0.000000 0.000000 1.899010 
# 
# From -- ./inp_files/2609.got.cif
#   From: 2010.05.17/outbox.cif.g08.bks.cpg/sg153_2_cif.got.tgz:2609.got - 2010.05.20 10:38:56.
