data_PCOD9576469
_publ_section_title
;
Structure prediction by ZEFSAII (Michael W. Deem and Ramdas Pophale) SiO2 
 PCOD9576469
Probable space group: P 32 2 1
;
_chemical_formula_sum "Si O2"
_cell_formula_units_Z 30
_cell_length_a 8.170186
_cell_length_b 8.170186
_cell_length_c 23.444219
_cell_angle_alpha 90.000000
_cell_angle_beta 90.000000
_cell_angle_gamma 120.000000
_cell_volume 1355.283929
_symmetry_space_group_name_H-M "P 32 2 1"
_symmetry_group_IT_number 154
_symmetry_cell_setting 'hexagonal'
loop_
_space_group_symop_operation_xyz
x,y,z
-y,x-y,2/3+z
-x+y,-x,1/3+z
x-y,-y,1/3-z
-x,-x+y,2/3-z
y,x,-z
loop_
_atom_site_type_symbol
_atom_site_label
_atom_site_fract_x
_atom_site_fract_y
_atom_site_fract_z
Si Si1 0.993262 0.572098 0.606638
Si Si2 0.738940 0.524346 0.500236
Si Si3 0.144258 0.363961 0.545141
Si Si4 0.173734 0.266343 0.372380
Si Si5 0.430300 0.058030 0.769824
O O1 0.822793 0.524853 0.562964
O O2 0.053034 0.415970 0.598247
O O3 0.983440 0.631543 0.670837
O O4 0.183109 0.761446 0.585851
O O5 0.889963 0.530546 0.454126
O O6 0.545968 0.333284 0.480784
O O7 0.690446 0.690446 0.500000
O O8 0.207476 0.186393 0.430714
O O9 0.993162 0.313261 0.496000
O O10 0.109158 0.416078 0.392147
O O11 0.000000 0.116061 0.333334
#
# Coordination Sequence:
#
# PCOD9576469 Si02
#       5
#     6   6   6   6   6
#     4   9  21  37  56  84 118 149 190 247 293 346
#     4  10  20  35  58  86 112 146 196 247 293 350
#     4  10  20  36  59  83 112 155 197 239 293 353
#     4  10  20  35  57  82 115 156 195 240 298 358
#     4   9  19  37  57  79 111 154 193 231 295 363
#
# _framework density 22.135580999999998
#
# number of rings (size 3 to 8) (size 9 to 14) (size 15 to 20)
#    0.000    2.400    0.000    1.800    0.000    6.400 
#    0.000    0.000    0.000   30.000    0.000    0.000 
#    0.000    0.000    0.000    0.000    0.000    0.000 
#
# Total GULP energy -167105.804864 kJ/mol
# GULP energy per Si atom -5570.193495 kJ/mol
# Density = 2.208520 g / cm^3
# Si number density = 22.135581 Si / 1000 Ang^3
#
#
#
# Elastic Constant Matrix: (Units=GPa)
#
#
# Indices 1 2 3 4 5 6 
#
# 1 57.7784 10.9113 7.7355 0.4508 0.0001 0.0000
# 2 10.9113 57.7784 7.7355 -0.4508 -0.0001 0.0000
# 3 7.7355 7.7355 52.1163 0.0000 0.0000 0.0000
# 4 0.4508 -0.4508 0.0000 34.7312 0.0000 -0.0001
# 5 0.0001 -0.0001 0.0000 0.0000 34.7312 0.4508
# 6 0.0000 0.0000 0.0000 -0.0001 0.4508 23.4336
#
#
#
# Elastic Compliance Matrix: (Units=1/GPa)
#
#
# Indices 1 2 3 4 5 6 
#
# 1 0.018202 -0.003140 -0.002236 -0.000277 0.000000 0.000000
# 2 -0.003140 0.018202 -0.002236 0.000277 0.000000 0.000000
# 3 -0.002236 -0.002236 0.019852 0.000000 0.000000 0.000000
# 4 -0.000277 0.000277 0.000000 0.028800 0.000000 0.000000
# 5 0.000000 0.000000 0.000000 0.000000 0.028800 -0.000554
# 6 0.000000 0.000000 0.000000 0.000000 -0.000554 0.042684
#
#
# Mechanical properties :
#
#
# Convention : Reuss Voigt Hill
#
# Bulk Modulus (GPa) = 24.37083 24.49308 24.43195
# Shear Modulus (GPa) = 26.96291 27.99858 27.48075
#
# Velocity S-wave (km/s) = 3.49389 3.56036 3.52728
# Velocity P-wave (km/s) = 5.22590 5.29061 5.25835
#
# Compressibility (1/GPa) = 0.04103267
#
# Stress axis : x y z
#
# Youngs Moduli (GPa) = 54.93902 54.93902 50.37397
#
# Poissons Ratio (x) = 0.17252 0.11262
# Poissons Ratio (y) = 0.17252 0.11262
# Poissons Ratio (z) = 0.12282 0.12282
#
# Static dielectric constant tensor:
#      x y z
#    x 1.848270 0.000000 0.000000 
#    y 0.000000 1.848270 0.000000 
#    z 0.000000 0.000000 1.877870 
# 
# From -- ./inp_files/3585.got.cif
#   From: 2010.05.17/outbox.cif.g08.bks.cpg/sg154_2_cif.got.tgz:3585.got - 2010.05.20 10:41:43.
