data_PCOD9576231
_publ_section_title
;
Structure prediction by ZEFSAII (Michael W. Deem and Ramdas Pophale) SiO2 
 PCOD9576231
Probable space group: P 32 1 2
;
_chemical_formula_sum "Si O2"
_cell_formula_units_Z 24
_cell_length_a 15.736467
_cell_length_b 15.736467
_cell_length_c 5.553734
_cell_angle_alpha 90.000000
_cell_angle_beta 90.000000
_cell_angle_gamma 120.000000
_cell_volume 1191.050505
_symmetry_space_group_name_H-M "P 32 1 2"
_symmetry_group_IT_number 153
_symmetry_cell_setting 'hexagonal'
loop_
_space_group_symop_operation_xyz
x,y,z
-y,x-y,2/3+z
-x+y,-x,1/3+z
-y,-x,1/3-z
-x+y,y,2/3-z
x,x-y,-z
loop_
_atom_site_type_symbol
_atom_site_label
_atom_site_fract_x
_atom_site_fract_y
_atom_site_fract_z
Si Si1 0.798531 0.301581 0.419719
Si Si2 0.156670 0.581017 0.750074
Si Si3 0.657810 0.670392 0.949088
Si Si4 0.079714 0.356554 0.781342
O O1 0.763401 0.236600 0.666667
O O2 0.797573 0.398787 0.500000
O O3 0.907098 0.326351 0.347497
O O4 0.739056 0.260945 0.166667
O O5 0.211680 0.605840 0.500000
O O6 0.086081 0.462520 0.755259
O O7 0.091689 0.633662 0.744796
O O8 0.211688 0.605844 0.000000
O O9 0.697599 0.712851 0.683048
O O10 0.692918 0.738544 0.186418
O O11 0.188597 0.377193 0.833334
#
# Coordination Sequence:
#
# PCOD9576231 Si02
#       4
#     6   6   6   6
#     4  12  24  38  55  79 110 149 197 246 290 335
#     4   8  15  27  44  64  89 126 168 205 249 307
#     4  10  20  35  52  72 105 146 181 217 281 341
#     4  10  18  30  51  75  96 129 177 222 257 315
#
# _framework density 20.150279999999999
#
# number of rings (size 3 to 8) (size 9 to 14) (size 15 to 20)
#    0.000    2.000    0.000    6.000    0.000    4.000 
#    0.000    0.000    0.000   40.500    0.000    1.750 
#    0.000    0.000    0.000   94.500    0.000    0.000 
#
# Total GULP energy -133695.142272 kJ/mol
# GULP energy per Si atom -5570.630928 kJ/mol
# Density = 2.010442 g / cm^3
# Si number density = 20.150280 Si / 1000 Ang^3
#
#
#
# Elastic Constant Matrix: (Units=GPa)
#
#
# Indices 1 2 3 4 5 6 
#
# 1 26.5959 17.6971 28.9650 -0.0001 -0.4488 0.0000
# 2 17.6971 26.5959 28.9650 0.0001 0.4488 0.0000
# 3 28.9650 28.9650 270.4684 0.0000 0.0000 0.0000
# 4 -0.0001 0.0001 0.0000 26.1141 0.0000 0.4488
# 5 -0.4488 0.4488 0.0000 0.0000 26.1141 -0.0001
# 6 0.0000 0.0000 0.0000 0.4488 -0.0001 4.4494
#
#
#
# Elastic Compliance Matrix: (Units=1/GPa)
#
#
# Indices 1 2 3 4 5 6 
#
# 1 0.069412 -0.043158 -0.002812 0.000000 0.001935 0.000000
# 2 -0.043158 0.069412 -0.002812 0.000000 -0.001935 0.000000
# 3 -0.002812 -0.002812 0.004299 0.000000 0.000000 0.000000
# 4 0.000000 0.000000 0.000000 0.038360 0.000000 -0.003869
# 5 0.001935 -0.001935 0.000000 0.000000 0.038360 0.000001
# 6 0.000000 0.000000 0.000000 -0.003869 0.000001 0.225140
#
#
# Mechanical properties :
#
#
# Convention : Reuss Voigt Hill
#
# Bulk Modulus (GPa) = 21.94844 52.76827 37.35835
# Shear Modulus (GPa) = 8.96487 27.87107 18.41797
#
# Velocity S-wave (km/s) = 2.11155 3.72312 3.02657
# Velocity P-wave (km/s) = 4.10620 6.68778 5.54920
#
# Compressibility (1/GPa) = 0.04556133
#
# Stress axis : x y z
#
# Youngs Moduli (GPa) = 14.40672 14.40672 232.58580
#
# Poissons Ratio (x) = 0.62176 0.65394
# Poissons Ratio (y) = 0.62176 0.65394
# Poissons Ratio (z) = 0.04051 0.04051
#
# Static dielectric constant tensor:
#      x y z
#    x 1.694460 0.000000 0.000000 
#    y 0.000000 1.694460 0.000000 
#    z 0.000000 0.000000 1.875240 
# 
# From -- ./inp_files/193.got.cif
#   From: 2010.05.17/outbox.cif.g08.bks.cpg/sg153_1_cif.got.tgz:193.got - 2010.05.20 10:38:56.
