data_PCOD9576016
_publ_section_title
;
Structure prediction by ZEFSAII (Michael W. Deem and Ramdas Pophale) SiO2 
 PCOD9576016
Probable space group: P 31 2 1
;
_chemical_formula_sum "Si O2"
_cell_formula_units_Z 18
_cell_length_a 5.440109
_cell_length_b 5.440109
_cell_length_c 26.087326
_cell_angle_alpha 90.000000
_cell_angle_beta 90.000000
_cell_angle_gamma 120.000000
_cell_volume 668.613898
_symmetry_space_group_name_H-M "P 31 2 1"
_symmetry_group_IT_number 152
_symmetry_cell_setting 'hexagonal'
loop_
_space_group_symop_operation_xyz
x,y,z
-y,x-y,1/3+z
-x+y,-x,2/3+z
x-y,-y,2/3-z
-x,-x+y,1/3-z
y,x,-z
loop_
_atom_site_type_symbol
_atom_site_label
_atom_site_fract_x
_atom_site_fract_y
_atom_site_fract_z
Si Si1 0.567809 0.429734 0.803680
Si Si2 0.314990 0.489816 0.706041
Si Si3 0.013247 0.311521 0.060356
O O1 0.876063 0.541885 0.828396
O O2 0.555826 0.582408 0.750519
O O3 0.443501 0.110413 0.781405
O O4 0.133342 0.155631 0.716249
O O5 0.460516 0.567552 0.650903
O O6 0.152144 0.655625 0.719409
#
# Coordination Sequence:
#
# PCOD9576016 Si02
#       3
#     6   6   6
#     4  10  22  40  67 108 145 190 248 318 382 442
#     4   8  16  35  67  97 141 195 247 301 375 459
#     4   8  16  35  67  97 141 195 247 301 375 459
#
# _framework density 26.921365000000002
#
# number of rings (size 3 to 8) (size 9 to 14) (size 15 to 20)
#    2.000    1.333    0.000    0.000    0.000    1.333 
#    0.000    8.333    0.000    4.000    0.000    0.000 
#    0.000    0.000    0.000    0.000    0.000    0.000 
#
# Total GULP energy -100353.371623 kJ/mol
# GULP energy per Si atom -5575.187312 kJ/mol
# Density = 2.686009 g / cm^3
# Si number density = 26.921365 Si / 1000 Ang^3
#
#
#
# Elastic Constant Matrix: (Units=GPa)
#
#
# Indices 1 2 3 4 5 6 
#
# 1 130.3671 55.7619 37.4759 9.2984 0.0000 0.0000
# 2 55.7619 130.3671 37.4759 -9.2984 0.0000 0.0000
# 3 37.4759 37.4759 215.5069 0.0000 0.0000 0.0000
# 4 9.2984 -9.2984 0.0000 47.8146 0.0000 0.0000
# 5 0.0000 0.0000 0.0000 0.0000 47.8146 9.2984
# 6 0.0000 0.0000 0.0000 0.0000 9.2984 37.3026
#
#
#
# Elastic Compliance Matrix: (Units=1/GPa)
#
#
# Indices 1 2 3 4 5 6 
#
# 1 0.009932 -0.004155 -0.001005 -0.002739 0.000000 0.000000
# 2 -0.004155 0.009932 -0.001005 0.002739 0.000000 0.000000
# 3 -0.001005 -0.001005 0.004990 0.000000 0.000000 0.000000
# 4 -0.002739 0.002739 0.000000 0.021980 0.000000 0.000000
# 5 0.000000 0.000000 0.000000 0.000000 0.021980 -0.005479
# 6 0.000000 0.000000 0.000000 0.000000 -0.005479 0.028173
#
#
# Mechanical properties :
#
#
# Convention : Reuss Voigt Hill
#
# Bulk Modulus (GPa) = 79.83746 81.96315 80.90031
# Shear Modulus (GPa) = 44.05696 49.62150 46.83923
#
# Velocity S-wave (km/s) = 4.04976 4.29791 4.17568
# Velocity P-wave (km/s) = 7.18245 7.42569 7.30508
#
# Compressibility (1/GPa) = 0.01252545
#
# Stress axis : x y z
#
# Youngs Moduli (GPa) = 100.68509 100.68509 200.41580
#
# Poissons Ratio (x) = 0.41833 0.20134
# Poissons Ratio (y) = 0.41833 0.20134
# Poissons Ratio (z) = 0.10115 0.10115
#
# Static dielectric constant tensor:
#      x y z
#    x 2.120630 0.000000 0.000000 
#    y 0.000000 2.120630 0.000000 
#    z 0.000000 0.000000 2.188450 
# 
# From -- ./inp_files/3201.got.cif
#   From: 2010.05.17/outbox.cif.g08.bks.cpg/sg152_2_cif.got.tgz:3201.got - 2010.05.20 10:36:06.
