data_PCOD9576522
_publ_section_title
;
Structure prediction by ZEFSAII (Michael W. Deem and Ramdas Pophale) SiO2 
 PCOD9576522
Probable space group: P 32 2 1
;
_chemical_formula_sum "Si O2"
_cell_formula_units_Z 42
_cell_length_a 11.885693
_cell_length_b 11.885693
_cell_length_c 17.309295
_cell_angle_alpha 90.000000
_cell_angle_beta 90.000000
_cell_angle_gamma 120.000000
_cell_volume 2117.673628
_symmetry_space_group_name_H-M "P 32 2 1"
_symmetry_group_IT_number 154
_symmetry_cell_setting 'hexagonal'
loop_
_space_group_symop_operation_xyz
x,y,z
-y,x-y,2/3+z
-x+y,-x,1/3+z
x-y,-y,1/3-z
-x,-x+y,2/3-z
y,x,-z
loop_
_atom_site_type_symbol
_atom_site_label
_atom_site_fract_x
_atom_site_fract_y
_atom_site_fract_z
Si Si1 0.332947 0.829817 0.966394
Si Si2 0.362834 0.773009 0.708662
Si Si3 0.668012 0.113176 0.481452
Si Si4 0.366975 0.964001 0.254086
Si Si5 0.681036 0.054778 0.083631
Si Si6 0.400615 0.300051 0.062953
Si Si7 0.837780 0.685912 0.009194
O O1 0.461251 0.898688 0.914316
O O2 0.208633 0.764899 0.913075
O O3 0.343126 0.720801 0.017420
O O4 0.311920 0.925398 0.020751
O O5 0.455339 0.798775 0.782930
O O6 0.457767 0.856455 0.638519
O O7 0.259546 0.822454 0.711387
O O8 0.799688 0.168282 0.430309
O O9 0.629906 0.978269 0.524111
O O10 0.362639 0.000000 0.166667
O O11 0.503552 0.966286 0.264664
O O12 0.236188 0.831554 0.268741
O O13 0.682903 0.000000 0.166667
O O14 0.721386 0.980376 0.021709
O O15 0.300756 0.300756 0.000000
O O16 0.792381 0.792381 0.000000
#
# Coordination Sequence:
#
# PCOD9576522 Si02
#       7
#     6   6   6   6   6   6   6
#     4  11  23  41  65 102 132 178 227 279 346 413
#     4  10  20  40  65 103 135 166 223 290 349 408
#     4  10  22  40  68  97 134 179 223 287 354 402
#     4  11  24  39  67  96 134 174 215 286 335 403
#     4  11  23  43  65  99 135 174 227 273 339 414
#     4  10  22  44  64  98 131 165 223 282 336 407
#     4  11  23  43  65  99 138 182 228 276 341 427
#
# _framework density 19.833083999999999
#
# number of rings (size 3 to 8) (size 9 to 14) (size 15 to 20)
#    0.000    1.429    4.286    2.143    4.000    0.000 
#   23.143    0.714    0.000    0.000    0.000    0.000 
#    0.000    0.000    0.000    0.000    0.000    0.000 
#
# Total GULP energy -234183.869453 kJ/mol
# GULP energy per Si atom -5575.806416 kJ/mol
# Density = 1.978794 g / cm^3
# Si number density = 19.833084 Si / 1000 Ang^3
#
#
#
# Elastic Constant Matrix: (Units=GPa)
#
#
# Indices 1 2 3 4 5 6 
#
# 1 70.4169 -16.2218 10.4435 -10.5150 -0.0007 0.0000
# 2 -16.2218 70.4169 10.4435 10.5150 0.0007 0.0000
# 3 10.4435 10.4435 83.3314 0.0000 0.0000 0.0000
# 4 -10.5150 10.5150 0.0000 29.4169 0.0000 0.0007
# 5 -0.0007 0.0007 0.0000 0.0000 29.4169 -10.5150
# 6 0.0000 0.0000 0.0000 0.0007 -10.5150 43.3193
#
#
#
# Elastic Compliance Matrix: (Units=1/GPa)
#
#
# Indices 1 2 3 4 5 6 
#
# 1 0.016014 0.003375 -0.002430 0.004518 0.000000 0.000000
# 2 0.003375 0.016014 -0.002430 -0.004518 0.000000 0.000000
# 3 -0.002430 -0.002430 0.012609 0.000000 0.000000 0.000000
# 4 0.004518 -0.004518 0.000000 0.037224 0.000000 -0.000001
# 5 0.000000 0.000000 0.000000 0.000000 0.037224 0.009035
# 6 0.000000 0.000000 0.000000 -0.000001 0.009035 0.025278
#
#
# Mechanical properties :
#
#
# Convention : Reuss Voigt Hill
#
# Bulk Modulus (GPa) = 24.00005 25.94396 24.97200
# Shear Modulus (GPa) = 31.01349 35.06397 33.03873
#
# Velocity S-wave (km/s) = 3.95869 4.20927 4.08590
# Velocity P-wave (km/s) = 5.74650 6.06081 5.90575
#
# Compressibility (1/GPa) = 0.04166659
#
# Stress axis : x y z
#
# Youngs Moduli (GPa) = 62.44715 62.44715 79.30645
#
# Poissons Ratio (x) = -0.21074 0.19270
# Poissons Ratio (y) = -0.21074 0.19270
# Poissons Ratio (z) = 0.15174 0.15174
#
# Static dielectric constant tensor:
#      x y z
#    x 1.716840 0.000000 0.000000 
#    y 0.000000 1.716840 0.000000 
#    z 0.000000 0.000000 1.645320 
# 
# From -- ./inp_files/2436.got.cif
#   From: 2010.05.17/outbox.cif.g08.bks.cpg/sg154_2_cif.got.tgz:2436.got - 2010.05.20 10:41:43.
