data_PCOD9576855
_publ_section_title
;
Structure prediction by ZEFSAII (Michael W. Deem and Ramdas Pophale) SiO2 
 PCOD9576855
Probable space group: R 3 2
;
_chemical_formula_sum "Si O2"
_cell_formula_units_Z 117
_cell_length_a 15.397918
_cell_length_b 15.397918
_cell_length_c 28.557341
_cell_angle_alpha 90.000000
_cell_angle_beta 90.000000
_cell_angle_gamma 120.000000
_cell_volume 5863.708930
_symmetry_space_group_name_H-M "R 3 2"
_symmetry_group_IT_number 155
_symmetry_cell_setting 'hexagonal'
loop_
_space_group_symop_operation_xyz
x,y,z
-y,x-y,z
-x+y,-x,z
x-y,-y,-z
-x,-x+y,-z
y,x,-z
2/3+x,1/3+y,1/3+z
2/3-y,1/3+x-y,1/3+z
2/3-x+y,1/3-x,1/3+z
2/3+x-y,1/3-y,1/3-z
2/3-x,1/3-x+y,1/3-z
2/3+y,1/3+x,1/3-z
1/3+x,2/3+y,2/3+z
1/3-y,2/3+x-y,2/3+z
1/3-x+y,2/3-x,2/3+z
1/3+x-y,2/3-y,2/3-z
1/3-x,2/3-x+y,2/3-z
1/3+y,2/3+x,2/3-z
loop_
_atom_site_type_symbol
_atom_site_label
_atom_site_fract_x
_atom_site_fract_y
_atom_site_fract_z
Si Si1 0.110095 0.776762 0.833334
Si Si2 0.129638 0.499009 0.341134
Si Si3 0.018376 0.232889 0.782332
Si Si4 0.522819 0.787506 0.210329
Si Si5 0.619384 0.562974 0.757645
Si Si6 0.838216 0.109161 0.844246
Si Si7 0.487203 0.369624 0.982025
O O1 0.147830 0.866746 0.796526
O O2 0.098295 0.673072 0.814413
O O3 0.124545 0.467214 0.394432
O O4 0.058660 0.430638 0.298510
O O5 0.117216 0.596520 0.339281
O O6 0.233443 0.505596 0.326441
O O7 0.987961 0.318414 0.782891
O O8 0.943379 0.143302 0.817176
O O9 0.458614 0.791948 0.166667
O O10 0.504845 0.677500 0.224594
O O11 0.635467 0.850502 0.190991
O O12 0.530616 0.843969 0.259235
O O13 0.507889 0.521998 0.776060
O O14 0.429945 0.429945 0.000000
#
# Coordination Sequence:
#
# PCOD9576855 Si02
#       7
#     9  18  18  18  18  18  18
#     4  12  26  42  70 100 126 174 234 278 336 398
#     4  11  24  38  66  89 134 179 214 265 333 404
#     4  11  23  44  66  97 130 175 221 277 339 394
#     4  10  19  35  65  92 128 171 210 260 323 394
#     4  10  21  43  64  92 130 174 212 270 330 395
#     4  11  22  41  67  92 133 164 223 277 325 390
#     4  11  24  41  58  94 134 171 223 270 324 397
#
# _framework density 19.953243000000001
#
# number of rings (size 3 to 8) (size 9 to 14) (size 15 to 20)
#    0.000    1.231    2.308    5.846    4.308    1.231 
#    0.923    0.000    3.385    0.000    0.000    0.000 
#    0.000    0.000    0.000    0.000    0.000    0.000 
#
# Total GULP energy -217280.406235 kJ/mol
# GULP energy per Si atom -5571.292468 kJ/mol
# Density = 1.990783 g / cm^3
# Si number density = 19.953243 Si / 1000 Ang^3
#
#
#
# Elastic Constant Matrix: (Units=GPa)
#
#
# Indices 1 2 3 4 5 6 
#
# 1 79.4787 32.8181 9.8564 7.7481 0.0000 0.0000
# 2 32.8181 79.4787 9.8564 -7.7481 0.0000 0.0000
# 3 9.8564 9.8564 97.3798 0.0000 0.0000 0.0000
# 4 7.7481 -7.7481 0.0000 14.9995 0.0000 0.0000
# 5 0.0000 0.0000 0.0000 0.0000 14.9995 7.7481
# 6 0.0000 0.0000 0.0000 0.0000 7.7481 23.3303
#
#
#
# Elastic Compliance Matrix: (Units=1/GPa)
#
#
# Indices 1 2 3 4 5 6 
#
# 1 0.017468 -0.008402 -0.000918 -0.013363 0.000000 0.000000
# 2 -0.008402 0.017468 -0.000918 0.013363 0.000000 0.000000
# 3 -0.000918 -0.000918 0.010455 0.000000 0.000000 0.000000
# 4 -0.013363 0.013363 0.000000 0.080474 0.000000 0.000000
# 5 0.000000 0.000000 0.000000 0.000000 0.080474 -0.026726
# 6 0.000000 0.000000 0.000000 0.000000 -0.026726 0.051738
#
#
# Mechanical properties :
#
#
# Convention : Reuss Voigt Hill
#
# Bulk Modulus (GPa) = 40.13416 40.15543 40.14479
# Shear Modulus (GPa) = 17.43039 24.25297 20.84168
#
# Velocity S-wave (km/s) = 2.95881 3.49017 3.23542
# Velocity P-wave (km/s) = 5.64186 6.03408 5.84126
#
# Compressibility (1/GPa) = 0.02491643
#
# Stress axis : x y z
#
# Youngs Moduli (GPa) = 57.24879 57.24879 95.64956
#
# Poissons Ratio (x) = 0.48098 0.08777
# Poissons Ratio (y) = 0.48098 0.08777
# Poissons Ratio (z) = 0.05253 0.05253
#
# Static dielectric constant tensor:
#      x y z
#    x 1.761920 0.000000 0.000000 
#    y 0.000000 1.761920 0.000000 
#    z 0.000000 0.000000 1.839520 
# 
# From -- ./inp_files/8479.got.cif
#   From: 2010.05.17/outbox.cif.g08.bks.cpg/sg155_5_cif.got.tgz:8479.got - 2010.05.20 10:44:35.
