data_PCOD9576004
_publ_section_title
;
Structure prediction by ZEFSAII (Michael W. Deem and Ramdas Pophale) SiO2 
 PCOD9576004
Probable space group: P 31 2 1
;
_chemical_formula_sum "Si O2"
_cell_formula_units_Z 18
_cell_length_a 7.541524
_cell_length_b 7.541524
_cell_length_c 16.408202
_cell_angle_alpha 90.000000
_cell_angle_beta 90.000000
_cell_angle_gamma 120.000000
_cell_volume 808.183279
_symmetry_space_group_name_H-M "P 31 2 1"
_symmetry_group_IT_number 152
_symmetry_cell_setting 'hexagonal'
loop_
_space_group_symop_operation_xyz
x,y,z
-y,x-y,1/3+z
-x+y,-x,2/3+z
x-y,-y,2/3-z
-x,-x+y,1/3-z
y,x,-z
loop_
_atom_site_type_symbol
_atom_site_label
_atom_site_fract_x
_atom_site_fract_y
_atom_site_fract_z
Si Si1 0.667693 0.692799 0.254272
Si Si2 0.538748 0.038901 0.247434
Si Si3 0.496175 0.902605 0.745394
O O1 0.589355 0.581207 0.167664
O O2 0.537279 0.547684 0.329820
O O3 0.880861 0.696805 0.265686
O O4 0.645224 0.895174 0.251893
O O5 0.694913 0.279013 0.246276
O O6 0.423170 0.000000 0.333334
O O7 0.511601 0.000000 0.833334
#
# Coordination Sequence:
#
# PCOD9576004 Si02
#       3
#     6   6   6
#     4  11  22  40  66  96 130 179 218 270 344 397
#     4  10  22  39  64  93 130 168 220 274 328 400
#     4  11  24  41  65  96 132 173 223 279 334 400
#
# _framework density 22.272172999999999
#
# number of rings (size 3 to 8) (size 9 to 14) (size 15 to 20)
#    0.000    1.333    3.333    2.000    4.667    1.333 
#    0.000    3.333    0.000    0.000    0.000    0.000 
#    0.000    0.000    0.000    0.000    0.000    0.000 
#
# Total GULP energy -100286.880812 kJ/mol
# GULP energy per Si atom -5571.493378 kJ/mol
# Density = 2.222148 g / cm^3
# Si number density = 22.272173 Si / 1000 Ang^3
#
#
#
# Elastic Constant Matrix: (Units=GPa)
#
#
# Indices 1 2 3 4 5 6 
#
# 1 74.5385 -3.0701 18.7910 4.3892 -0.0012 0.0000
# 2 -3.0701 74.5385 18.7910 -4.3892 0.0012 0.0000
# 3 18.7910 18.7910 188.2726 0.0000 0.0000 0.0000
# 4 4.3892 -4.3892 0.0000 33.3748 0.0000 0.0012
# 5 -0.0012 0.0012 0.0000 0.0000 33.3748 4.3892
# 6 0.0000 0.0000 0.0000 0.0012 4.3892 38.8043
#
#
#
# Elastic Compliance Matrix: (Units=1/GPa)
#
#
# Indices 1 2 3 4 5 6 
#
# 1 0.013923 0.000844 -0.001474 -0.001720 0.000000 0.000000
# 2 0.000844 0.013923 -0.001474 0.001720 0.000000 0.000000
# 3 -0.001474 -0.001474 0.005606 0.000000 0.000000 0.000000
# 4 -0.001720 0.001720 0.000000 0.030415 0.000000 -0.000001
# 5 0.000000 0.000000 0.000000 0.000000 0.030415 -0.003440
# 6 0.000000 0.000000 0.000000 -0.000001 -0.003440 0.026159
#
#
# Mechanical properties :
#
#
# Convention : Reuss Voigt Hill
#
# Bulk Modulus (GPa) = 34.19432 45.15259 39.67346
# Shear Modulus (GPa) = 37.20278 41.29998 39.25138
#
# Velocity S-wave (km/s) = 4.09145 4.31087 4.20259
# Velocity P-wave (km/s) = 6.14054 6.71530 6.43434
#
# Compressibility (1/GPa) = 0.02924462
#
# Stress axis : x y z
#
# Youngs Moduli (GPa) = 71.82108 71.82108 178.39130
#
# Poissons Ratio (x) = -0.06060 0.26293
# Poissons Ratio (y) = -0.06060 0.26293
# Poissons Ratio (z) = 0.10586 0.10586
#
# Static dielectric constant tensor:
#      x y z
#    x 1.849490 0.000000 0.000000 
#    y 0.000000 1.849490 0.000000 
#    z 0.000000 0.000000 2.132750 
# 
# From -- ./inp_files/1498.got.cif
#   From: 2010.05.17/outbox.cif.g08.bks.cpg/sg152_1_cif.got.tgz:1498.got - 2010.05.20 10:36:06.
