data_PCOD9576351
_publ_section_title
;
Structure prediction by ZEFSAII (Michael W. Deem and Ramdas Pophale) SiO2 
 PCOD9576351
Probable space group: P 32 1 2
;
_chemical_formula_sum "Si O2"
_cell_formula_units_Z 15
_cell_length_a 4.804988
_cell_length_b 4.804988
_cell_length_c 27.950433
_cell_angle_alpha 90.000000
_cell_angle_beta 90.000000
_cell_angle_gamma 120.000000
_cell_volume 558.860978
_symmetry_space_group_name_H-M "P 32 1 2"
_symmetry_group_IT_number 153
_symmetry_cell_setting 'hexagonal'
loop_
_space_group_symop_operation_xyz
x,y,z
-y,x-y,2/3+z
-x+y,-x,1/3+z
-y,-x,1/3-z
-x+y,y,2/3-z
x,x-y,-z
loop_
_atom_site_type_symbol
_atom_site_label
_atom_site_fract_x
_atom_site_fract_y
_atom_site_fract_z
Si Si1 0.697438 0.334260 0.599747
Si Si2 0.151352 0.302704 0.333334
Si Si3 0.194560 0.330932 0.532889
O O1 0.848016 0.665818 0.630208
O O2 0.995465 0.310053 0.579966
O O3 0.451768 0.013691 0.629129
O O4 0.515599 0.357424 0.553733
O O5 0.245821 0.622911 0.500000
O O6 0.032632 0.016316 0.500000
#
# Coordination Sequence:
#
# PCOD9576351 Si02
#       3
#     6   3   6
#     4  11  27  50  78 114 155 203 256 316 384 457
#     4  10  26  50  80 112 156 202 256 316 384 456
#     4  12  29  52  80 115 156 204 257 318 384 457
#
# _framework density 26.840309999999999
#
# number of rings (size 3 to 8) (size 9 to 14) (size 15 to 20)
#    0.000    0.800    0.000    3.600    0.000   28.800 
#    0.000    0.000    0.000    0.000    0.000    0.000 
#    0.000    0.000    0.000    0.000    0.000    0.000 
#
# Total GULP energy -83792.546938 kJ/mol
# GULP energy per Si atom -5586.169796 kJ/mol
# Density = 2.677922 g / cm^3
# Si number density = 26.840310 Si / 1000 Ang^3
#
#
#
# Elastic Constant Matrix: (Units=GPa)
#
#
# Indices 1 2 3 4 5 6 
#
# 1 114.4689 46.8664 32.8306 0.0012 27.8554 0.0000
# 2 46.8664 114.4689 32.8306 -0.0012 -27.8554 0.0000
# 3 32.8306 32.8306 119.7913 0.0000 0.0000 0.0000
# 4 0.0012 -0.0012 0.0000 119.4998 0.0000 -27.8554
# 5 27.8554 -27.8554 0.0000 0.0000 119.4998 0.0012
# 6 0.0000 0.0000 0.0000 -27.8554 0.0012 33.8013
#
#
#
# Elastic Compliance Matrix: (Units=1/GPa)
#
#
# Indices 1 2 3 4 5 6 
#
# 1 0.012643 -0.005667 -0.001912 0.000000 -0.004268 0.000000
# 2 -0.005667 0.012643 -0.001912 0.000000 0.004268 0.000000
# 3 -0.001912 -0.001912 0.009396 0.000000 0.000000 0.000000
# 4 0.000000 0.000000 0.000000 0.010358 0.000000 0.008536
# 5 -0.004268 0.004268 0.000000 0.000000 0.010358 0.000000
# 6 0.000000 0.000000 0.000000 0.008536 0.000000 0.036619
#
#
# Mechanical properties :
#
#
# Convention : Reuss Voigt Hill
#
# Bulk Modulus (GPa) = 63.69120 63.75378 63.72249
# Shear Modulus (GPa) = 43.01763 70.30695 56.66229
#
# Velocity S-wave (km/s) = 4.00775 5.12361 4.59964
# Velocity P-wave (km/s) = 6.72289 7.66854 7.21123
#
# Compressibility (1/GPa) = 0.01570076
#
# Stress axis : x y z
#
# Youngs Moduli (GPa) = 79.09528 79.09528 106.42974
#
# Poissons Ratio (x) = 0.44820 0.20349
# Poissons Ratio (y) = 0.44820 0.20349
# Poissons Ratio (z) = 0.15123 0.15123
#
# Static dielectric constant tensor:
#      x y z
#    x 2.044500 0.000000 0.000000 
#    y 0.000000 2.044500 0.000000 
#    z 0.000000 0.000000 2.080210 
# 
# From -- ./inp_files/4459.got.cif
#   From: 2010.05.17/outbox.cif.g08.bks.cpg/sg153_3_cif.got.tgz:4459.got - 2010.05.20 10:38:56.
