data_PCOD9576725
_publ_section_title
;
Structure prediction by ZEFSAII (Michael W. Deem and Ramdas Pophale) SiO2 
 PCOD9576725
Probable space group: P 32 2 1
;
_chemical_formula_sum "Si O2"
_cell_formula_units_Z 42
_cell_length_a 8.520315
_cell_length_b 8.520315
_cell_length_c 28.498975
_cell_angle_alpha 90.000000
_cell_angle_beta 90.000000
_cell_angle_gamma 120.000000
_cell_volume 1791.724261
_symmetry_space_group_name_H-M "P 32 2 1"
_symmetry_group_IT_number 154
_symmetry_cell_setting 'hexagonal'
loop_
_space_group_symop_operation_xyz
x,y,z
-y,x-y,2/3+z
-x+y,-x,1/3+z
x-y,-y,1/3-z
-x,-x+y,2/3-z
y,x,-z
loop_
_atom_site_type_symbol
_atom_site_label
_atom_site_fract_x
_atom_site_fract_y
_atom_site_fract_z
Si Si1 0.946801 0.575359 0.540284
Si Si2 0.000000 0.775052 0.833334
Si Si3 0.060299 0.687613 0.639599
Si Si4 0.300560 0.628482 0.010844
Si Si5 0.845658 0.688005 0.388246
Si Si6 0.112554 0.543577 0.767651
Si Si7 0.049415 0.000000 0.666667
Si Si8 0.843176 0.168647 0.538099
O O1 0.016354 0.702802 0.585856
O O2 0.741242 0.529041 0.529947
O O3 0.916544 0.377001 0.552168
O O4 0.095849 0.686849 0.501440
O O5 0.059357 0.679963 0.792553
O O6 0.845670 0.818097 0.814853
O O7 0.890024 0.507810 0.656869
O O8 0.236346 0.670627 0.638855
O O9 0.087037 0.838727 0.677104
O O10 0.387398 0.735619 0.059916
O O11 0.253557 0.434547 0.990937
O O12 0.646408 0.595493 0.413162
O O13 0.902732 0.886833 0.369333
O O14 0.015098 0.738221 0.422340
#
# Coordination Sequence:
#
# PCOD9576725 Si02
#       8
#     6   3   6   6   6   6   3   6
#     4  11  26  50  69 111 152 200 262 328 384 480
#     4  12  28  48  86 114 150 212 264 338 418 470
#     4  11  25  45  76 104 156 194 262 314 407 459
#     4  11  24  46  73 113 153 204 252 329 394 482
#     4  12  27  46  78 112 156 208 262 325 406 474
#     4  11  24  49  76 112 158 198 264 331 402 486
#     4  12  26  48  72 114 150 208 250 338 376 488
#     4  12  29  47  80 108 153 206 266 327 399 480
#
# _framework density 23.441109999999998
#
# number of rings (size 3 to 8) (size 9 to 14) (size 15 to 20)
#    0.000    0.571    4.286    2.571   12.000    0.571 
#    0.000    0.000    0.000    0.000    0.000    0.000 
#    0.000    0.000    0.000    0.000    0.000    0.000 
#
# Total GULP energy -234135.123862 kJ/mol
# GULP energy per Si atom -5574.645806 kJ/mol
# Density = 2.338776 g / cm^3
# Si number density = 23.441110 Si / 1000 Ang^3
#
#
#
# Elastic Constant Matrix: (Units=GPa)
#
#
# Indices 1 2 3 4 5 6 
#
# 1 96.7540 56.7034 52.5450 7.5318 -0.0001 0.0000
# 2 56.7034 96.7540 52.5450 -7.5318 0.0001 0.0000
# 3 52.5450 52.5450 90.0780 0.0000 0.0000 0.0000
# 4 7.5318 -7.5318 0.0000 40.3306 0.0000 0.0001
# 5 -0.0001 0.0001 0.0000 0.0000 40.3306 7.5318
# 6 0.0000 0.0000 0.0000 0.0001 7.5318 20.0253
#
#
#
# Elastic Compliance Matrix: (Units=1/GPa)
#
#
# Indices 1 2 3 4 5 6 
#
# 1 0.018853 -0.008002 -0.006330 -0.005015 0.000000 0.000000
# 2 -0.008002 0.018853 -0.006330 0.005015 0.000000 0.000000
# 3 -0.006330 -0.006330 0.018486 0.000000 0.000000 0.000000
# 4 -0.005015 0.005015 0.000000 0.026668 0.000000 0.000000
# 5 0.000000 0.000000 0.000000 0.000000 0.026668 -0.010030
# 6 0.000000 0.000000 0.000000 0.000000 -0.010030 0.053709
#
#
# Mechanical properties :
#
#
# Convention : Reuss Voigt Hill
#
# Bulk Modulus (GPa) = 67.25231 67.46364 67.35797
# Shear Modulus (GPa) = 23.86438 28.25680 26.06059
#
# Velocity S-wave (km/s) = 3.19416 3.47571 3.33790
# Velocity P-wave (km/s) = 6.50813 6.70447 6.60703
#
# Compressibility (1/GPa) = 0.01486938
#
# Stress axis : x y z
#
# Youngs Moduli (GPa) = 53.04209 53.04209 54.09438
#
# Poissons Ratio (x) = 0.42443 0.34241
# Poissons Ratio (y) = 0.42443 0.34241
# Poissons Ratio (z) = 0.33575 0.33575
#
# Static dielectric constant tensor:
#      x y z
#    x 1.936000 0.000000 0.000000 
#    y 0.000000 1.936000 0.000000 
#    z 0.000000 0.000000 1.963050 
# 
# From -- ./inp_files/3812.got.cif
#   From: 2010.05.17/outbox.cif.g08.bks.cpg/sg154_2_cif.got.tgz:3812.got - 2010.05.20 10:41:43.
