data_PCOD9576068
_publ_section_title
;
Structure prediction by ZEFSAII (Michael W. Deem and Ramdas Pophale) SiO2 
 PCOD9576068
Probable space group: P 31 2 1
;
_chemical_formula_sum "Si O2"
_cell_formula_units_Z 45
_cell_length_a 11.271311
_cell_length_b 11.271311
_cell_length_c 19.874479
_cell_angle_alpha 90.000000
_cell_angle_beta 90.000000
_cell_angle_gamma 120.000000
_cell_volume 2186.629740
_symmetry_space_group_name_H-M "P 31 2 1"
_symmetry_group_IT_number 152
_symmetry_cell_setting 'hexagonal'
loop_
_space_group_symop_operation_xyz
x,y,z
-y,x-y,1/3+z
-x+y,-x,2/3+z
x-y,-y,2/3-z
-x,-x+y,1/3-z
y,x,-z
loop_
_atom_site_type_symbol
_atom_site_label
_atom_site_fract_x
_atom_site_fract_y
_atom_site_fract_z
Si Si1 0.972291 0.482182 0.052294
Si Si2 0.978681 0.576629 0.780945
Si Si3 0.000000 0.781256 0.666667
Si Si4 0.329062 0.322962 0.258984
Si Si5 0.240718 0.374821 0.465234
Si Si6 0.883615 0.302377 0.620466
Si Si7 0.726440 0.786449 0.666020
Si Si8 0.429334 0.690483 0.912997
O O1 0.815470 0.398703 0.080961
O O2 0.074143 0.604407 0.101923
O O3 0.980347 0.566997 0.985111
O O4 0.002404 0.364158 0.032464
O O5 0.030430 0.630915 0.855109
O O6 0.813643 0.467266 0.776842
O O7 0.013611 0.700115 0.730339
O O8 0.050087 0.491349 0.755109
O O9 0.873077 0.804158 0.677046
O O10 0.356688 0.196676 0.249578
O O11 0.177286 0.277121 0.284541
O O12 0.249765 0.249765 0.500000
O O13 0.137783 0.335502 0.403347
O O14 0.207164 0.449349 0.524361
O O15 0.788813 0.316248 0.677168
O O16 0.000000 0.301090 0.666667
#
# Coordination Sequence:
#
# PCOD9576068 Si02
#       8
#     6   6   3   6   6   6   6   6
#     4   9  20  40  64 102 133 165 217 289 338 393
#     4  11  22  43  62  98 133 174 224 270 344 406
#     4  12  28  46  58  88 136 188 212 276 344 402
#     4  10  23  40  67 101 123 175 236 260 343 406
#     4   9  19  40  69 102 124 168 230 278 334 398
#     4   9  19  39  67  94 131 165 215 287 323 392
#     4  11  25  45  62  93 143 175 219 279 338 409
#     4   9  17  37  70  97 124 165 216 274 339 378
#
# _framework density 20.579613999999999
#
# number of rings (size 3 to 8) (size 9 to 14) (size 15 to 20)
#    0.000    2.133    2.000    1.600    0.933    6.933 
#   12.000    0.000    0.000    0.000    0.000    0.000 
#    0.000    0.000    0.000    0.000    0.000    0.000 
#
# Total GULP energy -250805.293640 kJ/mol
# GULP energy per Si atom -5573.450970 kJ/mol
# Density = 2.053277 g / cm^3
# Si number density = 20.579614 Si / 1000 Ang^3
#
#
#
# Elastic Constant Matrix: (Units=GPa)
#
#
# Indices 1 2 3 4 5 6 
#
# 1 75.0761 19.1812 22.5825 5.7633 0.0002 0.0000
# 2 19.1812 75.0761 22.5825 -5.7633 -0.0002 0.0000
# 3 22.5825 22.5825 112.0416 0.0000 0.0000 0.0000
# 4 5.7633 -5.7633 0.0000 7.1343 0.0000 -0.0002
# 5 0.0002 -0.0002 0.0000 0.0000 7.1343 5.7633
# 6 0.0000 0.0000 0.0000 -0.0002 5.7633 27.9475
#
#
#
# Elastic Compliance Matrix: (Units=1/GPa)
#
#
# Indices 1 2 3 4 5 6 
#
# 1 0.016605 -0.004862 -0.002367 -0.017342 -0.000001 0.000000
# 2 -0.004862 0.016605 -0.002367 0.017342 0.000001 0.000000
# 3 -0.002367 -0.002367 0.009879 0.000000 0.000000 0.000000
# 4 -0.017342 0.017342 0.000000 0.168186 0.000000 0.000001
# 5 -0.000001 0.000001 0.000000 0.000000 0.168186 -0.034683
# 6 0.000000 0.000000 0.000000 0.000001 -0.034683 0.042934
#
#
# Mechanical properties :
#
#
# Convention : Reuss Voigt Hill
#
# Bulk Modulus (GPa) = 41.84367 43.43177 42.63772
# Shear Modulus (GPa) = 11.12215 21.63305 16.37760
#
# Velocity S-wave (km/s) = 2.32727 3.24572 2.82408
# Velocity P-wave (km/s) = 5.25341 5.93265 5.60333
#
# Compressibility (1/GPa) = 0.02389848
#
# Stress axis : x y z
#
# Youngs Moduli (GPa) = 60.22231 60.22231 101.22083
#
# Poissons Ratio (x) = 0.29278 0.23958
# Poissons Ratio (y) = 0.29278 0.23958
# Poissons Ratio (z) = 0.14254 0.14254
#
# Static dielectric constant tensor:
#      x y z
#    x 1.758730 0.000000 0.000000 
#    y 0.000000 1.758730 0.000000 
#    z 0.000000 0.000000 1.731060 
# 
# From -- ./inp_files/2525.got.cif
#   From: 2010.05.17/outbox.cif.g08.bks.cpg/sg152_2_cif.got.tgz:2525.got - 2010.05.20 10:36:06.
