data_PCOD9576617
_publ_section_title
;
Structure prediction by ZEFSAII (Michael W. Deem and Ramdas Pophale) SiO2 
 PCOD9576617
Probable space group: P 32 2 1
;
_chemical_formula_sum "Si O2"
_cell_formula_units_Z 42
_cell_length_a 9.218733
_cell_length_b 9.218733
_cell_length_c 28.504625
_cell_angle_alpha 90.000000
_cell_angle_beta 90.000000
_cell_angle_gamma 120.000000
_cell_volume 2097.917652
_symmetry_space_group_name_H-M "P 32 2 1"
_symmetry_group_IT_number 154
_symmetry_cell_setting 'hexagonal'
loop_
_space_group_symop_operation_xyz
x,y,z
-y,x-y,2/3+z
-x+y,-x,1/3+z
x-y,-y,1/3-z
-x,-x+y,2/3-z
y,x,-z
loop_
_atom_site_type_symbol
_atom_site_label
_atom_site_fract_x
_atom_site_fract_y
_atom_site_fract_z
Si Si1 0.509155 0.973787 0.394066
Si Si2 0.833689 0.240439 0.529247
Si Si3 0.843519 0.038308 0.448945
Si Si4 0.353500 0.040019 0.114202
Si Si5 0.317045 0.054914 0.615926
Si Si6 0.827333 0.396438 0.965478
Si Si7 0.431163 0.503400 0.888671
O O1 0.355010 0.942510 0.427759
O O2 0.461727 0.791365 0.373177
O O3 0.678174 0.034640 0.425488
O O4 0.535653 0.096784 0.351170
O O5 0.873879 0.112974 0.501264
O O6 0.643531 0.117030 0.544915
O O7 0.857238 0.373089 0.489067
O O8 0.005716 0.166576 0.419980
O O9 0.795098 0.847802 0.446583
O O10 0.428968 0.235406 0.105474
O O11 0.393112 0.000000 0.166667
O O12 0.407886 0.960933 0.072790
O O13 0.462989 0.244498 0.618137
O O14 0.398207 0.943017 0.599476
O O15 0.238861 0.000000 0.666667
#
# Coordination Sequence:
#
# PCOD9576617 Si02
#       7
#     6   6   6   6   6   6   6
#     4  11  22  42  63  94 132 167 217 267 323 394
#     4  11  20  40  66  96 121 172 213 265 321 387
#     4  10  22  42  68  92 129 171 212 272 337 375
#     4  11  23  44  65  93 135 172 210 281 332 389
#     4  11  23  42  65  93 125 169 217 269 313 406
#     4  11  25  42  65  94 129 173 213 265 338 382
#     4  11  23  38  69  93 124 168 224 263 327 388
#
# _framework density 20.019850000000002
#
# number of rings (size 3 to 8) (size 9 to 14) (size 15 to 20)
#    0.000    1.143    5.714    0.857    2.000    0.000 
#    2.571    1.429    0.000    0.000    0.000    0.000 
#    0.000    0.000    0.000    0.000    0.000    0.000 
#
# Total GULP energy -234537.940554 kJ/mol
# GULP energy per Si atom -5584.236680 kJ/mol
# Density = 1.997428 g / cm^3
# Si number density = 20.019850 Si / 1000 Ang^3
#
#
#
# Elastic Constant Matrix: (Units=GPa)
#
#
# Indices 1 2 3 4 5 6 
#
# 1 69.6929 35.1410 25.9822 0.3774 0.0005 0.0000
# 2 35.1410 69.6929 25.9822 -0.3774 -0.0005 0.0000
# 3 25.9822 25.9822 86.4011 0.0000 0.0000 0.0000
# 4 0.3774 -0.3774 0.0000 24.5591 0.0000 -0.0005
# 5 0.0005 -0.0005 0.0000 0.0000 24.5591 0.3774
# 6 0.0000 0.0000 0.0000 -0.0005 0.3774 17.2760
#
#
#
# Elastic Compliance Matrix: (Units=1/GPa)
#
#
# Indices 1 2 3 4 5 6 
#
# 1 0.020081 -0.008871 -0.003371 -0.000445 -0.000001 0.000000
# 2 -0.008871 0.020081 -0.003371 0.000445 0.000001 0.000000
# 3 -0.003371 -0.003371 0.013601 0.000000 0.000000 0.000000
# 4 -0.000445 0.000445 0.000000 0.040732 0.000000 0.000001
# 5 -0.000001 0.000001 0.000000 0.000000 0.040732 -0.000890
# 6 0.000000 0.000000 0.000000 0.000001 -0.000890 0.057903
#
#
# Mechanical properties :
#
#
# Convention : Reuss Voigt Hill
#
# Bulk Modulus (GPa) = 44.37130 44.44421 44.40776
# Shear Modulus (GPa) = 21.56400 22.52425 22.04413
#
# Velocity S-wave (km/s) = 3.28553 3.35788 3.32190
# Velocity P-wave (km/s) = 6.05018 6.10591 6.07811
#
# Compressibility (1/GPa) = 0.02253709
#
# Stress axis : x y z
#
# Youngs Moduli (GPa) = 49.79898 49.79898 73.52212
#
# Poissons Ratio (x) = 0.44176 0.24784
# Poissons Ratio (y) = 0.44176 0.24784
# Poissons Ratio (z) = 0.16787 0.16787
#
# Static dielectric constant tensor:
#      x y z
#    x 1.710070 0.000000 0.000000 
#    y 0.000000 1.710070 0.000000 
#    z 0.000000 0.000000 1.720710 
# 
# From -- ./inp_files/3765.got.cif
#   From: 2010.05.17/outbox.cif.g08.bks.cpg/sg154_2_cif.got.tgz:3765.got - 2010.05.20 10:41:43.
