data_PCOD9576466
_publ_section_title
;
Structure prediction by ZEFSAII (Michael W. Deem and Ramdas Pophale) SiO2 
 PCOD9576466
Probable space group: P 32 2 1
;
_chemical_formula_sum "Si O2"
_cell_formula_units_Z 45
_cell_length_a 18.157266
_cell_length_b 18.157266
_cell_length_c 9.655745
_cell_angle_alpha 90.000000
_cell_angle_beta 90.000000
_cell_angle_gamma 120.000000
_cell_volume 2756.876627
_symmetry_space_group_name_H-M "P 32 2 1"
_symmetry_group_IT_number 154
_symmetry_cell_setting 'hexagonal'
loop_
_space_group_symop_operation_xyz
x,y,z
-y,x-y,2/3+z
-x+y,-x,1/3+z
x-y,-y,1/3-z
-x,-x+y,2/3-z
y,x,-z
loop_
_atom_site_type_symbol
_atom_site_label
_atom_site_fract_x
_atom_site_fract_y
_atom_site_fract_z
Si Si1 0.636952 0.636952 0.000000
Si Si2 0.282475 0.504368 0.807946
Si Si3 0.751168 0.244131 0.167264
Si Si4 0.165667 0.393624 0.229237
Si Si5 0.528581 0.439164 0.531034
Si Si6 0.576034 0.457967 0.845786
Si Si7 0.399256 0.301906 0.964126
Si Si8 0.357728 0.819579 0.358730
O O1 0.720624 0.656834 0.087381
O O2 0.549837 0.608641 0.084833
O O3 0.232123 0.474086 0.663147
O O4 0.378737 0.570759 0.767181
O O5 0.275273 0.426224 0.894333
O O6 0.251403 0.551726 0.912998
O O7 0.797951 0.218187 0.282217
O O8 0.653049 0.173474 0.185747
O O9 0.785683 0.344297 0.195046
O O10 0.223786 0.365179 0.144418
O O11 0.179905 0.475631 0.141046
O O12 0.444099 0.444099 0.500000
O O13 0.559837 0.466773 0.685477
O O14 0.593237 0.494607 0.408187
O O15 0.488291 0.381684 0.906504
O O16 0.335946 0.335946 0.000000
#
# Coordination Sequence:
#
# PCOD9576466 Si02
#       8
#     3   6   6   6   6   6   6   6
#     4  10  20  34  58  72 104 142 190 230 292 338
#     4  10  21  33  47  68 104 130 186 229 292 329
#     4  10  21  34  48  73  96 133 182 240 281 330
#     4  10  21  36  53  74 101 134 189 228 283 336
#     4  11  22  33  50  70 102 135 188 231 293 325
#     4  11  20  36  52  75 102 145 192 236 284 342
#     4  11  23  37  56  77 105 146 191 235 288 342
#     4  10  21  34  46  70  95 140 175 236 283 337
#
# _framework density 16.322818999999999
#
# number of rings (size 3 to 8) (size 9 to 14) (size 15 to 20)
#    0.000    1.600    3.333    2.400    3.733    6.400 
#    0.000    0.000    0.000    0.000    0.000    0.000 
#    0.000    0.000    0.000    0.000  172.267    8.000 
#
# Total GULP energy -250564.507563 kJ/mol
# GULP energy per Si atom -5568.100168 kJ/mol
# Density = 1.628567 g / cm^3
# Si number density = 16.322819 Si / 1000 Ang^3
#
#
#
# Elastic Constant Matrix: (Units=GPa)
#
#
# Indices 1 2 3 4 5 6 
#
# 1 66.0354 26.9253 21.1129 -0.6081 0.0000 0.0000
# 2 26.9253 66.0354 21.1129 0.6081 0.0000 0.0000
# 3 21.1129 21.1129 89.8824 0.0000 0.0000 0.0000
# 4 -0.6081 0.6081 0.0000 16.2148 0.0000 0.0000
# 5 0.0000 0.0000 0.0000 0.0000 16.2148 -0.6081
# 6 0.0000 0.0000 0.0000 0.0000 -0.6081 19.5550
#
#
#
# Elastic Compliance Matrix: (Units=1/GPa)
#
#
# Indices 1 2 3 4 5 6 
#
# 1 0.018820 -0.006778 -0.002829 0.000960 0.000000 0.000000
# 2 -0.006778 0.018820 -0.002829 -0.000960 0.000000 0.000000
# 3 -0.002829 -0.002829 0.012455 0.000000 0.000000 0.000000
# 4 0.000960 -0.000960 0.000000 0.061744 0.000000 0.000000
# 5 0.000000 0.000000 0.000000 0.000000 0.061744 0.001920
# 6 0.000000 0.000000 0.000000 0.000000 0.001920 0.051197
#
#
# Mechanical properties :
#
#
# Convention : Reuss Voigt Hill
#
# Bulk Modulus (GPa) = 39.64450 40.02839 39.83644
# Shear Modulus (GPa) = 19.37535 20.58374 19.97954
#
# Velocity S-wave (km/s) = 3.44904 3.55497 3.50240
# Velocity P-wave (km/s) = 6.34048 6.43635 6.38859
#
# Compressibility (1/GPa) = 0.02522418
#
# Stress axis : x y z
#
# Youngs Moduli (GPa) = 53.13377 53.13377 80.29220
#
# Poissons Ratio (x) = 0.36016 0.22712
# Poissons Ratio (y) = 0.36016 0.22712
# Poissons Ratio (z) = 0.15030 0.15030
#
# Static dielectric constant tensor:
#      x y z
#    x 1.587870 0.000000 0.000000 
#    y 0.000000 1.587870 0.000000 
#    z 0.000000 0.000000 1.600330 
# 
# From -- ./inp_files/1291.got.cif
#   From: 2010.05.17/outbox.cif.g08.bks.cpg/sg154_1_cif.got.tgz:1291.got - 2010.05.20 10:41:43.
