data_PCOD9576755
_publ_section_title
;
Structure prediction by ZEFSAII (Michael W. Deem and Ramdas Pophale) SiO2 
 PCOD9576755
Probable space group: P 32 2 1
;
_chemical_formula_sum "Si O2"
_cell_formula_units_Z 36
_cell_length_a 12.000000
_cell_length_b 12.000000
_cell_length_c 15.000000
_cell_angle_alpha 90.000000
_cell_angle_beta 90.000000
_cell_angle_gamma 120.000000
_cell_volume 1870.614872
_symmetry_space_group_name_H-M "P 32 2 1"
_symmetry_group_IT_number 154
_symmetry_cell_setting 'hexagonal'
loop_
_space_group_symop_operation_xyz
x,y,z
-y,x-y,2/3+z
-x+y,-x,1/3+z
x-y,-y,1/3-z
-x,-x+y,2/3-z
y,x,-z
loop_
_atom_site_type_symbol
_atom_site_label
_atom_site_fract_x
_atom_site_fract_y
_atom_site_fract_z
Si Si1 0.257401 0.257401 0.500000
Si Si2 0.355780 0.424064 0.685516
Si Si3 0.425970 0.725306 0.703438
Si Si4 0.812301 0.784329 0.102401
Si Si5 0.495046 0.275728 0.765538
Si Si6 0.910778 0.765189 0.515435
Si Si7 0.000000 0.691640 0.333334
O O1 0.316430 0.351515 0.587789
O O2 0.113092 0.238720 0.481659
O O3 0.411368 0.581126 0.684251
O O4 0.447867 0.375474 0.732684
O O5 0.229609 0.353625 0.750637
O O6 0.314608 0.731741 0.646633
O O7 0.420430 0.738117 0.810664
O O8 0.557484 0.862897 0.680782
O O9 0.771847 0.634312 0.124094
O O10 0.967312 0.858976 0.109643
O O11 0.774976 0.774976 0.000000
O O12 0.796987 0.796987 0.500000
O O13 0.966730 0.745958 0.421961
#
# Coordination Sequence:
#
# PCOD9576755 Si02
#       7
#     3   6   6   6   6   6   3
#     4  12  24  42  76 108 156 198 254 320 390 448
#     4  11  27  49  68 115 145 195 256 310 391 448
#     4  12  28  50  76 103 152 196 255 309 372 459
#     4  11  22  42  72 108 147 197 250 312 373 451
#     4  11  27  48  75 109 146 203 255 309 387 457
#     4  11  24  42  71 113 146 184 253 308 383 446
#     4  12  26  48  72 104 142 200 248 306 372 446
#
# _framework density 19.245009
#
# number of rings (size 3 to 8) (size 9 to 14) (size 15 to 20)
#    0.000    0.667    7.500    1.000    7.000    2.667 
#    1.500    0.000    0.000    0.000    0.000    0.000 
#    0.000    0.000    0.000    0.000    0.000    0.000 
#
# Total GULP energy -200685.029608 kJ/mol
# GULP energy per Si atom -5574.584156 kJ/mol
# Density = 1.920121 g / cm^3
# Si number density = 19.245009 Si / 1000 Ang^3
#
#
#
# Elastic Constant Matrix: (Units=GPa)
#
#
# Indices 1 2 3 4 5 6 
#
# 1 138.2208 51.0660 39.6783 -2.5604 0.0000 0.0000
# 2 51.0660 138.2208 39.6783 2.5604 0.0000 0.0000
# 3 39.6783 39.6783 121.1682 0.0000 0.0000 0.0000
# 4 -2.5604 2.5604 0.0000 44.3829 0.0000 0.0000
# 5 0.0000 0.0000 0.0000 0.0000 44.3829 -2.5604
# 6 0.0000 0.0000 0.0000 0.0000 -2.5604 43.5774
#
#
#
# Elastic Compliance Matrix: (Units=1/GPa)
#
#
# Indices 1 2 3 4 5 6 
#
# 1 0.008818 -0.002695 -0.002005 0.000664 0.000000 0.000000
# 2 -0.002695 0.008818 -0.002005 -0.000664 0.000000 0.000000
# 3 -0.002005 -0.002005 0.009566 0.000000 0.000000 0.000000
# 4 0.000664 -0.000664 0.000000 0.022608 0.000000 0.000000
# 5 0.000000 0.000000 0.000000 0.000000 0.022608 0.001328
# 6 0.000000 0.000000 0.000000 0.000000 0.001328 0.023026
#
#
# Mechanical properties :
#
#
# Convention : Reuss Voigt Hill
#
# Bulk Modulus (GPa) = 72.50304 73.16166 72.83235
# Shear Modulus (GPa) = 44.07147 44.28112 44.17630
#
# Velocity S-wave (km/s) = 4.79061 4.80199 4.79630
# Velocity P-wave (km/s) = 8.26773 8.29722 8.28249
#
# Compressibility (1/GPa) = 0.01379253
#
# Stress axis : x y z
#
# Youngs Moduli (GPa) = 113.40089 113.40089 104.53354
#
# Poissons Ratio (x) = 0.30557 0.20962
# Poissons Ratio (y) = 0.30557 0.20962
# Poissons Ratio (z) = 0.22740 0.22740
#
# Static dielectric constant tensor:
#      x y z
#    x 1.709430 0.000000 0.000000 
#    y 0.000000 1.709430 0.000000 
#    z 0.000000 0.000000 1.705090 
# 
# From -- ./inp_files/2007.got.cif
#   From: 2010.05.17/outbox.ucp.g08.bks.cvg/sg154_2_cif.got.tgz:2007.got - 2010.06.11 15:13:38.
