data_PCOD9576330
_publ_section_title
;
Structure prediction by ZEFSAII (Michael W. Deem and Ramdas Pophale) SiO2 
 PCOD9576330
Probable space group: P 32 1 2
;
_chemical_formula_sum "Si O2"
_cell_formula_units_Z 24
_cell_length_a 10.856993
_cell_length_b 10.856993
_cell_length_c 12.200863
_cell_angle_alpha 90.000000
_cell_angle_beta 90.000000
_cell_angle_gamma 120.000000
_cell_volume 1245.490152
_symmetry_space_group_name_H-M "P 32 1 2"
_symmetry_group_IT_number 153
_symmetry_cell_setting 'hexagonal'
loop_
_space_group_symop_operation_xyz
x,y,z
-y,x-y,2/3+z
-x+y,-x,1/3+z
-y,-x,1/3-z
-x+y,y,2/3-z
x,x-y,-z
loop_
_atom_site_type_symbol
_atom_site_label
_atom_site_fract_x
_atom_site_fract_y
_atom_site_fract_z
Si Si1 0.127008 0.233424 0.086529
Si Si2 0.257886 0.140094 0.271065
Si Si3 0.635753 0.955315 0.549487
Si Si4 0.328752 0.911653 0.595729
O O1 0.158099 0.151956 0.180578
O O2 0.113993 0.357153 0.149042
O O3 0.856631 0.018911 0.310054
O O4 0.254100 0.288807 0.998800
O O5 0.331771 0.289505 0.336142
O O6 0.344946 0.080447 0.202337
O O7 0.616414 0.808207 0.500000
O O8 0.485250 0.942149 0.571670
O O9 0.230788 0.769213 0.666667
#
# Coordination Sequence:
#
# PCOD9576330 Si02
#       4
#     6   6   6   6
#     4  10  22  39  64  90 120 157 206 254 308 361
#     4  10  22  39  62  92 122 157 202 256 302 363
#     4  10  23  38  63  91 125 161 205 255 308 363
#     4  10  23  38  63  91 125 161 205 255 308 363
#
# _framework density 19.269521999999998
#
# number of rings (size 3 to 8) (size 9 to 14) (size 15 to 20)
#    0.000    2.000    0.000    1.500    3.500   26.000 
#    0.000    0.000   27.500    0.000    0.000    0.000 
#    0.000    0.000    0.000    0.000    0.000    0.000 
#
# Total GULP energy -134045.361827 kJ/mol
# GULP energy per Si atom -5585.223409 kJ/mol
# Density = 1.922566 g / cm^3
# Si number density = 19.269522 Si / 1000 Ang^3
#
#
#
# Elastic Constant Matrix: (Units=GPa)
#
#
# Indices 1 2 3 4 5 6 
#
# 1 55.1051 17.9046 -1.7769 0.0000 -8.8089 0.0000
# 2 17.9046 55.1051 -1.7769 0.0000 8.8089 0.0000
# 3 -1.7769 -1.7769 60.1812 0.0000 0.0000 0.0000
# 4 0.0000 0.0000 0.0000 21.7201 0.0000 8.8089
# 5 -8.8089 8.8089 0.0000 0.0000 21.7201 0.0000
# 6 0.0000 0.0000 0.0000 8.8089 0.0000 18.6002
#
#
#
# Elastic Compliance Matrix: (Units=1/GPa)
#
#
# Indices 1 2 3 4 5 6 
#
# 1 0.023494 -0.009778 0.000405 0.000000 0.013494 0.000000
# 2 -0.009778 0.023494 0.000405 0.000000 -0.013494 0.000000
# 3 0.000405 0.000405 0.016640 0.000000 0.000000 0.000000
# 4 0.000000 0.000000 0.000000 0.056986 0.000000 -0.026988
# 5 0.013494 -0.013494 0.000000 0.000000 0.056986 0.000000
# 6 0.000000 0.000000 0.000000 -0.026988 0.000000 0.066544
#
#
# Mechanical properties :
#
#
# Convention : Reuss Voigt Hill
#
# Bulk Modulus (GPa) = 21.88498 22.12143 22.00321
# Shear Modulus (GPa) = 18.03032 22.81080 20.42056
#
# Velocity S-wave (km/s) = 3.06223 3.44434 3.25889
# Velocity P-wave (km/s) = 4.88722 5.22713 5.06003
#
# Compressibility (1/GPa) = 0.04569344
#
# Stress axis : x y z
#
# Youngs Moduli (GPa) = 42.56359 42.56359 60.09471
#
# Poissons Ratio (x) = 0.41618 -0.02434
# Poissons Ratio (y) = 0.41618 -0.02434
# Poissons Ratio (z) = -0.01724 -0.01724
#
# Static dielectric constant tensor:
#      x y z
#    x 1.672060 0.000000 0.000000 
#    y 0.000000 1.672060 0.000000 
#    z 0.000000 0.000000 1.705670 
# 
# From -- ./inp_files/2342.got.cif
#   From: 2010.05.17/outbox.cif.g08.bks.cpg/sg153_2_cif.got.tgz:2342.got - 2010.05.20 10:38:56.
