data_PCOD9576551
_publ_section_title
;
Structure prediction by ZEFSAII (Michael W. Deem and Ramdas Pophale) SiO2 
 PCOD9576551
Probable space group: P 32 2 1
;
_chemical_formula_sum "Si O2"
_cell_formula_units_Z 42
_cell_length_a 8.134757
_cell_length_b 8.134757
_cell_length_c 32.890877
_cell_angle_alpha 90.000000
_cell_angle_beta 90.000000
_cell_angle_gamma 120.000000
_cell_volume 1884.930119
_symmetry_space_group_name_H-M "P 32 2 1"
_symmetry_group_IT_number 154
_symmetry_cell_setting 'hexagonal'
loop_
_space_group_symop_operation_xyz
x,y,z
-y,x-y,2/3+z
-x+y,-x,1/3+z
x-y,-y,1/3-z
-x,-x+y,2/3-z
y,x,-z
loop_
_atom_site_type_symbol
_atom_site_label
_atom_site_fract_x
_atom_site_fract_y
_atom_site_fract_z
Si Si1 0.362337 0.327572 0.749791
Si Si2 0.220152 0.382910 0.830412
Si Si3 0.227402 0.302538 0.337978
Si Si4 0.630904 0.169710 0.634000
Si Si5 0.419972 0.966402 0.551555
Si Si6 0.334718 0.056343 0.393259
Si Si7 0.989025 0.205462 0.150623
O O1 0.296158 0.424884 0.783774
O O2 0.275304 0.301614 0.705476
O O3 0.334670 0.127160 0.764128
O O4 0.584874 0.450769 0.740379
O O5 0.344019 0.528709 0.865576
O O6 0.242359 0.199509 0.840096
O O7 0.000000 0.317833 0.833334
O O8 0.275587 0.515826 0.350925
O O9 0.000000 0.189332 0.333334
O O10 0.296169 0.203570 0.369879
O O11 0.859137 0.276557 0.630403
O O12 0.567275 0.000000 0.666667
O O13 0.553286 0.088021 0.588488
O O14 0.405726 0.060490 0.509270
O O15 0.228383 0.012463 0.435934
O O16 0.843878 0.000000 0.166667
#
# Coordination Sequence:
#
# PCOD9576551 Si02
#       7
#     6   6   6   6   6   6   6
#     4  11  25  44  63  97 140 167 221 286 338 401
#     4  10  22  39  67  95 127 176 223 276 333 406
#     4  11  25  45  67  97 132 178 229 276 331 421
#     4  11  23  43  69  93 130 181 224 274 339 411
#     4  11  20  43  66  92 133 170 222 278 334 406
#     4  12  25  42  67 101 130 177 224 279 350 414
#     4  10  21  38  67  95 124 166 222 282 334 400
#
# _framework density 22.281994000000001
#
# number of rings (size 3 to 8) (size 9 to 14) (size 15 to 20)
#    0.000    1.143    5.714    1.286    6.000    1.143 
#    2.571    0.714    0.000    0.000    0.000    0.000 
#    0.000    0.000    0.000    0.000    0.000    0.000 
#
# Total GULP energy -234284.216795 kJ/mol
# GULP energy per Si atom -5578.195638 kJ/mol
# Density = 2.223128 g / cm^3
# Si number density = 22.281994 Si / 1000 Ang^3
#
#
#
# Elastic Constant Matrix: (Units=GPa)
#
#
# Indices 1 2 3 4 5 6 
#
# 1 43.8686 2.1825 28.6624 -3.8757 0.0001 0.0000
# 2 2.1825 43.8686 28.6624 3.8757 -0.0001 0.0000
# 3 28.6624 28.6624 147.0770 0.0000 0.0000 0.0000
# 4 -3.8757 3.8757 0.0000 26.1439 0.0000 -0.0001
# 5 0.0001 -0.0001 0.0000 0.0000 26.1439 -3.8757
# 6 0.0000 0.0000 0.0000 -0.0001 -3.8757 20.8431
#
#
#
# Elastic Compliance Matrix: (Units=1/GPa)
#
#
# Indices 1 2 3 4 5 6 
#
# 1 0.026669 0.002001 -0.005587 0.003657 0.000000 0.000000
# 2 0.002001 0.026669 -0.005587 -0.003657 0.000000 0.000000
# 3 -0.005587 -0.005587 0.008977 0.000000 0.000000 0.000000
# 4 0.003657 -0.003657 0.000000 0.039334 0.000000 0.000000
# 5 0.000000 0.000000 0.000000 0.000000 0.039334 0.007314
# 6 0.000000 0.000000 0.000000 0.000000 0.007314 0.049338
#
#
# Mechanical properties :
#
#
# Convention : Reuss Voigt Hill
#
# Bulk Modulus (GPa) = 22.74376 39.31430 31.02903
# Shear Modulus (GPa) = 22.38888 26.31331 24.35110
#
# Velocity S-wave (km/s) = 3.17329 3.44018 3.30943
# Velocity P-wave (km/s) = 4.86372 5.78464 5.34406
#
# Compressibility (1/GPa) = 0.04396810
#
# Stress axis : x y z
#
# Youngs Moduli (GPa) = 37.49607 37.49607 111.39765
#
# Poissons Ratio (x) = -0.07502 0.62241
# Poissons Ratio (y) = -0.07502 0.62241
# Poissons Ratio (z) = 0.20950 0.20950
#
# Static dielectric constant tensor:
#      x y z
#    x 1.873290 0.000000 0.000000 
#    y 0.000000 1.873290 0.000000 
#    z 0.000000 0.000000 1.931360 
# 
# From -- ./inp_files/3809.got.cif
#   From: 2010.05.17/outbox.cif.g08.bks.cpg/sg154_2_cif.got.tgz:3809.got - 2010.05.20 10:41:43.
