data_PCOD9576305
_publ_section_title
;
Structure prediction by ZEFSAII (Michael W. Deem and Ramdas Pophale) SiO2 
 PCOD9576305
Probable space group: P 32 1 2
;
_chemical_formula_sum "Si O2"
_cell_formula_units_Z 15
_cell_length_a 12.969390
_cell_length_b 12.969390
_cell_length_c 5.102528
_cell_angle_alpha 90.000000
_cell_angle_beta 90.000000
_cell_angle_gamma 120.000000
_cell_volume 743.284589
_symmetry_space_group_name_H-M "P 32 1 2"
_symmetry_group_IT_number 153
_symmetry_cell_setting 'hexagonal'
loop_
_space_group_symop_operation_xyz
x,y,z
-y,x-y,2/3+z
-x+y,-x,1/3+z
-y,-x,1/3-z
-x+y,y,2/3-z
x,x-y,-z
loop_
_atom_site_type_symbol
_atom_site_label
_atom_site_fract_x
_atom_site_fract_y
_atom_site_fract_z
Si Si1 0.895905 0.572455 0.972703
Si Si2 0.608627 0.972149 0.811525
Si Si3 0.264625 0.735376 0.166667
O O1 0.777140 0.554279 0.833334
O O2 0.999546 0.658434 0.769866
O O3 0.887483 0.443742 0.000000
O O4 0.935052 0.629827 0.259670
O O5 0.496265 0.992530 0.833334
O O6 0.551922 0.840449 0.697521
O O7 0.383184 0.766367 0.333334
#
# Coordination Sequence:
#
# PCOD9576305 Si02
#       3
#     6   6   3
#     4  10  21  36  54  76 110 147 190 239 282 332
#     4  10  21  35  51  80 110 148 193 226 272 361
#     4  12  22  34  56  80 124 164 188 224 308 346
#
# _framework density 20.180696000000001
#
# number of rings (size 3 to 8) (size 9 to 14) (size 15 to 20)
#    0.000    1.600    2.000    4.800    0.000    4.800 
#    0.000    0.000    0.000    0.000    0.000    0.000 
#   30.000    0.000    0.000    0.000    0.000    0.000 
#
# Total GULP energy -83692.271661 kJ/mol
# GULP energy per Si atom -5579.484777 kJ/mol
# Density = 2.013476 g / cm^3
# Si number density = 20.180696 Si / 1000 Ang^3
#
#
#
# Elastic Constant Matrix: (Units=GPa)
#
#
# Indices 1 2 3 4 5 6 
#
# 1 78.1142 36.8506 44.9798 0.0000 10.3904 0.0000
# 2 36.8506 78.1142 44.9798 0.0000 -10.3904 0.0000
# 3 44.9798 44.9798 123.2778 0.0000 0.0000 0.0000
# 4 0.0000 0.0000 0.0000 33.7268 0.0000 -10.3904
# 5 10.3904 -10.3904 0.0000 0.0000 33.7268 0.0000
# 6 0.0000 0.0000 0.0000 -10.3904 0.0000 20.6318
#
#
#
# Elastic Compliance Matrix: (Units=1/GPa)
#
#
# Indices 1 2 3 4 5 6 
#
# 1 0.020429 -0.008255 -0.004442 0.000000 -0.008837 0.000000
# 2 -0.008255 0.020429 -0.004442 0.000000 0.008837 0.000000
# 3 -0.004442 -0.004442 0.011353 0.000000 0.000000 0.000000
# 4 0.000000 0.000000 0.000000 0.035095 0.000000 0.017674
# 5 -0.008837 0.008837 0.000000 0.000000 0.035095 0.000000
# 6 0.000000 0.000000 0.000000 0.017674 0.000000 0.057370
#
#
# Mechanical properties :
#
#
# Convention : Reuss Voigt Hill
#
# Bulk Modulus (GPa) = 55.76089 59.23631 57.49860
# Shear Modulus (GPa) = 22.72438 27.79682 25.26060
#
# Velocity S-wave (km/s) = 3.35930 3.71536 3.54181
# Velocity P-wave (km/s) = 6.53738 6.91533 6.72901
#
# Compressibility (1/GPa) = 0.01793372
#
# Stress axis : x y z
#
# Youngs Moduli (GPa) = 48.94887 48.94887 88.08117
#
# Poissons Ratio (x) = 0.40409 0.39125
# Poissons Ratio (y) = 0.40409 0.39125
# Poissons Ratio (z) = 0.21743 0.21743
#
# Static dielectric constant tensor:
#      x y z
#    x 1.733490 0.000000 0.000000 
#    y 0.000000 1.733490 0.000000 
#    z 0.000000 0.000000 1.777590 
# 
# From -- ./inp_files/67.got.cif
#   From: 2010.05.17/outbox.cif.g08.bks.cpg/sg153_1_cif.got.tgz:67.got - 2010.05.20 10:38:56.
