data_PCOD9576154
_publ_section_title
;
Structure prediction by ZEFSAII (Michael W. Deem and Ramdas Pophale) SiO2 
 PCOD9576154
Probable space group: P 31 2 1
;
_chemical_formula_sum "Si O2"
_cell_formula_units_Z 24
_cell_length_a 15.528765
_cell_length_b 15.528765
_cell_length_c 5.556002
_cell_angle_alpha 90.000000
_cell_angle_beta 90.000000
_cell_angle_gamma 120.000000
_cell_volume 1160.290832
_symmetry_space_group_name_H-M "P 31 2 1"
_symmetry_group_IT_number 152
_symmetry_cell_setting 'hexagonal'
loop_
_space_group_symop_operation_xyz
x,y,z
-y,x-y,1/3+z
-x+y,-x,2/3+z
x-y,-y,2/3-z
-x,-x+y,1/3-z
y,x,-z
loop_
_atom_site_type_symbol
_atom_site_label
_atom_site_fract_x
_atom_site_fract_y
_atom_site_fract_z
Si Si1 0.551232 0.452316 0.844447
Si Si2 0.280055 0.883369 0.832518
Si Si3 0.057763 0.713934 0.924066
Si Si4 0.353672 0.763192 0.102049
O O1 0.655143 0.529060 0.719155
O O2 0.455435 0.377587 0.689957
O O3 0.514760 0.514760 0.000000
O O4 0.567047 0.378948 0.019347
O O5 0.162246 0.812961 0.861814
O O6 0.316330 0.000000 0.833334
O O7 0.321415 0.843522 0.045865
O O8 0.000000 0.688493 0.666667
O O9 0.000000 0.717416 0.166667
O O10 0.264855 0.662574 0.210337
#
# Coordination Sequence:
#
# PCOD9576154 Si02
#       4
#     6   6   6   6
#     4  11  23  40  67  96 139 182 231 278 339 417
#     4  12  25  43  68  97 133 178 237 288 343 411
#     4  11  27  45  70  99 142 183 229 286 353 414
#     4  12  24  40  63  96 139 182 227 273 344 413
#
# _framework density 20.684469
#
# number of rings (size 3 to 8) (size 9 to 14) (size 15 to 20)
#    0.000    0.500    2.500    6.750   14.000    0.000 
#    0.000    0.000    0.000    1.500    0.000    0.000 
#    0.000    0.000    0.000    0.000    0.000    0.000 
#
# Total GULP energy -133900.655846 kJ/mol
# GULP energy per Si atom -5579.193994 kJ/mol
# Density = 2.063739 g / cm^3
# Si number density = 20.684469 Si / 1000 Ang^3
#
#
#
# Elastic Constant Matrix: (Units=GPa)
#
#
# Indices 1 2 3 4 5 6 
#
# 1 137.6660 72.2791 55.9990 0.6677 0.0000 0.0000
# 2 72.2791 137.6660 55.9990 -0.6677 0.0000 0.0000
# 3 55.9990 55.9990 104.1704 0.0000 0.0000 0.0000
# 4 0.6677 -0.6677 0.0000 39.1460 0.0000 0.0000
# 5 0.0000 0.0000 0.0000 0.0000 39.1460 0.6677
# 6 0.0000 0.0000 0.0000 0.0000 0.6677 32.6935
#
#
#
# Elastic Compliance Matrix: (Units=1/GPa)
#
#
# Indices 1 2 3 4 5 6 
#
# 1 0.010989 -0.004310 -0.003590 -0.000261 0.000000 0.000000
# 2 -0.004310 0.010989 -0.003590 0.000261 0.000000 0.000000
# 3 -0.003590 -0.003590 0.013459 0.000000 0.000000 0.000000
# 4 -0.000261 0.000261 0.000000 0.025554 0.000000 0.000000
# 5 0.000000 0.000000 0.000000 0.000000 0.025554 -0.000522
# 6 0.000000 0.000000 0.000000 0.000000 -0.000522 0.030598
#
#
# Mechanical properties :
#
#
# Convention : Reuss Voigt Hill
#
# Bulk Modulus (GPa) = 80.28358 83.11739 81.70049
# Shear Modulus (GPa) = 34.65581 35.21212 34.93396
#
# Velocity S-wave (km/s) = 4.09767 4.13043 4.11408
# Velocity P-wave (km/s) = 7.82851 7.93838 7.88364
#
# Compressibility (1/GPa) = 0.01245585
#
# Stress axis : x y z
#
# Youngs Moduli (GPa) = 91.00327 91.00327 74.29705
#
# Poissons Ratio (x) = 0.39225 0.26673
# Poissons Ratio (y) = 0.39225 0.26673
# Poissons Ratio (z) = 0.32671 0.32671
#
# Static dielectric constant tensor:
#      x y z
#    x 1.787020 0.000000 0.000000 
#    y 0.000000 1.787020 0.000000 
#    z 0.000000 0.000000 2.134580 
# 
# From -- ./inp_files/155.got.cif
#   From: 2010.05.17/outbox.cif.g08.bks.cpg/sg152_1_cif.got.tgz:155.got - 2010.05.20 10:36:06.
