data_PCOD9576506
_publ_section_title
;
Structure prediction by ZEFSAII (Michael W. Deem and Ramdas Pophale) SiO2 
 PCOD9576506
Probable space group: P 32 2 1
;
_chemical_formula_sum "Si O2"
_cell_formula_units_Z 45
_cell_length_a 12.293860
_cell_length_b 12.293860
_cell_length_c 16.792570
_cell_angle_alpha 90.000000
_cell_angle_beta 90.000000
_cell_angle_gamma 120.000000
_cell_volume 2197.982981
_symmetry_space_group_name_H-M "P 32 2 1"
_symmetry_group_IT_number 154
_symmetry_cell_setting 'hexagonal'
loop_
_space_group_symop_operation_xyz
x,y,z
-y,x-y,2/3+z
-x+y,-x,1/3+z
x-y,-y,1/3-z
-x,-x+y,2/3-z
y,x,-z
loop_
_atom_site_type_symbol
_atom_site_label
_atom_site_fract_x
_atom_site_fract_y
_atom_site_fract_z
Si Si1 0.321129 0.479723 0.303885
Si Si2 0.997513 0.808835 0.215899
Si Si3 0.000000 0.625515 0.333334
Si Si4 0.254128 0.655228 0.399985
Si Si5 0.304340 0.252954 0.411359
Si Si6 0.885269 0.969953 0.376833
Si Si7 0.267764 0.873436 0.488885
Si Si8 0.672298 0.528204 0.791731
O O1 0.315324 0.596732 0.343271
O O2 0.312066 0.371972 0.363603
O O3 0.211495 0.423203 0.235763
O O4 0.458714 0.551478 0.265164
O O5 0.046380 0.726183 0.260722
O O6 0.016837 0.834632 0.121751
O O7 0.848562 0.720060 0.223224
O O8 0.055680 0.942828 0.258262
O O9 0.118036 0.616935 0.363526
O O10 0.313585 0.798566 0.430507
O O11 0.230464 0.577135 0.479885
O O12 0.254839 0.254839 0.500000
O O13 0.213161 0.131291 0.360065
O O14 0.422592 0.231976 0.421294
O O15 0.000000 0.091272 0.333334
O O16 0.365337 0.019115 0.502306
#
# Coordination Sequence:
#
# PCOD9576506 Si02
#       8
#     6   6   3   6   6   6   6   6
#     4  11  24  46  66  98 133 181 235 282 349 423
#     4  10  21  38  60  98 137 174 229 273 337 414
#     4  10  20  38  68  90 132 172 230 286 328 404
#     4  10  22  41  65  95 124 175 221 286 329 413
#     4  12  26  43  70 101 138 178 225 292 357 423
#     4  11  23  36  61  96 142 180 212 279 356 417
#     4  10  22  42  66  95 132 177 230 275 340 409
#     4  11  25  42  69  95 135 176 229 285 350 418
#
# _framework density 20.473317000000002
#
# number of rings (size 3 to 8) (size 9 to 14) (size 15 to 20)
#    0.000    1.333    3.333    1.600    7.467    0.000 
#    1.200    0.000    2.933    0.000    0.000    0.000 
#    0.000    0.000    0.000    0.000    0.000    0.000 
#
# Total GULP energy -250667.205211 kJ/mol
# GULP energy per Si atom -5570.382338 kJ/mol
# Density = 2.042672 g / cm^3
# Si number density = 20.473317 Si / 1000 Ang^3
#
#
#
# Elastic Constant Matrix: (Units=GPa)
#
#
# Indices 1 2 3 4 5 6 
#
# 1 63.9670 24.5704 28.9195 3.9348 0.0003 0.0000
# 2 24.5704 63.9670 28.9195 -3.9348 -0.0003 0.0000
# 3 28.9195 28.9195 116.1236 0.0000 0.0000 0.0000
# 4 3.9348 -3.9348 0.0000 15.4010 0.0000 -0.0003
# 5 0.0003 -0.0003 0.0000 0.0000 15.4010 3.9348
# 6 0.0000 0.0000 0.0000 -0.0003 3.9348 19.6983
#
#
#
# Elastic Compliance Matrix: (Units=1/GPa)
#
#
# Indices 1 2 3 4 5 6 
#
# 1 0.020119 -0.006629 -0.003359 -0.006834 -0.000001 0.000000
# 2 -0.006629 0.020119 -0.003359 0.006834 0.000001 0.000000
# 3 -0.003359 -0.003359 0.010285 0.000000 0.000000 0.000000
# 4 -0.006834 0.006834 0.000000 0.068423 0.000000 0.000001
# 5 -0.000001 0.000001 0.000000 0.000000 0.068423 -0.013668
# 6 0.000000 0.000000 0.000000 0.000001 -0.013668 0.053496
#
#
# Mechanical properties :
#
#
# Convention : Reuss Voigt Hill
#
# Bulk Modulus (GPa) = 41.97136 45.43069 43.70102
# Shear Modulus (GPa) = 18.14872 20.87660 19.51266
#
# Velocity S-wave (km/s) = 2.98057 3.19674 3.09054
# Velocity P-wave (km/s) = 5.69123 5.98864 5.84183
#
# Compressibility (1/GPa) = 0.02382577
#
# Stress axis : x y z
#
# Youngs Moduli (GPa) = 49.70526 49.70526 97.23131
#
# Poissons Ratio (x) = 0.32951 0.32664
# Poissons Ratio (y) = 0.32951 0.32664
# Poissons Ratio (z) = 0.16698 0.16698
#
# Static dielectric constant tensor:
#      x y z
#    x 1.802660 0.000000 0.000000 
#    y 0.000000 1.802660 0.000000 
#    z 0.000000 0.000000 1.828780 
# 
# From -- ./inp_files/2501.got.cif
#   From: 2010.05.17/outbox.cif.g08.bks.cpg/sg154_2_cif.got.tgz:2501.got - 2010.05.20 10:41:43.
