data_PCOD9576547
_publ_section_title
;
Structure prediction by ZEFSAII (Michael W. Deem and Ramdas Pophale) SiO2 
 PCOD9576547
Probable space group: P 32 2 1
;
_chemical_formula_sum "Si O2"
_cell_formula_units_Z 45
_cell_length_a 15.293398
_cell_length_b 15.293398
_cell_length_c 12.033754
_cell_angle_alpha 90.000000
_cell_angle_beta 90.000000
_cell_angle_gamma 120.000000
_cell_volume 2437.472601
_symmetry_space_group_name_H-M "P 32 2 1"
_symmetry_group_IT_number 154
_symmetry_cell_setting 'hexagonal'
loop_
_space_group_symop_operation_xyz
x,y,z
-y,x-y,2/3+z
-x+y,-x,1/3+z
x-y,-y,1/3-z
-x,-x+y,2/3-z
y,x,-z
loop_
_atom_site_type_symbol
_atom_site_label
_atom_site_fract_x
_atom_site_fract_y
_atom_site_fract_z
Si Si1 0.345156 0.485268 0.621189
Si Si2 0.411489 0.025452 0.043944
Si Si3 0.291744 0.857386 0.498525
Si Si4 0.606777 0.086642 0.809316
Si Si5 0.723488 0.000000 0.166667
Si Si6 0.642214 0.137686 0.564380
Si Si7 0.148520 0.465152 0.534500
Si Si8 0.712622 0.818334 0.038049
O O1 0.466141 0.553994 0.604023
O O2 0.331640 0.482844 0.753241
O O3 0.308060 0.374220 0.575215
O O4 0.265714 0.510669 0.565608
O O5 0.363378 0.000000 0.166667
O O6 0.389857 0.092657 0.955742
O O7 0.372873 0.920851 0.975115
O O8 0.410138 0.905648 0.528445
O O9 0.235622 0.737332 0.483096
O O10 0.226569 0.868770 0.595567
O O11 0.660011 0.124664 0.692483
O O12 0.578287 0.970520 0.826218
O O13 0.814124 0.072410 0.248684
O O14 0.543161 0.145903 0.550674
O O15 0.102862 0.357701 0.471537
O O16 0.806469 0.806469 0.000000
#
# Coordination Sequence:
#
# PCOD9576547 Si02
#       8
#     6   6   6   6   3   6   6   6
#     4  10  21  38  56  85 123 165 209 246 321 367
#     4  11  23  40  55  84 132 168 211 264 312 367
#     4  11  22  34  62  87 117 170 212 249 311 372
#     4  10  21  39  55  81 127 159 205 259 302 364
#     4  10  22  36  64  96 114 160 202 270 326 382
#     4  11  21  37  58  84 119 165 205 254 304 359
#     4  11  22  37  62  85 125 169 202 265 311 371
#     4  11  20  40  63  93 119 151 212 259 321 381
#
# _framework density 18.461746000000002
#
# number of rings (size 3 to 8) (size 9 to 14) (size 15 to 20)
#    0.000    1.333    6.000    0.800    1.867    2.133 
#    2.400    0.000    0.000    0.000   13.867    0.000 
#    0.000    0.000    0.000    0.000    0.000    0.000 
#
# Total GULP energy -250668.515260 kJ/mol
# GULP energy per Si atom -5570.411450 kJ/mol
# Density = 1.841973 g / cm^3
# Si number density = 18.461746 Si / 1000 Ang^3
#
#
#
# Elastic Constant Matrix: (Units=GPa)
#
#
# Indices 1 2 3 4 5 6 
#
# 1 55.6345 24.0405 17.5538 4.9173 -0.0002 0.0000
# 2 24.0405 55.6345 17.5538 -4.9173 0.0002 0.0000
# 3 17.5538 17.5538 96.7605 0.0000 0.0000 0.0000
# 4 4.9173 -4.9173 0.0000 19.3088 0.0000 0.0002
# 5 -0.0002 0.0002 0.0000 0.0000 19.3088 4.9173
# 6 0.0000 0.0000 0.0000 0.0002 4.9173 15.7970
#
#
#
# Elastic Compliance Matrix: (Units=1/GPa)
#
#
# Indices 1 2 3 4 5 6 
#
# 1 0.024009 -0.010368 -0.002475 -0.008755 0.000000 0.000000
# 2 -0.010368 0.024009 -0.002475 0.008755 0.000000 0.000000
# 3 -0.002475 -0.002475 0.011233 0.000000 0.000000 0.000000
# 4 -0.008755 0.008755 0.000000 0.056249 0.000000 -0.000001
# 5 0.000000 0.000000 0.000000 0.000000 0.056249 -0.017509
# 6 0.000000 0.000000 0.000000 -0.000001 -0.017509 0.068753
#
#
# Mechanical properties :
#
#
# Convention : Reuss Voigt Hill
#
# Bulk Modulus (GPa) = 34.94480 36.25843 35.60162
# Shear Modulus (GPa) = 17.81419 20.80836 19.31127
#
# Velocity S-wave (km/s) = 3.10969 3.36088 3.23772
# Velocity P-wave (km/s) = 5.64472 5.89433 5.77088
#
# Compressibility (1/GPa) = 0.02861656
#
# Stress axis : x y z
#
# Youngs Moduli (GPa) = 41.65093 41.65093 89.02567
#
# Poissons Ratio (x) = 0.43182 0.22032
# Poissons Ratio (y) = 0.43182 0.22032
# Poissons Ratio (z) = 0.10308 0.10308
#
# Static dielectric constant tensor:
#      x y z
#    x 1.659510 0.000000 0.000000 
#    y 0.000000 1.659510 0.000000 
#    z 0.000000 0.000000 1.663940 
# 
# From -- ./inp_files/1780.got.cif
#   From: 2010.05.17/outbox.cif.g08.bks.cpg/sg154_1_cif.got.tgz:1780.got - 2010.05.20 10:41:43.
