data_PCOD9576972
_publ_section_title
;
Structure prediction by ZEFSAII (Michael W. Deem and Ramdas Pophale) SiO2 
 PCOD9576972
Probable space group: R 3 2
;
_chemical_formula_sum "Si O2"
_cell_formula_units_Z 114
_cell_length_a 20.561185
_cell_length_b 20.561185
_cell_length_c 15.825984
_cell_angle_alpha 90.000000
_cell_angle_beta 90.000000
_cell_angle_gamma 120.000000
_cell_volume 5794.255416
_symmetry_space_group_name_H-M "R 3 2"
_symmetry_group_IT_number 155
_symmetry_cell_setting 'hexagonal'
loop_
_space_group_symop_operation_xyz
x,y,z
-y,x-y,z
-x+y,-x,z
x-y,-y,-z
-x,-x+y,-z
y,x,-z
2/3+x,1/3+y,1/3+z
2/3-y,1/3+x-y,1/3+z
2/3-x+y,1/3-x,1/3+z
2/3+x-y,1/3-y,1/3-z
2/3-x,1/3-x+y,1/3-z
2/3+y,1/3+x,1/3-z
1/3+x,2/3+y,2/3+z
1/3-y,2/3+x-y,2/3+z
1/3-x+y,2/3-x,2/3+z
1/3+x-y,2/3-y,2/3-z
1/3-x,2/3-x+y,2/3-z
1/3+y,2/3+x,2/3-z
loop_
_atom_site_type_symbol
_atom_site_label
_atom_site_fract_x
_atom_site_fract_y
_atom_site_fract_z
Si Si1 0.515525 0.421378 0.348797
Si Si2 0.333335 0.666668 0.269187
Si Si3 0.172769 0.262354 0.486717
Si Si4 0.446587 0.831993 0.993401
Si Si5 0.091744 0.526927 0.832147
Si Si6 0.418584 0.229194 0.004991
Si Si7 0.755620 0.816263 0.829146
O O1 0.460762 0.333334 0.333334
O O2 0.562049 0.444546 0.262317
O O3 0.467053 0.464005 0.349794
O O4 0.569772 0.452572 0.431036
O O5 0.333334 0.666668 0.166667
O O6 0.311199 0.584715 0.304880
O O7 0.236063 0.236063 0.500000
O O8 0.126240 0.221914 0.403462
O O9 0.198847 0.350426 0.482702
O O10 0.124029 0.235083 0.572694
O O11 0.420555 0.849610 0.906028
O O12 0.529529 0.845624 0.974611
O O13 0.087521 0.447037 0.829436
O O14 0.442751 0.186179 0.069854
O O15 0.666667 0.775005 0.833334
#
# Coordination Sequence:
#
# PCOD9576972 Si02
#       7
#    18   6  18  18  18  18  18
#     4  10  21  37  61  89 118 156 196 244 305 363
#     4  12  24  39  60  81 115 170 208 243 300 360
#     4   9  20  39  59  86 118 150 192 248 304 359
#     4  11  22  37  57  85 118 150 195 246 295 358
#     4  11  22  37  60  88 118 153 194 244 304 363
#     4   9  19  37  60  83 114 151 193 244 297 355
#     4  10  21  40  60  84 119 158 201 245 295 366
#
# _framework density 19.674658999999998
#
# number of rings (size 3 to 8) (size 9 to 14) (size 15 to 20)
#    0.000    1.895    0.000    4.263    0.000    3.789 
#    0.000   18.947    0.000    4.421    0.000    0.000 
#    0.000    0.000    0.000    0.000    0.000    0.000 
#
# Total GULP energy -211672.045241 kJ/mol
# GULP energy per Si atom -5570.316980 kJ/mol
# Density = 1.962988 g / cm^3
# Si number density = 19.674659 Si / 1000 Ang^3
#
#
#
# Elastic Constant Matrix: (Units=GPa)
#
#
# Indices 1 2 3 4 5 6 
#
# 1 58.8806 19.6865 42.0114 5.7015 0.0013 0.0000
# 2 19.6865 58.8806 42.0119 -5.7009 -0.0015 0.0000
# 3 42.0114 42.0119 107.5507 0.0000 -0.0002 0.0000
# 4 5.7015 -5.7009 0.0000 -5.7187 0.0003 -0.0014
# 5 0.0013 -0.0015 -0.0002 0.0003 -5.7168 5.7009
# 6 0.0000 0.0000 0.0000 -0.0014 5.7009 19.5973
#
#
#
# Elastic Compliance Matrix: (Units=1/GPa)
#
#
# Indices 1 2 3 4 5 6 
#
# 1 0.020819 0.001041 -0.008539 0.019718 0.000005 0.000000
# 2 0.001041 0.020819 -0.008539 -0.019717 -0.000006 0.000000
# 3 -0.008539 -0.008539 0.015969 -0.000001 0.000000 0.000000
# 4 0.019718 -0.019717 -0.000001 -0.135550 -0.000005 -0.000008
# 5 0.000005 -0.000006 0.000000 -0.000005 -0.135590 0.039443
# 6 0.000000 0.000000 0.000000 -0.000008 0.039443 0.039554
#
#
# Mechanical properties :
#
#
# Convention : Reuss Voigt Hill
#
# Bulk Modulus (GPa) = 39.16507 48.08130 43.62319
# Shear Modulus (GPa) = -37.48264 9.73916 -13.87174
#
# Velocity S-wave (km/s) = -4.36951 2.22730 -2.65817
# Velocity P-wave (km/s) = 2.34675 5.57725 3.57760
#
# Compressibility (1/GPa) = 0.02553295
#
# Stress axis : x y z
#
# Youngs Moduli (GPa) = 48.03408 48.03256 62.62150
#
# Poissons Ratio (x) = -0.05000 0.53471
# Poissons Ratio (y) = -0.05001 0.53473
# Poissons Ratio (z) = 0.41015 0.41016
#
# Static dielectric constant tensor:
#      x y z
#    x 1.710090 0.000000 0.000000 
#    y 0.000000 1.710090 0.000000 
#    z 0.000000 0.000000 1.738010 
# 
# From -- ./inp_files/5210.got.cif
#   From: 2010.05.17/outbox.cif.g08.bks.cpg/sg155_3_cif.got.tgz:5210.got - 2010.05.20 10:44:35.
