data_PCOD9576689
_publ_section_title
;
Structure prediction by ZEFSAII (Michael W. Deem and Ramdas Pophale) SiO2 
 PCOD9576689
Probable space group: P 32 2 1
;
_chemical_formula_sum "Si O2"
_cell_formula_units_Z 42
_cell_length_a 8.310352
_cell_length_b 8.310352
_cell_length_c 32.060383
_cell_angle_alpha 90.000000
_cell_angle_beta 90.000000
_cell_angle_gamma 120.000000
_cell_volume 1917.512382
_symmetry_space_group_name_H-M "P 32 2 1"
_symmetry_group_IT_number 154
_symmetry_cell_setting 'hexagonal'
loop_
_space_group_symop_operation_xyz
x,y,z
-y,x-y,2/3+z
-x+y,-x,1/3+z
x-y,-y,1/3-z
-x,-x+y,2/3-z
y,x,-z
loop_
_atom_site_type_symbol
_atom_site_label
_atom_site_fract_x
_atom_site_fract_y
_atom_site_fract_z
Si Si1 0.771207 0.046314 0.215268
Si Si2 0.144886 0.410981 0.038211
Si Si3 0.597852 0.349609 0.882889
Si Si4 0.603126 0.821743 0.610533
Si Si5 0.093424 0.958497 0.117526
Si Si6 0.769284 0.299268 0.083920
Si Si7 0.405574 0.415816 0.815066
O O1 0.821777 0.256723 0.219920
O O2 0.928752 0.996373 0.227733
O O3 0.736361 0.000000 0.166667
O O4 0.586020 0.919585 0.240742
O O5 0.255943 0.573246 0.072122
O O6 0.259681 0.301826 0.047248
O O7 0.930545 0.337057 0.050670
O O8 0.159240 0.437122 0.988822
O O9 0.417656 0.338610 0.860240
O O10 0.646123 0.223845 0.852420
O O11 0.728451 0.783616 0.578265
O O12 0.393061 0.738634 0.592883
O O13 0.995106 0.736980 0.117714
O O14 0.141434 0.000000 0.166667
O O15 0.885410 0.397256 0.125920
#
# Coordination Sequence:
#
# PCOD9576689 Si02
#       7
#     6   6   6   6   6   6   6
#     4  11  22  40  63  99 138 172 219 284 350 401
#     4  10  25  46  65 101 134 181 232 280 334 417
#     4  11  23  39  65  96 141 172 225 284 341 412
#     4  11  24  45  73  91 140 182 225 280 350 409
#     4  11  24  40  66 100 130 173 222 283 348 409
#     4  11  24  42  68  97 131 176 222 277 338 406
#     4  11  24  37  64 102 130 172 221 278 345 404
#
# _framework density 21.903376999999999
#
# number of rings (size 3 to 8) (size 9 to 14) (size 15 to 20)
#    0.000    1.143    2.857    2.571   10.000    4.571 
#    0.000    0.000    0.000    0.000    0.000    0.000 
#    0.000    0.000    0.000    0.000    0.000    0.000 
#
# Total GULP energy -234148.854199 kJ/mol
# GULP energy per Si atom -5574.972719 kJ/mol
# Density = 2.185352 g / cm^3
# Si number density = 21.903377 Si / 1000 Ang^3
#
#
#
# Elastic Constant Matrix: (Units=GPa)
#
#
# Indices 1 2 3 4 5 6 
#
# 1 81.4221 15.7520 23.7736 1.5934 0.0000 0.0000
# 2 15.7520 81.4221 23.7736 -1.5934 0.0000 0.0000
# 3 23.7736 23.7736 83.9494 0.0000 0.0000 0.0000
# 4 1.5934 -1.5934 0.0000 20.7465 0.0000 0.0000
# 5 0.0000 0.0000 0.0000 0.0000 20.7465 1.5934
# 6 0.0000 0.0000 0.0000 0.0000 1.5934 32.8351
#
#
#
# Elastic Compliance Matrix: (Units=1/GPa)
#
#
# Indices 1 2 3 4 5 6 
#
# 1 0.013615 -0.001669 -0.003383 -0.001174 0.000000 0.000000
# 2 -0.001669 0.013615 -0.003383 0.001174 0.000000 0.000000
# 3 -0.003383 -0.003383 0.013828 0.000000 0.000000 0.000000
# 4 -0.001174 0.001174 0.000000 0.048381 0.000000 0.000000
# 5 0.000000 0.000000 0.000000 0.000000 0.048381 -0.002348
# 6 0.000000 0.000000 0.000000 0.000000 -0.002348 0.030569
#
#
# Mechanical properties :
#
#
# Convention : Reuss Voigt Hill
#
# Bulk Modulus (GPa) = 41.34251 41.48799 41.41525
# Shear Modulus (GPa) = 25.86340 27.09860 26.48100
#
# Velocity S-wave (km/s) = 3.44000 3.52118 3.48083
# Velocity P-wave (km/s) = 5.89016 5.95937 5.92487
#
# Compressibility (1/GPa) = 0.02418818
#
# Stress axis : x y z
#
# Youngs Moduli (GPa) = 73.44653 73.44653 72.31706
#
# Poissons Ratio (x) = 0.12260 0.24465
# Poissons Ratio (y) = 0.12260 0.24465
# Poissons Ratio (z) = 0.24847 0.24847
#
# Static dielectric constant tensor:
#      x y z
#    x 1.858120 0.000000 0.000000 
#    y 0.000000 1.858120 0.000000 
#    z 0.000000 0.000000 1.826440 
# 
# From -- ./inp_files/3799.got.cif
#   From: 2010.05.17/outbox.cif.g08.bks.cpg/sg154_2_cif.got.tgz:3799.got - 2010.05.20 10:41:43.
