data_PCOD9576843
_publ_section_title
;
Structure prediction by ZEFSAII (Michael W. Deem and Ramdas Pophale) SiO2 
 PCOD9576843
Probable space group: R 3 2
;
_chemical_formula_sum "Si O2"
_cell_formula_units_Z 126
_cell_length_a 17.218689
_cell_length_b 17.218689
_cell_length_c 23.541899
_cell_angle_alpha 90.000000
_cell_angle_beta 90.000000
_cell_angle_gamma 120.000000
_cell_volume 6044.665708
_symmetry_space_group_name_H-M "R 3 2"
_symmetry_group_IT_number 155
_symmetry_cell_setting 'hexagonal'
loop_
_space_group_symop_operation_xyz
x,y,z
-y,x-y,z
-x+y,-x,z
x-y,-y,-z
-x,-x+y,-z
y,x,-z
2/3+x,1/3+y,1/3+z
2/3-y,1/3+x-y,1/3+z
2/3-x+y,1/3-x,1/3+z
2/3+x-y,1/3-y,1/3-z
2/3-x,1/3-x+y,1/3-z
2/3+y,1/3+x,1/3-z
1/3+x,2/3+y,2/3+z
1/3-y,2/3+x-y,2/3+z
1/3-x+y,2/3-x,2/3+z
1/3+x-y,2/3-y,2/3-z
1/3-x,2/3-x+y,2/3-z
1/3+y,2/3+x,2/3-z
loop_
_atom_site_type_symbol
_atom_site_label
_atom_site_fract_x
_atom_site_fract_y
_atom_site_fract_z
Si Si1 0.919396 0.171341 0.822888
Si Si2 0.790384 0.865855 0.461251
Si Si3 0.889852 0.562545 0.941990
Si Si4 0.762910 0.981365 0.259368
Si Si5 0.865039 0.332314 0.396140
Si Si6 0.263364 0.063239 0.373096
Si Si7 0.282975 0.099286 0.244830
O O1 0.858566 0.219239 0.826071
O O2 0.862695 0.091961 0.778358
O O3 0.942445 0.140478 0.882825
O O4 0.016613 0.243398 0.798244
O O5 0.865869 0.865869 0.500000
O O6 0.807086 0.959077 0.437831
O O7 0.786000 0.808746 0.406136
O O8 0.821797 0.599633 0.942368
O O9 0.993888 0.629125 0.926566
O O10 0.885858 0.528490 0.006803
O O11 0.831310 0.079349 0.235634
O O12 0.826170 0.333334 0.333334
O O13 0.921984 0.282577 0.385166
O O14 0.942233 0.430793 0.415365
O O15 0.246253 0.055002 0.306301
#
# Coordination Sequence:
#
# PCOD9576843 Si02
#       7
#    18  18  18  18  18  18  18
#     4  11  19  36  59  86 118 147 203 252 297 353
#     4  11  19  32  55  83 119 163 200 233 284 352
#     4   9  20  36  55  81 127 159 198 236 300 370
#     4   9  20  37  57  87 117 161 192 250 309 361
#     4  10  20  35  59  86 114 150 199 253 293 347
#     4  10  19  34  54  83 117 159 197 239 288 342
#     4  10  19  34  60  86 113 149 201 248 291 350
#
# _framework density 20.844826000000001
#
# number of rings (size 3 to 8) (size 9 to 14) (size 15 to 20)
#    0.000    2.000    2.857    1.286    0.000    1.714 
#    1.714    2.857    0.000    2.571    0.000    0.000 
#    1.429    0.000    4.286    0.000    0.000    0.000 
#
# Total GULP energy -234295.600053 kJ/mol
# GULP energy per Si atom -5578.466668 kJ/mol
# Density = 2.079738 g / cm^3
# Si number density = 20.844826 Si / 1000 Ang^3
#
#
#
# Elastic Constant Matrix: (Units=GPa)
#
#
# Indices 1 2 3 4 5 6 
#
# 1 56.2954 16.5502 27.6979 -0.6828 0.0000 0.0000
# 2 16.5502 56.2954 27.6979 0.6828 0.0000 0.0000
# 3 27.6979 27.6979 107.7597 0.0000 0.0000 0.0000
# 4 -0.6828 0.6828 0.0000 25.9002 0.0000 0.0000
# 5 0.0000 0.0000 0.0000 0.0000 25.9002 -0.6828
# 6 0.0000 0.0000 0.0000 0.0000 -0.6828 19.8726
#
#
#
# Elastic Compliance Matrix: (Units=1/GPa)
#
#
# Indices 1 2 3 4 5 6 
#
# 1 0.021123 -0.004060 -0.004386 0.000664 0.000000 0.000000
# 2 -0.004060 0.021123 -0.004386 -0.000664 0.000000 0.000000
# 3 -0.004386 -0.004386 0.011534 0.000000 0.000000 0.000000
# 4 0.000664 -0.000664 0.000000 0.038645 0.000000 0.000000
# 5 0.000000 0.000000 0.000000 0.000000 0.038645 0.001328
# 6 0.000000 0.000000 0.000000 0.000000 0.001328 0.050366
#
#
# Mechanical properties :
#
#
# Convention : Reuss Voigt Hill
#
# Bulk Modulus (GPa) = 35.56541 40.47138 38.01839
# Shear Modulus (GPa) = 23.09771 24.22823 23.66297
#
# Velocity S-wave (km/s) = 3.33239 3.41297 3.37292
# Velocity P-wave (km/s) = 5.64849 5.91514 5.78335
#
# Compressibility (1/GPa) = 0.02811721
#
# Stress axis : x y z
#
# Youngs Moduli (GPa) = 47.34187 47.34187 86.69670
#
# Poissons Ratio (x) = 0.19221 0.38023
# Poissons Ratio (y) = 0.19221 0.38023
# Poissons Ratio (z) = 0.20763 0.20763
#
# Static dielectric constant tensor:
#      x y z
#    x 1.709730 0.000000 0.000000 
#    y 0.000000 1.709730 0.000000 
#    z 0.000000 0.000000 1.838390 
# 
# From -- ./inp_files/7537.got.cif
#   From: 2010.05.17/outbox.cif.g08.bks.cpg/sg155_4_cif.got.tgz:7537.got - 2010.05.20 10:44:35.
