data_PCOD9576858
_publ_section_title
;
Structure prediction by ZEFSAII (Michael W. Deem and Ramdas Pophale) SiO2 
 PCOD9576858
Probable space group: R 3 2
;
_chemical_formula_sum "Si O2"
_cell_formula_units_Z 108
_cell_length_a 23.299441
_cell_length_b 23.299441
_cell_length_c 12.725800
_cell_angle_alpha 90.000000
_cell_angle_beta 90.000000
_cell_angle_gamma 120.000000
_cell_volume 5982.830905
_symmetry_space_group_name_H-M "R 3 2"
_symmetry_group_IT_number 155
_symmetry_cell_setting 'hexagonal'
loop_
_space_group_symop_operation_xyz
x,y,z
-y,x-y,z
-x+y,-x,z
x-y,-y,-z
-x,-x+y,-z
y,x,-z
2/3+x,1/3+y,1/3+z
2/3-y,1/3+x-y,1/3+z
2/3-x+y,1/3-x,1/3+z
2/3+x-y,1/3-y,1/3-z
2/3-x,1/3-x+y,1/3-z
2/3+y,1/3+x,1/3-z
1/3+x,2/3+y,2/3+z
1/3-y,2/3+x-y,2/3+z
1/3-x+y,2/3-x,2/3+z
1/3+x-y,2/3-y,2/3-z
1/3-x,2/3-x+y,2/3-z
1/3+y,2/3+x,2/3-z
loop_
_atom_site_type_symbol
_atom_site_label
_atom_site_fract_x
_atom_site_fract_y
_atom_site_fract_z
Si Si1 0.411527 0.821260 0.641970
Si Si2 0.262936 0.301997 0.220378
Si Si3 0.590208 0.828809 0.875756
Si Si4 0.525829 0.604094 0.022747
Si Si5 0.821729 0.731080 0.409935
Si Si6 0.473310 0.541336 0.810948
O O1 0.333334 0.787214 0.666667
O O2 0.435216 0.768549 0.666667
O O3 0.441746 0.864794 0.534181
O O4 0.445949 0.876419 0.729995
O O5 0.333334 0.344815 0.166667
O O6 0.269696 0.333334 0.333334
O O7 0.248234 0.226519 0.219316
O O8 0.203691 0.304955 0.163728
O O9 0.666667 0.857269 0.833334
O O10 0.587341 0.797772 0.989892
O O11 0.569030 0.682650 0.034305
O O12 0.490495 0.578768 0.135925
O O13 0.572624 0.572624 0.000000
O O14 0.480117 0.579027 0.919982
O O15 0.775550 0.651817 0.426087
#
# Coordination Sequence:
#
# PCOD9576858 Si02
#       6
#    18  18  18  18  18  18
#     4  12  25  43  64  88 125 173 223 274 318 382
#     4  11  23  35  60  90 127 165 199 256 325 391
#     4  11  22  38  61  90 125 161 208 262 324 392
#     4   9  20  36  56  83 120 157 200 252 308 379
#     4  10  19  36  57  83 119 157 201 250 308 380
#     4  11  21  39  60  88 126 159 209 257 320 381
#
# _framework density 18.051655
#
# number of rings (size 3 to 8) (size 9 to 14) (size 15 to 20)
#    0.000    1.333    3.333    3.667    2.333    0.667 
#    6.000    0.000    0.000    0.000    0.000    0.000 
#    0.000    0.000    0.000    0.000    0.000    0.000 
#
# Total GULP energy -200649.315046 kJ/mol
# GULP energy per Si atom -5573.592085 kJ/mol
# Density = 1.801057 g / cm^3
# Si number density = 18.051655 Si / 1000 Ang^3
#
#
#
# Elastic Constant Matrix: (Units=GPa)
#
#
# Indices 1 2 3 4 5 6 
#
# 1 66.3122 27.2855 39.4327 2.0308 0.0003 0.0000
# 2 27.2855 66.3122 39.4328 -2.0308 -0.0003 0.0000
# 3 39.4327 39.4328 109.1344 0.0000 -0.0001 0.0000
# 4 2.0308 -2.0308 0.0000 29.2107 0.0000 -0.0003
# 5 0.0003 -0.0003 -0.0001 0.0000 29.2107 2.0308
# 6 0.0000 0.0000 0.0000 -0.0003 2.0308 19.5133
#
#
#
# Elastic Compliance Matrix: (Units=1/GPa)
#
#
# Indices 1 2 3 4 5 6 
#
# 1 0.020585 -0.005225 -0.005550 -0.001794 0.000000 0.000000
# 2 -0.005225 0.020585 -0.005550 0.001794 0.000000 0.000000
# 3 -0.005550 -0.005550 0.013174 0.000000 0.000000 0.000000
# 4 -0.001794 0.001794 0.000000 0.034484 0.000000 0.000001
# 5 0.000000 0.000000 0.000000 0.000000 0.034484 -0.003589
# 6 0.000000 0.000000 0.000000 0.000001 -0.003589 0.051621
#
#
# Mechanical properties :
#
#
# Convention : Reuss Voigt Hill
#
# Bulk Modulus (GPa) = 46.09482 50.45121 48.27301
# Shear Modulus (GPa) = 23.27598 24.62747 23.95172
#
# Velocity S-wave (km/s) = 3.59473 3.69762 3.64654
# Velocity P-wave (km/s) = 6.54369 6.79991 6.67303
#
# Compressibility (1/GPa) = 0.02169441
#
# Stress axis : x y z
#
# Youngs Moduli (GPa) = 48.57812 48.57811 75.90834
#
# Poissons Ratio (x) = 0.25381 0.42130
# Poissons Ratio (y) = 0.25381 0.42130
# Poissons Ratio (z) = 0.26961 0.26961
#
# Static dielectric constant tensor:
#      x y z
#    x 1.621410 0.000000 0.000000 
#    y 0.000000 1.621410 0.000000 
#    z 0.000000 0.000000 1.609390 
# 
# From -- ./inp_files/4061.got.cif
#   From: 2010.05.17/outbox.cif.g08.bks.cpg/sg155_3_cif.got.tgz:4061.got - 2010.05.20 10:44:35.
