data_PCOD9576049
_publ_section_title
;
Structure prediction by ZEFSAII (Michael W. Deem and Ramdas Pophale) SiO2 
 PCOD9576049
Probable space group: P 31 2 1
;
_chemical_formula_sum "Si O2"
_cell_formula_units_Z 42
_cell_length_a 9.102273
_cell_length_b 9.102273
_cell_length_c 28.120077
_cell_angle_alpha 90.000000
_cell_angle_beta 90.000000
_cell_angle_gamma 120.000000
_cell_volume 2017.654736
_symmetry_space_group_name_H-M "P 31 2 1"
_symmetry_group_IT_number 152
_symmetry_cell_setting 'hexagonal'
loop_
_space_group_symop_operation_xyz
x,y,z
-y,x-y,1/3+z
-x+y,-x,2/3+z
x-y,-y,2/3-z
-x,-x+y,1/3-z
y,x,-z
loop_
_atom_site_type_symbol
_atom_site_label
_atom_site_fract_x
_atom_site_fract_y
_atom_site_fract_z
Si Si1 0.535609 0.266494 0.313278
Si Si2 0.021212 0.825892 0.001272
Si Si3 0.228714 0.499752 0.271660
Si Si4 0.207119 0.491778 0.865104
Si Si5 0.590786 0.728821 0.751211
Si Si6 0.404229 0.910679 0.783765
Si Si7 0.083587 0.573968 0.772150
O O1 0.354029 0.203652 0.335832
O O2 0.677576 0.356002 0.354390
O O3 0.586276 0.427496 0.278009
O O4 0.530487 0.118057 0.280903
O O5 0.127618 0.810005 0.957381
O O6 0.135063 0.848851 0.046709
O O7 0.971441 0.971441 0.000000
O O8 0.340861 0.568211 0.224498
O O9 0.046709 0.477258 0.258568
O O10 0.163790 0.498763 0.810025
O O11 0.371822 0.476658 0.877835
O O12 0.036889 0.343228 0.888242
O O13 0.510847 0.813554 0.784676
O O14 0.208912 0.775740 0.774665
O O15 0.423235 0.000000 0.833334
#
# Coordination Sequence:
#
# PCOD9576049 Si02
#       7
#     6   6   6   6   6   6   6
#     4  10  22  44  67 100 131 180 232 281 341 420
#     4  11  24  41  67  98 136 171 226 289 341 401
#     4  11  24  43  70  94 137 187 221 285 350 407
#     4  12  25  46  68 100 139 180 230 288 344 424
#     4  10  23  44  66  96 134 177 222 279 347 406
#     4  11  22  43  69  95 135 181 231 275 348 417
#     4  11  26  41  71 101 137 180 236 285 351 418
#
# _framework density 20.816248999999999
#
# number of rings (size 3 to 8) (size 9 to 14) (size 15 to 20)
#    0.000    1.143    4.286    1.714    4.000    0.000 
#    0.000    0.714    0.000    0.000    0.000    0.000 
#    0.000    0.000    0.000    0.000    0.000    0.000 
#
# Total GULP energy -234588.316467 kJ/mol
# GULP energy per Si atom -5585.436106 kJ/mol
# Density = 2.076887 g / cm^3
# Si number density = 20.816249 Si / 1000 Ang^3
#
#
#
# Elastic Constant Matrix: (Units=GPa)
#
#
# Indices 1 2 3 4 5 6 
#
# 1 93.7570 33.1964 14.0521 -8.4705 -0.0001 0.0000
# 2 33.1964 93.7570 14.0521 8.4705 0.0001 0.0000
# 3 14.0521 14.0521 57.2394 0.0000 0.0000 0.0000
# 4 -8.4705 8.4705 0.0000 33.3422 0.0000 0.0001
# 5 -0.0001 0.0001 0.0000 0.0000 33.3422 -8.4705
# 6 0.0000 0.0000 0.0000 0.0001 -8.4705 30.2803
#
#
#
# Elastic Compliance Matrix: (Units=1/GPa)
#
#
# Indices 1 2 3 4 5 6 
#
# 1 0.013053 -0.004723 -0.002045 0.004516 0.000000 0.000000
# 2 -0.004723 0.013053 -0.002045 -0.004516 0.000000 0.000000
# 3 -0.002045 -0.002045 0.018475 0.000000 0.000000 0.000000
# 4 0.004516 -0.004516 0.000000 0.032286 0.000000 0.000000
# 5 0.000000 0.000000 0.000000 0.000000 0.032286 0.009032
# 6 0.000000 0.000000 0.000000 0.000000 0.009032 0.035551
#
#
# Mechanical properties :
#
#
# Convention : Reuss Voigt Hill
#
# Bulk Modulus (GPa) = 37.10003 40.81715 38.95859
# Shear Modulus (GPa) = 29.18612 31.62312 30.40462
#
# Velocity S-wave (km/s) = 3.74850 3.90186 3.82595
# Velocity P-wave (km/s) = 6.04949 6.32062 6.18654
#
# Compressibility (1/GPa) = 0.02695416
#
# Stress axis : x y z
#
# Youngs Moduli (GPa) = 76.61300 76.61300 54.12860
#
# Poissons Ratio (x) = 0.36184 0.11069
# Poissons Ratio (y) = 0.36184 0.11069
# Poissons Ratio (z) = 0.15666 0.15666
#
# Static dielectric constant tensor:
#      x y z
#    x 1.755890 0.000000 0.000000 
#    y 0.000000 1.755890 0.000000 
#    z 0.000000 0.000000 1.764980 
# 
# From -- ./inp_files/3694.got.cif
#   From: 2010.05.17/outbox.cif.g08.bks.cpg/sg152_2_cif.got.tgz:3694.got - 2010.05.20 10:36:06.
