data_PCOD9576658
_publ_section_title
;
Structure prediction by ZEFSAII (Michael W. Deem and Ramdas Pophale) SiO2 
 PCOD9576658
Probable space group: P 32 2 1
;
_chemical_formula_sum "Si O2"
_cell_formula_units_Z 30
_cell_length_a 14.365399
_cell_length_b 14.365399
_cell_length_c 6.898144
_cell_angle_alpha 90.000000
_cell_angle_beta 90.000000
_cell_angle_gamma 120.000000
_cell_volume 1232.816033
_symmetry_space_group_name_H-M "P 32 2 1"
_symmetry_group_IT_number 154
_symmetry_cell_setting 'hexagonal'
loop_
_space_group_symop_operation_xyz
x,y,z
-y,x-y,2/3+z
-x+y,-x,1/3+z
x-y,-y,1/3-z
-x,-x+y,2/3-z
y,x,-z
loop_
_atom_site_type_symbol
_atom_site_label
_atom_site_fract_x
_atom_site_fract_y
_atom_site_fract_z
Si Si1 0.577462 0.000000 0.166667
Si Si2 0.336721 0.183000 0.490002
Si Si3 0.909389 0.000000 0.166667
Si Si4 0.737520 0.401559 0.487318
Si Si5 0.433185 0.194755 0.882620
Si Si6 0.027559 0.423465 0.560614
O O1 0.605200 0.911215 0.240860
O O2 0.528239 0.041409 0.332874
O O3 0.210751 0.117187 0.437294
O O4 0.348205 0.188299 0.727206
O O5 0.398117 0.122774 0.418876
O O6 0.000000 0.046964 0.333334
O O7 0.727962 0.379210 0.715611
O O8 0.801383 0.515684 0.381166
O O9 0.779918 0.320844 0.429342
O O10 0.421482 0.000000 0.666667
O O11 0.397935 0.079462 0.974348
#
# Coordination Sequence:
#
# PCOD9576658 Si02
#       6
#     3   6   3   6   6   6
#     4  11  26  43  70 100 138 195 228 281 346 434
#     4  10  24  45  67 105 143 173 234 303 342 407
#     4  11  24  49  84  94 128 179 240 303 372 406
#     4   8  18  30  54  96 130 179 220 252 319 402
#     4   9  19  36  63  92 137 180 217 272 338 388
#     4  10  23  45  64 100 143 183 226 283 346 411
#
# _framework density 24.334531999999999
#
# number of rings (size 3 to 8) (size 9 to 14) (size 15 to 20)
#    1.200    1.200    0.000    1.800    8.400    0.800 
#    3.600    4.000    0.000    0.000    0.000    0.000 
#    0.000    0.000    0.000    0.000    0.000    0.000 
#
# Total GULP energy -167351.652046 kJ/mol
# GULP energy per Si atom -5578.388402 kJ/mol
# Density = 2.427915 g / cm^3
# Si number density = 24.334532 Si / 1000 Ang^3
#
#
#
# Elastic Constant Matrix: (Units=GPa)
#
#
# Indices 1 2 3 4 5 6 
#
# 1 151.2749 64.1272 42.4911 13.5613 0.0001 0.0000
# 2 64.1272 151.2749 42.4911 -13.5613 -0.0001 0.0000
# 3 42.4911 42.4911 101.2014 0.0000 0.0000 0.0000
# 4 13.5613 -13.5613 0.0000 23.6113 0.0000 -0.0001
# 5 0.0001 -0.0001 0.0000 0.0000 23.6113 13.5613
# 6 0.0000 0.0000 0.0000 -0.0001 13.5613 43.5739
#
#
#
# Elastic Compliance Matrix: (Units=1/GPa)
#
#
# Indices 1 2 3 4 5 6 
#
# 1 0.009768 -0.004204 -0.002336 -0.008025 0.000000 0.000000
# 2 -0.004204 0.009768 -0.002336 0.008025 0.000000 0.000000
# 3 -0.002336 -0.002336 0.011843 0.000000 0.000000 0.000000
# 4 -0.008025 0.008025 0.000000 0.051571 0.000000 0.000000
# 5 0.000000 0.000000 0.000000 0.000000 0.051571 -0.016050
# 6 0.000000 0.000000 0.000000 0.000000 -0.016050 0.027945
#
#
# Mechanical properties :
#
#
# Convention : Reuss Voigt Hill
#
# Bulk Modulus (GPa) = 73.38590 77.99664 75.69127
# Shear Modulus (GPa) = 27.06179 35.13540 31.09859
#
# Velocity S-wave (km/s) = 3.33839 3.80392 3.57874
# Velocity P-wave (km/s) = 6.71434 7.17039 6.94611
#
# Compressibility (1/GPa) = 0.01362660
#
# Stress axis : x y z
#
# Youngs Moduli (GPa) = 102.37200 102.37200 84.43744
#
# Poissons Ratio (x) = 0.43038 0.19726
# Poissons Ratio (y) = 0.43038 0.19726
# Poissons Ratio (z) = 0.23916 0.23916
#
# Static dielectric constant tensor:
#      x y z
#    x 1.990230 0.000000 0.000000 
#    y 0.000000 1.990230 0.000000 
#    z 0.000000 0.000000 2.037020 
# 
# From -- ./inp_files/1061.got.cif
#   From: 2010.05.17/outbox.cif.g08.bks.cpg/sg154_1_cif.got.tgz:1061.got - 2010.05.20 10:41:43.
