data_PCOD9576453
_publ_section_title
;
Structure prediction by ZEFSAII (Michael W. Deem and Ramdas Pophale) SiO2 
 PCOD9576453
Probable space group: P 32 2 1
;
_chemical_formula_sum "Si O2"
_cell_formula_units_Z 30
_cell_length_a 17.704387
_cell_length_b 17.704387
_cell_length_c 5.235146
_cell_angle_alpha 90.000000
_cell_angle_beta 90.000000
_cell_angle_gamma 120.000000
_cell_volume 1421.088805
_symmetry_space_group_name_H-M "P 32 2 1"
_symmetry_group_IT_number 154
_symmetry_cell_setting 'hexagonal'
loop_
_space_group_symop_operation_xyz
x,y,z
-y,x-y,2/3+z
-x+y,-x,1/3+z
x-y,-y,1/3-z
-x,-x+y,2/3-z
y,x,-z
loop_
_atom_site_type_symbol
_atom_site_label
_atom_site_fract_x
_atom_site_fract_y
_atom_site_fract_z
Si Si1 0.186220 0.458583 0.351368
Si Si2 0.353132 0.000000 0.666667
Si Si3 0.755546 0.382397 0.580525
Si Si4 0.557850 0.943637 0.421754
Si Si5 0.164695 0.807304 0.182541
Si Si6 0.248929 0.000000 0.166667
O O1 0.243570 0.559983 0.300618
O O2 0.189278 0.415555 0.615444
O O3 0.088614 0.441893 0.326903
O O4 0.199264 0.404772 0.120462
O O5 0.300499 0.000165 0.418321
O O6 0.682630 0.404620 0.486417
O O7 0.849885 0.468576 0.604465
O O8 0.635491 0.920757 0.465370
O O9 0.561923 0.000000 0.666667
O O10 0.575310 0.000000 0.166667
O O11 0.165903 0.900383 0.173356
#
# Coordination Sequence:
#
# PCOD9576453 Si02
#       6
#     6   3   6   6   6   3
#     4  10  20  36  61  88 121 163 213 276 329 371
#     4   8  16  30  50  86 116 150 192 262 314 370
#     4  12  27  44  68  89 124 174 233 287 326 390
#     4  12  28  46  64  95 136 180 218 272 350 411
#     4  10  19  41  61  91 126 164 213 267 326 394
#     4   8  16  30  62  86 114 152 204 250 310 366
#
# _framework density 21.110572000000001
#
# number of rings (size 3 to 8) (size 9 to 14) (size 15 to 20)
#    0.000    1.600    2.000    2.400    4.200    0.000 
#    7.200    0.000    0.000    0.000    0.000    0.000 
#    3.000    0.000    0.000    0.000    0.000    0.000 
#
# Total GULP energy -167162.898763 kJ/mol
# GULP energy per Si atom -5572.096625 kJ/mol
# Density = 2.106252 g / cm^3
# Si number density = 21.110572 Si / 1000 Ang^3
#
#
#
# Elastic Constant Matrix: (Units=GPa)
#
#
# Indices 1 2 3 4 5 6 
#
# 1 95.1807 29.9887 35.9533 7.7879 0.0000 0.0000
# 2 29.9887 95.1807 35.9533 -7.7879 0.0000 0.0000
# 3 35.9533 35.9533 143.0058 0.0000 0.0000 0.0000
# 4 7.7879 -7.7879 0.0000 21.3738 0.0000 0.0000
# 5 0.0000 0.0000 0.0000 0.0000 21.3738 7.7879
# 6 0.0000 0.0000 0.0000 0.0000 7.7879 32.5960
#
#
#
# Elastic Compliance Matrix: (Units=1/GPa)
#
#
# Indices 1 2 3 4 5 6 
#
# 1 0.013070 -0.003732 -0.002348 -0.006122 0.000000 0.000000
# 2 -0.003732 0.013070 -0.002348 0.006122 0.000000 0.000000
# 3 -0.002348 -0.002348 0.008173 0.000000 0.000000 0.000000
# 4 -0.006122 0.006122 0.000000 0.051248 0.000000 0.000000
# 5 0.000000 0.000000 0.000000 0.000000 0.051248 -0.012244
# 6 0.000000 0.000000 0.000000 0.000000 -0.012244 0.033604
#
#
# Mechanical properties :
#
#
# Convention : Reuss Voigt Hill
#
# Bulk Modulus (GPa) = 57.27941 59.68419 58.48180
# Shear Modulus (GPa) = 25.89513 30.50019 28.19766
#
# Velocity S-wave (km/s) = 3.50615 3.80515 3.65871
# Velocity P-wave (km/s) = 6.60172 6.90211 6.75359
#
# Compressibility (1/GPa) = 0.01745828
#
# Stress axis : x y z
#
# Youngs Moduli (GPa) = 76.51163 76.51163 122.35159
#
# Poissons Ratio (x) = 0.28555 0.28724
# Poissons Ratio (y) = 0.28555 0.28724
# Poissons Ratio (z) = 0.17962 0.17962
#
# Static dielectric constant tensor:
#      x y z
#    x 1.831020 0.000000 0.000000 
#    y 0.000000 1.831020 0.000000 
#    z 0.000000 0.000000 1.795570 
# 
# From -- ./inp_files/382.got.cif
#   From: 2010.05.17/outbox.cif.g08.bks.cpg/sg154_1_cif.got.tgz:382.got - 2010.05.20 10:41:43.
