data_PCOD9576178
_publ_section_title
;
Structure prediction by ZEFSAII (Michael W. Deem and Ramdas Pophale) SiO2 
 PCOD9576178
Probable space group: P 31 2 1
;
_chemical_formula_sum "Si O2"
_cell_formula_units_Z 18
_cell_length_a 10.556530
_cell_length_b 10.556530
_cell_length_c 8.887079
_cell_angle_alpha 90.000000
_cell_angle_beta 90.000000
_cell_angle_gamma 120.000000
_cell_volume 857.693354
_symmetry_space_group_name_H-M "P 31 2 1"
_symmetry_group_IT_number 152
_symmetry_cell_setting 'hexagonal'
loop_
_space_group_symop_operation_xyz
x,y,z
-y,x-y,1/3+z
-x+y,-x,2/3+z
x-y,-y,2/3-z
-x,-x+y,1/3-z
y,x,-z
loop_
_atom_site_type_symbol
_atom_site_label
_atom_site_fract_x
_atom_site_fract_y
_atom_site_fract_z
Si Si1 0.000000 0.473784 0.666667
Si Si2 0.845184 0.843052 0.671538
Si Si3 0.757588 0.165873 0.534767
Si Si4 0.000000 0.708644 0.166667
O O1 0.118011 0.451152 0.762685
O O2 0.110038 0.614494 0.567267
O O3 0.795352 0.795352 0.500000
O O4 0.881311 0.739236 0.772450
O O5 0.000000 0.994512 0.666667
O O6 0.732525 0.875930 0.755344
O O7 0.690079 0.083459 0.692763
#
# Coordination Sequence:
#
# PCOD9576178 Si02
#       4
#     3   6   6   3
#     4  12  28  52  72 110 156 202 256 318 390 472
#     4  12  19  35  69 105 134 175 240 308 366 434
#     4  12  26  47  73 106 152 200 252 314 389 459
#     4  12  20  40  74 106 128 188 254 308 362 444
#
# _framework density 20.986519999999999
#
# number of rings (size 3 to 8) (size 9 to 14) (size 15 to 20)
#    0.000    0.000   10.000    0.000    0.000    2.667 
#    9.000    0.000    0.000    0.000    0.000    0.000 
#    0.000    0.000    0.000    0.000    0.000    0.000 
#
# Total GULP energy -100258.018402 kJ/mol
# GULP energy per Si atom -5569.889911 kJ/mol
# Density = 2.093875 g / cm^3
# Si number density = 20.986520 Si / 1000 Ang^3
#
#
#
# Elastic Constant Matrix: (Units=GPa)
#
#
# Indices 1 2 3 4 5 6 
#
# 1 81.6740 42.5441 35.3720 -6.4726 0.0000 0.0000
# 2 42.5441 81.6740 35.3720 6.4726 0.0000 0.0000
# 3 35.3720 35.3720 135.5920 0.0000 0.0000 0.0000
# 4 -6.4726 6.4726 0.0000 31.0691 0.0000 0.0000
# 5 0.0000 0.0000 0.0000 0.0000 31.0691 -6.4726
# 6 0.0000 0.0000 0.0000 0.0000 -6.4726 19.5649
#
#
#
# Elastic Compliance Matrix: (Units=1/GPa)
#
#
# Indices 1 2 3 4 5 6 
#
# 1 0.018451 -0.008996 -0.002467 0.005718 0.000000 0.000000
# 2 -0.008996 0.018451 -0.002467 -0.005718 0.000000 0.000000
# 3 -0.002467 -0.002467 0.008662 0.000000 0.000000 0.000000
# 4 0.005718 -0.005718 0.000000 0.034569 0.000000 0.000000
# 5 0.000000 0.000000 0.000000 0.000000 0.034569 0.011436
# 6 0.000000 0.000000 0.000000 0.000000 0.011436 0.054895
#
#
# Mechanical properties :
#
#
# Convention : Reuss Voigt Hill
#
# Bulk Modulus (GPa) = 56.47824 58.39068 57.43446
# Shear Modulus (GPa) = 24.58711 28.71742 26.65226
#
# Velocity S-wave (km/s) = 3.42653 3.70317 3.56753
# Velocity P-wave (km/s) = 6.52877 6.79470 6.66306
#
# Compressibility (1/GPa) = 0.01770593
#
# Stress axis : x y z
#
# Youngs Moduli (GPa) = 54.19647 54.19647 115.44721
#
# Poissons Ratio (x) = 0.48757 0.28476
# Poissons Ratio (y) = 0.48757 0.28476
# Poissons Ratio (z) = 0.13368 0.13368
#
# Static dielectric constant tensor:
#      x y z
#    x 1.775390 0.000000 0.000000 
#    y 0.000000 1.775390 0.000000 
#    z 0.000000 0.000000 1.850640 
# 
# From -- ./inp_files/792.got.cif
#   From: 2010.05.17/outbox.cif.g08.bks.cpg/sg152_1_cif.got.tgz:792.got - 2010.05.20 10:36:06.
