data_PCOD9576595
_publ_section_title
;
Structure prediction by ZEFSAII (Michael W. Deem and Ramdas Pophale) SiO2 
 PCOD9576595
Probable space group: P 32 2 1
;
_chemical_formula_sum "Si O2"
_cell_formula_units_Z 24
_cell_length_a 10.666165
_cell_length_b 10.666165
_cell_length_c 12.145144
_cell_angle_alpha 90.000000
_cell_angle_beta 90.000000
_cell_angle_gamma 120.000000
_cell_volume 1196.602472
_symmetry_space_group_name_H-M "P 32 2 1"
_symmetry_group_IT_number 154
_symmetry_cell_setting 'hexagonal'
loop_
_space_group_symop_operation_xyz
x,y,z
-y,x-y,2/3+z
-x+y,-x,1/3+z
x-y,-y,1/3-z
-x,-x+y,2/3-z
y,x,-z
loop_
_atom_site_type_symbol
_atom_site_label
_atom_site_fract_x
_atom_site_fract_y
_atom_site_fract_z
Si Si1 0.848695 0.749453 0.391834
Si Si2 0.553604 0.638892 0.263461
Si Si3 0.735853 0.435514 0.914533
Si Si4 0.397052 0.543418 0.882703
O O1 0.817142 0.817142 0.500000
O O2 0.713421 0.703594 0.310480
O O3 0.853811 0.603931 0.422313
O O4 0.000000 0.857321 0.333334
O O5 0.437851 0.568085 0.362148
O O6 0.531552 0.755872 0.193170
O O7 0.514031 0.512498 0.175895
O O8 0.638693 0.272793 0.870898
O O9 0.647617 0.459304 0.011736
#
# Coordination Sequence:
#
# PCOD9576595 Si02
#       4
#     6   6   6   6
#     4  12  26  47  65  93 139 181 215 270 338 406
#     4  11  23  43  69 100 134 166 233 278 330 396
#     4  10  22  39  70 104 125 175 224 282 331 382
#     4  11  21  42  68  99 134 170 222 284 337 384
#
# _framework density 20.056785000000001
#
# number of rings (size 3 to 8) (size 9 to 14) (size 15 to 20)
#    0.000    1.000    5.000    2.250    3.500    0.000 
#    4.500    0.000    0.000    0.000    0.000    0.000 
#    0.000    0.000    0.000    0.000    0.000    0.000 
#
# Total GULP energy -134048.258079 kJ/mol
# GULP energy per Si atom -5585.344087 kJ/mol
# Density = 2.001114 g / cm^3
# Si number density = 20.056785 Si / 1000 Ang^3
#
#
#
# Elastic Constant Matrix: (Units=GPa)
#
#
# Indices 1 2 3 4 5 6 
#
# 1 87.7257 42.2817 42.5691 5.3761 0.0001 0.0000
# 2 42.2817 87.7257 42.5691 -5.3761 -0.0001 0.0000
# 3 42.5691 42.5691 76.9559 0.0000 0.0000 0.0000
# 4 5.3761 -5.3761 0.0000 38.2084 0.0000 -0.0001
# 5 0.0001 -0.0001 0.0000 0.0000 38.2084 5.3761
# 6 0.0000 0.0000 0.0000 -0.0001 5.3761 22.7220
#
#
#
# Elastic Compliance Matrix: (Units=1/GPa)
#
#
# Indices 1 2 3 4 5 6 
#
# 1 0.017412 -0.005351 -0.006672 -0.003203 0.000000 0.000000
# 2 -0.005351 0.017412 -0.006672 0.003203 0.000000 0.000000
# 3 -0.006672 -0.006672 0.020375 0.000000 0.000000 0.000000
# 4 -0.003203 0.003203 0.000000 0.027074 0.000000 0.000000
# 5 0.000000 0.000000 0.000000 0.000000 0.027074 -0.006406
# 6 0.000000 0.000000 0.000000 0.000000 -0.006406 0.045526
#
#
# Mechanical properties :
#
#
# Convention : Reuss Voigt Hill
#
# Bulk Modulus (GPa) = 56.14594 56.36081 56.25338
# Shear Modulus (GPa) = 25.22732 28.16024 26.69378
#
# Velocity S-wave (km/s) = 3.55039 3.75110 3.65212
# Velocity P-wave (km/s) = 6.69786 6.85001 6.77436
#
# Compressibility (1/GPa) = 0.01781073
#
# Stress axis : x y z
#
# Youngs Moduli (GPa) = 57.43190 57.43190 49.07863
#
# Poissons Ratio (x) = 0.30732 0.32744
# Poissons Ratio (y) = 0.30732 0.32744
# Poissons Ratio (z) = 0.38317 0.38317
#
# Static dielectric constant tensor:
#      x y z
#    x 1.705320 0.000000 0.000000 
#    y 0.000000 1.705320 0.000000 
#    z 0.000000 0.000000 1.731830 
# 
# From -- ./inp_files/1546.got.cif
#   From: 2010.05.17/outbox.cif.g08.bks.cpg/sg154_1_cif.got.tgz:1546.got - 2010.05.20 10:41:43.
