data_PCOD9576357
_publ_section_title
;
Structure prediction by ZEFSAII (Michael W. Deem and Ramdas Pophale) SiO2 
 PCOD9576357
Probable space group: P 32 1 2
;
_chemical_formula_sum "Si O2"
_cell_formula_units_Z 36
_cell_length_a 8.600702
_cell_length_b 8.600702
_cell_length_c 24.726849
_cell_angle_alpha 90.000000
_cell_angle_beta 90.000000
_cell_angle_gamma 120.000000
_cell_volume 1584.043884
_symmetry_space_group_name_H-M "P 32 1 2"
_symmetry_group_IT_number 153
_symmetry_cell_setting 'hexagonal'
loop_
_space_group_symop_operation_xyz
x,y,z
-y,x-y,2/3+z
-x+y,-x,1/3+z
-y,-x,1/3-z
-x+y,y,2/3-z
x,x-y,-z
loop_
_atom_site_type_symbol
_atom_site_label
_atom_site_fract_x
_atom_site_fract_y
_atom_site_fract_z
Si Si1 0.921631 0.248401 0.753503
Si Si2 0.498755 0.022764 0.195195
Si Si3 0.344959 0.888149 0.750800
Si Si4 0.684170 0.424756 0.051447
Si Si5 0.263685 0.525089 0.716469
Si Si6 0.192505 0.884687 0.864067
O O1 0.749479 0.242484 0.727740
O O2 0.865807 0.050857 0.775806
O O3 0.971698 0.384584 0.804790
O O4 0.080702 0.339154 0.709947
O O5 0.350627 0.861591 0.231368
O O6 0.659316 0.976033 0.195935
O O7 0.550367 0.201872 0.228153
O O8 0.411709 0.057429 0.711729
O O9 0.255510 0.924810 0.802115
O O10 0.521850 0.882173 0.772356
O O11 0.226703 0.689050 0.727768
O O12 0.770990 0.385495 0.000000
O O13 0.401287 0.598714 0.666667
#
# Coordination Sequence:
#
# PCOD9576357 Si02
#       6
#     6   6   6   6   6   6
#     4  11  21  38  63  89 114 161 212 249 303 382
#     4  11  21  38  60  88 120 159 202 254 308 370
#     4   9  17  34  57  81 113 153 202 247 287 356
#     4  11  22  37  59  88 122 155 198 255 319 368
#     4  11  22  37  59  88 122 158 203 255 312 367
#     4   9  18  34  58  85 112 150 202 251 289 358
#
# _framework density 22.726641999999998
#
# number of rings (size 3 to 8) (size 9 to 14) (size 15 to 20)
#    0.000    1.667    3.333    2.500    0.000    0.000 
#    0.000    5.000    0.000    2.000    0.000    0.000 
#    0.000    0.000    0.000    0.000    0.000    0.000 
#
# Total GULP energy -201015.643403 kJ/mol
# GULP energy per Si atom -5583.767872 kJ/mol
# Density = 2.267492 g / cm^3
# Si number density = 22.726642 Si / 1000 Ang^3
#
#
#
# Elastic Constant Matrix: (Units=GPa)
#
#
# Indices 1 2 3 4 5 6 
#
# 1 48.3287 44.6508 -1.6046 0.0000 -5.0568 0.0000
# 2 44.6508 48.3287 -1.6046 0.0000 5.0568 0.0000
# 3 -1.6046 -1.6046 57.8822 0.0000 0.0000 0.0000
# 4 0.0000 0.0000 0.0000 22.5832 0.0000 5.0568
# 5 -5.0568 5.0568 0.0000 0.0000 22.5832 0.0000
# 6 0.0000 0.0000 0.0000 5.0568 0.0000 1.8390
#
#
#
# Elastic Compliance Matrix: (Units=1/GPa)
#
#
# Indices 1 2 3 4 5 6 
#
# 1 0.359161 -0.348396 0.000298 0.000001 0.158434 0.000000
# 2 -0.348396 0.359161 0.000298 -0.000001 -0.158434 0.000000
# 3 0.000298 0.000298 0.017293 0.000000 0.000000 0.000000
# 4 0.000001 -0.000001 0.000000 0.115233 0.000000 -0.316868
# 5 0.158434 -0.158434 0.000000 0.000000 0.115233 0.000001
# 6 0.000000 0.000000 0.000000 -0.316868 0.000001 1.415114
#
#
# Mechanical properties :
#
#
# Convention : Reuss Voigt Hill
#
# Bulk Modulus (GPa) = 24.98909 26.38032 25.68471
# Shear Modulus (GPa) = 1.61805 16.94094 9.27950
#
# Velocity S-wave (km/s) = 0.84469 2.73320 2.02286
# Velocity P-wave (km/s) = 3.45987 4.64687 4.09659
#
# Compressibility (1/GPa) = 0.04001746
#
# Stress axis : x y z
#
# Youngs Moduli (GPa) = 2.78426 2.78426 57.82680
#
# Poissons Ratio (x) = 0.97003 -0.01726
# Poissons Ratio (y) = 0.97003 -0.01726
# Poissons Ratio (z) = -0.00083 -0.00083
#
# Static dielectric constant tensor:
#      x y z
#    x 1.888810 0.000000 0.000000 
#    y 0.000000 1.888810 0.000000 
#    z 0.000000 0.000000 1.870180 
# 
# From -- ./inp_files/4703.got.cif
#   From: 2010.05.17/outbox.cif.g08.bks.cpg/sg153_3_cif.got.tgz:4703.got - 2010.05.20 10:38:56.
