data_PCOD9576701
_publ_section_title
;
Structure prediction by ZEFSAII (Michael W. Deem and Ramdas Pophale) SiO2 
 PCOD9576701
Probable space group: P 32 2 1
;
_chemical_formula_sum "Si O2"
_cell_formula_units_Z 42
_cell_length_a 13.851802
_cell_length_b 13.851802
_cell_length_c 12.589576
_cell_angle_alpha 90.000000
_cell_angle_beta 90.000000
_cell_angle_gamma 120.000000
_cell_volume 2091.964381
_symmetry_space_group_name_H-M "P 32 2 1"
_symmetry_group_IT_number 154
_symmetry_cell_setting 'hexagonal'
loop_
_space_group_symop_operation_xyz
x,y,z
-y,x-y,2/3+z
-x+y,-x,1/3+z
x-y,-y,1/3-z
-x,-x+y,2/3-z
y,x,-z
loop_
_atom_site_type_symbol
_atom_site_label
_atom_site_fract_x
_atom_site_fract_y
_atom_site_fract_z
Si Si1 0.397281 0.233103 0.923804
Si Si2 0.961932 0.547299 0.499442
Si Si3 0.508925 0.210458 0.342841
Si Si4 0.344875 0.749044 0.757121
Si Si5 0.746554 0.567571 0.466581
Si Si6 0.905176 0.313764 0.402009
Si Si7 0.074012 0.581448 0.934628
O O1 0.378027 0.334364 0.888545
O O2 0.532301 0.303971 0.936520
O O3 0.372758 0.147275 0.828998
O O4 0.350796 0.167437 0.034955
O O5 0.835704 0.525311 0.490691
O O6 0.958929 0.440370 0.446810
O O7 0.992736 0.546326 0.622235
O O8 0.555400 0.200913 0.458168
O O9 0.618598 0.263539 0.266492
O O10 0.416237 0.130517 0.255114
O O11 0.467457 0.294169 0.381990
O O12 0.303731 0.810027 0.676883
O O13 0.625218 0.493233 0.414242
O O14 0.000000 0.309944 0.333334
O O15 0.000000 0.565652 0.833334
#
# Coordination Sequence:
#
# PCOD9576701 Si02
#       7
#     6   6   6   6   6   6   6
#     4  12  21  35  56  76 110 152 198 254 292 336
#     4  11  22  37  55  82 110 155 205 246 292 362
#     4  11  21  34  51  75 105 153 200 231 288 358
#     4  12  19  31  53  73 104 146 195 231 284 343
#     4  11  20  37  52  74 109 149 194 241 290 355
#     4  12  22  34  51  81 113 147 201 256 286 353
#     4  11  23  34  51  77 115 147 191 246 299 350
#
# _framework density 20.076823999999998
#
# number of rings (size 3 to 8) (size 9 to 14) (size 15 to 20)
#    0.000    0.571    8.571    1.286    4.000    0.000 
#    0.000    0.000    0.000    0.000    0.000    0.000 
#    0.000    2.286    0.000    0.000    0.000    0.857 
#
# Total GULP energy -233825.562277 kJ/mol
# GULP energy per Si atom -5567.275292 kJ/mol
# Density = 2.003113 g / cm^3
# Si number density = 20.076824 Si / 1000 Ang^3
#
#
#
# Elastic Constant Matrix: (Units=GPa)
#
#
# Indices 1 2 3 4 5 6 
#
# 1 40.8589 13.9789 34.5772 -5.0744 0.0002 0.0000
# 2 13.9789 40.8589 34.5772 5.0744 -0.0002 0.0000
# 3 34.5772 34.5772 184.9449 0.0000 0.0000 0.0000
# 4 -5.0744 5.0744 0.0000 28.4378 0.0000 -0.0002
# 5 0.0002 -0.0002 0.0000 0.0000 28.4378 -5.0744
# 6 0.0000 0.0000 0.0000 -0.0002 -5.0744 13.4400
#
#
#
# Elastic Compliance Matrix: (Units=1/GPa)
#
#
# Indices 1 2 3 4 5 6 
#
# 1 0.031876 -0.008014 -0.004461 0.007118 0.000000 0.000000
# 2 -0.008014 0.031876 -0.004461 -0.007118 0.000000 0.000000
# 3 -0.004461 -0.004461 0.007075 0.000000 0.000000 0.000000
# 4 0.007118 -0.007118 0.000000 0.037705 0.000000 0.000000
# 5 0.000000 0.000000 0.000000 0.000000 0.037705 0.014236
# 6 0.000000 0.000000 0.000000 0.000000 0.014236 0.079779
#
#
# Mechanical properties :
#
#
# Convention : Reuss Voigt Hill
#
# Bulk Modulus (GPa) = 27.06110 48.10324 37.58217
# Shear Modulus (GPa) = 18.36846 26.29842 22.33344
#
# Velocity S-wave (km/s) = 3.02803 3.62317 3.33888
# Velocity P-wave (km/s) = 5.07280 6.44319 5.79862
#
# Compressibility (1/GPa) = 0.03695341
#
# Stress axis : x y z
#
# Youngs Moduli (GPa) = 31.37202 31.37202 141.34062
#
# Poissons Ratio (x) = 0.25142 0.63054
# Poissons Ratio (y) = 0.25142 0.63054
# Poissons Ratio (z) = 0.13995 0.13995
#
# Static dielectric constant tensor:
#      x y z
#    x 1.768110 0.000000 0.000000 
#    y 0.000000 1.768110 0.000000 
#    z 0.000000 0.000000 1.869330 
# 
# From -- ./inp_files/1747.got.cif
#   From: 2010.05.17/outbox.cif.g08.bks.cpg/sg154_1_cif.got.tgz:1747.got - 2010.05.20 10:41:43.
