data_PCOD9576895
_publ_section_title
;
Structure prediction by ZEFSAII (Michael W. Deem and Ramdas Pophale) SiO2 
 PCOD9576895
Probable space group: R 3 2
;
_chemical_formula_sum "Si O2"
_cell_formula_units_Z 81
_cell_length_a 15.823666
_cell_length_b 15.823666
_cell_length_c 20.506603
_cell_angle_alpha 90.000000
_cell_angle_beta 90.000000
_cell_angle_gamma 120.000000
_cell_volume 4446.707575
_symmetry_space_group_name_H-M "R 3 2"
_symmetry_group_IT_number 155
_symmetry_cell_setting 'hexagonal'
loop_
_space_group_symop_operation_xyz
x,y,z
-y,x-y,z
-x+y,-x,z
x-y,-y,-z
-x,-x+y,-z
y,x,-z
2/3+x,1/3+y,1/3+z
2/3-y,1/3+x-y,1/3+z
2/3-x+y,1/3-x,1/3+z
2/3+x-y,1/3-y,1/3-z
2/3-x,1/3-x+y,1/3-z
2/3+y,1/3+x,1/3-z
1/3+x,2/3+y,2/3+z
1/3-y,2/3+x-y,2/3+z
1/3-x+y,2/3-x,2/3+z
1/3+x-y,2/3-y,2/3-z
1/3-x,2/3-x+y,2/3-z
1/3+y,2/3+x,2/3-z
loop_
_atom_site_type_symbol
_atom_site_label
_atom_site_fract_x
_atom_site_fract_y
_atom_site_fract_z
Si Si1 0.330360 0.997027 0.333334
Si Si2 0.886523 0.396909 0.251132
Si Si3 0.449024 0.278888 0.092643
Si Si4 0.822656 0.278217 0.571778
Si Si5 0.828279 0.557029 0.250025
O O1 0.427478 0.024236 0.291837
O O2 0.295210 0.914976 0.387661
O O3 0.899599 0.398617 0.172607
O O4 0.865319 0.482867 0.270495
O O5 0.796742 0.287070 0.264112
O O6 0.508236 0.221673 0.082007
O O7 0.517314 0.390307 0.072196
O O8 0.440718 0.277924 0.171177
O O9 0.338561 0.223713 0.065096
#
# Coordination Sequence:
#
# PCOD9576895 Si02
#       5
#     9  18  18  18  18
#     4  12  22  34  52  82 112 146 176 226 286 334
#     4  10  20  35  56  81 116 142 181 226 290 348
#     4   9  17  34  58  77 106 144 194 226 278 330
#     4  10  20  37  56  80 107 149 188 234 275 334
#     4   9  17  33  57  82 107 146 177 232 283 345
#
# _framework density 18.215724000000002
#
# number of rings (size 3 to 8) (size 9 to 14) (size 15 to 20)
#    0.000    2.222    2.222    1.556    0.000    4.444 
#    4.000    0.000    0.000    0.000    0.000    0.000 
#    0.000    0.000    0.000    0.000    0.000    0.000 
#
# Total GULP energy -150525.454665 kJ/mol
# GULP energy per Si atom -5575.016839 kJ/mol
# Density = 1.817426 g / cm^3
# Si number density = 18.215724 Si / 1000 Ang^3
#
#
#
# Elastic Constant Matrix: (Units=GPa)
#
#
# Indices 1 2 3 4 5 6 
#
# 1 139.1966 81.0617 43.2132 4.6909 -0.0001 0.0000
# 2 81.0617 139.1966 43.2132 -4.6909 0.0001 0.0000
# 3 43.2132 43.2132 73.4486 0.0000 0.0000 0.0000
# 4 4.6909 -4.6909 0.0000 25.5416 0.0000 0.0001
# 5 -0.0001 0.0001 0.0000 0.0000 25.5416 4.6909
# 6 0.0000 0.0000 0.0000 0.0001 4.6909 29.0675
#
#
#
# Elastic Compliance Matrix: (Units=1/GPa)
#
#
# Indices 1 2 3 4 5 6 
#
# 1 0.011815 -0.005912 -0.003473 -0.003256 0.000000 0.000000
# 2 -0.005912 0.011815 -0.003473 0.003256 0.000000 0.000000
# 3 -0.003473 -0.003473 0.017702 0.000000 0.000000 0.000000
# 4 -0.003256 0.003256 0.000000 0.040348 0.000000 0.000000
# 5 0.000000 0.000000 0.000000 0.000000 0.040348 -0.006511
# 6 0.000000 0.000000 0.000000 0.000000 -0.006511 0.035454
#
#
# Mechanical properties :
#
#
# Convention : Reuss Voigt Hill
#
# Bulk Modulus (GPa) = 64.03874 76.31311 70.17593
# Shear Modulus (GPa) = 26.53920 28.32041 27.42980
#
# Velocity S-wave (km/s) = 3.82113 3.94728 3.88471
# Velocity P-wave (km/s) = 7.39595 7.92210 7.66354
#
# Compressibility (1/GPa) = 0.01561555
#
# Stress axis : x y z
#
# Youngs Moduli (GPa) = 84.63959 84.63959 56.49233
#
# Poissons Ratio (x) = 0.50039 0.19619
# Poissons Ratio (y) = 0.50039 0.19619
# Poissons Ratio (z) = 0.29395 0.29395
#
# Static dielectric constant tensor:
#      x y z
#    x 1.637120 0.000000 0.000000 
#    y 0.000000 1.637120 0.000000 
#    z 0.000000 0.000000 1.694360 
# 
# From -- ./inp_files/7362.got.cif
#   From: 2010.05.17/outbox.cif.g08.bks.cpg/sg155_4_cif.got.tgz:7362.got - 2010.05.20 10:44:35.
