data_PCOD9576832
_publ_section_title
;
Structure prediction by ZEFSAII (Michael W. Deem and Ramdas Pophale) SiO2 
 PCOD9576832
Probable space group: R 3 2
;
_chemical_formula_sum "Si O2"
_cell_formula_units_Z 72
_cell_length_a 29.305294
_cell_length_b 29.305294
_cell_length_c 5.061926
_cell_angle_alpha 90.000000
_cell_angle_beta 90.000000
_cell_angle_gamma 120.000000
_cell_volume 3764.771213
_symmetry_space_group_name_H-M "R 3 2"
_symmetry_group_IT_number 155
_symmetry_cell_setting 'hexagonal'
loop_
_space_group_symop_operation_xyz
x,y,z
-y,x-y,z
-x+y,-x,z
x-y,-y,-z
-x,-x+y,-z
y,x,-z
2/3+x,1/3+y,1/3+z
2/3-y,1/3+x-y,1/3+z
2/3-x+y,1/3-x,1/3+z
2/3+x-y,1/3-y,1/3-z
2/3-x,1/3-x+y,1/3-z
2/3+y,1/3+x,1/3-z
1/3+x,2/3+y,2/3+z
1/3-y,2/3+x-y,2/3+z
1/3-x+y,2/3-x,2/3+z
1/3+x-y,2/3-y,2/3-z
1/3-x,2/3-x+y,2/3-z
1/3+y,2/3+x,2/3-z
loop_
_atom_site_type_symbol
_atom_site_label
_atom_site_fract_x
_atom_site_fract_y
_atom_site_fract_z
Si Si1 0.296958 0.802120 0.923971
Si Si2 0.390553 0.093771 0.077422
Si Si3 0.481317 0.296535 0.077733
Si Si4 0.763458 0.061090 0.423117
O O1 0.333334 0.820424 0.666667
O O2 0.280112 0.846189 0.986606
O O3 0.244820 0.747056 0.875146
O O4 0.333334 0.804413 0.166667
O O5 0.333334 0.082437 0.166667
O O6 0.411168 0.077835 0.333334
O O7 0.392082 0.058749 0.833334
O O8 0.491120 0.333334 0.333334
O O9 0.513534 0.333334 0.833334
O O10 0.420281 0.268475 0.986540
O O11 0.762654 0.095987 0.666667
O O12 0.725890 0.000000 0.500000
O O13 0.741187 0.074520 0.166667
#
# Coordination Sequence:
#
# PCOD9576832 Si02
#       4
#    18  18  18  18
#     4  10  22  40  61  84 112 149 189 237 299 355
#     4  10  19  32  52  79 113 151 188 224 265 318
#     4  11  23  40  62  87 115 152 195 243 300 356
#     4  11  21  34  54  82 119 160 197 232 273 327
#
# _framework density 19.124669000000001
#
# number of rings (size 3 to 8) (size 9 to 14) (size 15 to 20)
#    0.000    1.500    0.000    7.500    0.000    1.000 
#    0.000    5.000    0.000   10.000    0.000    0.000 
#    0.000    0.000    0.000    0.000    0.000    0.000 
#
# Total GULP energy -134034.589906 kJ/mol
# GULP energy per Si atom -5584.774579 kJ/mol
# Density = 1.908114 g / cm^3
# Si number density = 19.124669 Si / 1000 Ang^3
#
#
#
# Elastic Constant Matrix: (Units=GPa)
#
#
# Indices 1 2 3 4 5 6 
#
# 1 82.2526 59.1360 33.1721 11.2967 -6.9780 -0.0552
# 2 59.1360 84.5659 36.2524 -16.3148 10.7941 0.5486
# 3 33.1721 36.2524 137.5222 -6.3986 7.6861 0.9325
# 4 11.2967 -16.3148 -6.3986 177.6529 -81.5963 -3.4315
# 5 -6.9780 10.7941 7.6861 -81.5963 23.7050 -5.8504
# 6 -0.0552 0.5486 0.9325 -3.4315 -5.8504 9.3668
#
#
#
# Elastic Compliance Matrix: (Units=1/GPa)
#
#
# Indices 1 2 3 4 5 6 
#
# 1 0.026017 -0.017974 -0.001468 -0.006097 -0.005774 -0.004488
# 2 -0.017974 0.025927 -0.002551 0.005995 0.005404 0.004201
# 3 -0.001468 -0.002551 0.008233 0.001058 0.001926 0.000911
# 4 -0.006097 0.005995 0.001058 -0.003911 -0.022231 -0.015810
# 5 -0.005774 0.005404 0.001926 -0.022231 -0.048785 -0.039157
# 6 -0.004488 0.004201 0.000911 -0.015810 -0.039157 0.076148
#
#
# Mechanical properties :
#
#
# Convention : Reuss Voigt Hill
#
# Bulk Modulus (GPa) = 61.75876 62.38463 62.07169
# Shear Modulus (GPa) = 37.59078 53.86361 45.72720
#
# Velocity S-wave (km/s) = 4.43828 5.31278 4.89510
# Velocity P-wave (km/s) = 7.65684 8.38600 8.02970
#
# Compressibility (1/GPa) = 0.01619203
#
# Stress axis : x y z
#
# Youngs Moduli (GPa) = 38.43711 38.56972 121.45597
#
# Poissons Ratio (x) = 0.69325 0.17829
# Poissons Ratio (y) = 0.69086 0.30980
# Poissons Ratio (z) = 0.05642 0.09838
#
# Static dielectric constant tensor:
#      x y z
#    x 1.553470 -0.051790 0.003650 
#    y -0.051790 1.691790 0.004600 
#    z 0.003650 0.004600 1.662760 
# 
# From -- ./inp_files/923.got.cif
#   From: 2010.05.17/outbox.cif.g08.bks.cpg/sg155_1_cif.got.tgz:923.got - 2010.05.20 10:44:35.
