data_PCOD9576164
_publ_section_title
;
Structure prediction by ZEFSAII (Michael W. Deem and Ramdas Pophale) SiO2 
 PCOD9576164
Probable space group: P 31 2 1
;
_chemical_formula_sum "Si O2"
_cell_formula_units_Z 24
_cell_length_a 13.618071
_cell_length_b 13.618071
_cell_length_c 6.214970
_cell_angle_alpha 90.000000
_cell_angle_beta 90.000000
_cell_angle_gamma 120.000000
_cell_volume 998.161596
_symmetry_space_group_name_H-M "P 31 2 1"
_symmetry_group_IT_number 152
_symmetry_cell_setting 'hexagonal'
loop_
_space_group_symop_operation_xyz
x,y,z
-y,x-y,1/3+z
-x+y,-x,2/3+z
x-y,-y,2/3-z
-x,-x+y,1/3-z
y,x,-z
loop_
_atom_site_type_symbol
_atom_site_label
_atom_site_fract_x
_atom_site_fract_y
_atom_site_fract_z
Si Si1 0.000000 0.581903 0.166667
Si Si2 0.429430 0.762255 0.403570
Si Si3 0.544623 0.613764 0.808225
Si Si4 0.848038 0.650826 0.368979
Si Si5 0.000000 0.895005 0.166667
O O1 0.893178 0.600761 0.179960
O O2 0.002016 0.509795 0.365674
O O3 0.360059 0.745871 0.625318
O O4 0.386621 0.823558 0.241637
O O5 0.566816 0.836786 0.433150
O O6 0.612277 0.717740 0.654092
O O7 0.626100 0.626100 0.000000
O O8 0.924776 0.785375 0.324318
O O9 0.071352 0.000000 0.333334
#
# Coordination Sequence:
#
# PCOD9576164 Si02
#       5
#     3   6   6   6   3
#     4  11  24  47  64 106 150 181 244 295 366 462
#     4  12  23  43  72 114 158 192 231 299 390 480
#     4  12  24  41  70 108 150 196 241 293 381 461
#     4  11  24  46  74 105 148 190 243 319 367 456
#     4  11  28  59  76 102 142 201 282 339 370 424
#
# _framework density 24.044201999999999
#
# number of rings (size 3 to 8) (size 9 to 14) (size 15 to 20)
#    0.000    0.500    5.000    3.750    0.000    1.000 
#   13.500    0.000    0.000    0.000    0.000    0.000 
#    0.000    0.000    0.000    0.000    0.000    0.000 
#
# Total GULP energy -133833.650822 kJ/mol
# GULP energy per Si atom -5576.402118 kJ/mol
# Density = 2.398948 g / cm^3
# Si number density = 24.044202 Si / 1000 Ang^3
#
#
#
# Elastic Constant Matrix: (Units=GPa)
#
#
# Indices 1 2 3 4 5 6 
#
# 1 134.5338 60.4490 22.3512 1.3697 0.0000 0.0000
# 2 60.4490 134.5338 22.3512 -1.3697 0.0000 0.0000
# 3 22.3512 22.3512 43.2382 0.0000 0.0000 0.0000
# 4 1.3697 -1.3697 0.0000 32.5531 0.0000 0.0000
# 5 0.0000 0.0000 0.0000 0.0000 32.5531 1.3697
# 6 0.0000 0.0000 0.0000 0.0000 1.3697 37.0424
#
#
#
# Elastic Compliance Matrix: (Units=1/GPa)
#
#
# Indices 1 2 3 4 5 6 
#
# 1 0.009669 -0.003850 -0.003008 -0.000569 0.000000 0.000000
# 2 -0.003850 0.009669 -0.003008 0.000569 0.000000 0.000000
# 3 -0.003008 -0.003008 0.026237 0.000000 0.000000 0.000000
# 4 -0.000569 0.000569 0.000000 0.030767 0.000000 0.000000
# 5 0.000000 0.000000 0.000000 0.000000 0.030767 -0.001138
# 6 0.000000 0.000000 0.000000 0.000000 -0.001138 0.027038
#
#
# Mechanical properties :
#
#
# Convention : Reuss Voigt Hill
#
# Bulk Modulus (GPa) = 38.69502 58.06761 48.38131
# Shear Modulus (GPa) = 30.77075 34.24003 32.50539
#
# Velocity S-wave (km/s) = 3.58125 3.77775 3.68081
# Velocity P-wave (km/s) = 5.76443 6.57505 6.18304
#
# Compressibility (1/GPa) = 0.02584312
#
# Stress axis : x y z
#
# Youngs Moduli (GPa) = 103.42725 103.42725 38.11389
#
# Poissons Ratio (x) = 0.39824 0.11463
# Poissons Ratio (y) = 0.39824 0.11463
# Poissons Ratio (z) = 0.31107 0.31107
#
# Static dielectric constant tensor:
#      x y z
#    x 1.926360 0.000000 0.000000 
#    y 0.000000 1.926360 0.000000 
#    z 0.000000 0.000000 2.014210 
# 
# From -- ./inp_files/239.got.cif
#   From: 2010.05.17/outbox.cif.g08.bks.cpg/sg152_1_cif.got.tgz:239.got - 2010.05.20 10:36:06.
