data_PCOD9576317
_publ_section_title
;
Structure prediction by ZEFSAII (Michael W. Deem and Ramdas Pophale) SiO2 
 PCOD9576317
Probable space group: P 32 1 2
;
_chemical_formula_sum "Si O2"
_cell_formula_units_Z 39
_cell_length_a 9.303087
_cell_length_b 9.303087
_cell_length_c 26.502718
_cell_angle_alpha 90.000000
_cell_angle_beta 90.000000
_cell_angle_gamma 120.000000
_cell_volume 1986.438903
_symmetry_space_group_name_H-M "P 32 1 2"
_symmetry_group_IT_number 153
_symmetry_cell_setting 'hexagonal'
loop_
_space_group_symop_operation_xyz
x,y,z
-y,x-y,2/3+z
-x+y,-x,1/3+z
-y,-x,1/3-z
-x+y,y,2/3-z
x,x-y,-z
loop_
_atom_site_type_symbol
_atom_site_label
_atom_site_fract_x
_atom_site_fract_y
_atom_site_fract_z
Si Si1 0.635610 0.712533 0.773848
Si Si2 0.423782 0.362967 0.824316
Si Si3 0.630111 0.868994 0.877842
Si Si4 0.364501 0.661671 0.387387
Si Si5 0.706928 0.869074 0.576863
Si Si6 0.065352 0.051422 0.391808
Si Si7 0.874212 0.437106 0.500000
O O1 0.571284 0.537023 0.803139
O O2 0.658846 0.836234 0.819948
O O3 0.481174 0.684477 0.739424
O O4 0.803962 0.786565 0.741360
O O5 0.304788 0.363851 0.867884
O O6 0.291398 0.289261 0.778380
O O7 0.491299 0.246819 0.844916
O O8 0.479845 0.707959 0.903577
O O9 0.793679 0.914037 0.908992
O O10 0.572846 0.006557 0.875713
O O11 0.292714 0.585428 0.333334
O O12 0.563313 0.759778 0.381877
O O13 0.891121 0.000533 0.592661
O O14 0.040614 0.081228 0.333334
#
# Coordination Sequence:
#
# PCOD9576317 Si02
#       7
#     6   6   6   6   6   6   3
#     4  11  23  42  68  94 124 172 223 266 329 405
#     4  10  22  38  64  94 121 161 214 276 314 381
#     4  12  23  42  63  96 128 168 226 275 321 398
#     4  11  22  40  65  92 133 174 210 269 337 396
#     4  10  21  41  61  91 128 163 217 266 321 388
#     4  12  26  42  64  97 134 173 218 277 341 392
#     4  12  22  38  62  94 120 158 218 272 322 366
#
# _framework density 19.633122
#
# number of rings (size 3 to 8) (size 9 to 14) (size 15 to 20)
#    0.000    0.923    4.615    2.769    4.308    0.000 
#    0.000    0.000    0.000    1.846    0.000    0.000 
#    0.000    0.000    0.000    0.000    0.000    0.000 
#
# Total GULP energy -217425.557616 kJ/mol
# GULP energy per Si atom -5575.014298 kJ/mol
# Density = 1.958844 g / cm^3
# Si number density = 19.633122 Si / 1000 Ang^3
#
#
#
# Elastic Constant Matrix: (Units=GPa)
#
#
# Indices 1 2 3 4 5 6 
#
# 1 70.8953 64.9737 9.2823 -0.0027 6.3193 0.0000
# 2 64.9737 70.8953 9.2823 0.0027 -6.3193 0.0000
# 3 9.2823 9.2823 52.8055 0.0000 0.0000 0.0000
# 4 -0.0027 0.0027 0.0000 18.8731 0.0000 -6.3193
# 5 6.3193 -6.3193 0.0000 0.0000 18.8731 -0.0027
# 6 0.0000 0.0000 0.0000 -6.3193 -0.0027 2.9608
#
#
#
# Elastic Compliance Matrix: (Units=1/GPa)
#
#
# Indices 1 2 3 4 5 6 
#
# 1 0.299659 -0.292118 -0.001326 0.000084 -0.198146 0.000000
# 2 -0.292118 0.299659 -0.001326 -0.000084 0.198146 0.000000
# 3 -0.001326 -0.001326 0.019403 0.000000 0.000000 0.000000
# 4 0.000084 -0.000084 0.000000 0.185676 0.000000 0.396291
# 5 -0.198146 0.198146 0.000000 0.000000 0.185676 0.000168
# 6 0.000000 0.000000 0.000000 0.396291 0.000168 1.183554
#
#
# Mechanical properties :
#
#
# Convention : Reuss Voigt Hill
#
# Bulk Modulus (GPa) = 34.26611 40.18584 37.22598
# Shear Modulus (GPa) = 1.80317 15.54526 8.67422
#
# Velocity S-wave (km/s) = 0.95939 2.81692 2.10422
# Velocity P-wave (km/s) = 4.32647 5.57610 4.99055
#
# Compressibility (1/GPa) = 0.02918335
#
# Stress axis : x y z
#
# Youngs Moduli (GPa) = 3.33712 3.33712 51.53724
#
# Poissons Ratio (x) = 0.97483 0.06832
# Poissons Ratio (y) = 0.97483 0.06832
# Poissons Ratio (z) = 0.00442 0.00442
#
# Static dielectric constant tensor:
#      x y z
#    x 1.706010 0.000000 0.000000 
#    y 0.000000 1.706010 0.000000 
#    z 0.000000 0.000000 1.726650 
# 
# From -- ./inp_files/5074.got.cif
#   From: 2010.05.17/outbox.cif.g08.bks.cpg/sg153_3_cif.got.tgz:5074.got - 2010.05.20 10:38:56.
