data_PCOD9576271
_publ_section_title
;
Structure prediction by ZEFSAII (Michael W. Deem and Ramdas Pophale) SiO2 
 PCOD9576271
Probable space group: P 32 1 2
;
_chemical_formula_sum "Si O2"
_cell_formula_units_Z 33
_cell_length_a 8.756503
_cell_length_b 8.756503
_cell_length_c 24.236002
_cell_angle_alpha 90.000000
_cell_angle_beta 90.000000
_cell_angle_gamma 120.000000
_cell_volume 1609.359296
_symmetry_space_group_name_H-M "P 32 1 2"
_symmetry_group_IT_number 153
_symmetry_cell_setting 'hexagonal'
loop_
_space_group_symop_operation_xyz
x,y,z
-y,x-y,2/3+z
-x+y,-x,1/3+z
-y,-x,1/3-z
-x+y,y,2/3-z
x,x-y,-z
loop_
_atom_site_type_symbol
_atom_site_label
_atom_site_fract_x
_atom_site_fract_y
_atom_site_fract_z
Si Si1 0.005928 0.372192 0.438900
Si Si2 0.823942 0.647411 0.922744
Si Si3 0.311432 0.028597 0.165702
Si Si4 0.588300 0.906758 0.174341
Si Si5 0.128678 0.871323 0.666667
Si Si6 0.511084 0.254698 0.063034
O O1 0.841996 0.187142 0.460347
O O2 0.905929 0.476158 0.422102
O O3 0.155196 0.428210 0.485900
O O4 0.101052 0.362037 0.383126
O O5 0.708958 0.665027 0.873439
O O6 0.702575 0.439305 0.937322
O O7 0.014123 0.706358 0.897691
O O8 0.840748 0.778502 0.971363
O O9 0.383268 0.103399 0.104922
O O10 0.416165 0.926118 0.180962
O O11 0.105990 0.894011 0.166667
O O12 0.450028 0.225014 0.000000
#
# Coordination Sequence:
#
# PCOD9576271 Si02
#       6
#     6   6   6   6   3   6
#     4  11  22  39  70  98 130 180 223 273 337 412
#     4   9  17  35  60  99 128 171 219 273 326 402
#     4  11  25  42  62  97 136 174 223 280 334 403
#     4   9  20  37  64  91 132 171 221 269 330 399
#     4  10  20  32  62 104 134 166 222 272 342 392
#     4  11  21  42  71  97 128 175 231 275 336 409
#
# _framework density 20.505054999999999
#
# number of rings (size 3 to 8) (size 9 to 14) (size 15 to 20)
#    0.000    1.818    3.636    0.545    5.091    1.455 
#    1.636    0.000    0.000    2.182    0.000    0.000 
#    0.000    0.000    0.000    0.000    0.000    0.000 
#
# Total GULP energy -183967.133117 kJ/mol
# GULP energy per Si atom -5574.761610 kJ/mol
# Density = 2.045838 g / cm^3
# Si number density = 20.505055 Si / 1000 Ang^3
#
#
#
# Elastic Constant Matrix: (Units=GPa)
#
#
# Indices 1 2 3 4 5 6 
#
# 1 89.6577 36.9734 41.0556 0.0001 7.8715 0.0000
# 2 36.9734 89.6577 41.0556 -0.0001 -7.8715 0.0000
# 3 41.0556 41.0556 72.7948 0.0000 0.0000 0.0000
# 4 0.0001 -0.0001 0.0000 15.2748 0.0000 -7.8715
# 5 7.8715 -7.8715 0.0000 0.0000 15.2748 0.0001
# 6 0.0000 0.0000 0.0000 -7.8715 0.0001 26.3421
#
#
#
# Elastic Compliance Matrix: (Units=1/GPa)
#
#
# Indices 1 2 3 4 5 6 
#
# 1 0.017443 -0.004993 -0.007022 0.000000 -0.011562 0.000000
# 2 -0.004993 0.017443 -0.007022 0.000000 0.011562 0.000000
# 3 -0.007022 -0.007022 0.021658 0.000000 0.000000 0.000000
# 4 0.000000 0.000000 0.000000 0.077384 0.000000 0.023124
# 5 -0.011562 0.011562 0.000000 0.000000 0.077384 0.000000
# 6 0.000000 0.000000 0.000000 0.023124 0.000000 0.044872
#
#
# Mechanical properties :
#
#
# Convention : Reuss Voigt Hill
#
# Bulk Modulus (GPa) = 54.13940 54.47551 54.30746
# Shear Modulus (GPa) = 16.64379 20.24670 18.44525
#
# Velocity S-wave (km/s) = 2.85211 3.14570 3.00250
# Velocity P-wave (km/s) = 6.10789 6.31019 6.20986
#
# Compressibility (1/GPa) = 0.01847084
#
# Stress axis : x y z
#
# Youngs Moduli (GPa) = 57.32972 57.32972 46.17311
#
# Poissons Ratio (x) = 0.28624 0.32421
# Poissons Ratio (y) = 0.28624 0.32421
# Poissons Ratio (z) = 0.40255 0.40255
#
# Static dielectric constant tensor:
#      x y z
#    x 1.747610 0.000000 0.000000 
#    y 0.000000 1.747610 0.000000 
#    z 0.000000 0.000000 1.738630 
# 
# From -- ./inp_files/4719.got.cif
#   From: 2010.05.17/outbox.cif.g08.bks.cpg/sg153_3_cif.got.tgz:4719.got - 2010.05.20 10:38:56.
