data_PCOD9576505
_publ_section_title
;
Structure prediction by ZEFSAII (Michael W. Deem and Ramdas Pophale) SiO2 
 PCOD9576505
Probable space group: P 32 2 1
;
_chemical_formula_sum "Si O2"
_cell_formula_units_Z 33
_cell_length_a 11.485401
_cell_length_b 11.485401
_cell_length_c 14.073063
_cell_angle_alpha 90.000000
_cell_angle_beta 90.000000
_cell_angle_gamma 120.000000
_cell_volume 1607.724348
_symmetry_space_group_name_H-M "P 32 2 1"
_symmetry_group_IT_number 154
_symmetry_cell_setting 'hexagonal'
loop_
_space_group_symop_operation_xyz
x,y,z
-y,x-y,2/3+z
-x+y,-x,1/3+z
x-y,-y,1/3-z
-x,-x+y,2/3-z
y,x,-z
loop_
_atom_site_type_symbol
_atom_site_label
_atom_site_fract_x
_atom_site_fract_y
_atom_site_fract_z
Si Si1 0.840761 0.767129 0.101066
Si Si2 0.000000 0.810327 0.833334
Si Si3 0.010736 0.408242 0.539809
Si Si4 0.557759 0.839751 0.270086
Si Si5 0.297779 0.373750 0.806726
Si Si6 0.895101 0.316621 0.749392
O O1 0.702976 0.631775 0.126400
O O2 0.969275 0.751793 0.120628
O O3 0.834882 0.875324 0.170394
O O4 0.824294 0.824294 0.000000
O O5 0.972413 0.702953 0.750122
O O6 0.997804 0.539006 0.524762
O O7 0.952695 0.340345 0.642783
O O8 0.165955 0.447305 0.544113
O O9 0.561359 0.823026 0.383048
O O10 0.433935 0.857736 0.240541
O O11 0.228379 0.396535 0.898084
O O12 0.000000 0.339424 0.833334
#
# Coordination Sequence:
#
# PCOD9576505 Si02
#       6
#     6   3   6   6   6   6
#     4  11  24  44  67  93 134 169 220 275 330 396
#     4  10  20  38  66  98 118 168 216 270 316 382
#     4  10  25  42  64  98 129 172 224 264 337 398
#     4  10  20  40  66  91 126 167 223 262 321 401
#     4  11  24  42  65  96 133 173 218 272 341 395
#     4  11  22  40  66  94 129 172 216 276 326 394
#
# _framework density 20.525905999999999
#
# number of rings (size 3 to 8) (size 9 to 14) (size 15 to 20)
#    0.000    1.455    4.545    0.000    3.818    0.727 
#    3.273    0.000    0.000    0.000    0.000    0.000 
#    0.000    0.000    0.000    0.000    0.000    0.000 
#
# Total GULP energy -183899.707884 kJ/mol
# GULP energy per Si atom -5572.718421 kJ/mol
# Density = 2.047919 g / cm^3
# Si number density = 20.525906 Si / 1000 Ang^3
#
#
#
# Elastic Constant Matrix: (Units=GPa)
#
#
# Indices 1 2 3 4 5 6 
#
# 1 93.3770 41.9159 1.9749 2.1377 0.0000 0.0000
# 2 41.9159 93.3770 1.9749 -2.1377 0.0000 0.0000
# 3 1.9749 1.9749 13.1851 0.0000 0.0000 0.0000
# 4 2.1377 -2.1377 0.0000 22.5991 0.0000 0.0000
# 5 0.0000 0.0000 0.0000 0.0000 22.5991 2.1377
# 6 0.0000 0.0000 0.0000 0.0000 2.1377 25.7306
#
#
#
# Elastic Compliance Matrix: (Units=1/GPa)
#
#
# Indices 1 2 3 4 5 6 
#
# 1 0.013505 -0.006081 -0.001112 -0.001853 0.000000 0.000000
# 2 -0.006081 0.013505 -0.001112 0.001853 0.000000 0.000000
# 3 -0.001112 -0.001112 0.076176 0.000000 0.000000 0.000000
# 4 -0.001853 0.001853 0.000000 0.044600 0.000000 0.000000
# 5 0.000000 0.000000 0.000000 0.000000 0.044600 -0.003705
# 6 0.000000 0.000000 0.000000 0.000000 -0.003705 0.039172
#
#
# Mechanical properties :
#
#
# Convention : Reuss Voigt Hill
#
# Bulk Modulus (GPa) = 11.55053 32.40781 21.97917
# Shear Modulus (GPa) = 18.04876 24.45730 21.25303
#
# Velocity S-wave (km/s) = 2.96854 3.45560 3.22129
# Velocity P-wave (km/s) = 4.17003 5.63424 4.95650
#
# Compressibility (1/GPa) = 0.08657613
#
# Stress axis : x y z
#
# Youngs Moduli (GPa) = 74.04689 74.04689 13.12745
#
# Poissons Ratio (x) = 0.45029 0.01460
# Poissons Ratio (y) = 0.45029 0.01460
# Poissons Ratio (z) = 0.08234 0.08234
#
# Static dielectric constant tensor:
#      x y z
#    x 1.763060 0.000000 0.000000 
#    y 0.000000 1.763060 0.000000 
#    z 0.000000 0.000000 1.807890 
# 
# From -- ./inp_files/1986.got.cif
#   From: 2010.05.17/outbox.cif.g08.bks.cpg/sg154_1_cif.got.tgz:1986.got - 2010.05.20 10:41:43.
