data_PCOD9576608
_publ_section_title
;
Structure prediction by ZEFSAII (Michael W. Deem and Ramdas Pophale) SiO2 
 PCOD9576608
Probable space group: P 32 2 1
;
_chemical_formula_sum "Si O2"
_cell_formula_units_Z 36
_cell_length_a 12.204796
_cell_length_b 12.204796
_cell_length_c 12.887219
_cell_angle_alpha 90.000000
_cell_angle_beta 90.000000
_cell_angle_gamma 120.000000
_cell_volume 1662.458795
_symmetry_space_group_name_H-M "P 32 2 1"
_symmetry_group_IT_number 154
_symmetry_cell_setting 'hexagonal'
loop_
_space_group_symop_operation_xyz
x,y,z
-y,x-y,2/3+z
-x+y,-x,1/3+z
x-y,-y,1/3-z
-x,-x+y,2/3-z
y,x,-z
loop_
_atom_site_type_symbol
_atom_site_label
_atom_site_fract_x
_atom_site_fract_y
_atom_site_fract_z
Si Si1 0.239167 0.783849 0.295227
Si Si2 0.055372 0.431295 0.669685
Si Si3 0.703763 0.263204 0.325162
Si Si4 0.845741 0.669700 0.148017
Si Si5 0.951744 0.361900 0.225027
Si Si6 0.730449 0.869517 0.449151
O O1 0.272565 0.674365 0.313231
O O2 0.168534 0.799698 0.396996
O O3 0.158549 0.774621 0.195038
O O4 0.366042 0.919026 0.278015
O O5 0.166346 0.563309 0.708623
O O6 0.025284 0.453142 0.551783
O O7 0.106579 0.332224 0.685155
O O8 0.741964 0.204983 0.421371
O O9 0.802914 0.279193 0.236878
O O10 0.740530 0.708051 0.119381
O O11 0.980196 0.777641 0.106688
O O12 0.000000 0.439658 0.333334
O O13 0.822149 0.822149 0.500000
#
# Coordination Sequence:
#
# PCOD9576608 Si02
#       6
#     6   6   6   6   6   6
#     4  10  23  41  64  95 127 180 226 272 334 415
#     4  10  23  40  64  96 134 171 223 274 345 398
#     4  11  23  38  64  95 134 170 216 284 339 407
#     4  10  22  41  67  93 127 178 230 273 329 413
#     4   9  21  43  62  95 129 171 225 262 331 407
#     4  10  23  43  66  96 129 173 228 283 337 402
#
# _framework density 21.654672999999999
#
# number of rings (size 3 to 8) (size 9 to 14) (size 15 to 20)
#    0.000    2.000    0.000    1.500    7.000    6.667 
#    0.000   18.333    0.000    0.000    0.000    0.000 
#    0.000    0.000    0.000    0.000    0.000    0.000 
#
# Total GULP energy -200757.209047 kJ/mol
# GULP energy per Si atom -5576.589140 kJ/mol
# Density = 2.160539 g / cm^3
# Si number density = 21.654673 Si / 1000 Ang^3
#
#
#
# Elastic Constant Matrix: (Units=GPa)
#
#
# Indices 1 2 3 4 5 6 
#
# 1 135.8226 72.3286 -0.3603 -6.2264 -0.0001 0.0000
# 2 72.3286 135.8226 -0.3603 6.2264 0.0001 0.0000
# 3 -0.3603 -0.3603 44.7800 0.0000 0.0000 0.0000
# 4 -6.2264 6.2264 0.0000 12.5714 0.0000 0.0001
# 5 -0.0001 0.0001 0.0000 0.0000 12.5714 -6.2264
# 6 0.0000 0.0000 0.0000 0.0001 -6.2264 31.7470
#
#
#
# Elastic Compliance Matrix: (Units=1/GPa)
#
#
# Indices 1 2 3 4 5 6 
#
# 1 0.011124 -0.006320 0.000039 0.008640 0.000000 0.000000
# 2 -0.006320 0.011124 0.000039 -0.008640 0.000000 0.000000
# 3 0.000039 0.000039 0.022332 0.000000 0.000000 0.000000
# 4 0.008640 -0.008640 0.000000 0.088104 0.000000 0.000000
# 5 0.000000 0.000000 0.000000 0.000000 0.088104 0.017279
# 6 0.000000 0.000000 0.000000 0.000000 0.017279 0.034888
#
#
# Mechanical properties :
#
#
# Convention : Reuss Voigt Hill
#
# Bulk Modulus (GPa) = 31.15723 51.07126 41.11425
# Shear Modulus (GPa) = 17.93021 27.69913 22.81467
#
# Velocity S-wave (km/s) = 2.88063 3.58037 3.24939
# Velocity P-wave (km/s) = 5.04812 6.38183 5.75375
#
# Compressibility (1/GPa) = 0.03209528
#
# Stress axis : x y z
#
# Youngs Moduli (GPa) = 89.89449 89.89449 44.77878
#
# Poissons Ratio (x) = 0.56812 -0.00173
# Poissons Ratio (y) = 0.56812 -0.00173
# Poissons Ratio (z) = -0.00347 -0.00347
#
# Static dielectric constant tensor:
#      x y z
#    x 1.816730 0.000000 0.000000 
#    y 0.000000 1.816730 0.000000 
#    z 0.000000 0.000000 1.875840 
# 
# From -- ./inp_files/1995.got.cif
#   From: 2010.05.17/outbox.cif.g08.bks.cpg/sg154_1_cif.got.tgz:1995.got - 2010.05.20 10:41:43.
