data_PCOD9576620
_publ_section_title
;
Structure prediction by ZEFSAII (Michael W. Deem and Ramdas Pophale) SiO2 
 PCOD9576620
Probable space group: P 32 2 1
;
_chemical_formula_sum "Si O2"
_cell_formula_units_Z 42
_cell_length_a 8.792362
_cell_length_b 8.792362
_cell_length_c 29.071069
_cell_angle_alpha 90.000000
_cell_angle_beta 90.000000
_cell_angle_gamma 120.000000
_cell_volume 1946.268505
_symmetry_space_group_name_H-M "P 32 2 1"
_symmetry_group_IT_number 154
_symmetry_cell_setting 'hexagonal'
loop_
_space_group_symop_operation_xyz
x,y,z
-y,x-y,2/3+z
-x+y,-x,1/3+z
x-y,-y,1/3-z
-x,-x+y,2/3-z
y,x,-z
loop_
_atom_site_type_symbol
_atom_site_label
_atom_site_fract_x
_atom_site_fract_y
_atom_site_fract_z
Si Si1 0.458130 0.711607 0.669163
Si Si2 0.624038 0.991250 0.741509
Si Si3 0.814917 0.000000 0.166667
Si Si4 0.009880 0.392498 0.484576
Si Si5 0.427807 0.342449 0.672069
Si Si6 0.098754 0.019113 0.098053
Si Si7 0.362114 0.323153 0.781328
Si Si8 0.000000 0.062571 0.333334
O O1 0.525969 0.850327 0.627413
O O2 0.450124 0.529541 0.658761
O O3 0.261525 0.668349 0.679019
O O4 0.579852 0.818236 0.712337
O O5 0.792788 0.056678 0.773923
O O6 0.459069 0.953029 0.772032
O O7 0.830642 0.188198 0.170797
O O8 0.921217 0.988063 0.210376
O O9 0.983022 0.497380 0.525884
O O10 0.832918 0.209574 0.473584
O O11 0.418785 0.332813 0.728007
O O12 0.250420 0.170075 0.655317
O O13 0.102222 0.845735 0.113063
O O14 0.064744 0.007820 0.043535
#
# Coordination Sequence:
#
# PCOD9576620 Si02
#       8
#     6   6   3   6   6   6   6   3
#     4  11  26  40  67 100 139 181 229 287 353 417
#     4  11  23  44  68  96 142 183 226 289 355 414
#     4  10  24  40  68 100 128 178 232 278 356 420
#     4  11  23  46  66  97 131 182 227 289 347 424
#     4  11  25  43  65 105 136 179 228 291 351 426
#     4  10  22  42  70 100 127 184 229 281 350 429
#     4  10  24  43  70  96 136 177 230 289 351 422
#     4  10  22  42  74  92 142 176 232 282 356 416
#
# _framework density 21.579756
#
# number of rings (size 3 to 8) (size 9 to 14) (size 15 to 20)
#    0.000    1.429    1.429    3.429   14.000    0.000 
#    0.000    1.429    0.000    0.000    0.000    0.000 
#    0.000    0.000    0.000    0.000    0.000    0.000 
#
# Total GULP energy -234813.046727 kJ/mol
# GULP energy per Si atom -5590.786827 kJ/mol
# Density = 2.153064 g / cm^3
# Si number density = 21.579756 Si / 1000 Ang^3
#
#
#
# Elastic Constant Matrix: (Units=GPa)
#
#
# Indices 1 2 3 4 5 6 
#
# 1 112.1185 37.4491 8.5162 -5.6941 0.0000 0.0000
# 2 37.4491 112.1185 8.5162 5.6941 0.0000 0.0000
# 3 8.5162 8.5162 65.8494 0.0000 0.0000 0.0000
# 4 -5.6941 5.6941 0.0000 29.4021 0.0000 0.0000
# 5 0.0000 0.0000 0.0000 0.0000 29.4021 -5.6941
# 6 0.0000 0.0000 0.0000 0.0000 -5.6941 37.3347
#
#
#
# Elastic Compliance Matrix: (Units=1/GPa)
#
#
# Indices 1 2 3 4 5 6 
#
# 1 0.010293 -0.003507 -0.000878 0.002673 0.000000 0.000000
# 2 -0.003507 0.010293 -0.000878 -0.002673 0.000000 0.000000
# 3 -0.000878 -0.000878 0.015413 0.000000 0.000000 0.000000
# 4 0.002673 -0.002673 0.000000 0.035046 0.000000 0.000000
# 5 0.000000 0.000000 0.000000 0.000000 0.035046 0.005345
# 6 0.000000 0.000000 0.000000 0.000000 0.005345 0.027600
#
#
# Mechanical properties :
#
#
# Convention : Reuss Voigt Hill
#
# Bulk Modulus (GPa) = 39.25496 44.33884 41.79690
# Shear Modulus (GPa) = 32.74231 34.93476 33.83853
#
# Velocity S-wave (km/s) = 3.89944 4.02788 3.96418
# Velocity P-wave (km/s) = 6.20518 6.49791 6.35323
#
# Compressibility (1/GPa) = 0.02547449
#
# Stress axis : x y z
#
# Youngs Moduli (GPa) = 97.15407 97.15407 64.87957
#
# Poissons Ratio (x) = 0.34072 0.05694
# Poissons Ratio (y) = 0.34072 0.05694
# Poissons Ratio (z) = 0.08526 0.08526
#
# Static dielectric constant tensor:
#      x y z
#    x 1.783770 0.000000 0.000000 
#    y 0.000000 1.783770 0.000000 
#    z 0.000000 0.000000 1.802220 
# 
# From -- ./inp_files/3824.got.cif
#   From: 2010.05.17/outbox.cif.g08.bks.cpg/sg154_2_cif.got.tgz:3824.got - 2010.05.20 10:41:43.
