data_PCOD9576419
_publ_section_title
;
Structure prediction by ZEFSAII (Michael W. Deem and Ramdas Pophale) SiO2 
 PCOD9576419
Probable space group: P 32 2 1
;
_chemical_formula_sum "Si O2"
_cell_formula_units_Z 36
_cell_length_a 11.316471
_cell_length_b 11.316471
_cell_length_c 14.587861
_cell_angle_alpha 90.000000
_cell_angle_beta 90.000000
_cell_angle_gamma 120.000000
_cell_volume 1617.872443
_symmetry_space_group_name_H-M "P 32 2 1"
_symmetry_group_IT_number 154
_symmetry_cell_setting 'hexagonal'
loop_
_space_group_symop_operation_xyz
x,y,z
-y,x-y,2/3+z
-x+y,-x,1/3+z
x-y,-y,1/3-z
-x,-x+y,2/3-z
y,x,-z
loop_
_atom_site_type_symbol
_atom_site_label
_atom_site_fract_x
_atom_site_fract_y
_atom_site_fract_z
Si Si1 0.255569 0.255569 0.500000
Si Si2 0.788125 0.587834 0.368593
Si Si3 0.697544 0.255325 0.977601
Si Si4 0.000000 0.176470 0.833334
Si Si5 0.469444 0.706353 0.160510
Si Si6 0.587751 0.952139 0.798232
Si Si7 0.228921 0.250348 0.707821
O O1 0.255436 0.399040 0.496859
O O2 0.203788 0.199151 0.603195
O O3 0.641175 0.461794 0.341674
O O4 0.781336 0.704978 0.424712
O O5 0.870450 0.630401 0.273020
O O6 0.889920 0.559875 0.432654
O O7 0.767639 0.338262 0.068541
O O8 0.717660 0.352839 0.893847
O O9 0.759703 0.158490 0.961893
O O10 0.107948 0.155406 0.776082
O O11 0.467112 0.573562 0.118914
O O12 0.635147 0.930240 0.898386
#
# Coordination Sequence:
#
# PCOD9576419 Si02
#       7
#     3   6   6   3   6   6   6
#     4  10  22  35  54  87 126 162 204 255 310 363
#     4   9  19  34  57  87 117 152 203 253 306 378
#     4  10  20  32  52  85 119 156 197 241 308 373
#     4  10  20  37  62  89 120 160 202 251 310 371
#     4  10  19  32  51  80 122 161 201 250 303 370
#     4   9  18  35  56  82 116 159 205 248 305 379
#     4  10  21  36  58  85 119 158 201 255 314 377
#
# _framework density 22.251446000000001
#
# number of rings (size 3 to 8) (size 9 to 14) (size 15 to 20)
#    0.000    2.333    0.000    3.000    0.000    8.667 
#    0.000    0.000    0.000   17.000    0.000    0.000 
#    0.000    1.333    0.000    0.000    0.000    0.000 
#
# Total GULP energy -200422.044316 kJ/mol
# GULP energy per Si atom -5567.279009 kJ/mol
# Density = 2.220080 g / cm^3
# Si number density = 22.251446 Si / 1000 Ang^3
#
#
#
# Elastic Constant Matrix: (Units=GPa)
#
#
# Indices 1 2 3 4 5 6 
#
# 1 60.6107 25.7779 18.9055 -3.4339 0.0001 0.0000
# 2 25.7779 60.6107 18.9055 3.4339 -0.0001 0.0000
# 3 18.9055 18.9055 153.9542 0.0000 0.0000 0.0000
# 4 -3.4339 3.4339 0.0000 24.6758 0.0000 -0.0001
# 5 0.0001 -0.0001 0.0000 0.0000 24.6758 -3.4339
# 6 0.0000 0.0000 0.0000 -0.0001 -3.4339 17.4164
#
#
#
# Elastic Compliance Matrix: (Units=1/GPa)
#
#
# Indices 1 2 3 4 5 6 
#
# 1 0.020876 -0.008643 -0.001502 0.004108 0.000000 0.000000
# 2 -0.008643 0.020876 -0.001502 -0.004108 0.000000 0.000000
# 3 -0.001502 -0.001502 0.006864 0.000000 0.000000 0.000000
# 4 0.004108 -0.004108 0.000000 0.041669 0.000000 0.000000
# 5 0.000000 0.000000 0.000000 0.000000 0.041669 0.008216
# 6 0.000000 0.000000 0.000000 0.000000 0.008216 0.059037
#
#
# Mechanical properties :
#
#
# Convention : Reuss Voigt Hill
#
# Bulk Modulus (GPa) = 39.49180 44.70591 42.09885
# Shear Modulus (GPa) = 22.44913 27.45937 24.95425
#
# Velocity S-wave (km/s) = 3.17974 3.51671 3.35246
# Velocity P-wave (km/s) = 5.59173 6.05182 5.82632
#
# Compressibility (1/GPa) = 0.02532171
#
# Stress axis : x y z
#
# Youngs Moduli (GPa) = 47.90227 47.90227 145.67953
#
# Poissons Ratio (x) = 0.41401 0.21884
# Poissons Ratio (y) = 0.41401 0.21884
# Poissons Ratio (z) = 0.07196 0.07196
#
# Static dielectric constant tensor:
#      x y z
#    x 1.832750 0.000000 0.000000 
#    y 0.000000 1.832750 0.000000 
#    z 0.000000 0.000000 1.884800 
# 
# From -- ./inp_files/2033.got.cif
#   From: 2010.05.17/outbox.cif.g08.bks.cpg/sg154_2_cif.got.tgz:2033.got - 2010.05.20 10:41:43.
