data_PCOD9576111
_publ_section_title
;
Structure prediction by ZEFSAII (Michael W. Deem and Ramdas Pophale) SiO2 
 PCOD9576111
Probable space group: P 31 2 1
;
_chemical_formula_sum "Si O2"
_cell_formula_units_Z 15
_cell_length_a 11.356657
_cell_length_b 11.356657
_cell_length_c 5.200899
_cell_angle_alpha 90.000000
_cell_angle_beta 90.000000
_cell_angle_gamma 120.000000
_cell_volume 580.911628
_symmetry_space_group_name_H-M "P 31 2 1"
_symmetry_group_IT_number 152
_symmetry_cell_setting 'hexagonal'
loop_
_space_group_symop_operation_xyz
x,y,z
-y,x-y,1/3+z
-x+y,-x,2/3+z
x-y,-y,2/3-z
-x,-x+y,1/3-z
y,x,-z
loop_
_atom_site_type_symbol
_atom_site_label
_atom_site_fract_x
_atom_site_fract_y
_atom_site_fract_z
Si Si1 0.737318 0.469843 0.199625
Si Si2 0.817386 0.817386 0.500000
Si Si3 0.235677 0.235677 0.500000
Si Si4 0.352065 0.000000 0.333334
O O1 0.651577 0.414511 0.456889
O O2 0.873029 0.612257 0.167547
O O3 0.636702 0.502552 0.032215
O O4 0.829061 0.957945 0.597965
O O5 0.741975 0.720086 0.747823
#
# Coordination Sequence:
#
# PCOD9576111 Si02
#       4
#     6   3   3   3
#     4  11  28  45  79 116 160 223 271 351 424 504
#     4  10  24  51  83 120 152 225 259 360 408 502
#     4  10  26  53  83 124 174 209 299 344 434 518
#     4  10  26  48  76 114 166 206 284 330 428 500
#
# _framework density 25.821486
#
# number of rings (size 3 to 8) (size 9 to 14) (size 15 to 20)
#    0.000    1.600    0.000    0.000   16.800    8.000 
#    0.000   40.000    0.000    0.000    0.000    0.000 
#    0.000    0.000    0.000    0.000    0.000    0.000 
#
# Total GULP energy -83632.099219 kJ/mol
# GULP energy per Si atom -5575.473281 kJ/mol
# Density = 2.576272 g / cm^3
# Si number density = 25.821486 Si / 1000 Ang^3
#
#
#
# Elastic Constant Matrix: (Units=GPa)
#
#
# Indices 1 2 3 4 5 6 
#
# 1 114.6784 86.0264 43.4037 9.5619 0.0000 0.0000
# 2 86.0264 114.6784 43.4037 -9.5619 0.0000 0.0000
# 3 43.4037 43.4037 169.3730 0.0000 0.0000 0.0000
# 4 9.5619 -9.5619 0.0000 41.2754 0.0000 0.0000
# 5 0.0000 0.0000 0.0000 0.0000 41.2754 9.5619
# 6 0.0000 0.0000 0.0000 0.0000 9.5619 14.3260
#
#
#
# Elastic Compliance Matrix: (Units=1/GPa)
#
#
# Indices 1 2 3 4 5 6 
#
# 1 0.023444 -0.017841 -0.001436 -0.009564 0.000000 0.000000
# 2 -0.017841 0.023444 -0.001436 0.009564 0.000000 0.000000
# 3 -0.001436 -0.001436 0.006640 0.000000 0.000000 0.000000
# 4 -0.009564 0.009564 0.000000 0.028659 0.000000 0.000000
# 5 0.000000 0.000000 0.000000 0.000000 0.028659 -0.019128
# 6 0.000000 0.000000 0.000000 0.000000 -0.019128 0.082571
#
#
# Mechanical properties :
#
#
# Convention : Reuss Voigt Hill
#
# Bulk Modulus (GPa) = 82.62230 82.71083 82.66657
# Shear Modulus (GPa) = 20.93126 34.43508 27.68317
#
# Velocity S-wave (km/s) = 2.85022 3.65579 3.27784
# Velocity P-wave (km/s) = 6.54970 7.06548 6.81248
#
# Compressibility (1/GPa) = 0.01210327
#
# Stress axis : x y z
#
# Youngs Moduli (GPa) = 42.65411 42.65411 150.60026
#
# Poissons Ratio (x) = 0.76099 0.21626
# Poissons Ratio (y) = 0.76099 0.21626
# Poissons Ratio (z) = 0.06125 0.06125
#
# Static dielectric constant tensor:
#      x y z
#    x 2.131360 0.000000 0.000000 
#    y 0.000000 2.131360 0.000000 
#    z 0.000000 0.000000 2.141040 
# 
# From -- ./inp_files/108.got.cif
#   From: 2010.05.17/outbox.cif.g08.bks.cpg/sg152_1_cif.got.tgz:108.got - 2010.05.20 10:36:06.
