data_PCOD9576529
_publ_section_title
;
Structure prediction by ZEFSAII (Michael W. Deem and Ramdas Pophale) SiO2 
 PCOD9576529
Probable space group: P 32 2 1
;
_chemical_formula_sum "Si O2"
_cell_formula_units_Z 27
_cell_length_a 8.149439
_cell_length_b 8.149439
_cell_length_c 21.030161
_cell_angle_alpha 90.000000
_cell_angle_beta 90.000000
_cell_angle_gamma 120.000000
_cell_volume 1209.563452
_symmetry_space_group_name_H-M "P 32 2 1"
_symmetry_group_IT_number 154
_symmetry_cell_setting 'hexagonal'
loop_
_space_group_symop_operation_xyz
x,y,z
-y,x-y,2/3+z
-x+y,-x,1/3+z
x-y,-y,1/3-z
-x,-x+y,2/3-z
y,x,-z
loop_
_atom_site_type_symbol
_atom_site_label
_atom_site_fract_x
_atom_site_fract_y
_atom_site_fract_z
Si Si1 0.206645 0.133203 0.301129
Si Si2 0.538235 0.311343 0.738561
Si Si3 0.055553 0.384217 0.145276
Si Si4 0.225471 0.792125 0.348813
Si Si5 0.000000 0.043997 0.833334
O O1 0.298625 0.359544 0.299995
O O2 0.000000 0.051846 0.333334
O O3 0.291298 0.012136 0.333234
O O4 0.181395 0.072258 0.226954
O O5 0.603667 0.480728 0.788432
O O6 0.699094 0.317937 0.694143
O O7 0.462672 0.127769 0.784542
O O8 0.016833 0.171748 0.144900
O O9 0.210999 0.484269 0.089294
O O10 0.000000 0.677017 0.333334
#
# Coordination Sequence:
#
# PCOD9576529 Si02
#       5
#     6   6   6   6   3
#     4  10  21  40  68  91 131 186 220 279 348 414
#     4  11  26  42  68 101 139 174 235 289 346 425
#     4  11  24  44  65 101 135 182 228 286 354 416
#     4  11  22  44  69  97 136 184 232 284 351 423
#     4  10  20  42  66  90 134 176 230 270 352 412
#
# _framework density 22.322105000000001
#
# number of rings (size 3 to 8) (size 9 to 14) (size 15 to 20)
#    0.000    1.333    4.444    2.000    6.222    1.778 
#    4.000    0.000    0.000    0.000    0.000    0.000 
#    0.000    0.000    0.000    0.000    0.000    0.000 
#
# Total GULP energy -150926.720160 kJ/mol
# GULP energy per Si atom -5589.878524 kJ/mol
# Density = 2.227130 g / cm^3
# Si number density = 22.322105 Si / 1000 Ang^3
#
#
#
# Elastic Constant Matrix: (Units=GPa)
#
#
# Indices 1 2 3 4 5 6 
#
# 1 84.3387 31.4620 35.8804 5.2187 -0.0002 0.0000
# 2 31.4620 84.3387 35.8804 -5.2187 0.0002 0.0000
# 3 35.8804 35.8804 93.1074 0.0000 0.0000 0.0000
# 4 5.2187 -5.2187 0.0000 39.6869 0.0000 0.0002
# 5 -0.0002 0.0002 0.0000 0.0000 39.6869 5.2187
# 6 0.0000 0.0000 0.0000 0.0002 5.2187 26.4383
#
#
#
# Elastic Compliance Matrix: (Units=1/GPa)
#
#
# Indices 1 2 3 4 5 6 
#
# 1 0.015380 -0.004036 -0.004372 -0.002553 0.000000 0.000000
# 2 -0.004036 0.015380 -0.004372 0.002553 0.000000 0.000000
# 3 -0.004372 -0.004372 0.014110 0.000000 0.000000 0.000000
# 4 -0.002553 0.002553 0.000000 0.025869 0.000000 0.000000
# 5 0.000000 0.000000 0.000000 0.000000 0.025869 -0.005106
# 6 0.000000 0.000000 0.000000 0.000000 -0.005106 0.038832
#
#
# Mechanical properties :
#
#
# Convention : Reuss Voigt Hill
#
# Bulk Modulus (GPa) = 51.78179 52.02561 51.90370
# Shear Modulus (GPa) = 29.86222 31.73322 30.79772
#
# Velocity S-wave (km/s) = 3.66155 3.77451 3.71846
# Velocity P-wave (km/s) = 6.41278 6.50794 6.46054
#
# Compressibility (1/GPa) = 0.01931181
#
# Stress axis : x y z
#
# Youngs Moduli (GPa) = 65.01815 65.01815 70.87261
#
# Poissons Ratio (x) = 0.26239 0.30985
# Poissons Ratio (y) = 0.26239 0.30985
# Poissons Ratio (z) = 0.28425 0.28425
#
# Static dielectric constant tensor:
#      x y z
#    x 1.839540 0.000000 0.000000 
#    y 0.000000 1.839540 0.000000 
#    z 0.000000 0.000000 2.071050 
# 
# From -- ./inp_files/2686.got.cif
#   From: 2010.05.17/outbox.cif.g08.bks.cpg/sg154_2_cif.got.tgz:2686.got - 2010.05.20 10:41:43.
