data_PCOD9576638
_publ_section_title
;
Structure prediction by ZEFSAII (Michael W. Deem and Ramdas Pophale) SiO2 
 PCOD9576638
Probable space group: P 32 2 1
;
_chemical_formula_sum "Si O2"
_cell_formula_units_Z 30
_cell_length_a 17.342542
_cell_length_b 17.342542
_cell_length_c 6.413055
_cell_angle_alpha 90.000000
_cell_angle_beta 90.000000
_cell_angle_gamma 120.000000
_cell_volume 1670.402403
_symmetry_space_group_name_H-M "P 32 2 1"
_symmetry_group_IT_number 154
_symmetry_cell_setting 'hexagonal'
loop_
_space_group_symop_operation_xyz
x,y,z
-y,x-y,2/3+z
-x+y,-x,1/3+z
x-y,-y,1/3-z
-x,-x+y,2/3-z
y,x,-z
loop_
_atom_site_type_symbol
_atom_site_label
_atom_site_fract_x
_atom_site_fract_y
_atom_site_fract_z
Si Si1 0.906950 0.407705 0.450193
Si Si2 0.897014 0.809138 0.876808
Si Si3 0.000000 0.531772 0.833334
Si Si4 0.766199 0.766199 0.500000
Si Si5 0.213520 0.853998 0.485813
Si Si6 0.444422 0.350784 0.884894
O O1 0.937327 0.449986 0.680537
O O2 0.856231 0.302378 0.435541
O O3 0.864370 0.458922 0.328440
O O4 0.000000 0.439680 0.333334
O O5 0.846618 0.791274 0.658212
O O6 0.000000 0.842344 0.833334
O O7 0.883306 0.883306 0.000000
O O8 0.841880 0.719099 0.013637
O O9 0.064780 0.614363 0.684737
O O10 0.684127 0.754705 0.639965
O O11 0.149775 0.753462 0.416648
O O12 0.386591 0.386591 0.000000
#
# Coordination Sequence:
#
# PCOD9576638 Si02
#       6
#     6   6   3   3   6   6
#     4   9  18  37  57  81 110 143 190 237 287 348
#     4  10  24  37  56  85 119 163 208 248 294 346
#     4   8  17  36  58  75 106 150 180 229 300 338
#     4  10  23  38  56  85 118 164 202 249 292 336
#     4  11  22  37  61  88 118 155 201 247 290 365
#     4   9  21  36  57  85 114 144 187 239 291 351
#
# _framework density 17.959745000000002
#
# number of rings (size 3 to 8) (size 9 to 14) (size 15 to 20)
#    0.000    2.800    0.000    2.400    5.600    4.800 
#    0.000    2.000    0.000    0.000    0.000    0.000 
#    0.000    0.000    0.000    0.000    0.000    0.000 
#
# Total GULP energy -167129.088266 kJ/mol
# GULP energy per Si atom -5570.969609 kJ/mol
# Density = 1.791887 g / cm^3
# Si number density = 17.959745 Si / 1000 Ang^3
#
#
#
# Elastic Constant Matrix: (Units=GPa)
#
#
# Indices 1 2 3 4 5 6 
#
# 1 105.9835 50.4233 35.3820 -0.6209 0.0000 0.0000
# 2 50.4233 105.9835 35.3820 0.6209 0.0000 0.0000
# 3 35.3820 35.3820 93.7658 0.0000 0.0000 0.0000
# 4 -0.6209 0.6209 0.0000 5.4289 0.0000 0.0000
# 5 0.0000 0.0000 0.0000 0.0000 5.4289 -0.6209
# 6 0.0000 0.0000 0.0000 0.0000 -0.6209 27.7801
#
#
#
# Elastic Compliance Matrix: (Units=1/GPa)
#
#
# Indices 1 2 3 4 5 6 
#
# 1 0.012877 -0.005167 -0.002909 0.002064 0.000000 0.000000
# 2 -0.005167 0.012877 -0.002909 -0.002064 0.000000 0.000000
# 3 -0.002909 -0.002909 0.012860 0.000000 0.000000 0.000000
# 4 0.002064 -0.002064 0.000000 0.184671 0.000000 0.000000
# 5 0.000000 0.000000 0.000000 0.000000 0.184671 0.004128
# 6 0.000000 0.000000 0.000000 0.000000 0.004128 0.036089
#
#
# Mechanical properties :
#
#
# Convention : Reuss Voigt Hill
#
# Bulk Modulus (GPa) = 60.08505 60.90083 60.49294
# Shear Modulus (GPa) = 10.60297 20.03062 15.31680
#
# Velocity S-wave (km/s) = 2.43240 3.34324 2.92351
# Velocity P-wave (km/s) = 6.43559 6.99187 6.71949
#
# Compressibility (1/GPa) = 0.01664308
#
# Stress axis : x y z
#
# Youngs Moduli (GPa) = 77.65647 77.65647 77.75768
#
# Poissons Ratio (x) = 0.40128 0.22622
# Poissons Ratio (y) = 0.40128 0.22622
# Poissons Ratio (z) = 0.22592 0.22592
#
# Static dielectric constant tensor:
#      x y z
#    x 1.631230 0.000000 0.000000 
#    y 0.000000 1.631230 0.000000 
#    z 0.000000 0.000000 1.658870 
# 
# From -- ./inp_files/384.got.cif
#   From: 2010.05.17/outbox.cif.g08.bks.cpg/sg154_1_cif.got.tgz:384.got - 2010.05.20 10:41:43.
