data_PCOD9576043
_publ_section_title
;
Structure prediction by ZEFSAII (Michael W. Deem and Ramdas Pophale) SiO2 
 PCOD9576043
Probable space group: P 31 2 1
;
_chemical_formula_sum "Si O2"
_cell_formula_units_Z 21
_cell_length_a 8.028168
_cell_length_b 8.028168
_cell_length_c 15.090897
_cell_angle_alpha 90.000000
_cell_angle_beta 90.000000
_cell_angle_gamma 120.000000
_cell_volume 842.322867
_symmetry_space_group_name_H-M "P 31 2 1"
_symmetry_group_IT_number 152
_symmetry_cell_setting 'hexagonal'
loop_
_space_group_symop_operation_xyz
x,y,z
-y,x-y,1/3+z
-x+y,-x,2/3+z
x-y,-y,2/3-z
-x,-x+y,1/3-z
y,x,-z
loop_
_atom_site_type_symbol
_atom_site_label
_atom_site_fract_x
_atom_site_fract_y
_atom_site_fract_z
Si Si1 0.008079 0.875317 0.066180
Si Si2 0.000000 0.199461 0.166667
Si Si3 0.499104 0.610857 0.718977
Si Si4 0.619763 0.316838 0.781377
O O1 0.175973 0.846192 0.028036
O O2 0.000000 0.800740 0.166667
O O3 0.055408 0.093127 0.090847
O O4 0.830745 0.830745 0.000000
O O5 0.178962 0.411820 0.175753
O O6 0.606376 0.492149 0.737923
O O7 0.393011 0.615281 0.808405
O O8 0.362715 0.554920 0.632608
#
# Coordination Sequence:
#
# PCOD9576043 Si02
#       4
#     6   3   6   6
#     4  10  22  42  73 101 142 187 244 292 376 436
#     4  10  22  42  72 102 146 190 240 296 372 448
#     4  12  27  46  72 108 147 196 248 313 368 453
#     4  12  27  46  72 107 150 193 249 306 375 441
#
# _framework density 24.931059999999999
#
# number of rings (size 3 to 8) (size 9 to 14) (size 15 to 20)
#    0.857    0.000    2.857    3.429    6.000    1.143 
#    0.000    0.000    0.000    0.000    0.000    0.000 
#    0.000    0.000    0.000    0.000    0.000    0.000 
#
# Total GULP energy -117088.589713 kJ/mol
# GULP energy per Si atom -5575.647129 kJ/mol
# Density = 2.487432 g / cm^3
# Si number density = 24.931060 Si / 1000 Ang^3
#
#
#
# Elastic Constant Matrix: (Units=GPa)
#
#
# Indices 1 2 3 4 5 6 
#
# 1 64.0026 4.7253 13.3989 4.3316 0.0002 0.0000
# 2 4.7253 64.0026 13.3989 -4.3316 -0.0002 0.0000
# 3 13.3989 13.3989 129.9201 0.0000 0.0000 0.0000
# 4 4.3316 -4.3316 0.0000 27.9942 0.0000 -0.0002
# 5 0.0002 -0.0002 0.0000 0.0000 27.9942 4.3316
# 6 0.0000 0.0000 0.0000 -0.0002 4.3316 29.6386
#
#
#
# Elastic Compliance Matrix: (Units=1/GPa)
#
#
# Indices 1 2 3 4 5 6 
#
# 1 0.016210 -0.001050 -0.001563 -0.002671 0.000000 0.000000
# 2 -0.001050 0.016210 -0.001563 0.002671 0.000000 0.000000
# 3 -0.001563 -0.001563 0.008020 0.000000 0.000000 0.000000
# 4 -0.002671 0.002671 0.000000 0.036548 0.000000 0.000000
# 5 0.000000 0.000000 0.000000 0.000000 0.036548 -0.005341
# 6 0.000000 0.000000 0.000000 0.000000 -0.005341 0.034520
#
#
# Mechanical properties :
#
#
# Convention : Reuss Voigt Hill
#
# Bulk Modulus (GPa) = 31.16703 35.66350 33.41526
# Shear Modulus (GPa) = 29.92123 32.21889 31.07006
#
# Velocity S-wave (km/s) = 3.46809 3.59878 3.53404
# Velocity P-wave (km/s) = 5.34465 5.62176 5.48496
#
# Compressibility (1/GPa) = 0.03208518
#
# Stress axis : x y z
#
# Youngs Moduli (GPa) = 61.69050 61.69050 124.69580
#
# Poissons Ratio (x) = 0.06479 0.19495
# Poissons Ratio (y) = 0.06479 0.19495
# Poissons Ratio (z) = 0.09645 0.09645
#
# Static dielectric constant tensor:
#      x y z
#    x 1.992190 0.000000 0.000000 
#    y 0.000000 1.992190 0.000000 
#    z 0.000000 0.000000 2.237680 
# 
# From -- ./inp_files/2323.got.cif
#   From: 2010.05.17/outbox.cif.g08.bks.cpg/sg152_2_cif.got.tgz:2323.got - 2010.05.20 10:36:06.
