data_PCOD9576078
_publ_section_title
;
Structure prediction by ZEFSAII (Michael W. Deem and Ramdas Pophale) SiO2 
 PCOD9576078
Probable space group: P 31 2 1
;
_chemical_formula_sum "Si O2"
_cell_formula_units_Z 18
_cell_length_a 7.633544
_cell_length_b 7.633544
_cell_length_c 16.772601
_cell_angle_alpha 90.000000
_cell_angle_beta 90.000000
_cell_angle_gamma 120.000000
_cell_volume 846.415239
_symmetry_space_group_name_H-M "P 31 2 1"
_symmetry_group_IT_number 152
_symmetry_cell_setting 'hexagonal'
loop_
_space_group_symop_operation_xyz
x,y,z
-y,x-y,1/3+z
-x+y,-x,2/3+z
x-y,-y,2/3-z
-x,-x+y,1/3-z
y,x,-z
loop_
_atom_site_type_symbol
_atom_site_label
_atom_site_fract_x
_atom_site_fract_y
_atom_site_fract_z
Si Si1 0.874556 0.981176 0.088451
Si Si2 0.999039 0.448261 0.254232
Si Si3 0.217116 0.530498 0.703707
O O1 0.000000 0.984649 0.166667
O O2 0.909585 0.207412 0.082252
O O3 0.639658 0.813936 0.103269
O O4 0.933719 0.933719 0.000000
O O5 0.764565 0.322341 0.276400
O O6 0.000000 0.528181 0.166667
O O7 0.137096 0.632531 0.310957
O O8 0.000000 0.463276 0.666667
#
# Coordination Sequence:
#
# PCOD9576078 Si02
#       3
#     6   6   6
#     4  10  23  45  70 104 141 182 231 290 350 418
#     4  11  24  43  68  99 137 180 229 289 347 415
#     4  11  24  44  68  99 133 180 229 281 348 411
#
# _framework density 21.266155000000001
#
# number of rings (size 3 to 8) (size 9 to 14) (size 15 to 20)
#    0.000    1.333    3.333    1.000    0.000   13.333 
#    0.000    0.000    0.000    0.000    0.000    0.000 
#    0.000    0.000    0.000    0.000    0.000    0.000 
#
# Total GULP energy -100508.734244 kJ/mol
# GULP energy per Si atom -5583.818569 kJ/mol
# Density = 2.121775 g / cm^3
# Si number density = 21.266155 Si / 1000 Ang^3
#
#
#
# Elastic Constant Matrix: (Units=GPa)
#
#
# Indices 1 2 3 4 5 6 
#
# 1 140.6120 51.1431 26.5175 -18.1827 0.0045 0.0000
# 2 51.1431 140.6120 26.5175 18.1827 -0.0045 0.0000
# 3 26.5175 26.5175 55.9355 0.0000 0.0000 0.0000
# 4 -18.1827 18.1827 0.0000 41.2609 0.0000 -0.0045
# 5 0.0045 -0.0045 0.0000 0.0000 41.2609 -18.1827
# 6 0.0000 0.0000 0.0000 -0.0045 -18.1827 44.7345
#
#
#
# Elastic Compliance Matrix: (Units=1/GPa)
#
#
# Indices 1 2 3 4 5 6 
#
# 1 0.009809 -0.003807 -0.002845 0.006000 -0.000001 0.000000
# 2 -0.003807 0.009809 -0.002845 -0.006000 0.000001 0.000000
# 3 -0.002845 -0.002845 0.020576 0.000000 0.000000 0.000000
# 4 0.006000 -0.006000 0.000000 0.029524 0.000000 0.000003
# 5 -0.000001 0.000001 0.000000 0.000000 0.029524 0.012000
# 6 0.000000 0.000000 0.000000 0.000003 0.012000 0.027232
#
#
# Mechanical properties :
#
#
# Convention : Reuss Voigt Hill
#
# Bulk Modulus (GPa) = 47.17426 60.61287 53.89357
# Shear Modulus (GPa) = 32.77928 40.98334 36.88131
#
# Velocity S-wave (km/s) = 3.93030 4.39471 4.16898
# Velocity P-wave (km/s) = 6.54426 7.36988 6.96931
#
# Compressibility (1/GPa) = 0.02119800
#
# Stress axis : x y z
#
# Youngs Moduli (GPa) = 101.94795 101.94795 48.60132
#
# Poissons Ratio (x) = 0.38811 0.13829
# Poissons Ratio (y) = 0.38811 0.13829
# Poissons Ratio (z) = 0.29008 0.29008
#
# Static dielectric constant tensor:
#      x y z
#    x 1.774570 0.000000 0.000000 
#    y 0.000000 1.774570 0.000000 
#    z 0.000000 0.000000 1.795810 
# 
# From -- ./inp_files/1543.got.cif
#   From: 2010.05.17/outbox.cif.g08.bks.cpg/sg152_1_cif.got.tgz:1543.got - 2010.05.20 10:36:06.
