data_PCOD9576977
_publ_section_title
;
Structure prediction by ZEFSAII (Michael W. Deem and Ramdas Pophale) SiO2 
 PCOD9576977
Probable space group: R 3 2
;
_chemical_formula_sum "Si O2"
_cell_formula_units_Z 84
_cell_length_a 17.494058
_cell_length_b 17.494058
_cell_length_c 14.184530
_cell_angle_alpha 90.000000
_cell_angle_beta 90.000000
_cell_angle_gamma 120.000000
_cell_volume 3759.470713
_symmetry_space_group_name_H-M "R 3 2"
_symmetry_group_IT_number 155
_symmetry_cell_setting 'hexagonal'
loop_
_space_group_symop_operation_xyz
x,y,z
-y,x-y,z
-x+y,-x,z
x-y,-y,-z
-x,-x+y,-z
y,x,-z
2/3+x,1/3+y,1/3+z
2/3-y,1/3+x-y,1/3+z
2/3-x+y,1/3-x,1/3+z
2/3+x-y,1/3-y,1/3-z
2/3-x,1/3-x+y,1/3-z
2/3+y,1/3+x,1/3-z
1/3+x,2/3+y,2/3+z
1/3-y,2/3+x-y,2/3+z
1/3-x+y,2/3-x,2/3+z
1/3+x-y,2/3-y,2/3-z
1/3-x,2/3-x+y,2/3-z
1/3+y,2/3+x,2/3-z
loop_
_atom_site_type_symbol
_atom_site_label
_atom_site_fract_x
_atom_site_fract_y
_atom_site_fract_z
Si Si1 0.333334 0.666668 0.814649
Si Si2 0.639021 0.817723 0.541137
Si Si3 0.522654 0.666667 0.666667
Si Si4 0.666667 0.865846 0.333334
Si Si5 0.184131 0.710285 0.016194
Si Si6 0.666666 0.333333 0.704495
Si Si7 0.841925 0.478955 0.460699
O O1 0.333334 0.666667 0.924906
O O2 0.401773 0.763707 0.782814
O O3 0.593176 0.721490 0.586648
O O4 0.646802 0.811090 0.429124
O O5 0.730398 0.877546 0.593450
O O6 0.579985 0.867296 0.554110
O O7 0.442860 0.581263 0.609037
O O8 0.579986 0.872355 0.311199
O O9 0.256220 0.688043 0.059041
O O10 0.199607 0.728225 0.902735
#
# Coordination Sequence:
#
# PCOD9576977 Si02
#       7
#     6  18   9   9  18   6  18
#     4   9  15  34  64 109 143 182 232 292 359 442
#     4  11  24  43  71 108 155 198 250 319 382 455
#     4  12  24  38  69 113 150 196 246 300 388 459
#     4  10  24  46  71 105 152 194 254 324 384 437
#     4  10  23  45  78 109 147 198 259 312 379 461
#     4   9  21  45  80 107 136 194 262 307 362 454
#     4  10  21  37  70 108 155 193 245 309 374 462
#
# _framework density 22.343568999999999
#
# number of rings (size 3 to 8) (size 9 to 14) (size 15 to 20)
#    0.000    1.714    2.143    1.286    6.000    0.857 
#    0.000    5.357    4.714    0.000    0.000    0.000 
#    0.000    0.000    0.000    0.000    0.000    0.000 
#
# Total GULP energy -156104.977988 kJ/mol
# GULP energy per Si atom -5575.177785 kJ/mol
# Density = 2.229271 g / cm^3
# Si number density = 22.343569 Si / 1000 Ang^3
#
#
#
# Elastic Constant Matrix: (Units=GPa)
#
#
# Indices 1 2 3 4 5 6 
#
# 1 107.2913 58.8089 49.9918 9.7227 0.0001 0.0000
# 2 58.8089 107.2918 49.9924 -9.7229 -0.0001 0.0000
# 3 49.9918 49.9924 175.1219 0.0000 0.0000 0.0000
# 4 9.7227 -9.7229 0.0000 33.1856 0.0000 -0.0001
# 5 0.0001 -0.0001 0.0000 0.0000 33.1854 9.7217
# 6 0.0000 0.0000 0.0000 -0.0001 9.7217 24.2420
#
#
#
# Elastic Compliance Matrix: (Units=1/GPa)
#
#
# Indices 1 2 3 4 5 6 
#
# 1 0.015321 -0.008051 -0.002075 -0.006848 0.000000 0.000000
# 2 -0.008051 0.015321 -0.002075 0.006848 0.000000 0.000000
# 3 -0.002075 -0.002075 0.006895 0.000000 0.000000 0.000000
# 4 -0.006848 0.006848 0.000000 0.034146 0.000000 0.000000
# 5 0.000000 0.000000 0.000000 0.000000 0.034145 -0.013693
# 6 0.000000 0.000000 0.000000 0.000000 -0.013693 0.046742
#
#
# Mechanical properties :
#
#
# Convention : Reuss Voigt Hill
#
# Bulk Modulus (GPa) = 76.14174 78.58791 77.36482
# Shear Modulus (GPa) = 27.57067 33.51673 30.54370
#
# Velocity S-wave (km/s) = 3.51656 3.87726 3.70131
# Velocity P-wave (km/s) = 7.11618 7.43593 7.27781
#
# Compressibility (1/GPa) = 0.01313340
#
# Stress axis : x y z
#
# Youngs Moduli (GPa) = 65.26976 65.26978 145.02911
#
# Poissons Ratio (x) = 0.52551 0.30097
# Poissons Ratio (y) = 0.52551 0.30098
# Poissons Ratio (z) = 0.13545 0.13546
#
# Static dielectric constant tensor:
#      x y z
#    x 1.854840 0.000000 0.000000 
#    y 0.000000 1.854830 0.000000 
#    z 0.000000 0.000000 1.870050 
# 
# From -- ./inp_files/5029.got.cif
#   From: 2010.05.17/outbox.cif.g08.bks.cpg/sg155_3_cif.got.tgz:5029.got - 2010.05.20 10:44:35.
