data_PCOD9576933
_publ_section_title
;
Structure prediction by ZEFSAII (Michael W. Deem and Ramdas Pophale) SiO2 
 PCOD9576933
Probable space group: R 3 2
;
_chemical_formula_sum "Si O2"
_cell_formula_units_Z 75
_cell_length_a 14.010564
_cell_length_b 14.010564
_cell_length_c 22.429318
_cell_angle_alpha 90.000000
_cell_angle_beta 90.000000
_cell_angle_gamma 120.000000
_cell_volume 3812.922137
_symmetry_space_group_name_H-M "R 3 2"
_symmetry_group_IT_number 155
_symmetry_cell_setting 'hexagonal'
loop_
_space_group_symop_operation_xyz
x,y,z
-y,x-y,z
-x+y,-x,z
x-y,-y,-z
-x,-x+y,-z
y,x,-z
2/3+x,1/3+y,1/3+z
2/3-y,1/3+x-y,1/3+z
2/3-x+y,1/3-x,1/3+z
2/3+x-y,1/3-y,1/3-z
2/3-x,1/3-x+y,1/3-z
2/3+y,1/3+x,1/3-z
1/3+x,2/3+y,2/3+z
1/3-y,2/3+x-y,2/3+z
1/3-x+y,2/3-x,2/3+z
1/3+x-y,2/3-y,2/3-z
1/3-x,2/3-x+y,2/3-z
1/3+y,2/3+x,2/3-z
loop_
_atom_site_type_symbol
_atom_site_label
_atom_site_fract_x
_atom_site_fract_y
_atom_site_fract_z
Si Si1 0.333334 0.666667 0.037478
Si Si2 0.693757 0.507761 0.186311
Si Si3 0.333334 0.666668 0.897615
Si Si4 0.478828 0.347310 0.263157
Si Si5 0.945472 0.333334 0.833334
Si Si6 0.396963 0.512272 0.229822
O O1 0.444731 0.771714 0.061906
O O2 0.333334 0.666667 0.967023
O O3 0.724618 0.452287 0.133096
O O4 0.598983 0.421808 0.231835
O O5 0.801851 0.570783 0.227841
O O6 0.637950 0.569571 0.154109
O O7 0.489128 0.333334 0.333334
O O8 0.412094 0.412416 0.253496
O O9 0.904227 0.384852 0.783129
O O10 0.333334 0.478006 0.166667
#
# Coordination Sequence:
#
# PCOD9576933 Si02
#       6
#     6  18   6  18   9  18
#     4  12  22  43  66  85 136 171 226 266 289 384
#     4   9  20  39  64  89 132 159 199 265 322 387
#     4   9  21  40  59  94 126 174 196 260 337 348
#     4  10  21  38  65  97 122 164 210 256 324 387
#     4  10  20  38  66  88 114 166 212 250 326 374
#     4  11  22  41  64  88 122 174 217 258 318 371
#
# _framework density 19.669954000000001
#
# number of rings (size 3 to 8) (size 9 to 14) (size 15 to 20)
#    0.000    1.920    2.400    1.200    1.680    1.920 
#    8.640    3.600    0.000    0.000    0.000    0.000 
#    0.000    0.000    0.000    0.000    0.000    0.000 
#
# Total GULP energy -139217.136747 kJ/mol
# GULP energy per Si atom -5568.685470 kJ/mol
# Density = 1.962518 g / cm^3
# Si number density = 19.669954 Si / 1000 Ang^3
#
#
#
# Elastic Constant Matrix: (Units=GPa)
#
#
# Indices 1 2 3 4 5 6 
#
# 1 79.9605 23.4193 42.6878 0.1421 0.0009 0.0000
# 2 23.4193 79.9611 42.6878 -0.1418 -0.0009 0.0000
# 3 42.6878 42.6878 141.2809 -0.0003 0.0000 0.0000
# 4 0.1421 -0.1418 -0.0003 9.1687 0.0000 -0.0009
# 5 0.0009 -0.0009 0.0000 0.0000 9.1688 0.1418
# 6 0.0000 0.0000 0.0000 -0.0009 0.1418 28.2709
#
#
#
# Elastic Compliance Matrix: (Units=1/GPa)
#
#
# Indices 1 2 3 4 5 6 
#
# 1 0.015288 -0.002399 -0.003894 -0.000274 -0.000002 0.000000
# 2 -0.002399 0.015288 -0.003894 0.000274 0.000002 0.000000
# 3 -0.003894 -0.003894 0.009432 0.000000 0.000000 0.000000
# 4 -0.000274 0.000274 0.000000 0.109075 0.000000 0.000003
# 5 -0.000002 0.000002 0.000000 0.000000 0.109074 -0.000547
# 6 0.000000 0.000000 0.000000 0.000003 -0.000547 0.035375
#
#
# Mechanical properties :
#
#
# Convention : Reuss Voigt Hill
#
# Bulk Modulus (GPa) = 50.93687 57.64360 54.29024
# Shear Modulus (GPa) = 15.60295 22.14885 18.87590
#
# Velocity S-wave (km/s) = 2.81950 3.35927 3.10115
# Velocity P-wave (km/s) = 6.04578 6.66448 6.36265
#
# Compressibility (1/GPa) = 0.01963214
#
# Stress axis : x y z
#
# Youngs Moduli (GPa) = 65.40887 65.40945 106.02747
#
# Poissons Ratio (x) = 0.15693 0.41292
# Poissons Ratio (y) = 0.15692 0.41292
# Poissons Ratio (z) = 0.25473 0.25473
#
# Static dielectric constant tensor:
#      x y z
#    x 1.768680 0.000000 0.000000 
#    y 0.000000 1.768680 0.000000 
#    z 0.000000 0.000000 1.635630 
# 
# From -- ./inp_files/6822.got.cif
#   From: 2010.05.17/outbox.cif.g08.bks.cpg/sg155_4_cif.got.tgz:6822.got - 2010.05.20 10:44:35.
