data_PCOD9576742
_publ_section_title
;
Structure prediction by ZEFSAII (Michael W. Deem and Ramdas Pophale) SiO2 
 PCOD9576742
Probable space group: P 32 2 1
;
_chemical_formula_sum "Si O2"
_cell_formula_units_Z 18
_cell_length_a 5.293569
_cell_length_b 5.293569
_cell_length_c 27.278837
_cell_angle_alpha 90.000000
_cell_angle_beta 90.000000
_cell_angle_gamma 120.000000
_cell_volume 661.993369
_symmetry_space_group_name_H-M "P 32 2 1"
_symmetry_group_IT_number 154
_symmetry_cell_setting 'hexagonal'
loop_
_space_group_symop_operation_xyz
x,y,z
-y,x-y,2/3+z
-x+y,-x,1/3+z
x-y,-y,1/3-z
-x,-x+y,2/3-z
y,x,-z
loop_
_atom_site_type_symbol
_atom_site_label
_atom_site_fract_x
_atom_site_fract_y
_atom_site_fract_z
Si Si1 0.386520 0.762930 0.439485
Si Si2 0.796792 0.580250 0.460150
Si Si3 0.571597 0.904220 0.982195
O O1 0.062148 0.675660 0.423534
O O2 0.619356 0.044814 0.409942
O O3 0.500554 0.531764 0.434811
O O4 0.354652 0.769032 0.498371
O O5 0.833387 0.833387 0.500000
O O6 0.723827 0.239707 0.000080
O O7 0.754885 0.754885 0.000000
#
# Coordination Sequence:
#
# PCOD9576742 Si02
#       3
#     6   6   6
#     4   9  20  41  61  97 130 170 225 273 341 403
#     4   8  20  37  63  92 125 168 214 281 341 379
#     4  12  27  46  71 100 140 188 230 280 338 412
#
# _framework density 27.190605999999999
#
# number of rings (size 3 to 8) (size 9 to 14) (size 15 to 20)
#    2.000    0.000    0.000    3.000    0.000    8.000 
#    6.000    0.000    0.000    0.000    0.000    0.000 
#    0.000    0.000    0.000    0.000    0.000    0.000 
#
# Total GULP energy -100360.666932 kJ/mol
# GULP energy per Si atom -5575.592607 kJ/mol
# Density = 2.712872 g / cm^3
# Si number density = 27.190606 Si / 1000 Ang^3
#
#
#
# Elastic Constant Matrix: (Units=GPa)
#
#
# Indices 1 2 3 4 5 6 
#
# 1 159.7397 56.2569 14.7911 -16.8031 0.0000 0.0000
# 2 56.2569 159.7397 14.7911 16.8031 0.0000 0.0000
# 3 14.7911 14.7911 125.5405 0.0000 0.0000 0.0000
# 4 -16.8031 16.8031 0.0000 39.5321 0.0000 0.0000
# 5 0.0000 0.0000 0.0000 0.0000 39.5321 -16.8031
# 6 0.0000 0.0000 0.0000 0.0000 -16.8031 51.7414
#
#
#
# Elastic Compliance Matrix: (Units=1/GPa)
#
#
# Indices 1 2 3 4 5 6 
#
# 1 0.007958 -0.003253 -0.000554 0.004765 0.000000 0.000000
# 2 -0.003253 0.007958 -0.000554 -0.004765 0.000000 0.000000
# 3 -0.000554 -0.000554 0.008096 0.000000 0.000000 0.000000
# 4 0.004765 -0.004765 0.000000 0.029347 0.000000 0.000000
# 5 0.000000 0.000000 0.000000 0.000000 0.029347 0.009530
# 6 0.000000 0.000000 0.000000 0.000000 0.009530 0.022422
#
#
# Mechanical properties :
#
#
# Convention : Reuss Voigt Hill
#
# Bulk Modulus (GPa) = 65.40306 68.52202 66.96254
# Shear Modulus (GPa) = 42.03517 50.10648 46.07082
#
# Velocity S-wave (km/s) = 3.93612 4.29743 4.12073
# Velocity P-wave (km/s) = 6.69052 7.06252 6.87904
#
# Compressibility (1/GPa) = 0.01528981
#
# Stress axis : x y z
#
# Youngs Moduli (GPa) = 125.65496 125.65496 123.51473
#
# Poissons Ratio (x) = 0.40871 0.06848
# Poissons Ratio (y) = 0.40871 0.06848
# Poissons Ratio (z) = 0.06967 0.06967
#
# Static dielectric constant tensor:
#      x y z
#    x 2.275140 0.000000 0.000000 
#    y 0.000000 2.275140 0.000000 
#    z 0.000000 0.000000 2.296380 
# 
# From -- ./inp_files/3256.got.cif
#   From: 2010.05.17/outbox.cif.g08.bks.cpg/sg154_2_cif.got.tgz:3256.got - 2010.05.20 10:41:43.
