data_PCOD9576899
_publ_section_title
;
Structure prediction by ZEFSAII (Michael W. Deem and Ramdas Pophale) SiO2 
 PCOD9576899
Probable space group: R 3 2
;
_chemical_formula_sum "Si O2"
_cell_formula_units_Z 90
_cell_length_a 23.633041
_cell_length_b 23.633041
_cell_length_c 9.291925
_cell_angle_alpha 90.000000
_cell_angle_beta 90.000000
_cell_angle_gamma 120.000000
_cell_volume 4494.439557
_symmetry_space_group_name_H-M "R 3 2"
_symmetry_group_IT_number 155
_symmetry_cell_setting 'hexagonal'
loop_
_space_group_symop_operation_xyz
x,y,z
-y,x-y,z
-x+y,-x,z
x-y,-y,-z
-x,-x+y,-z
y,x,-z
2/3+x,1/3+y,1/3+z
2/3-y,1/3+x-y,1/3+z
2/3-x+y,1/3-x,1/3+z
2/3+x-y,1/3-y,1/3-z
2/3-x,1/3-x+y,1/3-z
2/3+y,1/3+x,1/3-z
1/3+x,2/3+y,2/3+z
1/3-y,2/3+x-y,2/3+z
1/3-x+y,2/3-x,2/3+z
1/3+x-y,2/3-y,2/3-z
1/3-x,2/3-x+y,2/3-z
1/3+y,2/3+x,2/3-z
loop_
_atom_site_type_symbol
_atom_site_label
_atom_site_fract_x
_atom_site_fract_y
_atom_site_fract_z
Si Si1 0.000000 0.874543 0.500000
Si Si2 0.421220 0.623726 0.914244
Si Si3 0.128202 0.128202 0.000000
Si Si4 0.557891 0.422002 0.583113
Si Si5 0.033578 0.431033 0.353682
Si Si6 0.468275 0.056768 0.086966
O O1 0.952599 0.886561 0.604545
O O2 0.957093 0.817109 0.388150
O O3 0.373359 0.596765 0.778881
O O4 0.470741 0.700436 0.910962
O O5 0.465038 0.588945 0.900325
O O6 0.139188 0.188812 0.898443
O O7 0.564092 0.491673 0.610887
O O8 0.087657 0.409131 0.329736
O O9 0.000000 0.395567 0.500000
O O10 0.977490 0.412407 0.236640
O O11 0.471198 0.000000 0.000000
#
# Coordination Sequence:
#
# PCOD9576899 Si02
#       6
#     9  18   9  18  18  18
#     4  10  20  36  52  70 106 146 186 218 288 300
#     4  10  21  37  52  78 112 144 184 235 267 326
#     4  10  20  36  52  70 106 146 186 218 288 300
#     4  10  21  37  52  78 112 144 184 235 267 326
#     4  11  21  34  55  82 118 148 184 217 268 333
#     4  11  21  34  55  82 118 148 184 217 268 333
#
# _framework density 20.024743999999998
#
# number of rings (size 3 to 8) (size 9 to 14) (size 15 to 20)
#    0.000    1.600    0.000    6.000    0.000    6.400 
#   24.000    0.000    0.000    0.000    0.000    0.000 
#  252.000    0.000    0.000    0.000    0.000    0.000 
#
# Total GULP energy -167532.179750 kJ/mol
# GULP energy per Si atom -5584.405992 kJ/mol
# Density = 1.997917 g / cm^3
# Si number density = 20.024744 Si / 1000 Ang^3
#
#
#
# Elastic Constant Matrix: (Units=GPa)
#
#
# Indices 1 2 3 4 5 6 
#
# 1 83.3830 32.3354 32.2641 -4.4721 0.0000 -0.0001
# 2 32.3354 83.3844 32.2717 4.4682 0.0014 0.0003
# 3 32.2641 32.2717 137.8306 -0.0179 0.0076 0.0006
# 4 -4.4721 4.4682 -0.0179 5.0983 -0.0085 -0.0026
# 5 0.0000 0.0014 0.0076 -0.0085 5.1240 -4.4639
# 6 -0.0001 0.0003 0.0006 -0.0026 -4.4639 25.5256
#
#
#
# Elastic Compliance Matrix: (Units=1/GPa)
#
#
# Indices 1 2 3 4 5 6 
#
# 1 0.016540 -0.006602 -0.002323 0.020286 0.000048 0.000011
# 2 -0.006602 0.016542 -0.002330 -0.020297 -0.000043 -0.000010
# 3 -0.002323 -0.002330 0.008345 0.000034 -0.000014 -0.000003
# 4 0.020286 -0.020297 0.000034 0.231729 0.000484 0.000109
# 5 0.000048 -0.000043 -0.000014 0.000484 0.230236 0.040264
# 6 0.000011 -0.000010 -0.000003 0.000109 0.040264 0.046218
#
#
# Mechanical properties :
#
#
# Convention : Reuss Voigt Hill
#
# Bulk Modulus (GPa) = 52.86592 55.37114 54.11853
# Shear Modulus (GPa) = 8.64414 20.99804 14.82109
#
# Velocity S-wave (km/s) = 2.07993 3.24173 2.72350
# Velocity P-wave (km/s) = 5.67677 6.45934 6.08066
#
# Compressibility (1/GPa) = 0.01891578
#
# Stress axis : x y z
#
# Youngs Moduli (GPa) = 60.45934 60.45091 119.83490
#
# Poissons Ratio (x) = 0.39909 0.27842
# Poissons Ratio (y) = 0.39914 0.27927
# Poissons Ratio (z) = 0.14047 0.14088
#
# Static dielectric constant tensor:
#      x y z
#    x 1.719960 0.000000 0.000000 
#    y 0.000000 1.719960 0.000000 
#    z 0.000000 0.000000 1.750110 
# 
# From -- ./inp_files/2832.got.cif
#   From: 2010.05.17/outbox.cif.g08.bks.cpg/sg155_2_cif.got.tgz:2832.got - 2010.05.20 10:44:35.
