data_PCOD9576676
_publ_section_title
;
Structure prediction by ZEFSAII (Michael W. Deem and Ramdas Pophale) SiO2 
 PCOD9576676
Probable space group: P 32 2 1
;
_chemical_formula_sum "Si O2"
_cell_formula_units_Z 30
_cell_length_a 7.338931
_cell_length_b 7.338931
_cell_length_c 25.237609
_cell_angle_alpha 90.000000
_cell_angle_beta 90.000000
_cell_angle_gamma 120.000000
_cell_volume 1177.184265
_symmetry_space_group_name_H-M "P 32 2 1"
_symmetry_group_IT_number 154
_symmetry_cell_setting 'hexagonal'
loop_
_space_group_symop_operation_xyz
x,y,z
-y,x-y,2/3+z
-x+y,-x,1/3+z
x-y,-y,1/3-z
-x,-x+y,2/3-z
y,x,-z
loop_
_atom_site_type_symbol
_atom_site_label
_atom_site_fract_x
_atom_site_fract_y
_atom_site_fract_z
Si Si1 0.480357 0.372809 0.442680
Si Si2 0.315614 0.245431 0.173101
Si Si3 0.264301 0.697291 0.702203
Si Si4 0.285139 0.841709 0.585773
Si Si5 0.295716 0.900846 0.426813
O O1 0.392950 0.392950 0.500000
O O2 0.469808 0.535990 0.402499
O O3 0.707930 0.384697 0.441714
O O4 0.336426 0.134806 0.421748
O O5 0.167391 0.265760 0.217957
O O6 0.239233 0.310984 0.120554
O O7 0.533360 0.432317 0.198916
O O8 0.251375 0.000000 0.166667
O O9 0.215251 0.728560 0.642770
O O10 0.468825 0.671820 0.707676
O O11 0.347554 0.916090 0.733579
#
# Coordination Sequence:
#
# PCOD9576676 Si02
#       5
#     6   6   6   6   6
#     4  11  24  43  71 100 140 191 240 297 365 436
#     4  11  23  42  68  99 136 180 235 294 352 427
#     4  11  24  45  68  99 148 185 232 308 362 439
#     4  10  24  44  70 104 140 188 241 294 373 439
#     4  11  24  40  67 100 133 180 238 292 352 436
#
# _framework density 25.484539999999999
#
# number of rings (size 3 to 8) (size 9 to 14) (size 15 to 20)
#    0.000    1.200    0.000    6.600    5.600    5.600 
#    0.000   11.000    0.000    0.000    0.000    0.000 
#    0.000    0.000    0.000    0.000    0.000    0.000 
#
# Total GULP energy -167689.298268 kJ/mol
# GULP energy per Si atom -5589.643276 kJ/mol
# Density = 2.542654 g / cm^3
# Si number density = 25.484540 Si / 1000 Ang^3
#
#
#
# Elastic Constant Matrix: (Units=GPa)
#
#
# Indices 1 2 3 4 5 6 
#
# 1 97.1281 11.4576 -9.9895 6.9129 0.0000 0.0000
# 2 11.4576 97.1281 -9.9895 -6.9129 0.0000 0.0000
# 3 -9.9895 -9.9895 61.9286 0.0000 0.0000 0.0000
# 4 6.9129 -6.9129 0.0000 31.1752 0.0000 0.0000
# 5 0.0000 0.0000 0.0000 0.0000 31.1752 6.9129
# 6 0.0000 0.0000 0.0000 0.0000 6.9129 42.8353
#
#
#
# Elastic Compliance Matrix: (Units=1/GPa)
#
#
# Indices 1 2 3 4 5 6 
#
# 1 0.010798 -0.001307 0.001531 -0.002684 0.000000 0.000000
# 2 -0.001307 0.010798 0.001531 0.002684 0.000000 0.000000
# 3 0.001531 0.001531 0.016642 0.000000 0.000000 0.000000
# 4 -0.002684 0.002684 0.000000 0.033267 0.000000 0.000000
# 5 0.000000 0.000000 0.000000 0.000000 0.033267 -0.005369
# 6 0.000000 0.000000 0.000000 0.000000 -0.005369 0.024212
#
#
# Mechanical properties :
#
#
# Convention : Reuss Voigt Hill
#
# Bulk Modulus (GPa) = 23.95361 26.57135 25.26248
# Shear Modulus (GPa) = 35.87021 38.68422 37.27721
#
# Velocity S-wave (km/s) = 3.75577 3.90031 3.82873
# Velocity P-wave (km/s) = 5.31295 5.54368 5.42954
#
# Compressibility (1/GPa) = 0.04174736
#
# Stress axis : x y z
#
# Youngs Moduli (GPa) = 92.60612 92.60612 60.09063
#
# Poissons Ratio (x) = 0.12108 -0.09200
# Poissons Ratio (y) = 0.12108 -0.09200
# Poissons Ratio (z) = -0.14178 -0.14178
#
# Static dielectric constant tensor:
#      x y z
#    x 2.124590 0.000000 0.000000 
#    y 0.000000 2.124590 0.000000 
#    z 0.000000 0.000000 1.814010 
# 
# From -- ./inp_files/3067.got.cif
#   From: 2010.05.17/outbox.cif.g08.bks.cpg/sg154_2_cif.got.tgz:3067.got - 2010.05.20 10:41:43.
