data_PCOD9576347
_publ_section_title
;
Structure prediction by ZEFSAII (Michael W. Deem and Ramdas Pophale) SiO2 
 PCOD9576347
Probable space group: P 32 1 2
;
_chemical_formula_sum "Si O2"
_cell_formula_units_Z 18
_cell_length_a 12.085052
_cell_length_b 12.085052
_cell_length_c 6.882665
_cell_angle_alpha 90.000000
_cell_angle_beta 90.000000
_cell_angle_gamma 120.000000
_cell_volume 870.531138
_symmetry_space_group_name_H-M "P 32 1 2"
_symmetry_group_IT_number 153
_symmetry_cell_setting 'hexagonal'
loop_
_space_group_symop_operation_xyz
x,y,z
-y,x-y,2/3+z
-x+y,-x,1/3+z
-y,-x,1/3-z
-x+y,y,2/3-z
x,x-y,-z
loop_
_atom_site_type_symbol
_atom_site_label
_atom_site_fract_x
_atom_site_fract_y
_atom_site_fract_z
Si Si1 0.870867 0.669039 0.616414
Si Si2 0.041994 0.292735 0.714860
Si Si3 0.788671 0.394336 0.500000
Si Si4 0.455945 0.727973 0.500000
O O1 0.753501 0.664191 0.496326
O O2 0.865519 0.533649 0.596409
O O3 0.999476 0.763917 0.499528
O O4 0.849896 0.699791 0.833334
O O5 0.118723 0.237445 0.833334
O O6 0.137011 0.444478 0.730689
O O7 0.699779 0.399558 0.333334
O O8 0.370398 0.740796 0.333334
#
# Coordination Sequence:
#
# PCOD9576347 Si02
#       4
#     6   6   3   3
#     4  11  23  41  71 100 133 183 229 300 364 430
#     4   9  23  45  61  98 143 174 238 286 357 425
#     4  12  22  37  62 106 137 172 216 290 378 426
#     4  10  24  43  68 102 141 194 240 290 358 430
#
# _framework density 20.677029000000001
#
# number of rings (size 3 to 8) (size 9 to 14) (size 15 to 20)
#    1.000    0.667    5.000    0.000    0.000    9.333 
#    0.000    6.667    0.000    0.000    0.000    0.000 
#    0.000    0.000    0.000    0.000    0.000    0.000 
#
# Total GULP energy -100265.707820 kJ/mol
# GULP energy per Si atom -5570.317101 kJ/mol
# Density = 2.062997 g / cm^3
# Si number density = 20.677029 Si / 1000 Ang^3
#
#
#
# Elastic Constant Matrix: (Units=GPa)
#
#
# Indices 1 2 3 4 5 6 
#
# 1 100.4166 40.3674 54.0820 -0.0006 -4.3879 0.0000
# 2 40.3674 100.4166 54.0820 0.0006 4.3879 0.0000
# 3 54.0820 54.0820 183.4070 0.0000 0.0000 0.0000
# 4 -0.0006 0.0006 0.0000 21.4729 0.0000 4.3879
# 5 -4.3879 4.3879 0.0000 0.0000 21.4729 -0.0006
# 6 0.0000 0.0000 0.0000 4.3879 -0.0006 30.0246
#
#
#
# Elastic Compliance Matrix: (Units=1/GPa)
#
#
# Indices 1 2 3 4 5 6 
#
# 1 0.013175 -0.003991 -0.002708 0.000000 0.003508 0.000000
# 2 -0.003991 0.013175 -0.002708 0.000000 -0.003508 0.000000
# 3 -0.002708 -0.002708 0.007049 0.000000 0.000000 0.000000
# 4 0.000000 0.000000 0.000000 0.048004 0.000000 -0.007015
# 5 0.003508 -0.003508 0.000000 0.000000 0.048004 0.000001
# 6 0.000000 0.000000 0.000000 -0.007015 0.000001 0.034331
#
#
# Mechanical properties :
#
#
# Convention : Reuss Voigt Hill
#
# Bulk Modulus (GPa) = 68.56540 75.70034 72.13287
# Shear Modulus (GPa) = 26.67896 30.30797 28.49346
#
# Velocity S-wave (km/s) = 3.59593 3.83270 3.71620
# Velocity P-wave (km/s) = 7.10444 7.50177 7.30581
#
# Compressibility (1/GPa) = 0.01458462
#
# Stress axis : x y z
#
# Youngs Moduli (GPa) = 75.90331 75.90331 141.85585
#
# Poissons Ratio (x) = 0.30293 0.38415
# Poissons Ratio (y) = 0.30293 0.38415
# Poissons Ratio (z) = 0.20555 0.20555
#
# Static dielectric constant tensor:
#      x y z
#    x 1.767760 0.000000 0.000000 
#    y 0.000000 1.767760 0.000000 
#    z 0.000000 0.000000 1.862880 
# 
# From -- ./inp_files/1270.got.cif
#   From: 2010.05.17/outbox.cif.g08.bks.cpg/sg153_1_cif.got.tgz:1270.got - 2010.05.20 10:38:56.
