data_PCOD9576155
_publ_section_title
;
Structure prediction by ZEFSAII (Michael W. Deem and Ramdas Pophale) SiO2 
 PCOD9576155
Probable space group: P 31 2 1
;
_chemical_formula_sum "Si O2"
_cell_formula_units_Z 24
_cell_length_a 14.643332
_cell_length_b 14.643332
_cell_length_c 4.747097
_cell_angle_alpha 90.000000
_cell_angle_beta 90.000000
_cell_angle_gamma 120.000000
_cell_volume 881.532961
_symmetry_space_group_name_H-M "P 31 2 1"
_symmetry_group_IT_number 152
_symmetry_cell_setting 'hexagonal'
loop_
_space_group_symop_operation_xyz
x,y,z
-y,x-y,1/3+z
-x+y,-x,2/3+z
x-y,-y,2/3-z
-x,-x+y,1/3-z
y,x,-z
loop_
_atom_site_type_symbol
_atom_site_label
_atom_site_fract_x
_atom_site_fract_y
_atom_site_fract_z
Si Si1 0.890654 0.183521 0.334618
Si Si2 0.896918 0.000000 0.333334
Si Si3 0.340557 0.831087 0.396857
Si Si4 0.669464 0.000000 0.333334
Si Si5 0.139339 0.614062 0.262442
O O1 0.886561 0.086943 0.516348
O O2 0.878362 0.270400 0.495514
O O3 0.000000 0.246199 0.166667
O O4 0.776089 0.100157 0.192183
O O5 0.927214 0.927214 0.500000
O O6 0.254575 0.708487 0.351418
O O7 0.389988 0.878937 0.097324
O O8 0.436281 0.852409 0.607338
O O9 0.583855 0.942821 0.083968
#
# Coordination Sequence:
#
# PCOD9576155 Si02
#       5
#     6   3   6   3   6
#     4   9  20  41  67  97 133 172 234 282 339 412
#     4   9  18  40  65  92 130 176 219 284 352 401
#     4  11  23  41  68 102 134 183 226 280 332 416
#     4   9  22  40  65 100 138 180 221 288 352 407
#     4  11  23  41  68  97 142 178 226 276 345 403
#
# _framework density 27.225301999999999
#
# number of rings (size 3 to 8) (size 9 to 14) (size 15 to 20)
#    0.000    2.000    0.000    3.000    3.500    0.000 
#    9.000    2.500   38.500    0.000    0.000    0.000 
#    0.000    0.000    0.000    0.000    0.000    0.000 
#
# Total GULP energy -133850.928678 kJ/mol
# GULP energy per Si atom -5577.122028 kJ/mol
# Density = 2.716334 g / cm^3
# Si number density = 27.225302 Si / 1000 Ang^3
#
#
#
# Elastic Constant Matrix: (Units=GPa)
#
#
# Indices 1 2 3 4 5 6 
#
# 1 119.3488 37.0751 11.9803 -1.7266 -0.0001 0.0000
# 2 37.0751 119.3488 11.9803 1.7266 0.0001 0.0000
# 3 11.9803 11.9803 92.4015 0.0000 0.0000 0.0000
# 4 -1.7266 1.7266 0.0000 17.4378 0.0000 0.0001
# 5 -0.0001 0.0001 0.0000 0.0000 17.4378 -1.7266
# 6 0.0000 0.0000 0.0000 0.0001 -1.7266 41.1369
#
#
#
# Elastic Compliance Matrix: (Units=1/GPa)
#
#
# Indices 1 2 3 4 5 6 
#
# 1 0.009364 -0.002841 -0.000846 0.001209 0.000000 0.000000
# 2 -0.002841 0.009364 -0.000846 -0.001209 0.000000 0.000000
# 3 -0.000846 -0.000846 0.011042 0.000000 0.000000 0.000000
# 4 0.001209 -0.001209 0.000000 0.057586 0.000000 0.000000
# 5 0.000000 0.000000 0.000000 0.000000 0.057586 0.002417
# 6 0.000000 0.000000 0.000000 0.000000 0.002417 0.024411
#
#
# Mechanical properties :
#
#
# Convention : Reuss Voigt Hill
#
# Bulk Modulus (GPa) = 48.30031 50.35229 49.32630
# Shear Modulus (GPa) = 26.98051 33.20670 30.09361
#
# Velocity S-wave (km/s) = 3.15144 3.49621 3.32829
# Velocity P-wave (km/s) = 5.56970 5.90193 5.73822
#
# Compressibility (1/GPa) = 0.02070380
#
# Stress axis : x y z
#
# Youngs Moduli (GPa) = 106.79370 106.79370 90.56641
#
# Poissons Ratio (x) = 0.30345 0.07659
# Poissons Ratio (y) = 0.30345 0.07659
# Poissons Ratio (z) = 0.09031 0.09031
#
# Static dielectric constant tensor:
#      x y z
#    x 2.391840 0.000000 0.000000 
#    y 0.000000 2.391840 0.000000 
#    z 0.000000 0.000000 2.123350 
# 
# From -- ./inp_files/215.got.cif
#   From: 2010.05.17/outbox.cif.g08.bks.cpg/sg152_1_cif.got.tgz:215.got - 2010.05.20 10:36:06.
