data_PCOD9576356
_publ_section_title
;
Structure prediction by ZEFSAII (Michael W. Deem and Ramdas Pophale) SiO2 
 PCOD9576356
Probable space group: P 32 1 2
;
_chemical_formula_sum "Si O2"
_cell_formula_units_Z 33
_cell_length_a 14.670230
_cell_length_b 14.670230
_cell_length_c 9.932284
_cell_angle_alpha 90.000000
_cell_angle_beta 90.000000
_cell_angle_gamma 120.000000
_cell_volume 1851.201128
_symmetry_space_group_name_H-M "P 32 1 2"
_symmetry_group_IT_number 153
_symmetry_cell_setting 'hexagonal'
loop_
_space_group_symop_operation_xyz
x,y,z
-y,x-y,2/3+z
-x+y,-x,1/3+z
-y,-x,1/3-z
-x+y,y,2/3-z
x,x-y,-z
loop_
_atom_site_type_symbol
_atom_site_label
_atom_site_fract_x
_atom_site_fract_y
_atom_site_fract_z
Si Si1 0.023025 0.840940 0.283894
Si Si2 0.933574 0.601813 0.223511
Si Si3 0.699867 0.606887 0.876432
Si Si4 0.485072 0.313149 0.169756
Si Si5 0.151823 0.966884 0.531952
Si Si6 0.520617 0.479384 0.666667
O O1 0.073784 0.926217 0.166667
O O2 0.100584 0.885500 0.409916
O O3 0.914441 0.828881 0.333334
O O4 0.995415 0.727565 0.229329
O O5 0.909203 0.560188 0.377588
O O6 0.811582 0.555150 0.173810
O O7 0.995911 0.566312 0.121585
O O8 0.809210 0.618419 0.833334
O O9 0.724333 0.726511 0.878367
O O10 0.620109 0.528667 0.765889
O O11 0.669469 0.557600 0.023824
O O12 0.611572 0.388429 0.166667
O O13 0.086594 0.913407 0.666667
O O14 0.145937 0.072969 0.500000
#
# Coordination Sequence:
#
# PCOD9576356 Si02
#       6
#     6   6   6   6   6   3
#     4  12  23  38  58  87 124 168 208 251 303 359
#     4  11  24  38  57  83 125 157 208 258 295 372
#     4  11  23  38  56  85 125 157 200 257 296 367
#     4  11  21  37  57  81 114 167 197 245 311 357
#     4  11  23  38  60  87 124 165 209 246 300 367
#     4  12  22  38  56  82 114 158 200 248 312 352
#
# _framework density 17.826263999999998
#
# number of rings (size 3 to 8) (size 9 to 14) (size 15 to 20)
#    0.000    0.727    5.455    4.364    2.545    2.182 
#    0.000    0.000    0.000    0.000    0.000    0.000 
#   24.545    0.000    0.000    0.000    0.000    0.000 
#
# Total GULP energy -183878.930179 kJ/mol
# GULP energy per Si atom -5572.088793 kJ/mol
# Density = 1.778569 g / cm^3
# Si number density = 17.826264 Si / 1000 Ang^3
#
#
#
# Elastic Constant Matrix: (Units=GPa)
#
#
# Indices 1 2 3 4 5 6 
#
# 1 81.8728 25.7602 24.1144 -0.0003 13.1637 0.0000
# 2 25.7602 81.8728 24.1144 0.0003 -13.1637 0.0000
# 3 24.1144 24.1144 138.3515 0.0000 0.0000 0.0000
# 4 -0.0003 0.0003 0.0000 24.9691 0.0000 -13.1637
# 5 13.1637 -13.1637 0.0000 0.0000 24.9691 -0.0003
# 6 0.0000 0.0000 0.0000 -13.1637 -0.0003 28.0563
#
#
#
# Elastic Compliance Matrix: (Units=1/GPa)
#
#
# Indices 1 2 3 4 5 6 
#
# 1 0.016878 -0.006800 -0.001757 0.000000 -0.012483 0.000000
# 2 -0.006800 0.016878 -0.001757 0.000000 0.012483 0.000000
# 3 -0.001757 -0.001757 0.007840 0.000000 0.000000 0.000000
# 4 0.000000 0.000000 0.000000 0.053212 0.000000 0.024966
# 5 -0.012483 0.012483 0.000000 0.000000 0.053212 0.000001
# 6 0.000000 0.000000 0.000000 0.024966 0.000001 0.047356
#
#
# Mechanical properties :
#
#
# Convention : Reuss Voigt Hill
#
# Bulk Modulus (GPa) = 47.68740 50.00832 48.84786
# Shear Modulus (GPa) = 22.42229 30.80612 26.61421
#
# Velocity S-wave (km/s) = 3.55043 4.16159 3.86810
# Velocity P-wave (km/s) = 6.60429 7.15583 6.88558
#
# Compressibility (1/GPa) = 0.02096990
#
# Stress axis : x y z
#
# Youngs Moduli (GPa) = 59.24849 59.24849 127.54622
#
# Poissons Ratio (x) = 0.40290 0.22404
# Poissons Ratio (y) = 0.40290 0.22404
# Poissons Ratio (z) = 0.10407 0.10407
#
# Static dielectric constant tensor:
#      x y z
#    x 1.636220 0.000000 0.000000 
#    y 0.000000 1.636220 0.000000 
#    z 0.000000 0.000000 1.671670 
# 
# From -- ./inp_files/1669.got.cif
#   From: 2010.05.17/outbox.cif.g08.bks.cpg/sg153_1_cif.got.tgz:1669.got - 2010.05.20 10:38:56.
