data_PCOD9576942
_publ_section_title
;
Structure prediction by ZEFSAII (Michael W. Deem and Ramdas Pophale) SiO2 
 PCOD9576942
Probable space group: R 3 2
;
_chemical_formula_sum "Si O2"
_cell_formula_units_Z 63
_cell_length_a 19.835470
_cell_length_b 19.835470
_cell_length_c 9.279913
_cell_angle_alpha 90.000000
_cell_angle_beta 90.000000
_cell_angle_gamma 120.000000
_cell_volume 3161.982976
_symmetry_space_group_name_H-M "R 3 2"
_symmetry_group_IT_number 155
_symmetry_cell_setting 'hexagonal'
loop_
_space_group_symop_operation_xyz
x,y,z
-y,x-y,z
-x+y,-x,z
x-y,-y,-z
-x,-x+y,-z
y,x,-z
2/3+x,1/3+y,1/3+z
2/3-y,1/3+x-y,1/3+z
2/3-x+y,1/3-x,1/3+z
2/3+x-y,1/3-y,1/3-z
2/3-x,1/3-x+y,1/3-z
2/3+y,1/3+x,1/3-z
1/3+x,2/3+y,2/3+z
1/3-y,2/3+x-y,2/3+z
1/3-x+y,2/3-x,2/3+z
1/3+x-y,2/3-y,2/3-z
1/3-x,2/3-x+y,2/3-z
1/3+y,2/3+x,2/3-z
loop_
_atom_site_type_symbol
_atom_site_label
_atom_site_fract_x
_atom_site_fract_y
_atom_site_fract_z
Si Si1 0.861122 0.333334 0.833334
Si Si2 0.871260 0.203107 0.004977
Si Si3 0.354115 0.424581 0.327259
Si Si4 0.245510 0.120202 0.739595
O O1 0.936377 0.390035 0.744045
O O2 0.800395 0.278504 0.708487
O O3 0.897434 0.230767 0.166667
O O4 0.778447 0.142455 0.016356
O O5 0.906285 0.163979 0.897566
O O6 0.325865 0.333334 0.333334
O O7 0.296919 0.440684 0.424994
O O8 0.333334 0.438335 0.166667
O O9 0.333334 0.163704 0.666667
#
# Coordination Sequence:
#
# PCOD9576942 Si02
#       4
#     9  18  18  18
#     4  10  20  40  50  72 120 154 210 232 284 380
#     4  11  23  36  58  89 116 166 204 258 323 372
#     4  11  17  33  61  92 124 149 191 255 326 380
#     4   9  19  35  54  80 112 157 192 249 301 363
#
# _framework density 19.924205000000001
#
# number of rings (size 3 to 8) (size 9 to 14) (size 15 to 20)
#    0.000    1.714    8.571    0.857    0.000    1.143 
#   23.143    0.000    0.000    4.571    0.000    0.000 
#    0.000    9.143    0.000    0.000    0.000    0.000 
#
# Total GULP energy -116961.757666 kJ/mol
# GULP energy per Si atom -5569.607508 kJ/mol
# Density = 1.987886 g / cm^3
# Si number density = 19.924205 Si / 1000 Ang^3
#
#
#
# Elastic Constant Matrix: (Units=GPa)
#
#
# Indices 1 2 3 4 5 6 
#
# 1 43.5320 45.0668 16.9133 7.8665 0.0004 -0.0001
# 2 45.0668 43.5321 16.9140 -7.8666 -0.0005 0.0001
# 3 16.9133 16.9140 135.9962 0.0000 -0.0003 -0.0001
# 4 7.8665 -7.8666 0.0000 12.8260 -0.0001 -0.0005
# 5 0.0004 -0.0005 -0.0003 -0.0001 12.8258 7.8666
# 6 -0.0001 0.0001 -0.0001 -0.0005 7.8666 -0.7674
#
#
#
# Elastic Compliance Matrix: (Units=1/GPa)
#
#
# Indices 1 2 3 4 5 6 
#
# 1 -0.038780 0.050630 -0.001474 0.054838 0.000002 0.000002
# 2 0.050630 -0.038781 -0.001473 -0.054838 -0.000002 -0.000002
# 3 -0.001474 -0.001473 0.007720 0.000000 0.000000 0.000000
# 4 0.054838 -0.054838 0.000000 0.010699 0.000001 -0.000009
# 5 0.000002 -0.000002 0.000000 0.000001 0.010699 0.109676
# 6 0.000002 -0.000002 0.000000 -0.000009 0.109676 -0.178818
#
#
# Mechanical properties :
#
#
# Convention : Reuss Voigt Hill
#
# Bulk Modulus (GPa) = 39.17898 42.31649 40.74774
# Shear Modulus (GPa) = -15.91754 14.58795 -0.66479
#
# Velocity S-wave (km/s) = -2.82956 2.70880 -0.57826
# Velocity P-wave (km/s) = 3.00525 5.57390 4.47771
#
# Compressibility (1/GPa) = 0.02552389
#
# Stress axis : x y z
#
# Youngs Moduli (GPa) = -25.78617 -25.78606 129.53854
#
# Poissons Ratio (x) = 1.30555 0.19093
# Poissons Ratio (y) = 1.30556 0.19087
# Poissons Ratio (z) = -0.03801 -0.03800
#
# Static dielectric constant tensor:
#      x y z
#    x 1.740580 0.000000 0.000000 
#    y 0.000000 1.740580 0.000000 
#    z 0.000000 0.000000 1.851990 
# 
# From -- ./inp_files/1967.got.cif
#   From: 2010.05.17/outbox.cif.g08.bks.cpg/sg155_1_cif.got.tgz:1967.got - 2010.05.20 10:44:35.
