data_PCOD9576501
_publ_section_title
;
Structure prediction by ZEFSAII (Michael W. Deem and Ramdas Pophale) SiO2 
 PCOD9576501
Probable space group: P 32 2 1
;
_chemical_formula_sum "Si O2"
_cell_formula_units_Z 45
_cell_length_a 14.331511
_cell_length_b 14.331511
_cell_length_c 11.710533
_cell_angle_alpha 90.000000
_cell_angle_beta 90.000000
_cell_angle_gamma 120.000000
_cell_volume 2083.009529
_symmetry_space_group_name_H-M "P 32 2 1"
_symmetry_group_IT_number 154
_symmetry_cell_setting 'hexagonal'
loop_
_space_group_symop_operation_xyz
x,y,z
-y,x-y,2/3+z
-x+y,-x,1/3+z
x-y,-y,1/3-z
-x,-x+y,2/3-z
y,x,-z
loop_
_atom_site_type_symbol
_atom_site_label
_atom_site_fract_x
_atom_site_fract_y
_atom_site_fract_z
Si Si1 0.315776 0.522680 0.950114
Si Si2 0.110810 0.514536 0.869804
Si Si3 0.818187 0.860746 0.820604
Si Si4 0.001424 0.000000 0.666667
Si Si5 0.274839 0.386871 0.155939
Si Si6 0.673187 0.104225 0.949753
Si Si7 0.325370 0.192986 0.485336
Si Si8 0.767215 0.465003 0.976918
O O1 0.192690 0.495160 0.942761
O O2 0.343978 0.512662 0.819024
O O3 0.315391 0.432512 0.030390
O O4 0.388810 0.640154 0.004923
O O5 0.177208 0.585832 0.759944
O O6 0.000000 0.411877 0.833334
O O7 0.077592 0.585260 0.950765
O O8 0.703168 0.852170 0.822253
O O9 0.820530 0.752285 0.845247
O O10 0.885325 0.904777 0.704267
O O11 0.902476 0.950437 0.907881
O O12 0.337647 0.336802 0.220654
O O13 0.304548 0.492119 0.231194
O O14 0.782561 0.156899 0.023893
O O15 0.257902 0.257902 0.500000
O O16 0.426023 0.234247 0.570348
#
# Coordination Sequence:
#
# PCOD9576501 Si02
#       8
#     6   6   6   3   6   6   6   6
#     4  12  28  43  66 104 140 178 226 290 364 418
#     4  11  22  46  75  95 123 180 238 290 339 412
#     4  11  23  39  65 102 135 185 229 292 353 430
#     4  10  20  38  64  94 140 180 232 276 356 420
#     4  12  24  44  65  97 141 179 224 284 359 426
#     4  11  23  45  67  93 140 180 223 277 353 419
#     4  11  20  44  74 103 133 181 244 293 341 424
#     4  11  22  45  73  96 130 177 233 289 343 410
#
# _framework density 21.603356999999999
#
# number of rings (size 3 to 8) (size 9 to 14) (size 15 to 20)
#    0.000    0.800    4.000    5.200    1.867    2.133 
#    7.200    0.000    0.000    0.000    0.000    0.000 
#    0.000    0.000    0.000    0.000    0.000    0.000 
#
# Total GULP energy -251305.526017 kJ/mol
# GULP energy per Si atom -5584.567245 kJ/mol
# Density = 2.155419 g / cm^3
# Si number density = 21.603357 Si / 1000 Ang^3
#
#
#
# Elastic Constant Matrix: (Units=GPa)
#
#
# Indices 1 2 3 4 5 6 
#
# 1 76.0047 39.0402 34.5132 0.0863 0.0000 0.0000
# 2 39.0402 76.0047 34.5132 -0.0863 0.0000 0.0000
# 3 34.5132 34.5132 108.5376 0.0000 0.0000 0.0000
# 4 0.0863 -0.0863 0.0000 27.9400 0.0000 0.0000
# 5 0.0000 0.0000 0.0000 0.0000 27.9400 0.0863
# 6 0.0000 0.0000 0.0000 0.0000 0.0863 18.4822
#
#
#
# Elastic Compliance Matrix: (Units=1/GPa)
#
#
# Indices 1 2 3 4 5 6 
#
# 1 0.018898 -0.008156 -0.003416 -0.000084 0.000000 0.000000
# 2 -0.008156 0.018898 -0.003416 0.000084 0.000000 0.000000
# 3 -0.003416 -0.003416 0.011386 0.000000 0.000000 0.000000
# 4 -0.000084 0.000084 0.000000 0.035791 0.000000 0.000000
# 5 0.000000 0.000000 0.000000 0.000000 0.035791 -0.000167
# 6 0.000000 0.000000 0.000000 0.000000 -0.000167 0.054107
#
#
# Mechanical properties :
#
#
# Convention : Reuss Voigt Hill
#
# Bulk Modulus (GPa) = 52.06634 52.96446 52.51540
# Shear Modulus (GPa) = 23.66899 25.03781 24.35340
#
# Velocity S-wave (km/s) = 3.31360 3.40807 3.36117
# Velocity P-wave (km/s) = 6.22843 6.32903 6.27893
#
# Compressibility (1/GPa) = 0.01920627
#
# Stress axis : x y z
#
# Youngs Moduli (GPa) = 52.91700 52.91700 87.82984
#
# Poissons Ratio (x) = 0.43158 0.30000
# Poissons Ratio (y) = 0.43158 0.30000
# Poissons Ratio (z) = 0.18075 0.18075
#
# Static dielectric constant tensor:
#      x y z
#    x 1.807300 0.000000 0.000000 
#    y 0.000000 1.807300 0.000000 
#    z 0.000000 0.000000 1.863650 
# 
# From -- ./inp_files/1801.got.cif
#   From: 2010.05.17/outbox.cif.g08.bks.cpg/sg154_1_cif.got.tgz:1801.got - 2010.05.20 10:41:43.
