data_PCOD9576873
_publ_section_title
;
Structure prediction by ZEFSAII (Michael W. Deem and Ramdas Pophale) SiO2 
 PCOD9576873
Probable space group: R 3 2
;
_chemical_formula_sum "Si O2"
_cell_formula_units_Z 108
_cell_length_a 17.228942
_cell_length_b 17.228942
_cell_length_c 25.723481
_cell_angle_alpha 90.000000
_cell_angle_beta 90.000000
_cell_angle_gamma 120.000000
_cell_volume 6612.681239
_symmetry_space_group_name_H-M "R 3 2"
_symmetry_group_IT_number 155
_symmetry_cell_setting 'hexagonal'
loop_
_space_group_symop_operation_xyz
x,y,z
-y,x-y,z
-x+y,-x,z
x-y,-y,-z
-x,-x+y,-z
y,x,-z
2/3+x,1/3+y,1/3+z
2/3-y,1/3+x-y,1/3+z
2/3-x+y,1/3-x,1/3+z
2/3+x-y,1/3-y,1/3-z
2/3-x,1/3-x+y,1/3-z
2/3+y,1/3+x,1/3-z
1/3+x,2/3+y,2/3+z
1/3-y,2/3+x-y,2/3+z
1/3-x+y,2/3-x,2/3+z
1/3+x-y,2/3-y,2/3-z
1/3-x,2/3-x+y,2/3-z
1/3+y,2/3+x,2/3-z
loop_
_atom_site_type_symbol
_atom_site_label
_atom_site_fract_x
_atom_site_fract_y
_atom_site_fract_z
Si Si1 0.906313 0.274429 0.283759
Si Si2 0.701446 0.941096 0.950424
Si Si3 0.152992 0.486587 0.007287
Si Si4 0.999738 0.819660 0.659380
Si Si5 0.614751 0.045608 0.779962
Si Si6 0.287727 0.051917 0.446629
O O1 0.908516 0.333334 0.333334
O O2 0.807781 0.192217 0.273630
O O3 0.967471 0.232033 0.302197
O O4 0.954816 0.341726 0.236671
O O5 0.597890 0.898697 0.968861
O O6 0.720240 0.008392 0.903336
O O7 0.758144 0.000000 0.000000
O O8 0.118938 0.447139 0.065059
O O9 0.257557 0.515114 0.004921
O O10 0.138091 0.569045 0.996046
O O11 0.005132 0.785604 0.601609
O O12 0.666667 0.083636 0.833334
O O13 0.515060 0.030120 0.783390
O O14 0.249703 0.000000 0.500000
#
# Coordination Sequence:
#
# PCOD9576873 Si02
#       6
#    18  18  18  18  18  18
#     4   9  18  32  50  71  94 122 157 195 234 276
#     4   9  18  32  50  71  94 122 157 195 234 276
#     4   9  17  29  46  69  96 125 157 194 235 278
#     4   9  17  29  46  69  96 125 157 194 235 278
#     4  10  20  32  48  70  95 124 157 191 230 278
#     4  10  20  32  48  70  95 124 157 191 230 278
#
# _framework density 16.332256000000001
#
# number of rings (size 3 to 8) (size 9 to 14) (size 15 to 20)
#    0.000    2.667    0.000    4.333    0.000    8.000 
#    0.000    0.000    0.000   11.333    0.000    2.333 
#    0.000    0.000    0.000    0.000    0.000    0.000 
#
# Total GULP energy -200731.490237 kJ/mol
# GULP energy per Si atom -5575.874729 kJ/mol
# Density = 1.629508 g / cm^3
# Si number density = 16.332256 Si / 1000 Ang^3
#
#
#
# Elastic Constant Matrix: (Units=GPa)
#
#
# Indices 1 2 3 4 5 6 
#
# 1 82.7299 63.4795 24.2827 3.7345 -0.0002 0.0000
# 2 63.4795 82.7299 24.2827 -3.7345 0.0002 0.0000
# 3 24.2827 24.2827 47.1610 0.0000 0.0000 0.0000
# 4 3.7345 -3.7345 0.0000 15.4941 0.0000 0.0002
# 5 -0.0002 0.0002 0.0000 0.0000 15.4941 3.7345
# 6 0.0000 0.0000 0.0000 0.0002 3.7345 9.6252
#
#
#
# Elastic Compliance Matrix: (Units=1/GPa)
#
#
# Indices 1 2 3 4 5 6 
#
# 1 0.032778 -0.024528 -0.004248 -0.013812 0.000001 0.000000
# 2 -0.024528 0.032778 -0.004248 0.013812 -0.000001 0.000000
# 3 -0.004248 -0.004248 0.025579 0.000000 0.000000 0.000000
# 4 -0.013812 0.013812 0.000000 0.071199 0.000000 -0.000002
# 5 0.000001 -0.000001 0.000000 0.000000 0.071199 -0.027624
# 6 0.000000 0.000000 0.000000 -0.000002 -0.027624 0.114612
#
#
# Mechanical properties :
#
#
# Convention : Reuss Voigt Hill
#
# Bulk Modulus (GPa) = 39.86093 48.52339 44.19216
# Shear Modulus (GPa) = 11.83278 14.82775 13.33026
#
# Velocity S-wave (km/s) = 2.69458 3.01638 2.86001
# Velocity P-wave (km/s) = 5.84297 6.47349 6.16629
#
# Compressibility (1/GPa) = 0.02508722
#
# Stress axis : x y z
#
# Youngs Moduli (GPa) = 30.50802 30.50802 39.09518
#
# Poissons Ratio (x) = 0.74829 0.16608
# Poissons Ratio (y) = 0.74829 0.16608
# Poissons Ratio (z) = 0.12960 0.12960
#
# Static dielectric constant tensor:
#      x y z
#    x 1.546330 0.000000 0.000000 
#    y 0.000000 1.546330 0.000000 
#    z 0.000000 0.000000 1.536120 
# 
# From -- ./inp_files/7465.got.cif
#   From: 2010.05.17/outbox.cif.g08.bks.cpg/sg155_4_cif.got.tgz:7465.got - 2010.05.20 10:44:35.
