data_PCOD9576690
_publ_section_title
;
Structure prediction by ZEFSAII (Michael W. Deem and Ramdas Pophale) SiO2 
 PCOD9576690
Probable space group: P 32 2 1
;
_chemical_formula_sum "Si O2"
_cell_formula_units_Z 36
_cell_length_a 9.303696
_cell_length_b 9.303696
_cell_length_c 16.716278
_cell_angle_alpha 90.000000
_cell_angle_beta 90.000000
_cell_angle_gamma 120.000000
_cell_volume 1253.087043
_symmetry_space_group_name_H-M "P 32 2 1"
_symmetry_group_IT_number 154
_symmetry_cell_setting 'hexagonal'
loop_
_space_group_symop_operation_xyz
x,y,z
-y,x-y,2/3+z
-x+y,-x,1/3+z
x-y,-y,1/3-z
-x,-x+y,2/3-z
y,x,-z
loop_
_atom_site_type_symbol
_atom_site_label
_atom_site_fract_x
_atom_site_fract_y
_atom_site_fract_z
Si Si1 0.478659 0.160291 0.494115
Si Si2 0.740018 0.196824 0.987319
Si Si3 0.843983 0.668622 0.991528
Si Si4 0.146627 0.574449 0.218945
Si Si5 0.556107 0.776443 0.751143
Si Si6 0.234860 0.934104 0.251538
O O1 0.439466 0.222274 0.413238
O O2 0.392948 0.197503 0.567680
O O3 0.681436 0.265751 0.495566
O O4 0.369992 0.953627 0.479150
O O5 0.906411 0.316758 0.940063
O O6 0.687359 0.007852 0.968632
O O7 0.596866 0.232618 0.966023
O O8 0.689457 0.535069 0.041893
O O9 0.838723 0.838723 0.000000
O O10 0.043838 0.602543 0.429476
O O11 0.232023 0.773675 0.218644
O O12 0.704833 0.825292 0.680737
O O13 0.185180 0.000000 0.166667
#
# Coordination Sequence:
#
# PCOD9576690 Si02
#       6
#     6   6   6   6   6   6
#     4  11  25  47  75 108 148 208 263 320 396 479
#     4  12  27  45  76 111 154 197 269 339 395 470
#     4  10  25  50  75 106 150 207 263 322 405 488
#     4  11  24  47  75 107 155 202 257 318 398 488
#     4  12  26  43  74 108 148 194 256 318 390 466
#     4  12  26  47  70 115 154 198 256 325 405 475
#
# _framework density 28.729047999999999
#
# number of rings (size 3 to 8) (size 9 to 14) (size 15 to 20)
#    0.000    0.667    5.000    1.500    4.667    0.000 
#    3.000    3.333    0.000    0.000    0.000    0.000 
#    0.000    0.000    0.000    0.000    0.000    0.000 
#
# Total GULP energy -200500.542186 kJ/mol
# GULP energy per Si atom -5569.459505 kJ/mol
# Density = 2.866366 g / cm^3
# Si number density = 28.729048 Si / 1000 Ang^3
#
#
#
# Elastic Constant Matrix: (Units=GPa)
#
#
# Indices 1 2 3 4 5 6 
#
# 1 94.1849 98.8481 49.1869 -85.2866 0.0001 0.0000
# 2 98.8481 94.1849 49.1869 85.2866 -0.0001 0.0000
# 3 49.1869 49.1869 209.6541 0.0000 0.0000 0.0000
# 4 -85.2866 85.2866 0.0000 -225.2834 0.0000 -0.0001
# 5 0.0001 -0.0001 0.0000 0.0000 -225.2834 -85.2866
# 6 0.0000 0.0000 0.0000 -0.0001 -85.2866 -2.3316
#
#
#
# Elastic Compliance Matrix: (Units=1/GPa)
#
#
# Indices 1 2 3 4 5 6 
#
# 1 0.011288 -0.005404 -0.001380 -0.006319 0.000000 0.000000
# 2 -0.005404 0.011288 -0.001380 0.006319 0.000000 0.000000
# 3 -0.001380 -0.001380 0.005417 0.000000 0.000000 0.000000
# 4 -0.006319 0.006319 0.000000 0.000345 0.000000 0.000000
# 5 0.000000 0.000000 0.000000 0.000000 0.000345 -0.012638
# 6 0.000000 0.000000 0.000000 0.000000 -0.012638 0.033383
#
#
# Mechanical properties :
#
#
# Convention : Reuss Voigt Hill
#
# Bulk Modulus (GPa) = 85.73631 88.05198 86.89414
# Shear Modulus (GPa) = 60.76577 -77.19286 -8.21354
#
# Velocity S-wave (km/s) = 4.60405 -5.18918 -1.69268
# Velocity P-wave (km/s) = 7.62698 2.27768 5.14699
#
# Compressibility (1/GPa) = 0.01166367
#
# Stress axis : x y z
#
# Youngs Moduli (GPa) = 88.59269 88.59269 184.58736
#
# Poissons Ratio (x) = 0.47872 0.25481
# Poissons Ratio (y) = 0.47872 0.25481
# Poissons Ratio (z) = 0.12230 0.12230
#
# Static dielectric constant tensor:
#      x y z
#    x 4.423540 0.000000 0.000000 
#    y 0.000000 4.423540 0.000000 
#    z 0.000000 0.000000 2.277900 
# 
# From -- ./inp_files/1969.got.cif
#   From: 2010.05.17/outbox.cif.g08.bks.cpg/sg154_1_cif.got.tgz:1969.got - 2010.05.20 10:41:43.
