data_PCOD9576815
_publ_section_title
;
Structure prediction by ZEFSAII (Michael W. Deem and Ramdas Pophale) SiO2 
 PCOD9576815
Probable space group: R 3 2
;
_chemical_formula_sum "Si O2"
_cell_formula_units_Z 63
_cell_length_a 13.998898
_cell_length_b 13.998898
_cell_length_c 15.938236
_cell_angle_alpha 90.000000
_cell_angle_beta 90.000000
_cell_angle_gamma 120.000000
_cell_volume 2704.945898
_symmetry_space_group_name_H-M "R 3 2"
_symmetry_group_IT_number 155
_symmetry_cell_setting 'hexagonal'
loop_
_space_group_symop_operation_xyz
x,y,z
-y,x-y,z
-x+y,-x,z
x-y,-y,-z
-x,-x+y,-z
y,x,-z
2/3+x,1/3+y,1/3+z
2/3-y,1/3+x-y,1/3+z
2/3-x+y,1/3-x,1/3+z
2/3+x-y,1/3-y,1/3-z
2/3-x,1/3-x+y,1/3-z
2/3+y,1/3+x,1/3-z
1/3+x,2/3+y,2/3+z
1/3-y,2/3+x-y,2/3+z
1/3-x+y,2/3-x,2/3+z
1/3+x-y,2/3-y,2/3-z
1/3-x,2/3-x+y,2/3-z
1/3+y,2/3+x,2/3-z
loop_
_atom_site_type_symbol
_atom_site_label
_atom_site_fract_x
_atom_site_fract_y
_atom_site_fract_z
Si Si1 0.917408 0.123182 0.265379
Si Si2 0.622540 0.503999 0.418811
Si Si3 0.796940 0.554837 0.692415
Si Si4 0.078093 0.411426 0.166667
O O1 0.930998 0.097287 0.168867
O O2 0.840147 0.177067 0.265552
O O3 0.037962 0.214559 0.294898
O O4 0.877623 0.026353 0.332558
O O5 0.666667 0.481001 0.333334
O O6 0.707870 0.632584 0.445968
O O7 0.906169 0.666667 0.666667
O O8 0.748505 0.560408 0.781561
#
# Coordination Sequence:
#
# PCOD9576815 Si02
#       4
#    18  18  18   9
#     4  10  22  36  66  97 131 173 230 274 334 405
#     4  10  18  43  66  88 120 192 226 256 323 423
#     4  12  21  41  63 100 142 179 219 291 340 397
#     4  10  18  36  70  88 120 186 220 252 334 406
#
# _framework density 23.290668
#
# number of rings (size 3 to 8) (size 9 to 14) (size 15 to 20)
#    0.000    1.714    8.571    0.571    0.000    1.143 
#    0.000   12.857    0.000    0.000    0.000    0.000 
#    0.000    0.000    0.000    0.000    0.000    0.000 
#
# Total GULP energy -117119.456485 kJ/mol
# GULP energy per Si atom -5577.116975 kJ/mol
# Density = 2.323766 g / cm^3
# Si number density = 23.290668 Si / 1000 Ang^3
#
#
#
# Elastic Constant Matrix: (Units=GPa)
#
#
# Indices 1 2 3 4 5 6 
#
# 1 64.4694 17.9226 30.1590 15.7801 0.0002 0.0000
# 2 17.9226 64.4694 30.1590 -15.7801 -0.0002 0.0000
# 3 30.1590 30.1590 109.3299 0.0000 0.0000 0.0000
# 4 15.7801 -15.7801 0.0000 31.5355 0.0000 -0.0002
# 5 0.0002 -0.0002 0.0000 0.0000 31.5355 15.7801
# 6 0.0000 0.0000 0.0000 -0.0002 15.7801 23.2734
#
#
#
# Elastic Compliance Matrix: (Units=1/GPa)
#
#
# Indices 1 2 3 4 5 6 
#
# 1 0.023862 -0.008654 -0.004195 -0.016271 0.000000 0.000000
# 2 -0.008654 0.023862 -0.004195 0.016271 0.000000 0.000000
# 3 -0.004195 -0.004195 0.011461 0.000000 0.000000 0.000000
# 4 -0.016271 0.016271 0.000000 0.047994 0.000000 0.000000
# 5 0.000000 0.000000 0.000000 0.000000 0.047994 -0.032541
# 6 0.000000 0.000000 0.000000 0.000000 -0.032541 0.065031
#
#
# Mechanical properties :
#
#
# Convention : Reuss Voigt Hill
#
# Bulk Modulus (GPa) = 39.84564 43.86113 41.85338
# Shear Modulus (GPa) = 19.03617 27.93740 23.48678
#
# Velocity S-wave (km/s) = 2.86200 3.46715 3.17901
# Velocity P-wave (km/s) = 5.29778 5.90772 5.61105
#
# Compressibility (1/GPa) = 0.02509685
#
# Stress axis : x y z
#
# Youngs Moduli (GPa) = 41.90755 41.90755 87.25085
#
# Poissons Ratio (x) = 0.36265 0.36604
# Poissons Ratio (y) = 0.36265 0.36604
# Poissons Ratio (z) = 0.17581 0.17581
#
# Static dielectric constant tensor:
#      x y z
#    x 1.875390 0.000000 0.000000 
#    y 0.000000 1.875390 0.000000 
#    z 0.000000 0.000000 1.982750 
# 
# From -- ./inp_files/5824.got.cif
#   From: 2010.05.17/outbox.cif.g08.bks.cpg/sg155_3_cif.got.tgz:5824.got - 2010.05.20 10:44:35.
