data_PCOD9576916
_publ_section_title
;
Structure prediction by ZEFSAII (Michael W. Deem and Ramdas Pophale) SiO2 
 PCOD9576916
Probable space group: R 3 2
;
_chemical_formula_sum "Si O2"
_cell_formula_units_Z 108
_cell_length_a 18.355393
_cell_length_b 18.355393
_cell_length_c 19.156061
_cell_angle_alpha 90.000000
_cell_angle_beta 90.000000
_cell_angle_gamma 120.000000
_cell_volume 5589.387482
_symmetry_space_group_name_H-M "R 3 2"
_symmetry_group_IT_number 155
_symmetry_cell_setting 'hexagonal'
loop_
_space_group_symop_operation_xyz
x,y,z
-y,x-y,z
-x+y,-x,z
x-y,-y,-z
-x,-x+y,-z
y,x,-z
2/3+x,1/3+y,1/3+z
2/3-y,1/3+x-y,1/3+z
2/3-x+y,1/3-x,1/3+z
2/3+x-y,1/3-y,1/3-z
2/3-x,1/3-x+y,1/3-z
2/3+y,1/3+x,1/3-z
1/3+x,2/3+y,2/3+z
1/3-y,2/3+x-y,2/3+z
1/3-x+y,2/3-x,2/3+z
1/3+x-y,2/3-y,2/3-z
1/3-x,2/3-x+y,2/3-z
1/3+y,2/3+x,2/3-z
loop_
_atom_site_type_symbol
_atom_site_label
_atom_site_fract_x
_atom_site_fract_y
_atom_site_fract_z
Si Si1 0.247673 0.096281 0.650459
Si Si2 0.430010 0.901833 0.657979
Si Si3 0.907283 0.153137 0.340814
Si Si4 0.098774 0.902189 0.503367
Si Si5 0.998359 0.768471 0.903287
Si Si6 0.757837 0.999343 0.260325
O O1 0.333334 0.097699 0.666667
O O2 0.247002 0.112590 0.568104
O O3 0.250753 0.172222 0.694630
O O4 0.174134 0.002898 0.668879
O O5 0.333334 0.831704 0.666667
O O6 0.476753 0.891268 0.590658
O O7 0.491115 0.903031 0.719861
O O8 0.439675 0.993753 0.657231
O O9 0.888352 0.131535 0.423200
O O10 0.841436 0.077115 0.292972
O O11 0.000000 0.843479 0.500000
O O12 0.124988 0.000000 0.500000
O O13 0.983709 0.764746 0.821154
O O14 0.020570 0.695723 0.925835
#
# Coordination Sequence:
#
# PCOD9576916 Si02
#       6
#    18  18  18  18  18  18
#     4  11  24  37  60  92 121 160 206 257 305 381
#     4  10  21  41  66  88 124 165 207 263 321 388
#     4  10  22  40  60  89 126 165 203 253 324 382
#     4  10  20  37  58  87 122 160 201 245 312 376
#     4   9  22  40  64  95 118 165 213 264 323 369
#     4  10  21  41  64  90 128 159 214 266 312 384
#
# _framework density 19.322330999999998
#
# number of rings (size 3 to 8) (size 9 to 14) (size 15 to 20)
#    0.000    2.000    1.667    0.667    7.000    1.333 
#    5.000    0.000    0.000    0.000    0.000    0.000 
#    0.000    0.000    0.000    0.000    0.000    0.000 
#
# Total GULP energy -200735.584618 kJ/mol
# GULP energy per Si atom -5575.988462 kJ/mol
# Density = 1.927835 g / cm^3
# Si number density = 19.322331 Si / 1000 Ang^3
#
#
#
# Elastic Constant Matrix: (Units=GPa)
#
#
# Indices 1 2 3 4 5 6 
#
# 1 81.5018 48.8021 32.5713 -2.6224 0.0000 0.0000
# 2 48.8021 81.5018 32.5713 2.6224 0.0000 0.0000
# 3 32.5713 32.5713 120.3003 0.0000 0.0000 0.0000
# 4 -2.6224 2.6224 0.0000 24.5607 0.0000 0.0000
# 5 0.0000 0.0000 0.0000 0.0000 24.5607 -2.6224
# 6 0.0000 0.0000 0.0000 0.0000 -2.6224 16.3498
#
#
#
# Elastic Compliance Matrix: (Units=1/GPa)
#
#
# Indices 1 2 3 4 5 6 
#
# 1 0.019995 -0.011119 -0.002403 0.003322 0.000000 0.000000
# 2 -0.011119 0.019995 -0.002403 -0.003322 0.000000 0.000000
# 3 -0.002403 -0.002403 0.009614 0.000000 0.000000 0.000000
# 4 0.003322 -0.003322 0.000000 0.041425 0.000000 0.000000
# 5 0.000000 0.000000 0.000000 0.000000 0.041425 0.006644
# 6 0.000000 0.000000 0.000000 0.000000 0.006644 0.062228
#
#
# Mechanical properties :
#
#
# Convention : Reuss Voigt Hill
#
# Bulk Modulus (GPa) = 56.32889 56.79925 56.56407
# Shear Modulus (GPa) = 21.50997 24.38485 22.94741
#
# Velocity S-wave (km/s) = 3.34011 3.55632 3.44991
# Velocity P-wave (km/s) = 6.64008 6.80608 6.72359
#
# Compressibility (1/GPa) = 0.01775288
#
# Stress axis : x y z
#
# Youngs Moduli (GPa) = 50.01262 50.01262 104.01704
#
# Poissons Ratio (x) = 0.55610 0.24996
# Poissons Ratio (y) = 0.55610 0.24996
# Poissons Ratio (z) = 0.12019 0.12019
#
# Static dielectric constant tensor:
#      x y z
#    x 1.685070 0.000000 0.000000 
#    y 0.000000 1.685070 0.000000 
#    z 0.000000 0.000000 1.725190 
# 
# From -- ./inp_files/6995.got.cif
#   From: 2010.05.17/outbox.cif.g08.bks.cpg/sg155_4_cif.got.tgz:6995.got - 2010.05.20 10:44:35.
