data_PCOD9576242
_publ_section_title
;
Structure prediction by ZEFSAII (Michael W. Deem and Ramdas Pophale) SiO2 
 PCOD9576242
Probable space group: P 32 1 2
;
_chemical_formula_sum "Si O2"
_cell_formula_units_Z 30
_cell_length_a 9.421437
_cell_length_b 9.421437
_cell_length_c 20.473836
_cell_angle_alpha 90.000000
_cell_angle_beta 90.000000
_cell_angle_gamma 120.000000
_cell_volume 1573.852936
_symmetry_space_group_name_H-M "P 32 1 2"
_symmetry_group_IT_number 153
_symmetry_cell_setting 'hexagonal'
loop_
_space_group_symop_operation_xyz
x,y,z
-y,x-y,2/3+z
-x+y,-x,1/3+z
-y,-x,1/3-z
-x+y,y,2/3-z
x,x-y,-z
loop_
_atom_site_type_symbol
_atom_site_label
_atom_site_fract_x
_atom_site_fract_y
_atom_site_fract_z
Si Si1 0.658740 0.522060 0.390382
Si Si2 0.049438 0.950563 0.666667
Si Si3 0.712943 0.356472 0.500000
Si Si4 0.366788 0.829048 0.970174
Si Si5 0.313350 0.305150 0.233722
Si Si6 0.807923 0.822918 0.238049
O O1 0.726880 0.453759 0.333334
O O2 0.610751 0.405540 0.452492
O O3 0.522797 0.556145 0.360604
O O4 0.824674 0.690003 0.410988
O O5 0.225471 0.019824 0.701017
O O6 0.053745 0.067709 0.608756
O O7 0.834816 0.515538 0.543913
O O8 0.238779 0.869170 0.936301
O O9 0.510034 0.869977 0.917797
O O10 0.303116 0.651558 0.000000
O O11 0.191196 0.221057 0.172742
#
# Coordination Sequence:
#
# PCOD9576242 Si02
#       6
#     6   3   3   6   6   6
#     4   9  16  33  62  85 112 162 205 246 297 378
#     4  12  22  36  62  96 122 152 216 262 300 360
#     4  10  18  36  64  86 118 166 212 244 320 374
#     4  11  19  36  64  88 119 163 207 246 307 372
#     4  11  20  34  65  88 117 165 207 248 310 380
#     4  10  20  40  61  84 124 161 206 250 309 367
#
# _framework density 19.061501
#
# number of rings (size 3 to 8) (size 9 to 14) (size 15 to 20)
#    0.000    1.600   10.000    0.600    0.000    0.000 
#    0.000    2.000   22.000    0.000    0.000    0.000 
#    0.000    0.000    0.000    0.000    0.000    0.000 
#
# Total GULP energy -167206.150119 kJ/mol
# GULP energy per Si atom -5573.538337 kJ/mol
# Density = 1.901812 g / cm^3
# Si number density = 19.061501 Si / 1000 Ang^3
#
#
#
# Elastic Constant Matrix: (Units=GPa)
#
#
# Indices 1 2 3 4 5 6 
#
# 1 63.6717 15.9116 28.8678 0.0001 7.2797 0.0000
# 2 15.9116 63.6717 28.8678 -0.0001 -7.2797 0.0000
# 3 28.8678 28.8678 93.5196 0.0000 0.0000 0.0000
# 4 0.0001 -0.0001 0.0000 30.3333 0.0000 -7.2797
# 5 7.2797 -7.2797 0.0000 0.0000 30.3333 0.0001
# 6 0.0000 0.0000 0.0000 -7.2797 0.0001 23.8801
#
#
#
# Elastic Compliance Matrix: (Units=1/GPa)
#
#
# Indices 1 2 3 4 5 6 
#
# 1 0.019391 -0.003200 -0.004998 0.000000 -0.005422 0.000000
# 2 -0.003200 0.019391 -0.004998 0.000000 0.005422 0.000000
# 3 -0.004998 -0.004998 0.013779 0.000000 0.000000 0.000000
# 4 0.000000 0.000000 0.000000 0.035569 0.000000 0.010843
# 5 -0.005422 0.005422 0.000000 0.000000 0.035569 0.000000
# 6 0.000000 0.000000 0.000000 0.010843 0.000000 0.045181
#
#
# Mechanical properties :
#
#
# Convention : Reuss Voigt Hill
#
# Bulk Modulus (GPa) = 38.21271 40.90640 39.55955
# Shear Modulus (GPa) = 24.51041 26.72372 25.61706
#
# Velocity S-wave (km/s) = 3.58978 3.74836 3.66992
# Velocity P-wave (km/s) = 6.10513 6.34353 6.22547
#
# Compressibility (1/GPa) = 0.02616930
#
# Stress axis : x y z
#
# Youngs Moduli (GPa) = 51.57023 51.57023 72.57670
#
# Poissons Ratio (x) = 0.16501 0.36274
# Poissons Ratio (y) = 0.16501 0.36274
# Poissons Ratio (z) = 0.25775 0.25775
#
# Static dielectric constant tensor:
#      x y z
#    x 1.662540 0.000000 0.000000 
#    y 0.000000 1.662540 0.000000 
#    z 0.000000 0.000000 1.710420 
# 
# From -- ./inp_files/4305.got.cif
#   From: 2010.05.17/outbox.cif.g08.bks.cpg/sg153_3_cif.got.tgz:4305.got - 2010.05.20 10:38:56.
