data_PCOD9576012
_publ_section_title
;
Structure prediction by ZEFSAII (Michael W. Deem and Ramdas Pophale) SiO2 
 PCOD9576012
Probable space group: P 31 2 1
;
_chemical_formula_sum "Si O2"
_cell_formula_units_Z 36
_cell_length_a 11.825023
_cell_length_b 11.825023
_cell_length_c 15.039393
_cell_angle_alpha 90.000000
_cell_angle_beta 90.000000
_cell_angle_gamma 120.000000
_cell_volume 1821.230556
_symmetry_space_group_name_H-M "P 31 2 1"
_symmetry_group_IT_number 152
_symmetry_cell_setting 'hexagonal'
loop_
_space_group_symop_operation_xyz
x,y,z
-y,x-y,1/3+z
-x+y,-x,2/3+z
x-y,-y,2/3-z
-x,-x+y,1/3-z
y,x,-z
loop_
_atom_site_type_symbol
_atom_site_label
_atom_site_fract_x
_atom_site_fract_y
_atom_site_fract_z
Si Si1 0.533219 0.293854 0.317674
Si Si2 0.125238 0.332061 0.231353
Si Si3 0.937847 0.047131 0.573724
Si Si4 0.391426 0.968365 0.062661
Si Si5 0.351881 0.067011 0.414346
Si Si6 0.621261 0.239563 0.124909
O O1 0.541348 0.430777 0.305234
O O2 0.394599 0.201735 0.365077
O O3 0.571122 0.255879 0.222414
O O4 0.637691 0.306970 0.392118
O O5 0.158215 0.215297 0.233541
O O6 0.071236 0.344588 0.327600
O O7 0.252804 0.470003 0.203961
O O8 0.000000 0.286632 0.166667
O O9 0.000000 0.040190 0.666667
O O10 0.980014 0.198769 0.565460
O O11 0.008655 0.008655 0.500000
O O12 0.338132 0.916426 0.160627
O O13 0.499044 0.118499 0.076452
O O14 0.388295 0.000000 0.333334
#
# Coordination Sequence:
#
# PCOD9576012 Si02
#       6
#     6   6   6   6   6   6
#     4  11  23  42  60  94 130 163 214 268 322 386
#     4  10  23  43  63  94 131 166 212 265 320 385
#     4  10  22  40  64  91 127 164 210 259 315 377
#     4  11  23  40  67  94 127 170 214 266 322 389
#     4  11  22  39  63  92 124 163 215 265 313 389
#     4  11  23  39  67  92 127 171 211 263 328 387
#
# _framework density 19.766856000000001
#
# number of rings (size 3 to 8) (size 9 to 14) (size 15 to 20)
#    0.000    1.333    3.333    2.000    4.667    0.000 
#    0.000    0.833    3.667    0.000    0.000    0.000 
#    0.000    0.000    0.000    0.000    0.000    0.000 
#
# Total GULP energy -200645.830397 kJ/mol
# GULP energy per Si atom -5573.495289 kJ/mol
# Density = 1.972187 g / cm^3
# Si number density = 19.766856 Si / 1000 Ang^3
#
#
#
# Elastic Constant Matrix: (Units=GPa)
#
#
# Indices 1 2 3 4 5 6 
#
# 1 52.4855 3.5678 -11.1965 0.6576 -0.0002 0.0000
# 2 3.5678 52.4855 -11.1965 -0.6576 0.0002 0.0000
# 3 -11.1965 -11.1965 62.6680 0.0000 0.0000 0.0000
# 4 0.6576 -0.6576 0.0000 29.9902 0.0000 0.0002
# 5 -0.0002 0.0002 0.0000 0.0000 29.9902 0.6576
# 6 0.0000 0.0000 0.0000 0.0002 0.6576 24.4588
#
#
#
# Elastic Compliance Matrix: (Units=1/GPa)
#
#
# Indices 1 2 3 4 5 6 
#
# 1 0.019833 -0.000622 0.003432 -0.000449 0.000000 0.000000
# 2 -0.000622 0.019833 0.003432 0.000449 0.000000 0.000000
# 3 0.003432 0.003432 0.017184 0.000000 0.000000 0.000000
# 4 -0.000449 0.000449 0.000000 0.033364 0.000000 0.000000
# 5 0.000000 0.000000 0.000000 0.000000 0.033364 -0.000897
# 6 0.000000 0.000000 0.000000 0.000000 -0.000897 0.040909
#
#
# Mechanical properties :
#
#
# Convention : Reuss Voigt Hill
#
# Bulk Modulus (GPa) = 14.42252 14.44315 14.43283
# Shear Modulus (GPa) = 28.55316 29.31881 28.93598
#
# Velocity S-wave (km/s) = 3.80478 3.85545 3.83020
# Velocity P-wave (km/s) = 5.15887 5.20979 5.18439
#
# Compressibility (1/GPa) = 0.06933601
#
# Stress axis : x y z
#
# Youngs Moduli (GPa) = 50.42105 50.42105 58.19503
#
# Poissons Ratio (x) = 0.03134 -0.19975
# Poissons Ratio (y) = 0.03134 -0.19975
# Poissons Ratio (z) = -0.17307 -0.17307
#
# Static dielectric constant tensor:
#      x y z
#    x 1.756410 0.000000 0.000000 
#    y 0.000000 1.756410 0.000000 
#    z 0.000000 0.000000 1.682070 
# 
# From -- ./inp_files/2032.got.cif
#   From: 2010.05.17/outbox.cif.g08.bks.cpg/sg152_2_cif.got.tgz:2032.got - 2010.05.20 10:36:06.
