data_PCOD9576403
_publ_section_title
;
Structure prediction by ZEFSAII (Michael W. Deem and Ramdas Pophale) SiO2 
 PCOD9576403
Probable space group: P 32 2 1
;
_chemical_formula_sum "Si O2"
_cell_formula_units_Z 36
_cell_length_a 11.671155
_cell_length_b 11.671155
_cell_length_c 15.261437
_cell_angle_alpha 90.000000
_cell_angle_beta 90.000000
_cell_angle_gamma 120.000000
_cell_volume 1800.336695
_symmetry_space_group_name_H-M "P 32 2 1"
_symmetry_group_IT_number 154
_symmetry_cell_setting 'hexagonal'
loop_
_space_group_symop_operation_xyz
x,y,z
-y,x-y,2/3+z
-x+y,-x,1/3+z
x-y,-y,1/3-z
-x,-x+y,2/3-z
y,x,-z
loop_
_atom_site_type_symbol
_atom_site_label
_atom_site_fract_x
_atom_site_fract_y
_atom_site_fract_z
Si Si1 0.043516 0.928476 0.072985
Si Si2 0.649500 0.673508 0.396481
Si Si3 0.615481 0.346692 0.792537
Si Si4 0.130274 0.640431 0.774606
Si Si5 0.386989 0.802446 0.365030
Si Si6 0.677180 0.034689 0.392511
O O1 0.973380 0.772972 0.095743
O O2 0.062487 0.000000 0.166667
O O3 0.184070 0.951094 0.033572
O O4 0.973250 0.973250 0.000000
O O5 0.676886 0.676886 0.500000
O O6 0.490166 0.618255 0.399030
O O7 0.658190 0.558381 0.344848
O O8 0.743699 0.470920 0.833828
O O9 0.577708 0.238105 0.868761
O O10 0.676478 0.326936 0.701810
O O11 0.490181 0.365428 0.780255
O O12 0.111482 0.721994 0.699260
O O13 0.000000 0.576160 0.833334
O O14 0.547030 0.894173 0.371196
#
# Coordination Sequence:
#
# PCOD9576403 Si02
#       6
#     6   6   6   6   6   6
#     4  11  27  48  67  90 135 189 242 277 337 431
#     4   9  18  38  71  94 124 177 228 273 330 417
#     4  12  22  41  66 109 139 172 228 292 353 413
#     4  10  18  37  68 103 133 171 220 278 345 419
#     4  11  24  40  71 103 139 176 225 296 355 419
#     4  11  25  42  67 102 135 180 233 277 355 415
#
# _framework density 19.996258999999998
#
# number of rings (size 3 to 8) (size 9 to 14) (size 15 to 20)
#    0.000    1.333    6.667    1.000    7.000    0.667 
#    3.000    0.833    0.000    0.000    0.000    0.000 
#    0.000    0.000    0.000    0.000    0.000    0.000 
#
# Total GULP energy -200485.889399 kJ/mol
# GULP energy per Si atom -5569.052483 kJ/mol
# Density = 1.995075 g / cm^3
# Si number density = 19.996259 Si / 1000 Ang^3
#
#
#
# Elastic Constant Matrix: (Units=GPa)
#
#
# Indices 1 2 3 4 5 6 
#
# 1 106.1958 44.4924 42.2294 -4.0760 -0.0001 0.0000
# 2 44.4924 106.1958 42.2294 4.0760 0.0001 0.0000
# 3 42.2294 42.2294 87.2016 0.0000 0.0000 0.0000
# 4 -4.0760 4.0760 0.0000 38.3331 0.0000 0.0001
# 5 -0.0001 0.0001 0.0000 0.0000 38.3331 -4.0760
# 6 0.0000 0.0000 0.0000 0.0001 -4.0760 30.8517
#
#
#
# Elastic Compliance Matrix: (Units=1/GPa)
#
#
# Indices 1 2 3 4 5 6 
#
# 1 0.012773 -0.003664 -0.004411 0.001748 0.000000 0.000000
# 2 -0.003664 0.012773 -0.004411 -0.001748 0.000000 0.000000
# 3 -0.004411 -0.004411 0.015740 0.000000 0.000000 0.000000
# 4 0.001748 -0.001748 0.000000 0.026459 0.000000 0.000000
# 5 0.000000 0.000000 0.000000 0.000000 0.026459 0.003496
# 6 0.000000 0.000000 0.000000 0.000000 0.003496 0.032875
#
#
# Mechanical properties :
#
#
# Convention : Reuss Voigt Hill
#
# Bulk Modulus (GPa) = 61.30098 61.94395 61.62246
# Shear Modulus (GPa) = 31.74819 32.87970 32.31395
#
# Velocity S-wave (km/s) = 3.98893 4.05939 4.02431
# Velocity P-wave (km/s) = 7.20681 7.28124 7.24412
#
# Compressibility (1/GPa) = 0.01631295
#
# Stress axis : x y z
#
# Youngs Moduli (GPa) = 78.29009 78.29009 63.53256
#
# Poissons Ratio (x) = 0.28689 0.28024
# Poissons Ratio (y) = 0.28689 0.28024
# Poissons Ratio (z) = 0.34534 0.34534
#
# Static dielectric constant tensor:
#      x y z
#    x 1.757370 0.000000 0.000000 
#    y 0.000000 1.757370 0.000000 
#    z 0.000000 0.000000 1.740820 
# 
# From -- ./inp_files/2363.got.cif
#   From: 2010.05.17/outbox.cif.g08.bks.cpg/sg154_2_cif.got.tgz:2363.got - 2010.05.20 10:41:43.
