data_PCOD9576487
_publ_section_title
;
Structure prediction by ZEFSAII (Michael W. Deem and Ramdas Pophale) SiO2 
 PCOD9576487
Probable space group: P 32 2 1
;
_chemical_formula_sum "Si O2"
_cell_formula_units_Z 30
_cell_length_a 16.539072
_cell_length_b 16.539072
_cell_length_c 6.612203
_cell_angle_alpha 90.000000
_cell_angle_beta 90.000000
_cell_angle_gamma 120.000000
_cell_volume 1566.387056
_symmetry_space_group_name_H-M "P 32 2 1"
_symmetry_group_IT_number 154
_symmetry_cell_setting 'hexagonal'
loop_
_space_group_symop_operation_xyz
x,y,z
-y,x-y,2/3+z
-x+y,-x,1/3+z
x-y,-y,1/3-z
-x,-x+y,2/3-z
y,x,-z
loop_
_atom_site_type_symbol
_atom_site_label
_atom_site_fract_x
_atom_site_fract_y
_atom_site_fract_z
Si Si1 0.087646 0.813629 0.719792
Si Si2 0.250670 0.618434 0.106791
Si Si3 0.668975 0.581596 0.366629
Si Si4 0.743977 0.168033 0.942280
Si Si5 0.000000 0.688048 0.333334
Si Si6 0.000000 0.273801 0.333334
O O1 0.174525 0.914914 0.723076
O O2 0.000000 0.807692 0.833334
O O3 0.053591 0.768181 0.500761
O O4 0.120589 0.754557 0.856606
O O5 0.283125 0.660149 0.330174
O O6 0.224867 0.691877 0.010045
O O7 0.160498 0.517653 0.068201
O O8 0.592216 0.592216 0.500000
O O9 0.759567 0.603426 0.505398
O O10 0.692280 0.654518 0.185977
O O11 0.683668 0.082768 0.786187
#
# Coordination Sequence:
#
# PCOD9576487 Si02
#       6
#     6   6   6   6   3   3
#     4  10  22  38  63  91 124 166 208 267 322 391
#     4  10  25  41  63  91 135 172 213 275 331 391
#     4  11  23  39  62  95 124 172 225 265 328 395
#     4  10  21  40  61  92 125 169 216 269 325 393
#     4  10  20  37  61  90 124 162 214 252 334 388
#     4  12  22  39  69  88 130 168 214 274 326 390
#
# _framework density 19.152356000000001
#
# number of rings (size 3 to 8) (size 9 to 14) (size 15 to 20)
#    0.000    1.600    4.000    0.000    2.800    3.200 
#    0.000    3.000    0.000    0.000    0.000    0.000 
#    0.000    0.000    0.000    0.000    0.000    0.000 
#
# Total GULP energy -167223.058668 kJ/mol
# GULP energy per Si atom -5574.101956 kJ/mol
# Density = 1.910876 g / cm^3
# Si number density = 19.152356 Si / 1000 Ang^3
#
#
#
# Elastic Constant Matrix: (Units=GPa)
#
#
# Indices 1 2 3 4 5 6 
#
# 1 98.8630 32.7600 40.9964 0.3183 0.0000 0.0000
# 2 32.7600 98.8630 40.9964 -0.3183 0.0000 0.0000
# 3 40.9964 40.9964 76.9653 0.0000 0.0000 0.0000
# 4 0.3183 -0.3183 0.0000 19.3573 0.0000 0.0000
# 5 0.0000 0.0000 0.0000 0.0000 19.3573 0.3183
# 6 0.0000 0.0000 0.0000 0.0000 0.3183 33.0515
#
#
#
# Elastic Compliance Matrix: (Units=1/GPa)
#
#
# Indices 1 2 3 4 5 6 
#
# 1 0.013250 -0.001880 -0.006056 -0.000249 0.000000 0.000000
# 2 -0.001880 0.013250 -0.006056 0.000249 0.000000 0.000000
# 3 -0.006056 -0.006056 0.019445 0.000000 0.000000 0.000000
# 4 -0.000249 0.000249 0.000000 0.051668 0.000000 0.000000
# 5 0.000000 0.000000 0.000000 0.000000 0.051668 -0.000498
# 6 0.000000 0.000000 0.000000 0.000000 -0.000498 0.030261
#
#
# Mechanical properties :
#
#
# Convention : Reuss Voigt Hill
#
# Bulk Modulus (GPa) = 55.68073 56.02188 55.85131
# Shear Modulus (GPa) = 23.41754 25.01579 24.21667
#
# Velocity S-wave (km/s) = 3.50050 3.61799 3.55973
# Velocity P-wave (km/s) = 6.74342 6.83866 6.79120
#
# Compressibility (1/GPa) = 0.01795953
#
# Stress axis : x y z
#
# Youngs Moduli (GPa) = 75.47004 75.47004 51.42715
#
# Poissons Ratio (x) = 0.14189 0.31147
# Poissons Ratio (y) = 0.14189 0.31147
# Poissons Ratio (z) = 0.45708 0.45708
#
# Static dielectric constant tensor:
#      x y z
#    x 1.664690 0.000000 0.000000 
#    y 0.000000 1.664690 0.000000 
#    z 0.000000 0.000000 1.704550 
# 
# From -- ./inp_files/394.got.cif
#   From: 2010.05.17/outbox.cif.g08.bks.cpg/sg154_1_cif.got.tgz:394.got - 2010.05.20 10:41:43.
