data_PCOD9576054
_publ_section_title
;
Structure prediction by ZEFSAII (Michael W. Deem and Ramdas Pophale) SiO2 
 PCOD9576054
Probable space group: P 31 2 1
;
_chemical_formula_sum "Si O2"
_cell_formula_units_Z 27
_cell_length_a 8.723194
_cell_length_b 8.723194
_cell_length_c 16.910555
_cell_angle_alpha 90.000000
_cell_angle_beta 90.000000
_cell_angle_gamma 120.000000
_cell_volume 1114.396027
_symmetry_space_group_name_H-M "P 31 2 1"
_symmetry_group_IT_number 152
_symmetry_cell_setting 'hexagonal'
loop_
_space_group_symop_operation_xyz
x,y,z
-y,x-y,1/3+z
-x+y,-x,2/3+z
x-y,-y,2/3-z
-x,-x+y,1/3-z
y,x,-z
loop_
_atom_site_type_symbol
_atom_site_label
_atom_site_fract_x
_atom_site_fract_y
_atom_site_fract_z
Si Si1 0.054931 0.054931 0.000000
Si Si2 0.093919 0.784442 0.272455
Si Si3 0.711985 0.824130 0.183281
Si Si4 0.366078 0.472993 0.171371
Si Si5 0.472686 0.000000 0.833334
Si Si6 0.469123 0.000000 0.333334
O O1 0.170571 0.124860 0.079044
O O2 0.022422 0.856264 0.004547
O O3 0.170283 0.935077 0.201537
O O4 0.991986 0.587249 0.240055
O O5 0.278832 0.834249 0.311569
O O6 0.532912 0.646425 0.209199
O O7 0.582156 0.061350 0.254411
O O8 0.647151 0.938594 0.134225
O O9 0.178691 0.464952 0.176593
#
# Coordination Sequence:
#
# PCOD9576054 Si02
#       6
#     3   6   6   6   3   3
#     4  11  21  40  76 100 134 186 244 286 356 430
#     4  10  22  44  72  99 145 185 240 297 367 426
#     4  11  23  44  72  98 143 193 237 300 360 429
#     4  11  25  44  72 100 146 190 243 299 367 429
#     4  12  24  44  70 104 144 192 230 298 378 424
#     4   9  21  46  64 102 136 190 238 300 346 442
#
# _framework density 24.228370000000002
#
# number of rings (size 3 to 8) (size 9 to 14) (size 15 to 20)
#    0.000    1.333    2.222    3.333    3.111    0.000 
#    4.000    8.889    0.000    0.000    0.000    0.000 
#    0.000    0.000    0.000    0.000    0.000    0.000 
#
# Total GULP energy -150777.650679 kJ/mol
# GULP energy per Si atom -5584.357433 kJ/mol
# Density = 2.417323 g / cm^3
# Si number density = 24.228370 Si / 1000 Ang^3
#
#
#
# Elastic Constant Matrix: (Units=GPa)
#
#
# Indices 1 2 3 4 5 6 
#
# 1 111.7027 50.1700 13.5226 -4.4360 0.0000 0.0000
# 2 50.1700 111.7027 13.5226 4.4360 0.0000 0.0000
# 3 13.5226 13.5226 83.4307 0.0000 0.0000 0.0000
# 4 -4.4360 4.4360 0.0000 43.2494 0.0000 0.0000
# 5 0.0000 0.0000 0.0000 0.0000 43.2494 -4.4360
# 6 0.0000 0.0000 0.0000 0.0000 -4.4360 30.7663
#
#
#
# Elastic Compliance Matrix: (Units=1/GPa)
#
#
# Indices 1 2 3 4 5 6 
#
# 1 0.011423 -0.005073 -0.001029 0.001692 0.000000 0.000000
# 2 -0.005073 0.011423 -0.001029 -0.001692 0.000000 0.000000
# 3 -0.001029 -0.001029 0.012320 0.000000 0.000000 0.000000
# 4 0.001692 -0.001692 0.000000 0.023469 0.000000 0.000000
# 5 0.000000 0.000000 0.000000 0.000000 0.023469 0.003384
# 6 0.000000 0.000000 0.000000 0.000000 0.003384 0.032991
#
#
# Mechanical properties :
#
#
# Convention : Reuss Voigt Hill
#
# Bulk Modulus (GPa) = 47.84174 51.25183 49.54679
# Shear Modulus (GPa) = 36.67754 38.76108 37.71931
#
# Velocity S-wave (km/s) = 3.89501 4.00412 3.94994
# Velocity P-wave (km/s) = 6.32592 6.52509 6.42628
#
# Compressibility (1/GPa) = 0.02090225
#
# Stress axis : x y z
#
# Youngs Moduli (GPa) = 87.54599 87.54599 81.17144
#
# Poissons Ratio (x) = 0.44411 0.08354
# Poissons Ratio (y) = 0.44411 0.08354
# Poissons Ratio (z) = 0.09010 0.09010
#
# Static dielectric constant tensor:
#      x y z
#    x 1.966350 0.000000 0.000000 
#    y 0.000000 1.966350 0.000000 
#    z 0.000000 0.000000 2.089970 
# 
# From -- ./inp_files/3270.got.cif
#   From: 2010.05.17/outbox.cif.g08.bks.cpg/sg152_2_cif.got.tgz:3270.got - 2010.05.20 10:36:06.
