data_PCOD9576576
_publ_section_title
;
Structure prediction by ZEFSAII (Michael W. Deem and Ramdas Pophale) SiO2 
 PCOD9576576
Probable space group: P 32 2 1
;
_chemical_formula_sum "Si O2"
_cell_formula_units_Z 45
_cell_length_a 11.576193
_cell_length_b 11.576193
_cell_length_c 19.634949
_cell_angle_alpha 90.000000
_cell_angle_beta 90.000000
_cell_angle_gamma 120.000000
_cell_volume 2278.725052
_symmetry_space_group_name_H-M "P 32 2 1"
_symmetry_group_IT_number 154
_symmetry_cell_setting 'hexagonal'
loop_
_space_group_symop_operation_xyz
x,y,z
-y,x-y,2/3+z
-x+y,-x,1/3+z
x-y,-y,1/3-z
-x,-x+y,2/3-z
y,x,-z
loop_
_atom_site_type_symbol
_atom_site_label
_atom_site_fract_x
_atom_site_fract_y
_atom_site_fract_z
Si Si1 0.620874 0.259246 0.866076
Si Si2 0.657270 0.697989 0.847049
Si Si3 0.439165 0.825055 0.313598
Si Si4 0.135017 0.398381 0.876389
Si Si5 0.156703 0.553295 0.557022
Si Si6 0.013955 0.844754 0.167567
Si Si7 0.260816 0.000000 0.666667
Si Si8 0.688126 0.977262 0.961232
O O1 0.497440 0.150932 0.822590
O O2 0.753267 0.268501 0.836537
O O3 0.615369 0.391542 0.849824
O O4 0.602849 0.216745 0.943653
O O5 0.664367 0.602712 0.789912
O O6 0.685692 0.677057 0.925186
O O7 0.750318 0.854428 0.828157
O O8 0.353567 0.879521 0.274879
O O9 0.421290 0.696246 0.274219
O O10 0.597065 0.929958 0.319008
O O11 0.173171 0.282877 0.887966
O O12 0.000000 0.328578 0.833334
O O13 0.088763 0.635632 0.586172
O O14 0.051932 0.801614 0.095887
O O15 0.056894 0.000000 0.166667
O O16 0.126002 0.854662 0.659732
#
# Coordination Sequence:
#
# PCOD9576576 Si02
#       8
#     6   6   6   6   6   6   3   6
#     4  11  22  42  66  96 134 177 223 280 343 404
#     4  11  23  42  69  99 137 177 227 287 342 422
#     4  11  25  39  71  96 133 181 228 279 347 410
#     4  10  23  41  68 101 133 176 228 280 341 411
#     4  11  24  39  65  98 135 178 221 288 338 404
#     4  10  21  42  70  92 135 176 216 282 345 403
#     4  10  24  40  72  96 132 182 224 282 364 410
#     4  11  22  44  64  96 140 173 222 284 349 415
#
# _framework density 19.747883000000002
#
# number of rings (size 3 to 8) (size 9 to 14) (size 15 to 20)
#    0.000    1.333    5.333    0.000    3.733    3.200 
#    0.000    1.333    0.000    0.000    0.000    0.000 
#    0.000    0.000    0.000    0.000    0.000    0.000 
#
# Total GULP energy -250732.882195 kJ/mol
# GULP energy per Si atom -5571.841827 kJ/mol
# Density = 1.970294 g / cm^3
# Si number density = 19.747883 Si / 1000 Ang^3
#
#
#
# Elastic Constant Matrix: (Units=GPa)
#
#
# Indices 1 2 3 4 5 6 
#
# 1 113.2379 35.4853 41.4893 -4.4069 0.0000 0.0000
# 2 35.4853 113.2379 41.4893 4.4069 0.0000 0.0000
# 3 41.4893 41.4893 82.2890 0.0000 0.0000 0.0000
# 4 -4.4069 4.4069 0.0000 28.9021 0.0000 0.0000
# 5 0.0000 0.0000 0.0000 0.0000 28.9021 -4.4069
# 6 0.0000 0.0000 0.0000 0.0000 -4.4069 38.8763
#
#
#
# Elastic Compliance Matrix: (Units=1/GPa)
#
#
# Indices 1 2 3 4 5 6 
#
# 1 0.011222 -0.001866 -0.004717 0.001996 0.000000 0.000000
# 2 -0.001866 0.011222 -0.004717 -0.001996 0.000000 0.000000
# 3 -0.004717 -0.004717 0.016909 0.000000 0.000000 0.000000
# 4 0.001996 -0.001996 0.000000 0.035208 0.000000 0.000000
# 5 0.000000 0.000000 0.000000 0.000000 0.035208 0.003991
# 6 0.000000 0.000000 0.000000 0.000000 0.003991 0.026175
#
#
# Mechanical properties :
#
#
# Convention : Reuss Voigt Hill
#
# Bulk Modulus (GPa) = 59.69406 60.63252 60.16329
# Shear Modulus (GPa) = 30.46414 32.02284 31.24349
#
# Velocity S-wave (km/s) = 3.93192 4.03126 3.98190
# Velocity P-wave (km/s) = 7.13492 7.24141 7.18836
#
# Compressibility (1/GPa) = 0.01675209
#
# Stress axis : x y z
#
# Youngs Moduli (GPa) = 89.11360 89.11360 59.14048
#
# Poissons Ratio (x) = 0.16628 0.27897
# Poissons Ratio (y) = 0.16628 0.27897
# Poissons Ratio (z) = 0.42036 0.42036
#
# Static dielectric constant tensor:
#      x y z
#    x 1.740000 0.000000 0.000000 
#    y 0.000000 1.740000 0.000000 
#    z 0.000000 0.000000 1.696170 
# 
# From -- ./inp_files/2523.got.cif
#   From: 2010.05.17/outbox.cif.g08.bks.cpg/sg154_2_cif.got.tgz:2523.got - 2010.05.20 10:41:43.
