data_PCOD9576753
_publ_section_title
;
Structure prediction by ZEFSAII (Michael W. Deem and Ramdas Pophale) SiO2 
 PCOD9576753
Probable space group: P 32 2 1
;
_chemical_formula_sum "Si O2"
_cell_formula_units_Z 42
_cell_length_a 9.000000
_cell_length_b 9.000000
_cell_length_c 30.000000
_cell_angle_alpha 90.000000
_cell_angle_beta 90.000000
_cell_angle_gamma 120.000000
_cell_volume 2104.441731
_symmetry_space_group_name_H-M "P 32 2 1"
_symmetry_group_IT_number 154
_symmetry_cell_setting 'hexagonal'
loop_
_space_group_symop_operation_xyz
x,y,z
-y,x-y,2/3+z
-x+y,-x,1/3+z
x-y,-y,1/3-z
-x,-x+y,2/3-z
y,x,-z
loop_
_atom_site_type_symbol
_atom_site_label
_atom_site_fract_x
_atom_site_fract_y
_atom_site_fract_z
Si Si1 0.535497 0.036127 0.402136
Si Si2 0.895602 0.296653 0.508909
Si Si3 0.924628 0.123126 0.425896
Si Si4 0.206946 0.081844 0.044733
Si Si5 0.440791 0.128623 0.626973
Si Si6 0.788163 0.286496 0.987814
Si Si7 0.393201 0.415107 0.889780
O O1 0.734720 0.100731 0.415731
O O2 0.511203 0.176931 0.373967
O O3 0.413002 0.981974 0.446305
O O4 0.492585 0.875362 0.367833
O O5 0.979633 0.217593 0.474193
O O6 0.735709 0.121220 0.526333
O O7 0.864271 0.424677 0.476527
O O8 0.060311 0.249192 0.389551
O O9 0.915603 0.944953 0.413977
O O10 0.348458 0.237352 0.075004
O O11 0.267235 0.949085 0.028196
O O12 0.148517 0.148517 0.000000
O O13 0.546652 0.327583 0.637929
O O14 0.529924 0.088109 0.586889
O O15 0.421860 0.000000 0.666667
#
# Coordination Sequence:
#
# PCOD9576753 Si02
#       7
#     6   6   6   6   6   6   6
#     4  11  22  42  65  98 133 173 225 291 340 415
#     4  11  22  43  64  95 128 185 225 275 343 424
#     4  10  23  40  66  94 137 179 223 281 354 414
#     4  11  25  45  65 105 138 177 226 300 353 414
#     4  11  21  40  66  97 126 179 229 281 335 418
#     4  11  25  40  69  97 133 172 229 283 353 406
#     4  11  24  41  69  91 135 175 240 276 343 422
#
# _framework density 19.957787
#
# number of rings (size 3 to 8) (size 9 to 14) (size 15 to 20)
#    0.000    1.143    4.286    1.714    4.000    0.571 
#    0.000    0.000    0.000    0.000    0.000    0.000 
#    0.000    0.000    0.000    0.000    0.000    0.000 
#
# Total GULP energy -234037.257883 kJ/mol
# GULP energy per Si atom -5572.315664 kJ/mol
# Density = 1.991236 g / cm^3
# Si number density = 19.957787 Si / 1000 Ang^3
#
#
#
# Elastic Constant Matrix: (Units=GPa)
#
#
# Indices 1 2 3 4 5 6 
#
# 1 61.8468 9.1584 17.2449 -2.2348 0.0000 0.0000
# 2 9.1584 61.8468 17.2449 2.2348 0.0000 0.0000
# 3 17.2449 17.2449 117.1022 0.0000 0.0000 0.0000
# 4 -2.2348 2.2348 0.0000 30.6935 0.0000 0.0000
# 5 0.0000 0.0000 0.0000 0.0000 30.6935 -2.2348
# 6 0.0000 0.0000 0.0000 0.0000 -2.2348 26.3442
#
#
#
# Elastic Compliance Matrix: (Units=1/GPa)
#
#
# Indices 1 2 3 4 5 6 
#
# 1 0.017133 -0.001964 -0.002234 0.001391 0.000000 0.000000
# 2 -0.001964 0.017133 -0.002234 -0.001391 0.000000 0.000000
# 3 -0.002234 -0.002234 0.009197 0.000000 0.000000 0.000000
# 4 0.001391 -0.001391 0.000000 0.032783 0.000000 0.000000
# 5 0.000000 0.000000 0.000000 0.000000 0.032783 0.002781
# 6 0.000000 0.000000 0.000000 0.000000 0.002781 0.038195
#
#
# Mechanical properties :
#
#
# Convention : Reuss Voigt Hill
#
# Bulk Modulus (GPa) = 32.68039 36.45469 34.56754
# Shear Modulus (GPa) = 29.36211 30.68942 30.02576
#
# Velocity S-wave (km/s) = 3.83980 3.92563 3.88295
# Velocity P-wave (km/s) = 6.00575 6.23321 6.12054
#
# Compressibility (1/GPa) = 0.03059939
#
# Stress axis : x y z
#
# Youngs Moduli (GPa) = 58.36694 58.36694 108.72569
#
# Poissons Ratio (x) = 0.11466 0.24287
# Poissons Ratio (y) = 0.11466 0.24287
# Poissons Ratio (z) = 0.13038 0.13038
#
# Static dielectric constant tensor:
#      x y z
#    x 1.741190 0.000000 0.000000 
#    y 0.000000 1.741190 0.000000 
#    z 0.000000 0.000000 1.738620 
# 
# From -- ./inp_files/3764.got.cif
#   From: 2010.05.17/outbox.ucp.g08.bks.cvg/sg154_2_cif.got.tgz:3764.got - 2010.06.11 15:13:38.
