data_PCOD9576733
_publ_section_title
;
Structure prediction by ZEFSAII (Michael W. Deem and Ramdas Pophale) SiO2 
 PCOD9576733
Probable space group: P 32 2 1
;
_chemical_formula_sum "Si O2"
_cell_formula_units_Z 24
_cell_length_a 13.824352
_cell_length_b 13.824352
_cell_length_c 5.428327
_cell_angle_alpha 90.000000
_cell_angle_beta 90.000000
_cell_angle_gamma 120.000000
_cell_volume 898.434044
_symmetry_space_group_name_H-M "P 32 2 1"
_symmetry_group_IT_number 154
_symmetry_cell_setting 'hexagonal'
loop_
_space_group_symop_operation_xyz
x,y,z
-y,x-y,2/3+z
-x+y,-x,1/3+z
x-y,-y,1/3-z
-x,-x+y,2/3-z
y,x,-z
loop_
_atom_site_type_symbol
_atom_site_label
_atom_site_fract_x
_atom_site_fract_y
_atom_site_fract_z
Si Si1 0.607917 0.382335 0.585025
Si Si2 0.595708 0.818523 0.596174
Si Si3 0.000000 0.517106 0.333334
Si Si4 0.503103 0.503103 0.500000
Si Si5 0.740533 0.868809 0.095980
O O1 0.589982 0.264659 0.502614
O O2 0.695301 0.485378 0.415727
O O3 0.496257 0.386059 0.552623
O O4 0.668522 0.825532 0.353727
O O5 0.543985 0.901781 0.599403
O O6 0.664782 0.847272 0.849834
O O7 0.004549 0.449581 0.569699
O O8 0.818862 0.000000 0.166667
O O9 0.813791 0.813791 0.000000
#
# Coordination Sequence:
#
# PCOD9576733 Si02
#       5
#     6   6   3   3   6
#     4  12  29  50  76 117 158 204 267 330 398 487
#     4  12  26  47  76 108 152 197 260 325 385 474
#     4  12  22  50  74 104 146 202 258 314 392 472
#     4  12  28  46  80 112 156 210 254 332 406 470
#     4  12  27  48  76 112 154 205 265 329 400 479
#
# _framework density 26.713145000000001
#
# number of rings (size 3 to 8) (size 9 to 14) (size 15 to 20)
#    0.000    0.000    5.000    3.750    7.000    2.000 
#    0.000    0.000    0.000    0.000    0.000    0.000 
#    0.000    0.000    0.000    0.000    0.000    0.000 
#
# Total GULP energy -133732.555577 kJ/mol
# GULP energy per Si atom -5572.189816 kJ/mol
# Density = 2.665234 g / cm^3
# Si number density = 26.713145 Si / 1000 Ang^3
#
#
#
# Elastic Constant Matrix: (Units=GPa)
#
#
# Indices 1 2 3 4 5 6 
#
# 1 138.7052 58.4429 55.4250 -2.8182 0.0000 0.0000
# 2 58.4429 138.7052 55.4250 2.8182 0.0000 0.0000
# 3 55.4250 55.4250 247.1662 0.0000 0.0000 0.0000
# 4 -2.8182 2.8182 0.0000 36.7069 0.0000 0.0000
# 5 0.0000 0.0000 0.0000 0.0000 36.7069 -2.8182
# 6 0.0000 0.0000 0.0000 0.0000 -2.8182 40.1311
#
#
#
# Elastic Compliance Matrix: (Units=1/GPa)
#
#
# Indices 1 2 3 4 5 6 
#
# 1 0.009165 -0.003361 -0.001302 0.000962 0.000000 0.000000
# 2 -0.003361 0.009165 -0.001302 -0.000962 0.000000 0.000000
# 3 -0.001302 -0.001302 0.004630 0.000000 0.000000 0.000000
# 4 0.000962 -0.000962 0.000000 0.027391 0.000000 0.000000
# 5 0.000000 0.000000 0.000000 0.000000 0.027391 0.001924
# 6 0.000000 0.000000 0.000000 0.000000 0.001924 0.025053
#
#
# Mechanical properties :
#
#
# Convention : Reuss Voigt Hill
#
# Bulk Modulus (GPa) = 90.64764 95.90695 93.27729
# Shear Modulus (GPa) = 42.22944 46.39455 44.31200
#
# Velocity S-wave (km/s) = 3.98030 4.17198 4.07727
# Velocity P-wave (km/s) = 7.42503 7.69335 7.56038
#
# Compressibility (1/GPa) = 0.01103173
#
# Stress axis : x y z
#
# Youngs Moduli (GPa) = 109.10582 109.10582 216.00251
#
# Poissons Ratio (x) = 0.36673 0.28113
# Poissons Ratio (y) = 0.36673 0.28113
# Poissons Ratio (z) = 0.14200 0.14200
#
# Static dielectric constant tensor:
#      x y z
#    x 2.312790 0.000000 0.000000 
#    y 0.000000 2.312790 0.000000 
#    z 0.000000 0.000000 2.421960 
# 
# From -- ./inp_files/209.got.cif
#   From: 2010.05.17/outbox.cif.g08.bks.cpg/sg154_1_cif.got.tgz:209.got - 2010.05.20 10:41:43.
