data_PCOD9576316
_publ_section_title
;
Structure prediction by ZEFSAII (Michael W. Deem and Ramdas Pophale) SiO2 
 PCOD9576316
Probable space group: P 32 1 2
;
_chemical_formula_sum "Si O2"
_cell_formula_units_Z 33
_cell_length_a 8.025483
_cell_length_b 8.025483
_cell_length_c 25.915341
_cell_angle_alpha 90.000000
_cell_angle_beta 90.000000
_cell_angle_gamma 120.000000
_cell_volume 1445.539348
_symmetry_space_group_name_H-M "P 32 1 2"
_symmetry_group_IT_number 153
_symmetry_cell_setting 'hexagonal'
loop_
_space_group_symop_operation_xyz
x,y,z
-y,x-y,2/3+z
-x+y,-x,1/3+z
-y,-x,1/3-z
-x+y,y,2/3-z
x,x-y,-z
loop_
_atom_site_type_symbol
_atom_site_label
_atom_site_fract_x
_atom_site_fract_y
_atom_site_fract_z
Si Si1 0.851287 0.425644 0.000000
Si Si2 0.519474 0.775964 0.876322
Si Si3 0.474332 0.572160 0.971884
Si Si4 0.878908 0.495155 0.397248
Si Si5 0.187458 0.127501 0.634193
Si Si6 0.154702 0.137257 0.134667
O O1 0.705280 0.311484 0.951705
O O2 0.982429 0.650753 0.988852
O O3 0.362968 0.725935 0.833334
O O4 0.446941 0.587962 0.911605
O O5 0.715193 0.872908 0.844031
O O6 0.540412 0.955558 0.910964
O O7 0.708065 0.693676 0.972508
O O8 0.401397 0.700699 0.000000
O O9 0.415524 0.388472 0.007608
O O10 0.864169 0.639501 0.437999
O O11 0.117042 0.134721 0.577556
O O12 0.996385 0.003616 0.666667
O O13 0.062253 0.937748 0.166667
#
# Coordination Sequence:
#
# PCOD9576316 Si02
#       6
#     3   6   6   6   6   6
#     4  10  22  42  66  94 118 176 230 264 316 406
#     4   9  17  33  57  90 122 171 202 259 331 385
#     4   8  14  31  55  80 112 163 206 245 301 392
#     4   9  20  36  61  90 120 169 219 255 321 404
#     4  10  21  39  67  91 130 169 218 268 330 397
#     4  11  21  35  63  96 126 169 208 271 348 387
#
# _framework density 22.828849999999999
#
# number of rings (size 3 to 8) (size 9 to 14) (size 15 to 20)
#    0.000    2.545    1.818    1.091    1.273    0.000 
#    8.182    2.727    0.000    4.364    0.000    0.000 
#    0.000    0.000    0.000    0.000    0.000    0.000 
#
# Total GULP energy -183815.956116 kJ/mol
# GULP energy per Si atom -5570.180488 kJ/mol
# Density = 2.277689 g / cm^3
# Si number density = 22.828850 Si / 1000 Ang^3
#
#
#
# Elastic Constant Matrix: (Units=GPa)
#
#
# Indices 1 2 3 4 5 6 
#
# 1 51.2727 69.1839 48.5878 -0.0013 4.5867 0.0000
# 2 69.1839 51.2727 48.5878 0.0013 -4.5867 0.0000
# 3 48.5878 48.5878 152.2012 0.0000 0.0000 0.0000
# 4 -0.0013 0.0013 0.0000 18.4846 0.0000 -4.5867
# 5 4.5867 -4.5867 0.0000 0.0000 18.4846 -0.0013
# 6 0.0000 0.0000 0.0000 -4.5867 -0.0013 -8.9556
#
#
#
# Elastic Compliance Matrix: (Units=1/GPa)
#
#
# Indices 1 2 3 4 5 6 
#
# 1 -0.019177 0.030358 -0.003569 -0.000003 0.012292 0.000000
# 2 0.030358 -0.019177 -0.003569 0.000003 -0.012292 0.000000
# 3 -0.003569 -0.003569 0.008849 0.000000 0.000000 0.000000
# 4 -0.000003 0.000003 0.000000 0.047999 0.000000 -0.024583
# 5 0.012292 -0.012292 0.000000 0.000000 0.047999 -0.000007
# 6 0.000000 0.000000 0.000000 -0.024583 -0.000007 -0.099071
#
#
# Mechanical properties :
#
#
# Convention : Reuss Voigt Hill
#
# Bulk Modulus (GPa) = 59.05264 65.27397 62.16330
# Shear Modulus (GPa) = -68.14542 11.49518 -28.32512
#
# Velocity S-wave (km/s) = -5.46949 2.24640 -3.52626
# Velocity P-wave (km/s) = 3.73677 5.94838 3.27260
#
# Compressibility (1/GPa) = 0.01693404
#
# Stress axis : x y z
#
# Youngs Moduli (GPa) = -52.14532 -52.14532 113.00414
#
# Poissons Ratio (x) = 1.58305 0.40336
# Poissons Ratio (y) = 1.58305 0.40336
# Poissons Ratio (z) = -0.18613 -0.18613
#
# Static dielectric constant tensor:
#      x y z
#    x 2.002850 0.000000 0.000000 
#    y 0.000000 2.002850 0.000000 
#    z 0.000000 0.000000 1.891960 
# 
# From -- ./inp_files/4769.got.cif
#   From: 2010.05.17/outbox.cif.g08.bks.cpg/sg153_3_cif.got.tgz:4769.got - 2010.05.20 10:38:56.
