data_PCOD9576882
_publ_section_title
;
Structure prediction by ZEFSAII (Michael W. Deem and Ramdas Pophale) SiO2 
 PCOD9576882
Probable space group: R 3 2
;
_chemical_formula_sum "Si O2"
_cell_formula_units_Z 135
_cell_length_a 25.471022
_cell_length_b 25.471022
_cell_length_c 13.837288
_cell_angle_alpha 90.000000
_cell_angle_beta 90.000000
_cell_angle_gamma 120.000000
_cell_volume 7774.533760
_symmetry_space_group_name_H-M "R 3 2"
_symmetry_group_IT_number 155
_symmetry_cell_setting 'hexagonal'
loop_
_space_group_symop_operation_xyz
x,y,z
-y,x-y,z
-x+y,-x,z
x-y,-y,-z
-x,-x+y,-z
y,x,-z
2/3+x,1/3+y,1/3+z
2/3-y,1/3+x-y,1/3+z
2/3-x+y,1/3-x,1/3+z
2/3+x-y,1/3-y,1/3-z
2/3-x,1/3-x+y,1/3-z
2/3+y,1/3+x,1/3-z
1/3+x,2/3+y,2/3+z
1/3-y,2/3+x-y,2/3+z
1/3-x+y,2/3-x,2/3+z
1/3+x-y,2/3-y,2/3-z
1/3-x,2/3-x+y,2/3-z
1/3+y,2/3+x,2/3-z
loop_
_atom_site_type_symbol
_atom_site_label
_atom_site_fract_x
_atom_site_fract_y
_atom_site_fract_z
Si Si1 0.000000 0.819511 0.000000
Si Si2 0.938174 0.398105 0.880021
Si Si3 0.720895 0.126424 0.152267
Si Si4 0.396029 0.320733 0.688708
Si Si5 0.139272 0.773887 0.144664
Si Si6 0.122624 0.412914 0.437352
Si Si7 0.908390 0.170348 0.155722
Si Si8 0.240096 0.117676 0.936956
O O1 0.943447 0.819038 0.950238
O O2 0.031178 0.799236 0.921411
O O3 0.894335 0.333334 0.833334
O O4 0.939449 0.455395 0.827438
O O5 0.007665 0.411089 0.875008
O O6 0.920366 0.394504 0.992727
O O7 0.753021 0.086354 0.166667
O O8 0.773159 0.194845 0.126518
O O9 0.664324 0.095520 0.080161
O O10 0.333334 0.319711 0.666667
O O11 0.373047 0.259621 0.751378
O O12 0.444046 0.380816 0.744995
O O13 0.118464 0.818504 0.095009
O O14 0.096989 0.457620 0.459639
O O15 0.175984 0.433453 0.514159
O O16 0.876802 0.210136 0.166667
O O17 0.907465 0.156702 0.040194
#
# Coordination Sequence:
#
# PCOD9576882 Si02
#       8
#     9  18  18  18  18  18  18  18
#     4  10  20  34  50  74 112 148 180 234 278 338
#     4  10  23  39  57  82 115 154 197 237 291 345
#     4  10  22  32  51  78 111 149 196 231 277 341
#     4  11  23  33  55  79 114 162 196 232 288 348
#     4  10  23  37  52  82 117 153 198 244 279 355
#     4  10  22  36  59  81 109 152 191 236 290 346
#     4  10  20  35  56  78 112 146 186 243 279 339
#     4  10  21  36  53  79 115 145 194 231 288 343
#
# _framework density 17.364384999999999
#
# number of rings (size 3 to 8) (size 9 to 14) (size 15 to 20)
#    0.000    1.867    0.000    4.000   16.800    0.000 
#    0.000    0.000    0.000    0.000    0.000    0.000 
#   48.000    8.533    0.000    0.000    0.000    0.000 
#
# Total GULP energy -250544.274039 kJ/mol
# GULP energy per Si atom -5567.650534 kJ/mol
# Density = 1.732486 g / cm^3
# Si number density = 17.364385 Si / 1000 Ang^3
#
#
#
# Elastic Constant Matrix: (Units=GPa)
#
#
# Indices 1 2 3 4 5 6 
#
# 1 71.8502 27.6762 21.8229 9.1106 0.0002 0.0000
# 2 27.6762 71.8502 21.8229 -9.1106 -0.0002 0.0000
# 3 21.8229 21.8229 65.1453 0.0000 0.0000 0.0000
# 4 9.1106 -9.1106 0.0000 26.1875 0.0000 -0.0002
# 5 0.0002 -0.0002 0.0000 0.0000 26.1875 9.1106
# 6 0.0000 0.0000 0.0000 -0.0002 9.1106 22.0870
#
#
#
# Elastic Compliance Matrix: (Units=1/GPa)
#
#
# Indices 1 2 3 4 5 6 
#
# 1 0.019104 -0.007326 -0.003945 -0.009195 0.000000 0.000000
# 2 -0.007326 0.019104 -0.003945 0.009195 0.000000 0.000000
# 3 -0.003945 -0.003945 0.017994 0.000000 0.000000 0.000000
# 4 -0.009195 0.009195 0.000000 0.044584 0.000000 0.000000
# 5 0.000000 0.000000 0.000000 0.000000 0.044584 -0.018390
# 6 0.000000 0.000000 0.000000 0.000000 -0.018390 0.052861
#
#
# Mechanical properties :
#
#
# Convention : Reuss Voigt Hill
#
# Bulk Modulus (GPa) = 38.80849 39.05438 38.93144
# Shear Modulus (GPa) = 21.07432 24.06066 22.56749
#
# Velocity S-wave (km/s) = 3.48753 3.72645 3.60897
# Velocity P-wave (km/s) = 6.21411 6.40743 6.31151
#
# Compressibility (1/GPa) = 0.02576756
#
# Stress axis : x y z
#
# Youngs Moduli (GPa) = 52.34438 52.34439 55.57522
#
# Poissons Ratio (x) = 0.38350 0.21927
# Poissons Ratio (y) = 0.38350 0.21927
# Poissons Ratio (z) = 0.20652 0.20652
#
# Static dielectric constant tensor:
#      x y z
#    x 1.630070 0.000000 0.000000 
#    y 0.000000 1.630070 0.000000 
#    z 0.000000 0.000000 1.665770 
# 
# From -- ./inp_files/5415.got.cif
#   From: 2010.05.17/outbox.cif.g08.bks.cpg/sg155_3_cif.got.tgz:5415.got - 2010.05.20 10:44:35.
