data_PCOD9576992
_publ_section_title
;
Structure prediction by ZEFSAII (Michael W. Deem and Ramdas Pophale) SiO2 
 PCOD9576992
Probable space group: R 3 2
;
_chemical_formula_sum "Si O2"
_cell_formula_units_Z 114
_cell_length_a 20.654869
_cell_length_b 20.654869
_cell_length_c 15.899040
_cell_angle_alpha 90.000000
_cell_angle_beta 90.000000
_cell_angle_gamma 120.000000
_cell_volume 5874.168816
_symmetry_space_group_name_H-M "R 3 2"
_symmetry_group_IT_number 155
_symmetry_cell_setting 'hexagonal'
loop_
_space_group_symop_operation_xyz
x,y,z
-y,x-y,z
-x+y,-x,z
x-y,-y,-z
-x,-x+y,-z
y,x,-z
2/3+x,1/3+y,1/3+z
2/3-y,1/3+x-y,1/3+z
2/3-x+y,1/3-x,1/3+z
2/3+x-y,1/3-y,1/3-z
2/3-x,1/3-x+y,1/3-z
2/3+y,1/3+x,1/3-z
1/3+x,2/3+y,2/3+z
1/3-y,2/3+x-y,2/3+z
1/3-x+y,2/3-x,2/3+z
1/3+x-y,2/3-y,2/3-z
1/3-x,2/3-x+y,2/3-z
1/3+y,2/3+x,2/3-z
loop_
_atom_site_type_symbol
_atom_site_label
_atom_site_fract_x
_atom_site_fract_y
_atom_site_fract_z
Si Si1 0.261840 0.421345 0.339414
Si Si2 0.666668 0.333334 0.229646
Si Si3 0.512108 0.430583 0.668648
Si Si4 0.848516 0.092033 0.154671
Si Si5 0.832143 0.417263 0.838578
Si Si6 0.827414 0.938170 0.150709
Si Si7 0.821607 0.740041 0.994049
O O1 0.207026 0.333334 0.333334
O O2 0.348238 0.438414 0.342289
O O3 0.250608 0.457985 0.255696
O O4 0.250105 0.461064 0.421396
O O5 0.666668 0.333334 0.333334
O O6 0.611010 0.361506 0.195358
O O7 0.552475 0.435453 0.579815
O O8 0.544730 0.421772 0.754796
O O9 0.513958 0.508620 0.676848
O O10 0.792195 0.125529 0.166667
O O11 0.810630 0.005575 0.129492
O O12 0.907584 0.136306 0.082577
O O13 0.812477 0.333334 0.833334
O O14 0.759198 0.425864 0.833334
O O15 0.786729 0.871642 0.084472
O O16 0.747749 0.747749 0.000000
#
# Coordination Sequence:
#
# PCOD9576992 Si02
#       7
#    18   6  18  18  18  18  18
#     4  10  22  40  62  89 117 152 201 255 305 358
#     4  12  24  39  57  90 133 167 202 243 300 384
#     4   9  21  39  58  83 116 152 198 250 298 355
#     4   9  19  35  54  79 110 148 195 241 288 351
#     4  10  21  39  62  86 115 150 195 249 301 355
#     4  11  22  35  57  86 120 157 193 243 301 357
#     4  11  21  35  56  83 118 158 194 237 296 364
#
# _framework density 19.407001000000001
#
# number of rings (size 3 to 8) (size 9 to 14) (size 15 to 20)
#    0.000    1.895    0.000    3.947    0.000    8.842 
#    0.000    7.105    0.000    0.000    0.000    0.000 
#    0.000    0.000    0.000    0.000    0.000    0.000 
#
# Total GULP energy -211593.443376 kJ/mol
# GULP energy per Si atom -5568.248510 kJ/mol
# Density = 1.936283 g / cm^3
# Si number density = 19.407001 Si / 1000 Ang^3
#
#
#
# Elastic Constant Matrix: (Units=GPa)
#
#
# Indices 1 2 3 4 5 6 
#
# 1 86.0479 43.9801 47.7420 -1.0509 0.0055 0.0000
# 2 43.9801 86.0474 47.7420 1.0497 -0.0053 0.0001
# 3 47.7420 47.7420 156.6993 0.0006 0.0003 0.0000
# 4 -1.0509 1.0497 0.0006 -16.1150 0.0004 -0.0055
# 5 0.0055 -0.0053 0.0003 0.0004 -16.1126 -1.0498
# 6 0.0000 0.0001 0.0000 -0.0055 -1.0498 21.0340
#
#
#
# Elastic Compliance Matrix: (Units=1/GPa)
#
#
# Indices 1 2 3 4 5 6 
#
# 1 0.016801 -0.006893 -0.003018 -0.001545 0.000008 0.000000
# 2 -0.006893 0.016801 -0.003018 0.001544 -0.000008 0.000000
# 3 -0.003018 -0.003018 0.008221 0.000001 0.000000 0.000000
# 4 -0.001545 0.001544 0.000001 -0.061853 -0.000002 -0.000016
# 5 0.000008 -0.000008 0.000000 -0.000002 -0.061862 -0.003088
# 6 0.000000 0.000000 0.000000 -0.000016 -0.003088 0.047388
#
#
# Mechanical properties :
#
#
# Convention : Reuss Voigt Hill
#
# Bulk Modulus (GPa) = 62.65058 67.52476 65.08767
# Shear Modulus (GPa) = -1504.65702 10.38332 -747.13685
#
# Velocity S-wave (km/s) = -27.87472 2.31558 -19.64227
# Velocity P-wave (km/s) = 31.68039 6.48219 21.92748
#
# Compressibility (1/GPa) = 0.01596154
#
# Stress axis : x y z
#
# Youngs Moduli (GPa) = 59.52163 59.52099 121.64071
#
# Poissons Ratio (x) = 0.41031 0.36716
# Poissons Ratio (y) = 0.41031 0.36717
# Poissons Ratio (z) = 0.17966 0.17966
#
# Static dielectric constant tensor:
#      x y z
#    x 1.707390 0.000000 0.000000 
#    y 0.000000 1.707400 0.000000 
#    z 0.000000 0.000000 1.679830 
# 
# From -- ./inp_files/5213.got.cif
#   From: 2010.05.17/outbox.cif.g08.bks.cpg/sg155_3_cif.got.tgz:5213.got - 2010.05.20 10:44:35.
