data_PCOD9576140
_publ_section_title
;
Structure prediction by ZEFSAII (Michael W. Deem and Ramdas Pophale) SiO2 
 PCOD9576140
Probable space group: P 31 2 1
;
_chemical_formula_sum "Si O2"
_cell_formula_units_Z 39
_cell_length_a 7.867642
_cell_length_b 7.867642
_cell_length_c 30.367322
_cell_angle_alpha 90.000000
_cell_angle_beta 90.000000
_cell_angle_gamma 120.000000
_cell_volume 1627.894689
_symmetry_space_group_name_H-M "P 31 2 1"
_symmetry_group_IT_number 152
_symmetry_cell_setting 'hexagonal'
loop_
_space_group_symop_operation_xyz
x,y,z
-y,x-y,1/3+z
-x+y,-x,2/3+z
x-y,-y,2/3-z
-x,-x+y,1/3-z
y,x,-z
loop_
_atom_site_type_symbol
_atom_site_label
_atom_site_fract_x
_atom_site_fract_y
_atom_site_fract_z
Si Si1 0.228846 0.362622 0.044272
Si Si2 0.634624 0.446250 0.279868
Si Si3 0.776495 0.578322 0.024397
Si Si4 0.019344 0.000000 0.833334
Si Si5 0.967467 0.077113 0.928979
Si Si6 0.576280 0.432009 0.108270
Si Si7 0.816234 0.594756 0.859946
O O1 0.233501 0.570813 0.044847
O O2 0.376040 0.382214 0.083528
O O3 0.048982 0.152236 0.058471
O O4 0.293666 0.293666 0.000000
O O5 0.487999 0.361441 0.320913
O O6 0.738394 0.681039 0.277446
O O7 0.520521 0.356261 0.234412
O O8 0.703629 0.435145 0.066704
O O9 0.907171 0.785162 0.046462
O O10 0.611110 0.611110 0.000000
O O11 0.950604 0.068358 0.876348
O O12 0.211232 0.199494 0.817842
O O13 0.536186 0.291975 0.149276
O O14 0.646927 0.647809 0.127919
#
# Coordination Sequence:
#
# PCOD9576140 Si02
#       7
#     6   6   6   3   6   6   6
#     4  11  22  44  70  97 141 183 229 292 354 414
#     4  11  25  45  71 106 141 186 240 292 360 437
#     4  12  22  47  69  98 141 187 237 299 364 419
#     4  12  22  44  68 104 140 182 236 296 360 426
#     4  12  27  42  75 103 141 186 237 297 359 435
#     4  11  21  42  69  95 137 186 226 288 361 421
#     4  11  23  41  70  96 136 187 229 287 362 423
#
# _framework density 23.957325999999998
#
# number of rings (size 3 to 8) (size 9 to 14) (size 15 to 20)
#    0.000    0.615    7.692    1.385    2.154    0.000 
#    0.000    2.308    0.000    0.000    0.000    0.000 
#    0.000    0.000    0.000    0.000    0.000    0.000 
#
# Total GULP energy -217459.788321 kJ/mol
# GULP energy per Si atom -5575.892008 kJ/mol
# Density = 2.390280 g / cm^3
# Si number density = 23.957326 Si / 1000 Ang^3
#
#
#
# Elastic Constant Matrix: (Units=GPa)
#
#
# Indices 1 2 3 4 5 6 
#
# 1 63.9119 12.7706 32.0662 7.2695 0.0000 0.0000
# 2 12.7706 63.9119 32.0662 -7.2695 0.0000 0.0000
# 3 32.0662 32.0662 188.6939 0.0000 0.0000 0.0000
# 4 7.2695 -7.2695 0.0000 36.8087 0.0000 0.0000
# 5 0.0000 0.0000 0.0000 0.0000 36.8087 7.2695
# 6 0.0000 0.0000 0.0000 0.0000 7.2695 25.5707
#
#
#
# Elastic Compliance Matrix: (Units=1/GPa)
#
#
# Indices 1 2 3 4 5 6 
#
# 1 0.017959 -0.002758 -0.002583 -0.004091 0.000000 0.000000
# 2 -0.002758 0.017959 -0.002583 0.004091 0.000000 0.000000
# 3 -0.002583 -0.002583 0.006178 0.000000 0.000000 0.000000
# 4 -0.004091 0.004091 0.000000 0.028784 0.000000 0.000000
# 5 0.000000 0.000000 0.000000 0.000000 0.028784 -0.008183
# 6 0.000000 0.000000 0.000000 0.000000 -0.008183 0.041434
#
#
# Mechanical properties :
#
#
# Convention : Reuss Voigt Hill
#
# Bulk Modulus (GPa) = 38.09953 52.25819 45.17886
# Shear Modulus (GPa) = 30.17610 35.81194 32.99402
#
# Velocity S-wave (km/s) = 3.55290 3.87049 3.71509
# Velocity P-wave (km/s) = 5.72437 6.46797 6.10750
#
# Compressibility (1/GPa) = 0.02624704
#
# Stress axis : x y z
#
# Youngs Moduli (GPa) = 55.68226 55.68226 161.87573
#
# Poissons Ratio (x) = 0.15356 0.41817
# Poissons Ratio (y) = 0.15356 0.41817
# Poissons Ratio (z) = 0.14384 0.14384
#
# Static dielectric constant tensor:
#      x y z
#    x 2.069380 0.000000 0.000000 
#    y 0.000000 2.069380 0.000000 
#    z 0.000000 0.000000 1.919610 
# 
# From -- ./inp_files/3632.got.cif
#   From: 2010.05.17/outbox.cif.g08.bks.cpg/sg152_2_cif.got.tgz:3632.got - 2010.05.20 10:36:06.
