data_PCOD9576318
_publ_section_title
;
Structure prediction by ZEFSAII (Michael W. Deem and Ramdas Pophale) SiO2 
 PCOD9576318
Probable space group: P 32 1 2
;
_chemical_formula_sum "Si O2"
_cell_formula_units_Z 30
_cell_length_a 13.677320
_cell_length_b 13.677320
_cell_length_c 8.526013
_cell_angle_alpha 90.000000
_cell_angle_beta 90.000000
_cell_angle_gamma 120.000000
_cell_volume 1381.270187
_symmetry_space_group_name_H-M "P 32 1 2"
_symmetry_group_IT_number 153
_symmetry_cell_setting 'hexagonal'
loop_
_space_group_symop_operation_xyz
x,y,z
-y,x-y,2/3+z
-x+y,-x,1/3+z
-y,-x,1/3-z
-x+y,y,2/3-z
x,x-y,-z
loop_
_atom_site_type_symbol
_atom_site_label
_atom_site_fract_x
_atom_site_fract_y
_atom_site_fract_z
Si Si1 0.758824 0.033636 0.088561
Si Si2 0.921533 0.960767 0.000000
Si Si3 0.815878 0.485194 0.689068
Si Si4 0.431464 0.136684 0.104207
Si Si5 0.261211 0.630606 0.000000
Si Si6 0.268392 0.364184 0.718949
O O1 0.848928 0.151073 0.166667
O O2 0.667221 0.064344 0.030014
O O3 0.835886 0.008649 0.974841
O O4 0.705774 0.941819 0.225020
O O5 0.986994 0.013007 0.166667
O O6 0.728645 0.457289 0.833334
O O7 0.852496 0.391264 0.677902
O O8 0.745869 0.509737 0.562483
O O9 0.359626 0.017625 0.190347
O O10 0.363128 0.181564 0.000000
O O11 0.331466 0.668534 0.166667
O O12 0.179112 0.683772 0.010735
O O13 0.163025 0.326049 0.833334
#
# Coordination Sequence:
#
# PCOD9576318 Si02
#       6
#     6   3   6   6   3   6
#     4  10  21  41  64  95 133 183 233 289 360 431
#     4  10  24  45  68  96 131 190 248 312 358 416
#     4  11  21  39  65  98 136 180 224 284 369 438
#     4  12  24  41  67 103 144 183 231 298 365 461
#     4  10  24  49  82 112 147 196 258 324 386 456
#     4  11  24  45  71 107 147 197 244 305 381 446
#
# _framework density 21.719138999999998
#
# number of rings (size 3 to 8) (size 9 to 14) (size 15 to 20)
#    0.000    1.200    4.000    3.600    0.000    5.600 
#    1.800   10.000    0.000    0.000    0.000    0.000 
#    0.000    0.000    0.000    0.000    0.000    0.000 
#
# Total GULP energy -167168.647230 kJ/mol
# GULP energy per Si atom -5572.288241 kJ/mol
# Density = 2.166971 g / cm^3
# Si number density = 21.719139 Si / 1000 Ang^3
#
#
#
# Elastic Constant Matrix: (Units=GPa)
#
#
# Indices 1 2 3 4 5 6 
#
# 1 141.5613 16.3319 58.0064 0.0002 7.2336 0.0000
# 2 16.3319 141.5613 58.0064 -0.0002 -7.2336 0.0000
# 3 58.0064 58.0064 110.1617 0.0000 0.0000 0.0000
# 4 0.0002 -0.0002 0.0000 44.4924 0.0000 -7.2336
# 5 7.2336 -7.2336 0.0000 0.0000 44.4924 0.0002
# 6 0.0000 0.0000 0.0000 -7.2336 0.0002 62.6147
#
#
#
# Elastic Compliance Matrix: (Units=1/GPa)
#
#
# Indices 1 2 3 4 5 6 
#
# 1 0.009234 0.001096 -0.005439 0.000000 -0.001323 0.000000
# 2 0.001096 0.009234 -0.005439 0.000000 0.001323 0.000000
# 3 -0.005439 -0.005439 0.014806 0.000000 0.000000 0.000000
# 4 0.000000 0.000000 0.000000 0.022906 0.000000 0.002646
# 5 -0.001323 0.001323 0.000000 0.000000 0.022906 0.000000
# 6 0.000000 0.000000 0.000000 0.002646 0.000000 0.016276
#
#
# Mechanical properties :
#
#
# Convention : Reuss Voigt Hill
#
# Bulk Modulus (GPa) = 72.94772 73.10820 73.02796
# Shear Modulus (GPa) = 41.84195 47.71585 44.77890
#
# Velocity S-wave (km/s) = 4.39395 4.69225 4.54555
# Velocity P-wave (km/s) = 7.70728 7.94292 7.82599
#
# Compressibility (1/GPa) = 0.01370845
#
# Stress axis : x y z
#
# Youngs Moduli (GPa) = 108.29454 108.29454 67.54120
#
# Poissons Ratio (x) = -0.11868 0.36738
# Poissons Ratio (y) = -0.11868 0.36738
# Poissons Ratio (z) = 0.58905 0.58905
#
# Static dielectric constant tensor:
#      x y z
#    x 1.853620 0.000000 0.000000 
#    y 0.000000 1.853620 0.000000 
#    z 0.000000 0.000000 1.929040 
# 
# From -- ./inp_files/1582.got.cif
#   From: 2010.05.17/outbox.cif.g08.bks.cpg/sg153_1_cif.got.tgz:1582.got - 2010.05.20 10:38:56.
