data_PCOD9576058
_publ_section_title
;
Structure prediction by ZEFSAII (Michael W. Deem and Ramdas Pophale) SiO2 
 PCOD9576058
Probable space group: P 31 2 1
;
_chemical_formula_sum "Si O2"
_cell_formula_units_Z 36
_cell_length_a 8.399926
_cell_length_b 8.399926
_cell_length_c 27.371019
_cell_angle_alpha 90.000000
_cell_angle_beta 90.000000
_cell_angle_gamma 120.000000
_cell_volume 1672.524615
_symmetry_space_group_name_H-M "P 31 2 1"
_symmetry_group_IT_number 152
_symmetry_cell_setting 'hexagonal'
loop_
_space_group_symop_operation_xyz
x,y,z
-y,x-y,1/3+z
-x+y,-x,2/3+z
x-y,-y,2/3-z
-x,-x+y,1/3-z
y,x,-z
loop_
_atom_site_type_symbol
_atom_site_label
_atom_site_fract_x
_atom_site_fract_y
_atom_site_fract_z
Si Si1 0.568390 0.755883 0.630311
Si Si2 0.195564 0.606908 0.061323
Si Si3 0.924338 0.572453 0.549770
Si Si4 0.137024 0.267804 0.454236
Si Si5 0.342836 0.796008 0.544540
Si Si6 0.958857 0.906048 0.612219
O O1 0.499837 0.748520 0.684774
O O2 0.584807 0.575173 0.621232
O O3 0.432440 0.779479 0.594260
O O4 0.775457 0.916345 0.618976
O O5 0.358894 0.568155 0.075750
O O6 0.142501 0.684083 0.108255
O O7 0.823706 0.483205 0.498979
O O8 0.931223 0.757570 0.570173
O O9 0.134913 0.624170 0.543427
O O10 0.169898 0.169898 0.500000
O O11 0.972061 0.313175 0.458786
O O12 0.088172 0.131943 0.407946
O O13 0.000000 0.857523 0.666667
#
# Coordination Sequence:
#
# PCOD9576058 Si02
#       6
#     6   6   6   6   6   6
#     4  11  25  42  71  98 141 184 230 289 346 421
#     4  11  24  44  66 102 137 186 230 284 352 418
#     4  10  25  41  73  93 139 180 232 292 352 414
#     4  11  25  44  70 100 141 178 232 288 350 423
#     4  11  25  45  67 102 136 182 236 291 347 422
#     4  10  22  45  68 101 138 188 228 280 359 429
#
# _framework density 21.524345
#
# number of rings (size 3 to 8) (size 9 to 14) (size 15 to 20)
#    0.000    1.333    1.667    2.000   16.333    1.333 
#    0.000    1.667    0.000    0.000    0.000    0.000 
#    0.000    0.000    0.000    0.000    0.000    0.000 
#
# Total GULP energy -200803.745994 kJ/mol
# GULP energy per Si atom -5577.881833 kJ/mol
# Density = 2.147535 g / cm^3
# Si number density = 21.524345 Si / 1000 Ang^3
#
#
#
# Elastic Constant Matrix: (Units=GPa)
#
#
# Indices 1 2 3 4 5 6 
#
# 1 65.0248 14.6074 23.1429 -9.9424 -0.0001 0.0000
# 2 14.6074 65.0248 23.1429 9.9424 0.0001 0.0000
# 3 23.1429 23.1429 96.5051 0.0000 0.0000 0.0000
# 4 -9.9424 9.9424 0.0000 34.8443 0.0000 0.0001
# 5 -0.0001 0.0001 0.0000 0.0000 34.8443 -9.9424
# 6 0.0000 0.0000 0.0000 0.0001 -9.9424 25.2087
#
#
#
# Elastic Compliance Matrix: (Units=1/GPa)
#
#
# Indices 1 2 3 4 5 6 
#
# 1 0.018471 -0.003879 -0.003499 0.006377 0.000000 0.000000
# 2 -0.003879 0.018471 -0.003499 -0.006377 0.000000 0.000000
# 3 -0.003499 -0.003499 0.012040 0.000000 0.000000 0.000000
# 4 0.006377 -0.006377 0.000000 0.032338 0.000000 0.000000
# 5 0.000000 0.000000 0.000000 0.000000 0.032338 0.012754
# 6 0.000000 0.000000 0.000000 0.000000 0.012754 0.044699
#
#
# Mechanical properties :
#
#
# Convention : Reuss Voigt Hill
#
# Bulk Modulus (GPa) = 36.72848 38.70458 37.71653
# Shear Modulus (GPa) = 26.42874 30.02359 28.22617
#
# Velocity S-wave (km/s) = 3.50788 3.73884 3.62520
# Velocity P-wave (km/s) = 5.78858 6.05470 5.92314
#
# Compressibility (1/GPa) = 0.02722682
#
# Stress axis : x y z
#
# Youngs Moduli (GPa) = 54.14007 54.14007 83.05343
#
# Poissons Ratio (x) = 0.21001 0.29062
# Poissons Ratio (y) = 0.21001 0.29062
# Poissons Ratio (z) = 0.18945 0.18945
#
# Static dielectric constant tensor:
#      x y z
#    x 1.820890 0.000000 0.000000 
#    y 0.000000 1.820890 0.000000 
#    z 0.000000 0.000000 1.773290 
# 
# From -- ./inp_files/3353.got.cif
#   From: 2010.05.17/outbox.cif.g08.bks.cpg/sg152_2_cif.got.tgz:3353.got - 2010.05.20 10:36:06.
