data_PCOD9576328
_publ_section_title
;
Structure prediction by ZEFSAII (Michael W. Deem and Ramdas Pophale) SiO2 
 PCOD9576328
Probable space group: P 32 1 2
;
_chemical_formula_sum "Si O2"
_cell_formula_units_Z 42
_cell_length_a 20.903128
_cell_length_b 20.903128
_cell_length_c 5.249551
_cell_angle_alpha 90.000000
_cell_angle_beta 90.000000
_cell_angle_gamma 120.000000
_cell_volume 1986.439539
_symmetry_space_group_name_H-M "P 32 1 2"
_symmetry_group_IT_number 153
_symmetry_cell_setting 'hexagonal'
loop_
_space_group_symop_operation_xyz
x,y,z
-y,x-y,2/3+z
-x+y,-x,1/3+z
-y,-x,1/3-z
-x+y,y,2/3-z
x,x-y,-z
loop_
_atom_site_type_symbol
_atom_site_label
_atom_site_fract_x
_atom_site_fract_y
_atom_site_fract_z
Si Si1 0.190212 0.525780 0.913683
Si Si2 0.711474 0.961548 0.939467
Si Si3 0.938026 0.427938 0.258728
Si Si4 0.355463 0.901567 0.752679
Si Si5 0.375723 0.111071 0.472379
Si Si6 0.247495 0.190928 0.866337
Si Si7 0.051575 0.178570 0.090756
O O1 0.256699 0.513398 0.833334
O O2 0.136004 0.503544 0.668601
O O3 0.219434 0.609717 0.000000
O O4 0.146912 0.480975 0.163690
O O5 0.766635 0.983694 0.704433
O O6 0.627523 0.915096 0.858535
O O7 0.727506 0.043162 0.022839
O O8 0.736549 0.923959 0.155590
O O9 0.908597 0.454299 0.500000
O O10 0.890517 0.341079 0.185746
O O11 0.019171 0.444676 0.348729
O O12 0.945036 0.472518 0.000000
O O13 0.382069 0.191035 0.500000
O O14 0.331790 0.081260 0.206773
O O15 0.189591 0.156960 0.634706
O O16 0.248506 0.124253 0.000000
O O17 0.073104 0.146208 0.333334
O O18 0.081337 0.162674 0.833334
#
# Coordination Sequence:
#
# PCOD9576328 Si02
#       7
#     6   6   6   6   6   6   6
#     4  12  27  47  66  92 121 171 222 270 322 381
#     4  10  23  39  64  98 132 169 211 267 335 401
#     4  11  24  41  66  96 133 178 220 266 332 408
#     4  11  25  42  66  94 130 164 212 267 335 393
#     4  10  22  38  65  99 137 172 219 278 331 398
#     4  11  22  40  67 100 138 169 221 274 339 396
#     4  11  23  40  60  93 132 178 218 257 326 395
#
# _framework density 21.143355
#
# number of rings (size 3 to 8) (size 9 to 14) (size 15 to 20)
#    0.000    1.143    2.857    3.000   10.000    2.857 
#    0.000    0.000    0.000    0.857    3.714    0.000 
#    0.000    0.000    0.000    0.000    0.000    0.000 
#
# Total GULP energy -234157.351887 kJ/mol
# GULP energy per Si atom -5575.175045 kJ/mol
# Density = 2.109523 g / cm^3
# Si number density = 21.143355 Si / 1000 Ang^3
#
#
#
# Elastic Constant Matrix: (Units=GPa)
#
#
# Indices 1 2 3 4 5 6 
#
# 1 51.8378 35.2160 36.6459 0.0002 -1.6276 0.0000
# 2 35.2160 51.8378 36.6459 -0.0002 1.6276 0.0000
# 3 36.6459 36.6459 138.8211 0.0000 0.0000 0.0000
# 4 0.0002 -0.0002 0.0000 35.5783 0.0000 1.6276
# 5 -1.6276 1.6276 0.0000 0.0000 35.5783 0.0002
# 6 0.0000 0.0000 0.0000 1.6276 0.0002 8.3109
#
#
#
# Elastic Compliance Matrix: (Units=1/GPa)
#
#
# Indices 1 2 3 4 5 6 
#
# 1 0.037738 -0.022968 -0.003899 0.000000 0.002777 0.000000
# 2 -0.022968 0.037738 -0.003899 0.000000 -0.002777 0.000000
# 3 -0.003899 -0.003899 0.009262 0.000000 0.000000 0.000000
# 4 0.000000 0.000000 0.000000 0.028361 0.000000 -0.005554
# 5 0.002777 -0.002777 0.000000 0.000000 0.028361 -0.000001
# 6 0.000000 0.000000 0.000000 -0.005554 -0.000001 0.121412
#
#
# Mechanical properties :
#
#
# Convention : Reuss Voigt Hill
#
# Bulk Modulus (GPa) = 43.09270 51.05689 47.07479
# Shear Modulus (GPa) = 15.05396 24.82609 19.94003
#
# Velocity S-wave (km/s) = 2.67122 3.43035 3.07430
# Velocity P-wave (km/s) = 5.47168 6.31586 5.90887
#
# Compressibility (1/GPa) = 0.02320579
#
# Stress axis : x y z
#
# Youngs Moduli (GPa) = 26.49865 26.49865 107.96845
#
# Poissons Ratio (x) = 0.60862 0.42096
# Poissons Ratio (y) = 0.60862 0.42096
# Poissons Ratio (z) = 0.10332 0.10332
#
# Static dielectric constant tensor:
#      x y z
#    x 1.793510 0.000000 0.000000 
#    y 0.000000 1.793510 0.000000 
#    z 0.000000 0.000000 1.862480 
# 
# From -- ./inp_files/797.got.cif
#   From: 2010.05.17/outbox.cif.g08.bks.cpg/sg153_1_cif.got.tgz:797.got - 2010.05.20 10:38:56.
