data_PCOD9576970
_publ_section_title
;
Structure prediction by ZEFSAII (Michael W. Deem and Ramdas Pophale) SiO2 
 PCOD9576970
Probable space group: R 3 2
;
_chemical_formula_sum "Si O2"
_cell_formula_units_Z 144
_cell_length_a 28.874443
_cell_length_b 28.874443
_cell_length_c 9.393880
_cell_angle_alpha 90.000000
_cell_angle_beta 90.000000
_cell_angle_gamma 120.000000
_cell_volume 6782.704088
_symmetry_space_group_name_H-M "R 3 2"
_symmetry_group_IT_number 155
_symmetry_cell_setting 'hexagonal'
loop_
_space_group_symop_operation_xyz
x,y,z
-y,x-y,z
-x+y,-x,z
x-y,-y,-z
-x,-x+y,-z
y,x,-z
2/3+x,1/3+y,1/3+z
2/3-y,1/3+x-y,1/3+z
2/3-x+y,1/3-x,1/3+z
2/3+x-y,1/3-y,1/3-z
2/3-x,1/3-x+y,1/3-z
2/3+y,1/3+x,1/3-z
1/3+x,2/3+y,2/3+z
1/3-y,2/3+x-y,2/3+z
1/3-x+y,2/3-x,2/3+z
1/3+x-y,2/3-y,2/3-z
1/3-x,2/3-x+y,2/3-z
1/3+y,2/3+x,2/3-z
loop_
_atom_site_type_symbol
_atom_site_label
_atom_site_fract_x
_atom_site_fract_y
_atom_site_fract_z
Si Si1 0.909389 0.132562 0.471661
Si Si2 0.760188 0.726197 0.631906
Si Si3 0.536945 0.598488 0.465801
Si Si4 0.732031 0.109084 0.077269
Si Si5 0.881364 0.818775 0.002393
Si Si6 0.505672 0.789503 0.928305
Si Si7 0.195985 0.738663 0.408359
Si Si8 0.969463 0.583944 0.149370
O O1 0.948958 0.180394 0.577036
O O2 0.906618 0.168338 0.344047
O O3 0.917883 0.088692 0.383809
O O4 0.864598 0.096229 0.586056
O O5 0.722109 0.722109 0.500000
O O6 0.748550 0.666667 0.666667
O O7 0.746986 0.753735 0.760971
O O8 0.567945 0.567945 0.500000
O O9 0.498270 0.596691 0.589975
O O10 0.782044 0.115378 0.166667
O O11 0.729947 0.162581 0.062440
O O12 0.678386 0.067377 0.161365
O O13 0.733252 0.081856 0.931269
O O14 0.931798 0.837166 0.108890
O O15 0.861156 0.861156 0.000000
O O16 0.894676 0.806839 0.846176
O O17 0.475225 0.822724 0.945989
O O18 0.145026 0.736241 0.485248
O O19 0.000000 0.600709 0.000000
#
# Coordination Sequence:
#
# PCOD9576970 Si02
#       8
#    18  18  18  18  18  18  18  18
#     4  10  22  38  59  88 120 158 216 267 306 362
#     4  10  21  37  59  88 126 173 220 260 303 362
#     4  10  23  41  61  90 133 178 217 261 314 369
#     4  11  21  35  54  80 119 166 210 250 292 348
#     4  11  24  41  64  93 123 159 207 266 331 390
#     4  10  23  42  62  89 123 161 204 257 326 389
#     4  11  23  40  64  91 122 167 212 258 322 390
#     4  11  22  34  54  85 124 166 210 251 290 342
#
# _framework density 21.230471000000001
#
# number of rings (size 3 to 8) (size 9 to 14) (size 15 to 20)
#    0.000    1.500    0.000    4.875    0.000   16.000 
#    0.000    0.000    0.000    2.000    0.000    0.000 
#    0.000    0.000    0.000    0.000    0.000    0.000 
#
# Total GULP energy -267850.168054 kJ/mol
# GULP energy per Si atom -5580.211834 kJ/mol
# Density = 2.118215 g / cm^3
# Si number density = 21.230471 Si / 1000 Ang^3
#
#
#
# Elastic Constant Matrix: (Units=GPa)
#
#
# Indices 1 2 3 4 5 6 
#
# 1 76.7486 48.1061 30.8877 -2.6542 -0.0688 -0.0157
# 2 48.1061 76.7692 31.0441 2.6443 0.0640 0.0083
# 3 30.8877 31.0441 97.8960 -0.0418 -0.0114 -0.0016
# 4 -2.6542 2.6443 -0.0418 21.8605 -0.0602 -0.0055
# 5 -0.0688 0.0640 -0.0114 -0.0602 21.8068 -2.6450
# 6 -0.0157 0.0083 -0.0016 -0.0055 -2.6450 14.3727
#
#
#
# Elastic Compliance Matrix: (Units=1/GPa)
#
#
# Indices 1 2 3 4 5 6 
#
# 1 0.022586 -0.013101 -0.002970 0.004322 0.000127 0.000057
# 2 -0.013101 0.022614 -0.003039 -0.004332 -0.000128 -0.000053
# 3 -0.002970 -0.003039 0.012116 0.000030 0.000006 0.000001
# 4 0.004322 -0.004332 0.000030 0.046794 0.000162 0.000055
# 5 0.000127 -0.000128 0.000006 0.000162 0.046906 0.008632
# 6 0.000057 -0.000053 0.000001 0.000055 0.008632 0.071165
#
#
# Mechanical properties :
#
#
# Convention : Reuss Voigt Hill
#
# Bulk Modulus (GPa) = 52.36961 52.38773 52.37867
# Shear Modulus (GPa) = 18.74292 21.03305 19.88799
#
# Velocity S-wave (km/s) = 2.97447 3.15095 3.06398
# Velocity P-wave (km/s) = 6.04296 6.16176 6.10265
#
# Compressibility (1/GPa) = 0.01909504
#
# Stress axis : x y z
#
# Youngs Moduli (GPa) = 44.27464 44.21988 82.53667
#
# Poissons Ratio (x) = 0.57934 0.24512
# Poissons Ratio (y) = 0.58006 0.25087
# Poissons Ratio (z) = 0.13149 0.13441
#
# Static dielectric constant tensor:
#      x y z
#    x 1.796320 -0.000010 -0.000030 
#    y -0.000010 1.796350 -0.000010 
#    z -0.000030 -0.000010 1.811450 
# 
# From -- ./inp_files/3088.got.cif
#   From: 2010.05.17/outbox.cif.g08.bks.cpg/sg155_2_cif.got.tgz:3088.got - 2010.05.20 10:44:35.
