data_PCOD9576628
_publ_section_title
;
Structure prediction by ZEFSAII (Michael W. Deem and Ramdas Pophale) SiO2 
 PCOD9576628
Probable space group: P 32 2 1
;
_chemical_formula_sum "Si O2"
_cell_formula_units_Z 33
_cell_length_a 14.510599
_cell_length_b 14.510599
_cell_length_c 7.339410
_cell_angle_alpha 90.000000
_cell_angle_beta 90.000000
_cell_angle_gamma 120.000000
_cell_volume 1338.327685
_symmetry_space_group_name_H-M "P 32 2 1"
_symmetry_group_IT_number 154
_symmetry_cell_setting 'hexagonal'
loop_
_space_group_symop_operation_xyz
x,y,z
-y,x-y,2/3+z
-x+y,-x,1/3+z
x-y,-y,1/3-z
-x,-x+y,2/3-z
y,x,-z
loop_
_atom_site_type_symbol
_atom_site_label
_atom_site_fract_x
_atom_site_fract_y
_atom_site_fract_z
Si Si1 0.034745 0.508034 0.130293
Si Si2 0.959733 0.108371 0.659590
Si Si3 0.814631 0.000000 0.166667
Si Si4 0.696426 0.275991 0.919071
Si Si5 0.294858 0.364855 0.186992
Si Si6 0.393166 0.133981 0.040000
O O1 0.156419 0.604858 0.130099
O O2 0.045575 0.420740 0.019470
O O3 0.000000 0.466919 0.333334
O O4 0.956116 0.548417 0.058602
O O5 0.922113 0.189611 0.715292
O O6 0.065195 0.164185 0.536354
O O7 0.847632 0.000000 0.666667
O O8 0.000000 0.069059 0.833334
O O9 0.765143 0.033395 0.335040
O O10 0.700818 0.365445 0.782360
O O11 0.802379 0.269046 0.878127
O O12 0.222146 0.413886 0.119297
O O13 0.335899 0.335899 0.000000
#
# Coordination Sequence:
#
# PCOD9576628 Si02
#       6
#     6   6   3   6   6   6
#     4  10  22  44  69 102 143 190 239 297 371 437
#     4  12  26  46  71 106 147 188 243 310 373 441
#     4  12  28  46  78 112 134 200 252 298 376 464
#     4  10  22  46  72  99 136 191 240 298 366 434
#     4  11  23  49  75  98 151 190 236 312 373 431
#     4  11  23  43  70  99 143 192 233 304 372 432
#
# _framework density 24.657639
#
# number of rings (size 3 to 8) (size 9 to 14) (size 15 to 20)
#    0.000    1.091    4.545    2.727    2.545    0.000 
#   18.000    0.000    0.000    0.000    0.000    0.000 
#    0.000    0.000    0.000    0.000    0.000    0.000 
#
# Total GULP energy -183968.587465 kJ/mol
# GULP energy per Si atom -5574.805681 kJ/mol
# Density = 2.460152 g / cm^3
# Si number density = 24.657639 Si / 1000 Ang^3
#
#
#
# Elastic Constant Matrix: (Units=GPa)
#
#
# Indices 1 2 3 4 5 6 
#
# 1 144.5172 44.8986 21.6620 -5.0859 -0.0002 0.0000
# 2 44.8986 144.5172 21.6620 5.0859 0.0002 0.0000
# 3 21.6620 21.6620 60.2292 0.0000 0.0000 0.0000
# 4 -5.0859 5.0859 0.0000 81.8231 0.0000 0.0002
# 5 -0.0002 0.0002 0.0000 0.0000 81.8231 -5.0859
# 6 0.0000 0.0000 0.0000 0.0002 -5.0859 49.8093
#
#
#
# Elastic Compliance Matrix: (Units=1/GPa)
#
#
# Indices 1 2 3 4 5 6 
#
# 1 0.007928 -0.002175 -0.002069 0.000628 0.000000 0.000000
# 2 -0.002175 0.007928 -0.002069 -0.000628 0.000000 0.000000
# 3 -0.002069 -0.002069 0.018091 0.000000 0.000000 0.000000
# 4 0.000628 -0.000628 0.000000 0.012300 0.000000 0.000000
# 5 0.000000 0.000000 0.000000 0.000000 0.012300 0.001256
# 6 0.000000 0.000000 0.000000 0.000000 0.001256 0.020205
#
#
# Mechanical properties :
#
#
# Convention : Reuss Voigt Hill
#
# Bulk Modulus (GPa) = 46.90253 58.41207 52.65730
# Shear Modulus (GPa) = 50.77016 60.09385 55.43200
#
# Velocity S-wave (km/s) = 4.54255 4.94208 4.74652
# Velocity P-wave (km/s) = 6.82464 7.50375 7.17224
#
# Compressibility (1/GPa) = 0.02132081
#
# Stress axis : x y z
#
# Youngs Moduli (GPa) = 126.14303 126.14303 55.27458
#
# Poissons Ratio (x) = 0.27435 0.11436
# Poissons Ratio (y) = 0.27435 0.11436
# Poissons Ratio (z) = 0.26099 0.26099
#
# Static dielectric constant tensor:
#      x y z
#    x 1.309740 0.000000 0.000000 
#    y 0.000000 1.309740 0.000000 
#    z 0.000000 0.000000 1.970390 
# 
# From -- ./inp_files/1145.got.cif
#   From: 2010.05.17/outbox.cif.g08.bks.cpg/sg154_1_cif.got.tgz:1145.got - 2010.05.20 10:41:43.
