data_PCOD9576699
_publ_section_title
;
Structure prediction by ZEFSAII (Michael W. Deem and Ramdas Pophale) SiO2 
 PCOD9576699
Probable space group: P 32 2 1
;
_chemical_formula_sum "Si O2"
_cell_formula_units_Z 42
_cell_length_a 14.437328
_cell_length_b 14.437328
_cell_length_c 13.023288
_cell_angle_alpha 90.000000
_cell_angle_beta 90.000000
_cell_angle_gamma 120.000000
_cell_volume 2350.850021
_symmetry_space_group_name_H-M "P 32 2 1"
_symmetry_group_IT_number 154
_symmetry_cell_setting 'hexagonal'
loop_
_space_group_symop_operation_xyz
x,y,z
-y,x-y,2/3+z
-x+y,-x,1/3+z
x-y,-y,1/3-z
-x,-x+y,2/3-z
y,x,-z
loop_
_atom_site_type_symbol
_atom_site_label
_atom_site_fract_x
_atom_site_fract_y
_atom_site_fract_z
Si Si1 0.356067 0.302150 0.387128
Si Si2 0.259760 0.701120 0.436910
Si Si3 0.380343 0.792162 0.105292
Si Si4 0.594138 0.505106 0.358182
Si Si5 0.478099 0.112815 0.626088
Si Si6 0.845731 0.579734 0.037456
Si Si7 0.872434 0.294192 0.057321
O O1 0.324973 0.324973 0.500000
O O2 0.472818 0.402545 0.353596
O O3 0.277265 0.316890 0.309629
O O4 0.352840 0.188396 0.388245
O O5 0.342444 0.668081 0.483900
O O6 0.327136 0.815116 0.383388
O O7 0.194584 0.603398 0.358776
O O8 0.176558 0.695482 0.521616
O O9 0.377862 0.869537 0.191437
O O10 0.497233 0.831974 0.055805
O O11 0.312607 0.788414 0.007470
O O12 0.604337 0.618995 0.329152
O O13 0.406513 0.150109 0.688231
O O14 0.450323 0.115294 0.506984
O O15 0.452464 0.000000 0.666667
#
# Coordination Sequence:
#
# PCOD9576699 Si02
#       7
#     6   6   6   6   6   6   6
#     4  12  20  38  60  83 119 166 213 254 299 377
#     4  11  22  37  57  87 129 169 199 254 319 381
#     4  11  19  35  57  85 118 170 208 242 300 377
#     4  12  22  35  57  88 125 160 210 254 311 372
#     4  11  22  37  57  86 125 158 207 256 319 378
#     4  11  21  35  58  82 120 163 202 249 305 368
#     4  12  22  36  57  88 120 159 215 259 298 374
#
# _framework density 17.865877999999999
#
# number of rings (size 3 to 8) (size 9 to 14) (size 15 to 20)
#    0.000    0.571    7.143    3.857    0.000    0.000 
#    2.571    0.000    0.000    0.000    0.000    1.000 
#    4.286    0.000    0.000    0.000    0.000    0.000 
#
# Total GULP energy -234050.522854 kJ/mol
# GULP energy per Si atom -5572.631497 kJ/mol
# Density = 1.782521 g / cm^3
# Si number density = 17.865878 Si / 1000 Ang^3
#
#
#
# Elastic Constant Matrix: (Units=GPa)
#
#
# Indices 1 2 3 4 5 6 
#
# 1 93.6829 47.0056 22.3722 0.0295 0.0001 0.0000
# 2 47.0056 93.6829 22.3722 -0.0295 -0.0001 0.0000
# 3 22.3722 22.3722 52.2698 0.0000 0.0000 0.0000
# 4 0.0295 -0.0295 0.0000 26.3490 0.0000 -0.0001
# 5 0.0001 -0.0001 0.0000 0.0000 26.3490 0.0295
# 6 0.0000 0.0000 0.0000 -0.0001 0.0295 23.3386
#
#
#
# Elastic Compliance Matrix: (Units=1/GPa)
#
#
# Indices 1 2 3 4 5 6 
#
# 1 0.014826 -0.006598 -0.003522 -0.000024 0.000000 0.000000
# 2 -0.006598 0.014826 -0.003522 0.000024 0.000000 0.000000
# 3 -0.003522 -0.003522 0.022146 0.000000 0.000000 0.000000
# 4 -0.000024 0.000024 0.000000 0.037952 0.000000 0.000000
# 5 0.000000 0.000000 0.000000 0.000000 0.037952 -0.000048
# 6 0.000000 0.000000 0.000000 0.000000 -0.000048 0.042848
#
#
# Mechanical properties :
#
#
# Convention : Reuss Voigt Hill
#
# Bulk Modulus (GPa) = 40.79080 47.01508 43.90294
# Shear Modulus (GPa) = 24.27139 25.06637 24.66888
#
# Velocity S-wave (km/s) = 3.68983 3.74977 3.71992
# Velocity P-wave (km/s) = 6.40581 6.71717 6.56333
#
# Compressibility (1/GPa) = 0.02451533
#
# Stress axis : x y z
#
# Youngs Moduli (GPa) = 67.44980 67.44980 45.15455
#
# Poissons Ratio (x) = 0.44503 0.15902
# Poissons Ratio (y) = 0.44503 0.15902
# Poissons Ratio (z) = 0.23754 0.23754
#
# Static dielectric constant tensor:
#      x y z
#    x 1.666970 0.000000 0.000000 
#    y 0.000000 1.666970 0.000000 
#    z 0.000000 0.000000 1.654850 
# 
# From -- ./inp_files/1724.got.cif
#   From: 2010.05.17/outbox.cif.g08.bks.cpg/sg154_1_cif.got.tgz:1724.got - 2010.05.20 10:41:43.
