data_PCOD9576285
_publ_section_title
;
Structure prediction by ZEFSAII (Michael W. Deem and Ramdas Pophale) SiO2 
 PCOD9576285
Probable space group: P 32 1 2
;
_chemical_formula_sum "Si O2"
_cell_formula_units_Z 36
_cell_length_a 9.303761
_cell_length_b 9.303761
_cell_length_c 24.041675
_cell_angle_alpha 90.000000
_cell_angle_beta 90.000000
_cell_angle_gamma 120.000000
_cell_volume 1802.239254
_symmetry_space_group_name_H-M "P 32 1 2"
_symmetry_group_IT_number 153
_symmetry_cell_setting 'hexagonal'
loop_
_space_group_symop_operation_xyz
x,y,z
-y,x-y,2/3+z
-x+y,-x,1/3+z
-y,-x,1/3-z
-x+y,y,2/3-z
x,x-y,-z
loop_
_atom_site_type_symbol
_atom_site_label
_atom_site_fract_x
_atom_site_fract_y
_atom_site_fract_z
Si Si1 0.162591 0.019152 0.562713
Si Si2 0.523325 0.332686 0.439593
Si Si3 0.496869 0.113621 0.896470
Si Si4 0.321646 0.475350 0.890981
Si Si5 0.935466 0.806934 0.270962
Si Si6 0.178094 0.715611 0.604886
O O1 0.156900 0.078450 0.500000
O O2 0.347148 0.142589 0.587036
O O3 0.017383 0.024268 0.595579
O O4 0.143704 0.837491 0.566211
O O5 0.523321 0.261661 0.500000
O O6 0.700280 0.380506 0.413925
O O7 0.521610 0.503629 0.448356
O O8 0.550534 0.101067 0.833334
O O9 0.316010 0.097320 0.898327
O O10 0.503836 0.973340 0.932565
O O11 0.232758 0.465515 0.833334
O O12 0.211209 0.306174 0.924579
O O13 0.375681 0.650628 0.919757
O O14 0.875344 0.750688 0.333334
O O15 0.210075 0.789926 0.666667
#
# Coordination Sequence:
#
# PCOD9576285 Si02
#       6
#     6   6   6   6   6   6
#     4  10  20  37  58  81 111 149 188 232 283 345
#     4   8  18  35  56  80 105 136 183 232 271 322
#     4  10  20  37  60  84 109 149 194 231 278 341
#     4  10  21  37  57  80 111 150 188 228 277 341
#     4  11  22  37  57  85 117 148 184 235 290 338
#     4  11  22  37  57  84 116 150 190 240 288 335
#
# _framework density 19.975152000000001
#
# number of rings (size 3 to 8) (size 9 to 14) (size 15 to 20)
#    0.000    2.000    0.000    3.500    0.000    5.333 
#    0.000    0.000    0.000    6.000    0.000    0.000 
#    0.000    0.000    0.000    0.000    0.000    0.000 
#
# Total GULP energy -200818.231146 kJ/mol
# GULP energy per Si atom -5578.284198 kJ/mol
# Density = 1.992969 g / cm^3
# Si number density = 19.975152 Si / 1000 Ang^3
#
#
#
# Elastic Constant Matrix: (Units=GPa)
#
#
# Indices 1 2 3 4 5 6 
#
# 1 111.4276 43.8235 5.6781 -0.0012 -14.7012 0.0000
# 2 43.8235 111.4276 5.6781 0.0012 14.7012 0.0000
# 3 5.6781 5.6781 54.3435 0.0000 0.0000 0.0000
# 4 -0.0012 0.0012 0.0000 16.0093 0.0000 14.7012
# 5 -14.7012 14.7012 0.0000 0.0000 16.0093 -0.0012
# 6 0.0000 0.0000 0.0000 14.7012 -0.0012 33.8020
#
#
#
# Elastic Compliance Matrix: (Units=1/GPa)
#
#
# Indices 1 2 3 4 5 6 
#
# 1 0.015559 -0.009069 -0.000678 0.000002 0.022616 0.000000
# 2 -0.009069 0.015559 -0.000678 -0.000002 -0.022616 0.000000
# 3 -0.000678 -0.000678 0.018543 0.000000 0.000000 0.000000
# 4 0.000002 -0.000002 0.000000 0.103999 0.000000 -0.045232
# 5 0.022616 -0.022616 0.000000 0.000000 0.103999 0.000004
# 6 0.000000 0.000000 0.000000 -0.045232 0.000004 0.049256
#
#
# Mechanical properties :
#
#
# Convention : Reuss Voigt Hill
#
# Bulk Modulus (GPa) = 34.70776 43.06200 38.88488
# Shear Modulus (GPa) = 14.82047 27.96539 21.39293
#
# Velocity S-wave (km/s) = 2.72682 3.74573 3.27613
# Velocity P-wave (km/s) = 5.22755 6.34916 5.81546
#
# Compressibility (1/GPa) = 0.02881200
#
# Stress axis : x y z
#
# Youngs Moduli (GPa) = 64.26966 64.26966 53.92816
#
# Poissons Ratio (x) = 0.58284 0.03657
# Poissons Ratio (y) = 0.58284 0.03657
# Poissons Ratio (z) = 0.04359 0.04359
#
# Static dielectric constant tensor:
#      x y z
#    x 1.721980 0.000000 0.000000 
#    y 0.000000 1.721980 0.000000 
#    z 0.000000 0.000000 1.727500 
# 
# From -- ./inp_files/4706.got.cif
#   From: 2010.05.17/outbox.cif.g08.bks.cpg/sg153_3_cif.got.tgz:4706.got - 2010.05.20 10:38:56.
