data_PCOD9576889
_publ_section_title
;
Structure prediction by ZEFSAII (Michael W. Deem and Ramdas Pophale) SiO2 
 PCOD9576889
Probable space group: R 3 2
;
_chemical_formula_sum "Si O2"
_cell_formula_units_Z 54
_cell_length_a 23.002584
_cell_length_b 23.002584
_cell_length_c 5.854040
_cell_angle_alpha 90.000000
_cell_angle_beta 90.000000
_cell_angle_gamma 120.000000
_cell_volume 2682.498995
_symmetry_space_group_name_H-M "R 3 2"
_symmetry_group_IT_number 155
_symmetry_cell_setting 'hexagonal'
loop_
_space_group_symop_operation_xyz
x,y,z
-y,x-y,z
-x+y,-x,z
x-y,-y,-z
-x,-x+y,-z
y,x,-z
2/3+x,1/3+y,1/3+z
2/3-y,1/3+x-y,1/3+z
2/3-x+y,1/3-x,1/3+z
2/3+x-y,1/3-y,1/3-z
2/3-x,1/3-x+y,1/3-z
2/3+y,1/3+x,1/3-z
1/3+x,2/3+y,2/3+z
1/3-y,2/3+x-y,2/3+z
1/3-x+y,2/3-x,2/3+z
1/3+x-y,2/3-y,2/3-z
1/3-x,2/3-x+y,2/3-z
1/3+y,2/3+x,2/3-z
loop_
_atom_site_type_symbol
_atom_site_label
_atom_site_fract_x
_atom_site_fract_y
_atom_site_fract_z
Si Si1 0.130383 0.260566 0.239689
Si Si2 0.519877 0.249442 0.958166
Si Si3 0.200432 0.000000 0.000000
Si Si4 0.493715 0.827048 0.666667
O O1 0.181082 0.333334 0.333334
O O2 0.103073 0.207814 0.449067
O O3 0.066936 0.260810 0.114002
O O4 0.162871 0.229334 0.068256
O O5 0.581048 0.247715 0.833334
O O6 0.493146 0.188334 0.136326
O O7 0.534773 0.312654 0.114110
#
# Coordination Sequence:
#
# PCOD9576889 Si02
#       4
#    18  18   9   9
#     4  10  20  36  63  82 122 163 197 250 302 353
#     4   9  18  36  61  83 115 156 196 247 298 350
#     4   8  18  34  58  85 108 151 200 242 302 352
#     4  10  20  34  60  91 116 157 206 240 300 360
#
# _framework density 20.130483999999999
#
# number of rings (size 3 to 8) (size 9 to 14) (size 15 to 20)
#    0.000    2.667    0.000    1.000    0.000    5.333 
#    0.000    0.000   55.000  266.000    0.000    0.000 
#    0.000    0.000    0.000    0.000    0.000    0.000 
#
# Total GULP energy -100248.827462 kJ/mol
# GULP energy per Si atom -5569.379303 kJ/mol
# Density = 2.008467 g / cm^3
# Si number density = 20.130484 Si / 1000 Ang^3
#
#
#
# Elastic Constant Matrix: (Units=GPa)
#
#
# Indices 1 2 3 4 5 6 
#
# 1 102.9110 57.2225 41.2928 -7.4472 -0.1718 -0.0626
# 2 57.2225 103.0566 41.5051 7.4066 0.0511 -0.0143
# 3 41.2928 41.5051 96.6750 -0.0385 -0.1335 -0.0331
# 4 -7.4472 7.4066 -0.0385 30.1767 -0.0272 -0.0169
# 5 -0.1718 0.0511 -0.1335 -0.0272 30.0578 -7.4599
# 6 -0.0626 -0.0143 -0.0331 -0.0169 -7.4599 22.9351
#
#
#
# Elastic Compliance Matrix: (Units=1/GPa)
#
#
# Indices 1 2 3 4 5 6 
#
# 1 0.015880 -0.007867 -0.003403 0.005846 0.000113 0.000075
# 2 -0.007867 0.015886 -0.003463 -0.005845 -0.000106 -0.000055
# 3 -0.003403 -0.003463 0.013284 0.000027 0.000052 0.000025
# 4 0.005846 -0.005845 0.000027 0.036016 0.000093 0.000069
# 5 0.000113 -0.000106 0.000052 0.000093 0.036192 0.011772
# 6 0.000075 -0.000055 0.000025 0.000069 0.011772 0.047431
#
#
# Mechanical properties :
#
#
# Convention : Reuss Voigt Hill
#
# Bulk Modulus (GPa) = 64.16277 64.74262 64.45269
# Shear Modulus (GPa) = 25.08155 27.47539 26.27847
#
# Velocity S-wave (km/s) = 3.53363 3.69842 3.61696
# Velocity P-wave (km/s) = 6.97075 7.10415 7.03777
#
# Compressibility (1/GPa) = 0.01558536
#
# Stress axis : x y z
#
# Youngs Moduli (GPa) = 62.97108 62.94681 75.27824
#
# Poissons Ratio (x) = 0.49522 0.25616
# Poissons Ratio (y) = 0.49541 0.26066
# Poissons Ratio (z) = 0.21428 0.21796
#
# Static dielectric constant tensor:
#      x y z
#    x 1.720070 -0.000030 -0.000130 
#    y -0.000030 1.720180 -0.000050 
#    z -0.000130 -0.000050 1.768610 
# 
# From -- ./inp_files/666.got.cif
#   From: 2010.05.17/outbox.cif.g08.bks.cpg/sg155_1_cif.got.tgz:666.got - 2010.05.20 10:44:35.
