data_PCOD9576517
_publ_section_title
;
Structure prediction by ZEFSAII (Michael W. Deem and Ramdas Pophale) SiO2 
 PCOD9576517
Probable space group: P 32 2 1
;
_chemical_formula_sum "Si O2"
_cell_formula_units_Z 45
_cell_length_a 17.365459
_cell_length_b 17.365459
_cell_length_c 8.034860
_cell_angle_alpha 90.000000
_cell_angle_beta 90.000000
_cell_angle_gamma 120.000000
_cell_volume 2098.367154
_symmetry_space_group_name_H-M "P 32 2 1"
_symmetry_group_IT_number 154
_symmetry_cell_setting 'hexagonal'
loop_
_space_group_symop_operation_xyz
x,y,z
-y,x-y,2/3+z
-x+y,-x,1/3+z
x-y,-y,1/3-z
-x,-x+y,2/3-z
y,x,-z
loop_
_atom_site_type_symbol
_atom_site_label
_atom_site_fract_x
_atom_site_fract_y
_atom_site_fract_z
Si Si1 0.558570 0.717490 0.140743
Si Si2 0.489153 0.531748 0.317921
Si Si3 0.731605 0.731605 0.500000
Si Si4 0.922783 0.336243 0.534073
Si Si5 0.628676 0.278126 0.628846
Si Si6 0.641763 0.963692 0.855693
Si Si7 0.744319 0.201311 0.647439
Si Si8 0.863694 0.670682 0.612975
O O1 0.511045 0.632852 0.271904
O O2 0.474423 0.717832 0.060747
O O3 0.628948 0.810329 0.219222
O O4 0.604900 0.697184 0.987806
O O5 0.523200 0.523200 0.500000
O O6 0.558597 0.526206 0.194758
O O7 0.394686 0.444127 0.289019
O O8 0.692766 0.667771 0.334246
O O9 0.822902 0.730860 0.541808
O O10 0.825779 0.298343 0.614802
O O11 0.675884 0.338989 0.471219
O O12 0.652652 0.199744 0.623720
O O13 0.620217 0.864712 0.811757
O O14 0.643390 0.000000 0.666667
O O15 0.736469 0.031209 0.939291
O O16 0.757647 0.173738 0.828498
#
# Coordination Sequence:
#
# PCOD9576517 Si02
#       8
#     6   6   3   6   6   6   6   6
#     4  12  23  38  60  91 124 167 225 276 334 396
#     4  12  23  37  60  86 121 168 219 268 327 397
#     4  10  20  40  60  90 116 158 210 276 328 396
#     4  11  21  38  62  84 120 160 215 268 323 394
#     4  12  25  41  60  88 130 179 232 280 334 396
#     4  10  22  39  61  85 123 168 212 265 329 402
#     4  10  21  41  57  85 122 168 209 273 327 392
#     4  10  22  37  61  89 120 161 214 269 334 393
#
# _framework density 21.445246999999998
#
# number of rings (size 3 to 8) (size 9 to 14) (size 15 to 20)
#    0.000    1.067    4.667    2.800    1.867    3.200 
#    0.000    0.000    0.000    0.000    0.000    0.000 
#    0.000   10.667   12.000    0.000    0.000    0.533 
#
# Total GULP energy -250867.021803 kJ/mol
# GULP energy per Si atom -5574.822707 kJ/mol
# Density = 2.139644 g / cm^3
# Si number density = 21.445247 Si / 1000 Ang^3
#
#
#
# Elastic Constant Matrix: (Units=GPa)
#
#
# Indices 1 2 3 4 5 6 
#
# 1 64.6886 11.0039 18.0483 -3.3649 0.0000 0.0000
# 2 11.0039 64.6886 18.0483 3.3649 0.0000 0.0000
# 3 18.0483 18.0483 115.5488 0.0000 0.0000 0.0000
# 4 -3.3649 3.3649 0.0000 31.5619 0.0000 0.0000
# 5 0.0000 0.0000 0.0000 0.0000 31.5619 -3.3649
# 6 0.0000 0.0000 0.0000 0.0000 -3.3649 26.8424
#
#
#
# Elastic Compliance Matrix: (Units=1/GPa)
#
#
# Indices 1 2 3 4 5 6 
#
# 1 0.016577 -0.002302 -0.002230 0.002013 0.000000 0.000000
# 2 -0.002302 0.016577 -0.002230 -0.002013 0.000000 0.000000
# 3 -0.002230 -0.002230 0.009351 0.000000 0.000000 0.000000
# 4 0.002013 -0.002013 0.000000 0.032113 0.000000 0.000000
# 5 0.000000 0.000000 0.000000 0.000000 0.032113 0.004026
# 6 0.000000 0.000000 0.000000 0.000000 0.004026 0.037759
#
#
# Mechanical properties :
#
#
# Convention : Reuss Voigt Hill
#
# Bulk Modulus (GPa) = 34.50472 37.68079 36.09275
# Shear Modulus (GPa) = 29.81971 31.18160 30.50066
#
# Velocity S-wave (km/s) = 3.73299 3.81728 3.77537
# Velocity P-wave (km/s) = 5.89109 6.08586 5.98927
#
# Compressibility (1/GPa) = 0.02898155
#
# Stress axis : x y z
#
# Youngs Moduli (GPa) = 60.32414 60.32414 106.94188
#
# Poissons Ratio (x) = 0.13890 0.23844
# Poissons Ratio (y) = 0.13890 0.23844
# Poissons Ratio (z) = 0.13450 0.13450
#
# Static dielectric constant tensor:
#      x y z
#    x 1.833850 0.000000 0.000000 
#    y 0.000000 1.833850 0.000000 
#    z 0.000000 0.000000 1.875870 
# 
# From -- ./inp_files/1290.got.cif
#   From: 2010.05.17/outbox.cif.g08.bks.cpg/sg154_1_cif.got.tgz:1290.got - 2010.05.20 10:41:43.
