data_PCOD9576803
_publ_section_title
;
Structure prediction by ZEFSAII (Michael W. Deem and Ramdas Pophale) SiO2 
 PCOD9576803
Probable space group: R 3 2
;
_chemical_formula_sum "Si O2"
_cell_formula_units_Z 108
_cell_length_a 25.182623
_cell_length_b 25.182623
_cell_length_c 10.125177
_cell_angle_alpha 90.000000
_cell_angle_beta 90.000000
_cell_angle_gamma 120.000000
_cell_volume 5560.773212
_symmetry_space_group_name_H-M "R 3 2"
_symmetry_group_IT_number 155
_symmetry_cell_setting 'hexagonal'
loop_
_space_group_symop_operation_xyz
x,y,z
-y,x-y,z
-x+y,-x,z
x-y,-y,-z
-x,-x+y,-z
y,x,-z
2/3+x,1/3+y,1/3+z
2/3-y,1/3+x-y,1/3+z
2/3-x+y,1/3-x,1/3+z
2/3+x-y,1/3-y,1/3-z
2/3-x,1/3-x+y,1/3-z
2/3+y,1/3+x,1/3-z
1/3+x,2/3+y,2/3+z
1/3-y,2/3+x-y,2/3+z
1/3-x+y,2/3-x,2/3+z
1/3+x-y,2/3-y,2/3-z
1/3-x,2/3-x+y,2/3-z
1/3+y,2/3+x,2/3-z
loop_
_atom_site_type_symbol
_atom_site_label
_atom_site_fract_x
_atom_site_fract_y
_atom_site_fract_z
Si Si1 0.758570 0.518171 0.579704
Si Si2 0.813347 0.689091 0.904361
Si Si3 0.291366 0.798389 0.852313
Si Si4 0.128861 0.795527 0.833334
Si Si5 0.513919 0.112088 0.814567
Si Si6 0.637462 0.132718 0.471300
Si Si7 0.666667 0.579921 0.333334
O O1 0.776988 0.584035 0.511736
O O2 0.690984 0.469772 0.521989
O O3 0.746213 0.518832 0.735055
O O4 0.814778 0.507196 0.555245
O O5 0.787012 0.624527 0.833990
O O6 0.844249 0.683300 0.038836
O O7 0.754356 0.695527 0.942126
O O8 0.234136 0.743269 0.779568
O O9 0.305945 0.861091 0.779971
O O10 0.266608 0.796630 0.000426
O O11 0.129896 0.732902 0.861604
O O12 0.457026 0.123692 0.833334
O O13 0.666667 0.129839 0.333334
#
# Coordination Sequence:
#
# PCOD9576803 Si02
#       7
#    18  18  18   9  18  18   9
#     4  10  23  39  63  89 126 168 214 268 325 398
#     4  11  19  38  59  89 127 160 210 258 325 385
#     4  10  20  39  62  87 124 158 206 264 332 377
#     4  12  22  40  66  90 126 172 212 278 342 372
#     4  10  21  39  59  90 125 168 203 256 323 400
#     4  12  22  41  67  91 126 170 221 275 330 397
#     4  10  18  34  60  90 118 160 200 256 314 392
#
# _framework density 19.421759000000002
#
# number of rings (size 3 to 8) (size 9 to 14) (size 15 to 20)
#    0.000    1.333    5.000    1.500    0.000    0.667 
#   11.500    1.667    1.833    0.000    0.000    0.000 
#    0.000    0.000    0.000    0.000    0.000    0.000 
#
# Total GULP energy -200718.445898 kJ/mol
# GULP energy per Si atom -5575.512386 kJ/mol
# Density = 1.937755 g / cm^3
# Si number density = 19.421759 Si / 1000 Ang^3
#
#
#
# Elastic Constant Matrix: (Units=GPa)
#
#
# Indices 1 2 3 4 5 6 
#
# 1 94.6762 36.6291 8.7951 0.9792 -0.0035 -0.0001
# 2 36.6291 94.6802 8.8056 -0.9798 0.0002 0.0001
# 3 8.7951 8.8056 77.6454 -0.0016 -0.0043 0.0016
# 4 0.9792 -0.9798 -0.0016 24.7651 -0.0006 -0.0002
# 5 -0.0035 0.0002 -0.0043 -0.0006 24.7626 0.9802
# 6 -0.0001 0.0001 0.0016 -0.0002 0.9802 29.0245
#
#
#
# Elastic Compliance Matrix: (Units=1/GPa)
#
#
# Indices 1 2 3 4 5 6 
#
# 1 0.012492 -0.004758 -0.000875 -0.000682 0.000002 0.000000
# 2 -0.004758 0.012491 -0.000878 0.000682 -0.000001 0.000000
# 3 -0.000875 -0.000878 0.013078 0.000001 0.000002 -0.000001
# 4 -0.000682 0.000682 0.000001 0.040433 0.000001 0.000000
# 5 0.000002 -0.000001 0.000002 0.000001 0.040437 -0.001366
# 6 0.000000 0.000000 -0.000001 0.000000 -0.001366 0.034500
#
#
# Mechanical properties :
#
#
# Convention : Reuss Voigt Hill
#
# Bulk Modulus (GPa) = 39.93891 41.71791 40.82841
# Shear Modulus (GPa) = 28.60412 29.89526 29.24969
#
# Velocity S-wave (km/s) = 3.84185 3.92760 3.88497
# Velocity P-wave (km/s) = 6.34732 6.48804 6.41807
#
# Compressibility (1/GPa) = 0.02503824
#
# Stress axis : x y z
#
# Youngs Moduli (GPa) = 80.05367 80.05499 76.46574
#
# Poissons Ratio (x) = 0.38093 0.06693
# Poissons Ratio (y) = 0.38092 0.06711
# Poissons Ratio (z) = 0.07007 0.07026
#
# Static dielectric constant tensor:
#      x y z
#    x 1.702100 0.000000 0.000000 
#    y 0.000000 1.702100 0.000010 
#    z 0.000000 0.000010 1.750200 
# 
# From -- ./inp_files/4143.got.cif
#   From: 2010.05.17/outbox.cif.g08.bks.cpg/sg155_3_cif.got.tgz:4143.got - 2010.05.20 10:44:35.
