data_PCOD9576732
_publ_section_title
;
Structure prediction by ZEFSAII (Michael W. Deem and Ramdas Pophale) SiO2 
 PCOD9576732
Probable space group: P 32 2 1
;
_chemical_formula_sum "Si O2"
_cell_formula_units_Z 24
_cell_length_a 14.950735
_cell_length_b 14.950735
_cell_length_c 4.786102
_cell_angle_alpha 90.000000
_cell_angle_beta 90.000000
_cell_angle_gamma 120.000000
_cell_volume 926.483457
_symmetry_space_group_name_H-M "P 32 2 1"
_symmetry_group_IT_number 154
_symmetry_cell_setting 'hexagonal'
loop_
_space_group_symop_operation_xyz
x,y,z
-y,x-y,2/3+z
-x+y,-x,1/3+z
x-y,-y,1/3-z
-x,-x+y,2/3-z
y,x,-z
loop_
_atom_site_type_symbol
_atom_site_label
_atom_site_fract_x
_atom_site_fract_y
_atom_site_fract_z
Si Si1 0.887779 0.244619 0.251247
Si Si2 0.175556 0.280807 0.877645
Si Si3 0.778700 0.353614 0.337577
Si Si4 0.000000 0.620569 0.833334
Si Si5 0.492414 0.492414 0.000000
O O1 0.838392 0.175832 0.524197
O O2 0.815309 0.288368 0.142716
O O3 0.000000 0.340106 0.333334
O O4 0.905855 0.176718 0.022514
O O5 0.279787 0.346891 0.696089
O O6 0.185640 0.185640 0.000000
O O7 0.686685 0.272825 0.532503
O O8 0.889561 0.425578 0.481163
O O9 0.050687 0.584830 0.597275
#
# Coordination Sequence:
#
# PCOD9576732 Si02
#       5
#     6   6   6   3   3
#     4  12  27  50  75 115 163 206 262 336 403 477
#     4  12  23  45  80 113 148 197 267 316 396 480
#     4  12  30  49  76 113 162 217 268 332 397 484
#     4  12  22  44  78 110 150 196 260 328 378 480
#     4  12  28  48  72 110 162 204 264 330 394 478
#
# _framework density 25.904406000000002
#
# number of rings (size 3 to 8) (size 9 to 14) (size 15 to 20)
#    0.000    0.000    5.000    3.750   10.500    0.000 
#    0.000    0.000    0.000    7.500    0.000    0.000 
#    0.000    0.000    0.000    0.000    0.000    0.000 
#
# Total GULP energy -133804.083515 kJ/mol
# GULP energy per Si atom -5575.170146 kJ/mol
# Density = 2.584545 g / cm^3
# Si number density = 25.904406 Si / 1000 Ang^3
#
#
#
# Elastic Constant Matrix: (Units=GPa)
#
#
# Indices 1 2 3 4 5 6 
#
# 1 139.0931 55.5384 27.2766 -6.2935 0.0000 0.0000
# 2 55.5384 139.0931 27.2766 6.2935 0.0000 0.0000
# 3 27.2766 27.2766 133.0336 0.0000 0.0000 0.0000
# 4 -6.2935 6.2935 0.0000 44.0552 0.0000 0.0000
# 5 0.0000 0.0000 0.0000 0.0000 44.0552 -6.2935
# 6 0.0000 0.0000 0.0000 0.0000 -6.2935 41.7773
#
#
#
# Elastic Compliance Matrix: (Units=1/GPa)
#
#
# Indices 1 2 3 4 5 6 
#
# 1 0.008841 -0.003390 -0.001118 0.001747 0.000000 0.000000
# 2 -0.003390 0.008841 -0.001118 -0.001747 0.000000 0.000000
# 3 -0.001118 -0.001118 0.007975 0.000000 0.000000 0.000000
# 4 0.001747 -0.001747 0.000000 0.023198 0.000000 0.000000
# 5 0.000000 0.000000 0.000000 0.000000 0.023198 0.003495
# 6 0.000000 0.000000 0.000000 0.000000 0.003495 0.024463
#
#
# Mechanical properties :
#
#
# Convention : Reuss Voigt Hill
#
# Bulk Modulus (GPa) = 69.41137 70.15589 69.78363
# Shear Modulus (GPa) = 44.41677 46.05275 45.23476
#
# Velocity S-wave (km/s) = 4.14532 4.22097 4.18331
# Velocity P-wave (km/s) = 7.05442 7.13420 7.09442
#
# Compressibility (1/GPa) = 0.01440686
#
# Stress axis : x y z
#
# Youngs Moduli (GPa) = 113.10539 113.10539 125.38822
#
# Poissons Ratio (x) = 0.38344 0.14014
# Poissons Ratio (y) = 0.38344 0.14014
# Poissons Ratio (z) = 0.12642 0.12642
#
# Static dielectric constant tensor:
#      x y z
#    x 2.009290 0.000000 0.000000 
#    y 0.000000 2.009290 0.000000 
#    z 0.000000 0.000000 2.053620 
# 
# From -- ./inp_files/240.got.cif
#   From: 2010.05.17/outbox.cif.g08.bks.cpg/sg154_1_cif.got.tgz:240.got - 2010.05.20 10:41:43.
