data_PCOD9576057
_publ_section_title
;
Structure prediction by ZEFSAII (Michael W. Deem and Ramdas Pophale) SiO2 
 PCOD9576057
Probable space group: P 31 2 1
;
_chemical_formula_sum "Si O2"
_cell_formula_units_Z 18
_cell_length_a 8.682382
_cell_length_b 8.682382
_cell_length_c 10.449842
_cell_angle_alpha 90.000000
_cell_angle_beta 90.000000
_cell_angle_gamma 120.000000
_cell_volume 682.210085
_symmetry_space_group_name_H-M "P 31 2 1"
_symmetry_group_IT_number 152
_symmetry_cell_setting 'hexagonal'
loop_
_space_group_symop_operation_xyz
x,y,z
-y,x-y,1/3+z
-x+y,-x,2/3+z
x-y,-y,2/3-z
-x,-x+y,1/3-z
y,x,-z
loop_
_atom_site_type_symbol
_atom_site_label
_atom_site_fract_x
_atom_site_fract_y
_atom_site_fract_z
Si Si1 0.657222 0.879675 0.680473
Si Si2 0.777547 0.657222 0.847140
Si Si3 0.252973 0.747027 0.750000
O O1 0.725408 0.797925 0.789793
O O2 0.465670 0.841623 0.729693
O O3 0.601480 0.774694 0.546505
O O4 0.797925 0.072517 0.623127
O O5 0.624047 0.465670 0.896359
O O6 0.826785 0.601480 0.713172
#
# Coordination Sequence:
#
# PCOD9576057 Si02
#       3
#     6   6   6
#     4  11  24  46  77 114 151 196 250 315 376 442
#     4  11  24  46  77 114 151 196 250 315 376 442
#     4  10  22  44  78 112 150 202 254 298 370 464
#
# _framework density 26.384830999999998
#
# number of rings (size 3 to 8) (size 9 to 14) (size 15 to 20)
#    0.000    1.333    0.000    6.000    0.000    5.333 
#    0.000    6.667    0.000   40.000    0.000    0.000 
#    0.000    0.000    0.000    0.000    0.000    0.000 
#
# Total GULP energy -100714.626168 kJ/mol
# GULP energy per Si atom -5595.257009 kJ/mol
# Density = 2.632478 g / cm^3
# Si number density = 26.384831 Si / 1000 Ang^3
#
#
#
# Elastic Constant Matrix: (Units=GPa)
#
#
# Indices 1 2 3 4 5 6 
#
# 1 147.9291 88.7704 99.7265 0.0000 0.0000 0.0000
# 2 88.7704 147.9291 99.7265 0.0000 0.0000 0.0000
# 3 99.7265 99.7265 267.6921 0.0000 0.0000 0.0000
# 4 0.0000 0.0000 0.0000 63.4509 0.0000 0.0000
# 5 0.0000 0.0000 0.0000 0.0000 63.4509 0.0000
# 6 0.0000 0.0000 0.0000 0.0000 0.0000 29.5794
#
#
#
# Elastic Compliance Matrix: (Units=1/GPa)
#
#
# Indices 1 2 3 4 5 6 
#
# 1 0.011531 -0.005373 -0.002294 0.000000 0.000000 0.000000
# 2 -0.005373 0.011531 -0.002294 0.000000 0.000000 0.000000
# 3 -0.002294 -0.002294 0.005445 0.000000 0.000000 0.000000
# 4 0.000000 0.000000 0.000000 0.015760 0.000000 0.000000
# 5 0.000000 0.000000 0.000000 0.000000 0.015760 0.000000
# 6 0.000000 0.000000 0.000000 0.000000 0.000000 0.033807
#
#
# Mechanical properties :
#
#
# Convention : Reuss Voigt Hill
#
# Bulk Modulus (GPa) = 116.49100 126.66636 121.57868
# Shear Modulus (GPa) = 42.87513 49.65135 46.26324
#
# Velocity S-wave (km/s) = 4.03549 4.34269 4.19191
# Velocity P-wave (km/s) = 8.12159 8.55902 8.34317
#
# Compressibility (1/GPa) = 0.00858435
#
# Stress axis : x y z
#
# Youngs Moduli (GPa) = 86.72459 86.72459 183.65825
#
# Poissons Ratio (x) = 0.46596 0.42132
# Poissons Ratio (y) = 0.46596 0.42132
# Poissons Ratio (z) = 0.19895 0.19895
#
# Static dielectric constant tensor:
#      x y z
#    x 2.125520 0.000000 0.000000 
#    y 0.000000 2.125520 0.000000 
#    z 0.000000 0.000000 2.041820 
# 
# From -- ./inp_files/1536.got.cif
#   From: 2010.05.17/outbox.cif.g08.bks.cpg/sg152_1_cif.got.tgz:1536.got - 2010.05.20 10:36:06.
