data_PCOD9576640
_publ_section_title
;
Structure prediction by ZEFSAII (Michael W. Deem and Ramdas Pophale) SiO2 
 PCOD9576640
Probable space group: P 32 2 1
;
_chemical_formula_sum "Si O2"
_cell_formula_units_Z 24
_cell_length_a 8.285465
_cell_length_b 8.285465
_cell_length_c 18.661669
_cell_angle_alpha 90.000000
_cell_angle_beta 90.000000
_cell_angle_gamma 120.000000
_cell_volume 1109.468274
_symmetry_space_group_name_H-M "P 32 2 1"
_symmetry_group_IT_number 154
_symmetry_cell_setting 'hexagonal'
loop_
_space_group_symop_operation_xyz
x,y,z
-y,x-y,2/3+z
-x+y,-x,1/3+z
x-y,-y,1/3-z
-x,-x+y,2/3-z
y,x,-z
loop_
_atom_site_type_symbol
_atom_site_label
_atom_site_fract_x
_atom_site_fract_y
_atom_site_fract_z
Si Si1 0.809870 0.277581 0.094845
Si Si2 0.219605 0.094986 0.819644
Si Si3 0.222988 0.448320 0.829029
Si Si4 0.347246 0.340887 0.307214
O O1 0.644391 0.292433 0.133430
O O2 0.973772 0.303024 0.148132
O O3 0.894802 0.439522 0.036201
O O4 0.728163 0.081447 0.052844
O O5 0.282747 0.297812 0.856569
O O6 0.260248 0.152323 0.735944
O O7 0.000000 0.975346 0.833334
O O8 0.278692 0.460693 0.746369
O O9 0.000000 0.341682 0.833334
#
# Coordination Sequence:
#
# PCOD9576640 Si02
#       4
#     6   6   6   6
#     4  12  21  40  69  88 138 176 210 294 330 403
#     4   9  22  41  63  88 132 167 222 271 326 413
#     4   9  20  41  61  92 132 168 219 278 329 405
#     4  10  23  38  61 100 121 174 231 256 351 403
#
# _framework density 21.631985
#
# number of rings (size 3 to 8) (size 9 to 14) (size 15 to 20)
#    1.500    0.500    0.000    3.750    0.000    1.000 
#    0.000    0.000    0.000    0.000    0.000    0.000 
#    0.000    0.000    0.000    0.000    0.000    0.000 
#
# Total GULP energy -133611.529333 kJ/mol
# GULP energy per Si atom -5567.147056 kJ/mol
# Density = 2.158275 g / cm^3
# Si number density = 21.631985 Si / 1000 Ang^3
#
#
#
# Elastic Constant Matrix: (Units=GPa)
#
#
# Indices 1 2 3 4 5 6 
#
# 1 86.4869 51.4998 28.9852 -1.0263 -0.0001 0.0000
# 2 51.4998 86.4869 28.9852 1.0263 0.0001 0.0000
# 3 28.9852 28.9852 64.1556 0.0000 0.0000 0.0000
# 4 -1.0263 1.0263 0.0000 23.2737 0.0000 0.0001
# 5 -0.0001 0.0001 0.0000 0.0000 23.2737 -1.0263
# 6 0.0000 0.0000 0.0000 0.0001 -1.0263 17.4936
#
#
#
# Elastic Compliance Matrix: (Units=1/GPa)
#
#
# Indices 1 2 3 4 5 6 
#
# 1 0.018800 -0.009856 -0.004041 0.001264 0.000000 0.000000
# 2 -0.009856 0.018800 -0.004041 -0.001264 0.000000 0.000000
# 3 -0.004041 -0.004041 0.019239 0.000000 0.000000 0.000000
# 4 0.001264 -0.001264 0.000000 0.043078 0.000000 0.000000
# 5 0.000000 0.000000 0.000000 0.000000 0.043078 0.002527
# 6 0.000000 0.000000 0.000000 0.000000 0.002527 0.057312
#
#
# Mechanical properties :
#
#
# Convention : Reuss Voigt Hill
#
# Bulk Modulus (GPa) = 47.70200 50.67441 49.18821
# Shear Modulus (GPa) = 20.56152 21.31880 20.94016
#
# Velocity S-wave (km/s) = 3.08639 3.14271 3.11467
# Velocity P-wave (km/s) = 5.89920 6.05354 5.97687
#
# Compressibility (1/GPa) = 0.02096348
#
# Stress axis : x y z
#
# Youngs Moduli (GPa) = 53.19019 53.19019 51.97848
#
# Poissons Ratio (x) = 0.52422 0.21006
# Poissons Ratio (y) = 0.52422 0.21006
# Poissons Ratio (z) = 0.21495 0.21495
#
# Static dielectric constant tensor:
#      x y z
#    x 1.829660 0.000000 0.000000 
#    y 0.000000 1.829660 0.000000 
#    z 0.000000 0.000000 1.779830 
# 
# From -- ./inp_files/2592.got.cif
#   From: 2010.05.17/outbox.cif.g08.bks.cpg/sg154_2_cif.got.tgz:2592.got - 2010.05.20 10:41:43.
