data_PCOD9576479
_publ_section_title
;
Structure prediction by ZEFSAII (Michael W. Deem and Ramdas Pophale) SiO2 
 PCOD9576479
Probable space group: P 32 2 1
;
_chemical_formula_sum "Si O2"
_cell_formula_units_Z 36
_cell_length_a 12.082371
_cell_length_b 12.082371
_cell_length_c 14.369988
_cell_angle_alpha 90.000000
_cell_angle_beta 90.000000
_cell_angle_gamma 120.000000
_cell_volume 1816.734113
_symmetry_space_group_name_H-M "P 32 2 1"
_symmetry_group_IT_number 154
_symmetry_cell_setting 'hexagonal'
loop_
_space_group_symop_operation_xyz
x,y,z
-y,x-y,2/3+z
-x+y,-x,1/3+z
x-y,-y,1/3-z
-x,-x+y,2/3-z
y,x,-z
loop_
_atom_site_type_symbol
_atom_site_label
_atom_site_fract_x
_atom_site_fract_y
_atom_site_fract_z
Si Si1 0.545410 0.001808 0.961267
Si Si2 0.455742 0.000000 0.166667
Si Si3 0.621518 0.837589 0.502345
Si Si4 0.089450 0.000000 0.166667
Si Si5 0.000000 0.070828 0.333334
Si Si6 0.957341 0.385239 0.204752
Si Si7 0.000000 0.606681 0.333334
Si Si8 0.174428 0.366383 0.320137
O O1 0.668847 0.111572 0.906144
O O2 0.420912 0.977562 0.902843
O O3 0.560260 0.877477 0.952801
O O4 0.531574 0.017445 0.070608
O O5 0.314520 0.874225 0.162485
O O6 0.771488 0.892424 0.484221
O O7 0.617835 0.894538 0.604806
O O8 0.997332 0.985377 0.249625
O O9 0.882058 0.096716 0.341213
O O10 0.843982 0.252453 0.243427
O O11 0.938856 0.493632 0.256795
O O12 0.082777 0.390164 0.250521
#
# Coordination Sequence:
#
# PCOD9576479 Si02
#       8
#     6   3   6   3   3   6   3   6
#     4  11  22  44  66  87 127 173 198 265 318 369
#     4  11  28  43  58 100 134 153 222 269 310 368
#     4  10  22  43  61  93 125 163 210 254 315 380
#     4  11  20  37  60  94 124 159 198 253 314 386
#     4  10  20  36  62  96 124 156 200 254 310 380
#     4   8  19  38  63  93 122 153 221 253 290 385
#     4   8  16  38  66  84 116 162 204 254 302 370
#     4   9  19  41  61  96 122 158 212 251 311 378
#
# _framework density 19.815776
#
# number of rings (size 3 to 8) (size 9 to 14) (size 15 to 20)
#    0.000    2.667    1.667    0.500    0.000    4.667 
#   30.000    0.000    0.000    0.000    0.000    0.000 
#    0.000    0.000    0.000    0.000    0.000    0.000 
#
# Total GULP energy -200422.254832 kJ/mol
# GULP energy per Si atom -5567.284856 kJ/mol
# Density = 1.977067 g / cm^3
# Si number density = 19.815776 Si / 1000 Ang^3
#
#
#
# Elastic Constant Matrix: (Units=GPa)
#
#
# Indices 1 2 3 4 5 6 
#
# 1 19.4316 54.4488 17.8094 7.1734 -0.0009 0.0000
# 2 54.4488 19.4316 17.8094 -7.1734 0.0009 0.0000
# 3 17.8094 17.8094 125.4759 0.0000 0.0000 0.0000
# 4 7.1734 -7.1734 0.0000 24.3917 0.0000 0.0009
# 5 -0.0009 0.0009 0.0000 0.0000 24.3917 7.1734
# 6 0.0000 0.0000 0.0000 0.0009 7.1734 -17.5086
#
#
#
# Elastic Compliance Matrix: (Units=1/GPa)
#
#
# Indices 1 2 3 4 5 6 
#
# 1 -0.005478 0.020008 -0.002062 0.007495 -0.000001 0.000000
# 2 0.020008 -0.005478 -0.002062 -0.007495 0.000001 0.000000
# 3 -0.002062 -0.002062 0.008555 0.000000 0.000000 0.000000
# 4 0.007495 -0.007495 0.000000 0.036589 0.000000 0.000002
# 5 -0.000001 0.000001 0.000000 0.000000 0.036589 0.014991
# 6 0.000000 0.000000 0.000000 0.000002 0.014991 -0.050973
#
#
# Mechanical properties :
#
#
# Convention : Reuss Voigt Hill
#
# Bulk Modulus (GPa) = 34.05379 38.27492 36.16436
# Shear Modulus (GPa) = -2298.23404 11.20639 -1143.51383
#
# Velocity S-wave (km/s) = -34.09278 2.38066 -24.04839
# Velocity P-wave (km/s) = 39.14760 5.18788 27.43739
#
# Compressibility (1/GPa) = 0.02936531
#
# Stress axis : x y z
#
# Youngs Moduli (GPa) = -182.53427 -182.53427 116.88977
#
# Poissons Ratio (x) = 3.65216 0.24106
# Poissons Ratio (y) = 3.65216 0.24106
# Poissons Ratio (z) = -0.37643 -0.37643
#
# Static dielectric constant tensor:
#      x y z
#    x 1.709360 0.000000 0.000000 
#    y 0.000000 1.709360 0.000000 
#    z 0.000000 0.000000 1.718850 
# 
# From -- ./inp_files/2053.got.cif
#   From: 2010.05.17/outbox.cif.g08.bks.cpg/sg154_2_cif.got.tgz:2053.got - 2010.05.20 10:41:43.
