data_PCOD9576519
_publ_section_title
;
Structure prediction by ZEFSAII (Michael W. Deem and Ramdas Pophale) SiO2 
 PCOD9576519
Probable space group: P 32 2 1
;
_chemical_formula_sum "Si O2"
_cell_formula_units_Z 36
_cell_length_a 9.460907
_cell_length_b 9.460907
_cell_length_c 22.547284
_cell_angle_alpha 90.000000
_cell_angle_beta 90.000000
_cell_angle_gamma 120.000000
_cell_volume 1747.794682
_symmetry_space_group_name_H-M "P 32 2 1"
_symmetry_group_IT_number 154
_symmetry_cell_setting 'hexagonal'
loop_
_space_group_symop_operation_xyz
x,y,z
-y,x-y,2/3+z
-x+y,-x,1/3+z
x-y,-y,1/3-z
-x,-x+y,2/3-z
y,x,-z
loop_
_atom_site_type_symbol
_atom_site_label
_atom_site_fract_x
_atom_site_fract_y
_atom_site_fract_z
Si Si1 0.250440 0.180468 0.378042
Si Si2 0.710759 0.537727 0.972176
Si Si3 0.880108 0.190311 0.678727
Si Si4 0.666775 0.747203 0.783067
Si Si5 0.630943 0.359799 0.400985
Si Si6 0.560403 0.411528 0.845363
O O1 0.173921 0.294676 0.371383
O O2 0.442934 0.297377 0.386970
O O3 0.216380 0.061901 0.321363
O O4 0.196733 0.052178 0.433772
O O5 0.647897 0.455186 0.908736
O O6 0.581804 0.581804 0.000000
O O7 0.721455 0.416637 0.019374
O O8 0.816576 0.261927 0.728641
O O9 0.883843 0.284255 0.617924
O O10 0.759357 0.000000 0.666667
O O11 0.346085 0.706439 0.868294
O O12 0.582008 0.579229 0.819155
O O13 0.618048 0.871204 0.812126
#
# Coordination Sequence:
#
# PCOD9576519 Si02
#       6
#     6   6   6   6   6   6
#     4   9  22  39  62  91 126 164 205 266 322 381
#     4  12  23  40  67  97 128 171 219 270 332 383
#     4  10  20  40  63  91 124 168 214 263 326 387
#     4   9  22  39  60  93 129 163 210 266 320 386
#     4  11  22  39  65  95 127 173 213 266 321 388
#     4  11  23  40  64  99 130 168 222 268 320 402
#
# _framework density 20.597386
#
# number of rings (size 3 to 8) (size 9 to 14) (size 15 to 20)
#    1.000    0.667    1.667    3.000    2.333    2.667 
#    0.000    0.000    0.000    0.000    4.333    0.000 
#    0.000    0.000    0.000    0.000    0.000    0.000 
#
# Total GULP energy -200616.611595 kJ/mol
# GULP energy per Si atom -5572.683655 kJ/mol
# Density = 2.055051 g / cm^3
# Si number density = 20.597386 Si / 1000 Ang^3
#
#
#
# Elastic Constant Matrix: (Units=GPa)
#
#
# Indices 1 2 3 4 5 6 
#
# 1 6.1050 89.9796 28.0153 41.4221 0.0008 0.0000
# 2 89.9796 6.1050 28.0153 -41.4221 -0.0008 0.0000
# 3 28.0153 28.0153 108.2936 0.0000 0.0000 0.0000
# 4 41.4221 -41.4221 0.0000 -13.7134 0.0000 -0.0008
# 5 0.0008 -0.0008 0.0000 0.0000 -13.7134 41.4221
# 6 0.0000 0.0000 0.0000 -0.0008 41.4221 -41.9373
#
#
#
# Elastic Compliance Matrix: (Units=1/GPa)
#
#
# Indices 1 2 3 4 5 6 
#
# 1 0.009134 0.003123 -0.003171 0.018157 0.000000 0.000000
# 2 0.003123 0.009134 -0.003171 -0.018157 0.000000 0.000000
# 3 -0.003171 -0.003171 0.010875 0.000000 0.000000 0.000000
# 4 0.018157 -0.018157 0.000000 0.036765 0.000000 -0.000001
# 5 0.000000 0.000000 0.000000 0.000000 0.036765 0.036313
# 6 0.000000 0.000000 0.000000 -0.000001 0.036313 0.012022
#
#
# Mechanical properties :
#
#
# Convention : Reuss Voigt Hill
#
# Bulk Modulus (GPa) = 44.04369 45.83600 44.93985
# Shear Modulus (GPa) = 38.85020 -15.57327 11.63847
#
# Velocity S-wave (km/s) = 4.34772 -2.75267 2.37965
# Velocity P-wave (km/s) = 6.82884 3.49266 5.42364
#
# Compressibility (1/GPa) = 0.02270473
#
# Stress axis : x y z
#
# Youngs Moduli (GPa) = 109.48417 109.48417 91.95675
#
# Poissons Ratio (x) = -0.34189 0.29157
# Poissons Ratio (y) = -0.34189 0.29157
# Poissons Ratio (z) = 0.34714 0.34714
#
# Static dielectric constant tensor:
#      x y z
#    x 1.777940 0.000000 0.000000 
#    y 0.000000 1.777940 0.000000 
#    z 0.000000 0.000000 1.761860 
# 
# From -- ./inp_files/3404.got.cif
#   From: 2010.05.17/outbox.cif.g08.bks.cpg/sg154_2_cif.got.tgz:3404.got - 2010.05.20 10:41:43.
