data_PCOD9576474
_publ_section_title
;
Structure prediction by ZEFSAII (Michael W. Deem and Ramdas Pophale) SiO2 
 PCOD9576474
Probable space group: P 32 2 1
;
_chemical_formula_sum "Si O2"
_cell_formula_units_Z 36
_cell_length_a 9.087094
_cell_length_b 9.087094
_cell_length_c 25.894692
_cell_angle_alpha 90.000000
_cell_angle_beta 90.000000
_cell_angle_gamma 120.000000
_cell_volume 1851.788670
_symmetry_space_group_name_H-M "P 32 2 1"
_symmetry_group_IT_number 154
_symmetry_cell_setting 'hexagonal'
loop_
_space_group_symop_operation_xyz
x,y,z
-y,x-y,2/3+z
-x+y,-x,1/3+z
x-y,-y,1/3-z
-x,-x+y,2/3-z
y,x,-z
loop_
_atom_site_type_symbol
_atom_site_label
_atom_site_fract_x
_atom_site_fract_y
_atom_site_fract_z
Si Si1 0.000000 0.061466 0.833334
Si Si2 0.974525 0.112131 0.066231
Si Si3 0.336990 0.263792 0.793307
Si Si4 0.697223 0.331927 0.638558
Si Si5 0.035872 0.689049 0.660877
Si Si6 0.648076 0.555784 0.210850
Si Si7 0.292693 0.292693 0.000000
O O1 0.165055 0.236678 0.820044
O O2 0.010861 0.961250 0.882595
O O3 0.984541 0.286238 0.084122
O O4 0.167308 0.181722 0.046296
O O5 0.821919 0.010399 0.026873
O O6 0.324820 0.243503 0.731495
O O7 0.382304 0.143914 0.826571
O O8 0.478087 0.454953 0.803089
O O9 0.520653 0.329080 0.649071
O O10 0.745746 0.323878 0.578440
O O11 0.690878 0.167602 0.665307
O O12 0.861597 0.505988 0.658203
#
# Coordination Sequence:
#
# PCOD9576474 Si02
#       7
#     3   6   6   6   6   6   3
#     4  10  22  36  56  84 114 148 190 242 294 346
#     4  10  21  39  59  81 117 153 193 243 293 349
#     4  10  21  38  59  82 115 153 193 240 296 353
#     4  10  22  38  60  88 119 153 197 247 297 353
#     4  11  22  40  63  88 117 158 202 246 298 357
#     4   9  21  40  58  83 120 156 191 243 298 355
#     4  10  20  36  58  86 114 148 190 238 286 344
#
# _framework density 19.440664999999999
#
# number of rings (size 3 to 8) (size 9 to 14) (size 15 to 20)
#    0.000    2.000    0.000    4.000    0.000   10.000 
#    0.000    3.333    0.000    1.000    0.000    0.000 
#    0.000    0.000    0.000    0.000    0.000    0.000 
#
# Total GULP energy -200652.905843 kJ/mol
# GULP energy per Si atom -5573.691829 kJ/mol
# Density = 1.939642 g / cm^3
# Si number density = 19.440665 Si / 1000 Ang^3
#
#
#
# Elastic Constant Matrix: (Units=GPa)
#
#
# Indices 1 2 3 4 5 6 
#
# 1 73.9959 24.2728 38.4164 5.5115 0.0002 0.0000
# 2 24.2728 73.9959 38.4164 -5.5115 -0.0002 0.0000
# 3 38.4164 38.4164 96.1126 0.0000 0.0000 0.0000
# 4 5.5115 -5.5115 0.0000 25.0246 0.0000 -0.0002
# 5 0.0002 -0.0002 0.0000 0.0000 25.0246 5.5115
# 6 0.0000 0.0000 0.0000 -0.0002 5.5115 24.8615
#
#
#
# Elastic Compliance Matrix: (Units=1/GPa)
#
#
# Indices 1 2 3 4 5 6 
#
# 1 0.017973 -0.003171 -0.005916 -0.004657 0.000000 0.000000
# 2 -0.003171 0.017973 -0.005916 0.004657 0.000000 0.000000
# 3 -0.005916 -0.005916 0.015134 0.000000 0.000000 0.000000
# 4 -0.004657 0.004657 0.000000 0.042012 0.000000 0.000000
# 5 0.000000 0.000000 0.000000 0.000000 0.042012 -0.009314
# 6 0.000000 0.000000 0.000000 0.000000 -0.009314 0.042287
#
#
# Mechanical properties :
#
#
# Convention : Reuss Voigt Hill
#
# Bulk Modulus (GPa) = 47.45527 49.59065 48.52296
# Shear Modulus (GPa) = 23.31842 24.51539 23.91690
#
# Velocity S-wave (km/s) = 3.46709 3.55496 3.51130
# Velocity P-wave (km/s) = 6.36325 6.51264 6.43837
#
# Compressibility (1/GPa) = 0.02107247
#
# Stress axis : x y z
#
# Youngs Moduli (GPa) = 55.63941 55.63941 66.07616
#
# Poissons Ratio (x) = 0.17643 0.39093
# Poissons Ratio (y) = 0.17643 0.39093
# Poissons Ratio (z) = 0.32918 0.32918
#
# Static dielectric constant tensor:
#      x y z
#    x 1.710170 0.000000 0.000000 
#    y 0.000000 1.710170 0.000000 
#    z 0.000000 0.000000 1.716400 
# 
# From -- ./inp_files/3474.got.cif
#   From: 2010.05.17/outbox.cif.g08.bks.cpg/sg154_2_cif.got.tgz:3474.got - 2010.05.20 10:41:43.
