data_PCOD9576494
_publ_section_title
;
Structure prediction by ZEFSAII (Michael W. Deem and Ramdas Pophale) SiO2 
 PCOD9576494
Probable space group: P 32 2 1
;
_chemical_formula_sum "Si O2"
_cell_formula_units_Z 33
_cell_length_a 8.943725
_cell_length_b 8.943725
_cell_length_c 26.295742
_cell_angle_alpha 90.000000
_cell_angle_beta 90.000000
_cell_angle_gamma 120.000000
_cell_volume 1821.599658
_symmetry_space_group_name_H-M "P 32 2 1"
_symmetry_group_IT_number 154
_symmetry_cell_setting 'hexagonal'
loop_
_space_group_symop_operation_xyz
x,y,z
-y,x-y,2/3+z
-x+y,-x,1/3+z
x-y,-y,1/3-z
-x,-x+y,2/3-z
y,x,-z
loop_
_atom_site_type_symbol
_atom_site_label
_atom_site_fract_x
_atom_site_fract_y
_atom_site_fract_z
Si Si1 0.000000 0.541763 0.833334
Si Si2 0.144040 0.821150 0.917594
Si Si3 0.507973 0.851318 0.896191
Si Si4 0.320293 0.485801 0.849270
Si Si5 0.984533 0.798543 0.023949
Si Si6 0.948807 0.866673 0.443272
O O1 0.982042 0.641312 0.784651
O O2 0.833061 0.351205 0.836849
O O3 0.328657 0.839475 0.909664
O O4 0.142102 0.993032 0.899650
O O5 0.091706 0.791310 0.976438
O O6 0.465854 0.671085 0.870038
O O7 0.621775 0.884872 0.945861
O O8 0.606398 0.014833 0.858945
O O9 0.232027 0.332401 0.890786
O O10 0.855399 0.855399 0.000000
O O11 0.097553 0.942541 0.066222
O O12 0.900702 0.900702 0.500000
#
# Coordination Sequence:
#
# PCOD9576494 Si02
#       6
#     3   6   6   6   6   6
#     4  10  20  38  60  88 116 168 208 242 298 378
#     4  10  23  38  62  90 121 160 208 247 310 368
#     4  11  23  38  59  93 124 155 203 261 302 365
#     4  11  22  37  63  91 119 161 207 250 307 365
#     4  10  23  40  60  85 120 164 197 245 310 368
#     4  11  19  40  65  83 119 162 204 250 304 370
#
# _framework density 18.115945
#
# number of rings (size 3 to 8) (size 9 to 14) (size 15 to 20)
#    0.000    1.455    3.636    1.091    0.000    5.818 
#    0.000    4.545    0.000    0.000    0.000    0.000 
#    0.000    0.000    0.000    0.000    0.000    0.000 
#
# Total GULP energy -184201.569059 kJ/mol
# GULP energy per Si atom -5581.865729 kJ/mol
# Density = 1.807471 g / cm^3
# Si number density = 18.115945 Si / 1000 Ang^3
#
#
#
# Elastic Constant Matrix: (Units=GPa)
#
#
# Indices 1 2 3 4 5 6 
#
# 1 86.5703 47.0216 52.1543 8.3631 0.0002 0.0000
# 2 47.0216 86.5703 52.1543 -8.3631 -0.0002 0.0000
# 3 52.1543 52.1543 129.6662 0.0000 0.0000 0.0000
# 4 8.3631 -8.3631 0.0000 24.7990 0.0000 -0.0002
# 5 0.0002 -0.0002 0.0000 0.0000 24.7990 8.3631
# 6 0.0000 0.0000 0.0000 -0.0002 8.3631 19.7744
#
#
#
# Elastic Compliance Matrix: (Units=1/GPa)
#
#
# Indices 1 2 3 4 5 6 
#
# 1 0.020202 -0.009289 -0.004389 -0.009946 0.000000 0.000000
# 2 -0.009289 0.020202 -0.004389 0.009946 0.000000 0.000000
# 3 -0.004389 -0.004389 0.011243 0.000000 0.000000 0.000000
# 4 -0.009946 0.009946 0.000000 0.047032 0.000000 0.000000
# 5 0.000000 0.000000 0.000000 0.000000 0.047032 -0.019891
# 6 0.000000 0.000000 0.000000 0.000000 -0.019891 0.058983
#
#
# Mechanical properties :
#
#
# Convention : Reuss Voigt Hill
#
# Bulk Modulus (GPa) = 64.46964 67.27415 65.87189
# Shear Modulus (GPa) = 20.32511 23.97290 22.14901
#
# Velocity S-wave (km/s) = 3.35318 3.64167 3.50040
# Velocity P-wave (km/s) = 7.11732 7.40934 7.26480
#
# Compressibility (1/GPa) = 0.01551118
#
# Stress axis : x y z
#
# Youngs Moduli (GPa) = 49.49988 49.49988 88.94408
#
# Poissons Ratio (x) = 0.45983 0.39040
# Poissons Ratio (y) = 0.45983 0.39040
# Poissons Ratio (z) = 0.21727 0.21727
#
# Static dielectric constant tensor:
#      x y z
#    x 1.633090 0.000000 0.000000 
#    y 0.000000 1.633090 0.000000 
#    z 0.000000 0.000000 1.606970 
# 
# From -- ./inp_files/3384.got.cif
#   From: 2010.05.17/outbox.cif.g08.bks.cpg/sg154_2_cif.got.tgz:3384.got - 2010.05.20 10:41:43.
