data_PCOD9576129
_publ_section_title
;
Structure prediction by ZEFSAII (Michael W. Deem and Ramdas Pophale) SiO2 
 PCOD9576129
Probable space group: P 31 2 1
;
_chemical_formula_sum "Si O2"
_cell_formula_units_Z 36
_cell_length_a 9.284578
_cell_length_b 9.284578
_cell_length_c 22.301438
_cell_angle_alpha 90.000000
_cell_angle_beta 90.000000
_cell_angle_gamma 120.000000
_cell_volume 1664.898788
_symmetry_space_group_name_H-M "P 31 2 1"
_symmetry_group_IT_number 152
_symmetry_cell_setting 'hexagonal'
loop_
_space_group_symop_operation_xyz
x,y,z
-y,x-y,1/3+z
-x+y,-x,2/3+z
x-y,-y,2/3-z
-x,-x+y,1/3-z
y,x,-z
loop_
_atom_site_type_symbol
_atom_site_label
_atom_site_fract_x
_atom_site_fract_y
_atom_site_fract_z
Si Si1 0.366896 0.210158 0.731524
Si Si2 0.170304 0.236579 0.067642
Si Si3 0.718049 0.708260 0.782755
Si Si4 0.973251 0.476423 0.997486
Si Si5 0.501516 0.861326 0.785587
Si Si6 0.160348 0.614986 0.812515
O O1 0.346770 0.355287 0.698467
O O2 0.437133 0.282042 0.796619
O O3 0.504212 0.188121 0.692226
O O4 0.210834 0.023672 0.736203
O O5 0.204147 0.118008 0.110534
O O6 0.308841 0.419308 0.090456
O O7 0.207309 0.207309 0.000000
O O8 0.633655 0.600346 0.722005
O O9 0.664340 0.846520 0.783414
O O10 0.639387 0.578026 0.837358
O O11 0.086005 0.547264 0.056184
O O12 0.354686 0.679082 0.803074
O O13 0.525285 0.000000 0.833334
#
# Coordination Sequence:
#
# PCOD9576129 Si02
#       6
#     6   6   6   6   6   6
#     4  11  22  39  68  91 124 167 218 265 319 389
#     4  12  21  41  63  97 128 173 213 267 328 390
#     4  11  25  39  62  93 130 156 209 270 315 368
#     4  11  20  40  61  94 115 164 211 259 309 381
#     4  12  21  38  61  87 120 163 206 256 313 374
#     4  11  23  40  65  93 123 174 218 258 319 391
#
# _framework density 21.622935999999999
#
# number of rings (size 3 to 8) (size 9 to 14) (size 15 to 20)
#    0.000    0.667    6.667    1.500    0.000    1.333 
#    0.000    0.000    0.000    0.000    4.333    0.000 
#    0.000    0.000    0.000    0.000    0.000    0.000 
#
# Total GULP energy -200783.780091 kJ/mol
# GULP energy per Si atom -5577.327225 kJ/mol
# Density = 2.157372 g / cm^3
# Si number density = 21.622936 Si / 1000 Ang^3
#
#
#
# Elastic Constant Matrix: (Units=GPa)
#
#
# Indices 1 2 3 4 5 6 
#
# 1 64.2744 7.3113 9.1645 -1.8562 0.0000 0.0000
# 2 7.3113 64.2744 9.1645 1.8562 0.0000 0.0000
# 3 9.1645 9.1645 54.5498 0.0000 0.0000 0.0000
# 4 -1.8562 1.8562 0.0000 13.9753 0.0000 0.0000
# 5 0.0000 0.0000 0.0000 0.0000 13.9753 -1.8562
# 6 0.0000 0.0000 0.0000 0.0000 -1.8562 28.4815
#
#
#
# Elastic Compliance Matrix: (Units=1/GPa)
#
#
# Indices 1 2 3 4 5 6 
#
# 1 0.016153 -0.001556 -0.002452 0.002352 0.000000 0.000000
# 2 -0.001556 0.016153 -0.002452 -0.002352 0.000000 0.000000
# 3 -0.002452 -0.002452 0.019156 0.000000 0.000000 0.000000
# 4 0.002352 -0.002352 0.000000 0.072180 0.000000 0.000000
# 5 0.000000 0.000000 0.000000 0.000000 0.072180 0.004704
# 6 0.000000 0.000000 0.000000 0.000000 0.004704 0.035417
#
#
# Mechanical properties :
#
#
# Convention : Reuss Voigt Hill
#
# Bulk Modulus (GPa) = 25.94653 26.04213 25.99433
# Shear Modulus (GPa) = 19.45485 21.78366 20.61925
#
# Velocity S-wave (km/s) = 3.00281 3.17745 3.09136
# Velocity P-wave (km/s) = 4.90388 5.05287 4.97893
#
# Compressibility (1/GPa) = 0.03854080
#
# Stress axis : x y z
#
# Youngs Moduli (GPa) = 61.90859 61.90859 52.20337
#
# Poissons Ratio (x) = 0.09631 0.12802
# Poissons Ratio (y) = 0.09631 0.12802
# Poissons Ratio (z) = 0.15182 0.15182
#
# Static dielectric constant tensor:
#      x y z
#    x 1.815350 0.000000 0.000000 
#    y 0.000000 1.815350 0.000000 
#    z 0.000000 0.000000 1.804840 
# 
# From -- ./inp_files/3413.got.cif
#   From: 2010.05.17/outbox.cif.g08.bks.cpg/sg152_2_cif.got.tgz:3413.got - 2010.05.20 10:36:06.
