data_PCOD9576845
_publ_section_title
;
Structure prediction by ZEFSAII (Michael W. Deem and Ramdas Pophale) SiO2 
 PCOD9576845
Probable space group: R 3 2
;
_chemical_formula_sum "Si O2"
_cell_formula_units_Z 108
_cell_length_a 17.680007
_cell_length_b 17.680007
_cell_length_c 21.202338
_cell_angle_alpha 90.000000
_cell_angle_beta 90.000000
_cell_angle_gamma 120.000000
_cell_volume 5739.568594
_symmetry_space_group_name_H-M "R 3 2"
_symmetry_group_IT_number 155
_symmetry_cell_setting 'hexagonal'
loop_
_space_group_symop_operation_xyz
x,y,z
-y,x-y,z
-x+y,-x,z
x-y,-y,-z
-x,-x+y,-z
y,x,-z
2/3+x,1/3+y,1/3+z
2/3-y,1/3+x-y,1/3+z
2/3-x+y,1/3-x,1/3+z
2/3+x-y,1/3-y,1/3-z
2/3-x,1/3-x+y,1/3-z
2/3+y,1/3+x,1/3-z
1/3+x,2/3+y,2/3+z
1/3-y,2/3+x-y,2/3+z
1/3-x+y,2/3-x,2/3+z
1/3+x-y,2/3-y,2/3-z
1/3-x,2/3-x+y,2/3-z
1/3+y,2/3+x,2/3-z
loop_
_atom_site_type_symbol
_atom_site_label
_atom_site_fract_x
_atom_site_fract_y
_atom_site_fract_z
Si Si1 0.357294 0.415268 0.739269
Si Si2 0.196819 0.333334 0.833334
Si Si3 0.233422 0.879907 0.593720
Si Si4 0.248673 0.934041 0.736318
Si Si5 0.813968 0.895955 0.536970
Si Si6 0.666667 0.781476 0.333334
Si Si7 0.048543 0.814653 0.413450
O O1 0.333334 0.421973 0.666667
O O2 0.280151 0.392047 0.788929
O O3 0.446305 0.503730 0.757190
O O4 0.379507 0.336101 0.740215
O O5 0.116289 0.285548 0.784025
O O6 0.228072 0.884896 0.669264
O O7 0.193351 0.938608 0.568710
O O8 0.333209 0.930077 0.572177
O O9 0.284409 0.034791 0.716433
O O10 0.887824 0.887824 0.500000
O O11 0.759159 0.911985 0.482879
O O12 0.841107 0.972931 0.587148
O O13 0.735527 0.872415 0.365719
#
# Coordination Sequence:
#
# PCOD9576845 Si02
#       7
#    18   9  18  18  18   9  18
#     4  11  20  39  63  92 121 153 210 265 314 381
#     4  12  24  38  62  98 122 160 212 268 312 380
#     4   9  19  37  58  87 119 157 199 263 311 362
#     4  10  22  36  60  92 119 159 207 253 317 371
#     4  10  19  34  56  83 121 159 205 242 298 376
#     4  10  20  38  60  92 122 164 206 258 312 372
#     4  10  21  36  58  86 118 161 201 253 309 361
#
# _framework density 18.816744
#
# number of rings (size 3 to 8) (size 9 to 14) (size 15 to 20)
#    0.000    2.000    2.500    4.000    3.500    0.000 
#    4.000    0.000    0.000    0.667    8.667    0.000 
#    0.000    0.000    0.000    0.000    0.000    0.000 
#
# Total GULP energy -200495.327358 kJ/mol
# GULP energy per Si atom -5569.314649 kJ/mol
# Density = 1.877392 g / cm^3
# Si number density = 18.816744 Si / 1000 Ang^3
#
#
#
# Elastic Constant Matrix: (Units=GPa)
#
#
# Indices 1 2 3 4 5 6 
#
# 1 84.0992 63.2321 42.4629 -1.5159 -0.0003 0.0000
# 2 63.2321 84.0992 42.4629 1.5159 0.0003 0.0000
# 3 42.4629 42.4629 61.1474 0.0000 0.0000 0.0000
# 4 -1.5159 1.5159 0.0000 33.2529 0.0000 0.0003
# 5 -0.0003 0.0003 0.0000 0.0000 33.2529 -1.5159
# 6 0.0000 0.0000 0.0000 0.0003 -1.5159 10.4336
#
#
#
# Elastic Compliance Matrix: (Units=1/GPa)
#
#
# Indices 1 2 3 4 5 6 
#
# 1 0.029780 -0.018462 -0.007859 0.002199 0.000001 0.000000
# 2 -0.018462 0.029780 -0.007859 -0.002199 -0.000001 0.000000
# 3 -0.007859 -0.007859 0.027270 0.000000 0.000000 0.000000
# 4 0.002199 -0.002199 0.000000 0.030273 0.000000 -0.000001
# 5 0.000001 -0.000001 0.000000 0.000000 0.030273 0.004398
# 6 0.000000 0.000000 0.000000 -0.000001 0.004398 0.096484
#
#
# Mechanical properties :
#
#
# Convention : Reuss Voigt Hill
#
# Bulk Modulus (GPa) = 54.14941 58.40685 56.27813
# Shear Modulus (GPa) = 15.70466 20.80040 18.25253
#
# Velocity S-wave (km/s) = 2.89210 3.32839 3.11789
# Velocity P-wave (km/s) = 6.32392 6.77334 6.55249
#
# Compressibility (1/GPa) = 0.01846742
#
# Stress axis : x y z
#
# Youngs Moduli (GPa) = 33.57978 33.57978 36.67071
#
# Poissons Ratio (x) = 0.61995 0.28821
# Poissons Ratio (y) = 0.61995 0.28821
# Poissons Ratio (z) = 0.26392 0.26392
#
# Static dielectric constant tensor:
#      x y z
#    x 1.705430 0.000000 0.000000 
#    y 0.000000 1.705430 0.000000 
#    z 0.000000 0.000000 1.704860 
# 
# From -- ./inp_files/7502.got.cif
#   From: 2010.05.17/outbox.cif.g08.bks.cpg/sg155_4_cif.got.tgz:7502.got - 2010.05.20 10:44:35.
