data_PCOD9576034
_publ_section_title
;
Structure prediction by ZEFSAII (Michael W. Deem and Ramdas Pophale) SiO2 
 PCOD9576034
Probable space group: P 31 2 1
;
_chemical_formula_sum "Si O2"
_cell_formula_units_Z 24
_cell_length_a 14.556415
_cell_length_b 14.556415
_cell_length_c 6.382412
_cell_angle_alpha 90.000000
_cell_angle_beta 90.000000
_cell_angle_gamma 120.000000
_cell_volume 1171.181826
_symmetry_space_group_name_H-M "P 31 2 1"
_symmetry_group_IT_number 152
_symmetry_cell_setting 'hexagonal'
loop_
_space_group_symop_operation_xyz
x,y,z
-y,x-y,1/3+z
-x+y,-x,2/3+z
x-y,-y,2/3-z
-x,-x+y,1/3-z
y,x,-z
loop_
_atom_site_type_symbol
_atom_site_label
_atom_site_fract_x
_atom_site_fract_y
_atom_site_fract_z
Si Si1 0.379014 0.000000 0.333334
Si Si2 0.439286 0.726040 0.291518
Si Si3 0.578326 0.059422 0.615360
Si Si4 0.713092 0.000000 0.333334
Si Si5 0.660833 0.767050 0.359817
O O1 0.428519 0.955037 0.166210
O O2 0.273561 0.922070 0.455386
O O3 0.376155 0.743788 0.480965
O O4 0.481662 0.819473 0.116367
O O5 0.537028 0.725145 0.408091
O O6 0.640423 0.002347 0.521862
O O7 0.536188 0.000000 0.833334
O O8 0.825128 0.105975 0.307296
O O9 0.717347 0.717347 0.500000
#
# Coordination Sequence:
#
# PCOD9576034 Si02
#       5
#     3   6   6   3   6
#     4  11  22  40  59 100 128 174 225 274 333 396
#     4  11  25  41  66 104 145 184 227 280 348 423
#     4  10  22  42  67  91 137 179 226 275 343 408
#     4   9  24  46  67 100 128 182 229 284 349 404
#     4  11  25  45  70  98 139 178 235 287 341 412
#
# _framework density 20.492118999999999
#
# number of rings (size 3 to 8) (size 9 to 14) (size 15 to 20)
#    0.000    1.500    2.500    0.750    7.000    4.000 
#    0.000    1.250    0.000    0.000    0.000    0.000 
#    0.000    0.000    0.000    0.000    0.000    0.000 
#
# Total GULP energy -133732.769819 kJ/mol
# GULP energy per Si atom -5572.198742 kJ/mol
# Density = 2.044548 g / cm^3
# Si number density = 20.492119 Si / 1000 Ang^3
#
#
#
# Elastic Constant Matrix: (Units=GPa)
#
#
# Indices 1 2 3 4 5 6 
#
# 1 160.7270 73.4692 60.2067 -9.3756 0.0003 0.0000
# 2 73.4692 160.7270 60.2067 9.3756 -0.0003 0.0000
# 3 60.2067 60.2067 91.4561 0.0000 0.0000 0.0000
# 4 -9.3756 9.3756 0.0000 36.8169 0.0000 -0.0003
# 5 0.0003 -0.0003 0.0000 0.0000 36.8169 -9.3756
# 6 0.0000 0.0000 0.0000 -0.0003 -9.3756 43.6289
#
#
#
# Elastic Compliance Matrix: (Units=1/GPa)
#
#
# Indices 1 2 3 4 5 6 
#
# 1 0.009289 -0.002835 -0.004249 0.003087 0.000000 0.000000
# 2 -0.002835 0.009289 -0.004249 -0.003087 0.000000 0.000000
# 3 -0.004249 -0.004249 0.016529 0.000000 0.000000 0.000000
# 4 0.003087 -0.003087 0.000000 0.028734 0.000000 0.000000
# 5 0.000000 0.000000 0.000000 0.000000 0.028734 0.006175
# 6 0.000000 0.000000 0.000000 0.000000 0.006175 0.024248
#
#
# Mechanical properties :
#
#
# Convention : Reuss Voigt Hill
#
# Bulk Modulus (GPa) = 80.37693 88.96392 84.67042
# Shear Modulus (GPa) = 34.81033 38.05436 36.43234
#
# Velocity S-wave (km/s) = 4.12602 4.31400 4.22105
# Velocity P-wave (km/s) = 7.87447 8.26571 8.07246
#
# Compressibility (1/GPa) = 0.01244138
#
# Stress axis : x y z
#
# Youngs Moduli (GPa) = 107.65174 107.65174 60.50047
#
# Poissons Ratio (x) = 0.30514 0.25708
# Poissons Ratio (y) = 0.30514 0.25708
# Poissons Ratio (z) = 0.45743 0.45743
#
# Static dielectric constant tensor:
#      x y z
#    x 1.784150 0.000000 0.000000 
#    y 0.000000 1.784150 0.000000 
#    z 0.000000 0.000000 1.777350 
# 
# From -- ./inp_files/238.got.cif
#   From: 2010.05.17/outbox.cif.g08.bks.cpg/sg152_1_cif.got.tgz:238.got - 2010.05.20 10:36:06.
