data_PCOD9576738
_publ_section_title
;
Structure prediction by ZEFSAII (Michael W. Deem and Ramdas Pophale) SiO2 
 PCOD9576738
Probable space group: P 32 2 1
;
_chemical_formula_sum "Si O2"
_cell_formula_units_Z 21
_cell_length_a 7.764652
_cell_length_b 7.764652
_cell_length_c 16.729365
_cell_angle_alpha 90.000000
_cell_angle_beta 90.000000
_cell_angle_gamma 120.000000
_cell_volume 873.482243
_symmetry_space_group_name_H-M "P 32 2 1"
_symmetry_group_IT_number 154
_symmetry_cell_setting 'hexagonal'
loop_
_space_group_symop_operation_xyz
x,y,z
-y,x-y,2/3+z
-x+y,-x,1/3+z
x-y,-y,1/3-z
-x,-x+y,2/3-z
y,x,-z
loop_
_atom_site_type_symbol
_atom_site_label
_atom_site_fract_x
_atom_site_fract_y
_atom_site_fract_z
Si Si1 0.722889 0.722889 0.000000
Si Si2 0.364641 0.744965 0.542639
Si Si3 0.324197 0.256333 0.907528
Si Si4 0.316356 0.213014 0.419643
O O1 0.567405 0.657339 0.927261
O O2 0.931604 0.742109 0.975916
O O3 0.234573 0.699031 0.462844
O O4 0.280048 0.545453 0.595439
O O5 0.601000 0.863678 0.526808
O O6 0.197640 0.020509 0.896881
O O7 0.299007 0.299007 0.000000
O O8 0.330444 0.330444 0.500000
#
# Coordination Sequence:
#
# PCOD9576738 Si02
#       4
#     3   6   6   6
#     4  12  26  46  76 112 156 198 268 330 394 480
#     4  12  27  48  78 109 158 205 265 327 405 472
#     4  12  25  47  76 112 154 203 265 328 392 479
#     4  12  27  48  73 113 156 205 261 328 397 478
#
# _framework density 24.041706000000001
#
# number of rings (size 3 to 8) (size 9 to 14) (size 15 to 20)
#    0.000    0.000    8.571    0.000    4.000    1.143 
#    0.000    0.000    0.000    0.000    0.000    0.000 
#    0.000    0.000    0.000    0.000    0.000    0.000 
#
# Total GULP energy -117277.027471 kJ/mol
# GULP energy per Si atom -5584.620356 kJ/mol
# Density = 2.398699 g / cm^3
# Si number density = 24.041706 Si / 1000 Ang^3
#
#
#
# Elastic Constant Matrix: (Units=GPa)
#
#
# Indices 1 2 3 4 5 6 
#
# 1 133.9939 58.8363 17.1160 4.5779 0.0000 0.0000
# 2 58.8363 133.9939 17.1160 -4.5779 0.0000 0.0000
# 3 17.1160 17.1160 62.0720 0.0000 0.0000 0.0000
# 4 4.5779 -4.5779 0.0000 28.0888 0.0000 0.0000
# 5 0.0000 0.0000 0.0000 0.0000 28.0888 4.5779
# 6 0.0000 0.0000 0.0000 0.0000 4.5779 37.5788
#
#
#
# Elastic Compliance Matrix: (Units=1/GPa)
#
#
# Indices 1 2 3 4 5 6 
#
# 1 0.009514 -0.004061 -0.001504 -0.002212 0.000000 0.000000
# 2 -0.004061 0.009514 -0.001504 0.002212 0.000000 0.000000
# 3 -0.001504 -0.001504 0.016940 0.000000 0.000000 0.000000
# 4 -0.002212 0.002212 0.000000 0.036323 0.000000 0.000000
# 5 0.000000 0.000000 0.000000 0.000000 0.036323 -0.004425
# 6 0.000000 0.000000 0.000000 0.000000 -0.004425 0.027150
#
#
# Mechanical properties :
#
#
# Convention : Reuss Voigt Hill
#
# Bulk Modulus (GPa) = 45.80672 57.35515 51.58093
# Shear Modulus (GPa) = 31.81154 34.55070 33.18112
#
# Velocity S-wave (km/s) = 3.64150 3.79504 3.71906
# Velocity P-wave (km/s) = 6.06425 6.56593 6.32007
#
# Compressibility (1/GPa) = 0.02183086
#
# Stress axis : x y z
#
# Youngs Moduli (GPa) = 105.10972 105.10972 59.03345
#
# Poissons Ratio (x) = 0.42685 0.08876
# Poissons Ratio (y) = 0.42685 0.08876
# Poissons Ratio (z) = 0.15804 0.15804
#
# Static dielectric constant tensor:
#      x y z
#    x 2.013800 0.000000 0.000000 
#    y 0.000000 2.013800 0.000000 
#    z 0.000000 0.000000 1.952420 
# 
# From -- ./inp_files/2272.got.cif
#   From: 2010.05.17/outbox.cif.g08.bks.cpg/sg154_2_cif.got.tgz:2272.got - 2010.05.20 10:41:43.
