data_PCOD9576429
_publ_section_title
;
Structure prediction by ZEFSAII (Michael W. Deem and Ramdas Pophale) SiO2 
 PCOD9576429
Probable space group: P 32 2 1
;
_chemical_formula_sum "Si O2"
_cell_formula_units_Z 48
_cell_length_a 11.962017
_cell_length_b 11.962017
_cell_length_c 19.393861
_cell_angle_alpha 90.000000
_cell_angle_beta 90.000000
_cell_angle_gamma 120.000000
_cell_volume 2403.276506
_symmetry_space_group_name_H-M "P 32 2 1"
_symmetry_group_IT_number 154
_symmetry_cell_setting 'hexagonal'
loop_
_space_group_symop_operation_xyz
x,y,z
-y,x-y,2/3+z
-x+y,-x,1/3+z
x-y,-y,1/3-z
-x,-x+y,2/3-z
y,x,-z
loop_
_atom_site_type_symbol
_atom_site_label
_atom_site_fract_x
_atom_site_fract_y
_atom_site_fract_z
Si Si1 0.057805 0.275248 0.123996
Si Si2 0.699529 0.701054 0.643156
Si Si3 0.368398 0.951015 0.593075
Si Si4 0.507678 0.348513 0.902538
Si Si5 0.591570 0.191866 0.993485
Si Si6 0.434234 0.248003 0.211132
Si Si7 0.327147 0.646269 0.220129
Si Si8 0.126155 0.195699 0.877927
O O1 0.021883 0.320500 0.194885
O O2 0.207178 0.383922 0.107012
O O3 0.077396 0.152211 0.124388
O O4 0.974262 0.265623 0.057180
O O5 0.545410 0.634233 0.642794
O O6 0.743641 0.623344 0.592703
O O7 0.757613 0.849143 0.615517
O O8 0.324265 0.800380 0.585658
O O9 0.344809 0.000000 0.666667
O O10 0.524882 0.027777 0.588337
O O11 0.587407 0.385517 0.832148
O O12 0.581703 0.309830 0.958702
O O13 0.686874 0.260881 0.056464
O O14 0.636261 0.132175 0.932958
O O15 0.550657 0.274019 0.159549
O O16 0.319563 0.235798 0.163371
O O17 0.000000 0.153261 0.833334
#
# Coordination Sequence:
#
# PCOD9576429 Si02
#       8
#     6   6   6   6   6   6   6   6
#     4  10  22  36  57  89 109 144 200 244 288 351
#     4  10  21  37  60  88 112 155 196 245 294 345
#     4  11  21  37  57  84 118 155 191 236 301 363
#     4   9  20  32  53  81 112 148 180 233 286 348
#     4  10  19  34  54  85 114 149 192 231 289 347
#     4  10  21  36  56  86 120 151 193 246 293 347
#     4  10  19  34  54  81 115 151 191 232 291 354
#     4  10  20  39  61  79 112 154 199 243 288 341
#
# _framework density 19.972733999999999
#
# number of rings (size 3 to 8) (size 9 to 14) (size 15 to 20)
#    0.000    2.000    2.500    1.875    1.750    0.000 
#    2.250    2.500    0.000    0.000    0.000    0.000 
#    0.000    0.000    0.000    0.000    0.000    0.000 
#
# Total GULP energy -267308.781525 kJ/mol
# GULP energy per Si atom -5568.932948 kJ/mol
# Density = 1.992727 g / cm^3
# Si number density = 19.972734 Si / 1000 Ang^3
#
#
#
# Elastic Constant Matrix: (Units=GPa)
#
#
# Indices 1 2 3 4 5 6 
#
# 1 37.6052 6.1200 20.0922 4.6643 0.0000 0.0000
# 2 6.1200 37.6052 20.0922 -4.6643 0.0000 0.0000
# 3 20.0922 20.0922 124.6138 0.0000 0.0000 0.0000
# 4 4.6643 -4.6643 0.0000 18.7846 0.0000 0.0000
# 5 0.0000 0.0000 0.0000 0.0000 18.7846 4.6643
# 6 0.0000 0.0000 0.0000 0.0000 4.6643 15.7426
#
#
#
# Elastic Compliance Matrix: (Units=1/GPa)
#
#
# Indices 1 2 3 4 5 6 
#
# 1 0.030566 -0.003717 -0.004329 -0.008513 0.000000 0.000000
# 2 -0.003717 0.030566 -0.004329 0.008513 0.000000 0.000000
# 3 -0.004329 -0.004329 0.009421 0.000000 0.000000 0.000000
# 4 -0.008513 0.008513 0.000000 0.057463 0.000000 0.000000
# 5 0.000000 0.000000 0.000000 0.000000 0.057463 -0.017025
# 6 0.000000 0.000000 0.000000 0.000000 -0.017025 0.068566
#
#
# Mechanical properties :
#
#
# Convention : Reuss Voigt Hill
#
# Bulk Modulus (GPa) = 21.83308 32.49252 27.16280
# Shear Modulus (GPa) = 17.00322 20.89699 18.95011
#
# Velocity S-wave (km/s) = 2.92091 3.23813 3.08360
# Velocity P-wave (km/s) = 4.72554 5.50313 5.12909
#
# Compressibility (1/GPa) = 0.04580206
#
# Stress axis : x y z
#
# Youngs Moduli (GPa) = 32.71627 32.71627 106.14864
#
# Poissons Ratio (x) = 0.12162 0.45951
# Poissons Ratio (y) = 0.12162 0.45951
# Poissons Ratio (z) = 0.14163 0.14163
#
# Static dielectric constant tensor:
#      x y z
#    x 1.726980 0.000000 0.000000 
#    y 0.000000 1.726980 0.000000 
#    z 0.000000 0.000000 1.759540 
# 
# From -- ./inp_files/2877.got.cif
#   From: 2010.05.17/outbox.cif.g08.bks.cpg/sg154_2_cif.got.tgz:2877.got - 2010.05.20 10:41:43.
