data_PCOD9576290
_publ_section_title
;
Structure prediction by ZEFSAII (Michael W. Deem and Ramdas Pophale) SiO2 
 PCOD9576290
Probable space group: P 32 1 2
;
_chemical_formula_sum "Si O2"
_cell_formula_units_Z 36
_cell_length_a 12.215438
_cell_length_b 12.215438
_cell_length_c 13.982094
_cell_angle_alpha 90.000000
_cell_angle_beta 90.000000
_cell_angle_gamma 120.000000
_cell_volume 1806.845160
_symmetry_space_group_name_H-M "P 32 1 2"
_symmetry_group_IT_number 153
_symmetry_cell_setting 'hexagonal'
loop_
_space_group_symop_operation_xyz
x,y,z
-y,x-y,2/3+z
-x+y,-x,1/3+z
-y,-x,1/3-z
-x+y,y,2/3-z
x,x-y,-z
loop_
_atom_site_type_symbol
_atom_site_label
_atom_site_fract_x
_atom_site_fract_y
_atom_site_fract_z
Si Si1 0.451599 0.725800 0.000000
Si Si2 0.388750 0.009414 0.375967
Si Si3 0.849350 0.119686 0.932900
Si Si4 0.635682 0.708450 0.157067
Si Si5 0.114939 0.885062 0.166667
Si Si6 0.228471 0.994509 0.538847
Si Si7 0.553348 0.822839 0.644937
O O1 0.537566 0.704703 0.077563
O O2 0.362259 0.770902 0.052779
O O3 0.522132 0.044264 0.333334
O O4 0.349919 0.100838 0.322939
O O5 0.357822 0.015566 0.488217
O O6 0.295702 0.864650 0.343858
O O7 0.979103 0.143114 0.883407
O O8 0.728201 0.074399 0.865100
O O9 0.783980 0.013004 0.015207
O O10 0.571929 0.668119 0.259850
O O11 0.735284 0.858854 0.164288
O O12 0.104827 0.774505 0.238050
O O13 0.201193 0.100597 0.500000
#
# Coordination Sequence:
#
# PCOD9576290 Si02
#       7
#     3   6   6   6   3   6   6
#     4  12  22  38  66  92 136 162 208 268 330 414
#     4   9  18  36  63  92 125 164 217 277 323 393
#     4  10  20  38  54  89 129 160 223 253 328 399
#     4  11  22  37  58  94 124 169 204 253 338 393
#     4  10  24  40  62  92 128 174 216 276 326 390
#     4   9  18  34  58  85 122 163 204 259 310 386
#     4  10  23  38  59  94 128 165 210 264 341 387
#
# _framework density 19.924229
#
# number of rings (size 3 to 8) (size 9 to 14) (size 15 to 20)
#    0.000    2.000    2.500    1.500    3.500    2.000 
#    6.000    0.000    0.000    6.000    0.000    0.000 
#    0.000    0.000    0.000    0.000    0.000    0.000 
#
# Total GULP energy -200413.850232 kJ/mol
# GULP energy per Si atom -5567.051395 kJ/mol
# Density = 1.987888 g / cm^3
# Si number density = 19.924229 Si / 1000 Ang^3
#
#
#
# Elastic Constant Matrix: (Units=GPa)
#
#
# Indices 1 2 3 4 5 6 
#
# 1 82.0695 32.9032 27.9898 0.0000 -1.6380 0.0000
# 2 32.9032 82.0695 27.9898 0.0000 1.6380 0.0000
# 3 27.9898 27.9898 87.8628 0.0000 0.0000 0.0000
# 4 0.0000 0.0000 0.0000 21.9008 0.0000 1.6380
# 5 -1.6380 1.6380 0.0000 0.0000 21.9008 0.0000
# 6 0.0000 0.0000 0.0000 1.6380 0.0000 24.5831
#
#
#
# Elastic Compliance Matrix: (Units=1/GPa)
#
#
# Indices 1 2 3 4 5 6 
#
# 1 0.015368 -0.005073 -0.003279 0.000000 0.001529 0.000000
# 2 -0.005073 0.015368 -0.003279 0.000000 -0.001529 0.000000
# 3 -0.003279 -0.003279 0.013471 0.000000 0.000000 0.000000
# 4 0.000000 0.000000 0.000000 0.045889 0.000000 -0.003058
# 5 0.001529 -0.001529 0.000000 0.000000 0.045889 0.000000
# 6 0.000000 0.000000 0.000000 -0.003058 0.000000 0.040882
#
#
# Mechanical properties :
#
#
# Convention : Reuss Voigt Hill
#
# Bulk Modulus (GPa) = 47.75097 47.75193 47.75145
# Shear Modulus (GPa) = 24.14157 24.55153 24.34655
#
# Velocity S-wave (km/s) = 3.48468 3.51414 3.49944
# Velocity P-wave (km/s) = 6.34105 6.36273 6.35190
#
# Compressibility (1/GPa) = 0.02094198
#
# Stress axis : x y z
#
# Youngs Moduli (GPa) = 65.07139 65.07139 74.23470
#
# Poissons Ratio (x) = 0.33013 0.24345
# Poissons Ratio (y) = 0.33013 0.24345
# Poissons Ratio (z) = 0.21340 0.21340
#
# Static dielectric constant tensor:
#      x y z
#    x 1.733470 0.000000 0.000000 
#    y 0.000000 1.733470 0.000000 
#    z 0.000000 0.000000 1.716110 
# 
# From -- ./inp_files/2975.got.cif
#   From: 2010.05.17/outbox.cif.g08.bks.cpg/sg153_2_cif.got.tgz:2975.got - 2010.05.20 10:38:56.
