data_PCOD9576789
_publ_section_title
;
Structure prediction by ZEFSAII (Michael W. Deem and Ramdas Pophale) SiO2 
 PCOD9576789
Probable space group: R 3 2
;
_chemical_formula_sum "Si O2"
_cell_formula_units_Z 81
_cell_length_a 17.127455
_cell_length_b 17.127455
_cell_length_c 18.986336
_cell_angle_alpha 90.000000
_cell_angle_beta 90.000000
_cell_angle_gamma 120.000000
_cell_volume 4823.446483
_symmetry_space_group_name_H-M "R 3 2"
_symmetry_group_IT_number 155
_symmetry_cell_setting 'hexagonal'
loop_
_space_group_symop_operation_xyz
x,y,z
-y,x-y,z
-x+y,-x,z
x-y,-y,-z
-x,-x+y,-z
y,x,-z
2/3+x,1/3+y,1/3+z
2/3-y,1/3+x-y,1/3+z
2/3-x+y,1/3-x,1/3+z
2/3+x-y,1/3-y,1/3-z
2/3-x,1/3-x+y,1/3-z
2/3+y,1/3+x,1/3-z
1/3+x,2/3+y,2/3+z
1/3-y,2/3+x-y,2/3+z
1/3-x+y,2/3-x,2/3+z
1/3+x-y,2/3-y,2/3-z
1/3-x,2/3-x+y,2/3-z
1/3+y,2/3+x,2/3-z
loop_
_atom_site_type_symbol
_atom_site_label
_atom_site_fract_x
_atom_site_fract_y
_atom_site_fract_z
Si Si1 0.959717 0.626384 0.833334
Si Si2 0.250965 0.898324 0.714790
Si Si3 0.164970 0.188562 0.219022
Si Si4 0.950173 0.561404 0.683666
Si Si5 0.478559 0.170200 0.156290
O O1 0.974450 0.724660 0.815346
O O2 0.926269 0.562177 0.765271
O O3 0.333334 0.967005 0.666667
O O4 0.160821 0.830980 0.670730
O O5 0.291322 0.849877 0.764042
O O6 0.217934 0.946810 0.769712
O O7 0.196113 0.197171 0.300605
O O8 0.155242 0.096170 0.191031
O O9 0.075001 0.188451 0.198177
O O10 0.019906 0.666667 0.666667
#
# Coordination Sequence:
#
# PCOD9576789 Si02
#       5
#     9  18  18  18  18
#     4  10  18  32  54  76  98 130 172 212 248 296
#     4  10  20  33  50  74 104 131 161 208 258 302
#     4  10  19  33  53  73  98 131 169 207 248 303
#     4   9  18  32  51  74 100 132 169 209 249 299
#     4  10  20  34  51  73 100 133 168 204 254 307
#
# _framework density 16.792971000000001
#
# number of rings (size 3 to 8) (size 9 to 14) (size 15 to 20)
#    0.000    2.222    0.000    5.778    0.000    2.667 
#    0.000    0.000    0.000    4.444    0.000    0.000 
#    0.000    0.000    0.000    0.000    0.000    0.000 
#
# Total GULP energy -150439.849503 kJ/mol
# GULP energy per Si atom -5571.846278 kJ/mol
# Density = 1.675475 g / cm^3
# Si number density = 16.792971 Si / 1000 Ang^3
#
#
#
# Elastic Constant Matrix: (Units=GPa)
#
#
# Indices 1 2 3 4 5 6 
#
# 1 81.1554 51.3434 29.4690 -5.5432 -0.0002 0.0000
# 2 51.3434 81.1554 29.4690 5.5432 0.0002 0.0000
# 3 29.4690 29.4690 99.3644 0.0000 0.0000 0.0000
# 4 -5.5432 5.5432 0.0000 17.0339 0.0000 0.0002
# 5 -0.0002 0.0002 0.0000 0.0000 17.0339 -5.5432
# 6 0.0000 0.0000 0.0000 0.0002 -5.5432 14.9060
#
#
#
# Elastic Compliance Matrix: (Units=1/GPa)
#
#
# Indices 1 2 3 4 5 6 
#
# 1 0.023428 -0.014734 -0.002578 0.012418 0.000001 0.000000
# 2 -0.014734 0.023428 -0.002578 -0.012418 -0.000001 0.000000
# 3 -0.002578 -0.002578 0.011593 0.000000 0.000000 0.000000
# 4 0.012418 -0.012418 0.000000 0.066789 0.000000 -0.000001
# 5 0.000001 -0.000001 0.000000 0.000000 0.066789 0.024837
# 6 0.000000 0.000000 0.000000 -0.000001 0.024837 0.076323
#
#
# Mechanical properties :
#
#
# Convention : Reuss Voigt Hill
#
# Bulk Modulus (GPa) = 53.56801 53.58201 53.57501
# Shear Modulus (GPa) = 15.90565 19.88771 17.89668
#
# Velocity S-wave (km/s) = 3.08094 3.44508 3.26809
# Velocity P-wave (km/s) = 6.68016 6.91386 6.79801
#
# Compressibility (1/GPa) = 0.01866786
#
# Stress axis : x y z
#
# Youngs Moduli (GPa) = 42.68420 42.68420 86.25608
#
# Poissons Ratio (x) = 0.62890 0.22241
# Poissons Ratio (y) = 0.62890 0.22241
# Poissons Ratio (z) = 0.11006 0.11006
#
# Static dielectric constant tensor:
#      x y z
#    x 1.548250 0.000000 0.000000 
#    y 0.000000 1.548250 0.000000 
#    z 0.000000 0.000000 1.636420 
# 
# From -- ./inp_files/6034.got.cif
#   From: 2010.05.17/outbox.cif.g08.bks.cpg/sg155_4_cif.got.tgz:6034.got - 2010.05.20 10:44:35.
