data_PCOD9576975
_publ_section_title
;
Structure prediction by ZEFSAII (Michael W. Deem and Ramdas Pophale) SiO2 
 PCOD9576975
Probable space group: R 3 2
;
_chemical_formula_sum "Si O2"
_cell_formula_units_Z 63
_cell_length_a 21.957257
_cell_length_b 21.957257
_cell_length_c 7.905687
_cell_angle_alpha 90.000000
_cell_angle_beta 90.000000
_cell_angle_gamma 120.000000
_cell_volume 3300.854778
_symmetry_space_group_name_H-M "R 3 2"
_symmetry_group_IT_number 155
_symmetry_cell_setting 'hexagonal'
loop_
_space_group_symop_operation_xyz
x,y,z
-y,x-y,z
-x+y,-x,z
x-y,-y,-z
-x,-x+y,-z
y,x,-z
2/3+x,1/3+y,1/3+z
2/3-y,1/3+x-y,1/3+z
2/3-x+y,1/3-x,1/3+z
2/3+x-y,1/3-y,1/3-z
2/3-x,1/3-x+y,1/3-z
2/3+y,1/3+x,1/3-z
1/3+x,2/3+y,2/3+z
1/3-y,2/3+x-y,2/3+z
1/3-x+y,2/3-x,2/3+z
1/3+x-y,2/3-y,2/3-z
1/3-x,2/3-x+y,2/3-z
1/3+y,2/3+x,2/3-z
loop_
_atom_site_type_symbol
_atom_site_label
_atom_site_fract_x
_atom_site_fract_y
_atom_site_fract_z
Si Si1 0.402556 0.875393 0.575819
Si Si2 0.378128 0.000000 0.500000
Si Si3 0.479379 0.367281 0.656226
Si Si4 0.225123 0.366207 0.507955
O O1 0.333334 0.814506 0.666667
O O2 0.384356 0.930008 0.484049
O O3 0.448880 0.857499 0.449797
O O4 0.454422 0.921455 0.725994
O O5 0.333334 0.990031 0.666667
O O6 0.418315 0.305520 0.545941
O O7 0.453241 0.421335 0.709465
O O8 0.484728 0.333334 0.833334
O O9 0.184306 0.333334 0.333334
#
# Coordination Sequence:
#
# PCOD9576975 Si02
#       4
#    18   9  18  18
#     4  11  22  38  57  87 129 168 207 251 312 375
#     4  10  22  40  60  86 130 174 212 254 304 374
#     4  10  21  38  60  93 126 159 203 255 320 381
#     4  10  21  37  63  93 125 161 203 259 316 382
#
# _framework density 19.085965000000002
#
# number of rings (size 3 to 8) (size 9 to 14) (size 15 to 20)
#    0.000    1.714    2.857    0.857    0.000   18.286 
#    0.000    0.000    0.000    4.571    0.000    0.000 
#    0.000    0.000    0.000    0.000    0.000    0.000 
#
# Total GULP energy -117293.621495 kJ/mol
# GULP energy per Si atom -5585.410547 kJ/mol
# Density = 1.904252 g / cm^3
# Si number density = 19.085965 Si / 1000 Ang^3
#
#
#
# Elastic Constant Matrix: (Units=GPa)
#
#
# Indices 1 2 3 4 5 6 
#
# 1 87.3212 38.6497 60.0543 -6.8519 -0.0042 0.0018
# 2 38.6497 87.3227 60.0500 6.8481 0.0030 -0.0014
# 3 60.0543 60.0500 113.9769 -0.0202 -0.0427 0.0114
# 4 -6.8519 6.8481 -0.0202 24.3530 -0.0005 -0.0060
# 5 -0.0042 0.0030 -0.0427 -0.0005 24.3715 -6.8468
# 6 0.0018 -0.0014 0.0114 -0.0060 -6.8468 24.3334
#
#
#
# Elastic Compliance Matrix: (Units=1/GPa)
#
#
# Indices 1 2 3 4 5 6 
#
# 1 0.019131 -0.003180 -0.008403 0.006270 -0.000011 0.000001
# 2 -0.003180 0.019132 -0.008405 -0.006282 -0.000018 -0.000001
# 3 -0.008403 -0.008405 0.017630 0.000014 0.000031 0.000001
# 4 0.006270 -0.006282 0.000014 0.044593 0.000006 0.000012
# 5 -0.000011 -0.000018 0.000031 0.000006 0.044553 0.012536
# 6 0.000001 -0.000001 0.000001 0.000012 0.012536 0.044623
#
#
# Mechanical properties :
#
#
# Convention : Reuss Voigt Hill
#
# Bulk Modulus (GPa) = 62.83447 67.34765 65.09106
# Shear Modulus (GPa) = 21.28143 23.26938 22.27540
#
# Velocity S-wave (km/s) = 3.34283 3.49547 3.42000
# Velocity P-wave (km/s) = 6.92045 7.18709 7.05503
#
# Compressibility (1/GPa) = 0.01591483
#
# Stress axis : x y z
#
# Youngs Moduli (GPa) = 52.27116 52.26743 56.72169
#
# Poissons Ratio (x) = 0.16623 0.47665
# Poissons Ratio (y) = 0.16625 0.47677
# Poissons Ratio (z) = 0.43925 0.43933
#
# Static dielectric constant tensor:
#      x y z
#    x 1.671740 0.000000 0.000000 
#    y 0.000000 1.671740 0.000000 
#    z 0.000000 0.000000 1.672330 
# 
# From -- ./inp_files/1975.got.cif
#   From: 2010.05.17/outbox.cif.g08.bks.cpg/sg155_1_cif.got.tgz:1975.got - 2010.05.20 10:44:35.
