data_PCOD9576623
_publ_section_title
;
Structure prediction by ZEFSAII (Michael W. Deem and Ramdas Pophale) SiO2 
 PCOD9576623
Probable space group: P 32 2 1
;
_chemical_formula_sum "Si O2"
_cell_formula_units_Z 33
_cell_length_a 9.419348
_cell_length_b 9.419348
_cell_length_c 14.973795
_cell_angle_alpha 90.000000
_cell_angle_beta 90.000000
_cell_angle_gamma 120.000000
_cell_volume 1150.546563
_symmetry_space_group_name_H-M "P 32 2 1"
_symmetry_group_IT_number 154
_symmetry_cell_setting 'hexagonal'
loop_
_space_group_symop_operation_xyz
x,y,z
-y,x-y,2/3+z
-x+y,-x,1/3+z
x-y,-y,1/3-z
-x,-x+y,2/3-z
y,x,-z
loop_
_atom_site_type_symbol
_atom_site_label
_atom_site_fract_x
_atom_site_fract_y
_atom_site_fract_z
Si Si1 0.172086 0.291808 0.680850
Si Si2 0.314744 0.636591 0.660569
Si Si3 0.945955 0.238664 0.424405
Si Si4 0.487584 0.333275 0.849622
Si Si5 0.851565 0.180281 0.757530
Si Si6 0.266286 0.266286 0.500000
O O1 0.230773 0.470608 0.718734
O O2 0.228901 0.176266 0.726870
O O3 0.287143 0.357937 0.591517
O O4 0.974190 0.188040 0.676871
O O5 0.177861 0.610706 0.584328
O O6 0.374224 0.770842 0.741505
O O7 0.485832 0.699721 0.607611
O O8 0.858786 0.288751 0.498037
O O9 0.000000 0.336403 0.333334
O O10 0.095375 0.239004 0.467901
O O11 0.320358 0.330970 0.884329
O O12 0.000000 0.247087 0.833334
#
# Coordination Sequence:
#
# PCOD9576623 Si02
#       6
#     6   6   6   6   6   3
#     4  11  25  47  79 125 169 222 294 368 447 539
#     4  12  31  51  87 126 184 237 301 377 466 543
#     4  10  22  43  75 114 162 220 291 364 433 527
#     4  12  28  54  81 125 177 239 305 370 456 545
#     4  12  26  52  87 124 177 243 303 373 457 551
#     4  10  22  42  76 116 160 218 280 364 438 518
#
# _framework density 28.682019
#
# number of rings (size 3 to 8) (size 9 to 14) (size 15 to 20)
#    0.000    0.727    1.818    3.818    3.818    8.727 
#    0.000    0.000    0.000    0.000    0.000    0.000 
#    0.000    0.000    0.000    0.000    0.000    0.000 
#
# Total GULP energy -183838.427252 kJ/mol
# GULP energy per Si atom -5570.861432 kJ/mol
# Density = 2.861674 g / cm^3
# Si number density = 28.682019 Si / 1000 Ang^3
#
#
#
# Elastic Constant Matrix: (Units=GPa)
#
#
# Indices 1 2 3 4 5 6 
#
# 1 133.5592 62.0267 35.4811 -7.7146 -0.0003 0.0000
# 2 62.0267 133.5592 35.4811 7.7146 0.0003 0.0000
# 3 35.4811 35.4811 128.9986 0.0000 0.0000 0.0000
# 4 -7.7146 7.7146 0.0000 96.1124 0.0000 0.0003
# 5 -0.0003 0.0003 0.0000 0.0000 96.1124 -7.7146
# 6 0.0000 0.0000 0.0000 0.0003 -7.7146 35.7663
#
#
#
# Elastic Compliance Matrix: (Units=1/GPa)
#
#
# Indices 1 2 3 4 5 6 
#
# 1 0.009953 -0.004273 -0.001562 0.001142 0.000000 0.000000
# 2 -0.004273 0.009953 -0.001562 -0.001142 0.000000 0.000000
# 3 -0.001562 -0.001562 0.008611 0.000000 0.000000 0.000000
# 4 0.001142 -0.001142 0.000000 0.010588 0.000000 0.000000
# 5 0.000000 0.000000 0.000000 0.000000 0.010588 0.002284
# 6 0.000000 0.000000 0.000000 0.000000 0.002284 0.028452
#
#
# Mechanical properties :
#
#
# Convention : Reuss Voigt Hill
#
# Bulk Modulus (GPa) = 72.87616 73.56608 73.22112
# Shear Modulus (GPa) = 51.27496 63.14009 57.20752
#
# Velocity S-wave (km/s) = 4.23271 4.69698 4.47088
# Velocity P-wave (km/s) = 7.02505 7.42429 7.22742
#
# Compressibility (1/GPa) = 0.01372191
#
# Stress axis : x y z
#
# Youngs Moduli (GPa) = 100.47430 100.47430 116.12545
#
# Poissons Ratio (x) = 0.42934 0.18141
# Poissons Ratio (y) = 0.42934 0.18141
# Poissons Ratio (z) = 0.15696 0.15696
#
# Static dielectric constant tensor:
#      x y z
#    x 2.234520 0.000000 0.000000 
#    y 0.000000 2.234520 0.000000 
#    z 0.000000 0.000000 2.763930 
# 
# From -- ./inp_files/2003.got.cif
#   From: 2010.05.17/outbox.cif.g08.bks.cpg/sg154_2_cif.got.tgz:2003.got - 2010.05.20 10:41:43.
