data_PCOD9576206
_publ_section_title
;
Structure prediction by ZEFSAII (Michael W. Deem and Ramdas Pophale) SiO2 
 PCOD9576206
Probable space group: P 31 2 1
;
_chemical_formula_sum "Si O2"
_cell_formula_units_Z 12
_cell_length_a 7.319060
_cell_length_b 7.319060
_cell_length_c 9.564517
_cell_angle_alpha 90.000000
_cell_angle_beta 90.000000
_cell_angle_gamma 120.000000
_cell_volume 443.715183
_symmetry_space_group_name_H-M "P 31 2 1"
_symmetry_group_IT_number 152
_symmetry_cell_setting 'hexagonal'
loop_
_space_group_symop_operation_xyz
x,y,z
-y,x-y,1/3+z
-x+y,-x,2/3+z
x-y,-y,2/3-z
-x,-x+y,1/3-z
y,x,-z
loop_
_atom_site_type_symbol
_atom_site_label
_atom_site_fract_x
_atom_site_fract_y
_atom_site_fract_z
Si Si1 0.202062 0.801533 0.586808
Si Si2 0.723997 0.072489 0.990722
O O1 0.122336 0.779188 0.428458
O O2 0.000000 0.620988 0.666667
O O3 0.248911 0.025401 0.649500
O O4 0.415060 0.798670 0.614764
O O5 0.649663 0.000000 0.833334
#
# Coordination Sequence:
#
# PCOD9576206 Si02
#       2
#     6   6
#     4  12  29  53  82 127 169 224 287 355 430 509
#     4  12  28  53  85 123 170 224 286 355 430 509
#
# _framework density 27.044374000000001
#
# number of rings (size 3 to 8) (size 9 to 14) (size 15 to 20)
#    0.000    0.000    0.000    9.000   14.000    0.000 
#    0.000    0.000    0.000    0.000    0.000    0.000 
#    0.000    0.000    0.000    0.000    0.000    0.000 
#
# Total GULP energy -67505.656631 kJ/mol
# GULP energy per Si atom -5625.471386 kJ/mol
# Density = 2.698282 g / cm^3
# Si number density = 27.044374 Si / 1000 Ang^3
#
#
#
# Elastic Constant Matrix: (Units=GPa)
#
#
# Indices 1 2 3 4 5 6 
#
# 1 163.2370 46.4410 37.5889 -7.6504 0.0003 0.0000
# 2 46.4410 163.2370 37.5889 7.6504 -0.0003 0.0000
# 3 37.5889 37.5889 183.7057 0.0000 0.0000 0.0000
# 4 -7.6504 7.6504 0.0000 39.5532 0.0000 -0.0003
# 5 0.0003 -0.0003 0.0000 0.0000 39.5532 -7.6504
# 6 0.0000 0.0000 0.0000 -0.0003 -7.6504 58.3980
#
#
#
# Elastic Compliance Matrix: (Units=1/GPa)
#
#
# Indices 1 2 3 4 5 6 
#
# 1 0.006966 -0.001819 -0.001053 0.001699 0.000000 0.000000
# 2 -0.001819 0.006966 -0.001053 -0.001699 0.000000 0.000000
# 3 -0.001053 -0.001053 0.005874 0.000000 0.000000 0.000000
# 4 0.001699 -0.001699 0.000000 0.025940 0.000000 0.000000
# 5 0.000000 0.000000 0.000000 0.000000 0.025940 0.003398
# 6 0.000000 0.000000 0.000000 0.000000 0.003398 0.017569
#
#
# Mechanical properties :
#
#
# Convention : Reuss Voigt Hill
#
# Bulk Modulus (GPa) = 83.64274 83.71301 83.67787
# Shear Modulus (GPa) = 49.46106 53.40493 51.43299
#
# Velocity S-wave (km/s) = 4.28119 4.44860 4.36569
# Velocity P-wave (km/s) = 7.44535 7.57680 7.51136
#
# Compressibility (1/GPa) = 0.01195561
#
# Stress axis : x y z
#
# Youngs Moduli (GPa) = 143.56131 143.56131 170.22862
#
# Poissons Ratio (x) = 0.26112 0.17927
# Poissons Ratio (y) = 0.26112 0.17927
# Poissons Ratio (z) = 0.15119 0.15119
#
# Static dielectric constant tensor:
#      x y z
#    x 2.064040 0.000000 0.000000 
#    y 0.000000 2.064040 0.000000 
#    z 0.000000 0.000000 2.106470 
# 
# From -- ./inp_files/620.got.cif
#   From: 2010.05.17/outbox.cif.g08.bks.cpg/sg152_1_cif.got.tgz:620.got - 2010.05.20 10:36:06.
