data_PCOD9576531
_publ_section_title
;
Structure prediction by ZEFSAII (Michael W. Deem and Ramdas Pophale) SiO2 
 PCOD9576531
Probable space group: P 32 2 1
;
_chemical_formula_sum "Si O2"
_cell_formula_units_Z 39
_cell_length_a 8.841825
_cell_length_b 8.841825
_cell_length_c 25.216262
_cell_angle_alpha 90.000000
_cell_angle_beta 90.000000
_cell_angle_gamma 120.000000
_cell_volume 1707.242328
_symmetry_space_group_name_H-M "P 32 2 1"
_symmetry_group_IT_number 154
_symmetry_cell_setting 'hexagonal'
loop_
_space_group_symop_operation_xyz
x,y,z
-y,x-y,2/3+z
-x+y,-x,1/3+z
x-y,-y,1/3-z
-x,-x+y,2/3-z
y,x,-z
loop_
_atom_site_type_symbol
_atom_site_label
_atom_site_fract_x
_atom_site_fract_y
_atom_site_fract_z
Si Si1 0.911697 0.580540 0.547976
Si Si2 0.555205 0.190485 0.296595
Si Si3 0.521676 0.831723 0.267069
Si Si4 0.130678 0.000000 0.166667
Si Si5 0.951825 0.377231 0.275058
Si Si6 0.927355 0.989900 0.059318
Si Si7 0.570015 0.251708 0.801986
O O1 0.117669 0.681536 0.543651
O O2 0.823911 0.571620 0.604228
O O3 0.827219 0.384208 0.526461
O O4 0.850554 0.682448 0.508972
O O5 0.566285 0.238039 0.358081
O O6 0.745441 0.295207 0.269912
O O7 0.494053 0.989342 0.286580
O O8 0.420067 0.755416 0.212257
O O9 0.727335 0.897015 0.267531
O O10 0.024570 0.981289 0.221325
O O11 0.982275 0.211442 0.272343
O O12 0.000000 0.455791 0.333334
O O13 0.082666 0.518784 0.234247
O O14 0.012385 0.012385 0.000000
#
# Coordination Sequence:
#
# PCOD9576531 Si02
#       7
#     6   6   6   3   6   6   6
#     4  12  27  43  69  95 145 178 234 291 356 424
#     4  11  23  44  69 102 136 187 227 291 350 431
#     4  11  24  41  73 101 140 177 239 283 360 424
#     4  12  24  46  68 100 138 184 240 288 352 434
#     4  10  20  43  70  98 135 179 225 285 359 423
#     4  10  23  42  72 102 137 188 234 287 356 438
#     4  12  25  45  66 103 134 182 230 296 360 415
#
# _framework density 22.843858000000001
#
# number of rings (size 3 to 8) (size 9 to 14) (size 15 to 20)
#    0.000    0.923    3.077    3.692    4.308    2.462 
#    2.769    0.769    0.000    0.000    0.000    0.000 
#    0.000    0.000    0.000    0.000    0.000    0.000 
#
# Total GULP energy -217945.665711 kJ/mol
# GULP energy per Si atom -5588.350403 kJ/mol
# Density = 2.279186 g / cm^3
# Si number density = 22.843858 Si / 1000 Ang^3
#
#
#
# Elastic Constant Matrix: (Units=GPa)
#
#
# Indices 1 2 3 4 5 6 
#
# 1 65.0102 5.7327 -7.6336 -5.3871 0.0000 0.0000
# 2 5.7327 65.0102 -7.6336 5.3871 0.0000 0.0000
# 3 -7.6336 -7.6336 55.7533 0.0000 0.0000 0.0000
# 4 -5.3871 5.3871 0.0000 32.7361 0.0000 0.0000
# 5 0.0000 0.0000 0.0000 0.0000 32.7361 -5.3871
# 6 0.0000 0.0000 0.0000 0.0000 -5.3871 29.6387
#
#
#
# Elastic Compliance Matrix: (Units=1/GPa)
#
#
# Indices 1 2 3 4 5 6 
#
# 1 0.015978 -0.001412 0.001994 0.002862 0.000000 0.000000
# 2 -0.001412 0.015978 0.001994 -0.002862 0.000000 0.000000
# 3 0.001994 0.001994 0.018482 0.000000 0.000000 0.000000
# 4 0.002862 -0.002862 0.000000 0.031489 0.000000 0.000000
# 5 0.000000 0.000000 0.000000 0.000000 0.031489 0.005723
# 6 0.000000 0.000000 0.000000 0.000000 0.005723 0.034780
#
#
# Mechanical properties :
#
#
# Convention : Reuss Voigt Hill
#
# Bulk Modulus (GPa) = 17.98824 18.52275 18.25550
# Shear Modulus (GPa) = 30.94564 32.04274 31.49419
#
# Velocity S-wave (km/s) = 3.68456 3.74931 3.71708
# Velocity P-wave (km/s) = 5.09832 5.18354 5.14111
#
# Compressibility (1/GPa) = 0.05559187
#
# Stress axis : x y z
#
# Youngs Moduli (GPa) = 62.58594 62.58594 54.10592
#
# Poissons Ratio (x) = 0.08837 -0.10791
# Poissons Ratio (y) = 0.08837 -0.10791
# Poissons Ratio (z) = -0.12482 -0.12482
#
# Static dielectric constant tensor:
#      x y z
#    x 1.854500 0.000000 0.000000 
#    y 0.000000 1.854500 0.000000 
#    z 0.000000 0.000000 1.883470 
# 
# From -- ./inp_files/3723.got.cif
#   From: 2010.05.17/outbox.cif.g08.bks.cpg/sg154_2_cif.got.tgz:3723.got - 2010.05.20 10:41:43.
