data_PCOD9576669
_publ_section_title
;
Structure prediction by ZEFSAII (Michael W. Deem and Ramdas Pophale) SiO2 
 PCOD9576669
Probable space group: P 32 2 1
;
_chemical_formula_sum "Si O2"
_cell_formula_units_Z 30
_cell_length_a 17.911379
_cell_length_b 17.911379
_cell_length_c 4.914138
_cell_angle_alpha 90.000000
_cell_angle_beta 90.000000
_cell_angle_gamma 120.000000
_cell_volume 1365.324951
_symmetry_space_group_name_H-M "P 32 2 1"
_symmetry_group_IT_number 154
_symmetry_cell_setting 'hexagonal'
loop_
_space_group_symop_operation_xyz
x,y,z
-y,x-y,2/3+z
-x+y,-x,1/3+z
x-y,-y,1/3-z
-x,-x+y,2/3-z
y,x,-z
loop_
_atom_site_type_symbol
_atom_site_label
_atom_site_fract_x
_atom_site_fract_y
_atom_site_fract_z
Si Si1 0.000000 0.574428 0.333334
Si Si2 0.915839 0.744899 0.029936
Si Si3 0.167269 0.575154 0.544480
Si Si4 0.630697 0.872060 0.454946
Si Si5 0.227626 0.520996 0.059267
Si Si6 0.087646 0.000000 0.666667
O O1 0.927109 0.491205 0.170308
O O2 0.940680 0.596321 0.534485
O O3 0.858361 0.663873 0.833150
O O4 0.000000 0.785915 0.833334
O O5 0.912309 0.705705 0.321606
O O6 0.894514 0.819961 0.099131
O O7 0.190846 0.564171 0.850501
O O8 0.242393 0.670118 0.451960
O O9 0.178786 0.511152 0.341144
O O10 0.562538 0.780489 0.577211
O O11 0.055533 0.055533 0.500000
#
# Coordination Sequence:
#
# PCOD9576669 Si02
#       6
#     3   6   6   6   6   3
#     4  10  24  41  67  94 128 162 228 266 330 372
#     4  11  22  40  65  90 129 157 212 256 318 363
#     4  11  23  41  64  95 125 171 211 274 317 394
#     4  11  23  42  64  95 124 169 207 270 314 388
#     4  11  23  40  65  91 128 164 216 255 328 378
#     4  10  26  39  65  94 122 168 208 262 308 382
#
# _framework density 21.97279
#
# number of rings (size 3 to 8) (size 9 to 14) (size 15 to 20)
#    0.000    1.200    2.000    3.600    5.600    7.200 
#    0.000    6.000    0.000    0.000    0.000    0.000 
#    0.000    0.000    0.000    0.000    0.000    0.000 
#
# Total GULP energy -167294.916144 kJ/mol
# GULP energy per Si atom -5576.497205 kJ/mol
# Density = 2.192278 g / cm^3
# Si number density = 21.972790 Si / 1000 Ang^3
#
#
#
# Elastic Constant Matrix: (Units=GPa)
#
#
# Indices 1 2 3 4 5 6 
#
# 1 132.0002 4.5015 13.5819 -22.9881 0.0001 0.0000
# 2 4.5015 132.0002 13.5819 22.9881 -0.0001 0.0000
# 3 13.5819 13.5819 102.0865 0.0000 0.0000 0.0000
# 4 -22.9881 22.9881 0.0000 31.2617 0.0000 -0.0001
# 5 0.0001 -0.0001 0.0000 0.0000 31.2617 -22.9881
# 6 0.0000 0.0000 0.0000 -0.0001 -22.9881 63.7493
#
#
#
# Elastic Compliance Matrix: (Units=1/GPa)
#
#
# Indices 1 2 3 4 5 6 
#
# 1 0.009099 -0.001574 -0.001001 0.007849 0.000000 0.000000
# 2 -0.001574 0.009099 -0.001001 -0.007849 0.000000 0.000000
# 3 -0.001001 -0.001001 0.010062 0.000000 0.000000 0.000000
# 4 0.007849 -0.007849 0.000000 0.043531 0.000000 0.000000
# 5 0.000000 0.000000 0.000000 0.000000 0.043531 0.015697
# 6 0.000000 0.000000 0.000000 0.000000 0.015697 0.021347
#
#
# Mechanical properties :
#
#
# Convention : Reuss Voigt Hill
#
# Bulk Modulus (GPa) = 47.37621 47.71304 47.54463
# Shear Modulus (GPa) = 33.14373 47.54933 40.34653
#
# Velocity S-wave (km/s) = 3.88802 4.65694 4.28974
# Velocity P-wave (km/s) = 6.46249 7.11884 6.79859
#
# Compressibility (1/GPa) = 0.02110764
#
# Stress axis : x y z
#
# Youngs Moduli (GPa) = 109.89854 109.89854 99.38375
#
# Poissons Ratio (x) = 0.17300 0.09950
# Poissons Ratio (y) = 0.17300 0.09950
# Poissons Ratio (z) = 0.11003 0.11003
#
# Static dielectric constant tensor:
#      x y z
#    x 1.882040 0.000000 0.000000 
#    y 0.000000 1.882040 0.000000 
#    z 0.000000 0.000000 1.843520 
# 
# From -- ./inp_files/373.got.cif
#   From: 2010.05.17/outbox.cif.g08.bks.cpg/sg154_1_cif.got.tgz:373.got - 2010.05.20 10:41:43.
