data_PCOD9576489
_publ_section_title
;
Structure prediction by ZEFSAII (Michael W. Deem and Ramdas Pophale) SiO2 
 PCOD9576489
Probable space group: P 32 2 1
;
_chemical_formula_sum "Si O2"
_cell_formula_units_Z 42
_cell_length_a 14.050194
_cell_length_b 14.050194
_cell_length_c 12.226500
_cell_angle_alpha 90.000000
_cell_angle_beta 90.000000
_cell_angle_gamma 120.000000
_cell_volume 2090.246118
_symmetry_space_group_name_H-M "P 32 2 1"
_symmetry_group_IT_number 154
_symmetry_cell_setting 'hexagonal'
loop_
_space_group_symop_operation_xyz
x,y,z
-y,x-y,2/3+z
-x+y,-x,1/3+z
x-y,-y,1/3-z
-x,-x+y,2/3-z
y,x,-z
loop_
_atom_site_type_symbol
_atom_site_label
_atom_site_fract_x
_atom_site_fract_y
_atom_site_fract_z
Si Si1 0.813372 0.916595 0.768782
Si Si2 0.755399 0.196073 0.005124
Si Si3 0.380667 0.564908 0.250355
Si Si4 0.885431 0.802878 0.598463
Si Si5 0.570057 0.313516 0.134361
Si Si6 0.412798 0.293519 0.945757
Si Si7 0.604774 0.111365 0.190686
O O1 0.862436 0.843850 0.715668
O O2 0.680955 0.859653 0.773249
O O3 0.844706 0.000000 0.666667
O O4 0.864766 0.990847 0.878571
O O5 0.813876 0.320926 0.054413
O O6 0.693688 0.117481 0.106109
O O7 0.831347 0.156729 0.947155
O O8 0.668782 0.191285 0.914181
O O9 0.282655 0.593461 0.239156
O O10 0.374889 0.501706 0.141138
O O11 0.360374 0.485443 0.351432
O O12 0.815165 0.815165 0.500000
O O13 0.590286 0.214017 0.163427
O O14 0.480798 0.276402 0.040506
O O15 0.353702 0.353702 0.000000
O O16 0.494201 0.000000 0.166667
#
# Coordination Sequence:
#
# PCOD9576489 Si02
#       7
#     6   6   6   6   6   6   6
#     4   9  20  37  63  89 121 158 209 266 313 368
#     4  10  20  37  63  87 125 157 206 254 316 383
#     4  10  22  39  58  87 128 164 203 257 319 389
#     4  10  20  39  65  91 125 158 218 264 311 382
#     4  10  20  39  61  85 120 166 204 246 314 385
#     4  11  22  38  64  90 123 161 211 259 317 378
#     4  10  22  35  58  87 122 161 203 249 316 380
#
# _framework density 20.093326000000001
#
# number of rings (size 3 to 8) (size 9 to 14) (size 15 to 20)
#    0.000    2.000    0.000    6.000    4.000    4.571 
#    2.571    3.571    0.000    0.000    0.000    0.000 
#    0.000    0.000    0.000    0.000    0.000    0.000 
#
# Total GULP energy -233882.768780 kJ/mol
# GULP energy per Si atom -5568.637352 kJ/mol
# Density = 2.004759 g / cm^3
# Si number density = 20.093326 Si / 1000 Ang^3
#
#
#
# Elastic Constant Matrix: (Units=GPa)
#
#
# Indices 1 2 3 4 5 6 
#
# 1 59.1178 -14.7383 12.1449 9.8985 -0.0003 0.0000
# 2 -14.7383 59.1178 12.1449 -9.8985 0.0003 0.0000
# 3 12.1449 12.1449 84.3676 0.0000 0.0000 0.0000
# 4 9.8985 -9.8985 0.0000 19.0258 0.0000 0.0003
# 5 -0.0003 0.0003 0.0000 0.0000 19.0258 9.8985
# 6 0.0000 0.0000 0.0000 0.0003 9.8985 36.9281
#
#
#
# Elastic Compliance Matrix: (Units=1/GPa)
#
#
# Indices 1 2 3 4 5 6 
#
# 1 0.020097 0.004363 -0.003521 -0.008186 0.000000 0.000000
# 2 0.004363 0.020097 -0.003521 0.008186 0.000000 0.000000
# 3 -0.003521 -0.003521 0.012867 0.000000 0.000000 0.000000
# 4 -0.008186 0.008186 0.000000 0.061078 0.000000 0.000000
# 5 0.000000 0.000000 0.000000 0.000000 0.061078 -0.016372
# 6 0.000000 0.000000 0.000000 0.000000 -0.016372 0.031468
#
#
# Mechanical properties :
#
#
# Convention : Reuss Voigt Hill
#
# Bulk Modulus (GPa) = 20.96328 24.63402 22.79865
# Shear Modulus (GPa) = 21.93519 27.86604 24.90061
#
# Velocity S-wave (km/s) = 3.30762 3.72806 3.52411
# Velocity P-wave (km/s) = 5.00427 5.55136 5.28490
#
# Compressibility (1/GPa) = 0.04770247
#
# Stress axis : x y z
#
# Youngs Moduli (GPa) = 49.75845 49.75845 77.72038
#
# Poissons Ratio (x) = -0.21710 0.27366
# Poissons Ratio (y) = -0.21710 0.27366
# Poissons Ratio (z) = 0.17520 0.17520
#
# Static dielectric constant tensor:
#      x y z
#    x 1.755670 0.000000 0.000000 
#    y 0.000000 1.755670 0.000000 
#    z 0.000000 0.000000 1.748950 
# 
# From -- ./inp_files/1729.got.cif
#   From: 2010.05.17/outbox.cif.g08.bks.cpg/sg154_1_cif.got.tgz:1729.got - 2010.05.20 10:41:43.
