data_PCOD9576624
_publ_section_title
;
Structure prediction by ZEFSAII (Michael W. Deem and Ramdas Pophale) SiO2 
 PCOD9576624
Probable space group: P 32 2 1
;
_chemical_formula_sum "Si O2"
_cell_formula_units_Z 39
_cell_length_a 9.046676
_cell_length_b 9.046676
_cell_length_c 27.236576
_cell_angle_alpha 90.000000
_cell_angle_beta 90.000000
_cell_angle_gamma 120.000000
_cell_volume 1930.461813
_symmetry_space_group_name_H-M "P 32 2 1"
_symmetry_group_IT_number 154
_symmetry_cell_setting 'hexagonal'
loop_
_space_group_symop_operation_xyz
x,y,z
-y,x-y,2/3+z
-x+y,-x,1/3+z
x-y,-y,1/3-z
-x,-x+y,2/3-z
y,x,-z
loop_
_atom_site_type_symbol
_atom_site_label
_atom_site_fract_x
_atom_site_fract_y
_atom_site_fract_z
Si Si1 0.915382 0.570425 0.541903
Si Si2 0.576509 0.234049 0.294452
Si Si3 0.507626 0.856152 0.272383
Si Si4 0.131621 0.000000 0.166667
Si Si5 0.956423 0.345974 0.276954
Si Si6 0.848639 0.997656 0.111523
Si Si7 0.576619 0.251817 0.790103
O O1 0.823728 0.528402 0.594338
O O2 0.864493 0.697999 0.515522
O O3 0.834650 0.400460 0.508834
O O4 0.119482 0.657407 0.544724
O O5 0.559692 0.282070 0.349845
O O6 0.773325 0.332530 0.277524
O O7 0.517667 0.034131 0.286812
O O8 0.695462 0.892979 0.257553
O O9 0.389750 0.767838 0.225318
O O10 0.042540 0.048755 0.122387
O O11 0.000000 0.331736 0.333334
O O12 0.104068 0.510896 0.250814
O O13 0.940753 0.190686 0.244317
O O14 0.781924 0.000000 0.166667
#
# Coordination Sequence:
#
# PCOD9576624 Si02
#       7
#     6   6   6   3   6   6   6
#     4  12  26  41  70  98 139 173 229 284 339 401
#     4  11  25  45  67 100 134 184 221 276 344 415
#     4  11  24  42  69  97 137 173 227 272 345 405
#     4  10  22  44  60 102 128 174 236 268 336 408
#     4  11  22  45  68  98 138 180 221 277 345 404
#     4   9  22  40  69  96 133 180 226 273 335 413
#     4  12  25  43  67 102 132 177 227 287 339 398
#
# _framework density 20.20242
#
# number of rings (size 3 to 8) (size 9 to 14) (size 15 to 20)
#    0.462    0.615    3.077    2.769   10.769    0.000 
#    2.769    0.000    0.000    0.000    0.000    0.000 
#    0.000    0.000    0.000    0.000    0.000    0.000 
#
# Total GULP energy -217804.655087 kJ/mol
# GULP energy per Si atom -5584.734746 kJ/mol
# Density = 2.015644 g / cm^3
# Si number density = 20.202420 Si / 1000 Ang^3
#
#
#
# Elastic Constant Matrix: (Units=GPa)
#
#
# Indices 1 2 3 4 5 6 
#
# 1 71.8898 24.1554 -0.0436 0.8145 0.0002 0.0000
# 2 24.1554 71.8898 -0.0436 -0.8145 -0.0002 0.0000
# 3 -0.0436 -0.0436 44.9988 0.0000 0.0000 0.0000
# 4 0.8145 -0.8145 0.0000 38.4594 0.0000 -0.0002
# 5 0.0002 -0.0002 0.0000 0.0000 38.4594 0.8145
# 6 0.0000 0.0000 0.0000 -0.0002 0.8145 23.8672
#
#
#
# Elastic Compliance Matrix: (Units=1/GPa)
#
#
# Indices 1 2 3 4 5 6 
#
# 1 0.015688 -0.005276 0.000010 -0.000444 0.000000 0.000000
# 2 -0.005276 0.015688 0.000010 0.000444 0.000000 0.000000
# 3 0.000010 0.000010 0.022223 0.000000 0.000000 0.000000
# 4 -0.000444 0.000444 0.000000 0.026020 0.000000 0.000000
# 5 0.000000 0.000000 0.000000 0.000000 0.026020 -0.000888
# 6 0.000000 0.000000 0.000000 0.000000 -0.000888 0.041929
#
#
# Mechanical properties :
#
#
# Convention : Reuss Voigt Hill
#
# Bulk Modulus (GPa) = 23.20903 26.32390 24.76647
# Shear Modulus (GPa) = 28.99510 31.13786 30.06648
#
# Velocity S-wave (km/s) = 3.79255 3.93019 3.86198
# Velocity P-wave (km/s) = 5.53996 5.80117 5.67207
#
# Compressibility (1/GPa) = 0.04308667
#
# Stress axis : x y z
#
# Youngs Moduli (GPa) = 63.74262 63.74262 44.99880
#
# Poissons Ratio (x) = 0.33633 -0.00045
# Poissons Ratio (y) = 0.33633 -0.00045
# Poissons Ratio (z) = -0.00064 -0.00064
#
# Static dielectric constant tensor:
#      x y z
#    x 1.716770 0.000000 0.000000 
#    y 0.000000 1.716770 0.000000 
#    z 0.000000 0.000000 1.738210 
# 
# From -- ./inp_files/3724.got.cif
#   From: 2010.05.17/outbox.cif.g08.bks.cpg/sg154_2_cif.got.tgz:3724.got - 2010.05.20 10:41:43.
