data_PCOD9576255
_publ_section_title
;
Structure prediction by ZEFSAII (Michael W. Deem and Ramdas Pophale) SiO2 
 PCOD9576255
Probable space group: P 32 1 2
;
_chemical_formula_sum "Si O2"
_cell_formula_units_Z 42
_cell_length_a 8.224128
_cell_length_b 8.224128
_cell_length_c 35.597875
_cell_angle_alpha 90.000000
_cell_angle_beta 90.000000
_cell_angle_gamma 120.000000
_cell_volume 2085.136197
_symmetry_space_group_name_H-M "P 32 1 2"
_symmetry_group_IT_number 153
_symmetry_cell_setting 'hexagonal'
loop_
_space_group_symop_operation_xyz
x,y,z
-y,x-y,2/3+z
-x+y,-x,1/3+z
-y,-x,1/3-z
-x+y,y,2/3-z
x,x-y,-z
loop_
_atom_site_type_symbol
_atom_site_label
_atom_site_fract_x
_atom_site_fract_y
_atom_site_fract_z
Si Si1 0.602521 0.786490 0.660435
Si Si2 0.421579 0.518749 0.487997
Si Si3 0.662996 0.682763 0.417207
Si Si4 0.473916 0.203242 0.301205
Si Si5 0.659133 0.055774 0.441797
Si Si6 0.396495 0.003748 0.934896
Si Si7 0.588208 0.961147 0.868032
O O1 0.404145 0.595856 0.666667
O O2 0.593677 0.908742 0.625513
O O3 0.753897 0.722674 0.649393
O O4 0.644579 0.890806 0.699895
O O5 0.425232 0.712616 0.500000
O O6 0.526522 0.539484 0.448766
O O7 0.522851 0.492804 0.523871
O O8 0.204335 0.380004 0.479939
O O9 0.840129 0.650501 0.414141
O O10 0.685747 0.877130 0.433775
O O11 0.621912 0.243823 0.333334
O O12 0.509559 0.112066 0.263956
O O13 0.500540 0.401383 0.289098
O O14 0.864099 0.225141 0.450743
O O15 0.427529 0.893764 0.900460
O O16 0.513539 0.027077 0.833334
#
# Coordination Sequence:
#
# PCOD9576255 Si02
#       7
#     6   6   6   6   6   6   6
#     4  10  20  35  54  78 109 145 188 231 281 345
#     4   9  18  34  57  81 111 148 184 226 286 342
#     4  10  19  34  56  78 109 147 181 231 289 336
#     4   9  19  35  54  78 110 144 184 229 277 337
#     4   9  19  35  55  82 113 147 187 236 281 337
#     4  11  21  36  58  83 111 147 190 237 291 341
#     4  10  20  35  58  84 110 146 190 230 280 346
#
# _framework density 20.142567
#
# number of rings (size 3 to 8) (size 9 to 14) (size 15 to 20)
#    0.000    2.286    0.000    3.000    0.000    3.429 
#    0.000    8.571    0.000   26.571    0.000    0.000 
#    0.000    0.000    0.000    0.000    0.000    0.000 
#
# Total GULP energy -233959.089760 kJ/mol
# GULP energy per Si atom -5570.454518 kJ/mol
# Density = 2.009672 g / cm^3
# Si number density = 20.142567 Si / 1000 Ang^3
#
#
#
# Elastic Constant Matrix: (Units=GPa)
#
#
# Indices 1 2 3 4 5 6 
#
# 1 45.2175 12.2146 30.4931 -0.0006 0.2826 0.0000
# 2 12.2146 45.2175 30.4931 0.0006 -0.2826 0.0000
# 3 30.4931 30.4931 107.5365 0.0000 0.0000 0.0000
# 4 -0.0006 0.0006 0.0000 29.7100 0.0000 -0.2826
# 5 0.2826 -0.2826 0.0000 0.0000 29.7100 -0.0006
# 6 0.0000 0.0000 0.0000 -0.2826 -0.0006 16.5015
#
#
#
# Elastic Compliance Matrix: (Units=1/GPa)
#
#
# Indices 1 2 3 4 5 6 
#
# 1 0.027609 -0.002696 -0.007065 0.000001 -0.000288 0.000000
# 2 -0.002696 0.027609 -0.007065 -0.000001 0.000288 0.000000
# 3 -0.007065 -0.007065 0.013306 0.000000 0.000000 0.000000
# 4 0.000001 -0.000001 0.000000 0.033664 0.000000 0.000576
# 5 -0.000288 0.000288 0.000000 0.000000 0.033664 0.000001
# 6 0.000000 0.000000 0.000000 0.000576 0.000001 0.060611
#
#
# Mechanical properties :
#
#
# Convention : Reuss Voigt Hill
#
# Bulk Modulus (GPa) = 28.67406 38.26367 33.46887
# Shear Modulus (GPa) = 20.68355 23.50234 22.09295
#
# Velocity S-wave (km/s) = 3.20794 3.41955 3.31543
# Velocity P-wave (km/s) = 5.29033 5.88462 5.59537
#
# Compressibility (1/GPa) = 0.03487472
#
# Stress axis : x y z
#
# Youngs Moduli (GPa) = 36.21951 36.21951 75.15630
#
# Poissons Ratio (x) = 0.09764 0.53094
# Poissons Ratio (y) = 0.09764 0.53094
# Poissons Ratio (z) = 0.25587 0.25587
#
# Static dielectric constant tensor:
#      x y z
#    x 1.736030 0.000000 0.000000 
#    y 0.000000 1.736030 0.000000 
#    z 0.000000 0.000000 1.743230 
# 
# From -- ./inp_files/5155.got.cif
#   From: 2010.05.17/outbox.cif.g08.bks.cpg/sg153_3_cif.got.tgz:5155.got - 2010.05.20 10:38:56.
