data_PCOD9576024
_publ_section_title
;
Structure prediction by ZEFSAII (Michael W. Deem and Ramdas Pophale) SiO2 
 PCOD9576024
Probable space group: P 31 2 1
;
_chemical_formula_sum "Si O2"
_cell_formula_units_Z 42
_cell_length_a 8.713877
_cell_length_b 8.713877
_cell_length_c 29.699944
_cell_angle_alpha 90.000000
_cell_angle_beta 90.000000
_cell_angle_gamma 120.000000
_cell_volume 1953.030893
_symmetry_space_group_name_H-M "P 31 2 1"
_symmetry_group_IT_number 152
_symmetry_cell_setting 'hexagonal'
loop_
_space_group_symop_operation_xyz
x,y,z
-y,x-y,1/3+z
-x+y,-x,2/3+z
x-y,-y,2/3-z
-x,-x+y,1/3-z
y,x,-z
loop_
_atom_site_type_symbol
_atom_site_label
_atom_site_fract_x
_atom_site_fract_y
_atom_site_fract_z
Si Si1 0.448558 0.674630 0.091693
Si Si2 0.240911 0.899346 0.290026
Si Si3 0.384933 0.384933 0.500000
Si Si4 0.276870 0.518047 0.186712
Si Si5 0.193393 0.101874 0.567440
Si Si6 0.116375 0.000000 0.833334
Si Si7 0.040239 0.468490 0.934407
Si Si8 0.203109 0.709071 0.671803
O O1 0.625653 0.668571 0.079548
O O2 0.391218 0.627001 0.143215
O O3 0.468762 0.858631 0.074090
O O4 0.302220 0.530912 0.058139
O O5 0.345868 0.807760 0.311949
O O6 0.052582 0.800553 0.266408
O O7 0.222474 0.000000 0.333334
O O8 0.432069 0.557257 0.528441
O O9 0.334795 0.212004 0.528605
O O10 0.171615 0.309416 0.174338
O O11 0.394941 0.564147 0.230658
O O12 0.261776 0.984882 0.590594
O O13 0.006149 0.982944 0.543051
O O14 0.125412 0.499764 0.983673
O O15 0.000000 0.670500 0.666667
#
# Coordination Sequence:
#
# PCOD9576024 Si02
#       8
#     6   6   3   6   6   3   6   6
#     4  10  23  42  66  93 130 170 213 257 321 380
#     4   9  21  42  63  85 127 173 209 259 316 378
#     4  10  22  42  58  88 132 162 202 260 316 374
#     4  11  24  43  64  94 128 172 208 264 318 380
#     4  11  23  38  62  96 125 163 214 263 316 379
#     4  10  26  40  60  96 128 164 208 264 324 366
#     4  12  25  39  70  97 122 168 215 261 319 378
#     4   9  23  45  64  91 127 172 211 260 318 377
#
# _framework density 21.505036
#
# number of rings (size 3 to 8) (size 9 to 14) (size 15 to 20)
#    0.000    2.000    1.429    1.714   10.000    2.857 
#    5.143    0.000    0.000    0.000    0.000    0.000 
#    0.000    0.000    0.000    0.000    0.000    0.000 
#
# Total GULP energy -234405.564929 kJ/mol
# GULP energy per Si atom -5581.084879 kJ/mol
# Density = 2.145609 g / cm^3
# Si number density = 21.505036 Si / 1000 Ang^3
#
#
#
# Elastic Constant Matrix: (Units=GPa)
#
#
# Indices 1 2 3 4 5 6 
#
# 1 40.5330 8.1727 -10.0402 8.6055 -0.0002 0.0000
# 2 8.1727 40.5330 -10.0402 -8.6055 0.0002 0.0000
# 3 -10.0402 -10.0402 29.6569 0.0000 0.0000 0.0000
# 4 8.6055 -8.6055 0.0000 27.3071 0.0000 0.0002
# 5 -0.0002 0.0002 0.0000 0.0000 27.3071 8.6055
# 6 0.0000 0.0000 0.0000 0.0002 8.6055 16.1802
#
#
#
# Elastic Compliance Matrix: (Units=1/GPa)
#
#
# Indices 1 2 3 4 5 6 
#
# 1 0.030493 -0.006631 0.008078 -0.011699 0.000000 0.000000
# 2 -0.006631 0.030493 0.008078 0.011699 0.000000 0.000000
# 3 0.008078 0.008078 0.039189 0.000000 0.000000 0.000000
# 4 -0.011699 0.011699 0.000000 0.043994 0.000000 0.000000
# 5 0.000000 0.000000 0.000000 0.000000 0.043994 -0.023399
# 6 0.000000 0.000000 0.000000 0.000000 -0.023399 0.074249
#
#
# Mechanical properties :
#
#
# Convention : Reuss Voigt Hill
#
# Bulk Modulus (GPa) = 8.38742 9.65640 9.02191
# Shear Modulus (GPa) = 17.66138 22.33424 19.99781
#
# Velocity S-wave (km/s) = 2.86888 3.22616 3.05276
# Velocity P-wave (km/s) = 3.85781 4.28690 4.07800
#
# Compressibility (1/GPa) = 0.11922618
#
# Stress axis : x y z
#
# Youngs Moduli (GPa) = 32.79420 32.79420 25.51753
#
# Poissons Ratio (x) = 0.21746 -0.20614
# Poissons Ratio (y) = 0.21746 -0.20614
# Poissons Ratio (z) = -0.26492 -0.26492
#
# Static dielectric constant tensor:
#      x y z
#    x 1.807760 0.000000 0.000000 
#    y 0.000000 1.807760 0.000000 
#    z 0.000000 0.000000 1.808580 
# 
# From -- ./inp_files/3761.got.cif
#   From: 2010.05.17/outbox.cif.g08.bks.cpg/sg152_2_cif.got.tgz:3761.got - 2010.05.20 10:36:06.
