data_PCOD9576165
_publ_section_title
;
Structure prediction by ZEFSAII (Michael W. Deem and Ramdas Pophale) SiO2 
 PCOD9576165
Probable space group: P 31 2 1
;
_chemical_formula_sum "Si O2"
_cell_formula_units_Z 18
_cell_length_a 11.417712
_cell_length_b 11.417712
_cell_length_c 7.391227
_cell_angle_alpha 90.000000
_cell_angle_beta 90.000000
_cell_angle_gamma 120.000000
_cell_volume 834.459649
_symmetry_space_group_name_H-M "P 31 2 1"
_symmetry_group_IT_number 152
_symmetry_cell_setting 'hexagonal'
loop_
_space_group_symop_operation_xyz
x,y,z
-y,x-y,1/3+z
-x+y,-x,2/3+z
x-y,-y,2/3-z
-x,-x+y,1/3-z
y,x,-z
loop_
_atom_site_type_symbol
_atom_site_label
_atom_site_fract_x
_atom_site_fract_y
_atom_site_fract_z
Si Si1 0.872512 0.287835 0.481154
Si Si2 0.852364 0.150954 0.857615
Si Si3 0.325015 0.438491 0.129653
O O1 0.822268 0.205660 0.670300
O O2 0.922639 0.444872 0.507909
O O3 0.758457 0.243085 0.329529
O O4 0.996931 0.265853 0.425140
O O5 0.828912 0.000000 0.833334
O O6 0.749741 0.134029 0.015574
O O7 0.324692 0.324692 0.000000
#
# Coordination Sequence:
#
# PCOD9576165 Si02
#       3
#     6   6   6
#     4  11  27  46  68 112 141 192 243 294 370 433
#     4  11  24  47  72 101 149 185 238 300 356 431
#     4  12  25  44  72 106 142 184 248 296 365 428
#
# _framework density 21.570844999999998
#
# number of rings (size 3 to 8) (size 9 to 14) (size 15 to 20)
#    0.000    0.667    6.667    1.000    4.667    2.667 
#    6.000    0.000    0.000    0.000    0.000    0.000 
#    0.000    0.000    0.000    0.000    0.000    0.000 
#
# Total GULP energy -100479.493874 kJ/mol
# GULP energy per Si atom -5582.194104 kJ/mol
# Density = 2.152175 g / cm^3
# Si number density = 21.570845 Si / 1000 Ang^3
#
#
#
# Elastic Constant Matrix: (Units=GPa)
#
#
# Indices 1 2 3 4 5 6 
#
# 1 77.3019 24.2818 36.8988 -7.0336 0.0001 0.0000
# 2 24.2818 77.3019 36.8988 7.0336 -0.0001 0.0000
# 3 36.8988 36.8988 79.3302 0.0000 0.0000 0.0000
# 4 -7.0336 7.0336 0.0000 31.8110 0.0000 -0.0001
# 5 0.0001 -0.0001 0.0000 0.0000 31.8110 -7.0336
# 6 0.0000 0.0000 0.0000 -0.0001 -7.0336 26.5101
#
#
#
# Elastic Compliance Matrix: (Units=1/GPa)
#
#
# Indices 1 2 3 4 5 6 
#
# 1 0.017452 -0.002584 -0.006916 0.004430 0.000000 0.000000
# 2 -0.002584 0.017452 -0.006916 -0.004430 0.000000 0.000000
# 3 -0.006916 -0.006916 0.019039 0.000000 0.000000 0.000000
# 4 0.004430 -0.004430 0.000000 0.033395 0.000000 0.000000
# 5 0.000000 0.000000 0.000000 0.000000 0.033395 0.008860
# 6 0.000000 0.000000 0.000000 0.000000 0.008860 0.040072
#
#
# Mechanical properties :
#
#
# Convention : Reuss Voigt Hill
#
# Bulk Modulus (GPa) = 47.36497 47.78809 47.57653
# Shear Modulus (GPa) = 24.91623 27.08341 25.99982
#
# Velocity S-wave (km/s) = 3.40235 3.54723 3.47554
# Velocity P-wave (km/s) = 6.11884 6.24333 6.18140
#
# Compressibility (1/GPa) = 0.02111265
#
# Stress axis : x y z
#
# Youngs Moduli (GPa) = 57.29976 57.29976 52.52436
#
# Poissons Ratio (x) = 0.14806 0.36324
# Poissons Ratio (y) = 0.14806 0.36324
# Poissons Ratio (z) = 0.39626 0.39626
#
# Static dielectric constant tensor:
#      x y z
#    x 1.849190 0.000000 0.000000 
#    y 0.000000 1.849190 0.000000 
#    z 0.000000 0.000000 1.817820 
# 
# From -- ./inp_files/836.got.cif
#   From: 2010.05.17/outbox.cif.g08.bks.cpg/sg152_1_cif.got.tgz:836.got - 2010.05.20 10:36:06.
