data_PCOD9576313
_publ_section_title
;
Structure prediction by ZEFSAII (Michael W. Deem and Ramdas Pophale) SiO2 
 PCOD9576313
Probable space group: P 32 1 2
;
_chemical_formula_sum "Si O2"
_cell_formula_units_Z 48
_cell_length_a 15.794044
_cell_length_b 15.794044
_cell_length_c 11.040995
_cell_angle_alpha 90.000000
_cell_angle_beta 90.000000
_cell_angle_gamma 120.000000
_cell_volume 2385.204017
_symmetry_space_group_name_H-M "P 32 1 2"
_symmetry_group_IT_number 153
_symmetry_cell_setting 'hexagonal'
loop_
_space_group_symop_operation_xyz
x,y,z
-y,x-y,2/3+z
-x+y,-x,1/3+z
-y,-x,1/3-z
-x+y,y,2/3-z
x,x-y,-z
loop_
_atom_site_type_symbol
_atom_site_label
_atom_site_fract_x
_atom_site_fract_y
_atom_site_fract_z
Si Si1 0.876325 0.576437 0.292561
Si Si2 0.910722 0.910735 0.206915
Si Si3 0.352614 0.518063 0.778233
Si Si4 0.023864 0.677166 0.944822
Si Si5 0.657371 0.022055 0.885062
Si Si6 0.138901 0.296437 0.468053
Si Si7 0.883844 0.160301 0.910188
Si Si8 0.486551 0.473558 0.438516
O O1 0.763672 0.527343 0.333334
O O2 0.938433 0.602463 0.416120
O O3 0.893142 0.668717 0.210446
O O4 0.910042 0.511318 0.219812
O O5 0.949201 0.898402 0.333334
O O6 0.796872 0.873218 0.217908
O O7 0.922099 0.836907 0.116035
O O8 0.977858 0.022143 0.166667
O O9 0.406628 0.593373 0.666667
O O10 0.262694 0.525387 0.833334
O O11 0.317873 0.411081 0.721254
O O12 0.434701 0.531283 0.875729
O O13 0.097451 0.751136 0.844458
O O14 0.973423 0.571843 0.882316
O O15 0.945694 0.706645 0.988400
O O16 0.768018 0.091782 0.935753
O O17 0.638634 0.912495 0.870039
O O18 0.581409 0.024551 0.978174
O O19 0.127596 0.255191 0.333334
#
# Coordination Sequence:
#
# PCOD9576313 Si02
#       8
#     6   6   6   6   6   6   6   6
#     4  10  21  40  67  92 126 162 213 277 320 386
#     4  11  22  37  57  92 131 173 211 257 310 369
#     4  10  24  45  64  96 129 173 224 275 331 394
#     4  11  23  40  69  91 128 176 214 264 330 396
#     4  10  22  40  64  96 125 172 216 264 333 386
#     4  11  22  39  57  92 132 165 216 260 311 392
#     4  10  21  39  64  94 128 169 217 262 315 390
#     4  11  22  43  67  92 129 168 219 268 337 391
#
# _framework density 20.124065999999999
#
# number of rings (size 3 to 8) (size 9 to 14) (size 15 to 20)
#    0.000    1.500    2.500    3.375    1.750    3.000 
#    4.500    0.000   11.000    0.000    0.000    0.000 
#    0.000    0.000    0.000    0.000    0.000    0.000 
#
# Total GULP energy -268040.792782 kJ/mol
# GULP energy per Si atom -5584.183183 kJ/mol
# Density = 2.007826 g / cm^3
# Si number density = 20.124066 Si / 1000 Ang^3
#
#
#
# Elastic Constant Matrix: (Units=GPa)
#
#
# Indices 1 2 3 4 5 6 
#
# 1 68.9649 26.8541 13.5154 0.0001 -4.2591 0.0000
# 2 26.8541 68.9649 13.5154 -0.0001 4.2591 0.0000
# 3 13.5154 13.5154 53.9320 0.0000 0.0000 0.0000
# 4 0.0001 -0.0001 0.0000 32.3219 0.0000 4.2591
# 5 -4.2591 4.2591 0.0000 0.0000 32.3219 0.0001
# 6 0.0000 0.0000 0.0000 4.2591 0.0001 21.0554
#
#
#
# Elastic Compliance Matrix: (Units=1/GPa)
#
#
# Indices 1 2 3 4 5 6 
#
# 1 0.017814 -0.006583 -0.002814 0.000000 0.003215 0.000000
# 2 -0.006583 0.017814 -0.002814 0.000000 -0.003215 0.000000
# 3 -0.002814 -0.002814 0.019952 0.000000 0.000000 0.000000
# 4 0.000000 0.000000 0.000000 0.031786 0.000000 -0.006430
# 5 0.003215 -0.003215 0.000000 0.000000 0.031786 0.000000
# 6 0.000000 0.000000 0.000000 -0.006430 0.000000 0.048794
#
#
# Mechanical properties :
#
#
# Convention : Reuss Voigt Hill
#
# Bulk Modulus (GPa) = 32.09684 33.29239 32.69462
# Shear Modulus (GPa) = 24.66022 26.33829 25.49926
#
# Velocity S-wave (km/s) = 3.50438 3.62165 3.56350
# Velocity P-wave (km/s) = 5.68844 5.83678 5.76309
#
# Compressibility (1/GPa) = 0.03115571
#
# Stress axis : x y z
#
# Youngs Moduli (GPa) = 56.13649 56.13649 50.11925
#
# Poissons Ratio (x) = 0.36957 0.14105
# Poissons Ratio (y) = 0.36957 0.14105
# Poissons Ratio (z) = 0.15799 0.15799
#
# Static dielectric constant tensor:
#      x y z
#    x 1.712750 0.000000 0.000000 
#    y 0.000000 1.712750 0.000000 
#    z 0.000000 0.000000 1.752430 
# 
# From -- ./inp_files/2698.got.cif
#   From: 2010.05.17/outbox.cif.g08.bks.cpg/sg153_2_cif.got.tgz:2698.got - 2010.05.20 10:38:56.
