data_PCOD9576633
_publ_section_title
;
Structure prediction by ZEFSAII (Michael W. Deem and Ramdas Pophale) SiO2 
 PCOD9576633
Probable space group: P 32 2 1
;
_chemical_formula_sum "Si O2"
_cell_formula_units_Z 30
_cell_length_a 7.724336
_cell_length_b 7.724336
_cell_length_c 22.242533
_cell_angle_alpha 90.000000
_cell_angle_beta 90.000000
_cell_angle_gamma 120.000000
_cell_volume 1149.310009
_symmetry_space_group_name_H-M "P 32 2 1"
_symmetry_group_IT_number 154
_symmetry_cell_setting 'hexagonal'
loop_
_space_group_symop_operation_xyz
x,y,z
-y,x-y,2/3+z
-x+y,-x,1/3+z
x-y,-y,1/3-z
-x,-x+y,2/3-z
y,x,-z
loop_
_atom_site_type_symbol
_atom_site_label
_atom_site_fract_x
_atom_site_fract_y
_atom_site_fract_z
Si Si1 0.487969 0.868205 0.116123
Si Si2 0.119878 0.198135 0.128127
Si Si3 0.748761 0.386250 0.009797
Si Si4 0.305496 0.059242 0.038330
Si Si5 0.907159 0.465480 0.138135
O O1 0.387577 0.008959 0.234945
O O2 0.008586 0.673574 0.172788
O O3 0.645152 0.000000 0.166667
O O4 0.384178 0.663062 0.151088
O O5 0.157202 0.132249 0.062460
O O6 0.997533 0.000000 0.166667
O O7 0.017609 0.336894 0.128826
O O8 0.814071 0.527654 0.951036
O O9 0.859992 0.254250 0.999938
O O10 0.511504 0.240960 0.011786
O O11 0.829991 0.491334 0.073307
#
# Coordination Sequence:
#
# PCOD9576633 Si02
#       5
#     6   6   6   6   6
#     4  10  22  45  77 107 158 211 256 340 405 478
#     4  12  30  47  82 119 158 214 268 338 409 490
#     4  10  24  42  81 110 155 211 260 335 410 485
#     4  10  24  45  75 110 158 202 267 332 407 487
#     4  12  26  50  78 115 161 214 276 331 419 491
#
# _framework density 26.102613999999999
#
# number of rings (size 3 to 8) (size 9 to 14) (size 15 to 20)
#    1.200    0.000    2.000    2.400    8.400    0.800 
#    0.000    3.000    4.400    0.000    0.000    0.000 
#    0.000    0.000    0.000    0.000    0.000    0.000 
#
# Total GULP energy -167312.971565 kJ/mol
# GULP energy per Si atom -5577.099052 kJ/mol
# Density = 2.604320 g / cm^3
# Si number density = 26.102614 Si / 1000 Ang^3
#
#
#
# Elastic Constant Matrix: (Units=GPa)
#
#
# Indices 1 2 3 4 5 6 
#
# 1 90.3307 24.7907 15.3440 -8.2871 -0.0004 0.0000
# 2 24.7907 90.3307 15.3440 8.2871 0.0004 0.0000
# 3 15.3440 15.3440 189.7728 0.0000 0.0000 0.0000
# 4 -8.2871 8.2871 0.0000 14.3686 0.0000 0.0004
# 5 -0.0004 0.0004 0.0000 0.0000 14.3686 -8.2871
# 6 0.0000 0.0000 0.0000 0.0004 -8.2871 32.7700
#
#
#
# Elastic Compliance Matrix: (Units=1/GPa)
#
#
# Indices 1 2 3 4 5 6 
#
# 1 0.013371 -0.004493 -0.000718 0.010303 0.000000 0.000000
# 2 -0.004493 0.013371 -0.000718 -0.010303 0.000000 0.000000
# 3 -0.000718 -0.000718 0.005386 0.000000 0.000000 0.000000
# 4 0.010303 -0.010303 0.000000 0.081480 0.000000 -0.000001
# 5 0.000000 0.000000 0.000000 0.000000 0.081480 0.020605
# 6 0.000000 0.000000 0.000000 -0.000001 0.020605 0.035727
#
#
# Mechanical properties :
#
#
# Convention : Reuss Voigt Hill
#
# Bulk Modulus (GPa) = 49.33414 53.48796 51.41105
# Shear Modulus (GPa) = 20.04594 33.29848 26.67221
#
# Velocity S-wave (km/s) = 2.77423 3.57554 3.20006
# Velocity P-wave (km/s) = 5.40397 6.13040 5.77861
#
# Compressibility (1/GPa) = 0.02026994
#
# Stress axis : x y z
#
# Youngs Moduli (GPa) = 74.79130 74.79130 185.68257
#
# Poissons Ratio (x) = 0.33602 0.13329
# Poissons Ratio (y) = 0.33602 0.13329
# Poissons Ratio (z) = 0.05369 0.05369
#
# Static dielectric constant tensor:
#      x y z
#    x 2.052090 0.000000 0.000000 
#    y 0.000000 2.052090 0.000000 
#    z 0.000000 0.000000 2.087180 
# 
# From -- ./inp_files/3593.got.cif
#   From: 2010.05.17/outbox.cif.g08.bks.cpg/sg154_2_cif.got.tgz:3593.got - 2010.05.20 10:41:43.
