data_PCOD9576820
_publ_section_title
;
Structure prediction by ZEFSAII (Michael W. Deem and Ramdas Pophale) SiO2 
 PCOD9576820
Probable space group: R 3 2
;
_chemical_formula_sum "Si O2"
_cell_formula_units_Z 144
_cell_length_a 29.848593
_cell_length_b 29.848593
_cell_length_c 10.289241
_cell_angle_alpha 90.000000
_cell_angle_beta 90.000000
_cell_angle_gamma 120.000000
_cell_volume 7938.925011
_symmetry_space_group_name_H-M "R 3 2"
_symmetry_group_IT_number 155
_symmetry_cell_setting 'hexagonal'
loop_
_space_group_symop_operation_xyz
x,y,z
-y,x-y,z
-x+y,-x,z
x-y,-y,-z
-x,-x+y,-z
y,x,-z
2/3+x,1/3+y,1/3+z
2/3-y,1/3+x-y,1/3+z
2/3-x+y,1/3-x,1/3+z
2/3+x-y,1/3-y,1/3-z
2/3-x,1/3-x+y,1/3-z
2/3+y,1/3+x,1/3-z
1/3+x,2/3+y,2/3+z
1/3-y,2/3+x-y,2/3+z
1/3-x+y,2/3-x,2/3+z
1/3+x-y,2/3-y,2/3-z
1/3-x,2/3-x+y,2/3-z
1/3+y,2/3+x,2/3-z
loop_
_atom_site_type_symbol
_atom_site_label
_atom_site_fract_x
_atom_site_fract_y
_atom_site_fract_z
Si Si1 0.849807 0.394810 0.828252
Si Si2 0.816859 0.878335 0.005081
Si Si3 0.631946 0.807446 0.712740
Si Si4 0.824499 0.192554 0.787258
Si Si5 0.604567 0.395153 0.577331
Si Si6 0.944789 0.701301 0.045201
Si Si7 0.055208 0.756511 0.454791
Si Si8 0.395152 0.604566 0.922666
O O1 0.826393 0.333334 0.833334
O O2 0.910926 0.423701 0.851011
O O3 0.831229 0.408225 0.694345
O O4 0.822051 0.407568 0.944151
O O5 0.755740 0.846107 0.982323
O O6 0.844615 0.918849 0.889183
O O7 0.840272 0.840272 0.000000
O O8 0.835436 0.910329 0.138987
O O9 0.666667 0.808065 0.833334
O O10 0.666668 0.823766 0.583333
O O11 0.617392 0.852022 0.744790
O O12 0.858601 0.191935 0.666667
O O13 0.765368 0.147976 0.755201
O O14 0.666667 0.417466 0.583332
O O15 0.573705 0.333333 0.583331
O O16 0.944794 0.666667 0.166667
O O17 0.925676 0.666665 0.916666
O O18 0.000000 0.747525 0.000000
O O19 0.055203 0.721870 0.333334
O O20 0.000000 0.747528 0.500000
#
# Coordination Sequence:
#
# PCOD9576820 Si02
#       8
#    18  18  18  18  18  18  18  18
#     4  10  21  37  57  81 108 143 184 228 280 332
#     4  10  21  37  57  81 108 143 184 228 280 332
#     4  10  21  37  55  77 104 137 176 221 276 327
#     4  10  21  37  55  77 104 137 176 221 276 327
#     4  10  20  34  54  82 117 153 187 221 262 316
#     4  10  19  30  46  68  97 133 170 206 245 293
#     4  10  19  30  46  68  97 133 170 206 245 293
#     4  10  20  34  54  82 117 153 187 221 262 316
#
# _framework density 18.138476000000001
#
# number of rings (size 3 to 8) (size 9 to 14) (size 15 to 20)
#    0.000    2.000    0.000    4.000    0.000    2.000 
#    0.000    2.500    0.000    1.500    0.000    0.000 
#    0.000    0.000    0.000    0.000    0.000    0.000 
#
# Total GULP energy -267814.670778 kJ/mol
# GULP energy per Si atom -5579.472308 kJ/mol
# Density = 1.809719 g / cm^3
# Si number density = 18.138476 Si / 1000 Ang^3
#
#
#
# Elastic Constant Matrix: (Units=GPa)
#
#
# Indices 1 2 3 4 5 6 
#
# 1 72.1322 48.3510 29.0569 3.4095 -0.0308 -0.0053
# 2 48.3510 72.1569 29.0930 -3.4208 0.0109 0.0049
# 3 29.0569 29.0930 110.7878 -0.0262 -0.0532 -0.0195
# 4 3.4095 -3.4208 -0.0262 15.0783 -0.0258 0.0066
# 5 -0.0308 0.0109 -0.0532 -0.0258 15.0473 3.4201
# 6 -0.0053 0.0049 -0.0195 0.0066 3.4201 11.9150
#
#
#
# Elastic Compliance Matrix: (Units=1/GPa)
#
#
# Indices 1 2 3 4 5 6 
#
# 1 0.027228 -0.017724 -0.002489 -0.010182 0.000040 0.000009
# 2 -0.017724 0.027225 -0.002498 0.010180 -0.000044 -0.000016
# 3 -0.002489 -0.002498 0.010335 0.000014 0.000032 0.000008
# 4 -0.010182 0.010180 0.000014 0.070932 0.000112 -0.000080
# 5 0.000040 -0.000044 0.000032 0.000112 0.071096 -0.020408
# 6 0.000009 -0.000016 0.000008 -0.000080 -0.020408 0.089786
#
#
# Mechanical properties :
#
#
# Convention : Reuss Voigt Hill
#
# Bulk Modulus (GPa) = 51.63951 52.00875 51.82413
# Shear Modulus (GPa) = 14.34797 18.31319 16.33058
#
# Velocity S-wave (km/s) = 2.81557 3.18092 3.00380
# Velocity P-wave (km/s) = 6.25310 6.49818 6.37682
#
# Compressibility (1/GPa) = 0.01936502
#
# Stress axis : x y z
#
# Youngs Moduli (GPa) = 36.72668 36.73062 96.75634
#
# Poissons Ratio (x) = 0.65102 0.24085
# Poissons Ratio (y) = 0.65095 0.24174
# Poissons Ratio (z) = 0.09142 0.09177
#
# Static dielectric constant tensor:
#      x y z
#    x 1.624310 0.000000 -0.000010 
#    y 0.000000 1.624320 0.000000 
#    z -0.000010 0.000000 1.636540 
# 
# From -- ./inp_files/3051.got.cif
#   From: 2010.05.17/outbox.cif.g08.bks.cpg/sg155_2_cif.got.tgz:3051.got - 2010.05.20 10:44:35.
