data_PCOD9576580
_publ_section_title
;
Structure prediction by ZEFSAII (Michael W. Deem and Ramdas Pophale) SiO2 
 PCOD9576580
Probable space group: P 32 2 1
;
_chemical_formula_sum "Si O2"
_cell_formula_units_Z 42
_cell_length_a 9.076374
_cell_length_b 9.076374
_cell_length_c 29.245528
_cell_angle_alpha 90.000000
_cell_angle_beta 90.000000
_cell_angle_gamma 120.000000
_cell_volume 2086.483066
_symmetry_space_group_name_H-M "P 32 2 1"
_symmetry_group_IT_number 154
_symmetry_cell_setting 'hexagonal'
loop_
_space_group_symop_operation_xyz
x,y,z
-y,x-y,2/3+z
-x+y,-x,1/3+z
x-y,-y,1/3-z
-x,-x+y,2/3-z
y,x,-z
loop_
_atom_site_type_symbol
_atom_site_label
_atom_site_fract_x
_atom_site_fract_y
_atom_site_fract_z
Si Si1 0.541548 0.219682 0.082408
Si Si2 0.257237 0.555821 0.493705
Si Si3 0.282809 0.802034 0.657369
Si Si4 0.762866 0.003969 0.925920
Si Si5 0.080577 0.896817 0.212902
Si Si6 0.836150 0.379787 0.927370
Si Si7 0.354012 0.116196 0.829439
O O1 0.672143 0.238872 0.122155
O O2 0.634191 0.371171 0.046968
O O3 0.379128 0.218369 0.105928
O O4 0.459943 0.034052 0.059823
O O5 0.376528 0.545697 0.455312
O O6 0.273712 0.739140 0.486012
O O7 0.063964 0.404981 0.488255
O O8 0.252348 0.692544 0.702771
O O9 0.106280 0.777798 0.636959
O O10 0.405338 0.000000 0.666667
O O11 0.751096 0.175429 0.924247
O O12 0.964335 0.078190 0.918197
O O13 0.679459 0.874971 0.883135
O O14 0.886083 0.788396 0.198459
O O15 0.177914 0.000000 0.166667
#
# Coordination Sequence:
#
# PCOD9576580 Si02
#       7
#     6   6   6   6   6   6   6
#     4  11  23  44  66  97 131 173 221 271 331 399
#     4  12  23  38  69 101 132 169 222 278 336 399
#     4  12  26  43  66  95 133 180 227 272 328 401
#     4  10  21  44  64  92 134 176 216 272 332 390
#     4   9  20  39  67  94 133 170 218 275 337 394
#     4  11  25  43  68  95 133 178 220 274 335 399
#     4  11  22  37  64 105 132 169 216 281 337 393
#
# _framework density 20.129567000000002
#
# number of rings (size 3 to 8) (size 9 to 14) (size 15 to 20)
#    0.000    1.143    1.429    6.429    2.000    4.571 
#    0.000    2.857    0.000    0.000    0.000    0.000 
#    0.000    0.000    0.000    0.000    0.000    0.000 
#
# Total GULP energy -234696.632900 kJ/mol
# GULP energy per Si atom -5588.015069 kJ/mol
# Density = 2.008375 g / cm^3
# Si number density = 20.129567 Si / 1000 Ang^3
#
#
#
# Elastic Constant Matrix: (Units=GPa)
#
#
# Indices 1 2 3 4 5 6 
#
# 1 102.3981 42.5330 34.4192 0.6005 0.0001 0.0000
# 2 42.5330 102.3981 34.4192 -0.6005 -0.0001 0.0000
# 3 34.4192 34.4192 74.7198 0.0000 0.0000 0.0000
# 4 0.6005 -0.6005 0.0000 26.0027 0.0000 -0.0001
# 5 0.0001 -0.0001 0.0000 0.0000 26.0027 0.6005
# 6 0.0000 0.0000 0.0000 -0.0001 0.6005 29.9325
#
#
#
# Elastic Compliance Matrix: (Units=1/GPa)
#
#
# Indices 1 2 3 4 5 6 
#
# 1 0.012772 -0.003940 -0.004069 -0.000386 0.000000 0.000000
# 2 -0.003940 0.012772 -0.004069 0.000386 0.000000 0.000000
# 3 -0.004069 -0.004069 0.017132 0.000000 0.000000 0.000000
# 4 -0.000386 0.000386 0.000000 0.038475 0.000000 0.000000
# 5 0.000000 0.000000 0.000000 0.000000 0.038475 -0.000772
# 6 0.000000 0.000000 0.000000 0.000000 -0.000772 0.033424
#
#
# Mechanical properties :
#
#
# Convention : Reuss Voigt Hill
#
# Bulk Modulus (GPa) = 53.98973 55.80654 54.89813
# Shear Modulus (GPa) = 27.26603 27.59723 27.43163
#
# Velocity S-wave (km/s) = 3.68438 3.70669 3.69555
# Velocity P-wave (km/s) = 6.70663 6.78994 6.74841
#
# Compressibility (1/GPa) = 0.01852204
#
# Stress axis : x y z
#
# Youngs Moduli (GPa) = 78.29546 78.29546 58.37154
#
# Poissons Ratio (x) = 0.30847 0.23749
# Poissons Ratio (y) = 0.30847 0.23749
# Poissons Ratio (z) = 0.31855 0.31855
#
# Static dielectric constant tensor:
#      x y z
#    x 1.720760 0.000000 0.000000 
#    y 0.000000 1.720760 0.000000 
#    z 0.000000 0.000000 1.723870 
# 
# From -- ./inp_files/3808.got.cif
#   From: 2010.05.17/outbox.cif.g08.bks.cpg/sg154_2_cif.got.tgz:3808.got - 2010.05.20 10:41:43.
