data_PCOD9576406
_publ_section_title
;
Structure prediction by ZEFSAII (Michael W. Deem and Ramdas Pophale) SiO2 
 PCOD9576406
Probable space group: P 32 2 1
;
_chemical_formula_sum "Si O2"
_cell_formula_units_Z 36
_cell_length_a 12.198458
_cell_length_b 12.198458
_cell_length_c 12.406707
_cell_angle_alpha 90.000000
_cell_angle_beta 90.000000
_cell_angle_gamma 120.000000
_cell_volume 1598.810634
_symmetry_space_group_name_H-M "P 32 2 1"
_symmetry_group_IT_number 154
_symmetry_cell_setting 'hexagonal'
loop_
_space_group_symop_operation_xyz
x,y,z
-y,x-y,2/3+z
-x+y,-x,1/3+z
x-y,-y,1/3-z
-x,-x+y,2/3-z
y,x,-z
loop_
_atom_site_type_symbol
_atom_site_label
_atom_site_fract_x
_atom_site_fract_y
_atom_site_fract_z
Si Si1 0.449757 0.892149 0.818763
Si Si2 0.592514 0.349070 0.619409
Si Si3 0.125953 0.374938 0.777115
Si Si4 0.713500 0.713884 0.785640
Si Si5 0.028140 0.756004 0.495282
Si Si6 0.788096 0.099969 0.255217
O O1 0.369453 0.787083 0.727858
O O2 0.417261 0.000860 0.854995
O O3 0.595746 0.957120 0.793503
O O4 0.416264 0.801271 0.924162
O O5 0.706194 0.476134 0.566829
O O6 0.457986 0.315843 0.567466
O O7 0.084236 0.320834 0.655787
O O8 0.168727 0.288585 0.843205
O O9 0.000000 0.358214 0.833334
O O10 0.731590 0.853070 0.775659
O O11 0.787126 0.711791 0.891846
O O12 0.056699 0.775368 0.623198
O O13 0.770113 0.000000 0.166667
#
# Coordination Sequence:
#
# PCOD9576406 Si02
#       6
#     6   6   6   6   6   6
#     4   9  21  39  65  94 120 157 208 261 321 370
#     4   9  20  38  63  92 121 160 202 259 308 376
#     4  11  24  41  58  91 128 169 209 243 318 385
#     4  10  22  41  61  89 124 159 210 261 306 378
#     4  11  23  38  64  93 123 164 205 261 319 374
#     4  10  18  38  65  89 112 158 213 254 303 366
#
# _framework density 22.516736999999999
#
# number of rings (size 3 to 8) (size 9 to 14) (size 15 to 20)
#    0.000    2.000    1.667    1.000    2.333    2.667 
#    3.000    0.000    3.667    0.000    0.000    0.000 
#    0.000    0.000    0.000    0.000    0.000    0.000 
#
# Total GULP energy -200597.623336 kJ/mol
# GULP energy per Si atom -5572.156204 kJ/mol
# Density = 2.246549 g / cm^3
# Si number density = 22.516737 Si / 1000 Ang^3
#
#
#
# Elastic Constant Matrix: (Units=GPa)
#
#
# Indices 1 2 3 4 5 6 
#
# 1 67.6773 28.1535 7.1309 0.4729 0.0002 0.0000
# 2 28.1535 67.6773 7.1309 -0.4729 -0.0002 0.0000
# 3 7.1309 7.1309 63.5554 0.0000 0.0000 0.0000
# 4 0.4729 -0.4729 0.0000 20.1718 0.0000 -0.0002
# 5 0.0002 -0.0002 0.0000 0.0000 20.1718 0.4729
# 6 0.0000 0.0000 0.0000 -0.0002 0.4729 19.7619
#
#
#
# Elastic Compliance Matrix: (Units=1/GPa)
#
#
# Indices 1 2 3 4 5 6 
#
# 1 0.017964 -0.007352 -0.001191 -0.000593 0.000000 0.000000
# 2 -0.007352 0.017964 -0.001191 0.000593 0.000000 0.000000
# 3 -0.001191 -0.001191 0.016002 0.000000 0.000000 0.000000
# 4 -0.000593 0.000593 0.000000 0.049602 0.000000 0.000000
# 5 0.000000 0.000000 0.000000 0.000000 0.049602 -0.001187
# 6 0.000000 0.000000 0.000000 0.000000 -0.001187 0.050631
#
#
# Mechanical properties :
#
#
# Convention : Reuss Voigt Hill
#
# Bulk Modulus (GPa) = 30.80404 31.52671 31.16537
# Shear Modulus (GPa) = 21.54697 22.45406 22.00052
#
# Velocity S-wave (km/s) = 3.09679 3.16130 3.12921
# Velocity P-wave (km/s) = 5.14752 5.23039 5.18912
#
# Compressibility (1/GPa) = 0.03246328
#
# Stress axis : x y z
#
# Youngs Moduli (GPa) = 55.66732 55.66732 62.49412
#
# Poissons Ratio (x) = 0.40924 0.07441
# Poissons Ratio (y) = 0.40924 0.07441
# Poissons Ratio (z) = 0.06628 0.06628
#
# Static dielectric constant tensor:
#      x y z
#    x 1.893360 0.000000 0.000000 
#    y 0.000000 1.893360 0.000000 
#    z 0.000000 0.000000 1.841230 
# 
# From -- ./inp_files/1947.got.cif
#   From: 2010.05.17/outbox.cif.g08.bks.cpg/sg154_1_cif.got.tgz:1947.got - 2010.05.20 10:41:43.
