data_PCOD9576607
_publ_section_title
;
Structure prediction by ZEFSAII (Michael W. Deem and Ramdas Pophale) SiO2 
 PCOD9576607
Probable space group: P 32 2 1
;
_chemical_formula_sum "Si O2"
_cell_formula_units_Z 33
_cell_length_a 11.417888
_cell_length_b 11.417888
_cell_length_c 15.333950
_cell_angle_alpha 90.000000
_cell_angle_beta 90.000000
_cell_angle_gamma 120.000000
_cell_volume 1731.235830
_symmetry_space_group_name_H-M "P 32 2 1"
_symmetry_group_IT_number 154
_symmetry_cell_setting 'hexagonal'
loop_
_space_group_symop_operation_xyz
x,y,z
-y,x-y,2/3+z
-x+y,-x,1/3+z
x-y,-y,1/3-z
-x,-x+y,2/3-z
y,x,-z
loop_
_atom_site_type_symbol
_atom_site_label
_atom_site_fract_x
_atom_site_fract_y
_atom_site_fract_z
Si Si1 0.810991 0.142389 0.050689
Si Si2 0.078396 0.078396 0.500000
Si Si3 0.853361 0.417002 0.792969
Si Si4 0.865221 0.546679 0.535046
Si Si5 0.667300 0.578076 0.274813
Si Si6 0.231097 0.192072 0.902373
O O1 0.848258 0.032394 0.087151
O O2 0.710684 0.161767 0.115950
O O3 0.948704 0.284822 0.041560
O O4 0.736420 0.106998 0.958294
O O5 0.927274 0.055624 0.504755
O O6 0.745332 0.294398 0.851212
O O7 0.853655 0.360988 0.696539
O O8 0.000000 0.466715 0.833334
O O9 0.928683 0.449947 0.542680
O O10 0.926266 0.661126 0.461831
O O11 0.817504 0.631890 0.239878
O O12 0.168936 0.168936 0.000000
#
# Coordination Sequence:
#
# PCOD9576607 Si02
#       6
#     6   3   6   6   6   6
#     4  10  22  41  62  89 124 159 208 256 310 379
#     4  10  24  38  62  92 126 160 204 266 314 362
#     4  11  20  38  63  86 119 159 205 251 305 376
#     4  11  24  38  67  90 122 165 209 253 320 376
#     4  10  23  41  60  89 119 162 205 255 314 368
#     4  11  24  41  66  91 128 162 212 261 316 379
#
# _framework density 19.061527000000002
#
# number of rings (size 3 to 8) (size 9 to 14) (size 15 to 20)
#    0.000    1.455    4.545    0.000    8.909    0.000 
#    0.000    0.000    8.000    0.000    0.000    0.000 
#    0.000    0.000    0.000    0.000    0.000    0.000 
#
# Total GULP energy -184040.741230 kJ/mol
# GULP energy per Si atom -5576.992158 kJ/mol
# Density = 1.901814 g / cm^3
# Si number density = 19.061527 Si / 1000 Ang^3
#
#
#
# Elastic Constant Matrix: (Units=GPa)
#
#
# Indices 1 2 3 4 5 6 
#
# 1 69.5527 15.7488 12.2739 1.1861 0.0000 0.0000
# 2 15.7488 69.5527 12.2739 -1.1861 0.0000 0.0000
# 3 12.2739 12.2739 40.2680 0.0000 0.0000 0.0000
# 4 1.1861 -1.1861 0.0000 20.0982 0.0000 0.0000
# 5 0.0000 0.0000 0.0000 0.0000 20.0982 1.1861
# 6 0.0000 0.0000 0.0000 0.0000 1.1861 26.9019
#
#
#
# Elastic Compliance Matrix: (Units=1/GPa)
#
#
# Indices 1 2 3 4 5 6 
#
# 1 0.015742 -0.002892 -0.003917 -0.001100 0.000000 0.000000
# 2 -0.002892 0.015742 -0.003917 0.001100 0.000000 0.000000
# 3 -0.003917 -0.003917 0.027221 0.000000 0.000000 0.000000
# 4 -0.001100 0.001100 0.000000 0.049885 0.000000 0.000000
# 5 0.000000 0.000000 0.000000 0.000000 0.049885 -0.002199
# 6 0.000000 0.000000 0.000000 0.000000 -0.002199 0.037269
#
#
# Mechanical properties :
#
#
# Convention : Reuss Voigt Hill
#
# Bulk Modulus (GPa) = 26.84234 28.88519 27.86377
# Shear Modulus (GPa) = 21.77550 22.69146 22.23348
#
# Velocity S-wave (km/s) = 3.38358 3.45401 3.41897
# Velocity P-wave (km/s) = 5.42008 5.57615 5.49867
#
# Compressibility (1/GPa) = 0.03725457
#
# Stress axis : x y z
#
# Youngs Moduli (GPa) = 63.52269 63.52269 36.73589
#
# Poissons Ratio (x) = 0.18371 0.14389
# Poissons Ratio (y) = 0.18371 0.14389
# Poissons Ratio (z) = 0.24881 0.24881
#
# Static dielectric constant tensor:
#      x y z
#    x 1.656350 0.000000 0.000000 
#    y 0.000000 1.656350 0.000000 
#    z 0.000000 0.000000 1.703980 
# 
# From -- ./inp_files/1957.got.cif
#   From: 2010.05.17/outbox.cif.g08.bks.cpg/sg154_1_cif.got.tgz:1957.got - 2010.05.20 10:41:43.
