data_PCOD9576116
_publ_section_title
;
Structure prediction by ZEFSAII (Michael W. Deem and Ramdas Pophale) SiO2 
 PCOD9576116
Probable space group: P 31 2 1
;
_chemical_formula_sum "Si O2"
_cell_formula_units_Z 12
_cell_length_a 7.717496
_cell_length_b 7.717496
_cell_length_c 8.128239
_cell_angle_alpha 90.000000
_cell_angle_beta 90.000000
_cell_angle_gamma 120.000000
_cell_volume 419.256614
_symmetry_space_group_name_H-M "P 31 2 1"
_symmetry_group_IT_number 152
_symmetry_cell_setting 'hexagonal'
loop_
_space_group_symop_operation_xyz
x,y,z
-y,x-y,1/3+z
-x+y,-x,2/3+z
x-y,-y,2/3-z
-x,-x+y,1/3-z
y,x,-z
loop_
_atom_site_type_symbol
_atom_site_label
_atom_site_fract_x
_atom_site_fract_y
_atom_site_fract_z
Si Si1 0.849873 0.226149 0.304931
Si Si2 0.717447 0.717447 0.000000
Si Si3 0.621038 0.000000 0.833334
O O1 0.958749 0.323400 0.477845
O O2 0.823181 0.403379 0.226267
O O3 0.000000 0.221817 0.166667
O O4 0.672086 0.000000 0.333334
O O5 0.703690 0.914885 0.969676
#
# Coordination Sequence:
#
# PCOD9576116 Si02
#       3
#     6   3   3
#     4  10  25  50  85 131 173 241 319 379 471 552
#     4  12  24  56  84 126 194 226 320 400 458 578
#     4  10  28  48  86 142 168 268 296 388 486 542
#
# _framework density 28.622088999999999
#
# number of rings (size 3 to 8) (size 9 to 14) (size 15 to 20)
#    1.500    0.000    0.000    3.000   10.500    0.000 
#   22.500    0.000    0.000    0.000    0.000    0.000 
#    0.000    0.000    0.000    0.000    0.000    0.000 
#
# Total GULP energy -66862.397550 kJ/mol
# GULP energy per Si atom -5571.866463 kJ/mol
# Density = 2.855694 g / cm^3
# Si number density = 28.622089 Si / 1000 Ang^3
#
#
#
# Elastic Constant Matrix: (Units=GPa)
#
#
# Indices 1 2 3 4 5 6 
#
# 1 156.7317 81.2106 55.1329 -11.6294 0.0000 0.0000
# 2 81.2106 156.7317 55.1329 11.6294 0.0000 0.0000
# 3 55.1329 55.1329 224.7090 0.0000 0.0000 0.0000
# 4 -11.6294 11.6294 0.0000 53.5274 0.0000 0.0000
# 5 0.0000 0.0000 0.0000 0.0000 53.5274 -11.6294
# 6 0.0000 0.0000 0.0000 0.0000 -11.6294 37.7606
#
#
#
# Elastic Compliance Matrix: (Units=1/GPa)
#
#
# Indices 1 2 3 4 5 6 
#
# 1 0.009466 -0.004725 -0.001163 0.003083 0.000000 0.000000
# 2 -0.004725 0.009466 -0.001163 -0.003083 0.000000 0.000000
# 3 -0.001163 -0.001163 0.005021 0.000000 0.000000 0.000000
# 4 0.003083 -0.003083 0.000000 0.020022 0.000000 0.000000
# 5 0.000000 0.000000 0.000000 0.000000 0.020022 0.006166
# 6 0.000000 0.000000 0.000000 0.000000 0.006166 0.028382
#
#
# Mechanical properties :
#
#
# Convention : Reuss Voigt Hill
#
# Bulk Modulus (GPa) = 101.51153 102.34723 101.92938
# Shear Modulus (GPa) = 45.55171 52.07614 48.81393
#
# Velocity S-wave (km/s) = 3.99367 4.27012 4.13421
# Velocity P-wave (km/s) = 7.53718 7.75549 7.64711
#
# Compressibility (1/GPa) = 0.00985110
#
# Stress axis : x y z
#
# Youngs Moduli (GPa) = 105.63727 105.63727 199.15965
#
# Poissons Ratio (x) = 0.49908 0.23171
# Poissons Ratio (y) = 0.49908 0.23171
# Poissons Ratio (z) = 0.12290 0.12290
#
# Static dielectric constant tensor:
#      x y z
#    x 2.225890 0.000000 0.000000 
#    y 0.000000 2.225890 0.000000 
#    z 0.000000 0.000000 2.235560 
# 
# From -- ./inp_files/646.got.cif
#   From: 2010.05.17/outbox.cif.g08.bks.cpg/sg152_1_cif.got.tgz:646.got - 2010.05.20 10:36:06.
