data_PCOD9576153
_publ_section_title
;
Structure prediction by ZEFSAII (Michael W. Deem and Ramdas Pophale) SiO2 
 PCOD9576153
Probable space group: P 31 2 1
;
_chemical_formula_sum "Si O2"
_cell_formula_units_Z 48
_cell_length_a 10.085942
_cell_length_b 10.085942
_cell_length_c 21.874118
_cell_angle_alpha 90.000000
_cell_angle_beta 90.000000
_cell_angle_gamma 120.000000
_cell_volume 1927.055022
_symmetry_space_group_name_H-M "P 31 2 1"
_symmetry_group_IT_number 152
_symmetry_cell_setting 'hexagonal'
loop_
_space_group_symop_operation_xyz
x,y,z
-y,x-y,1/3+z
-x+y,-x,2/3+z
x-y,-y,2/3-z
-x,-x+y,1/3-z
y,x,-z
loop_
_atom_site_type_symbol
_atom_site_label
_atom_site_fract_x
_atom_site_fract_y
_atom_site_fract_z
Si Si1 0.003518 0.547821 0.029879
Si Si2 0.516795 0.767345 0.319564
Si Si3 0.995440 0.161857 0.305857
Si Si4 0.472135 0.224181 0.274499
Si Si5 0.283355 0.162866 0.576129
Si Si6 0.865963 0.268653 0.117505
Si Si7 0.605527 0.330295 0.141547
Si Si8 0.687060 0.770860 0.881021
O O1 0.132298 0.545725 0.989264
O O2 0.094243 0.667121 0.084658
O O3 0.902378 0.386113 0.061865
O O4 0.895250 0.582494 0.987023
O O5 0.674216 0.840671 0.358519
O O6 0.395107 0.796069 0.355344
O O7 0.518127 0.797249 0.247090
O O8 0.090520 0.275827 0.359750
O O9 0.093759 0.237504 0.244800
O O10 0.960213 0.000000 0.333334
O O11 0.538913 0.313119 0.209934
O O12 0.338521 0.057979 0.255008
O O13 0.152090 0.206339 0.566920
O O14 0.276909 0.050959 0.524034
O O15 0.702322 0.239771 0.141118
O O16 0.000000 0.355842 0.166667
O O17 0.719763 0.507886 0.122811
#
# Coordination Sequence:
#
# PCOD9576153 Si02
#       8
#     6   6   6   6   6   6   6   6
#     4  11  24  44  79 107 145 202 261 319 375 474
#     4  11  25  46  70 104 151 195 251 317 393 458
#     4  11  27  45  71 102 149 199 245 314 392 461
#     4  12  27  45  75 118 151 201 267 325 396 471
#     4  11  23  48  72 103 149 194 259 306 388 460
#     4  11  22  47  74 109 140 196 258 310 384 465
#     4  12  24  43  74 106 147 195 257 321 392 461
#     4  11  26  44  75 108 149 195 252 327 378 467
#
# _framework density 24.908473999999998
#
# number of rings (size 3 to 8) (size 9 to 14) (size 15 to 20)
#    0.000    0.750    2.500    4.500   10.500    1.000 
#    2.250    0.000    0.000    0.000    0.000    0.000 
#    0.000    0.000    0.000    0.000    0.000    0.000 
#
# Total GULP energy -268302.023424 kJ/mol
# GULP energy per Si atom -5589.625488 kJ/mol
# Density = 2.485178 g / cm^3
# Si number density = 24.908474 Si / 1000 Ang^3
#
#
#
# Elastic Constant Matrix: (Units=GPa)
#
#
# Indices 1 2 3 4 5 6 
#
# 1 52.6702 16.0522 13.1148 0.1882 0.0001 0.0000
# 2 16.0522 52.6702 13.1148 -0.1882 -0.0001 0.0000
# 3 13.1148 13.1148 127.6963 0.0000 0.0000 0.0000
# 4 0.1882 -0.1882 0.0000 43.4192 0.0000 -0.0001
# 5 0.0001 -0.0001 0.0000 0.0000 43.4192 0.1882
# 6 0.0000 0.0000 0.0000 -0.0001 0.1882 18.3090
#
#
#
# Elastic Compliance Matrix: (Units=1/GPa)
#
#
# Indices 1 2 3 4 5 6 
#
# 1 0.021228 -0.006083 -0.001555 -0.000118 0.000000 0.000000
# 2 -0.006083 0.021228 -0.001555 0.000118 0.000000 0.000000
# 3 -0.001555 -0.001555 0.008151 0.000000 0.000000 0.000000
# 4 -0.000118 0.000118 0.000000 0.023032 0.000000 0.000000
# 5 0.000000 0.000000 0.000000 0.000000 0.023032 -0.000237
# 6 0.000000 0.000000 0.000000 0.000000 -0.000237 0.054620
#
#
# Mechanical properties :
#
#
# Convention : Reuss Voigt Hill
#
# Bulk Modulus (GPa) = 31.03782 35.28892 33.16337
# Shear Modulus (GPa) = 27.71353 33.74647 30.73000
#
# Velocity S-wave (km/s) = 3.33921 3.68478 3.51624
# Velocity P-wave (km/s) = 5.23019 5.68346 5.46153
#
# Compressibility (1/GPa) = 0.03221876
#
# Stress axis : x y z
#
# Youngs Moduli (GPa) = 47.10854 47.10854 122.69076
#
# Poissons Ratio (x) = 0.28654 0.19084
# Poissons Ratio (y) = 0.28654 0.19084
# Poissons Ratio (z) = 0.07327 0.07327
#
# Static dielectric constant tensor:
#      x y z
#    x 2.048420 0.000000 0.000000 
#    y 0.000000 2.048420 0.000000 
#    z 0.000000 0.000000 1.973810 
# 
# From -- ./inp_files/2842.got.cif
#   From: 2010.05.17/outbox.cif.g08.bks.cpg/sg152_2_cif.got.tgz:2842.got - 2010.05.20 10:36:06.
