data_PCOD9576744
_publ_section_title
;
Structure prediction by ZEFSAII (Michael W. Deem and Ramdas Pophale) SiO2 
 PCOD9576744
Probable space group: P 32 2 1
;
_chemical_formula_sum "Si O2"
_cell_formula_units_Z 15
_cell_length_a 9.230131
_cell_length_b 9.230131
_cell_length_c 7.795928
_cell_angle_alpha 90.000000
_cell_angle_beta 90.000000
_cell_angle_gamma 120.000000
_cell_volume 575.193780
_symmetry_space_group_name_H-M "P 32 2 1"
_symmetry_group_IT_number 154
_symmetry_cell_setting 'hexagonal'
loop_
_space_group_symop_operation_xyz
x,y,z
-y,x-y,2/3+z
-x+y,-x,1/3+z
x-y,-y,1/3-z
-x,-x+y,2/3-z
y,x,-z
loop_
_atom_site_type_symbol
_atom_site_label
_atom_site_fract_x
_atom_site_fract_y
_atom_site_fract_z
Si Si1 0.210537 0.210537 0.500000
Si Si2 0.324996 0.758483 0.837291
Si Si3 0.654384 0.000000 0.666667
Si Si4 0.000000 0.169978 0.833334
O O1 0.214501 0.384310 0.470427
O O2 0.104884 0.153910 0.675580
O O3 0.306516 0.625837 0.693984
O O4 0.505527 0.921621 0.805333
O O5 0.837240 0.148823 0.729301
#
# Coordination Sequence:
#
# PCOD9576744 Si02
#       4
#     3   6   3   3
#     4  12  29  57  94 136 187 245 316 390 473 567
#     4  12  29  54  87 133 185 244 309 393 476 560
#     4  12  28  52  84 130 186 238 314 384 468 560
#     4  12  27  55  90 134 179 251 304 394 457 565
#
# _framework density 26.078171000000001
#
# number of rings (size 3 to 8) (size 9 to 14) (size 15 to 20)
#    0.000    0.000    4.000    3.600    5.600    4.800 
#    0.000    0.000    0.000    0.000    0.000    0.000 
#    0.000    0.000    0.000    0.000    0.000    0.000 
#
# Total GULP energy -83705.863668 kJ/mol
# GULP energy per Si atom -5580.390911 kJ/mol
# Density = 2.601882 g / cm^3
# Si number density = 26.078171 Si / 1000 Ang^3
#
#
#
# Elastic Constant Matrix: (Units=GPa)
#
#
# Indices 1 2 3 4 5 6 
#
# 1 161.3281 76.4156 36.7001 -5.1009 0.0003 0.0000
# 2 76.4156 161.3281 36.7001 5.1009 -0.0003 0.0000
# 3 36.7001 36.7001 181.2665 0.0000 0.0000 0.0000
# 4 -5.1009 5.1009 0.0000 43.5065 0.0000 -0.0003
# 5 0.0003 -0.0003 0.0000 0.0000 43.5065 -5.1009
# 6 0.0000 0.0000 0.0000 -0.0003 -5.1009 42.4562
#
#
#
# Elastic Compliance Matrix: (Units=1/GPa)
#
#
# Indices 1 2 3 4 5 6 
#
# 1 0.008216 -0.003729 -0.000908 0.001400 0.000000 0.000000
# 2 -0.003729 0.008216 -0.000908 -0.001400 0.000000 0.000000
# 3 -0.000908 -0.000908 0.005885 0.000000 0.000000 0.000000
# 4 0.001400 -0.001400 0.000000 0.023313 0.000000 0.000000
# 5 0.000000 0.000000 0.000000 0.000000 0.023313 0.002801
# 6 0.000000 0.000000 0.000000 0.000000 0.002801 0.023890
#
#
# Mechanical properties :
#
#
# Convention : Reuss Voigt Hill
#
# Bulk Modulus (GPa) = 89.09212 89.28379 89.18796
# Shear Modulus (GPa) = 46.43950 49.50096 47.97023
#
# Velocity S-wave (km/s) = 4.22451 4.36153 4.29357
# Velocity P-wave (km/s) = 7.61794 7.72498 7.67164
#
# Compressibility (1/GPa) = 0.01122434
#
# Stress axis : x y z
#
# Youngs Moduli (GPa) = 121.71548 121.71548 169.93584
#
# Poissons Ratio (x) = 0.45390 0.15437
# Poissons Ratio (y) = 0.45390 0.15437
# Poissons Ratio (z) = 0.11057 0.11057
#
# Static dielectric constant tensor:
#      x y z
#    x 2.155290 0.000000 0.000000 
#    y 0.000000 2.155290 0.000000 
#    z 0.000000 0.000000 2.209310 
# 
# From -- ./inp_files/689.got.cif
#   From: 2010.05.17/outbox.cif.g08.bks.cpg/sg154_1_cif.got.tgz:689.got - 2010.05.20 10:41:43.
