data_PCOD9576258
_publ_section_title
;
Structure prediction by ZEFSAII (Michael W. Deem and Ramdas Pophale) SiO2 
 PCOD9576258
Probable space group: P 32 1 2
;
_chemical_formula_sum "Si O2"
_cell_formula_units_Z 36
_cell_length_a 11.593709
_cell_length_b 11.593709
_cell_length_c 17.412902
_cell_angle_alpha 90.000000
_cell_angle_beta 90.000000
_cell_angle_gamma 120.000000
_cell_volume 2026.966534
_symmetry_space_group_name_H-M "P 32 1 2"
_symmetry_group_IT_number 153
_symmetry_cell_setting 'hexagonal'
loop_
_space_group_symop_operation_xyz
x,y,z
-y,x-y,2/3+z
-x+y,-x,1/3+z
-y,-x,1/3-z
-x+y,y,2/3-z
x,x-y,-z
loop_
_atom_site_type_symbol
_atom_site_label
_atom_site_fract_x
_atom_site_fract_y
_atom_site_fract_z
Si Si1 0.000040 0.190473 0.770736
Si Si2 0.587867 0.923132 0.854187
Si Si3 0.728822 0.271179 0.166667
Si Si4 0.154963 0.845038 0.666667
Si Si5 0.774326 0.872970 0.267122
Si Si6 0.835942 0.680010 0.960329
Si Si7 0.768870 0.199969 0.462988
O O1 0.901438 0.237083 0.804932
O O2 0.111883 0.223766 0.833334
O O3 0.063412 0.243513 0.687706
O O4 0.910072 0.030407 0.761750
O O5 0.438269 0.876538 0.833334
O O6 0.658601 0.890154 0.786162
O O7 0.668817 0.084694 0.862303
O O8 0.606269 0.858115 0.930999
O O9 0.808614 0.252007 0.237330
O O10 0.779261 0.422794 0.140683
O O11 0.002608 0.780348 0.696021
O O12 0.786407 0.015651 0.262109
O O13 0.847469 0.626287 0.044042
#
# Coordination Sequence:
#
# PCOD9576258 Si02
#       7
#     6   6   3   3   6   6   6
#     4  10  19  35  61  90 126 152 194 257 317 358
#     4  10  21  39  62  86 124 159 205 254 303 382
#     4  12  24  38  58  90 124 170 204 244 312 380
#     4  10  22  38  66  94 114 160 204 266 328 352
#     4  10  21  34  61  94 117 155 202 254 314 362
#     4  11  22  38  64  90 123 153 204 268 307 367
#     4  10  22  39  58  89 126 165 198 251 305 375
#
# _framework density 17.760531
#
# number of rings (size 3 to 8) (size 9 to 14) (size 15 to 20)
#    0.000    1.667    2.500    2.500    5.833    2.667 
#    6.000    0.000    7.333    1.000    0.000    0.000 
#    0.000    0.000    0.000    0.000    0.000    0.000 
#
# Total GULP energy -200902.217301 kJ/mol
# GULP energy per Si atom -5580.617147 kJ/mol
# Density = 1.772011 g / cm^3
# Si number density = 17.760531 Si / 1000 Ang^3
#
#
#
# Elastic Constant Matrix: (Units=GPa)
#
#
# Indices 1 2 3 4 5 6 
#
# 1 104.0167 57.3548 53.9944 0.0001 5.4806 0.0000
# 2 57.3548 104.0167 53.9944 -0.0001 -5.4806 0.0000
# 3 53.9944 53.9944 105.4108 0.0000 0.0000 0.0000
# 4 0.0001 -0.0001 0.0000 17.5778 0.0000 -5.4806
# 5 5.4806 -5.4806 0.0000 0.0000 17.5778 0.0001
# 6 0.0000 0.0000 0.0000 -5.4806 0.0001 23.3309
#
#
#
# Elastic Compliance Matrix: (Units=1/GPa)
#
#
# Indices 1 2 3 4 5 6 
#
# 1 0.016277 -0.006848 -0.004830 0.000000 -0.007210 0.000000
# 2 -0.006848 0.016277 -0.004830 0.000000 0.007210 0.000000
# 3 -0.004830 -0.004830 0.014435 0.000000 0.000000 0.000000
# 4 0.000000 0.000000 0.000000 0.061386 0.000000 0.014420
# 5 -0.007210 0.007210 0.000000 0.000000 0.061386 0.000000
# 6 0.000000 0.000000 0.000000 0.014420 0.000000 0.046249
#
#
# Mechanical properties :
#
#
# Convention : Reuss Voigt Hill
#
# Bulk Modulus (GPa) = 71.56468 71.57018 71.56743
# Shear Modulus (GPa) = 19.70976 21.57067 20.64022
#
# Velocity S-wave (km/s) = 3.33491 3.48879 3.41272
# Velocity P-wave (km/s) = 7.43038 7.52421 7.47744
#
# Compressibility (1/GPa) = 0.01397337
#
# Stress axis : x y z
#
# Youngs Moduli (GPa) = 61.43756 61.43756 69.27810
#
# Poissons Ratio (x) = 0.42071 0.33460
# Poissons Ratio (y) = 0.42071 0.33460
# Poissons Ratio (z) = 0.29673 0.29673
#
# Static dielectric constant tensor:
#      x y z
#    x 1.590420 0.000000 0.000000 
#    y 0.000000 1.590420 0.000000 
#    z 0.000000 0.000000 1.570370 
# 
# From -- ./inp_files/3523.got.cif
#   From: 2010.05.17/outbox.cif.g08.bks.cpg/sg153_2_cif.got.tgz:3523.got - 2010.05.20 10:38:56.
