data_PCOD9576128
_publ_section_title
;
Structure prediction by ZEFSAII (Michael W. Deem and Ramdas Pophale) SiO2 
 PCOD9576128
Probable space group: P 31 2 1
;
_chemical_formula_sum "Si O2"
_cell_formula_units_Z 39
_cell_length_a 14.219143
_cell_length_b 14.219143
_cell_length_c 11.492569
_cell_angle_alpha 90.000000
_cell_angle_beta 90.000000
_cell_angle_gamma 120.000000
_cell_volume 2012.308656
_symmetry_space_group_name_H-M "P 31 2 1"
_symmetry_group_IT_number 152
_symmetry_cell_setting 'hexagonal'
loop_
_space_group_symop_operation_xyz
x,y,z
-y,x-y,1/3+z
-x+y,-x,2/3+z
x-y,-y,2/3-z
-x,-x+y,1/3-z
y,x,-z
loop_
_atom_site_type_symbol
_atom_site_label
_atom_site_fract_x
_atom_site_fract_y
_atom_site_fract_z
Si Si1 0.880294 0.696958 0.150366
Si Si2 0.344157 0.999628 0.094758
Si Si3 0.353263 0.526840 0.424348
Si Si4 0.223869 0.414009 0.768609
Si Si5 0.405650 0.000000 0.833334
Si Si6 0.694774 0.328970 0.696738
Si Si7 0.504204 0.424811 0.106813
O O1 0.778696 0.705040 0.195705
O O2 0.881736 0.601348 0.228112
O O3 0.000000 0.799023 0.166667
O O4 0.847406 0.655528 0.017147
O O5 0.417662 0.949263 0.147731
O O6 0.385945 0.120186 0.149160
O O7 0.342947 0.985838 0.954537
O O8 0.476024 0.571173 0.460831
O O9 0.310727 0.575386 0.522154
O O10 0.339991 0.587994 0.313768
O O11 0.279824 0.541234 0.731973
O O12 0.326380 0.408976 0.821943
O O13 0.804157 0.440998 0.709069
O O14 0.468496 0.468496 0.000000
#
# Coordination Sequence:
#
# PCOD9576128 Si02
#       7
#     6   6   6   6   3   6   6
#     4  11  22  42  68  94 124 170 223 274 321 396
#     4  12  23  45  65  92 138 172 226 268 329 407
#     4  11  21  35  55  91 133 167 212 256 319 389
#     4  11  22  41  65  94 127 167 221 269 330 386
#     4  12  26  36  56  96 138 180 202 280 334 372
#     4  11  20  35  60  88 122 173 215 257 314 391
#     4  12  22  39  63  96 130 175 223 267 322 401
#
# _framework density 19.380724000000001
#
# number of rings (size 3 to 8) (size 9 to 14) (size 15 to 20)
#    0.000    0.615    6.923    4.154    0.000    0.000 
#    5.538    0.000    0.000    1.846    2.000    0.000 
#    0.000    0.000    0.000    0.000    0.000    0.000 
#
# Total GULP energy -217254.226967 kJ/mol
# GULP energy per Si atom -5570.621204 kJ/mol
# Density = 1.933661 g / cm^3
# Si number density = 19.380724 Si / 1000 Ang^3
#
#
#
# Elastic Constant Matrix: (Units=GPa)
#
#
# Indices 1 2 3 4 5 6 
#
# 1 70.6836 11.7420 14.6327 17.0123 0.0000 0.0000
# 2 11.7420 70.6836 14.6327 -17.0123 0.0000 0.0000
# 3 14.6327 14.6327 77.0052 0.0000 0.0000 0.0000
# 4 17.0123 -17.0123 0.0000 24.4630 0.0000 0.0000
# 5 0.0000 0.0000 0.0000 0.0000 24.4630 17.0123
# 6 0.0000 0.0000 0.0000 0.0000 17.0123 29.4708
#
#
#
# Elastic Compliance Matrix: (Units=1/GPa)
#
#
# Indices 1 2 3 4 5 6 
#
# 1 0.020677 -0.007667 -0.002472 -0.019712 0.000000 0.000000
# 2 -0.007667 0.020677 -0.002472 0.019712 0.000000 0.000000
# 3 -0.002472 -0.002472 0.013926 0.000000 0.000000 0.000000
# 4 -0.019712 0.019712 0.000000 0.068294 0.000000 0.000000
# 5 0.000000 0.000000 0.000000 0.000000 0.068294 -0.039424
# 6 0.000000 0.000000 0.000000 0.000000 -0.039424 0.056690
#
#
# Mechanical properties :
#
#
# Convention : Reuss Voigt Hill
#
# Bulk Modulus (GPa) = 33.27035 33.37636 33.32335
# Shear Modulus (GPa) = 17.61797 27.50369 22.56083
#
# Velocity S-wave (km/s) = 3.01831 3.77122 3.41557
# Velocity P-wave (km/s) = 5.41765 6.01844 5.72593
#
# Compressibility (1/GPa) = 0.03005679
#
# Stress axis : x y z
#
# Youngs Moduli (GPa) = 48.36214 48.36214 71.80983
#
# Poissons Ratio (x) = 0.37081 0.17753
# Poissons Ratio (y) = 0.37081 0.17753
# Poissons Ratio (z) = 0.11956 0.11956
#
# Static dielectric constant tensor:
#      x y z
#    x 1.663830 0.000000 0.000000 
#    y 0.000000 1.663830 0.000000 
#    z 0.000000 0.000000 1.991660 
# 
# From -- ./inp_files/1780.got.cif
#   From: 2010.05.17/outbox.cif.g08.bks.cpg/sg152_1_cif.got.tgz:1780.got - 2010.05.20 10:36:06.
