data_PCOD9576943
_publ_section_title
;
Structure prediction by ZEFSAII (Michael W. Deem and Ramdas Pophale) SiO2 
 PCOD9576943
Probable space group: R 3 2
;
_chemical_formula_sum "Si O2"
_cell_formula_units_Z 72
_cell_length_a 15.644394
_cell_length_b 15.644394
_cell_length_c 16.973864
_cell_angle_alpha 90.000000
_cell_angle_beta 90.000000
_cell_angle_gamma 120.000000
_cell_volume 3597.732256
_symmetry_space_group_name_H-M "R 3 2"
_symmetry_group_IT_number 155
_symmetry_cell_setting 'hexagonal'
loop_
_space_group_symop_operation_xyz
x,y,z
-y,x-y,z
-x+y,-x,z
x-y,-y,-z
-x,-x+y,-z
y,x,-z
2/3+x,1/3+y,1/3+z
2/3-y,1/3+x-y,1/3+z
2/3-x+y,1/3-x,1/3+z
2/3+x-y,1/3-y,1/3-z
2/3-x,1/3-x+y,1/3-z
2/3+y,1/3+x,1/3-z
1/3+x,2/3+y,2/3+z
1/3-y,2/3+x-y,2/3+z
1/3-x+y,2/3-x,2/3+z
1/3+x-y,2/3-y,2/3-z
1/3-x,2/3-x+y,2/3-z
1/3+y,2/3+x,2/3-z
loop_
_atom_site_type_symbol
_atom_site_label
_atom_site_fract_x
_atom_site_fract_y
_atom_site_fract_z
Si Si1 0.193011 0.789718 0.410024
Si Si2 0.382411 0.975957 0.410470
Si Si3 0.115709 0.744679 0.975331
Si Si4 0.557915 0.779920 0.140453
O O1 0.156539 0.823206 0.333334
O O2 0.131124 0.672588 0.405680
O O3 0.153120 0.824929 0.482077
O O4 0.310746 0.856668 0.406642
O O5 0.351734 0.018400 0.333334
O O6 0.363843 0.000000 0.500000
O O7 0.498007 0.012247 0.403898
O O8 0.187088 0.770565 0.050715
O O9 0.000000 0.698988 0.000000
O O10 0.508744 0.666667 0.166667
O O11 0.484717 0.818050 0.166667
#
# Coordination Sequence:
#
# PCOD9576943 Si02
#       4
#    18  18  18  18
#     4  10  20  40  61  91 131 166 215 276 340 411
#     4  11  24  44  69  96 132 180 231 279 339 419
#     4  11  24  39  67  97 134 174 220 282 351 417
#     4  12  22  38  63  97 136 173 220 284 347 417
#
# _framework density 20.012606000000002
#
# number of rings (size 3 to 8) (size 9 to 14) (size 15 to 20)
#    0.000    1.000    5.000    5.500    3.500    0.000 
#    1.500    0.000    0.000    0.500    0.000    0.000 
#    0.000    0.000    0.000    0.000    0.000    0.000 
#
# Total GULP energy -133691.409597 kJ/mol
# GULP energy per Si atom -5570.475400 kJ/mol
# Density = 1.996706 g / cm^3
# Si number density = 20.012606 Si / 1000 Ang^3
#
#
#
# Elastic Constant Matrix: (Units=GPa)
#
#
# Indices 1 2 3 4 5 6 
#
# 1 112.4228 40.6540 34.9017 -6.1864 0.0006 0.0000
# 2 40.6540 112.4228 34.9017 6.1864 -0.0006 0.0000
# 3 34.9017 34.9017 111.1311 0.0000 0.0000 0.0000
# 4 -6.1864 6.1864 0.0000 25.6295 0.0000 -0.0006
# 5 0.0006 -0.0006 0.0000 0.0000 25.6295 -6.1864
# 6 0.0000 0.0000 0.0000 -0.0006 -6.1864 35.8844
#
#
#
# Elastic Compliance Matrix: (Units=1/GPa)
#
#
# Indices 1 2 3 4 5 6 
#
# 1 0.011082 -0.003457 -0.002395 0.003509 0.000000 0.000000
# 2 -0.003457 0.011082 -0.002395 -0.003509 0.000000 0.000000
# 3 -0.002395 -0.002395 0.010502 0.000000 0.000000 0.000000
# 4 0.003509 -0.003509 0.000000 0.040712 0.000000 0.000001
# 5 0.000000 0.000000 0.000000 0.000000 0.040712 0.007019
# 6 0.000000 0.000000 0.000000 0.000001 0.007019 0.029077
#
#
# Mechanical properties :
#
#
# Convention : Reuss Voigt Hill
#
# Bulk Modulus (GPa) = 61.83007 61.87684 61.85346
# Shear Modulus (GPa) = 30.29392 32.46331 31.37861
#
# Velocity S-wave (km/s) = 3.89490 4.03195 3.96402
# Velocity P-wave (km/s) = 7.15470 7.25683 7.20594
#
# Compressibility (1/GPa) = 0.01617336
#
# Stress axis : x y z
#
# Youngs Moduli (GPa) = 90.23954 90.23954 95.21584
#
# Poissons Ratio (x) = 0.31196 0.22800
# Poissons Ratio (y) = 0.31196 0.22800
# Poissons Ratio (z) = 0.21609 0.21609
#
# Static dielectric constant tensor:
#      x y z
#    x 1.754830 0.000000 0.000000 
#    y 0.000000 1.754830 0.000000 
#    z 0.000000 0.000000 1.133370 
# 
# From -- ./inp_files/5877.got.cif
#   From: 2010.05.17/outbox.cif.g08.bks.cpg/sg155_3_cif.got.tgz:5877.got - 2010.05.20 10:44:35.
