data_PCOD9576337
_publ_section_title
;
Structure prediction by ZEFSAII (Michael W. Deem and Ramdas Pophale) SiO2 
 PCOD9576337
Probable space group: P 32 1 2
;
_chemical_formula_sum "Si O2"
_cell_formula_units_Z 30
_cell_length_a 7.630126
_cell_length_b 7.630126
_cell_length_c 25.012766
_cell_angle_alpha 90.000000
_cell_angle_beta 90.000000
_cell_angle_gamma 120.000000
_cell_volume 1261.118136
_symmetry_space_group_name_H-M "P 32 1 2"
_symmetry_group_IT_number 153
_symmetry_cell_setting 'hexagonal'
loop_
_space_group_symop_operation_xyz
x,y,z
-y,x-y,2/3+z
-x+y,-x,1/3+z
-y,-x,1/3-z
-x+y,y,2/3-z
x,x-y,-z
loop_
_atom_site_type_symbol
_atom_site_label
_atom_site_fract_x
_atom_site_fract_y
_atom_site_fract_z
Si Si1 0.868026 0.616195 0.124615
Si Si2 0.415142 0.233185 0.585651
Si Si3 0.966904 0.033097 0.166667
Si Si4 0.298256 0.701745 0.166667
Si Si5 0.186815 0.968235 0.315752
Si Si6 0.430597 0.607008 0.946029
O O1 0.863147 0.788699 0.161077
O O2 0.068656 0.620212 0.147913
O O3 0.877194 0.711024 0.066217
O O4 0.748503 0.377932 0.109875
O O5 0.344563 0.318012 0.635356
O O6 0.421001 0.042349 0.607804
O O7 0.221122 0.143505 0.547633
O O8 0.292211 0.592302 0.222548
O O9 0.149381 0.762892 0.288297
O O10 0.980344 0.960688 0.333334
O O11 0.450198 0.725099 0.000000
#
# Coordination Sequence:
#
# PCOD9576337 Si02
#       6
#     6   6   3   3   6   6
#     4  10  22  43  74 101 149 202 243 323 392 456
#     4  12  24  44  76 110 147 206 256 322 394 480
#     4  11  24  44  76 105 152 205 252 326 404 475
#     4   9  20  44  72 105 152 191 250 320 384 461
#     4  11  22  44  72 104 148 202 258 322 392 466
#     4  11  25  44  75 112 152 207 262 326 400 477
#
# _framework density 23.788411
#
# number of rings (size 3 to 8) (size 9 to 14) (size 15 to 20)
#    0.000    1.200    2.000    4.800    0.000    1.600 
#    0.000    0.000    8.800    3.600    0.000    0.000 
#    0.000    0.000    0.000    0.000    0.000    0.000 
#
# Total GULP energy -167372.724788 kJ/mol
# GULP energy per Si atom -5579.090826 kJ/mol
# Density = 2.373427 g / cm^3
# Si number density = 23.788411 Si / 1000 Ang^3
#
#
#
# Elastic Constant Matrix: (Units=GPa)
#
#
# Indices 1 2 3 4 5 6 
#
# 1 92.5401 29.6860 36.1299 0.0001 1.3061 0.0000
# 2 29.6860 92.5401 36.1299 -0.0001 -1.3061 0.0000
# 3 36.1299 36.1299 153.3511 0.0000 0.0000 0.0000
# 4 0.0001 -0.0001 0.0000 33.9331 0.0000 -1.3061
# 5 1.3061 -1.3061 0.0000 0.0000 33.9331 0.0001
# 6 0.0000 0.0000 0.0000 -1.3061 0.0001 31.4270
#
#
#
# Elastic Compliance Matrix: (Units=1/GPa)
#
#
# Indices 1 2 3 4 5 6 
#
# 1 0.012720 -0.003215 -0.002240 0.000000 -0.000613 0.000000
# 2 -0.003215 0.012720 -0.002240 0.000000 0.000613 0.000000
# 3 -0.002240 -0.002240 0.007576 0.000000 0.000000 0.000000
# 4 0.000000 0.000000 0.000000 0.029517 0.000000 0.001227
# 5 -0.000613 0.000613 0.000000 0.000000 0.029517 0.000000
# 6 0.000000 0.000000 0.000000 0.001227 0.000000 0.031871
#
#
# Mechanical properties :
#
#
# Convention : Reuss Voigt Hill
#
# Bulk Modulus (GPa) = 56.72389 60.25809 58.49099
# Shear Modulus (GPa) = 34.43856 35.62436 35.03146
#
# Velocity S-wave (km/s) = 3.80900 3.87402 3.84165
# Velocity P-wave (km/s) = 6.57583 6.73770 6.65726
#
# Compressibility (1/GPa) = 0.01762926
#
# Stress axis : x y z
#
# Youngs Moduli (GPa) = 78.61350 78.61350 131.99122
#
# Poissons Ratio (x) = 0.25273 0.29560
# Poissons Ratio (y) = 0.25273 0.29560
# Poissons Ratio (z) = 0.17606 0.17606
#
# Static dielectric constant tensor:
#      x y z
#    x 1.957250 0.000000 0.000000 
#    y 0.000000 1.957250 0.000000 
#    z 0.000000 0.000000 1.956570 
# 
# From -- ./inp_files/4317.got.cif
#   From: 2010.05.17/outbox.cif.g08.bks.cpg/sg153_3_cif.got.tgz:4317.got - 2010.05.20 10:38:56.
