data_PCOD9576678
_publ_section_title
;
Structure prediction by ZEFSAII (Michael W. Deem and Ramdas Pophale) SiO2 
 PCOD9576678
Probable space group: P 32 2 1
;
_chemical_formula_sum "Si O2"
_cell_formula_units_Z 24
_cell_length_a 7.757496
_cell_length_b 7.757496
_cell_length_c 21.883825
_cell_angle_alpha 90.000000
_cell_angle_beta 90.000000
_cell_angle_gamma 120.000000
_cell_volume 1140.504454
_symmetry_space_group_name_H-M "P 32 2 1"
_symmetry_group_IT_number 154
_symmetry_cell_setting 'hexagonal'
loop_
_space_group_symop_operation_xyz
x,y,z
-y,x-y,2/3+z
-x+y,-x,1/3+z
x-y,-y,1/3-z
-x,-x+y,2/3-z
y,x,-z
loop_
_atom_site_type_symbol
_atom_site_label
_atom_site_fract_x
_atom_site_fract_y
_atom_site_fract_z
Si Si1 0.703146 0.312371 0.441567
Si Si2 0.842875 0.102146 0.106002
Si Si3 0.470768 0.225855 0.643701
Si Si4 0.886586 0.607188 0.226348
O O1 0.486158 0.260838 0.463046
O O2 0.660446 0.220556 0.373431
O O3 0.763624 0.197047 0.490384
O O4 0.882623 0.541978 0.439385
O O5 0.065889 0.233524 0.080283
O O6 0.865613 0.000000 0.166667
O O7 0.687364 0.950218 0.057626
O O8 0.636912 0.234598 0.597852
O O9 0.352007 0.000000 0.666667
#
# Coordination Sequence:
#
# PCOD9576678 Si02
#       4
#     6   6   6   6
#     4  11  23  42  72 100 140 183 232 292 343 418
#     4  12  24  44  69 101 137 184 232 284 354 417
#     4  10  24  45  64 100 140 174 238 293 339 423
#     4  11  23  46  69  97 142 184 227 288 351 407
#
# _framework density 21.043317999999999
#
# number of rings (size 3 to 8) (size 9 to 14) (size 15 to 20)
#    0.000    1.000    5.000    1.500    3.500    4.000 
#    0.000    0.000    0.000    0.000    0.000    0.000 
#    0.000    0.000    0.000    0.000    0.000    0.000 
#
# Total GULP energy -133912.593894 kJ/mol
# GULP energy per Si atom -5579.691412 kJ/mol
# Density = 2.099542 g / cm^3
# Si number density = 21.043318 Si / 1000 Ang^3
#
#
#
# Elastic Constant Matrix: (Units=GPa)
#
#
# Indices 1 2 3 4 5 6 
#
# 1 108.7273 40.8135 23.8577 -5.3171 0.0003 0.0000
# 2 40.8135 108.7273 23.8577 5.3171 -0.0003 0.0000
# 3 23.8577 23.8577 97.4891 0.0000 0.0000 0.0000
# 4 -5.3171 5.3171 0.0000 21.6369 0.0000 -0.0003
# 5 0.0003 -0.0003 0.0000 0.0000 21.6369 -5.3171
# 6 0.0000 0.0000 0.0000 -0.0003 -5.3171 33.9569
#
#
#
# Elastic Compliance Matrix: (Units=1/GPa)
#
#
# Indices 1 2 3 4 5 6 
#
# 1 0.011284 -0.004030 -0.001775 0.003763 0.000000 0.000000
# 2 -0.004030 0.011284 -0.001775 -0.003763 0.000000 0.000000
# 3 -0.001775 -0.001775 0.011126 0.000000 0.000000 0.000000
# 4 0.003763 -0.003763 0.000000 0.048067 0.000000 0.000000
# 5 0.000000 0.000000 0.000000 0.000000 0.048067 0.007527
# 6 0.000000 0.000000 0.000000 0.000000 0.007527 0.030628
#
#
# Mechanical properties :
#
#
# Convention : Reuss Voigt Hill
#
# Bulk Modulus (GPa) = 53.95767 54.66683 54.31225
# Shear Modulus (GPa) = 27.50371 30.54046 29.02209
#
# Velocity S-wave (km/s) = 3.61917 3.81374 3.71773
# Velocity P-wave (km/s) = 6.56974 6.73999 6.65541
#
# Compressibility (1/GPa) = 0.01853305
#
# Stress axis : x y z
#
# Youngs Moduli (GPa) = 88.62365 88.62365 89.87657
#
# Poissons Ratio (x) = 0.35717 0.15954
# Poissons Ratio (y) = 0.35717 0.15954
# Poissons Ratio (z) = 0.15732 0.15732
#
# Static dielectric constant tensor:
#      x y z
#    x 1.829690 0.000000 0.000000 
#    y 0.000000 1.829690 0.000000 
#    z 0.000000 0.000000 1.904350 
# 
# From -- ./inp_files/2623.got.cif
#   From: 2010.05.17/outbox.cif.g08.bks.cpg/sg154_2_cif.got.tgz:2623.got - 2010.05.20 10:41:43.
