data_PCOD9576647
_publ_section_title
;
Structure prediction by ZEFSAII (Michael W. Deem and Ramdas Pophale) SiO2 
 PCOD9576647
Probable space group: P 32 2 1
;
_chemical_formula_sum "Si O2"
_cell_formula_units_Z 21
_cell_length_a 7.294602
_cell_length_b 7.294602
_cell_length_c 16.672254
_cell_angle_alpha 90.000000
_cell_angle_beta 90.000000
_cell_angle_gamma 120.000000
_cell_volume 768.295258
_symmetry_space_group_name_H-M "P 32 2 1"
_symmetry_group_IT_number 154
_symmetry_cell_setting 'hexagonal'
loop_
_space_group_symop_operation_xyz
x,y,z
-y,x-y,2/3+z
-x+y,-x,1/3+z
x-y,-y,1/3-z
-x,-x+y,2/3-z
y,x,-z
loop_
_atom_site_type_symbol
_atom_site_label
_atom_site_fract_x
_atom_site_fract_y
_atom_site_fract_z
Si Si1 0.431512 0.700249 0.161011
Si Si2 0.922143 0.922143 0.000000
Si Si3 0.002878 0.528621 0.973367
Si Si4 0.186381 0.910654 0.446882
O O1 0.416618 0.795322 0.245946
O O2 0.307507 0.450203 0.150280
O O3 0.677286 0.768241 0.155656
O O4 0.383243 0.812491 0.088145
O O5 0.065968 0.061958 0.924877
O O6 0.939595 0.707038 0.999715
O O7 0.040077 0.399174 0.042238
#
# Coordination Sequence:
#
# PCOD9576647 Si02
#       4
#     6   3   6   6
#     4  10  23  41  66 100 134 177 237 291 359 431
#     4  10  24  42  68  94 140 182 222 290 368 406
#     4  10  23  46  65  97 143 183 233 301 353 437
#     4  11  24  43  69 106 132 187 237 293 363 432
#
# _framework density 27.333241999999998
#
# number of rings (size 3 to 8) (size 9 to 14) (size 15 to 20)
#    0.000    1.714    0.000    3.429    8.000    1.143 
#    0.000    2.857    0.000    0.000    0.000    0.000 
#    0.000    0.000    0.000    0.000    0.000    0.000 
#
# Total GULP energy -117468.299921 kJ/mol
# GULP energy per Si atom -5593.728568 kJ/mol
# Density = 2.727103 g / cm^3
# Si number density = 27.333242 Si / 1000 Ang^3
#
#
#
# Elastic Constant Matrix: (Units=GPa)
#
#
# Indices 1 2 3 4 5 6 
#
# 1 93.8286 3.9086 46.0878 -2.5533 0.0000 0.0000
# 2 3.9086 93.8286 46.0878 2.5533 0.0000 0.0000
# 3 46.0878 46.0878 126.0800 0.0000 0.0000 0.0000
# 4 -2.5533 2.5533 0.0000 51.7404 0.0000 0.0000
# 5 0.0000 0.0000 0.0000 0.0000 51.7404 -2.5533
# 6 0.0000 0.0000 0.0000 0.0000 -2.5533 44.9600
#
#
#
# Elastic Compliance Matrix: (Units=1/GPa)
#
#
# Indices 1 2 3 4 5 6 
#
# 1 0.013383 0.002231 -0.005708 0.000550 0.000000 0.000000
# 2 0.002231 0.013383 -0.005708 -0.000550 0.000000 0.000000
# 3 -0.005708 -0.005708 0.012104 0.000000 0.000000 0.000000
# 4 0.000550 -0.000550 0.000000 0.019382 0.000000 0.000000
# 5 0.000000 0.000000 0.000000 0.000000 0.019382 0.001101
# 6 0.000000 0.000000 0.000000 0.000000 0.001101 0.022304
#
#
# Mechanical properties :
#
#
# Convention : Reuss Voigt Hill
#
# Bulk Modulus (GPa) = 48.77519 56.21173 52.49346
# Shear Modulus (GPa) = 39.95471 44.19838 42.07654
#
# Velocity S-wave (km/s) = 3.82745 4.02558 3.92776
# Velocity P-wave (km/s) = 6.11685 6.49746 6.31003
#
# Compressibility (1/GPa) = 0.02050223
#
# Stress axis : x y z
#
# Youngs Moduli (GPa) = 74.71957 74.71957 82.61487
#
# Poissons Ratio (x) = -0.16671 0.47155
# Poissons Ratio (y) = -0.16671 0.47155
# Poissons Ratio (z) = 0.42648 0.42648
#
# Static dielectric constant tensor:
#      x y z
#    x 2.227410 0.000000 0.000000 
#    y 0.000000 2.227410 0.000000 
#    z 0.000000 0.000000 2.183770 
# 
# From -- ./inp_files/2242.got.cif
#   From: 2010.05.17/outbox.cif.g08.bks.cpg/sg154_2_cif.got.tgz:2242.got - 2010.05.20 10:41:43.
