data_PCOD9576210
_publ_section_title
;
Structure prediction by ZEFSAII (Michael W. Deem and Ramdas Pophale) SiO2 
 PCOD9576210
Probable space group: P 31 2 1
;
_chemical_formula_sum "Si O2"
_cell_formula_units_Z 18
_cell_length_a 7.695918
_cell_length_b 7.695918
_cell_length_c 11.978351
_cell_angle_alpha 90.000000
_cell_angle_beta 90.000000
_cell_angle_gamma 120.000000
_cell_volume 614.396213
_symmetry_space_group_name_H-M "P 31 2 1"
_symmetry_group_IT_number 152
_symmetry_cell_setting 'hexagonal'
loop_
_space_group_symop_operation_xyz
x,y,z
-y,x-y,1/3+z
-x+y,-x,2/3+z
x-y,-y,2/3-z
-x,-x+y,1/3-z
y,x,-z
loop_
_atom_site_type_symbol
_atom_site_label
_atom_site_fract_x
_atom_site_fract_y
_atom_site_fract_z
Si Si1 0.756556 0.513113 0.333333
Si Si2 0.382189 0.254619 0.906001
Si Si3 0.617812 0.745382 0.906000
O O1 0.812036 0.342764 0.294373
O O2 0.843204 0.647625 0.443614
O O3 0.530726 0.342764 0.372293
O O4 0.804420 0.647625 0.223053
O O5 0.500000 0.500000 0.891322
O O6 0.220999 0.220999 0.000000
O O7 0.779001 0.779001 0.000000
#
# Coordination Sequence:
#
# PCOD9576210 Si02
#       3
#     6   6   6
#     4   8  13  24  38  56  82 110 137 168 202 244
#     4   8  14  23  37  54  77 112 137 166 208 247
#     4   8  14  23  37  54  77 112 137 166 208 247
#
# _framework density 29.297053999999999
#
# number of rings (size 3 to 8) (size 9 to 14) (size 15 to 20)
#    0.000    4.667    0.000    0.000    0.000    0.000 
#    0.000    6.667    0.000    0.000    0.000    0.000 
#    0.000    0.000    0.000 3840.000    0.000    0.000 
#
# Total GULP energy -100424.722632 kJ/mol
# GULP energy per Si atom -5579.151257 kJ/mol
# Density = 2.923037 g / cm^3
# Si number density = 29.297054 Si / 1000 Ang^3
#
#
#
# Elastic Constant Matrix: (Units=GPa)
#
#
# Indices 1 2 3 4 5 6 
#
# 1 122.7669 41.9159 80.0780 0.0005 0.0000 0.0000
# 2 41.9159 122.7669 80.0780 -0.0005 0.0000 0.0000
# 3 80.0780 80.0780 450.0651 0.0000 0.0000 0.0000
# 4 0.0005 -0.0005 0.0000 50.9483 0.0000 0.0000
# 5 0.0000 0.0000 0.0000 0.0000 50.9483 0.0005
# 6 0.0000 0.0000 0.0000 0.0000 0.0005 40.4255
#
#
#
# Elastic Compliance Matrix: (Units=1/GPa)
#
#
# Indices 1 2 3 4 5 6 
#
# 1 0.009856 -0.002513 -0.001306 0.000000 0.000000 0.000000
# 2 -0.002513 0.009856 -0.001306 0.000000 0.000000 0.000000
# 3 -0.001306 -0.001306 0.002687 0.000000 0.000000 0.000000
# 4 0.000000 0.000000 0.000000 0.019628 0.000000 0.000000
# 5 0.000000 0.000000 0.000000 0.000000 0.019628 0.000000
# 6 0.000000 0.000000 0.000000 0.000000 0.000000 0.024737
#
#
# Mechanical properties :
#
#
# Convention : Reuss Voigt Hill
#
# Bulk Modulus (GPa) = 82.32764 122.19365 102.26064
# Shear Modulus (GPa) = 49.65697 61.36622 55.51159
#
# Velocity S-wave (km/s) = 4.12144 4.58167 4.35763
# Velocity P-wave (km/s) = 7.12814 8.35392 7.76525
#
# Compressibility (1/GPa) = 0.01214659
#
# Stress axis : x y z
#
# Youngs Moduli (GPa) = 101.46475 101.46475 372.18815
#
# Poissons Ratio (x) = 0.25496 0.48626
# Poissons Ratio (y) = 0.25496 0.48626
# Poissons Ratio (z) = 0.13256 0.13256
#
# Static dielectric constant tensor:
#      x y z
#    x 2.513090 0.000000 0.000000 
#    y 0.000000 2.513090 0.000000 
#    z 0.000000 0.000000 2.324090 
# 
# From -- ./inp_files/1459.got.cif
#   From: 2010.05.17/outbox.cif.g08.bks.cpg/sg152_1_cif.got.tgz:1459.got - 2010.05.20 10:36:06.
