data_PCOD9576363
_publ_section_title
;
Structure prediction by ZEFSAII (Michael W. Deem and Ramdas Pophale) SiO2 
 PCOD9576363
Probable space group: P 32 1 2
;
_chemical_formula_sum "Si O2"
_cell_formula_units_Z 30
_cell_length_a 7.903208
_cell_length_b 7.903208
_cell_length_c 25.883210
_cell_angle_alpha 90.000000
_cell_angle_beta 90.000000
_cell_angle_gamma 120.000000
_cell_volume 1400.088833
_symmetry_space_group_name_H-M "P 32 1 2"
_symmetry_group_IT_number 153
_symmetry_cell_setting 'hexagonal'
loop_
_space_group_symop_operation_xyz
x,y,z
-y,x-y,2/3+z
-x+y,-x,1/3+z
-y,-x,1/3-z
-x+y,y,2/3-z
x,x-y,-z
loop_
_atom_site_type_symbol
_atom_site_label
_atom_site_fract_x
_atom_site_fract_y
_atom_site_fract_z
Si Si1 0.974945 0.701042 0.198034
Si Si2 0.654290 0.019064 0.079630
Si Si3 0.572333 0.525042 0.311840
Si Si4 0.862972 0.935420 0.282257
Si Si5 0.364476 0.372116 0.208064
O O1 0.948885 0.838531 0.241351
O O2 0.811636 0.657732 0.155756
O O3 0.939947 0.498246 0.222370
O O4 0.177120 0.822881 0.166667
O O5 0.652098 0.835377 0.105331
O O6 0.888328 0.161688 0.073688
O O7 0.565285 0.975346 0.022191
O O8 0.753389 0.506777 0.333334
O O9 0.658383 0.753550 0.300841
O O10 0.499744 0.417654 0.257769
O O11 0.001125 0.002249 0.333334
O O12 0.455759 0.544242 0.166667
#
# Coordination Sequence:
#
# PCOD9576363 Si02
#       5
#     6   6   6   6   6
#     4  12  25  49  75 111 158 200 260 324 390 465
#     4  12  25  45  77 106 150 212 248 317 405 454
#     4  11  23  47  71 106 153 199 255 325 376 467
#     4  11  22  47  76 103 152 203 254 322 387 460
#     4  12  24  44  71 109 153 197 262 324 377 473
#
# _framework density 21.427211
#
# number of rings (size 3 to 8) (size 9 to 14) (size 15 to 20)
#    0.000    0.400    8.000    2.400    0.000    0.000 
#   10.800    2.000    0.000    1.200    0.000    0.000 
#    0.000    0.000    0.000    0.000    0.000    0.000 
#
# Total GULP energy -167604.415193 kJ/mol
# GULP energy per Si atom -5586.813840 kJ/mol
# Density = 2.137844 g / cm^3
# Si number density = 21.427211 Si / 1000 Ang^3
#
#
#
# Elastic Constant Matrix: (Units=GPa)
#
#
# Indices 1 2 3 4 5 6 
#
# 1 99.0949 77.3316 63.5905 -0.0011 -12.5435 0.0000
# 2 77.3316 99.0949 63.5905 0.0011 12.5435 0.0000
# 3 63.5905 63.5905 157.7701 0.0000 0.0000 0.0000
# 4 -0.0011 0.0011 0.0000 21.7341 0.0000 12.5435
# 5 -12.5435 12.5435 0.0000 0.0000 21.7341 -0.0011
# 6 0.0000 0.0000 0.0000 12.5435 -0.0011 10.8816
#
#
#
# Elastic Compliance Matrix: (Units=1/GPa)
#
#
# Indices 1 2 3 4 5 6 
#
# 1 0.072631 -0.064641 -0.003220 0.000007 0.079224 0.000000
# 2 -0.064641 0.072631 -0.003220 -0.000007 -0.079224 0.000000
# 3 -0.003220 -0.003220 0.008934 0.000000 0.000000 0.000000
# 4 0.000007 -0.000007 0.000000 0.137456 0.000000 -0.158448
# 5 0.079224 -0.079224 0.000000 0.000000 0.137456 0.000014
# 6 0.000000 0.000000 0.000000 -0.158448 0.000014 0.274544
#
#
# Mechanical properties :
#
#
# Convention : Reuss Voigt Hill
#
# Bulk Modulus (GPa) = 83.10998 84.99834 84.05416
# Shear Modulus (GPa) = 5.88357 20.96646 13.42501
#
# Velocity S-wave (km/s) = 1.65885 3.13149 2.50579
# Velocity P-wave (km/s) = 6.52230 7.26839 6.90543
#
# Compressibility (1/GPa) = 0.01203225
#
# Stress axis : x y z
#
# Youngs Moduli (GPa) = 13.76830 13.76830 111.92946
#
# Poissons Ratio (x) = 0.89000 0.36044
# Poissons Ratio (y) = 0.89000 0.36044
# Poissons Ratio (z) = 0.04434 0.04434
#
# Static dielectric constant tensor:
#      x y z
#    x 1.836820 0.000000 0.000000 
#    y 0.000000 1.836820 0.000000 
#    z 0.000000 0.000000 1.785650 
# 
# From -- ./inp_files/4254.got.cif
#   From: 2010.05.17/outbox.cif.g08.bks.cpg/sg153_3_cif.got.tgz:4254.got - 2010.05.20 10:38:56.
