data_PCOD9576921
_publ_section_title
;
Structure prediction by ZEFSAII (Michael W. Deem and Ramdas Pophale) SiO2 
 PCOD9576921
Probable space group: R 3 2
;
_chemical_formula_sum "Si O2"
_cell_formula_units_Z 42
_cell_length_a 13.336504
_cell_length_b 13.336504
_cell_length_c 10.544783
_cell_angle_alpha 90.000000
_cell_angle_beta 90.000000
_cell_angle_gamma 120.000000
_cell_volume 1624.247764
_symmetry_space_group_name_H-M "R 3 2"
_symmetry_group_IT_number 155
_symmetry_cell_setting 'hexagonal'
loop_
_space_group_symop_operation_xyz
x,y,z
-y,x-y,z
-x+y,-x,z
x-y,-y,-z
-x,-x+y,-z
y,x,-z
2/3+x,1/3+y,1/3+z
2/3-y,1/3+x-y,1/3+z
2/3-x+y,1/3-x,1/3+z
2/3+x-y,1/3-y,1/3-z
2/3-x,1/3-x+y,1/3-z
2/3+y,1/3+x,1/3-z
1/3+x,2/3+y,2/3+z
1/3-y,2/3+x-y,2/3+z
1/3-x+y,2/3-x,2/3+z
1/3+x-y,2/3-y,2/3-z
1/3-x,2/3-x+y,2/3-z
1/3+y,2/3+x,2/3-z
loop_
_atom_site_type_symbol
_atom_site_label
_atom_site_fract_x
_atom_site_fract_y
_atom_site_fract_z
Si Si1 0.859492 0.115491 0.274238
Si Si2 0.666667 0.333335 0.682095
Si Si3 0.320698 0.115884 0.803321
O O1 0.769918 0.103251 0.166667
O O2 0.817260 0.154490 0.399256
O O3 0.895342 0.019118 0.302253
O O4 0.985952 0.215393 0.219257
O O5 0.666668 0.333334 0.833334
O O6 0.333334 0.174112 0.666667
O O7 0.429973 0.096640 0.833334
#
# Coordination Sequence:
#
# PCOD9576921 Si02
#       3
#    18   6  18
#     4  10  20  37  63  94 136 183 230 286 354 419
#     4  12  24  39  70 113 142 183 244 296 355 441
#     4   8  14  30  57  83 117 172 220 262 331 410
#
# _framework density 25.858125000000001
#
# number of rings (size 3 to 8) (size 9 to 14) (size 15 to 20)
#    0.000    2.571    0.000    7.714    0.000    0.000 
#    0.000    8.571    0.000   33.429    0.000   12.000 
#    0.000    0.000    0.000    1.286    0.000    0.000 
#
# Total GULP energy -77997.137483 kJ/mol
# GULP energy per Si atom -5571.224106 kJ/mol
# Density = 2.579927 g / cm^3
# Si number density = 25.858125 Si / 1000 Ang^3
#
#
#
# Elastic Constant Matrix: (Units=GPa)
#
#
# Indices 1 2 3 4 5 6 
#
# 1 119.7598 43.4143 62.0158 -25.1073 0.0003 0.0000
# 2 43.4143 119.7582 62.0155 25.1072 -0.0004 -0.0001
# 3 62.0158 62.0155 224.3631 0.0009 -0.0002 0.0001
# 4 -25.1073 25.1072 0.0009 -4.1161 0.0003 -0.0001
# 5 0.0003 -0.0004 -0.0002 0.0003 -4.1154 -25.1073
# 6 0.0000 -0.0001 0.0001 -0.0001 -25.1073 38.1726
#
#
#
# Elastic Compliance Matrix: (Units=1/GPa)
#
#
# Indices 1 2 3 4 5 6 
#
# 1 0.005186 0.002573 -0.002144 -0.015941 0.000000 0.000000
# 2 0.002573 0.005186 -0.002145 0.015941 0.000000 0.000000
# 3 -0.002144 -0.002145 0.005643 0.000000 0.000000 0.000000
# 4 -0.015941 0.015941 0.000000 -0.048473 -0.000001 -0.000001
# 5 0.000000 0.000000 0.000000 -0.000001 -0.048475 -0.031883
# 6 0.000000 0.000000 0.000000 -0.000001 -0.031883 0.005226
#
#
# Mechanical properties :
#
#
# Convention : Reuss Voigt Hill
#
# Bulk Modulus (GPa) = 79.48120 88.75249 84.11684
# Shear Modulus (GPa) = -73.44252 25.75059 -23.84597
#
# Velocity S-wave (km/s) = -5.33514 3.15912 -3.04004
# Velocity P-wave (km/s) = 2.67349 6.90681 4.50314
#
# Compressibility (1/GPa) = 0.01258159
#
# Stress axis : x y z
#
# Youngs Moduli (GPa) = 192.83089 192.82436 177.22378
#
# Poissons Ratio (x) = -0.49605 0.38004
# Poissons Ratio (y) = -0.49607 0.38008
# Poissons Ratio (z) = 0.41351 0.41353
#
# Static dielectric constant tensor:
#      x y z
#    x 2.094210 0.000000 0.000000 
#    y 0.000000 2.094220 0.000000 
#    z 0.000000 0.000000 2.116960 
# 
# From -- ./inp_files/3238.got.cif
#   From: 2010.05.17/outbox.cif.g08.bks.cpg/sg155_2_cif.got.tgz:3238.got - 2010.05.20 10:44:35.
