data_PCOD9576465
_publ_section_title
;
Structure prediction by ZEFSAII (Michael W. Deem and Ramdas Pophale) SiO2 
 PCOD9576465
Probable space group: P 32 2 1
;
_chemical_formula_sum "Si O2"
_cell_formula_units_Z 33
_cell_length_a 8.382665
_cell_length_b 8.382665
_cell_length_c 20.014218
_cell_angle_alpha 90.000000
_cell_angle_beta 90.000000
_cell_angle_gamma 120.000000
_cell_volume 1217.961271
_symmetry_space_group_name_H-M "P 32 2 1"
_symmetry_group_IT_number 154
_symmetry_cell_setting 'hexagonal'
loop_
_space_group_symop_operation_xyz
x,y,z
-y,x-y,2/3+z
-x+y,-x,1/3+z
x-y,-y,1/3-z
-x,-x+y,2/3-z
y,x,-z
loop_
_atom_site_type_symbol
_atom_site_label
_atom_site_fract_x
_atom_site_fract_y
_atom_site_fract_z
Si Si1 0.685617 0.024985 0.490664
Si Si2 0.000000 0.957838 0.833334
Si Si3 0.890780 0.652096 0.720200
Si Si4 0.666846 0.291328 0.158225
Si Si5 0.842177 0.200942 0.636334
Si Si6 0.508081 0.719342 0.025598
O O1 0.853377 0.004448 0.466295
O O2 0.506668 0.826126 0.497742
O O3 0.640848 0.168433 0.456093
O O4 0.772486 0.138183 0.560114
O O5 0.064013 0.878454 0.893078
O O6 0.862730 0.491312 0.771089
O O7 0.720656 0.661478 0.684899
O O8 0.066485 0.704469 0.674771
O O9 0.755967 0.268042 0.226688
O O10 0.704836 0.275648 0.659914
O O11 0.777911 0.000000 0.666667
O O12 0.615353 0.615353 0.000000
#
# Coordination Sequence:
#
# PCOD9576465 Si02
#       6
#     6   3   6   6   6   6
#     4  10  22  35  62  90 119 159 205 265 316 371
#     4  10  20  34  56  96 114 154 206 268 306 372
#     4  11  20  37  62  89 120 162 213 259 315 387
#     4  11  21  38  60  91 119 158 214 261 311 384
#     4   9  20  38  61  85 123 162 207 258 330 385
#     4  10  20  34  61  86 118 161 200 257 326 380
#
# _framework density 27.094459000000001
#
# number of rings (size 3 to 8) (size 9 to 14) (size 15 to 20)
#    0.000    1.818    1.818    3.818    5.091    0.000 
#    0.000    0.000   12.000    4.364    0.000    0.000 
#    0.000    0.000    0.000    0.000    0.000    0.000 
#
# Total GULP energy -184400.476188 kJ/mol
# GULP energy per Si atom -5587.893218 kJ/mol
# Density = 2.703279 g / cm^3
# Si number density = 27.094459 Si / 1000 Ang^3
#
#
#
# Elastic Constant Matrix: (Units=GPa)
#
#
# Indices 1 2 3 4 5 6 
#
# 1 102.0152 5.9419 17.9633 -8.8147 -0.0001 0.0000
# 2 5.9419 102.0152 17.9633 8.8147 0.0001 0.0000
# 3 17.9633 17.9633 87.2310 0.0000 0.0000 0.0000
# 4 -8.8147 8.8147 0.0000 31.0555 0.0000 0.0001
# 5 -0.0001 0.0001 0.0000 0.0000 31.0555 -8.8147
# 6 0.0000 0.0000 0.0000 0.0001 -8.8147 48.0367
#
#
#
# Elastic Compliance Matrix: (Units=1/GPa)
#
#
# Indices 1 2 3 4 5 6 
#
# 1 0.010463 -0.000518 -0.002048 0.003117 0.000000 0.000000
# 2 -0.000518 0.010463 -0.002048 -0.003117 0.000000 0.000000
# 3 -0.002048 -0.002048 0.012307 0.000000 0.000000 0.000000
# 4 0.003117 -0.003117 0.000000 0.033970 0.000000 0.000000
# 5 0.000000 0.000000 0.000000 0.000000 0.033970 0.006233
# 6 0.000000 0.000000 0.000000 0.000000 0.006233 0.021961
#
#
# Mechanical properties :
#
#
# Convention : Reuss Voigt Hill
#
# Bulk Modulus (GPa) = 41.65842 41.66648 41.66245
# Shear Modulus (GPa) = 35.62220 38.65575 37.13898
#
# Velocity S-wave (km/s) = 3.62987 3.78127 3.70634
# Velocity P-wave (km/s) = 5.74252 5.87159 5.80742
#
# Compressibility (1/GPa) = 0.02400475
#
# Stress axis : x y z
#
# Youngs Moduli (GPa) = 95.57923 95.57923 81.25310
#
# Poissons Ratio (x) = 0.04952 0.16639
# Poissons Ratio (y) = 0.04952 0.16639
# Poissons Ratio (z) = 0.19573 0.19573
#
# Static dielectric constant tensor:
#      x y z
#    x 2.350050 0.000000 0.000000 
#    y 0.000000 2.350050 0.000000 
#    z 0.000000 0.000000 2.207830 
# 
# From -- ./inp_files/3448.got.cif
#   From: 2010.05.17/outbox.cif.g08.bks.cpg/sg154_2_cif.got.tgz:3448.got - 2010.05.20 10:41:43.
