data_PCOD9576486
_publ_section_title
;
Structure prediction by ZEFSAII (Michael W. Deem and Ramdas Pophale) SiO2 
 PCOD9576486
Probable space group: P 32 2 1
;
_chemical_formula_sum "Si O2"
_cell_formula_units_Z 48
_cell_length_a 12.058987
_cell_length_b 12.058987
_cell_length_c 19.773528
_cell_angle_alpha 90.000000
_cell_angle_beta 90.000000
_cell_angle_gamma 120.000000
_cell_volume 2490.212730
_symmetry_space_group_name_H-M "P 32 2 1"
_symmetry_group_IT_number 154
_symmetry_cell_setting 'hexagonal'
loop_
_space_group_symop_operation_xyz
x,y,z
-y,x-y,2/3+z
-x+y,-x,1/3+z
x-y,-y,1/3-z
-x,-x+y,2/3-z
y,x,-z
loop_
_atom_site_type_symbol
_atom_site_label
_atom_site_fract_x
_atom_site_fract_y
_atom_site_fract_z
Si Si1 0.214543 0.410490 0.400496
Si Si2 0.850444 0.321791 0.717516
Si Si3 0.436941 0.563585 0.975584
Si Si4 0.261135 0.043678 0.243587
Si Si5 0.190296 0.548712 0.797186
Si Si6 0.450867 0.894128 0.423418
Si Si7 0.752049 0.042166 0.404421
Si Si8 0.298731 0.953512 0.529298
O O1 0.178791 0.510712 0.367418
O O2 0.346279 0.503319 0.437681
O O3 0.229065 0.335095 0.336691
O O4 0.094738 0.325497 0.449956
O O5 0.700236 0.231172 0.711953
O O6 0.861581 0.374170 0.793243
O O7 0.889109 0.420086 0.656105
O O8 0.919751 0.236437 0.714553
O O9 0.540854 0.626366 0.916856
O O10 0.438920 0.438920 0.000000
O O11 0.416363 0.120172 0.243905
O O12 0.220606 0.145066 0.266405
O O13 0.214939 0.000000 0.166667
O O14 0.340105 0.586797 0.787060
O O15 0.364923 0.944996 0.460362
O O16 0.604932 0.984572 0.429922
O O17 0.849017 0.150874 0.456522
#
# Coordination Sequence:
#
# PCOD9576486 Si02
#       8
#     6   6   6   6   6   6   6   6
#     4  10  20  38  64  93 125 165 204 263 330 393
#     4  11  20  37  59  89 127 162 211 263 322 381
#     4   9  18  32  56  89 122 154 203 256 319 372
#     4   9  21  40  61  83 121 173 217 257 319 382
#     4  10  20  37  60  92 126 162 203 269 336 376
#     4  11  22  35  63  97 124 162 214 271 320 391
#     4  10  22  41  64  88 127 169 215 262 320 382
#     4  10  22  38  62  92 125 169 205 264 324 389
#
# _framework density 19.275462000000001
#
# number of rings (size 3 to 8) (size 9 to 14) (size 15 to 20)
#    0.000    2.000    2.500    1.875    1.750    0.000 
#    4.500    1.250    0.000    0.000    0.000    0.000 
#    0.000    0.000    0.000    0.000    0.000    0.000 
#
# Total GULP energy -267413.695997 kJ/mol
# GULP energy per Si atom -5571.118667 kJ/mol
# Density = 1.923159 g / cm^3
# Si number density = 19.275462 Si / 1000 Ang^3
#
#
#
# Elastic Constant Matrix: (Units=GPa)
#
#
# Indices 1 2 3 4 5 6 
#
# 1 82.0829 37.7887 18.7384 -2.3155 0.0002 0.0000
# 2 37.7887 82.0829 18.7384 2.3155 -0.0002 0.0000
# 3 18.7384 18.7384 55.7259 0.0000 0.0000 0.0000
# 4 -2.3155 2.3155 0.0000 12.0930 0.0000 -0.0002
# 5 0.0002 -0.0002 0.0000 0.0000 12.0930 -2.3155
# 6 0.0000 0.0000 0.0000 -0.0002 -2.3155 22.1471
#
#
#
# Elastic Compliance Matrix: (Units=1/GPa)
#
#
# Indices 1 2 3 4 5 6 
#
# 1 0.016180 -0.006858 -0.003135 0.004411 0.000000 0.000000
# 2 -0.006858 0.016180 -0.003135 -0.004411 0.000000 0.000000
# 3 -0.003135 -0.003135 0.020053 0.000000 0.000000 0.000000
# 4 0.004411 -0.004411 0.000000 0.084382 0.000000 0.000001
# 5 0.000000 0.000000 0.000000 0.000000 0.084382 0.008822
# 6 0.000000 0.000000 0.000000 0.000001 0.008822 0.046075
#
#
# Mechanical properties :
#
#
# Convention : Reuss Voigt Hill
#
# Bulk Modulus (GPa) = 38.22796 41.15808 39.69302
# Shear Modulus (GPa) = 16.54394 18.90835 17.72614
#
# Velocity S-wave (km/s) = 2.93284 3.13542 3.03582
# Velocity P-wave (km/s) = 5.59859 5.87424 5.73807
#
# Compressibility (1/GPa) = 0.02615886
#
# Stress axis : x y z
#
# Youngs Moduli (GPa) = 61.80497 61.80497 49.86755
#
# Poissons Ratio (x) = 0.42384 0.15632
# Poissons Ratio (y) = 0.42384 0.15632
# Poissons Ratio (z) = 0.19374 0.19374
#
# Static dielectric constant tensor:
#      x y z
#    x 1.710100 0.000000 0.000000 
#    y 0.000000 1.710100 0.000000 
#    z 0.000000 0.000000 1.704420 
# 
# From -- ./inp_files/2870.got.cif
#   From: 2010.05.17/outbox.cif.g08.bks.cpg/sg154_2_cif.got.tgz:2870.got - 2010.05.20 10:41:43.
