data_PCOD9576918
_publ_section_title
;
Structure prediction by ZEFSAII (Michael W. Deem and Ramdas Pophale) SiO2 
 PCOD9576918
Probable space group: R 3 2
;
_chemical_formula_sum "Si O2"
_cell_formula_units_Z 126
_cell_length_a 20.226535
_cell_length_b 20.226535
_cell_length_c 17.528455
_cell_angle_alpha 90.000000
_cell_angle_beta 90.000000
_cell_angle_gamma 120.000000
_cell_volume 6210.366784
_symmetry_space_group_name_H-M "R 3 2"
_symmetry_group_IT_number 155
_symmetry_cell_setting 'hexagonal'
loop_
_space_group_symop_operation_xyz
x,y,z
-y,x-y,z
-x+y,-x,z
x-y,-y,-z
-x,-x+y,-z
y,x,-z
2/3+x,1/3+y,1/3+z
2/3-y,1/3+x-y,1/3+z
2/3-x+y,1/3-x,1/3+z
2/3+x-y,1/3-y,1/3-z
2/3-x,1/3-x+y,1/3-z
2/3+y,1/3+x,1/3-z
1/3+x,2/3+y,2/3+z
1/3-y,2/3+x-y,2/3+z
1/3-x+y,2/3-x,2/3+z
1/3+x-y,2/3-y,2/3-z
1/3-x,2/3-x+y,2/3-z
1/3+y,2/3+x,2/3-z
loop_
_atom_site_type_symbol
_atom_site_label
_atom_site_fract_x
_atom_site_fract_y
_atom_site_fract_z
Si Si1 0.923959 0.746301 0.526895
Si Si2 0.477409 0.680464 0.753876
Si Si3 0.571370 0.605413 0.757789
Si Si4 0.277436 0.276656 0.239554
Si Si5 0.697294 0.773052 0.415644
Si Si6 0.481771 0.832563 0.803723
Si Si7 0.440282 0.459655 0.706050
O O1 0.936511 0.686592 0.579837
O O2 0.858972 0.760073 0.561619
O O3 0.901173 0.701023 0.446944
O O4 0.000000 0.820648 0.500000
O O5 0.447684 0.666667 0.666667
O O6 0.553657 0.673824 0.754030
O O7 0.490500 0.760226 0.783908
O O8 0.414114 0.607702 0.801595
O O9 0.655271 0.617319 0.746888
O O10 0.552616 0.579330 0.846528
O O11 0.515347 0.542474 0.696951
O O12 0.333334 0.295437 0.166667
O O13 0.195037 0.207971 0.213369
O O14 0.315537 0.251879 0.306582
O O15 0.666667 0.775854 0.333334
O O16 0.519920 0.897720 0.738017
#
# Coordination Sequence:
#
# PCOD9576918 Si02
#       7
#    18  18  18  18  18  18  18
#     4   9  20  35  56  92 116 155 202 257 329 382
#     4  11  22  36  60  82 128 166 212 261 313 381
#     4   9  21  39  56  88 122 168 212 258 317 392
#     4  10  22  35  60  85 119 161 201 260 315 372
#     4  10  20  37  60  83 123 163 210 264 318 389
#     4  10  23  39  58  93 118 174 219 258 319 391
#     4   9  20  39  59  83 130 152 208 266 314 378
#
# _framework density 20.288656
#
# number of rings (size 3 to 8) (size 9 to 14) (size 15 to 20)
#    0.000    2.286    0.000    2.000    8.000    5.143 
#    2.571    0.000    0.000    0.000    0.000    0.000 
#   45.714    0.000    1.143    0.000    0.000    0.000 
#
# Total GULP energy -233965.542817 kJ/mol
# GULP energy per Si atom -5570.608162 kJ/mol
# Density = 2.024248 g / cm^3
# Si number density = 20.288656 Si / 1000 Ang^3
#
#
#
# Elastic Constant Matrix: (Units=GPa)
#
#
# Indices 1 2 3 4 5 6 
#
# 1 118.3117 63.6867 21.7147 3.6816 -0.0002 0.0000
# 2 63.6867 118.3117 21.7147 -3.6816 0.0002 0.0000
# 3 21.7147 21.7147 74.9933 0.0000 0.0000 0.0000
# 4 3.6816 -3.6816 0.0000 24.2287 0.0000 0.0002
# 5 -0.0002 0.0002 0.0000 0.0000 24.2287 3.6816
# 6 0.0000 0.0000 0.0000 0.0002 3.6816 27.3125
#
#
#
# Elastic Compliance Matrix: (Units=1/GPa)
#
#
# Indices 1 2 3 4 5 6 
#
# 1 0.012296 -0.006394 -0.001709 -0.002840 0.000000 0.000000
# 2 -0.006394 0.012296 -0.001709 0.002840 0.000000 0.000000
# 3 -0.001709 -0.001709 0.014324 0.000000 0.000000 0.000000
# 4 -0.002840 0.002840 0.000000 0.042136 0.000000 0.000000
# 5 0.000000 0.000000 0.000000 0.000000 0.042136 -0.005680
# 6 0.000000 0.000000 0.000000 0.000000 -0.005680 0.037379
#
#
# Mechanical properties :
#
#
# Convention : Reuss Voigt Hill
#
# Bulk Modulus (GPa) = 51.83289 58.42765 55.13027
# Shear Modulus (GPa) = 26.79213 28.78736 27.78974
#
# Velocity S-wave (km/s) = 3.63788 3.77090 3.70499
# Velocity P-wave (km/s) = 6.57637 6.91522 6.74793
#
# Compressibility (1/GPa) = 0.01929277
#
# Stress axis : x y z
#
# Youngs Moduli (GPa) = 81.32784 81.32784 69.81159
#
# Poissons Ratio (x) = 0.51997 0.11931
# Poissons Ratio (y) = 0.51997 0.11931
# Poissons Ratio (z) = 0.13899 0.13899
#
# Static dielectric constant tensor:
#      x y z
#    x 1.806840 0.000000 0.000000 
#    y 0.000000 1.806840 0.000000 
#    z 0.000000 0.000000 1.763270 
# 
# From -- ./inp_files/6251.got.cif
#   From: 2010.05.17/outbox.cif.g08.bks.cpg/sg155_4_cif.got.tgz:6251.got - 2010.05.20 10:44:35.
