data_PCOD9576444
_publ_section_title
;
Structure prediction by ZEFSAII (Michael W. Deem and Ramdas Pophale) SiO2 
 PCOD9576444
Probable space group: P 32 2 1
;
_chemical_formula_sum "Si O2"
_cell_formula_units_Z 33
_cell_length_a 15.560550
_cell_length_b 15.560550
_cell_length_c 7.482913
_cell_angle_alpha 90.000000
_cell_angle_beta 90.000000
_cell_angle_gamma 120.000000
_cell_volume 1569.102139
_symmetry_space_group_name_H-M "P 32 2 1"
_symmetry_group_IT_number 154
_symmetry_cell_setting 'hexagonal'
loop_
_space_group_symop_operation_xyz
x,y,z
-y,x-y,2/3+z
-x+y,-x,1/3+z
x-y,-y,1/3-z
-x,-x+y,2/3-z
y,x,-z
loop_
_atom_site_type_symbol
_atom_site_label
_atom_site_fract_x
_atom_site_fract_y
_atom_site_fract_z
Si Si1 0.787618 0.162597 0.846990
Si Si2 0.679759 0.404509 0.397061
Si Si3 0.057513 0.453035 0.505262
Si Si4 0.000000 0.301647 0.833334
Si Si5 0.523582 0.782181 0.115316
Si Si6 0.631266 0.027496 0.379932
O O1 0.761528 0.242502 0.760382
O O2 0.900052 0.198236 0.793490
O O3 0.784199 0.180868 0.058970
O O4 0.698978 0.049871 0.841002
O O5 0.655969 0.371758 0.191799
O O6 0.570624 0.363215 0.486997
O O7 0.028279 0.379182 0.671353
O O8 0.173551 0.506204 0.451099
O O9 0.024683 0.533077 0.548662
O O10 0.000000 0.391309 0.333334
O O11 0.574921 0.857099 0.952536
O O12 0.616957 0.000000 0.166667
#
# Coordination Sequence:
#
# PCOD9576444 Si02
#       6
#     6   6   6   3   6   6
#     4   9  20  32  57  81 104 159 193 235 295 334
#     4  10  20  31  48  75 104 147 190 227 280 328
#     4  11  23  36  57  83 111 158 199 239 295 345
#     4  10  20  40  54  76 120 150 200 252 290 348
#     4   9  19  36  52  76 117 150 187 238 289 350
#     4  10  19  37  58  81 116 155 200 243 286 349
#
# _framework density 21.031134000000002
#
# number of rings (size 3 to 8) (size 9 to 14) (size 15 to 20)
#    0.000    2.182    0.909    3.273    7.636    0.000 
#    3.273    0.000    0.000    0.000    0.000    0.000 
#   13.636    0.000    0.364    0.000    1.091    0.000 
#
# Total GULP energy -184061.735234 kJ/mol
# GULP energy per Si atom -5577.628340 kJ/mol
# Density = 2.098327 g / cm^3
# Si number density = 21.031134 Si / 1000 Ang^3
#
#
#
# Elastic Constant Matrix: (Units=GPa)
#
#
# Indices 1 2 3 4 5 6 
#
# 1 106.6805 52.6445 37.0731 -1.5215 -0.0001 0.0000
# 2 52.6445 106.6805 37.0731 1.5215 0.0001 0.0000
# 3 37.0731 37.0731 90.1802 0.0000 0.0000 0.0000
# 4 -1.5215 1.5215 0.0000 19.3294 0.0000 0.0001
# 5 -0.0001 0.0001 0.0000 0.0000 19.3294 -1.5215
# 6 0.0000 0.0000 0.0000 0.0001 -1.5215 27.0180
#
#
#
# Elastic Compliance Matrix: (Units=1/GPa)
#
#
# Indices 1 2 3 4 5 6 
#
# 1 0.013175 -0.005414 -0.003191 0.001463 0.000000 0.000000
# 2 -0.005414 0.013175 -0.003191 -0.001463 0.000000 0.000000
# 3 -0.003191 -0.003191 0.013712 0.000000 0.000000 0.000000
# 4 0.001463 -0.001463 0.000000 0.051965 0.000000 0.000000
# 5 0.000000 0.000000 0.000000 0.000000 0.051965 0.002926
# 6 0.000000 0.000000 0.000000 0.000000 0.002926 0.037177
#
#
# Mechanical properties :
#
#
# Convention : Reuss Voigt Hill
#
# Bulk Modulus (GPa) = 60.70824 61.90252 61.30538
# Shear Modulus (GPa) = 23.78115 24.91869 24.34992
#
# Velocity S-wave (km/s) = 3.36632 3.44590 3.40634
# Velocity P-wave (km/s) = 6.63612 6.73275 6.68461
#
# Compressibility (1/GPa) = 0.01647223
#
# Stress axis : x y z
#
# Youngs Moduli (GPa) = 75.90142 75.90142 72.92724
#
# Poissons Ratio (x) = 0.41090 0.23269
# Poissons Ratio (y) = 0.41090 0.23269
# Poissons Ratio (z) = 0.24218 0.24218
#
# Static dielectric constant tensor:
#      x y z
#    x 1.874600 0.000000 0.000000 
#    y 0.000000 1.874600 0.000000 
#    z 0.000000 0.000000 1.805580 
# 
# From -- ./inp_files/1141.got.cif
#   From: 2010.05.17/outbox.cif.g08.bks.cpg/sg154_1_cif.got.tgz:1141.got - 2010.05.20 10:41:43.
