data_PCOD9576055
_publ_section_title
;
Structure prediction by ZEFSAII (Michael W. Deem and Ramdas Pophale) SiO2 
 PCOD9576055
Probable space group: P 31 2 1
;
_chemical_formula_sum "Si O2"
_cell_formula_units_Z 24
_cell_length_a 13.382471
_cell_length_b 13.382471
_cell_length_c 6.062581
_cell_angle_alpha 90.000000
_cell_angle_beta 90.000000
_cell_angle_gamma 120.000000
_cell_volume 940.287814
_symmetry_space_group_name_H-M "P 31 2 1"
_symmetry_group_IT_number 152
_symmetry_cell_setting 'hexagonal'
loop_
_space_group_symop_operation_xyz
x,y,z
-y,x-y,1/3+z
-x+y,-x,2/3+z
x-y,-y,2/3-z
-x,-x+y,1/3-z
y,x,-z
loop_
_atom_site_type_symbol
_atom_site_label
_atom_site_fract_x
_atom_site_fract_y
_atom_site_fract_z
Si Si1 0.519156 0.743116 0.562832
Si Si2 0.753926 0.109622 0.733060
Si Si3 0.584888 0.118702 0.434612
Si Si4 0.772633 0.772633 0.500000
Si Si5 0.790760 0.790760 0.000000
O O1 0.552115 0.843486 0.741459
O O2 0.450180 0.774384 0.384504
O O3 0.457271 0.626269 0.703006
O O4 0.644355 0.758853 0.494803
O O5 0.669602 0.076930 0.532732
O O6 0.880475 0.207803 0.672856
O O7 0.755368 0.000000 0.833334
O O8 0.481155 0.000000 0.333334
O O9 0.829630 0.831927 0.260220
#
# Coordination Sequence:
#
# PCOD9576055 Si02
#       5
#     6   6   6   3   3
#     4  11  27  46  75 111 154 208 263 330 397 482
#     4  11  24  47  77 111 154 208 262 331 408 481
#     4  12  27  49  78 113 155 209 265 330 405 491
#     4  10  22  44  74 110 152 206 262 318 398 460
#     4  10  22  44  80 112 150 206 264 332 394 472
#
# _framework density 25.524097000000001
#
# number of rings (size 3 to 8) (size 9 to 14) (size 15 to 20)
#    0.000    1.000    5.000    0.000    8.750    4.000 
#    0.000    2.500   13.750    0.000    0.000    0.000 
#    0.000    0.000    0.000    0.000    0.000    0.000 
#
# Total GULP energy -133609.953471 kJ/mol
# GULP energy per Si atom -5567.081395 kJ/mol
# Density = 2.546600 g / cm^3
# Si number density = 25.524097 Si / 1000 Ang^3
#
#
#
# Elastic Constant Matrix: (Units=GPa)
#
#
# Indices 1 2 3 4 5 6 
#
# 1 106.0092 42.4455 41.4040 2.1130 0.0000 0.0000
# 2 42.4455 106.0092 41.4040 -2.1130 0.0000 0.0000
# 3 41.4040 41.4040 160.6004 0.0000 0.0000 0.0000
# 4 2.1130 -2.1130 0.0000 40.5503 0.0000 0.0000
# 5 0.0000 0.0000 0.0000 0.0000 40.5503 2.1130
# 6 0.0000 0.0000 0.0000 0.0000 2.1130 31.7819
#
#
#
# Elastic Compliance Matrix: (Units=1/GPa)
#
#
# Indices 1 2 3 4 5 6 
#
# 1 0.011827 -0.003960 -0.002028 -0.000823 0.000000 0.000000
# 2 -0.003960 0.011827 -0.002028 0.000823 0.000000 0.000000
# 3 -0.002028 -0.002028 0.007272 0.000000 0.000000 0.000000
# 4 -0.000823 0.000823 0.000000 0.024746 0.000000 0.000000
# 5 0.000000 0.000000 0.000000 0.000000 0.024746 -0.001645
# 6 0.000000 0.000000 0.000000 0.000000 -0.001645 0.031574
#
#
# Mechanical properties :
#
#
# Convention : Reuss Voigt Hill
#
# Bulk Modulus (GPa) = 67.14030 69.23620 68.18825
# Shear Modulus (GPa) = 37.59656 39.06754 38.33205
#
# Velocity S-wave (km/s) = 3.84211 3.91655 3.87951
# Velocity P-wave (km/s) = 6.78559 6.90197 6.84403
#
# Compressibility (1/GPa) = 0.01489418
#
# Stress axis : x y z
#
# Youngs Moduli (GPa) = 84.55099 84.55099 137.50533
#
# Poissons Ratio (x) = 0.33480 0.27890
# Poissons Ratio (y) = 0.33480 0.27890
# Poissons Ratio (z) = 0.17149 0.17149
#
# Static dielectric constant tensor:
#      x y z
#    x 2.037510 0.000000 0.000000 
#    y 0.000000 2.037510 0.000000 
#    z 0.000000 0.000000 2.242530 
# 
# From -- ./inp_files/191.got.cif
#   From: 2010.05.17/outbox.cif.g08.bks.cpg/sg152_1_cif.got.tgz:191.got - 2010.05.20 10:36:06.
