data_PCOD9576509
_publ_section_title
;
Structure prediction by ZEFSAII (Michael W. Deem and Ramdas Pophale) SiO2 
 PCOD9576509
Probable space group: P 32 2 1
;
_chemical_formula_sum "Si O2"
_cell_formula_units_Z 42
_cell_length_a 20.073719
_cell_length_b 20.073719
_cell_length_c 5.741362
_cell_angle_alpha 90.000000
_cell_angle_beta 90.000000
_cell_angle_gamma 120.000000
_cell_volume 2003.554881
_symmetry_space_group_name_H-M "P 32 2 1"
_symmetry_group_IT_number 154
_symmetry_cell_setting 'hexagonal'
loop_
_space_group_symop_operation_xyz
x,y,z
-y,x-y,2/3+z
-x+y,-x,1/3+z
x-y,-y,1/3-z
-x,-x+y,2/3-z
y,x,-z
loop_
_atom_site_type_symbol
_atom_site_label
_atom_site_fract_x
_atom_site_fract_y
_atom_site_fract_z
Si Si1 0.000000 0.311474 0.333334
Si Si2 0.238565 0.284421 0.746887
Si Si3 0.085068 0.408971 0.946859
Si Si4 0.811362 0.730442 0.604560
Si Si5 0.661926 0.127389 0.948236
Si Si6 0.257008 0.653386 0.306064
Si Si7 0.132156 0.554968 0.672236
Si Si8 0.000000 0.516104 0.333334
O O1 0.936724 0.327411 0.452331
O O2 0.051985 0.288872 0.490491
O O3 0.261948 0.261948 0.500000
O O4 0.146749 0.248118 0.735766
O O5 0.275647 0.376612 0.721698
O O6 0.264348 0.264348 0.000000
O O7 0.112989 0.349860 0.871693
O O8 0.131610 0.495203 0.859353
O O9 0.000000 0.369797 0.833334
O O10 0.795088 0.795088 0.500000
O O11 0.685165 0.205841 0.811479
O O12 0.589893 0.059978 0.811444
O O13 0.626432 0.132345 0.196248
O O14 0.284275 0.616217 0.107893
O O15 0.203238 0.589899 0.496060
O O16 0.053847 0.508535 0.524618
#
# Coordination Sequence:
#
# PCOD9576509 Si02
#       8
#     3   6   6   6   6   6   6   3
#     4   8  18  39  66  98 136 177 224 288 340 433
#     4  12  28  48  75 114 148 189 237 293 364 445
#     4   9  19  36  59  98 134 172 234 277 359 411
#     4   9  22  42  71 100 142 181 225 281 353 424
#     4  11  24  43  67  94 136 177 237 297 362 441
#     4  11  26  47  64  88 127 183 249 309 376 435
#     4  11  23  38  65  96 131 184 229 305 357 443
#     4  10  20  39  62  90 134 171 218 282 360 421
#
# _framework density 20.962738000000002
#
# number of rings (size 3 to 8) (size 9 to 14) (size 15 to 20)
#    0.000    2.000    0.714    3.000    6.000   10.857 
#    0.000    4.286    0.000    0.857    0.000    0.000 
#    0.000    0.000    0.000    0.000    0.000    0.000 
#
# Total GULP energy -234404.220816 kJ/mol
# GULP energy per Si atom -5581.052877 kJ/mol
# Density = 2.091503 g / cm^3
# Si number density = 20.962738 Si / 1000 Ang^3
#
#
#
# Elastic Constant Matrix: (Units=GPa)
#
#
# Indices 1 2 3 4 5 6 
#
# 1 102.0706 74.9308 54.4914 6.0407 -0.0001 0.0000
# 2 74.9308 102.0706 54.4914 -6.0407 0.0001 0.0000
# 3 54.4914 54.4914 117.7319 0.0000 0.0000 0.0000
# 4 6.0407 -6.0407 0.0000 25.0449 0.0000 0.0001
# 5 -0.0001 0.0001 0.0000 0.0000 25.0449 6.0407
# 6 0.0000 0.0000 0.0000 0.0001 6.0407 13.5699
#
#
#
# Elastic Compliance Matrix: (Units=1/GPa)
#
#
# Indices 1 2 3 4 5 6 
#
# 1 0.024590 -0.016688 -0.003657 -0.009956 0.000000 0.000000
# 2 -0.016688 0.024590 -0.003657 0.009956 0.000000 0.000000
# 3 -0.003657 -0.003657 0.011879 0.000000 0.000000 0.000000
# 4 -0.009956 0.009956 0.000000 0.044731 0.000000 0.000000
# 5 0.000000 0.000000 0.000000 0.000000 0.044731 -0.019912
# 6 0.000000 0.000000 0.000000 0.000000 -0.019912 0.082557
#
#
# Mechanical properties :
#
#
# Convention : Reuss Voigt Hill
#
# Bulk Modulus (GPa) = 76.60728 76.63336 76.62032
# Shear Modulus (GPa) = 17.51716 21.92923 19.72320
#
# Velocity S-wave (km/s) = 2.89387 3.23786 3.07069
# Velocity P-wave (km/s) = 6.91302 7.11440 7.01443
#
# Compressibility (1/GPa) = 0.01305359
#
# Stress axis : x y z
#
# Youngs Moduli (GPa) = 40.66712 40.66712 84.18055
#
# Poissons Ratio (x) = 0.67867 0.30786
# Poissons Ratio (y) = 0.67867 0.30786
# Poissons Ratio (z) = 0.14872 0.14872
#
# Static dielectric constant tensor:
#      x y z
#    x 1.759260 0.000000 0.000000 
#    y 0.000000 1.759260 0.000000 
#    z 0.000000 0.000000 1.884730 
# 
# From -- ./inp_files/548.got.cif
#   From: 2010.05.17/outbox.cif.g08.bks.cpg/sg154_1_cif.got.tgz:548.got - 2010.05.20 10:41:43.
