data_PCOD9576010
_publ_section_title
;
Structure prediction by ZEFSAII (Michael W. Deem and Ramdas Pophale) SiO2 
 PCOD9576010
Probable space group: P 31 2 1
;
_chemical_formula_sum "Si O2"
_cell_formula_units_Z 39
_cell_length_a 8.387843
_cell_length_b 8.387843
_cell_length_c 28.159669
_cell_angle_alpha 90.000000
_cell_angle_beta 90.000000
_cell_angle_gamma 120.000000
_cell_volume 1715.768788
_symmetry_space_group_name_H-M "P 31 2 1"
_symmetry_group_IT_number 152
_symmetry_cell_setting 'hexagonal'
loop_
_space_group_symop_operation_xyz
x,y,z
-y,x-y,1/3+z
-x+y,-x,2/3+z
x-y,-y,2/3-z
-x,-x+y,1/3-z
y,x,-z
loop_
_atom_site_type_symbol
_atom_site_label
_atom_site_fract_x
_atom_site_fract_y
_atom_site_fract_z
Si Si1 0.616206 0.548319 0.429439
Si Si2 0.998069 0.606962 0.872809
Si Si3 0.727946 0.629598 0.934933
Si Si4 0.694516 0.067107 0.236048
Si Si5 0.000000 0.689409 0.166667
Si Si6 0.758852 0.729576 0.246488
Si Si7 0.663169 0.945276 0.971845
O O1 0.823824 0.608885 0.440224
O O2 0.599470 0.729566 0.435495
O O3 0.489881 0.385458 0.466364
O O4 0.524954 0.455427 0.379528
O O5 0.010107 0.602897 0.816114
O O6 0.819037 0.619791 0.886137
O O7 0.993164 0.436654 0.899820
O O8 0.527942 0.450085 0.937907
O O9 0.703886 0.804394 0.942052
O O10 0.870750 0.643943 0.975223
O O11 0.748428 0.914988 0.251428
O O12 0.119524 0.857886 0.132299
O O13 0.856536 0.691863 0.291298
#
# Coordination Sequence:
#
# PCOD9576010 Si02
#       7
#     6   6   6   6   3   6   6
#     4  11  23  42  68 101 145 178 236 284 357 413
#     4  12  25  40  69 109 141 187 228 299 355 419
#     4  11  25  47  71  98 145 182 246 285 357 428
#     4  12  25  43  70 109 141 186 232 301 351 423
#     4  10  22  40  62  98 144 180 222 292 340 420
#     4  11  26  40  69 102 143 182 242 282 360 415
#     4  10  25  47  68  99 136 197 227 298 350 422
#
# _framework density 22.730336000000001
#
# number of rings (size 3 to 8) (size 9 to 14) (size 15 to 20)
#    0.000    0.923    1.538    4.615   12.923    2.462 
#    0.000    9.231    0.000    0.000    0.000    0.000 
#    0.000    0.000    0.000    0.000    0.000    0.000 
#
# Total GULP energy -218233.222998 kJ/mol
# GULP energy per Si atom -5595.723667 kJ/mol
# Density = 2.267860 g / cm^3
# Si number density = 22.730336 Si / 1000 Ang^3
#
#
#
# Elastic Constant Matrix: (Units=GPa)
#
#
# Indices 1 2 3 4 5 6 
#
# 1 70.4279 -12.1278 27.6307 8.6441 0.0001 0.0000
# 2 -12.1278 70.4279 27.6307 -8.6441 -0.0001 0.0000
# 3 27.6307 27.6307 55.0074 0.0000 0.0000 0.0000
# 4 8.6441 -8.6441 0.0000 27.3388 0.0000 -0.0001
# 5 0.0001 -0.0001 0.0000 0.0000 27.3388 8.6441
# 6 0.0000 0.0000 0.0000 -0.0001 8.6441 41.2778
#
#
#
# Elastic Compliance Matrix: (Units=1/GPa)
#
#
# Indices 1 2 3 4 5 6 
#
# 1 0.022857 0.009885 -0.016447 -0.004102 0.000000 0.000000
# 2 0.009885 0.022857 -0.016447 0.004102 0.000000 0.000000
# 3 -0.016447 -0.016447 0.034702 0.000000 0.000000 0.000000
# 4 -0.004102 0.004102 0.000000 0.039172 0.000000 0.000000
# 5 0.000000 0.000000 0.000000 0.000000 0.039172 -0.008203
# 6 0.000000 0.000000 0.000000 0.000000 -0.008203 0.025944
#
#
# Mechanical properties :
#
#
# Convention : Reuss Voigt Hill
#
# Bulk Modulus (GPa) = 29.07019 31.34785 30.20902
# Shear Modulus (GPa) = 20.64530 29.37308 25.00919
#
# Velocity S-wave (km/s) = 3.01702 3.59868 3.32061
# Velocity P-wave (km/s) = 4.99535 5.57570 5.29348
#
# Compressibility (1/GPa) = 0.03439950
#
# Stress axis : x y z
#
# Youngs Moduli (GPa) = 43.75032 43.75032 28.81684
#
# Poissons Ratio (x) = -0.43247 0.47394
# Poissons Ratio (y) = -0.43247 0.47394
# Poissons Ratio (z) = 0.71954 0.71954
#
# Static dielectric constant tensor:
#      x y z
#    x 1.855110 0.000000 0.000000 
#    y 0.000000 1.855110 0.000000 
#    z 0.000000 0.000000 1.886130 
# 
# From -- ./inp_files/3628.got.cif
#   From: 2010.05.17/outbox.cif.g08.bks.cpg/sg152_2_cif.got.tgz:3628.got - 2010.05.20 10:36:06.
