data_PCOD9576539
_publ_section_title
;
Structure prediction by ZEFSAII (Michael W. Deem and Ramdas Pophale) SiO2 
 PCOD9576539
Probable space group: P 32 2 1
;
_chemical_formula_sum "Si O2"
_cell_formula_units_Z 30
_cell_length_a 12.976454
_cell_length_b 12.976454
_cell_length_c 8.288107
_cell_angle_alpha 90.000000
_cell_angle_beta 90.000000
_cell_angle_gamma 120.000000
_cell_volume 1208.643008
_symmetry_space_group_name_H-M "P 32 2 1"
_symmetry_group_IT_number 154
_symmetry_cell_setting 'hexagonal'
loop_
_space_group_symop_operation_xyz
x,y,z
-y,x-y,2/3+z
-x+y,-x,1/3+z
x-y,-y,1/3-z
-x,-x+y,2/3-z
y,x,-z
loop_
_atom_site_type_symbol
_atom_site_label
_atom_site_fract_x
_atom_site_fract_y
_atom_site_fract_z
Si Si1 0.853421 0.767977 0.150109
Si Si2 0.000000 0.657266 0.833334
Si Si3 0.255767 0.133671 0.290558
Si Si4 0.433680 0.951189 0.330597
Si Si5 0.250840 0.451141 0.990122
Si Si6 0.000000 0.477097 0.333334
O O1 0.811055 0.810574 0.309097
O O2 0.827782 0.635710 0.189878
O O3 0.993899 0.839917 0.109504
O O4 0.790202 0.790202 0.000000
O O5 0.000763 0.574896 0.978713
O O6 0.896711 0.682934 0.784436
O O7 0.362711 0.193887 0.161960
O O8 0.343724 0.809700 0.325612
O O9 0.418714 0.002355 0.497936
O O10 0.407774 0.000000 0.166667
O O11 0.391766 0.508839 0.989085
#
# Coordination Sequence:
#
# PCOD9576539 Si02
#       6
#     6   3   6   6   6   3
#     4  12  24  36  64 105 148 193 236 282 360 454
#     4  10  20  46  68  90 140 196 238 300 364 418
#     4  12  23  43  66 102 153 194 235 296 370 440
#     4  10  24  46  74 103 139 191 248 301 368 436
#     4  12  24  46  71 105 143 194 236 314 372 426
#     4  12  24  50  82 102 148 192 252 308 374 436
#
# _framework density 24.821224999999998
#
# number of rings (size 3 to 8) (size 9 to 14) (size 15 to 20)
#    0.600    0.000    6.000    1.800    1.400    4.800 
#    0.000    2.000    0.000    0.000    0.000    0.000 
#    0.000    0.000    0.000    0.000    0.000    0.000 
#
# Total GULP energy -167375.409328 kJ/mol
# GULP energy per Si atom -5579.180311 kJ/mol
# Density = 2.476473 g / cm^3
# Si number density = 24.821225 Si / 1000 Ang^3
#
#
#
# Elastic Constant Matrix: (Units=GPa)
#
#
# Indices 1 2 3 4 5 6 
#
# 1 84.3976 20.3186 27.7216 13.9489 0.0000 0.0000
# 2 20.3186 84.3976 27.7216 -13.9489 0.0000 0.0000
# 3 27.7216 27.7216 140.3565 0.0000 0.0000 0.0000
# 4 13.9489 -13.9489 0.0000 15.5361 0.0000 0.0000
# 5 0.0000 0.0000 0.0000 0.0000 15.5361 13.9489
# 6 0.0000 0.0000 0.0000 0.0000 13.9489 32.0395
#
#
#
# Elastic Compliance Matrix: (Units=1/GPa)
#
#
# Indices 1 2 3 4 5 6 
#
# 1 0.018143 -0.007478 -0.002106 -0.023003 0.000000 0.000000
# 2 -0.007478 0.018143 -0.002106 0.023003 0.000000 0.000000
# 3 -0.002106 -0.002106 0.007957 0.000000 0.000000 0.000000
# 4 -0.023003 0.023003 0.000000 0.105672 0.000000 0.000000
# 5 0.000000 0.000000 0.000000 0.000000 0.105672 -0.046006
# 6 0.000000 0.000000 0.000000 0.000000 -0.046006 0.051241
#
#
# Mechanical properties :
#
#
# Convention : Reuss Voigt Hill
#
# Bulk Modulus (GPa) = 47.93651 51.18613 49.56132
# Shear Modulus (GPa) = 14.82966 28.18167 21.50567
#
# Velocity S-wave (km/s) = 2.44695 3.37320 2.94670
# Velocity P-wave (km/s) = 5.22858 5.98649 5.62032
#
# Compressibility (1/GPa) = 0.02086093
#
# Stress axis : x y z
#
# Youngs Moduli (GPa) = 55.11871 55.11871 125.67898
#
# Poissons Ratio (x) = 0.41217 0.26473
# Poissons Ratio (y) = 0.41217 0.26473
# Poissons Ratio (z) = 0.11610 0.11610
#
# Static dielectric constant tensor:
#      x y z
#    x 1.951400 0.000000 0.000000 
#    y 0.000000 1.951400 0.000000 
#    z 0.000000 0.000000 2.086400 
# 
# From -- ./inp_files/1063.got.cif
#   From: 2010.05.17/outbox.cif.g08.bks.cpg/sg154_1_cif.got.tgz:1063.got - 2010.05.20 10:41:43.
