data_PCOD9576649
_publ_section_title
;
Structure prediction by ZEFSAII (Michael W. Deem and Ramdas Pophale) SiO2 
 PCOD9576649
Probable space group: P 32 2 1
;
_chemical_formula_sum "Si O2"
_cell_formula_units_Z 24
_cell_length_a 11.927667
_cell_length_b 11.927667
_cell_length_c 9.377004
_cell_angle_alpha 90.000000
_cell_angle_beta 90.000000
_cell_angle_gamma 120.000000
_cell_volume 1155.329186
_symmetry_space_group_name_H-M "P 32 2 1"
_symmetry_group_IT_number 154
_symmetry_cell_setting 'hexagonal'
loop_
_space_group_symop_operation_xyz
x,y,z
-y,x-y,2/3+z
-x+y,-x,1/3+z
x-y,-y,1/3-z
-x,-x+y,2/3-z
y,x,-z
loop_
_atom_site_type_symbol
_atom_site_label
_atom_site_fract_x
_atom_site_fract_y
_atom_site_fract_z
Si Si1 0.504216 0.866754 0.582334
Si Si2 0.130044 0.005049 0.396742
Si Si3 0.169398 0.406741 0.160444
Si Si4 0.712776 0.026527 0.998261
O O1 0.528393 0.769062 0.677761
O O2 0.555876 0.881803 0.420947
O O3 0.590998 0.000000 0.666667
O O4 0.361990 0.847734 0.575550
O O5 0.065127 0.065127 0.500000
O O6 0.254130 0.366550 0.257562
O O7 0.220910 0.132789 0.305228
O O8 0.000000 0.883769 0.333334
O O9 0.044096 0.266106 0.128903
O O10 0.683371 0.000000 0.166667
#
# Coordination Sequence:
#
# PCOD9576649 Si02
#       4
#     6   6   6   6
#     4  10  25  45  64  92 137 178 227 267 334 405
#     4  11  21  37  71 102 134 156 219 282 352 387
#     4  11  24  44  66  96 134 182 215 279 332 407
#     4  10  23  42  66 102 132 169 223 276 342 405
#
# _framework density 20.773302000000001
#
# number of rings (size 3 to 8) (size 9 to 14) (size 15 to 20)
#    0.000    1.500    2.500    2.250    7.000    2.000 
#    9.000    0.000    0.000    0.000    0.000    0.000 
#    0.000    0.000    0.000    0.000    0.000    0.000 
#
# Total GULP energy -133775.601152 kJ/mol
# GULP energy per Si atom -5573.983381 kJ/mol
# Density = 2.072602 g / cm^3
# Si number density = 20.773302 Si / 1000 Ang^3
#
#
#
# Elastic Constant Matrix: (Units=GPa)
#
#
# Indices 1 2 3 4 5 6 
#
# 1 74.1142 35.7371 27.8483 2.7024 0.0000 0.0000
# 2 35.7371 74.1142 27.8483 -2.7024 0.0000 0.0000
# 3 27.8483 27.8483 113.4446 0.0000 0.0000 0.0000
# 4 2.7024 -2.7024 0.0000 15.3302 0.0000 0.0000
# 5 0.0000 0.0000 0.0000 0.0000 15.3302 2.7024
# 6 0.0000 0.0000 0.0000 0.0000 2.7024 19.1886
#
#
#
# Elastic Compliance Matrix: (Units=1/GPa)
#
#
# Indices 1 2 3 4 5 6 
#
# 1 0.018559 -0.008162 -0.002552 -0.004710 0.000000 0.000000
# 2 -0.008162 0.018559 -0.002552 0.004710 0.000000 0.000000
# 3 -0.002552 -0.002552 0.010068 0.000000 0.000000 0.000000
# 4 -0.004710 0.004710 0.000000 0.066891 0.000000 0.000000
# 5 0.000000 0.000000 0.000000 0.000000 0.066891 -0.009420
# 6 0.000000 0.000000 0.000000 0.000000 -0.009420 0.053441
#
#
# Mechanical properties :
#
#
# Convention : Reuss Voigt Hill
#
# Bulk Modulus (GPa) = 48.41849 49.39335 48.90592
# Shear Modulus (GPa) = 18.66880 21.31908 19.99394
#
# Velocity S-wave (km/s) = 3.00107 3.20702 3.10576
# Velocity P-wave (km/s) = 5.94703 6.12718 6.03778
#
# Compressibility (1/GPa) = 0.02065327
#
# Stress axis : x y z
#
# Youngs Moduli (GPa) = 53.88247 53.88247 99.32503
#
# Poissons Ratio (x) = 0.43977 0.25351
# Poissons Ratio (y) = 0.43977 0.25351
# Poissons Ratio (z) = 0.13753 0.13753
#
# Static dielectric constant tensor:
#      x y z
#    x 1.795900 0.000000 0.000000 
#    y 0.000000 1.795900 0.000000 
#    z 0.000000 0.000000 1.839650 
# 
# From -- ./inp_files/1591.got.cif
#   From: 2010.05.17/outbox.cif.g08.bks.cpg/sg154_1_cif.got.tgz:1591.got - 2010.05.20 10:41:43.
