data_PCOD9576935
_publ_section_title
;
Structure prediction by ZEFSAII (Michael W. Deem and Ramdas Pophale) SiO2 
 PCOD9576935
Probable space group: R 3 2
;
_chemical_formula_sum "Si O2"
_cell_formula_units_Z 81
_cell_length_a 16.150536
_cell_length_b 16.150536
_cell_length_c 16.250649
_cell_angle_alpha 90.000000
_cell_angle_beta 90.000000
_cell_angle_gamma 120.000000
_cell_volume 3670.922552
_symmetry_space_group_name_H-M "R 3 2"
_symmetry_group_IT_number 155
_symmetry_cell_setting 'hexagonal'
loop_
_space_group_symop_operation_xyz
x,y,z
-y,x-y,z
-x+y,-x,z
x-y,-y,-z
-x,-x+y,-z
y,x,-z
2/3+x,1/3+y,1/3+z
2/3-y,1/3+x-y,1/3+z
2/3-x+y,1/3-x,1/3+z
2/3+x-y,1/3-y,1/3-z
2/3-x,1/3-x+y,1/3-z
2/3+y,1/3+x,1/3-z
1/3+x,2/3+y,2/3+z
1/3-y,2/3+x-y,2/3+z
1/3-x+y,2/3-x,2/3+z
1/3+x-y,2/3-y,2/3-z
1/3-x,2/3-x+y,2/3-z
1/3+y,2/3+x,2/3-z
loop_
_atom_site_type_symbol
_atom_site_label
_atom_site_fract_x
_atom_site_fract_y
_atom_site_fract_z
Si Si1 0.786413 0.000000 0.000000
Si Si2 0.763291 0.908053 0.160347
Si Si3 0.106535 0.466433 0.975189
Si Si4 0.895622 0.789573 0.529856
Si Si5 0.277448 0.168097 0.243035
O O1 0.866186 0.065687 0.933085
O O2 0.692603 0.931400 0.948966
O O3 0.782643 0.837346 0.215397
O O4 0.647526 0.854889 0.165591
O O5 0.812659 0.009339 0.207122
O O6 0.180353 0.428608 0.977076
O O7 0.123517 0.550382 0.038204
O O8 0.000000 0.384473 0.000000
O O9 0.817053 0.817053 0.500000
O O10 0.000000 0.866896 0.500000
O O11 0.333334 0.152468 0.166667
#
# Coordination Sequence:
#
# PCOD9576935 Si02
#       5
#     9  18  18  18  18
#     4  10  20  38  68  92 122 178 224 266 322 402
#     4  10  23  40  63  95 132 173 221 276 332 405
#     4  10  24  40  63  99 139 174 218 282 344 402
#     4  11  23  39  62  99 135 177 219 275 344 408
#     4  10  22  40  66  95 126 175 223 272 336 403
#
# _framework density 22.065297999999999
#
# number of rings (size 3 to 8) (size 9 to 14) (size 15 to 20)
#    0.000    1.778    0.000    3.556   10.889    5.333 
#    1.333    3.333    0.000    0.000    0.000    0.000 
#    1.111    0.000    0.000    0.000    0.000    0.000 
#
# Total GULP energy -150705.781023 kJ/mol
# GULP energy per Si atom -5581.695593 kJ/mol
# Density = 2.201508 g / cm^3
# Si number density = 22.065298 Si / 1000 Ang^3
#
#
#
# Elastic Constant Matrix: (Units=GPa)
#
#
# Indices 1 2 3 4 5 6 
#
# 1 62.4141 27.1358 3.9638 9.2148 0.0001 0.0000
# 2 27.1358 62.4141 3.9638 -9.2148 -0.0001 0.0000
# 3 3.9638 3.9638 79.7162 0.0000 0.0000 0.0000
# 4 9.2148 -9.2148 0.0000 20.5451 0.0000 -0.0001
# 5 0.0001 -0.0001 0.0000 0.0000 20.5451 9.2148
# 6 0.0000 0.0000 0.0000 -0.0001 9.2148 17.6392
#
#
#
# Elastic Compliance Matrix: (Units=1/GPa)
#
#
# Indices 1 2 3 4 5 6 
#
# 1 0.024118 -0.012902 -0.000558 -0.016604 0.000000 0.000000
# 2 -0.012902 0.024118 -0.000558 0.016604 0.000000 0.000000
# 3 -0.000558 -0.000558 0.012600 0.000000 0.000000 0.000000
# 4 -0.016604 0.016604 0.000000 0.063568 0.000000 0.000000
# 5 0.000000 0.000000 0.000000 0.000000 0.063568 -0.033208
# 6 0.000000 0.000000 0.000000 0.000000 -0.033208 0.074040
#
#
# Mechanical properties :
#
#
# Convention : Reuss Voigt Hill
#
# Bulk Modulus (GPa) = 30.48620 30.51904 30.50262
# Shear Modulus (GPa) = 16.61232 23.04460 19.82846
#
# Velocity S-wave (km/s) = 2.74683 3.23520 3.00096
# Velocity P-wave (km/s) = 4.88942 5.27414 5.08542
#
# Compressibility (1/GPa) = 0.03280173
#
# Stress axis : x y z
#
# Youngs Moduli (GPa) = 41.46240 41.46240 79.36527
#
# Poissons Ratio (x) = 0.53494 0.04426
# Poissons Ratio (y) = 0.53494 0.04426
# Poissons Ratio (z) = 0.02312 0.02312
#
# Static dielectric constant tensor:
#      x y z
#    x 1.794760 0.000000 0.000000 
#    y 0.000000 1.794760 0.000000 
#    z 0.000000 0.000000 1.970350 
# 
# From -- ./inp_files/4949.got.cif
#   From: 2010.05.17/outbox.cif.g08.bks.cpg/sg155_3_cif.got.tgz:4949.got - 2010.05.20 10:44:35.
