data_PCOD9576431
_publ_section_title
;
Structure prediction by ZEFSAII (Michael W. Deem and Ramdas Pophale) SiO2 
 PCOD9576431
Probable space group: P 32 2 1
;
_chemical_formula_sum "Si O2"
_cell_formula_units_Z 36
_cell_length_a 9.066893
_cell_length_b 9.066893
_cell_length_c 24.053048
_cell_angle_alpha 90.000000
_cell_angle_beta 90.000000
_cell_angle_gamma 120.000000
_cell_volume 1712.449333
_symmetry_space_group_name_H-M "P 32 2 1"
_symmetry_group_IT_number 154
_symmetry_cell_setting 'hexagonal'
loop_
_space_group_symop_operation_xyz
x,y,z
-y,x-y,2/3+z
-x+y,-x,1/3+z
x-y,-y,1/3-z
-x,-x+y,2/3-z
y,x,-z
loop_
_atom_site_type_symbol
_atom_site_label
_atom_site_fract_x
_atom_site_fract_y
_atom_site_fract_z
Si Si1 0.161582 0.362129 0.410100
Si Si2 0.493945 0.389226 0.407725
Si Si3 0.648333 0.175408 0.790737
Si Si4 0.807866 0.613711 0.055669
Si Si5 0.523476 0.802956 0.779901
Si Si6 0.416759 0.976902 0.960163
O O1 0.316483 0.348946 0.434186
O O2 0.178571 0.355373 0.343366
O O3 0.190207 0.546353 0.426792
O O4 0.969536 0.211092 0.421089
O O5 0.648191 0.469303 0.451040
O O6 0.544518 0.523840 0.357149
O O7 0.457074 0.207070 0.382492
O O8 0.550406 0.172101 0.733558
O O9 0.535391 0.202283 0.836919
O O10 0.648798 0.000113 0.795918
O O11 0.949670 0.563397 0.069908
O O12 0.593391 0.725861 0.733627
#
# Coordination Sequence:
#
# PCOD9576431 Si02
#       6
#     6   6   6   6   6   6
#     4   9  18  34  57  79 104 141 178 224 274 321
#     4  10  20  36  56  83 110 138 177 224 277 331
#     4  10  20  33  53  78 106 142 188 224 266 325
#     4   8  16  33  54  77 104 139 181 213 262 334
#     4  11  21  36  56  76 105 147 187 228 270 321
#     4  10  19  34  56  80 109 140 179 222 269 327
#
# _framework density 21.022521999999999
#
# number of rings (size 3 to 8) (size 9 to 14) (size 15 to 20)
#    0.000    2.333    0.000    5.000    0.000    2.667 
#    0.000    8.333    0.000    4.000    0.000    0.000 
#    0.000    0.000    0.000    0.000    0.000    0.000 
#
# Total GULP energy -200473.828852 kJ/mol
# GULP energy per Si atom -5568.717468 kJ/mol
# Density = 2.097467 g / cm^3
# Si number density = 21.022522 Si / 1000 Ang^3
#
#
#
# Elastic Constant Matrix: (Units=GPa)
#
#
# Indices 1 2 3 4 5 6 
#
# 1 99.4671 24.2043 9.6649 -0.0466 0.0000 0.0000
# 2 24.2043 99.4671 9.6649 0.0466 0.0000 0.0000
# 3 9.6649 9.6649 30.4174 0.0000 0.0000 0.0000
# 4 -0.0466 0.0466 0.0000 15.8867 0.0000 0.0000
# 5 0.0000 0.0000 0.0000 0.0000 15.8867 -0.0466
# 6 0.0000 0.0000 0.0000 0.0000 -0.0466 37.6314
#
#
#
# Elastic Compliance Matrix: (Units=1/GPa)
#
#
# Indices 1 2 3 4 5 6 
#
# 1 0.010898 -0.002389 -0.002704 0.000039 0.000000 0.000000
# 2 -0.002389 0.010898 -0.002704 -0.000039 0.000000 0.000000
# 3 -0.002704 -0.002704 0.034594 0.000000 0.000000 0.000000
# 4 0.000039 -0.000039 0.000000 0.062946 0.000000 0.000000
# 5 0.000000 0.000000 0.000000 0.000000 0.062946 0.000078
# 6 0.000000 0.000000 0.000000 0.000000 0.000078 0.026574
#
#
# Mechanical properties :
#
#
# Convention : Reuss Voigt Hill
#
# Bulk Modulus (GPa) = 24.51167 35.15778 29.83472
# Shear Modulus (GPa) = 21.00433 26.26879 23.63656
#
# Velocity S-wave (km/s) = 3.16434 3.53874 3.35676
# Velocity P-wave (km/s) = 5.00357 5.78421 5.40799
#
# Compressibility (1/GPa) = 0.04079690
#
# Stress axis : x y z
#
# Youngs Moduli (GPa) = 91.76276 91.76276 28.90675
#
# Poissons Ratio (x) = 0.21924 0.07815
# Poissons Ratio (y) = 0.21924 0.07815
# Poissons Ratio (z) = 0.24808 0.24808
#
# Static dielectric constant tensor:
#      x y z
#    x 1.811800 0.000000 0.000000 
#    y 0.000000 1.811800 0.000000 
#    z 0.000000 0.000000 1.791990 
# 
# From -- ./inp_files/3454.got.cif
#   From: 2010.05.17/outbox.cif.g08.bks.cpg/sg154_2_cif.got.tgz:3454.got - 2010.05.20 10:41:43.
