data_PCOD9576350
_publ_section_title
;
Structure prediction by ZEFSAII (Michael W. Deem and Ramdas Pophale) SiO2 
 PCOD9576350
Probable space group: P 32 1 2
;
_chemical_formula_sum "Si O2"
_cell_formula_units_Z 24
_cell_length_a 15.703534
_cell_length_b 15.703534
_cell_length_c 4.743096
_cell_angle_alpha 90.000000
_cell_angle_beta 90.000000
_cell_angle_gamma 120.000000
_cell_volume 1012.948451
_symmetry_space_group_name_H-M "P 32 1 2"
_symmetry_group_IT_number 153
_symmetry_cell_setting 'hexagonal'
loop_
_space_group_symop_operation_xyz
x,y,z
-y,x-y,2/3+z
-x+y,-x,1/3+z
-y,-x,1/3-z
-x+y,y,2/3-z
x,x-y,-z
loop_
_atom_site_type_symbol
_atom_site_label
_atom_site_fract_x
_atom_site_fract_y
_atom_site_fract_z
Si Si1 0.886873 0.943437 0.500000
Si Si2 0.265214 0.006277 0.341207
Si Si3 0.724652 0.275349 0.166667
Si Si4 0.104187 0.717680 0.502773
Si Si5 0.409125 0.204563 0.000000
Si Si6 0.391892 0.608109 0.166667
O O1 0.825598 0.848882 0.704362
O O2 0.957869 0.915738 0.333334
O O3 0.336212 0.109739 0.189619
O O4 0.312767 0.986544 0.615535
O O5 0.254371 0.927929 0.111507
O O6 0.622953 0.245906 0.333334
O O7 0.794829 0.277348 0.421509
O O8 0.192158 0.807843 0.666667
O O9 0.141765 0.643993 0.402799
O O10 0.295830 0.591659 0.333334
#
# Coordination Sequence:
#
# PCOD9576350 Si02
#       6
#     3   6   3   6   3   3
#     4  12  28  44  76 108 152 198 254 286 364 458
#     4  12  26  48  70 110 155 194 242 311 371 438
#     4  12  24  53  83 108 146 195 255 318 396 454
#     4  11  24  45  71 103 152 196 244 311 375 434
#     4  12  26  48  78 112 150 200 250 316 380 470
#     4  10  26  43  75 104 142 201 259 304 376 470
#
# _framework density 23.693207999999998
#
# number of rings (size 3 to 8) (size 9 to 14) (size 15 to 20)
#    0.000    0.500    5.000    1.500   10.500    1.000 
#    9.000    0.000    0.000    0.000    0.000    0.000 
#    0.000    0.000    0.000    0.000    0.000    0.000 
#
# Total GULP energy -133772.944202 kJ/mol
# GULP energy per Si atom -5573.872675 kJ/mol
# Density = 2.363928 g / cm^3
# Si number density = 23.693208 Si / 1000 Ang^3
#
#
#
# Elastic Constant Matrix: (Units=GPa)
#
#
# Indices 1 2 3 4 5 6 
#
# 1 143.2803 36.7802 33.7075 0.0006 -8.3218 0.0000
# 2 36.7802 143.2803 33.7075 -0.0006 8.3218 0.0000
# 3 33.7075 33.7075 120.2663 0.0000 0.0000 0.0000
# 4 0.0006 -0.0006 0.0000 32.8115 0.0000 8.3218
# 5 -8.3218 8.3218 0.0000 0.0000 32.8115 0.0006
# 6 0.0000 0.0000 0.0000 8.3218 0.0006 53.2500
#
#
#
# Elastic Compliance Matrix: (Units=1/GPa)
#
#
# Indices 1 2 3 4 5 6 
#
# 1 0.007991 -0.001786 -0.001739 0.000000 0.002480 0.000000
# 2 -0.001786 0.007991 -0.001739 0.000000 -0.002480 0.000000
# 3 -0.001739 -0.001739 0.009290 0.000000 0.000000 0.000000
# 4 0.000000 0.000000 0.000000 0.031735 0.000000 -0.004959
# 5 0.002480 -0.002480 0.000000 0.000000 0.031735 0.000000
# 6 0.000000 0.000000 0.000000 -0.004959 0.000000 0.019554
#
#
# Mechanical properties :
#
#
# Convention : Reuss Voigt Hill
#
# Bulk Modulus (GPa) = 67.82827 68.35747 68.09287
# Shear Modulus (GPa) = 40.40764 43.95004 42.17884
#
# Velocity S-wave (km/s) = 4.13419 4.31160 4.22383
# Velocity P-wave (km/s) = 7.17486 7.32805 7.25186
#
# Compressibility (1/GPa) = 0.01474312
#
# Stress axis : x y z
#
# Youngs Moduli (GPa) = 125.14091 125.14091 107.64612
#
# Poissons Ratio (x) = 0.22353 0.18720
# Poissons Ratio (y) = 0.22353 0.18720
# Poissons Ratio (z) = 0.21763 0.21763
#
# Static dielectric constant tensor:
#      x y z
#    x 1.951380 0.000000 0.000000 
#    y 0.000000 1.951380 0.000000 
#    z 0.000000 0.000000 1.875450 
# 
# From -- ./inp_files/312.got.cif
#   From: 2010.05.17/outbox.cif.g08.bks.cpg/sg153_1_cif.got.tgz:312.got - 2010.05.20 10:38:56.
