data_PCOD9576332
_publ_section_title
;
Structure prediction by ZEFSAII (Michael W. Deem and Ramdas Pophale) SiO2 
 PCOD9576332
Probable space group: P 32 1 2
;
_chemical_formula_sum "Si O2"
_cell_formula_units_Z 42
_cell_length_a 8.250420
_cell_length_b 8.250420
_cell_length_c 33.724511
_cell_angle_alpha 90.000000
_cell_angle_beta 90.000000
_cell_angle_gamma 120.000000
_cell_volume 1988.055059
_symmetry_space_group_name_H-M "P 32 1 2"
_symmetry_group_IT_number 153
_symmetry_cell_setting 'hexagonal'
loop_
_space_group_symop_operation_xyz
x,y,z
-y,x-y,2/3+z
-x+y,-x,1/3+z
-y,-x,1/3-z
-x+y,y,2/3-z
x,x-y,-z
loop_
_atom_site_type_symbol
_atom_site_label
_atom_site_fract_x
_atom_site_fract_y
_atom_site_fract_z
Si Si1 0.785037 0.833575 0.739540
Si Si2 0.973655 0.814181 0.484732
Si Si3 0.624428 0.375573 0.166667
Si Si4 0.116126 0.058063 0.000000
Si Si5 0.658278 0.492986 0.904138
Si Si6 0.442016 0.980968 0.021205
Si Si7 0.197805 0.602997 0.609517
Si Si8 0.205492 0.493138 0.195410
O O1 0.569144 0.762992 0.728980
O O2 0.822598 0.679352 0.758122
O O3 0.838817 0.997794 0.771159
O O4 0.912120 0.913803 0.700783
O O5 0.863010 0.598196 0.495898
O O6 0.174808 0.873753 0.504431
O O7 0.902089 0.951045 0.500000
O O8 0.671884 0.311112 0.207932
O O9 0.254323 0.261957 0.981645
O O10 0.579978 0.436216 0.948837
O O11 0.511838 0.537169 0.881133
O O12 0.407737 0.785951 0.039762
O O13 0.498613 0.968026 0.975544
O O14 0.167880 0.664975 0.566061
O O15 0.334679 0.665322 0.166667
#
# Coordination Sequence:
#
# PCOD9576332 Si02
#       8
#     6   6   3   3   6   6   6   6
#     4  11  21  40  65  91 125 162 216 271 322 401
#     4  12  23  42  66  99 132 170 219 271 339 408
#     4  12  26  42  62  92 138 170 214 284 338 398
#     4  10  22  40  64  86 122 170 216 270 328 384
#     4  11  24  41  62  94 131 167 223 273 334 403
#     4   9  20  40  61  89 126 170 215 268 326 402
#     4   9  19  36  64  92 127 169 213 260 337 395
#     4  11  20  37  68  95 128 171 211 267 334 401
#
# _framework density 21.126173000000001
#
# number of rings (size 3 to 8) (size 9 to 14) (size 15 to 20)
#    0.000    1.429    3.571    1.714    0.000    4.000 
#    5.143    2.857    0.000    0.000    0.000    0.000 
#    0.000    0.000    0.000    0.000    0.000    0.000 
#
# Total GULP energy -234422.751554 kJ/mol
# GULP energy per Si atom -5581.494085 kJ/mol
# Density = 2.107809 g / cm^3
# Si number density = 21.126173 Si / 1000 Ang^3
#
#
#
# Elastic Constant Matrix: (Units=GPa)
#
#
# Indices 1 2 3 4 5 6 
#
# 1 59.4647 21.3686 23.9118 -0.0001 5.9562 0.0000
# 2 21.3686 59.4647 23.9118 0.0001 -5.9562 0.0000
# 3 23.9118 23.9118 104.2775 0.0000 0.0000 0.0000
# 4 -0.0001 0.0001 0.0000 28.6856 0.0000 -5.9562
# 5 5.9562 -5.9562 0.0000 0.0000 28.6856 -0.0001
# 6 0.0000 0.0000 0.0000 -5.9562 -0.0001 19.0480
#
#
#
# Elastic Compliance Matrix: (Units=1/GPa)
#
#
# Indices 1 2 3 4 5 6 
#
# 1 0.021193 -0.006880 -0.003282 0.000000 -0.005829 0.000000
# 2 -0.006880 0.021193 -0.003282 0.000000 0.005829 0.000000
# 3 -0.003282 -0.003282 0.011095 0.000000 0.000000 0.000000
# 4 0.000000 0.000000 0.000000 0.037281 0.000000 0.011658
# 5 -0.005829 0.005829 0.000000 0.000000 0.037281 0.000000
# 6 0.000000 0.000000 0.000000 0.011658 0.000000 0.056144
#
#
# Mechanical properties :
#
#
# Convention : Reuss Voigt Hill
#
# Bulk Modulus (GPa) = 37.60455 40.17683 38.89069
# Shear Modulus (GPa) = 22.73363 25.55148 24.14256
#
# Velocity S-wave (km/s) = 3.28394 3.48152 3.38417
# Velocity P-wave (km/s) = 5.67606 5.93465 5.80680
#
# Compressibility (1/GPa) = 0.02659253
#
# Stress axis : x y z
#
# Youngs Moduli (GPa) = 47.18650 47.18650 90.13049
#
# Poissons Ratio (x) = 0.32462 0.29582
# Poissons Ratio (y) = 0.32462 0.29582
# Poissons Ratio (z) = 0.15487 0.15487
#
# Static dielectric constant tensor:
#      x y z
#    x 1.759980 0.000000 0.000000 
#    y 0.000000 1.759980 0.000000 
#    z 0.000000 0.000000 1.831300 
# 
# From -- ./inp_files/5239.got.cif
#   From: 2010.05.17/outbox.cif.g08.bks.cpg/sg153_3_cif.got.tgz:5239.got - 2010.05.20 10:38:56.
