data_PCOD9576840
_publ_section_title
;
Structure prediction by ZEFSAII (Michael W. Deem and Ramdas Pophale) SiO2 
 PCOD9576840
Probable space group: R 3 2
;
_chemical_formula_sum "Si O2"
_cell_formula_units_Z 90
_cell_length_a 24.597286
_cell_length_b 24.597286
_cell_length_c 10.096539
_cell_angle_alpha 90.000000
_cell_angle_beta 90.000000
_cell_angle_gamma 120.000000
_cell_volume 5290.266380
_symmetry_space_group_name_H-M "R 3 2"
_symmetry_group_IT_number 155
_symmetry_cell_setting 'hexagonal'
loop_
_space_group_symop_operation_xyz
x,y,z
-y,x-y,z
-x+y,-x,z
x-y,-y,-z
-x,-x+y,-z
y,x,-z
2/3+x,1/3+y,1/3+z
2/3-y,1/3+x-y,1/3+z
2/3-x+y,1/3-x,1/3+z
2/3+x-y,1/3-y,1/3-z
2/3-x,1/3-x+y,1/3-z
2/3+y,1/3+x,1/3-z
1/3+x,2/3+y,2/3+z
1/3-y,2/3+x-y,2/3+z
1/3-x+y,2/3-x,2/3+z
1/3+x-y,2/3-y,2/3-z
1/3-x,2/3-x+y,2/3-z
1/3+y,2/3+x,2/3-z
loop_
_atom_site_type_symbol
_atom_site_label
_atom_site_fract_x
_atom_site_fract_y
_atom_site_fract_z
Si Si1 0.821235 0.583669 0.564934
Si Si2 0.618545 0.560062 0.711332
Si Si3 0.169649 0.775185 0.138439
Si Si4 0.611655 0.931023 0.933935
Si Si5 0.791621 0.754868 0.876521
O O1 0.815255 0.569723 0.722149
O O2 0.849821 0.656599 0.524406
O O3 0.878836 0.573206 0.525726
O O4 0.752434 0.557440 0.506452
O O5 0.666667 0.579596 0.833334
O O6 0.565584 0.487164 0.724372
O O7 0.658478 0.574850 0.577278
O O8 0.580382 0.597149 0.732881
O O9 0.117812 0.721111 0.047514
O O10 0.666667 0.942411 0.833334
O O11 0.634648 0.000000 0.000000
O O12 0.796943 0.796943 0.000000
#
# Coordination Sequence:
#
# PCOD9576840 Si02
#       5
#    18  18  18  18  18
#     4  10  19  34  51  74 103 147 186 218 276 339
#     4  11  20  35  52  76 105 145 187 226 276 327
#     4  10  20  32  52  75 103 145 187 221 268 342
#     4  12  20  34  54  76 113 153 184 229 287 332
#     4  11  22  34  53  75 106 144 188 232 273 328
#
# _framework density 17.012377000000001
#
# number of rings (size 3 to 8) (size 9 to 14) (size 15 to 20)
#    0.000    1.200    6.000    3.000    0.000    3.200 
#    0.000    0.000    0.000    0.000    0.000    0.000 
#    2.000    0.400   13.600    0.000    0.000    0.000 
#
# Total GULP energy -167122.354940 kJ/mol
# GULP energy per Si atom -5570.745165 kJ/mol
# Density = 1.697366 g / cm^3
# Si number density = 17.012377 Si / 1000 Ang^3
#
#
#
# Elastic Constant Matrix: (Units=GPa)
#
#
# Indices 1 2 3 4 5 6 
#
# 1 71.3052 45.3300 46.4736 3.6214 -0.0006 0.0001
# 2 45.3300 71.3053 46.4737 -3.6206 0.0003 0.0001
# 3 46.4736 46.4737 111.8370 0.0022 -0.0001 0.0008
# 4 3.6214 -3.6206 0.0022 16.8843 0.0006 0.0008
# 5 -0.0006 0.0003 -0.0001 0.0006 16.8829 3.6207
# 6 0.0001 0.0001 0.0008 0.0008 3.6207 12.9881
#
#
#
# Elastic Compliance Matrix: (Units=1/GPa)
#
#
# Indices 1 2 3 4 5 6 
#
# 1 0.026882 -0.014064 -0.005327 -0.008781 0.000001 0.000000
# 2 -0.014064 0.026883 -0.005327 0.008782 -0.000001 0.000000
# 3 -0.005327 -0.005327 0.013369 -0.000002 0.000000 -0.000001
# 4 -0.008781 0.008782 -0.000002 0.062993 -0.000002 -0.000003
# 5 0.000001 -0.000001 0.000000 -0.000002 0.062998 -0.017562
# 6 0.000000 0.000000 -0.000001 -0.000003 -0.017562 0.081889
#
#
# Mechanical properties :
#
#
# Convention : Reuss Voigt Hill
#
# Bulk Modulus (GPa) = 56.50072 59.00025 57.75049
# Shear Modulus (GPa) = 15.13552 17.09573 16.11563
#
# Velocity S-wave (km/s) = 2.98598 3.17345 3.08114
# Velocity P-wave (km/s) = 6.72099 6.94146 6.83211
#
# Compressibility (1/GPa) = 0.01769889
#
# Stress axis : x y z
#
# Youngs Moduli (GPa) = 37.19899 37.19869 74.80184
#
# Poissons Ratio (x) = 0.52316 0.39844
# Poissons Ratio (y) = 0.52316 0.39847
# Poissons Ratio (z) = 0.19814 0.19816
#
# Static dielectric constant tensor:
#      x y z
#    x 1.628250 0.000000 0.000000 
#    y 0.000000 1.628250 0.000000 
#    z 0.000000 0.000000 1.609610 
# 
# From -- ./inp_files/2743.got.cif
#   From: 2010.05.17/outbox.cif.g08.bks.cpg/sg155_2_cif.got.tgz:2743.got - 2010.05.20 10:44:35.
