data_PCOD9576411
_publ_section_title
;
Structure prediction by ZEFSAII (Michael W. Deem and Ramdas Pophale) SiO2 
 PCOD9576411
Probable space group: P 32 2 1
;
_chemical_formula_sum "Si O2"
_cell_formula_units_Z 39
_cell_length_a 14.330459
_cell_length_b 14.330459
_cell_length_c 13.525000
_cell_angle_alpha 90.000000
_cell_angle_beta 90.000000
_cell_angle_gamma 120.000000
_cell_volume 2405.404435
_symmetry_space_group_name_H-M "P 32 2 1"
_symmetry_group_IT_number 154
_symmetry_cell_setting 'hexagonal'
loop_
_space_group_symop_operation_xyz
x,y,z
-y,x-y,2/3+z
-x+y,-x,1/3+z
x-y,-y,1/3-z
-x,-x+y,2/3-z
y,x,-z
loop_
_atom_site_type_symbol
_atom_site_label
_atom_site_fract_x
_atom_site_fract_y
_atom_site_fract_z
Si Si1 0.219310 0.671682 0.704079
Si Si2 0.157942 0.135089 0.322133
Si Si3 0.997025 0.459075 0.713637
Si Si4 0.234356 0.657743 0.936825
Si Si5 0.235104 0.879597 0.953463
Si Si6 0.991997 0.000000 0.166667
Si Si7 0.209836 0.885626 0.719754
O O1 0.232954 0.649296 0.818478
O O2 0.311817 0.662814 0.645031
O O3 0.232077 0.789024 0.693879
O O4 0.095380 0.577574 0.680457
O O5 0.270591 0.140141 0.321210
O O6 0.098298 0.092773 0.218176
O O7 0.154462 0.241054 0.354902
O O8 0.091782 0.050866 0.409941
O O9 0.875583 0.431870 0.689234
O O10 0.000000 0.455420 0.833334
O O11 0.029132 0.376293 0.665822
O O12 0.232303 0.766668 0.959031
O O13 0.222880 0.900688 0.838174
O O14 0.284359 0.000000 0.666667
#
# Coordination Sequence:
#
# PCOD9576411 Si02
#       7
#     6   6   6   6   6   3   6
#     4   9  19  32  52  74  98 129 167 207 250 299
#     4  11  18  33  47  73 100 130 161 203 248 296
#     4   9  18  33  50  74  99 127 164 207 253 299
#     4   9  18  34  50  73 102 129 165 212 251 293
#     4  10  19  30  52  75  96 131 170 203 248 300
#     4  10  20  30  48  68 102 128 158 198 248 296
#     4  11  19  32  50  74  98 130 167 206 247 295
#
# _framework density 16.21349
#
# number of rings (size 3 to 8) (size 9 to 14) (size 15 to 20)
#    0.000    2.154    3.077    0.923    1.077    3.692 
#    0.000    0.000    0.000    0.000    4.000    0.000 
#    0.000    0.000    0.000    0.000    0.000    0.000 
#
# Total GULP energy -217147.518460 kJ/mol
# GULP energy per Si atom -5567.885089 kJ/mol
# Density = 1.617659 g / cm^3
# Si number density = 16.213490 Si / 1000 Ang^3
#
#
#
# Elastic Constant Matrix: (Units=GPa)
#
#
# Indices 1 2 3 4 5 6 
#
# 1 98.9650 59.7618 35.0362 -0.0044 -0.0001 0.0000
# 2 59.7618 98.9650 35.0362 0.0044 0.0001 0.0000
# 3 35.0362 35.0362 34.7504 0.0000 0.0000 0.0000
# 4 -0.0044 0.0044 0.0000 17.8284 0.0000 0.0001
# 5 -0.0001 0.0001 0.0000 0.0000 17.8284 -0.0044
# 6 0.0000 0.0000 0.0000 0.0001 -0.0044 19.6016
#
#
#
# Elastic Compliance Matrix: (Units=1/GPa)
#
#
# Indices 1 2 3 4 5 6 
#
# 1 0.018431 -0.007077 -0.011447 0.000006 0.000000 0.000000
# 2 -0.007077 0.018431 -0.011447 -0.000006 0.000000 0.000000
# 3 -0.011447 -0.011447 0.051859 0.000000 0.000000 0.000000
# 4 0.000006 -0.000006 0.000000 0.056090 0.000000 0.000000
# 5 0.000000 0.000000 0.000000 0.000000 0.056090 0.000013
# 6 0.000000 0.000000 0.000000 0.000000 0.000013 0.051016
#
#
# Mechanical properties :
#
#
# Convention : Reuss Voigt Hill
#
# Bulk Modulus (GPa) = 34.74850 54.70545 44.72698
# Shear Modulus (GPa) = 15.55438 17.90808 16.73123
#
# Velocity S-wave (km/s) = 3.10069 3.32703 3.21586
# Velocity P-wave (km/s) = 5.85640 6.96942 6.43701
#
# Compressibility (1/GPa) = 0.02877822
#
# Stress axis : x y z
#
# Youngs Moduli (GPa) = 54.25686 54.25686 19.28305
#
# Poissons Ratio (x) = 0.38399 0.22073
# Poissons Ratio (y) = 0.38399 0.22073
# Poissons Ratio (z) = 0.62108 0.62108
#
# Static dielectric constant tensor:
#      x y z
#    x 1.568270 0.000000 0.000000 
#    y 0.000000 1.568270 0.000000 
#    z 0.000000 0.000000 1.541250 
# 
# From -- ./inp_files/1684.got.cif
#   From: 2010.05.17/outbox.cif.g08.bks.cpg/sg154_1_cif.got.tgz:1684.got - 2010.05.20 10:41:43.
