data_PCOD9576001
_publ_section_title
;
Structure prediction by ZEFSAII (Michael W. Deem and Ramdas Pophale) SiO2 
 PCOD9576001
Probable space group: P 31 2 1
;
_chemical_formula_sum "Si O2"
_cell_formula_units_Z 24
_cell_length_a 7.339324
_cell_length_b 7.339324
_cell_length_c 24.750074
_cell_angle_alpha 90.000000
_cell_angle_beta 90.000000
_cell_angle_gamma 120.000000
_cell_volume 1154.567303
_symmetry_space_group_name_H-M "P 31 2 1"
_symmetry_group_IT_number 152
_symmetry_cell_setting 'hexagonal'
loop_
_space_group_symop_operation_xyz
x,y,z
-y,x-y,1/3+z
-x+y,-x,2/3+z
x-y,-y,2/3-z
-x,-x+y,1/3-z
y,x,-z
loop_
_atom_site_type_symbol
_atom_site_label
_atom_site_fract_x
_atom_site_fract_y
_atom_site_fract_z
Si Si1 0.372472 0.798737 0.048427
Si Si2 0.616587 0.599467 0.896812
Si Si3 0.305276 0.354751 0.198800
Si Si4 0.913926 0.451649 0.073650
O O1 0.493804 0.664995 0.051985
O O2 0.512811 0.990669 0.088586
O O3 0.143741 0.654170 0.073051
O O4 0.368142 0.869202 0.987970
O O5 0.847902 0.726260 0.868826
O O6 0.465469 0.411198 0.856907
O O7 0.520965 0.745950 0.909616
O O8 0.115404 0.382359 0.219772
#
# Coordination Sequence:
#
# PCOD9576001 Si02
#       4
#     6   6   6   6
#     4  10  23  38  65  91 117 166 199 251 304 359
#     4  10  22  40  61  90 125 159 201 249 305 362
#     4  10  22  39  62  91 121 162 202 249 303 364
#     4  12  20  44  62  88 130 154 209 250 301 363
#
# _framework density 20.787006999999999
#
# number of rings (size 3 to 8) (size 9 to 14) (size 15 to 20)
#    1.500    0.000    5.000    0.750    0.000    4.000 
#    4.500    2.500    0.000    0.000    0.000    0.000 
#    0.000    0.000    0.000    0.000    0.000    0.000 
#
# Total GULP energy -133853.440179 kJ/mol
# GULP energy per Si atom -5577.226674 kJ/mol
# Density = 2.073970 g / cm^3
# Si number density = 20.787007 Si / 1000 Ang^3
#
#
#
# Elastic Constant Matrix: (Units=GPa)
#
#
# Indices 1 2 3 4 5 6 
#
# 1 51.1346 -1.4715 7.2422 5.3047 0.0000 0.0000
# 2 -1.4715 51.1346 7.2422 -5.3047 0.0000 0.0000
# 3 7.2422 7.2422 57.4559 0.0000 0.0000 0.0000
# 4 5.3047 -5.3047 0.0000 28.2079 0.0000 0.0000
# 5 0.0000 0.0000 0.0000 0.0000 28.2079 5.3047
# 6 0.0000 0.0000 0.0000 0.0000 5.3047 26.3030
#
#
#
# Elastic Compliance Matrix: (Units=1/GPa)
#
#
# Indices 1 2 3 4 5 6 
#
# 1 0.020331 0.000573 -0.002635 -0.003716 0.000000 0.000000
# 2 0.000573 0.020331 -0.002635 0.003716 0.000000 0.000000
# 3 -0.002635 -0.002635 0.018069 0.000000 0.000000 0.000000
# 4 -0.003716 0.003716 0.000000 0.036849 0.000000 0.000000
# 5 0.000000 0.000000 0.000000 0.000000 0.036849 -0.007432
# 6 0.000000 0.000000 0.000000 0.000000 -0.007432 0.039517
#
#
# Mechanical properties :
#
#
# Convention : Reuss Voigt Hill
#
# Bulk Modulus (GPa) = 20.26858 20.63902 20.45380
# Shear Modulus (GPa) = 25.27982 26.32456 25.80219
#
# Velocity S-wave (km/s) = 3.49110 3.56250 3.52698
# Velocity P-wave (km/s) = 5.10119 5.18385 5.14268
#
# Compressibility (1/GPa) = 0.04933745
#
# Stress axis : x y z
#
# Youngs Moduli (GPa) = 49.18507 49.18507 55.34367
#
# Poissons Ratio (x) = -0.02817 0.14583
# Poissons Ratio (y) = -0.02817 0.14583
# Poissons Ratio (z) = 0.12960 0.12960
#
# Static dielectric constant tensor:
#      x y z
#    x 1.722340 0.000000 0.000000 
#    y 0.000000 1.722340 0.000000 
#    z 0.000000 0.000000 1.736250 
# 
# From -- ./inp_files/2910.got.cif
#   From: 2010.05.17/outbox.cif.g08.bks.cpg/sg152_2_cif.got.tgz:2910.got - 2010.05.20 10:36:06.
