data_PCOD9576632
_publ_section_title
;
Structure prediction by ZEFSAII (Michael W. Deem and Ramdas Pophale) SiO2 
 PCOD9576632
Probable space group: P 32 2 1
;
_chemical_formula_sum "Si O2"
_cell_formula_units_Z 36
_cell_length_a 8.933717
_cell_length_b 8.933717
_cell_length_c 22.622134
_cell_angle_alpha 90.000000
_cell_angle_beta 90.000000
_cell_angle_gamma 120.000000
_cell_volume 1563.610521
_symmetry_space_group_name_H-M "P 32 2 1"
_symmetry_group_IT_number 154
_symmetry_cell_setting 'hexagonal'
loop_
_space_group_symop_operation_xyz
x,y,z
-y,x-y,2/3+z
-x+y,-x,1/3+z
x-y,-y,1/3-z
-x,-x+y,2/3-z
y,x,-z
loop_
_atom_site_type_symbol
_atom_site_label
_atom_site_fract_x
_atom_site_fract_y
_atom_site_fract_z
Si Si1 0.855379 0.088363 0.783681
Si Si2 0.856316 0.555743 0.088808
Si Si3 0.867609 0.228460 0.951357
Si Si4 0.478215 0.005821 0.526743
Si Si5 0.740936 0.226905 0.284407
Si Si6 0.051721 0.899730 0.948967
O O1 0.000000 0.179969 0.833334
O O2 0.936281 0.223201 0.730477
O O3 0.677011 0.070969 0.801436
O O4 0.864666 0.919969 0.763855
O O5 0.900910 0.433255 0.129374
O O6 0.719845 0.579741 0.128907
O O7 0.040989 0.728360 0.075312
O O8 0.772362 0.508128 0.022926
O O9 0.829142 0.376317 0.933103
O O10 0.860465 0.190665 0.020721
O O11 0.533732 0.135407 0.582208
O O12 0.809183 0.098229 0.263489
O O13 0.964277 0.964277 0.000000
#
# Coordination Sequence:
#
# PCOD9576632 Si02
#       6
#     6   6   6   6   6   6
#     4  11  23  42  68 101 140 181 238 292 364 439
#     4  11  25  46  69 105 142 189 244 293 372 440
#     4  10  22  45  67  98 143 183 229 308 354 437
#     4  12  25  42  74 100 143 196 239 305 365 442
#     4  11  24  44  72 102 144 185 244 304 363 441
#     4   9  21  42  66  94 138 189 231 283 365 433
#
# _framework density 23.023634999999999
#
# number of rings (size 3 to 8) (size 9 to 14) (size 15 to 20)
#    0.000    1.333    1.667    4.500    0.000   10.667 
#    0.000    0.833    0.000    0.000    0.000    0.000 
#    0.000    0.000    0.000    0.000    0.000    0.000 
#
# Total GULP energy -200842.211775 kJ/mol
# GULP energy per Si atom -5578.950327 kJ/mol
# Density = 2.297123 g / cm^3
# Si number density = 23.023635 Si / 1000 Ang^3
#
#
#
# Elastic Constant Matrix: (Units=GPa)
#
#
# Indices 1 2 3 4 5 6 
#
# 1 75.9875 39.4525 27.7097 -7.9480 -0.0001 0.0000
# 2 39.4525 75.9875 27.7097 7.9480 0.0001 0.0000
# 3 27.7097 27.7097 86.6741 0.0000 0.0000 0.0000
# 4 -7.9480 7.9480 0.0000 34.6302 0.0000 0.0001
# 5 -0.0001 0.0001 0.0000 0.0000 34.6302 -7.9480
# 6 0.0000 0.0000 0.0000 0.0001 -7.9480 18.2675
#
#
#
# Elastic Compliance Matrix: (Units=1/GPa)
#
#
# Indices 1 2 3 4 5 6 
#
# 1 0.020320 -0.010087 -0.003272 0.006979 0.000000 0.000000
# 2 -0.010087 0.020320 -0.003272 -0.006979 0.000000 0.000000
# 3 -0.003272 -0.003272 0.013629 0.000000 0.000000 0.000000
# 4 0.006979 -0.006979 0.000000 0.032080 0.000000 0.000000
# 5 0.000000 0.000000 0.000000 0.000000 0.032080 0.013958
# 6 0.000000 0.000000 0.000000 0.000000 0.013958 0.060815
#
#
# Mechanical properties :
#
#
# Convention : Reuss Voigt Hill
#
# Bulk Modulus (GPa) = 47.59782 47.59922 47.59852
# Shear Modulus (GPa) = 22.77824 27.09075 24.93450
#
# Velocity S-wave (km/s) = 3.14879 3.43395 3.29446
# Velocity P-wave (km/s) = 5.82565 6.03669 5.93211
#
# Compressibility (1/GPa) = 0.02100936
#
# Stress axis : x y z
#
# Youngs Moduli (GPa) = 49.21207 49.21207 73.37146
#
# Poissons Ratio (x) = 0.49641 0.24004
# Poissons Ratio (y) = 0.49641 0.24004
# Poissons Ratio (z) = 0.16100 0.16100
#
# Static dielectric constant tensor:
#      x y z
#    x 1.866670 0.000000 0.000000 
#    y 0.000000 1.866670 0.000000 
#    z 0.000000 0.000000 2.013760 
# 
# From -- ./inp_files/3435.got.cif
#   From: 2010.05.17/outbox.cif.g08.bks.cpg/sg154_2_cif.got.tgz:3435.got - 2010.05.20 10:41:43.
