data_PCOD9576484
_publ_section_title
;
Structure prediction by ZEFSAII (Michael W. Deem and Ramdas Pophale) SiO2 
 PCOD9576484
Probable space group: P 32 2 1
;
_chemical_formula_sum "Si O2"
_cell_formula_units_Z 36
_cell_length_a 8.427670
_cell_length_b 8.427670
_cell_length_c 28.614802
_cell_angle_alpha 90.000000
_cell_angle_beta 90.000000
_cell_angle_gamma 120.000000
_cell_volume 1760.096261
_symmetry_space_group_name_H-M "P 32 2 1"
_symmetry_group_IT_number 154
_symmetry_cell_setting 'hexagonal'
loop_
_space_group_symop_operation_xyz
x,y,z
-y,x-y,2/3+z
-x+y,-x,1/3+z
x-y,-y,1/3-z
-x,-x+y,2/3-z
y,x,-z
loop_
_atom_site_type_symbol
_atom_site_label
_atom_site_fract_x
_atom_site_fract_y
_atom_site_fract_z
Si Si1 0.324848 0.302247 0.447525
Si Si2 0.299447 0.988738 0.723351
Si Si3 0.809405 0.290229 0.036808
Si Si4 0.693448 0.683505 0.551565
Si Si5 0.697920 0.130401 0.711123
Si Si6 0.057386 0.712633 0.050997
O O1 0.248447 0.248447 0.500000
O O2 0.374307 0.171207 0.418130
O O3 0.522044 0.484511 0.451572
O O4 0.194655 0.340898 0.413890
O O5 0.501788 0.033000 0.737673
O O6 0.256738 0.149695 0.734259
O O7 0.309862 0.000000 0.666667
O O8 0.610936 0.280759 0.031761
O O9 0.960642 0.501451 0.036754
O O10 0.822064 0.173501 0.994293
O O11 0.759525 0.759525 0.500000
O O12 0.694356 0.829481 0.588142
O O13 0.802357 0.590045 0.573186
O O14 0.670879 0.000000 0.666667
#
# Coordination Sequence:
#
# PCOD9576484 Si02
#       6
#     6   6   6   6   6   6
#     4  10  21  40  63  89 127 167 204 253 321 384
#     4  10  20  37  60  91 123 159 205 261 303 363
#     4  10  20  38  60  93 120 166 208 253 321 360
#     4  10  23  41  60  89 128 166 206 256 318 382
#     4   9  20  36  63  89 121 161 211 255 305 381
#     4  11  22  37  63  84 129 160 211 262 300 377
#
# _framework density 20.453424999999999
#
# number of rings (size 3 to 8) (size 9 to 14) (size 15 to 20)
#    0.000    2.000    1.667    2.000    4.667    2.667 
#    3.000    0.000    0.000    0.000    0.000    0.000 
#    0.000    0.000    0.000    0.000    0.000    0.000 
#
# Total GULP energy -200700.093740 kJ/mol
# GULP energy per Si atom -5575.002604 kJ/mol
# Density = 2.040687 g / cm^3
# Si number density = 20.453425 Si / 1000 Ang^3
#
#
#
# Elastic Constant Matrix: (Units=GPa)
#
#
# Indices 1 2 3 4 5 6 
#
# 1 25.6070 10.5640 30.8506 -5.9199 0.0002 0.0000
# 2 10.5640 25.6070 30.8506 5.9199 -0.0002 0.0000
# 3 30.8506 30.8506 130.9224 0.0000 0.0000 0.0000
# 4 -5.9199 5.9199 0.0000 21.6231 0.0000 -0.0002
# 5 0.0002 -0.0002 0.0000 0.0000 21.6231 -5.9199
# 6 0.0000 0.0000 0.0000 -0.0002 -5.9199 7.5215
#
#
#
# Elastic Compliance Matrix: (Units=1/GPa)
#
#
# Indices 1 2 3 4 5 6 
#
# 1 0.065482 -0.019253 -0.010893 0.023199 -0.000001 0.000000
# 2 -0.019253 0.065482 -0.010893 -0.023199 0.000001 0.000000
# 3 -0.010893 -0.010893 0.012772 0.000000 0.000000 0.000000
# 4 0.023199 -0.023199 0.000000 0.058949 0.000000 0.000001
# 5 -0.000001 0.000001 0.000000 0.000000 0.058949 0.046397
# 6 0.000000 0.000000 0.000000 0.000001 0.046397 0.169470
#
#
# Mechanical properties :
#
#
# Convention : Reuss Voigt Hill
#
# Bulk Modulus (GPa) = 16.21912 36.29629 26.25771
# Shear Modulus (GPa) = 9.36794 17.47829 13.42311
#
# Velocity S-wave (km/s) = 2.14245 2.92642 2.56457
# Velocity P-wave (km/s) = 3.75061 5.40398 4.65135
#
# Compressibility (1/GPa) = 0.06165564
#
# Stress axis : x y z
#
# Youngs Moduli (GPa) = 15.27145 15.27145 78.29699
#
# Poissons Ratio (x) = 0.29403 0.85291
# Poissons Ratio (y) = 0.29403 0.85291
# Poissons Ratio (z) = 0.16636 0.16636
#
# Static dielectric constant tensor:
#      x y z
#    x 1.749490 0.000000 0.000000 
#    y 0.000000 1.749490 0.000000 
#    z 0.000000 0.000000 1.757290 
# 
# From -- ./inp_files/3471.got.cif
#   From: 2010.05.17/outbox.cif.g08.bks.cpg/sg154_2_cif.got.tgz:3471.got - 2010.05.20 10:41:43.
