data_PCOD9576688
_publ_section_title
;
Structure prediction by ZEFSAII (Michael W. Deem and Ramdas Pophale) SiO2 
 PCOD9576688
Probable space group: P 32 2 1
;
_chemical_formula_sum "Si O2"
_cell_formula_units_Z 39
_cell_length_a 8.576392
_cell_length_b 8.576392
_cell_length_c 27.198393
_cell_angle_alpha 90.000000
_cell_angle_beta 90.000000
_cell_angle_gamma 120.000000
_cell_volume 1732.539411
_symmetry_space_group_name_H-M "P 32 2 1"
_symmetry_group_IT_number 154
_symmetry_cell_setting 'hexagonal'
loop_
_space_group_symop_operation_xyz
x,y,z
-y,x-y,2/3+z
-x+y,-x,1/3+z
x-y,-y,1/3-z
-x,-x+y,2/3-z
y,x,-z
loop_
_atom_site_type_symbol
_atom_site_label
_atom_site_fract_x
_atom_site_fract_y
_atom_site_fract_z
Si Si1 0.833231 0.000000 0.166667
Si Si2 0.374491 0.466193 0.815931
Si Si3 0.030313 0.845678 0.231041
Si Si4 0.309526 0.780866 0.807348
Si Si5 0.732635 0.299982 0.303124
Si Si6 0.159045 0.000000 0.666667
Si Si7 0.000000 0.670140 0.333334
Si Si8 0.159664 0.330808 0.722814
O O1 0.772331 0.122169 0.196003
O O2 0.984948 0.069467 0.124062
O O3 0.281369 0.302779 0.853705
O O4 0.315100 0.610959 0.829059
O O5 0.581093 0.539101 0.826811
O O6 0.328000 0.402693 0.759844
O O7 0.967932 0.751577 0.283935
O O8 0.241693 0.990975 0.239918
O O9 0.376659 0.784527 0.752174
O O10 0.824427 0.471628 0.339396
O O11 0.512366 0.188854 0.304777
O O12 0.852111 0.203718 0.309587
O O13 0.979312 0.850908 0.637815
#
# Coordination Sequence:
#
# PCOD9576688 Si02
#       8
#     3   6   6   6   6   3   3   6
#     4  12  26  42  74 114 146 188 252 312 384 450
#     4  11  24  45  72 101 143 191 243 303 371 449
#     4  12  24  45  71 102 147 185 244 311 367 450
#     4  11  25  43  72 107 142 193 243 308 376 450
#     4  10  25  45  70 103 151 190 256 304 383 457
#     4  11  25  48  70 104 152 196 244 330 374 456
#     4  11  25  46  70 104 140 202 242 316 378 458
#     4  11  25  44  72 105 141 194 250 301 383 449
#
# _framework density 22.510307999999998
#
# number of rings (size 3 to 8) (size 9 to 14) (size 15 to 20)
#    0.000    0.923    3.077    2.308   10.769    0.000 
#    0.000    3.077    0.000    0.000    0.000    0.000 
#    0.000    0.000    0.000    0.000    0.000    0.000 
#
# Total GULP energy -217167.772127 kJ/mol
# GULP energy per Si atom -5568.404414 kJ/mol
# Density = 2.245907 g / cm^3
# Si number density = 22.510308 Si / 1000 Ang^3
#
#
#
# Elastic Constant Matrix: (Units=GPa)
#
#
# Indices 1 2 3 4 5 6 
#
# 1 102.1725 41.0357 30.1762 -1.7697 0.0002 0.0000
# 2 41.0357 102.1725 30.1762 1.7697 -0.0002 0.0000
# 3 30.1762 30.1762 63.2681 0.0000 0.0000 0.0000
# 4 -1.7697 1.7697 0.0000 32.2974 0.0000 -0.0002
# 5 0.0002 -0.0002 0.0000 0.0000 32.2974 -1.7697
# 6 0.0000 0.0000 0.0000 -0.0002 -1.7697 30.5684
#
#
#
# Elastic Compliance Matrix: (Units=1/GPa)
#
#
# Indices 1 2 3 4 5 6 
#
# 1 0.012574 -0.003835 -0.004168 0.000899 0.000000 0.000000
# 2 -0.003835 0.012574 -0.004168 -0.000899 0.000000 0.000000
# 3 -0.004168 -0.004168 0.019782 0.000000 0.000000 0.000000
# 4 0.000899 -0.000899 0.000000 0.031061 0.000000 0.000000
# 5 0.000000 0.000000 0.000000 0.000000 0.031061 0.001798
# 6 0.000000 0.000000 0.000000 0.000000 0.001798 0.032818
#
#
# Mechanical properties :
#
#
# Convention : Reuss Voigt Hill
#
# Bulk Modulus (GPa) = 48.57302 52.26547 50.41924
# Shear Modulus (GPa) = 29.22698 30.11432 29.67065
#
# Velocity S-wave (km/s) = 3.60722 3.66156 3.63449
# Velocity P-wave (km/s) = 6.24294 6.41443 6.32927
#
# Compressibility (1/GPa) = 0.02058756
#
# Stress axis : x y z
#
# Youngs Moduli (GPa) = 79.52816 79.52816 50.55094
#
# Poissons Ratio (x) = 0.30496 0.21072
# Poissons Ratio (y) = 0.30496 0.21072
# Poissons Ratio (z) = 0.33150 0.33150
#
# Static dielectric constant tensor:
#      x y z
#    x 1.896530 0.000000 0.000000 
#    y 0.000000 1.896530 0.000000 
#    z 0.000000 0.000000 1.894080 
# 
# From -- ./inp_files/3732.got.cif
#   From: 2010.05.17/outbox.cif.g08.bks.cpg/sg154_2_cif.got.tgz:3732.got - 2010.05.20 10:41:43.
