data_PCOD9576080
_publ_section_title
;
Structure prediction by ZEFSAII (Michael W. Deem and Ramdas Pophale) SiO2 
 PCOD9576080
Probable space group: P 31 2 1
;
_chemical_formula_sum "Si O2"
_cell_formula_units_Z 18
_cell_length_a 8.866081
_cell_length_b 8.866081
_cell_length_c 10.138992
_cell_angle_alpha 90.000000
_cell_angle_beta 90.000000
_cell_angle_gamma 120.000000
_cell_volume 690.222006
_symmetry_space_group_name_H-M "P 31 2 1"
_symmetry_group_IT_number 152
_symmetry_cell_setting 'hexagonal'
loop_
_space_group_symop_operation_xyz
x,y,z
-y,x-y,1/3+z
-x+y,-x,2/3+z
x-y,-y,2/3-z
-x,-x+y,1/3-z
y,x,-z
loop_
_atom_site_type_symbol
_atom_site_label
_atom_site_fract_x
_atom_site_fract_y
_atom_site_fract_z
Si Si1 0.981841 0.817089 0.822090
Si Si2 0.141260 0.478099 0.271866
Si Si3 0.141396 0.593604 0.547509
O O1 0.152268 0.837886 0.897236
O O2 0.000000 0.810615 0.666667
O O3 0.850085 0.616575 0.850122
O O4 0.983217 0.000000 0.833334
O O5 0.089005 0.463082 0.424045
O O6 0.315188 0.663832 0.258626
O O7 0.000000 0.469090 0.166667
O O8 0.000000 0.513070 0.666667
#
# Coordination Sequence:
#
# PCOD9576080 Si02
#       3
#     6   6   6
#     4  10  23  45  73 105 148 195 250 318 386 460
#     4  11  24  45  73 110 148 201 261 314 384 475
#     4  11  23  42  73 109 150 198 254 320 389 465
#
# _framework density 26.078569000000002
#
# number of rings (size 3 to 8) (size 9 to 14) (size 15 to 20)
#    0.000    1.333    0.000    6.000    0.000   16.000 
#    0.000   15.000    0.000    0.000    0.000    0.000 
#    0.000    0.000    0.000    0.000    0.000    0.000 
#
# Total GULP energy -100483.609450 kJ/mol
# GULP energy per Si atom -5582.422747 kJ/mol
# Density = 2.601921 g / cm^3
# Si number density = 26.078569 Si / 1000 Ang^3
#
#
#
# Elastic Constant Matrix: (Units=GPa)
#
#
# Indices 1 2 3 4 5 6 
#
# 1 121.0235 69.7091 31.2889 -77.2866 -0.0038 0.0000
# 2 69.7091 121.0235 31.2889 77.2866 0.0038 0.0000
# 3 31.2889 31.2889 154.7072 0.0000 0.0000 0.0000
# 4 -77.2866 77.2866 0.0000 -153.1007 0.0000 0.0038
# 5 -0.0038 0.0038 0.0000 0.0000 -153.1007 -77.2866
# 6 0.0000 0.0000 0.0000 0.0038 -77.2866 25.6572
#
#
#
# Elastic Compliance Matrix: (Units=1/GPa)
#
#
# Indices 1 2 3 4 5 6 
#
# 1 0.006673 -0.001058 -0.001136 -0.003903 0.000000 0.000000
# 2 -0.001058 0.006673 -0.001136 0.003903 0.000000 0.000000
# 3 -0.001136 -0.001136 0.006923 0.000000 0.000000 0.000000
# 4 -0.003903 0.003903 0.000000 -0.002591 0.000000 0.000000
# 5 0.000000 0.000000 0.000000 0.000000 -0.002591 -0.007806
# 6 0.000000 0.000000 0.000000 0.000000 -0.007806 0.015463
#
#
# Mechanical properties :
#
#
# Convention : Reuss Voigt Hill
#
# Bulk Modulus (GPa) = 73.46761 73.48090 73.47425
# Shear Modulus (GPa) = 119.77223 -38.47768 40.64728
#
# Velocity S-wave (km/s) = 6.78433 -3.84533 3.95225
# Velocity P-wave (km/s) = 9.46585 2.91933 7.00446
#
# Compressibility (1/GPa) = 0.01361144
#
# Stress axis : x y z
#
# Youngs Moduli (GPa) = 149.84793 149.84793 144.44154
#
# Poissons Ratio (x) = 0.15852 0.16405
# Poissons Ratio (y) = 0.15852 0.16405
# Poissons Ratio (z) = 0.17019 0.17019
#
# Static dielectric constant tensor:
#      x y z
#    x 2.264170 0.000000 0.000000 
#    y 0.000000 2.264170 0.000000 
#    z 0.000000 0.000000 2.092510 
# 
# From -- ./inp_files/1502.got.cif
#   From: 2010.05.17/outbox.cif.g08.bks.cpg/sg152_1_cif.got.tgz:1502.got - 2010.05.20 10:36:06.
