data_PCOD9576571
_publ_section_title
;
Structure prediction by ZEFSAII (Michael W. Deem and Ramdas Pophale) SiO2 
 PCOD9576571
Probable space group: P 32 2 1
;
_chemical_formula_sum "Si O2"
_cell_formula_units_Z 48
_cell_length_a 11.480387
_cell_length_b 11.480387
_cell_length_c 18.255941
_cell_angle_alpha 90.000000
_cell_angle_beta 90.000000
_cell_angle_gamma 120.000000
_cell_volume 2083.761030
_symmetry_space_group_name_H-M "P 32 2 1"
_symmetry_group_IT_number 154
_symmetry_cell_setting 'hexagonal'
loop_
_space_group_symop_operation_xyz
x,y,z
-y,x-y,2/3+z
-x+y,-x,1/3+z
x-y,-y,1/3-z
-x,-x+y,2/3-z
y,x,-z
loop_
_atom_site_type_symbol
_atom_site_label
_atom_site_fract_x
_atom_site_fract_y
_atom_site_fract_z
Si Si1 0.492726 0.527887 0.697717
Si Si2 0.642622 0.494286 0.968732
Si Si3 0.206497 0.933867 0.954582
Si Si4 0.565971 0.252604 0.078032
Si Si5 0.228384 0.298478 0.326362
Si Si6 0.741343 0.846751 0.565090
Si Si7 0.724274 0.274728 0.527869
Si Si8 0.248397 0.113283 0.821552
O O1 0.653458 0.586501 0.700085
O O2 0.449869 0.565499 0.620640
O O3 0.402396 0.371374 0.711385
O O4 0.460755 0.618494 0.752525
O O5 0.634146 0.378718 0.022698
O O6 0.796848 0.609567 0.960126
O O7 0.565337 0.565337 0.000000
O O8 0.560604 0.404957 0.900184
O O9 0.212825 0.986325 0.872212
O O10 0.064296 0.802612 0.964869
O O11 0.214794 0.032986 0.021910
O O12 0.413494 0.215960 0.091556
O O13 0.647976 0.311496 0.151087
O O14 0.115923 0.215697 0.263738
O O15 0.761644 0.761644 0.500000
O O16 0.818030 0.997519 0.534648
O O17 0.802336 0.212445 0.486340
#
# Coordination Sequence:
#
# PCOD9576571 Si02
#       8
#     6   6   6   6   6   6   6   6
#     4   9  23  39  68 101 138 173 229 293 346 408
#     4  11  25  43  64  97 139 182 228 285 341 417
#     4  10  24  42  65 103 140 176 231 293 341 414
#     4  10  21  41  66 100 134 176 230 288 350 405
#     4  12  24  44  70  98 138 190 231 280 351 420
#     4  11  21  37  67 100 134 180 231 291 344 407
#     4  10  21  41  70 100 132 177 231 289 345 417
#     4  11  22  42  67  99 133 188 229 279 346 413
#
# _framework density 23.035271000000002
#
# number of rings (size 3 to 8) (size 9 to 14) (size 15 to 20)
#    0.000    1.500    2.500    2.625    3.500    2.000 
#    2.250    0.000    0.000    0.000    0.000    0.000 
#    0.000    0.000    0.000    0.000    0.000    0.000 
#
# Total GULP energy -268112.085635 kJ/mol
# GULP energy per Si atom -5585.668451 kJ/mol
# Density = 2.298284 g / cm^3
# Si number density = 23.035271 Si / 1000 Ang^3
#
#
#
# Elastic Constant Matrix: (Units=GPa)
#
#
# Indices 1 2 3 4 5 6 
#
# 1 54.7863 25.6466 6.4395 0.0799 0.0000 0.0000
# 2 25.6466 54.7863 6.4395 -0.0799 0.0000 0.0000
# 3 6.4395 6.4395 30.2963 0.0000 0.0000 0.0000
# 4 0.0799 -0.0799 0.0000 11.8411 0.0000 0.0000
# 5 0.0000 0.0000 0.0000 0.0000 11.8411 0.0799
# 6 0.0000 0.0000 0.0000 0.0000 0.0799 14.5698
#
#
#
# Elastic Compliance Matrix: (Units=1/GPa)
#
#
# Indices 1 2 3 4 5 6 
#
# 1 0.023595 -0.010724 -0.002736 -0.000232 0.000000 0.000000
# 2 -0.010724 0.023595 -0.002736 0.000232 0.000000 0.000000
# 3 -0.002736 -0.002736 0.034170 0.000000 0.000000 0.000000
# 4 -0.000232 0.000232 0.000000 0.084455 0.000000 0.000000
# 5 0.000000 0.000000 0.000000 0.000000 0.084455 -0.000463
# 6 0.000000 0.000000 0.000000 0.000000 -0.000463 0.068638
#
#
# Mechanical properties :
#
#
# Convention : Reuss Voigt Hill
#
# Bulk Modulus (GPa) = 20.42105 24.10223 22.26164
# Shear Modulus (GPa) = 13.60099 14.40662 14.00380
#
# Velocity S-wave (km/s) = 2.43254 2.50354 2.46830
# Velocity P-wave (km/s) = 4.09561 4.34084 4.22001
#
# Compressibility (1/GPa) = 0.04896907
#
# Stress axis : x y z
#
# Youngs Moduli (GPa) = 42.38225 42.38225 29.26515
#
# Poissons Ratio (x) = 0.45451 0.08006
# Poissons Ratio (y) = 0.45451 0.08006
# Poissons Ratio (z) = 0.11595 0.11595
#
# Static dielectric constant tensor:
#      x y z
#    x 1.842350 0.000000 0.000000 
#    y 0.000000 1.842350 0.000000 
#    z 0.000000 0.000000 1.923050 
# 
# From -- ./inp_files/2881.got.cif
#   From: 2010.05.17/outbox.cif.g08.bks.cpg/sg154_2_cif.got.tgz:2881.got - 2010.05.20 10:41:43.
