data_PCOD9576707
_publ_section_title
;
Structure prediction by ZEFSAII (Michael W. Deem and Ramdas Pophale) SiO2 
 PCOD9576707
Probable space group: P 32 2 1
;
_chemical_formula_sum "Si O2"
_cell_formula_units_Z 36
_cell_length_a 11.532823
_cell_length_b 11.532823
_cell_length_c 16.050239
_cell_angle_alpha 90.000000
_cell_angle_beta 90.000000
_cell_angle_gamma 120.000000
_cell_volume 1848.772144
_symmetry_space_group_name_H-M "P 32 2 1"
_symmetry_group_IT_number 154
_symmetry_cell_setting 'hexagonal'
loop_
_space_group_symop_operation_xyz
x,y,z
-y,x-y,2/3+z
-x+y,-x,1/3+z
x-y,-y,1/3-z
-x,-x+y,2/3-z
y,x,-z
loop_
_atom_site_type_symbol
_atom_site_label
_atom_site_fract_x
_atom_site_fract_y
_atom_site_fract_z
Si Si1 0.338613 0.775851 0.917038
Si Si2 0.731682 0.817643 0.224558
Si Si3 0.382890 0.370919 0.241382
Si Si4 0.294673 0.634824 0.083175
Si Si5 0.897991 0.754550 0.957752
Si Si6 0.229372 0.329406 0.078621
O O1 0.233058 0.824156 0.937217
O O2 0.472260 0.911609 0.896025
O O3 0.306879 0.680336 0.836808
O O4 0.364585 0.713551 0.999122
O O5 0.690181 0.823634 0.128960
O O6 0.803942 0.732147 0.237277
O O7 0.838371 0.962244 0.258797
O O8 0.516620 0.360341 0.248265
O O9 0.272023 0.325299 0.315619
O O10 0.297602 0.302643 0.158516
O O11 0.277083 0.487339 0.072159
O O12 0.808710 0.808710 0.000000
O O13 0.269497 0.269497 0.000000
#
# Coordination Sequence:
#
# PCOD9576707 Si02
#       6
#     6   6   6   6   6   6
#     4  11  23  41  63  95 126 166 216 267 323 391
#     4  11  22  39  63  90 131 165 209 267 316 386
#     4  11  22  41  66  90 128 168 215 271 322 392
#     4  11  23  42  66  92 129 171 215 271 330 387
#     4  11  22  39  64  92 122 169 212 258 321 387
#     4  11  23  41  64  94 129 168 218 267 329 388
#
# _framework density 19.472382
#
# number of rings (size 3 to 8) (size 9 to 14) (size 15 to 20)
#    0.000    1.000    5.000    2.500    0.000    0.000 
#    0.000    0.833    0.000    0.000    0.000    0.000 
#    0.000    0.000    0.000    0.000    0.000    0.000 
#
# Total GULP energy -200525.329132 kJ/mol
# GULP energy per Si atom -5570.148031 kJ/mol
# Density = 1.942806 g / cm^3
# Si number density = 19.472382 Si / 1000 Ang^3
#
#
#
# Elastic Constant Matrix: (Units=GPa)
#
#
# Indices 1 2 3 4 5 6 
#
# 1 72.6565 22.4292 16.3052 -0.1408 0.0000 0.0000
# 2 22.4292 72.6565 16.3052 0.1408 0.0000 0.0000
# 3 16.3052 16.3052 88.9791 0.0000 0.0000 0.0000
# 4 -0.1408 0.1408 0.0000 29.0198 0.0000 0.0000
# 5 0.0000 0.0000 0.0000 0.0000 29.0198 -0.1408
# 6 0.0000 0.0000 0.0000 0.0000 -0.1408 25.1136
#
#
#
# Elastic Compliance Matrix: (Units=1/GPa)
#
#
# Indices 1 2 3 4 5 6 
#
# 1 0.015566 -0.004344 -0.002056 0.000097 0.000000 0.000000
# 2 -0.004344 0.015566 -0.002056 -0.000097 0.000000 0.000000
# 3 -0.002056 -0.002056 0.011992 0.000000 0.000000 0.000000
# 4 0.000097 -0.000097 0.000000 0.034460 0.000000 0.000000
# 5 0.000000 0.000000 0.000000 0.000000 0.034460 0.000193
# 6 0.000000 0.000000 0.000000 0.000000 0.000193 0.039820
#
#
# Mechanical properties :
#
#
# Convention : Reuss Voigt Hill
#
# Bulk Modulus (GPa) = 38.15225 38.26346 38.20785
# Shear Modulus (GPa) = 28.16658 28.58082 28.37370
#
# Velocity S-wave (km/s) = 3.80740 3.83529 3.82137
# Velocity P-wave (km/s) = 6.24211 6.26940 6.25577
#
# Compressibility (1/GPa) = 0.02621078
#
# Stress axis : x y z
#
# Youngs Moduli (GPa) = 64.24230 64.24230 83.38714
#
# Poissons Ratio (x) = 0.27907 0.17148
# Poissons Ratio (y) = 0.27907 0.17148
# Poissons Ratio (z) = 0.13211 0.13211
#
# Static dielectric constant tensor:
#      x y z
#    x 1.671010 0.000000 0.000000 
#    y 0.000000 1.671010 0.000000 
#    z 0.000000 0.000000 1.716590 
# 
# From -- ./inp_files/1948.got.cif
#   From: 2010.05.17/outbox.cif.g08.bks.cpg/sg154_1_cif.got.tgz:1948.got - 2010.05.20 10:41:43.
