data_PCOD9576926
_publ_section_title
;
Structure prediction by ZEFSAII (Michael W. Deem and Ramdas Pophale) SiO2 
 PCOD9576926
Probable space group: R 3 2
;
_chemical_formula_sum "Si O2"
_cell_formula_units_Z 72
_cell_length_a 22.856675
_cell_length_b 22.856675
_cell_length_c 8.301720
_cell_angle_alpha 90.000000
_cell_angle_beta 90.000000
_cell_angle_gamma 120.000000
_cell_volume 3755.993390
_symmetry_space_group_name_H-M "R 3 2"
_symmetry_group_IT_number 155
_symmetry_cell_setting 'hexagonal'
loop_
_space_group_symop_operation_xyz
x,y,z
-y,x-y,z
-x+y,-x,z
x-y,-y,-z
-x,-x+y,-z
y,x,-z
2/3+x,1/3+y,1/3+z
2/3-y,1/3+x-y,1/3+z
2/3-x+y,1/3-x,1/3+z
2/3+x-y,1/3-y,1/3-z
2/3-x,1/3-x+y,1/3-z
2/3+y,1/3+x,1/3-z
1/3+x,2/3+y,2/3+z
1/3-y,2/3+x-y,2/3+z
1/3-x+y,2/3-x,2/3+z
1/3+x-y,2/3-y,2/3-z
1/3-x,2/3-x+y,2/3-z
1/3+y,2/3+x,2/3-z
loop_
_atom_site_type_symbol
_atom_site_label
_atom_site_fract_x
_atom_site_fract_y
_atom_site_fract_z
Si Si1 0.923708 0.000000 0.500000
Si Si2 0.606241 0.137826 0.602489
Si Si3 0.266753 0.076166 0.058617
Si Si4 0.656317 0.866119 0.145355
Si Si5 0.000000 0.751758 0.000000
O O1 0.890607 0.012788 0.343434
O O2 0.000000 0.063286 0.500000
O O3 0.540886 0.121471 0.494058
O O4 0.648368 0.116545 0.485479
O O5 0.573804 0.086949 0.753938
O O6 0.333334 0.098386 0.166667
O O7 0.296293 0.133183 0.918852
O O8 0.233864 0.000000 0.000000
O O9 0.666667 0.878238 0.333334
O O10 0.682377 0.935518 0.048264
#
# Coordination Sequence:
#
# PCOD9576926 Si02
#       5
#     9  18  18  18   9
#     4  10  24  42  60  84 116 154 214 256 306 362
#     4  10  21  40  58  84 120 156 198 255 300 359
#     4   9  20  37  59  88 124 158 202 249 306 371
#     4  10  21  38  58  87 123 158 198 247 309 361
#     4  10  20  38  60  88 124 156 202 240 304 380
#
# _framework density 19.169360999999999
#
# number of rings (size 3 to 8) (size 9 to 14) (size 15 to 20)
#    0.250    2.000    0.000    3.750    0.000    7.000 
#   13.500    5.000    0.000    0.000    0.000    0.000 
#    0.000    0.000    0.000    0.000    0.000    0.000 
#
# Total GULP energy -133885.574762 kJ/mol
# GULP energy per Si atom -5578.565615 kJ/mol
# Density = 1.912573 g / cm^3
# Si number density = 19.169361 Si / 1000 Ang^3
#
#
#
# Elastic Constant Matrix: (Units=GPa)
#
#
# Indices 1 2 3 4 5 6 
#
# 1 75.1325 32.7540 28.7683 -15.5392 0.0269 -0.0007
# 2 32.7540 75.1029 28.7196 15.5282 0.0038 -0.0008
# 3 28.7683 28.7196 99.7508 -0.0108 0.0492 -0.0095
# 4 -15.5392 15.5282 -0.0108 16.6759 -0.0002 0.0028
# 5 0.0269 0.0038 0.0492 -0.0002 16.6932 -15.5330
# 6 -0.0007 -0.0008 -0.0095 0.0028 -15.5330 21.1773
#
#
#
# Elastic Compliance Matrix: (Units=1/GPa)
#
#
# Indices 1 2 3 4 5 6 
#
# 1 0.042726 -0.031771 -0.003167 0.069396 -0.000193 -0.000153
# 2 -0.031771 0.042720 -0.003144 -0.069387 0.000183 0.000142
# 3 -0.003167 -0.003144 0.011844 -0.000016 -0.000077 -0.000051
# 4 0.069396 -0.069387 -0.000016 0.189245 -0.000372 -0.000299
# 5 -0.000193 0.000183 -0.000077 -0.000372 0.188674 0.138387
# 6 -0.000153 0.000142 -0.000051 -0.000299 0.138387 0.148723
#
#
# Mechanical properties :
#
#
# Convention : Reuss Voigt Hill
#
# Bulk Modulus (GPa) = 47.33866 47.83000 47.58433
# Shear Modulus (GPa) = 7.07074 21.55889 14.31482
#
# Velocity S-wave (km/s) = 1.92265 3.35722 2.73565
# Velocity P-wave (km/s) = 5.44769 6.32719 5.90384
#
# Compressibility (1/GPa) = 0.02112438
#
# Stress axis : x y z
#
# Youngs Moduli (GPa) = 23.40494 23.40827 84.43215
#
# Poissons Ratio (x) = 0.74370 0.26743
# Poissons Ratio (y) = 0.74359 0.26549
# Poissons Ratio (z) = 0.07413 0.07361
#
# Static dielectric constant tensor:
#      x y z
#    x 1.677520 0.000000 -0.000010 
#    y 0.000000 1.677530 0.000010 
#    z -0.000010 0.000010 1.703220 
# 
# From -- ./inp_files/2486.got.cif
#   From: 2010.05.17/outbox.cif.g08.bks.cpg/sg155_2_cif.got.tgz:2486.got - 2010.05.20 10:44:35.
