data_PCOD9576621
_publ_section_title
;
Structure prediction by ZEFSAII (Michael W. Deem and Ramdas Pophale) SiO2 
 PCOD9576621
Probable space group: P 32 2 1
;
_chemical_formula_sum "Si O2"
_cell_formula_units_Z 24
_cell_length_a 11.173106
_cell_length_b 11.173106
_cell_length_c 9.307060
_cell_angle_alpha 90.000000
_cell_angle_beta 90.000000
_cell_angle_gamma 120.000000
_cell_volume 1006.215454
_symmetry_space_group_name_H-M "P 32 2 1"
_symmetry_group_IT_number 154
_symmetry_cell_setting 'hexagonal'
loop_
_space_group_symop_operation_xyz
x,y,z
-y,x-y,2/3+z
-x+y,-x,1/3+z
x-y,-y,1/3-z
-x,-x+y,2/3-z
y,x,-z
loop_
_atom_site_type_symbol
_atom_site_label
_atom_site_fract_x
_atom_site_fract_y
_atom_site_fract_z
Si Si1 0.032713 0.713508 0.632061
Si Si2 0.000000 0.602027 0.333334
Si Si3 0.873276 0.419660 0.740837
Si Si4 0.000000 0.050500 0.333334
Si Si5 0.330636 0.770923 0.564909
O O1 0.918482 0.579760 0.715665
O O2 0.980708 0.676432 0.468651
O O3 0.057045 0.860018 0.676852
O O4 0.000000 0.429508 0.833334
O O5 0.128354 0.576138 0.343437
O O6 0.719717 0.337399 0.804282
O O7 0.820983 0.538018 0.041537
O O8 0.860136 0.355836 0.581331
O O9 0.988922 0.988922 0.500000
#
# Coordination Sequence:
#
# PCOD9576621 Si02
#       5
#     6   3   6   3   6
#     4  11  24  47  74 107 148 205 259 314 405 469
#     4  10  22  42  70 112 142 197 247 324 386 468
#     4  11  24  42  69 110 143 194 254 320 392 470
#     4  12  28  54  78 112 160 209 267 330 398 494
#     4  11  22  46  71 103 156 187 259 327 389 474
#
# _framework density 23.851749999999999
#
# number of rings (size 3 to 8) (size 9 to 14) (size 15 to 20)
#    0.000    1.000    2.500    3.750    0.000    0.000 
#   22.500    0.000    0.000    0.000    0.000    0.000 
#    0.000    0.000    0.000    0.000    0.000    0.000 
#
# Total GULP energy -133942.932520 kJ/mol
# GULP energy per Si atom -5580.955522 kJ/mol
# Density = 2.379746 g / cm^3
# Si number density = 23.851750 Si / 1000 Ang^3
#
#
#
# Elastic Constant Matrix: (Units=GPa)
#
#
# Indices 1 2 3 4 5 6 
#
# 1 119.4891 56.8360 20.8852 -1.1170 0.0000 0.0000
# 2 56.8360 119.4891 20.8852 1.1170 0.0000 0.0000
# 3 20.8852 20.8852 122.4574 0.0000 0.0000 0.0000
# 4 -1.1170 1.1170 0.0000 38.3754 0.0000 0.0000
# 5 0.0000 0.0000 0.0000 0.0000 38.3754 -1.1170
# 6 0.0000 0.0000 0.0000 0.0000 -1.1170 31.3265
#
#
#
# Elastic Compliance Matrix: (Units=1/GPa)
#
#
# Indices 1 2 3 4 5 6 
#
# 1 0.010944 -0.005034 -0.001008 0.000465 0.000000 0.000000
# 2 -0.005034 0.010944 -0.001008 -0.000465 0.000000 0.000000
# 3 -0.001008 -0.001008 0.008510 0.000000 0.000000 0.000000
# 4 0.000465 -0.000465 0.000000 0.026085 0.000000 0.000000
# 5 0.000000 0.000000 0.000000 0.000000 0.026085 0.000930
# 6 0.000000 0.000000 0.000000 0.000000 0.000930 0.031955
#
#
# Mechanical properties :
#
#
# Convention : Reuss Voigt Hill
#
# Bulk Modulus (GPa) = 61.35620 62.07205 61.71412
# Shear Modulus (GPa) = 37.29799 39.13739 38.21769
#
# Velocity S-wave (km/s) = 3.95871 4.05515 4.00722
# Velocity P-wave (km/s) = 6.83191 6.92865 6.88045
#
# Compressibility (1/GPa) = 0.01629827
#
# Stress axis : x y z
#
# Youngs Moduli (GPa) = 91.37586 91.37586 117.50979
#
# Poissons Ratio (x) = 0.45996 0.11845
# Poissons Ratio (y) = 0.45996 0.11845
# Poissons Ratio (z) = 0.09210 0.09210
#
# Static dielectric constant tensor:
#      x y z
#    x 1.882520 0.000000 0.000000 
#    y 0.000000 1.882520 0.000000 
#    z 0.000000 0.000000 2.122610 
# 
# From -- ./inp_files/917.got.cif
#   From: 2010.05.17/outbox.cif.g08.bks.cpg/sg154_1_cif.got.tgz:917.got - 2010.05.20 10:41:43.
