data_PCOD9576665
_publ_section_title
;
Structure prediction by ZEFSAII (Michael W. Deem and Ramdas Pophale) SiO2 
 PCOD9576665
Probable space group: P 32 2 1
;
_chemical_formula_sum "Si O2"
_cell_formula_units_Z 33
_cell_length_a 14.924390
_cell_length_b 14.924390
_cell_length_c 8.106382
_cell_angle_alpha 90.000000
_cell_angle_beta 90.000000
_cell_angle_gamma 120.000000
_cell_volume 1563.690781
_symmetry_space_group_name_H-M "P 32 2 1"
_symmetry_group_IT_number 154
_symmetry_cell_setting 'hexagonal'
loop_
_space_group_symop_operation_xyz
x,y,z
-y,x-y,2/3+z
-x+y,-x,1/3+z
x-y,-y,1/3-z
-x,-x+y,2/3-z
y,x,-z
loop_
_atom_site_type_symbol
_atom_site_label
_atom_site_fract_x
_atom_site_fract_y
_atom_site_fract_z
Si Si1 0.726273 0.511868 0.017460
Si Si2 0.491169 0.000000 0.166667
Si Si3 0.060294 0.785347 0.662641
Si Si4 0.200754 0.542508 0.667210
Si Si5 0.661644 0.000000 0.666667
Si Si6 0.392748 0.523476 0.797089
Si Si7 0.062000 0.000000 0.666667
O O1 0.828560 0.622027 0.018405
O O2 0.759159 0.423825 0.007008
O O3 0.640397 0.479719 0.158464
O O4 0.670004 0.504210 0.845968
O O5 0.525312 0.961599 0.329094
O O6 0.488510 0.102118 0.215407
O O7 0.071840 0.897911 0.660880
O O8 0.004672 0.724379 0.496215
O O9 0.000000 0.732417 0.833334
O O10 0.294869 0.527313 0.724771
O O11 0.642491 0.095287 0.705908
O O12 0.006893 0.006893 0.500000
#
# Coordination Sequence:
#
# PCOD9576665 Si02
#       7
#     6   3   6   6   3   6   3
#     4  12  23  43  68 102 145 189 238 297 365 445
#     4  12  26  44  70 106 144 188 264 306 362 458
#     4  11  26  46  73 108 141 180 237 304 367 434
#     4  12  25  42  72 102 148 199 248 302 366 453
#     4  12  27  43  72 102 144 192 234 299 361 446
#     4  12  25  45  70 104 143 202 248 299 375 438
#     4  10  23  49  80 100 134 186 238 299 369 442
#
# _framework density 21.103919000000001
#
# number of rings (size 3 to 8) (size 9 to 14) (size 15 to 20)
#    0.000    0.364    3.636    4.909    5.091    2.182 
#    0.000    0.000    6.000    0.000    0.000    0.000 
#    0.000    0.000    0.000    0.000    0.000    0.000 
#
# Total GULP energy -184596.412290 kJ/mol
# GULP energy per Si atom -5593.830675 kJ/mol
# Density = 2.105589 g / cm^3
# Si number density = 21.103919 Si / 1000 Ang^3
#
#
#
# Elastic Constant Matrix: (Units=GPa)
#
#
# Indices 1 2 3 4 5 6 
#
# 1 104.2361 42.2797 51.2381 -2.4162 0.0000 0.0000
# 2 42.2797 104.2361 51.2381 2.4162 0.0000 0.0000
# 3 51.2381 51.2381 135.8348 0.0000 0.0000 0.0000
# 4 -2.4162 2.4162 0.0000 38.4718 0.0000 0.0000
# 5 0.0000 0.0000 0.0000 0.0000 38.4718 -2.4162
# 6 0.0000 0.0000 0.0000 0.0000 -2.4162 30.9782
#
#
#
# Elastic Compliance Matrix: (Units=1/GPa)
#
#
# Indices 1 2 3 4 5 6 
#
# 1 0.012746 -0.003474 -0.003497 0.001019 0.000000 0.000000
# 2 -0.003474 0.012746 -0.003497 -0.001019 0.000000 0.000000
# 3 -0.003497 -0.003497 0.010000 0.000000 0.000000 0.000000
# 4 0.001019 -0.001019 0.000000 0.026121 0.000000 0.000000
# 5 0.000000 0.000000 0.000000 0.000000 0.026121 0.002037
# 6 0.000000 0.000000 0.000000 0.000000 0.002037 0.032440
#
#
# Mechanical properties :
#
#
# Convention : Reuss Voigt Hill
#
# Bulk Modulus (GPa) = 68.71008 70.42431 69.56719
# Shear Modulus (GPa) = 34.25556 34.88776 34.57166
#
# Velocity S-wave (km/s) = 4.03325 4.07029 4.05181
# Velocity P-wave (km/s) = 7.37008 7.45201 7.41116
#
# Compressibility (1/GPa) = 0.01455391
#
# Stress axis : x y z
#
# Youngs Moduli (GPa) = 78.45890 78.45890 99.99775
#
# Poissons Ratio (x) = 0.27259 0.34971
# Poissons Ratio (y) = 0.27259 0.34971
# Poissons Ratio (z) = 0.27439 0.27439
#
# Static dielectric constant tensor:
#      x y z
#    x 1.753560 0.000000 0.000000 
#    y 0.000000 1.753560 0.000000 
#    z 0.000000 0.000000 1.827700 
# 
# From -- ./inp_files/1185.got.cif
#   From: 2010.05.17/outbox.cif.g08.bks.cpg/sg154_1_cif.got.tgz:1185.got - 2010.05.20 10:41:43.
