data_PCOD9576205
_publ_section_title
;
Structure prediction by ZEFSAII (Michael W. Deem and Ramdas Pophale) SiO2 
 PCOD9576205
Probable space group: P 31 2 1
;
_chemical_formula_sum "Si O2"
_cell_formula_units_Z 15
_cell_length_a 7.283087
_cell_length_b 7.283087
_cell_length_c 12.173771
_cell_angle_alpha 90.000000
_cell_angle_beta 90.000000
_cell_angle_gamma 120.000000
_cell_volume 559.225228
_symmetry_space_group_name_H-M "P 31 2 1"
_symmetry_group_IT_number 152
_symmetry_cell_setting 'hexagonal'
loop_
_space_group_symop_operation_xyz
x,y,z
-y,x-y,1/3+z
-x+y,-x,2/3+z
x-y,-y,2/3-z
-x,-x+y,1/3-z
y,x,-z
loop_
_atom_site_type_symbol
_atom_site_label
_atom_site_fract_x
_atom_site_fract_y
_atom_site_fract_z
Si Si1 0.783137 0.383784 0.893699
Si Si2 0.000000 0.479760 0.666667
Si Si3 0.772376 0.900401 0.608537
O O1 0.846869 0.346692 0.771923
O O2 0.550988 0.348114 0.925922
O O3 0.915244 0.636223 0.912575
O O4 0.849515 0.257845 0.975971
O O5 0.794805 0.794805 0.500000
O O6 0.000000 0.008268 0.666667
#
# Coordination Sequence:
#
# PCOD9576205 Si02
#       3
#     6   3   6
#     4  12  29  52  84 122 169 223 283 354 427 510
#     4  12  28  52  84 124 170 224 288 350 432 514
#     4  12  30  54  83 123 169 221 283 354 425 508
#
# _framework density 26.822821000000001
#
# number of rings (size 3 to 8) (size 9 to 14) (size 15 to 20)
#    0.000    0.000    2.000    4.800   19.600    0.000 
#    0.000    0.000    0.000    0.000    0.000    0.000 
#    0.000    0.000    0.000    0.000    0.000    0.000 
#
# Total GULP energy -83708.093212 kJ/mol
# GULP energy per Si atom -5580.539547 kJ/mol
# Density = 2.676177 g / cm^3
# Si number density = 26.822821 Si / 1000 Ang^3
#
#
#
# Elastic Constant Matrix: (Units=GPa)
#
#
# Indices 1 2 3 4 5 6 
#
# 1 140.3696 76.9359 62.2835 48.8362 -0.0004 0.0000
# 2 76.9359 140.3696 62.2835 -48.8362 0.0004 0.0000
# 3 62.2835 62.2835 176.3864 0.0000 0.0000 0.0000
# 4 48.8362 -48.8362 0.0000 -54.6715 0.0000 0.0004
# 5 -0.0004 0.0004 0.0000 0.0000 -54.6715 48.8362
# 6 0.0000 0.0000 0.0000 0.0004 48.8362 31.7168
#
#
#
# Elastic Compliance Matrix: (Units=1/GPa)
#
#
# Indices 1 2 3 4 5 6 
#
# 1 0.006203 -0.000433 -0.002037 0.005928 0.000000 0.000000
# 2 -0.000433 0.006203 -0.002037 -0.005928 0.000000 0.000000
# 3 -0.002037 -0.002037 0.007108 0.000000 0.000000 0.000000
# 4 0.005928 -0.005928 0.000000 -0.007700 0.000000 0.000000
# 5 0.000000 0.000000 0.000000 0.000000 -0.007700 0.011856
# 6 0.000000 0.000000 0.000000 0.000000 0.011856 0.013273
#
#
# Mechanical properties :
#
#
# Convention : Reuss Voigt Hill
#
# Bulk Modulus (GPa) = 95.25412 95.57016 95.41214
# Shear Modulus (GPa) = 167.20914 1.51627 84.36270
#
# Velocity S-wave (km/s) = 7.90403 0.75267 5.61428
# Velocity P-wave (km/s) = 10.90357 6.03845 8.81336
#
# Compressibility (1/GPa) = 0.01049823
#
# Stress axis : x y z
#
# Youngs Moduli (GPa) = 161.20953 161.20953 140.68329
#
# Poissons Ratio (x) = 0.06987 0.28662
# Poissons Ratio (y) = 0.06987 0.28662
# Poissons Ratio (z) = 0.32844 0.32844
#
# Static dielectric constant tensor:
#      x y z
#    x 2.204180 0.000000 0.000000 
#    y 0.000000 2.204180 0.000000 
#    z 0.000000 0.000000 1.875590 
# 
# From -- ./inp_files/1439.got.cif
#   From: 2010.05.17/outbox.cif.g08.bks.cpg/sg152_1_cif.got.tgz:1439.got - 2010.05.20 10:36:06.
