data_PCOD9576072
_publ_section_title
;
Structure prediction by ZEFSAII (Michael W. Deem and Ramdas Pophale) SiO2 
 PCOD9576072
Probable space group: P 31 2 1
;
_chemical_formula_sum "Si O2"
_cell_formula_units_Z 36
_cell_length_a 11.022261
_cell_length_b 11.022261
_cell_length_c 15.842584
_cell_angle_alpha 90.000000
_cell_angle_beta 90.000000
_cell_angle_gamma 120.000000
_cell_volume 1666.855803
_symmetry_space_group_name_H-M "P 31 2 1"
_symmetry_group_IT_number 152
_symmetry_cell_setting 'hexagonal'
loop_
_space_group_symop_operation_xyz
x,y,z
-y,x-y,1/3+z
-x+y,-x,2/3+z
x-y,-y,2/3-z
-x,-x+y,1/3-z
y,x,-z
loop_
_atom_site_type_symbol
_atom_site_label
_atom_site_fract_x
_atom_site_fract_y
_atom_site_fract_z
Si Si1 0.095051 0.467679 0.743628
Si Si2 0.677868 0.645581 0.735324
Si Si3 0.838601 0.412134 0.172391
Si Si4 0.228485 0.601263 0.350906
Si Si5 0.774283 0.144619 0.256641
Si Si6 0.087223 0.033625 0.083651
O O1 0.059074 0.404612 0.836026
O O2 0.253797 0.510205 0.723639
O O3 0.083382 0.608883 0.746573
O O4 0.000000 0.376085 0.666667
O O5 0.530622 0.604319 0.693869
O O6 0.768270 0.599853 0.677408
O O7 0.782323 0.811157 0.738899
O O8 0.759497 0.431839 0.253754
O O9 0.838529 0.266810 0.187490
O O10 0.000000 0.535306 0.166667
O O11 0.753381 0.381558 0.083841
O O12 0.828069 0.033990 0.246369
O O13 0.000000 0.979686 0.166667
O O14 0.995269 0.995269 0.000000
#
# Coordination Sequence:
#
# PCOD9576072 Si02
#       6
#     6   6   6   6   6   6
#     4  11  25  42  70  98 140 174 228 280 350 412
#     4  11  24  43  65 100 134 179 223 281 339 417
#     4  11  23  43  67 100 135 182 228 286 356 412
#     4  11  26  41  68 101 142 175 232 288 347 417
#     4  10  23  41  71  93 129 176 232 276 335 414
#     4  10  23  43  69  94 129 176 230 275 338 409
#
# _framework density 21.597549999999998
#
# number of rings (size 3 to 8) (size 9 to 14) (size 15 to 20)
#    0.000    1.333    1.667    3.000   16.333    1.333 
#    0.000    0.000    0.000    0.000    0.000    0.000 
#    0.000    0.000    0.000    0.000    0.000    0.000 
#
# Total GULP energy -200884.413430 kJ/mol
# GULP energy per Si atom -5580.122595 kJ/mol
# Density = 2.154839 g / cm^3
# Si number density = 21.597550 Si / 1000 Ang^3
#
#
#
# Elastic Constant Matrix: (Units=GPa)
#
#
# Indices 1 2 3 4 5 6 
#
# 1 26.0154 4.6686 8.3483 -1.2792 -0.0002 0.0000
# 2 4.6686 26.0154 8.3483 1.2792 0.0002 0.0000
# 3 8.3483 8.3483 123.3228 0.0000 0.0000 0.0000
# 4 -1.2792 1.2792 0.0000 34.2033 0.0000 0.0002
# 5 -0.0002 0.0002 0.0000 0.0000 34.2033 -1.2792
# 6 0.0000 0.0000 0.0000 0.0002 -1.2792 10.6734
#
#
#
# Elastic Compliance Matrix: (Units=1/GPa)
#
#
# Indices 1 2 3 4 5 6 
#
# 1 0.040447 -0.006610 -0.002291 0.001760 0.000000 0.000000
# 2 -0.006610 0.040447 -0.002291 -0.001760 0.000000 0.000000
# 3 -0.002291 -0.002291 0.008419 0.000000 0.000000 0.000000
# 4 0.001760 -0.001760 0.000000 0.029369 0.000000 -0.000001
# 5 0.000000 0.000000 0.000000 0.000000 0.029369 0.003520
# 6 0.000000 0.000000 0.000000 -0.000001 0.003520 0.094113
#
#
# Mechanical properties :
#
#
# Convention : Reuss Voigt Hill
#
# Bulk Modulus (GPa) = 14.94097 24.23155 19.58626
# Shear Modulus (GPa) = 17.43049 26.08190 21.75620
#
# Velocity S-wave (km/s) = 2.84396 3.47887 3.17731
# Velocity P-wave (km/s) = 4.20916 5.23265 4.74856
#
# Compressibility (1/GPa) = 0.06693006
#
# Stress axis : x y z
#
# Youngs Moduli (GPa) = 24.72400 24.72400 118.78005
#
# Poissons Ratio (x) = 0.16342 0.27207
# Poissons Ratio (y) = 0.16342 0.27207
# Poissons Ratio (z) = 0.05663 0.05663
#
# Static dielectric constant tensor:
#      x y z
#    x 1.809080 0.000000 0.000000 
#    y 0.000000 1.809080 0.000000 
#    z 0.000000 0.000000 1.804950 
# 
# From -- ./inp_files/2031.got.cif
#   From: 2010.05.17/outbox.cif.g08.bks.cpg/sg152_2_cif.got.tgz:2031.got - 2010.05.20 10:36:06.
