data_PCOD9576587
_publ_section_title
;
Structure prediction by ZEFSAII (Michael W. Deem and Ramdas Pophale) SiO2 
 PCOD9576587
Probable space group: P 32 2 1
;
_chemical_formula_sum "Si O2"
_cell_formula_units_Z 21
_cell_length_a 7.911271
_cell_length_b 7.911271
_cell_length_c 20.108964
_cell_angle_alpha 90.000000
_cell_angle_beta 90.000000
_cell_angle_gamma 120.000000
_cell_volume 1089.965750
_symmetry_space_group_name_H-M "P 32 2 1"
_symmetry_group_IT_number 154
_symmetry_cell_setting 'hexagonal'
loop_
_space_group_symop_operation_xyz
x,y,z
-y,x-y,2/3+z
-x+y,-x,1/3+z
x-y,-y,1/3-z
-x,-x+y,2/3-z
y,x,-z
loop_
_atom_site_type_symbol
_atom_site_label
_atom_site_fract_x
_atom_site_fract_y
_atom_site_fract_z
Si Si1 0.277852 0.277852 0.500000
Si Si2 0.217023 0.911868 0.415834
Si Si3 0.331801 0.082699 0.070043
Si Si4 0.303384 0.734237 0.140933
O O1 0.317405 0.467331 0.456872
O O2 0.103888 0.246663 0.547657
O O3 0.299158 0.942243 0.340830
O O4 0.316725 0.807485 0.455874
O O5 0.983574 0.783634 0.410198
O O6 0.524087 0.218235 0.114068
O O7 0.228493 0.867963 0.104317
#
# Coordination Sequence:
#
# PCOD9576587 Si02
#       4
#     3   6   6   6
#     4  10  22  36  60  92 110 164 210 238 324 386
#     4  11  21  40  63  85 130 161 203 271 314 375
#     4   9  22  39  59  94 119 164 214 253 325 382
#     4  10  22  40  60  89 124 161 210 261 314 379
#
# _framework density 19.266660000000002
#
# number of rings (size 3 to 8) (size 9 to 14) (size 15 to 20)
#    0.000    2.286    0.000    3.429    8.000    0.000 
#    0.000   11.429    0.000    0.000    0.000    0.000 
#    0.000    0.000    0.000    0.000    0.000    0.000 
#
# Total GULP energy -116930.630772 kJ/mol
# GULP energy per Si atom -5568.125275 kJ/mol
# Density = 1.922281 g / cm^3
# Si number density = 19.266660 Si / 1000 Ang^3
#
#
#
# Elastic Constant Matrix: (Units=GPa)
#
#
# Indices 1 2 3 4 5 6 
#
# 1 100.5976 65.8155 56.5041 3.8417 0.0000 0.0000
# 2 65.8155 100.5976 56.5041 -3.8417 0.0000 0.0000
# 3 56.5041 56.5041 127.8549 0.0000 0.0000 0.0000
# 4 3.8417 -3.8417 0.0000 21.3713 0.0000 0.0000
# 5 0.0000 0.0000 0.0000 0.0000 21.3713 3.8417
# 6 0.0000 0.0000 0.0000 0.0000 3.8417 17.3911
#
#
#
# Elastic Compliance Matrix: (Units=1/GPa)
#
#
# Indices 1 2 3 4 5 6 
#
# 1 0.019263 -0.010677 -0.003794 -0.005382 0.000000 0.000000
# 2 -0.010677 0.019263 -0.003794 0.005382 0.000000 0.000000
# 3 -0.003794 -0.003794 0.011175 0.000000 0.000000 0.000000
# 4 -0.005382 0.005382 0.000000 0.048727 0.000000 0.000000
# 5 0.000000 0.000000 0.000000 0.000000 0.048727 -0.010764
# 6 0.000000 0.000000 0.000000 0.000000 -0.010764 0.059878
#
#
# Mechanical properties :
#
#
# Convention : Reuss Voigt Hill
#
# Bulk Modulus (GPa) = 75.93477 76.29971 76.11724
# Shear Modulus (GPa) = 20.16512 22.04182 21.10347
#
# Velocity S-wave (km/s) = 3.23868 3.38604 3.31318
# Velocity P-wave (km/s) = 7.31324 7.41451 7.36405
#
# Compressibility (1/GPa) = 0.01316920
#
# Stress axis : x y z
#
# Youngs Moduli (GPa) = 51.91421 51.91421 89.48397
#
# Poissons Ratio (x) = 0.55427 0.33954
# Poissons Ratio (y) = 0.55427 0.33954
# Poissons Ratio (z) = 0.19699 0.19699
#
# Static dielectric constant tensor:
#      x y z
#    x 1.711850 0.000000 0.000000 
#    y 0.000000 1.711850 0.000000 
#    z 0.000000 0.000000 1.703840 
# 
# From -- ./inp_files/2275.got.cif
#   From: 2010.05.17/outbox.cif.g08.bks.cpg/sg154_2_cif.got.tgz:2275.got - 2010.05.20 10:41:43.
