data_PCOD9576783
_publ_section_title
;
Structure prediction by ZEFSAII (Michael W. Deem and Ramdas Pophale) SiO2 
 PCOD9576783
Probable space group: R 3 2
;
_chemical_formula_sum "Si O2"
_cell_formula_units_Z 126
_cell_length_a 26.517007
_cell_length_b 26.517007
_cell_length_c 11.415702
_cell_angle_alpha 90.000000
_cell_angle_beta 90.000000
_cell_angle_gamma 120.000000
_cell_volume 6951.559774
_symmetry_space_group_name_H-M "R 3 2"
_symmetry_group_IT_number 155
_symmetry_cell_setting 'hexagonal'
loop_
_space_group_symop_operation_xyz
x,y,z
-y,x-y,z
-x+y,-x,z
x-y,-y,-z
-x,-x+y,-z
y,x,-z
2/3+x,1/3+y,1/3+z
2/3-y,1/3+x-y,1/3+z
2/3-x+y,1/3-x,1/3+z
2/3+x-y,1/3-y,1/3-z
2/3-x,1/3-x+y,1/3-z
2/3+y,1/3+x,1/3-z
1/3+x,2/3+y,2/3+z
1/3-y,2/3+x-y,2/3+z
1/3-x+y,2/3-x,2/3+z
1/3+x-y,2/3-y,2/3-z
1/3-x,2/3-x+y,2/3-z
1/3+y,2/3+x,2/3-z
loop_
_atom_site_type_symbol
_atom_site_label
_atom_site_fract_x
_atom_site_fract_y
_atom_site_fract_z
Si Si1 0.068787 0.725783 0.470456
Si Si2 0.239341 0.007689 0.234186
Si Si3 0.268646 0.430225 0.110237
Si Si4 0.916443 0.249677 0.902154
Si Si5 0.122830 0.718300 0.844248
Si Si6 0.224927 0.060577 0.567102
Si Si7 0.940251 0.449830 0.422707
O O1 0.071657 0.738324 0.333334
O O2 0.092584 0.787088 0.531922
O O3 0.092912 0.683098 0.502545
O O4 0.000000 0.690197 0.500000
O O5 0.264778 0.977833 0.149747
O O6 0.179801 0.959836 0.297790
O O7 0.287228 0.040348 0.335968
O O8 0.234725 0.056412 0.159013
O O9 0.333334 0.464708 0.166667
O O10 0.229056 0.451684 0.176722
O O11 0.273083 0.428906 0.969165
O O12 0.875883 0.250631 0.800036
O O13 0.894300 0.188540 0.966261
O O14 0.082263 0.748930 0.833334
O O15 0.174421 0.754975 0.754260
O O16 0.183477 0.000000 0.500000
O O17 0.000000 0.482199 0.500000
#
# Coordination Sequence:
#
# PCOD9576783 Si02
#       7
#    18  18  18  18  18  18  18
#     4  10  18  31  47  73  97 130 174 219 259 309
#     4  10  20  31  46  72 103 141 179 226 265 314
#     4  11  21  36  53  75 101 136 179 222 278 327
#     4  10  20  32  47  75 102 143 183 223 262 314
#     4  10  18  32  51  68  98 134 179 217 260 314
#     4  10  21  35  51  73 105 138 177 220 276 324
#     4   9  18  31  47  68  96 138 180 217 248 313
#
# _framework density 18.125427999999999
#
# number of rings (size 3 to 8) (size 9 to 14) (size 15 to 20)
#    0.000    2.000    2.857    4.286    0.000   12.000 
#    0.000    0.000    0.000    0.286    0.000    0.000 
#    0.000    0.000    0.000    0.000    0.000    0.143 
#
# Total GULP energy -233932.563934 kJ/mol
# GULP energy per Si atom -5569.822951 kJ/mol
# Density = 1.808417 g / cm^3
# Si number density = 18.125428 Si / 1000 Ang^3
#
#
#
# Elastic Constant Matrix: (Units=GPa)
#
#
# Indices 1 2 3 4 5 6 
#
# 1 79.3284 45.1318 19.6921 5.1246 -0.0002 -0.0001
# 2 45.1318 79.3285 19.6921 -5.1247 0.0000 0.0000
# 3 19.6921 19.6921 37.0575 -0.0005 0.0016 0.0000
# 4 5.1246 -5.1247 -0.0005 16.9502 -0.0004 -0.0001
# 5 -0.0002 0.0000 0.0016 -0.0004 16.9505 5.1246
# 6 -0.0001 0.0000 0.0000 -0.0001 5.1246 17.0982
#
#
#
# Elastic Compliance Matrix: (Units=1/GPa)
#
#
# Indices 1 2 3 4 5 6 
#
# 1 0.020908 -0.011249 -0.005133 -0.009722 0.000000 0.000000
# 2 -0.011249 0.020908 -0.005132 0.009722 0.000001 0.000000
# 3 -0.005133 -0.005132 0.032440 0.000001 -0.000003 0.000001
# 4 -0.009722 0.009722 0.000001 0.064875 0.000001 0.000000
# 5 0.000000 0.000001 -0.000003 0.000001 0.064874 -0.019444
# 6 0.000000 0.000000 0.000001 0.000000 -0.019444 0.064313
#
#
# Mechanical properties :
#
#
# Convention : Reuss Voigt Hill
#
# Bulk Modulus (GPa) = 32.02346 40.52737 36.27542
# Shear Modulus (GPa) = 15.53979 17.61300 16.57639
#
# Velocity S-wave (km/s) = 2.93123 3.12064 3.02741
# Velocity P-wave (km/s) = 5.40020 5.94916 5.68131
#
# Compressibility (1/GPa) = 0.03122710
#
# Stress axis : x y z
#
# Youngs Moduli (GPa) = 47.82924 47.82948 30.82616
#
# Poissons Ratio (x) = 0.53802 0.15823
# Poissons Ratio (y) = 0.53802 0.15821
# Poissons Ratio (z) = 0.24550 0.24548
#
# Static dielectric constant tensor:
#      x y z
#    x 1.659650 0.000000 0.000000 
#    y 0.000000 1.659650 0.000000 
#    z 0.000000 0.000000 1.717740 
# 
# From -- ./inp_files/4250.got.cif
#   From: 2010.05.17/outbox.cif.g08.bks.cpg/sg155_3_cif.got.tgz:4250.got - 2010.05.20 10:44:35.
