data_PCOD9576471
_publ_section_title
;
Structure prediction by ZEFSAII (Michael W. Deem and Ramdas Pophale) SiO2 
 PCOD9576471
Probable space group: P 32 2 1
;
_chemical_formula_sum "Si O2"
_cell_formula_units_Z 48
_cell_length_a 21.274819
_cell_length_b 21.274819
_cell_length_c 7.318732
_cell_angle_alpha 90.000000
_cell_angle_beta 90.000000
_cell_angle_gamma 120.000000
_cell_volume 2868.786469
_symmetry_space_group_name_H-M "P 32 2 1"
_symmetry_group_IT_number 154
_symmetry_cell_setting 'hexagonal'
loop_
_space_group_symop_operation_xyz
x,y,z
-y,x-y,2/3+z
-x+y,-x,1/3+z
x-y,-y,1/3-z
-x,-x+y,2/3-z
y,x,-z
loop_
_atom_site_type_symbol
_atom_site_label
_atom_site_fract_x
_atom_site_fract_y
_atom_site_fract_z
Si Si1 0.274542 0.654355 0.473429
Si Si2 0.078748 0.695107 0.365461
Si Si3 0.543169 0.603782 0.252454
Si Si4 0.898579 0.382735 0.512044
Si Si5 0.068802 0.602050 0.711729
Si Si6 0.282346 0.790869 0.930179
Si Si7 0.498959 0.846780 0.393749
Si Si8 0.227574 0.771514 0.523209
O O1 0.304625 0.646938 0.278423
O O2 0.225571 0.572250 0.543119
O O3 0.231293 0.698258 0.478629
O O4 0.066219 0.638087 0.525086
O O5 0.101596 0.669647 0.183191
O O6 0.153515 0.763509 0.441528
O O7 0.000000 0.688010 0.333334
O O8 0.597868 0.572615 0.272880
O O9 0.471053 0.539118 0.336272
O O10 0.553031 0.678988 0.330631
O O11 0.528345 0.608984 0.036505
O O12 0.865113 0.435632 0.552921
O O13 0.837137 0.301510 0.555767
O O14 0.000000 0.584903 0.833334
O O15 0.135069 0.646662 0.846315
O O16 0.239686 0.785414 0.741595
O O17 0.231436 0.725404 0.065499
#
# Coordination Sequence:
#
# PCOD9576471 Si02
#       8
#     6   6   6   6   6   6   6   6
#     4  10  21  33  45  64  95 124 156 206 264 308
#     4  12  23  37  52  72  98 125 166 213 260 318
#     4  10  20  36  54  73 101 131 171 217 255 320
#     4  10  20  36  55  73  97 135 171 215 265 308
#     4  12  21  36  55  75  96 126 174 211 256 315
#     4  10  22  34  50  72 100 129 162 215 269 306
#     4  12  23  34  55  75  96 135 165 217 269 311
#     4  10  22  35  50  71  97 124 170 216 259 317
#
# _framework density 16.731812999999999
#
# number of rings (size 3 to 8) (size 9 to 14) (size 15 to 20)
#    0.000    1.250    5.000    1.500    7.000    1.000 
#    0.000    0.000    0.000    0.000    0.000    0.000 
#    0.000    0.000    0.000    0.000    0.000    0.000 
#
# Total GULP energy -267779.699056 kJ/mol
# GULP energy per Si atom -5578.743730 kJ/mol
# Density = 1.669373 g / cm^3
# Si number density = 16.731813 Si / 1000 Ang^3
#
#
#
# Elastic Constant Matrix: (Units=GPa)
#
#
# Indices 1 2 3 4 5 6 
#
# 1 84.6132 46.4185 10.1795 2.6487 0.0001 0.0000
# 2 46.4185 84.6132 10.1795 -2.6487 -0.0001 0.0000
# 3 10.1795 10.1795 49.2340 0.0000 0.0000 0.0000
# 4 2.6487 -2.6487 0.0000 16.5645 0.0000 -0.0001
# 5 0.0001 -0.0001 0.0000 0.0000 16.5645 2.6487
# 6 0.0000 0.0000 0.0000 -0.0001 2.6487 19.0974
#
#
#
# Elastic Compliance Matrix: (Units=1/GPa)
#
#
# Indices 1 2 3 4 5 6 
#
# 1 0.017330 -0.009445 -0.001630 -0.004281 0.000000 0.000000
# 2 -0.009445 0.017330 -0.001630 0.004281 0.000000 0.000000
# 3 -0.001630 -0.001630 0.020985 0.000000 0.000000 0.000000
# 4 -0.004281 0.004281 0.000000 0.061739 0.000000 0.000000
# 5 0.000000 0.000000 0.000000 0.000000 0.061739 -0.008563
# 6 0.000000 0.000000 0.000000 0.000000 -0.008563 0.053551
#
#
# Mechanical properties :
#
#
# Convention : Reuss Voigt Hill
#
# Bulk Modulus (GPa) = 33.07507 39.11280 36.09393
# Shear Modulus (GPa) = 18.64521 20.55745 19.60133
#
# Velocity S-wave (km/s) = 3.34182 3.50900 3.42643
# Velocity P-wave (km/s) = 5.89076 6.31225 6.10514
#
# Compressibility (1/GPa) = 0.03023425
#
# Stress axis : x y z
#
# Youngs Moduli (GPa) = 57.70256 57.70256 47.65235
#
# Poissons Ratio (x) = 0.54501 0.07769
# Poissons Ratio (y) = 0.54501 0.07769
# Poissons Ratio (z) = 0.09407 0.09407
#
# Static dielectric constant tensor:
#      x y z
#    x 1.622250 0.000000 0.000000 
#    y 0.000000 1.622250 0.000000 
#    z 0.000000 0.000000 1.654460 
# 
# From -- ./inp_files/1326.got.cif
#   From: 2010.05.17/outbox.cif.g08.bks.cpg/sg154_1_cif.got.tgz:1326.got - 2010.05.20 10:41:43.
