data_PCOD9576192
_publ_section_title
;
Structure prediction by ZEFSAII (Michael W. Deem and Ramdas Pophale) SiO2 
 PCOD9576192
Probable space group: P 31 2 1
;
_chemical_formula_sum "Si O2"
_cell_formula_units_Z 30
_cell_length_a 7.653716
_cell_length_b 7.653716
_cell_length_c 23.157506
_cell_angle_alpha 90.000000
_cell_angle_beta 90.000000
_cell_angle_gamma 120.000000
_cell_volume 1174.808563
_symmetry_space_group_name_H-M "P 31 2 1"
_symmetry_group_IT_number 152
_symmetry_cell_setting 'hexagonal'
loop_
_space_group_symop_operation_xyz
x,y,z
-y,x-y,1/3+z
-x+y,-x,2/3+z
x-y,-y,2/3-z
-x,-x+y,1/3-z
y,x,-z
loop_
_atom_site_type_symbol
_atom_site_label
_atom_site_fract_x
_atom_site_fract_y
_atom_site_fract_z
Si Si1 0.050436 0.690722 0.732013
Si Si2 0.109866 0.898940 0.106638
Si Si3 0.544804 0.882107 0.579289
Si Si4 0.442791 0.818152 0.164244
Si Si5 0.968193 0.485800 0.293562
O O1 0.938690 0.509665 0.775657
O O2 0.290073 0.779951 0.734859
O O3 0.000000 0.625048 0.666667
O O4 0.946230 0.829361 0.745743
O O5 0.006649 0.702361 0.064119
O O6 0.000000 0.879315 0.166667
O O7 0.297162 0.875943 0.130122
O O8 0.715702 0.080631 0.546351
O O9 0.566721 0.704935 0.608303
O O10 0.477404 0.952677 0.637052
O O11 0.400999 0.759889 0.524748
#
# Coordination Sequence:
#
# PCOD9576192 Si02
#       5
#     6   6   6   6   6
#     4  12  26  48  73 108 153 201 258 318 388 473
#     4  12  27  48  73 115 154 195 266 316 387 473
#     4  12  26  49  77 111 152 201 257 323 392 475
#     4  12  24  46  72 108 145 196 254 316 382 462
#     4  12  27  50  79 110 158 210 253 329 402 464
#
# _framework density 25.536072999999998
#
# number of rings (size 3 to 8) (size 9 to 14) (size 15 to 20)
#    0.000    0.000    6.000    3.600    2.800    0.000 
#    0.000    1.000    0.000    0.000    0.000    0.000 
#    0.000    0.000    0.000    0.000    0.000    0.000 
#
# Total GULP energy -167315.189614 kJ/mol
# GULP energy per Si atom -5577.172987 kJ/mol
# Density = 2.547795 g / cm^3
# Si number density = 25.536073 Si / 1000 Ang^3
#
#
#
# Elastic Constant Matrix: (Units=GPa)
#
#
# Indices 1 2 3 4 5 6 
#
# 1 -111.8948 164.6704 6.8385 -15.6773 0.0142 0.0000
# 2 164.6704 -111.8948 6.8385 15.6773 -0.0142 0.0000
# 3 6.8385 6.8385 149.3157 0.0000 0.0000 0.0000
# 4 -15.6773 15.6773 0.0000 35.2262 0.0000 -0.0142
# 5 0.0142 -0.0142 0.0000 0.0000 35.2262 -15.6773
# 6 0.0000 0.0000 0.0000 -0.0142 -15.6773 -138.2826
#
#
#
# Elastic Compliance Matrix: (Units=1/GPa)
#
#
# Indices 1 2 3 4 5 6 
#
# 1 0.007867 0.011309 -0.000878 -0.001532 0.000001 0.000000
# 2 0.011309 0.007867 -0.000878 0.001532 -0.000001 0.000000
# 3 -0.000878 -0.000878 0.006778 0.000000 0.000000 0.000000
# 4 -0.001532 0.001532 0.000000 0.027024 0.000000 -0.000003
# 5 0.000001 -0.000001 0.000000 0.000000 0.027024 -0.003064
# 6 0.000000 0.000000 0.000000 -0.000003 -0.003064 -0.006884
#
#
# Mechanical properties :
#
#
# Convention : Reuss Voigt Hill
#
# Bulk Modulus (GPa) = 24.02909 31.35790 27.69350
# Shear Modulus (GPa) = 77.58784 -30.42079 23.58353
#
# Velocity S-wave (km/s) = 5.51811 -3.45525 3.04227
# Velocity P-wave (km/s) = 7.07317 1.90047 4.81757
#
# Compressibility (1/GPa) = 0.04161622
#
# Stress axis : x y z
#
# Youngs Moduli (GPa) = 127.11620 127.11620 147.54348
#
# Poissons Ratio (x) = -1.43755 0.12958
# Poissons Ratio (y) = -1.43755 0.12958
# Poissons Ratio (z) = 0.11164 0.11164
#
# Static dielectric constant tensor:
#      x y z
#    x 4.643920 0.000000 0.000000 
#    y 0.000000 4.643920 0.000000 
#    z 0.000000 0.000000 1.964310 
# 
# From -- ./inp_files/3002.got.cif
#   From: 2010.05.17/outbox.cif.g08.bks.cpg/sg152_2_cif.got.tgz:3002.got - 2010.05.20 10:36:06.
