data_PCOD9576986
_publ_section_title
;
Structure prediction by ZEFSAII (Michael W. Deem and Ramdas Pophale) SiO2 
 PCOD9576986
Probable space group: R 3 2
;
_chemical_formula_sum "Si O2"
_cell_formula_units_Z 81
_cell_length_a 23.663434
_cell_length_b 23.663434
_cell_length_c 8.140851
_cell_angle_alpha 90.000000
_cell_angle_beta 90.000000
_cell_angle_gamma 120.000000
_cell_volume 3947.807572
_symmetry_space_group_name_H-M "R 3 2"
_symmetry_group_IT_number 155
_symmetry_cell_setting 'hexagonal'
loop_
_space_group_symop_operation_xyz
x,y,z
-y,x-y,z
-x+y,-x,z
x-y,-y,-z
-x,-x+y,-z
y,x,-z
2/3+x,1/3+y,1/3+z
2/3-y,1/3+x-y,1/3+z
2/3-x+y,1/3-x,1/3+z
2/3+x-y,1/3-y,1/3-z
2/3-x,1/3-x+y,1/3-z
2/3+y,1/3+x,1/3-z
1/3+x,2/3+y,2/3+z
1/3-y,2/3+x-y,2/3+z
1/3-x+y,2/3-x,2/3+z
1/3+x-y,2/3-y,2/3-z
1/3-x,2/3-x+y,2/3-z
1/3+y,2/3+x,2/3-z
loop_
_atom_site_type_symbol
_atom_site_label
_atom_site_fract_x
_atom_site_fract_y
_atom_site_fract_z
Si Si1 0.634141 0.496883 0.503768
Si Si2 0.786250 0.047152 0.746013
Si Si3 0.598723 0.841364 0.770199
Si Si4 0.666667 0.703017 0.833334
Si Si5 0.527057 0.333334 0.833334
Si Si6 0.000000 0.126421 0.500000
O O1 0.666667 0.494313 0.333334
O O2 0.560547 0.435881 0.502582
O O3 0.627265 0.561093 0.498027
O O4 0.672970 0.499175 0.666438
O O5 0.745992 0.079325 0.666667
O O6 0.740956 0.974834 0.819898
O O7 0.832602 0.034756 0.624391
O O8 0.823820 0.088389 0.906802
O O9 0.666667 0.851999 0.833334
O O10 0.666515 0.666667 0.666667
O O11 0.600559 0.392029 0.800554
#
# Coordination Sequence:
#
# PCOD9576986 Si02
#       6
#    18  18  18   9   9   9
#     4  11  23  44  69  99 136 189 241 305 366 434
#     4  11  25  41  71 104 144 193 242 311 392 467
#     4  11  23  42  65 101 150 186 240 312 388 467
#     4  10  21  38  63  95 132 173 226 284 358 430
#     4  12  25  48  69 107 144 203 264 308 382 452
#     4  12  26  46  72  98 146 196 254 310 360 452
#
# _framework density 20.517717000000001
#
# number of rings (size 3 to 8) (size 9 to 14) (size 15 to 20)
#    0.000    0.889    3.333    3.556    4.667    0.000 
#    0.000    2.222    0.000    0.000    0.000    0.000 
#    0.000    0.000    0.000    0.000    0.000    0.000 
#
# Total GULP energy -150546.193059 kJ/mol
# GULP energy per Si atom -5575.784928 kJ/mol
# Density = 2.047102 g / cm^3
# Si number density = 20.517717 Si / 1000 Ang^3
#
#
#
# Elastic Constant Matrix: (Units=GPa)
#
#
# Indices 1 2 3 4 5 6 
#
# 1 90.8187 49.0732 50.8338 9.4003 -0.0103 -0.0023
# 2 49.0732 90.8273 50.8677 -9.3981 0.0062 -0.0008
# 3 50.8338 50.8677 149.5494 0.0100 -0.0033 -0.0017
# 4 9.4003 -9.3981 0.0100 17.2061 0.0082 -0.0007
# 5 -0.0103 0.0062 -0.0033 0.0082 17.2069 9.3989
# 6 -0.0023 -0.0008 -0.0017 -0.0007 9.3989 20.8742
#
#
#
# Elastic Compliance Matrix: (Units=1/GPa)
#
#
# Indices 1 2 3 4 5 6 
#
# 1 0.020627 -0.011135 -0.003223 -0.017350 0.000031 -0.000013
# 2 -0.011135 0.020633 -0.003234 0.017355 -0.000030 0.000014
# 3 -0.003223 -0.003234 0.008882 -0.000011 0.000001 0.000000
# 4 -0.017350 0.017355 -0.000011 0.077077 -0.000072 0.000034
# 5 0.000031 -0.000030 0.000001 -0.000072 0.077072 -0.034703
# 6 -0.000013 0.000014 0.000000 0.000034 -0.034703 0.063532
#
#
# Mechanical properties :
#
#
# Convention : Reuss Voigt Hill
#
# Bulk Modulus (GPa) = 66.85200 70.30499 68.57849
# Shear Modulus (GPa) = 16.23400 23.08547 19.65973
#
# Velocity S-wave (km/s) = 2.81591 3.35796 3.09881
# Velocity P-wave (km/s) = 6.57463 7.02669 6.80442
#
# Compressibility (1/GPa) = 0.01495842
#
# Stress axis : x y z
#
# Youngs Moduli (GPa) = 48.47910 48.46522 112.58198
#
# Poissons Ratio (x) = 0.53966 0.36284
# Poissons Ratio (y) = 0.53982 0.36414
# Poissons Ratio (z) = 0.15624 0.15676
#
# Static dielectric constant tensor:
#      x y z
#    x 1.740670 0.000000 -0.000010 
#    y 0.000000 1.740670 0.000000 
#    z -0.000010 0.000000 1.766400 
# 
# From -- ./inp_files/2617.got.cif
#   From: 2010.05.17/outbox.cif.g08.bks.cpg/sg155_2_cif.got.tgz:2617.got - 2010.05.20 10:44:35.
