data_PCOD9576795
_publ_section_title
;
Structure prediction by ZEFSAII (Michael W. Deem and Ramdas Pophale) SiO2 
 PCOD9576795
Probable space group: R 3 2
;
_chemical_formula_sum "Si O2"
_cell_formula_units_Z 75
_cell_length_a 12.074511
_cell_length_b 12.074511
_cell_length_c 29.180619
_cell_angle_alpha 90.000000
_cell_angle_beta 90.000000
_cell_angle_gamma 120.000000
_cell_volume 3684.378462
_symmetry_space_group_name_H-M "R 3 2"
_symmetry_group_IT_number 155
_symmetry_cell_setting 'hexagonal'
loop_
_space_group_symop_operation_xyz
x,y,z
-y,x-y,z
-x+y,-x,z
x-y,-y,-z
-x,-x+y,-z
y,x,-z
2/3+x,1/3+y,1/3+z
2/3-y,1/3+x-y,1/3+z
2/3-x+y,1/3-x,1/3+z
2/3+x-y,1/3-y,1/3-z
2/3-x,1/3-x+y,1/3-z
2/3+y,1/3+x,1/3-z
1/3+x,2/3+y,2/3+z
1/3-y,2/3+x-y,2/3+z
1/3-x+y,2/3-x,2/3+z
1/3+x-y,2/3-y,2/3-z
1/3-x,2/3-x+y,2/3-z
1/3+y,2/3+x,2/3-z
loop_
_atom_site_type_symbol
_atom_site_label
_atom_site_fract_x
_atom_site_fract_y
_atom_site_fract_z
Si Si1 0.343755 0.000000 0.000000
Si Si2 0.239288 0.400789 0.403700
Si Si3 0.666667 0.333334 0.731175
Si Si4 0.000000 0.000000 0.288887
Si Si5 0.848711 0.151236 0.496847
Si Si6 0.173649 0.293886 0.601470
O O1 0.216128 0.886691 0.023569
O O2 0.450200 0.042617 0.040139
O O3 0.343463 0.546215 0.394205
O O4 0.208499 0.385237 0.457516
O O5 0.280778 0.297858 0.389037
O O6 0.666668 0.333334 0.676498
O O7 0.582440 0.185897 0.744270
O O8 0.805790 0.172818 0.446732
O O9 0.000000 0.235845 0.500000
O O10 0.799820 0.000000 0.500000
#
# Coordination Sequence:
#
# PCOD9576795 Si02
#       6
#     9  18   6   6  18  18
#     4  12  20  34  58  96 136 166 208 282 334 392
#     4  11  23  37  60  91 135 171 213 274 333 388
#     4  12  18  33  61  94 132 162 211 280 330 379
#     4  12  24  42  60  91 139 175 223 279 327 391
#     4  10  18  33  55  87 126 169 217 263 326 389
#     4  11  20  35  61  93 134 171 216 269 337 391
#
# _framework density 20.356213
#
# number of rings (size 3 to 8) (size 9 to 14) (size 15 to 20)
#    0.000    0.960    7.200    1.680    0.000    0.000 
#    0.000    3.600    0.000    0.000    0.000    0.000 
#   24.000    0.000    0.000    0.000    0.000    0.000 
#
# Total GULP energy -139591.525571 kJ/mol
# GULP energy per Si atom -5583.661023 kJ/mol
# Density = 2.030988 g / cm^3
# Si number density = 20.356213 Si / 1000 Ang^3
#
#
#
# Elastic Constant Matrix: (Units=GPa)
#
#
# Indices 1 2 3 4 5 6 
#
# 1 66.9632 36.5736 47.6818 7.2540 0.0000 0.0000
# 2 36.5736 66.9616 47.6824 -7.2539 0.0000 0.0000
# 3 47.6818 47.6824 178.2221 -0.0001 0.0000 0.0000
# 4 7.2540 -7.2539 -0.0001 25.4929 0.0000 0.0000
# 5 0.0000 0.0000 0.0000 0.0000 25.4931 7.2536
# 6 0.0000 0.0000 0.0000 0.0000 7.2536 15.1946
#
#
#
# Elastic Compliance Matrix: (Units=1/GPa)
#
#
# Indices 1 2 3 4 5 6 
#
# 1 0.025448 -0.012631 -0.003429 -0.010835 0.000000 0.000000
# 2 -0.012631 0.025449 -0.003429 0.010836 0.000000 0.000000
# 3 -0.003429 -0.003429 0.007446 0.000000 0.000000 0.000000
# 4 -0.010835 0.010836 0.000000 0.045393 0.000000 0.000000
# 5 0.000000 0.000000 0.000000 0.000000 0.045392 -0.021669
# 6 0.000000 0.000000 0.000000 0.000000 -0.021669 0.076157
#
#
# Mechanical properties :
#
#
# Convention : Reuss Voigt Hill
#
# Bulk Modulus (GPa) = 51.64399 64.00250 57.82324
# Shear Modulus (GPa) = 18.46936 25.25006 21.85971
#
# Velocity S-wave (km/s) = 3.01542 3.52577 3.28053
# Velocity P-wave (km/s) = 6.12772 6.93428 6.54344
#
# Compressibility (1/GPa) = 0.01936334
#
# Stress axis : x y z
#
# Youngs Moduli (GPa) = 39.29590 39.29458 134.30344
#
# Poissons Ratio (x) = 0.49635 0.46051
# Poissons Ratio (y) = 0.49637 0.46056
# Poissons Ratio (z) = 0.13474 0.13475
#
# Static dielectric constant tensor:
#      x y z
#    x 1.747330 0.000000 0.000000 
#    y 0.000000 1.747340 0.000000 
#    z 0.000000 0.000000 1.802780 
# 
# From -- ./inp_files/8303.got.cif
#   From: 2010.05.17/outbox.cif.g08.bks.cpg/sg155_5_cif.got.tgz:8303.got - 2010.05.20 10:44:35.
