data_PCOD9576243
_publ_section_title
;
Structure prediction by ZEFSAII (Michael W. Deem and Ramdas Pophale) SiO2 
 PCOD9576243
Probable space group: P 32 1 2
;
_chemical_formula_sum "Si O2"
_cell_formula_units_Z 36
_cell_length_a 8.115225
_cell_length_b 8.115225
_cell_length_c 28.763966
_cell_angle_alpha 90.000000
_cell_angle_beta 90.000000
_cell_angle_gamma 120.000000
_cell_volume 1640.516222
_symmetry_space_group_name_H-M "P 32 1 2"
_symmetry_group_IT_number 153
_symmetry_cell_setting 'hexagonal'
loop_
_space_group_symop_operation_xyz
x,y,z
-y,x-y,2/3+z
-x+y,-x,1/3+z
-y,-x,1/3-z
-x+y,y,2/3-z
x,x-y,-z
loop_
_atom_site_type_symbol
_atom_site_label
_atom_site_fract_x
_atom_site_fract_y
_atom_site_fract_z
Si Si1 0.581658 0.290829 0.000000
Si Si2 0.547177 0.452823 0.166667
Si Si3 0.475172 0.427457 0.806336
Si Si4 0.312629 0.265942 0.082641
Si Si5 0.633630 0.670283 0.963204
Si Si6 0.916238 0.778647 0.885645
Si Si7 0.572536 0.699057 0.432365
O O1 0.447923 0.311811 0.038583
O O2 0.685317 0.179140 0.021023
O O3 0.417114 0.424470 0.122611
O O4 0.761061 0.532065 0.147797
O O5 0.687660 0.568936 0.790383
O O6 0.314593 0.414779 0.772115
O O7 0.429339 0.502516 0.854175
O O8 0.102253 0.229301 0.081928
O O9 0.276676 0.057493 0.096208
O O10 0.417097 0.547810 0.945157
O O11 0.754013 0.773668 0.917314
O O12 0.657588 0.828794 0.000000
O O13 0.931891 0.863782 0.833334
#
# Coordination Sequence:
#
# PCOD9576243 Si02
#       7
#     3   3   6   6   6   6   6
#     4  10  24  50  66  92 140 184 224 286 352 422
#     4  10  20  40  64  96 128 176 222 278 336 400
#     4  10  18  37  66  90 128 169 214 270 337 388
#     4  10  24  40  66  97 135 171 227 283 339 411
#     4  11  25  47  69  95 135 180 226 283 347 419
#     4  12  24  41  64 100 139 173 225 287 336 404
#     4   9  20  40  64  95 127 168 218 274 335 408
#
# _framework density 21.944312
#
# number of rings (size 3 to 8) (size 9 to 14) (size 15 to 20)
#    0.000    1.667    2.500    2.000    8.167    2.667 
#    3.000    0.000    1.833    0.000    0.000    0.000 
#    0.000    0.000    0.000    0.000    0.000    0.000 
#
# Total GULP energy -200783.729060 kJ/mol
# GULP energy per Si atom -5577.325807 kJ/mol
# Density = 2.189437 g / cm^3
# Si number density = 21.944312 Si / 1000 Ang^3
#
#
#
# Elastic Constant Matrix: (Units=GPa)
#
#
# Indices 1 2 3 4 5 6 
#
# 1 42.2276 12.7721 19.1268 0.0001 1.9383 0.0000
# 2 12.7721 42.2276 19.1268 -0.0001 -1.9383 0.0000
# 3 19.1268 19.1268 63.6718 0.0000 0.0000 0.0000
# 4 0.0001 -0.0001 0.0000 20.2411 0.0000 -1.9383
# 5 1.9383 -1.9383 0.0000 0.0000 20.2411 0.0001
# 6 0.0000 0.0000 0.0000 -1.9383 0.0001 14.7278
#
#
#
# Elastic Compliance Matrix: (Units=1/GPa)
#
#
# Indices 1 2 3 4 5 6 
#
# 1 0.028683 -0.005699 -0.006904 0.000000 -0.003293 0.000000
# 2 -0.005699 0.028683 -0.006904 0.000000 0.003293 0.000000
# 3 -0.006904 -0.006904 0.019854 0.000000 0.000000 0.000000
# 4 0.000000 0.000000 0.000000 0.050035 0.000000 0.006585
# 5 -0.003293 0.003293 0.000000 0.000000 0.050035 0.000000
# 6 0.000000 0.000000 0.000000 0.006585 0.000000 0.068766
#
#
# Mechanical properties :
#
#
# Convention : Reuss Voigt Hill
#
# Bulk Modulus (GPa) = 26.17501 27.79760 26.98630
# Shear Modulus (GPa) = 16.78940 17.51542 17.15241
#
# Velocity S-wave (km/s) = 2.76903 2.82827 2.79880
# Velocity P-wave (km/s) = 4.70927 4.83325 4.77166
#
# Compressibility (1/GPa) = 0.03820438
#
# Stress axis : x y z
#
# Youngs Moduli (GPa) = 34.86335 34.86335 50.36863
#
# Poissons Ratio (x) = 0.19870 0.34776
# Poissons Ratio (y) = 0.19870 0.34776
# Poissons Ratio (z) = 0.24071 0.24071
#
# Static dielectric constant tensor:
#      x y z
#    x 1.814320 0.000000 0.000000 
#    y 0.000000 1.814320 0.000000 
#    z 0.000000 0.000000 1.887840 
# 
# From -- ./inp_files/5023.got.cif
#   From: 2010.05.17/outbox.cif.g08.bks.cpg/sg153_3_cif.got.tgz:5023.got - 2010.05.20 10:38:56.
