data_PCOD9576757
_publ_section_title
;
Structure prediction by ZEFSAII (Michael W. Deem and Ramdas Pophale) SiO2 
 PCOD9576757
Probable space group: R 3 2
;
_chemical_formula_sum "Si O2"
_cell_formula_units_Z 108
_cell_length_a 17.906343
_cell_length_b 17.906343
_cell_length_c 20.202684
_cell_angle_alpha 90.000000
_cell_angle_beta 90.000000
_cell_angle_gamma 120.000000
_cell_volume 5609.879091
_symmetry_space_group_name_H-M "R 3 2"
_symmetry_group_IT_number 155
_symmetry_cell_setting 'hexagonal'
loop_
_space_group_symop_operation_xyz
x,y,z
-y,x-y,z
-x+y,-x,z
x-y,-y,-z
-x,-x+y,-z
y,x,-z
2/3+x,1/3+y,1/3+z
2/3-y,1/3+x-y,1/3+z
2/3-x+y,1/3-x,1/3+z
2/3+x-y,1/3-y,1/3-z
2/3-x,1/3-x+y,1/3-z
2/3+y,1/3+x,1/3-z
1/3+x,2/3+y,2/3+z
1/3-y,2/3+x-y,2/3+z
1/3-x+y,2/3-x,2/3+z
1/3+x-y,2/3-y,2/3-z
1/3-x,2/3-x+y,2/3-z
1/3+y,2/3+x,2/3-z
loop_
_atom_site_type_symbol
_atom_site_label
_atom_site_fract_x
_atom_site_fract_y
_atom_site_fract_z
Si Si1 0.912875 0.143365 0.684351
Si Si2 0.268366 0.007755 0.106155
Si Si3 0.729565 0.068376 0.393688
Si Si4 0.212466 0.404968 0.493549
Si Si5 0.906463 0.204208 0.333632
Si Si6 0.506719 0.399831 0.886769
O O1 0.863665 0.196999 0.666667
O O2 0.873173 0.095236 0.753662
O O3 0.896775 0.086522 0.618848
O O4 0.013932 0.210258 0.693434
O O5 0.173411 0.950822 0.136211
O O6 0.333334 0.039796 0.166667
O O7 0.295742 0.087548 0.056681
O O8 0.278867 0.940509 0.059506
O O9 0.666667 0.050789 0.333334
O O10 0.722204 0.123980 0.453594
O O11 0.826126 0.121330 0.364067
O O12 0.721261 0.981011 0.422090
O O13 0.147486 0.301362 0.480248
O O14 0.506840 0.333334 0.833334
#
# Coordination Sequence:
#
# PCOD9576757 Si02
#       6
#    18  18  18  18  18  18
#     4  10  15  29  51  77 102 135 186 230 287 322
#     4  10  15  28  45  77 110 124 170 231 286 324
#     4  10  20  34  47  74 119 150 189 221 284 347
#     4   9  17  27  52  70 102 149 177 234 276 329
#     4  10  19  28  49  77 109 145 173 236 287 323
#     4   9  18  32  50  76 106 146 184 227 278 340
#
# _framework density 19.251752
#
# number of rings (size 3 to 8) (size 9 to 14) (size 15 to 20)
#    0.000    2.333    3.333    2.500    0.000    0.000 
#    0.000    4.167    0.000    0.667    0.000    3.500 
#   53.333    0.000    0.000    0.000    0.000    0.000 
#
# Total GULP energy -200447.385723 kJ/mol
# GULP energy per Si atom -5567.982937 kJ/mol
# Density = 1.920793 g / cm^3
# Si number density = 19.251752 Si / 1000 Ang^3
#
#
#
# Elastic Constant Matrix: (Units=GPa)
#
#
# Indices 1 2 3 4 5 6 
#
# 1 28.1022 4.7639 26.4027 1.5192 -0.0002 0.0000
# 2 4.7639 28.1022 26.4027 -1.5192 0.0002 0.0000
# 3 26.4027 26.4027 142.6666 0.0000 0.0000 0.0000
# 4 1.5192 -1.5192 0.0000 28.8595 0.0000 0.0002
# 5 -0.0002 0.0002 0.0000 0.0000 28.8595 1.5192
# 6 0.0000 0.0000 0.0000 0.0002 1.5192 11.6692
#
#
#
# Elastic Compliance Matrix: (Units=1/GPa)
#
#
# Indices 1 2 3 4 5 6 
#
# 1 0.043223 0.000079 -0.008014 -0.002271 0.000000 0.000000
# 2 0.000079 0.043223 -0.008014 0.002271 0.000000 0.000000
# 3 -0.008014 -0.008014 0.009975 0.000000 0.000000 0.000000
# 4 -0.002271 0.002271 0.000000 0.034890 0.000000 0.000000
# 5 0.000000 0.000000 0.000000 0.000000 0.034890 -0.004542
# 6 0.000000 0.000000 0.000000 0.000000 -0.004542 0.086287
#
#
# Mechanical properties :
#
#
# Convention : Reuss Voigt Hill
#
# Bulk Modulus (GPa) = 15.49798 34.88996 25.19397
# Shear Modulus (GPa) = 16.34559 23.29774 19.82167
#
# Velocity S-wave (km/s) = 2.91700 3.48251 3.21222
# Velocity P-wave (km/s) = 4.40600 5.85943 5.18390
#
# Compressibility (1/GPa) = 0.06452453
#
# Stress axis : x y z
#
# Youngs Moduli (GPa) = 23.13593 23.13593 100.24593
#
# Poissons Ratio (x) = -0.00183 0.80334
# Poissons Ratio (y) = -0.00183 0.80334
# Poissons Ratio (z) = 0.18540 0.18540
#
# Static dielectric constant tensor:
#      x y z
#    x 1.669440 0.000000 0.000000 
#    y 0.000000 1.669440 0.000000 
#    z 0.000000 0.000000 1.738010 
# 
# From -- ./inp_files/6976.got.cif
#   From: 2010.05.17/outbox.cif.g08.bks.cpg/sg155_4_cif.got.tgz:6976.got - 2010.05.20 10:44:35.
