data_PCOD9576796
_publ_section_title
;
Structure prediction by ZEFSAII (Michael W. Deem and Ramdas Pophale) SiO2 
 PCOD9576796
Probable space group: R 3 2
;
_chemical_formula_sum "Si O2"
_cell_formula_units_Z 126
_cell_length_a 20.685280
_cell_length_b 20.685280
_cell_length_c 17.673070
_cell_angle_alpha 90.000000
_cell_angle_beta 90.000000
_cell_angle_gamma 120.000000
_cell_volume 6548.855943
_symmetry_space_group_name_H-M "R 3 2"
_symmetry_group_IT_number 155
_symmetry_cell_setting 'hexagonal'
loop_
_space_group_symop_operation_xyz
x,y,z
-y,x-y,z
-x+y,-x,z
x-y,-y,-z
-x,-x+y,-z
y,x,-z
2/3+x,1/3+y,1/3+z
2/3-y,1/3+x-y,1/3+z
2/3-x+y,1/3-x,1/3+z
2/3+x-y,1/3-y,1/3-z
2/3-x,1/3-x+y,1/3-z
2/3+y,1/3+x,1/3-z
1/3+x,2/3+y,2/3+z
1/3-y,2/3+x-y,2/3+z
1/3-x+y,2/3-x,2/3+z
1/3+x-y,2/3-y,2/3-z
1/3-x,2/3-x+y,2/3-z
1/3+y,2/3+x,2/3-z
loop_
_atom_site_type_symbol
_atom_site_label
_atom_site_fract_x
_atom_site_fract_y
_atom_site_fract_z
Si Si1 0.814500 0.030726 0.860374
Si Si2 0.412660 0.189431 0.209618
Si Si3 0.746194 0.002624 0.298231
Si Si4 0.751289 0.631192 0.839023
Si Si5 0.578649 0.782788 0.308681
Si Si6 0.862245 0.377239 0.126711
Si Si7 0.487586 0.497685 0.687467
O O1 0.764997 0.026859 0.787528
O O2 0.899676 0.070509 0.829184
O O3 0.813353 0.082973 0.926687
O O4 0.780734 0.945173 0.882640
O O5 0.333334 0.148000 0.166667
O O6 0.471569 0.174832 0.164748
O O7 0.392437 0.161256 0.296243
O O8 0.666667 0.980228 0.333334
O O9 0.775863 0.955948 0.345170
O O10 0.799191 0.090434 0.305851
O O11 0.666667 0.610453 0.833334
O O12 0.761248 0.579428 0.777664
O O13 0.802069 0.717190 0.816011
O O14 0.778456 0.627608 0.922626
O O15 0.666667 0.822894 0.333334
O O16 0.531008 0.717396 0.368901
#
# Coordination Sequence:
#
# PCOD9576796 Si02
#       7
#    18  18  18  18  18  18  18
#     4  10  22  39  54  85 120 153 199 245 304 375
#     4  12  23  37  60  91 118 155 204 265 309 352
#     4  10  18  33  56  82 116 155 186 238 306 365
#     4  10  21  36  53  83 115 153 191 240 292 364
#     4   8  17  34  56  78 113 155 194 230 291 370
#     4   9  21  40  58  79 117 160 197 240 299 369
#     4  11  23  35  57  87 120 150 194 252 308 362
#
# _framework density 19.240003000000002
#
# number of rings (size 3 to 8) (size 9 to 14) (size 15 to 20)
#    0.000    2.000    1.429    4.286    2.000    4.000 
#    3.429    0.000    0.000    0.000    0.000    0.000 
#    5.714    0.000    0.000    0.000    0.000    0.000 
#
# Total GULP energy -234212.862507 kJ/mol
# GULP energy per Si atom -5576.496726 kJ/mol
# Density = 1.919621 g / cm^3
# Si number density = 19.240003 Si / 1000 Ang^3
#
#
#
# Elastic Constant Matrix: (Units=GPa)
#
#
# Indices 1 2 3 4 5 6 
#
# 1 53.2514 7.9011 27.9913 10.3697 -0.0004 0.0000
# 2 7.9011 53.2514 27.9913 -10.3697 0.0004 0.0000
# 3 27.9913 27.9913 101.9581 0.0000 0.0000 0.0000
# 4 10.3697 -10.3697 0.0000 23.1552 0.0000 0.0004
# 5 -0.0004 0.0004 0.0000 0.0000 23.1552 10.3697
# 6 0.0000 0.0000 0.0000 0.0004 10.3697 22.6751
#
#
#
# Elastic Compliance Matrix: (Units=1/GPa)
#
#
# Indices 1 2 3 4 5 6 
#
# 1 0.024786 -0.002944 -0.005996 -0.012418 0.000001 0.000000
# 2 -0.002944 0.024786 -0.005996 0.012418 -0.000001 0.000000
# 3 -0.005996 -0.005996 0.013100 0.000000 0.000000 0.000000
# 4 -0.012418 0.012418 0.000000 0.054310 0.000000 -0.000001
# 5 0.000001 -0.000001 0.000000 0.000000 0.054310 -0.024837
# 6 0.000000 0.000000 0.000000 -0.000001 -0.024837 0.055459
#
#
# Mechanical properties :
#
#
# Convention : Reuss Voigt Hill
#
# Bulk Modulus (GPa) = 30.48897 37.35871 33.92384
# Shear Modulus (GPa) = 18.68759 23.43559 21.06159
#
# Velocity S-wave (km/s) = 3.11993 3.49387 3.31218
# Velocity P-wave (km/s) = 5.37212 5.97792 5.68310
#
# Compressibility (1/GPa) = 0.03279874
#
# Stress axis : x y z
#
# Youngs Moduli (GPa) = 40.34551 40.34551 76.33321
#
# Poissons Ratio (x) = 0.11877 0.45773
# Poissons Ratio (y) = 0.11877 0.45773
# Poissons Ratio (z) = 0.24193 0.24193
#
# Static dielectric constant tensor:
#      x y z
#    x 1.685480 0.000000 0.000000 
#    y 0.000000 1.685480 0.000000 
#    z 0.000000 0.000000 1.741580 
# 
# From -- ./inp_files/6286.got.cif
#   From: 2010.05.17/outbox.cif.g08.bks.cpg/sg155_4_cif.got.tgz:6286.got - 2010.05.20 10:44:35.
