data_PCOD9576963
_publ_section_title
;
Structure prediction by ZEFSAII (Michael W. Deem and Ramdas Pophale) SiO2 
 PCOD9576963
Probable space group: R 3 2
;
_chemical_formula_sum "Si O2"
_cell_formula_units_Z 114
_cell_length_a 20.304713
_cell_length_b 20.304713
_cell_length_c 14.016760
_cell_angle_alpha 90.000000
_cell_angle_beta 90.000000
_cell_angle_gamma 120.000000
_cell_volume 5004.630052
_symmetry_space_group_name_H-M "R 3 2"
_symmetry_group_IT_number 155
_symmetry_cell_setting 'hexagonal'
loop_
_space_group_symop_operation_xyz
x,y,z
-y,x-y,z
-x+y,-x,z
x-y,-y,-z
-x,-x+y,-z
y,x,-z
2/3+x,1/3+y,1/3+z
2/3-y,1/3+x-y,1/3+z
2/3-x+y,1/3-x,1/3+z
2/3+x-y,1/3-y,1/3-z
2/3-x,1/3-x+y,1/3-z
2/3+y,1/3+x,1/3-z
1/3+x,2/3+y,2/3+z
1/3-y,2/3+x-y,2/3+z
1/3-x+y,2/3-x,2/3+z
1/3+x-y,2/3-y,2/3-z
1/3-x,2/3-x+y,2/3-z
1/3+y,2/3+x,2/3-z
loop_
_atom_site_type_symbol
_atom_site_label
_atom_site_fract_x
_atom_site_fract_y
_atom_site_fract_z
Si Si1 0.000000 0.000000 0.117323
Si Si2 0.934339 0.257944 0.397842
Si Si3 0.476270 0.539714 0.582485
Si Si4 0.484335 0.822489 0.839567
Si Si5 0.181420 0.671365 0.270216
Si Si6 0.994827 0.147731 0.372232
Si Si7 0.299878 0.839691 0.504530
O O1 0.989752 0.920442 0.157335
O O2 0.000000 0.000000 0.000000
O O3 0.982139 0.333334 0.333334
O O4 0.854268 0.204627 0.342122
O O5 0.972504 0.207674 0.409516
O O6 0.907091 0.280147 0.494042
O O7 0.514987 0.514987 0.500000
O O8 0.386678 0.498755 0.559424
O O9 0.500345 0.628578 0.574669
O O10 0.441506 0.867784 0.809076
O O11 0.511783 0.843303 0.950948
O O12 0.141438 0.666667 0.166667
O O13 0.200793 0.603542 0.269089
O O14 0.256487 0.752951 0.266809
O O15 0.999827 0.162954 0.259702
#
# Coordination Sequence:
#
# PCOD9576963 Si02
#       7
#     6  18  18  18  18  18  18
#     4  12  24  30  52  92 142 177 219 273 358 419
#     4  10  23  38  64  97 146 187 229 280 360 454
#     4  11  19  36  61  91 136 188 231 279 356 442
#     4  11  21  37  60  91 141 177 232 296 350 434
#     4  11  22  39  65  92 125 174 231 301 360 407
#     4  11  21  43  64  99 137 171 239 301 360 428
#     4  10  21  36  60  95 132 178 229 284 357 420
#
# _framework density 22.778907
#
# number of rings (size 3 to 8) (size 9 to 14) (size 15 to 20)
#    0.000    1.263    4.737    1.737    2.211    0.000 
#    5.684    0.000    0.000    0.947    4.105    0.000 
#    0.000    0.000    0.000    0.000    0.000    0.000 
#
# Total GULP energy -211874.109075 kJ/mol
# GULP energy per Si atom -5575.634449 kJ/mol
# Density = 2.272706 g / cm^3
# Si number density = 22.778907 Si / 1000 Ang^3
#
#
#
# Elastic Constant Matrix: (Units=GPa)
#
#
# Indices 1 2 3 4 5 6 
#
# 1 88.3337 45.2611 34.8838 10.0637 -0.0002 0.0000
# 2 45.2611 88.3337 34.8838 -10.0637 0.0002 0.0000
# 3 34.8838 34.8838 113.1958 0.0000 0.0000 0.0000
# 4 10.0637 -10.0637 0.0000 16.5835 0.0000 0.0002
# 5 -0.0002 0.0002 0.0000 0.0000 16.5835 10.0637
# 6 0.0000 0.0000 0.0000 0.0002 10.0637 21.5363
#
#
#
# Elastic Compliance Matrix: (Units=1/GPa)
#
#
# Indices 1 2 3 4 5 6 
#
# 1 0.020664 -0.011743 -0.002749 -0.019666 0.000000 0.000000
# 2 -0.011743 0.020664 -0.002749 0.019666 0.000000 0.000000
# 3 -0.002749 -0.002749 0.010529 0.000000 0.000000 0.000000
# 4 -0.019666 0.019666 0.000000 0.084169 0.000000 -0.000001
# 5 0.000000 0.000000 0.000000 0.000000 0.084169 -0.039331
# 6 0.000000 0.000000 0.000000 -0.000001 -0.039331 0.064812
#
#
# Mechanical properties :
#
#
# Convention : Reuss Voigt Hill
#
# Bulk Modulus (GPa) = 57.55747 57.76897 57.66322
# Shear Modulus (GPa) = 15.37141 22.59629 18.98385
#
# Velocity S-wave (km/s) = 2.60053 3.15299 2.88999
# Velocity P-wave (km/s) = 5.86001 6.21860 6.04196
#
# Compressibility (1/GPa) = 0.01737394
#
# Stress axis : x y z
#
# Youngs Moduli (GPa) = 48.39437 48.39437 94.97829
#
# Poissons Ratio (x) = 0.56827 0.26112
# Poissons Ratio (y) = 0.56827 0.26112
# Poissons Ratio (z) = 0.13305 0.13305
#
# Static dielectric constant tensor:
#      x y z
#    x 1.890500 0.000000 0.000000 
#    y 0.000000 1.890500 0.000000 
#    z 0.000000 0.000000 2.007690 
# 
# From -- ./inp_files/5204.got.cif
#   From: 2010.05.17/outbox.cif.g08.bks.cpg/sg155_3_cif.got.tgz:5204.got - 2010.05.20 10:44:35.
