data_PCOD9576339
_publ_section_title
;
Structure prediction by ZEFSAII (Michael W. Deem and Ramdas Pophale) SiO2 
 PCOD9576339
Probable space group: P 32 1 2
;
_chemical_formula_sum "Si O2"
_cell_formula_units_Z 42
_cell_length_a 8.549118
_cell_length_b 8.549118
_cell_length_c 30.894748
_cell_angle_alpha 90.000000
_cell_angle_beta 90.000000
_cell_angle_gamma 120.000000
_cell_volume 1955.500412
_symmetry_space_group_name_H-M "P 32 1 2"
_symmetry_group_IT_number 153
_symmetry_cell_setting 'hexagonal'
loop_
_space_group_symop_operation_xyz
x,y,z
-y,x-y,2/3+z
-x+y,-x,1/3+z
-y,-x,1/3-z
-x+y,y,2/3-z
x,x-y,-z
loop_
_atom_site_type_symbol
_atom_site_label
_atom_site_fract_x
_atom_site_fract_y
_atom_site_fract_z
Si Si1 0.172789 0.247395 0.731910
Si Si2 0.102901 0.470391 0.860802
Si Si3 0.007047 0.374127 0.663167
Si Si4 0.924258 0.227040 0.334619
Si Si5 0.790235 0.820030 0.246777
Si Si6 0.394567 0.292317 0.578663
Si Si7 0.766563 0.296016 0.798496
O O1 0.203069 0.301284 0.782073
O O2 0.308972 0.197042 0.708716
O O3 0.132013 0.379697 0.702852
O O4 0.982443 0.064266 0.730114
O O5 0.287323 0.574645 0.833334
O O6 0.041800 0.539937 0.902535
O O7 0.947076 0.413331 0.825979
O O8 0.809016 0.190985 0.666667
O O9 0.976538 0.542408 0.662702
O O10 0.093913 0.356437 0.618585
O O11 0.798216 0.141369 0.292375
O O12 0.110130 0.220260 0.333334
O O13 0.774410 0.642514 0.224263
O O14 0.783563 0.981832 0.221568
O O15 0.555461 0.258092 0.562273
O O16 0.606467 0.212934 0.833334
#
# Coordination Sequence:
#
# PCOD9576339 Si02
#       7
#     6   6   6   6   6   6   6
#     4  11  22  44  70  97 141 178 232 293 365 439
#     4  11  25  45  68  99 137 188 242 297 358 436
#     4  10  23  40  67 100 141 181 226 296 370 448
#     4  12  24  42  66 107 140 177 235 302 374 445
#     4  11  21  46  70 101 141 191 234 297 377 442
#     4  11  24  45  71 100 144 188 237 306 371 445
#     4  10  24  46  69 100 145 192 243 296 367 443
#
# _framework density 21.477879999999999
#
# number of rings (size 3 to 8) (size 9 to 14) (size 15 to 20)
#    0.000    1.143    4.286    2.143    6.000    1.714 
#    7.714    0.000    0.000    0.000    0.000    0.000 
#    0.000    0.000    0.000    0.000    0.000    0.000 
#
# Total GULP energy -233825.936085 kJ/mol
# GULP energy per Si atom -5567.284192 kJ/mol
# Density = 2.142900 g / cm^3
# Si number density = 21.477880 Si / 1000 Ang^3
#
#
#
# Elastic Constant Matrix: (Units=GPa)
#
#
# Indices 1 2 3 4 5 6 
#
# 1 74.5467 13.2562 10.9868 -0.0005 18.2315 0.0000
# 2 13.2562 74.5467 10.9868 0.0005 -18.2315 0.0000
# 3 10.9868 10.9868 49.8348 0.0000 0.0000 0.0000
# 4 -0.0005 0.0005 0.0000 4.0752 0.0000 -18.2315
# 5 18.2315 -18.2315 0.0000 0.0000 4.0752 -0.0005
# 6 0.0000 0.0000 0.0000 -18.2315 -0.0005 30.6452
#
#
#
# Elastic Compliance Matrix: (Units=1/GPa)
#
#
# Indices 1 2 3 4 5 6 
#
# 1 0.001117 0.010937 -0.002658 -0.000001 0.043931 0.000000
# 2 0.010937 0.001117 -0.002658 0.000001 -0.043931 0.000000
# 3 -0.002658 -0.002658 0.021238 0.000000 0.000000 0.000000
# 4 -0.000001 0.000001 0.000000 -0.147686 0.000000 -0.087862
# 5 0.043931 -0.043931 0.000000 0.000000 -0.147686 -0.000003
# 6 0.000000 0.000000 0.000000 -0.087862 -0.000003 -0.019639
#
#
# Mechanical properties :
#
#
# Convention : Reuss Voigt Hill
#
# Bulk Modulus (GPa) = 28.80481 29.93196 29.36838
# Shear Modulus (GPa) = -17.16971 18.67235 0.75132
#
# Velocity S-wave (km/s) = -2.83046 2.95172 0.59209
# Velocity P-wave (km/s) = 1.66088 5.05799 3.76443
#
# Compressibility (1/GPa) = 0.03471643
#
# Stress axis : x y z
#
# Youngs Moduli (GPa) = 895.01798 895.01797 47.08528
#
# Poissons Ratio (x) = -9.78874 0.12513
# Poissons Ratio (y) = -9.78874 0.12513
# Poissons Ratio (z) = 2.37852 2.37852
#
# Static dielectric constant tensor:
#      x y z
#    x 1.859050 0.000000 0.000000 
#    y 0.000000 1.859050 0.000000 
#    z 0.000000 0.000000 1.949660 
# 
# From -- ./inp_files/5192.got.cif
#   From: 2010.05.17/outbox.cif.g08.bks.cpg/sg153_3_cif.got.tgz:5192.got - 2010.05.20 10:38:56.
