data_PCOD9576700
_publ_section_title
;
Structure prediction by ZEFSAII (Michael W. Deem and Ramdas Pophale) SiO2 
 PCOD9576700
Probable space group: P 32 2 1
;
_chemical_formula_sum "Si O2"
_cell_formula_units_Z 45
_cell_length_a 17.998749
_cell_length_b 17.998749
_cell_length_c 8.337636
_cell_angle_alpha 90.000000
_cell_angle_beta 90.000000
_cell_angle_gamma 120.000000
_cell_volume 2339.150709
_symmetry_space_group_name_H-M "P 32 2 1"
_symmetry_group_IT_number 154
_symmetry_cell_setting 'hexagonal'
loop_
_space_group_symop_operation_xyz
x,y,z
-y,x-y,2/3+z
-x+y,-x,1/3+z
x-y,-y,1/3-z
-x,-x+y,2/3-z
y,x,-z
loop_
_atom_site_type_symbol
_atom_site_label
_atom_site_fract_x
_atom_site_fract_y
_atom_site_fract_z
Si Si1 0.968492 0.219544 0.000959
Si Si2 0.682426 0.102233 0.662162
Si Si3 0.689425 0.123735 0.017813
Si Si4 0.856169 0.706755 0.171853
Si Si5 0.931858 0.450800 0.185165
Si Si6 0.963937 0.771316 0.660340
Si Si7 0.410943 0.155207 0.541371
Si Si8 0.490821 0.490821 0.500000
O O1 0.052677 0.238401 0.099640
O O2 0.899370 0.119869 0.962586
O O3 0.918244 0.256216 0.098446
O O4 0.000000 0.266697 0.833334
O O5 0.783153 0.144371 0.630685
O O6 0.622655 0.111803 0.529304
O O7 0.645184 0.000000 0.666667
O O8 0.670342 0.134170 0.834096
O O9 0.736919 0.066849 0.006761
O O10 0.756785 0.207397 0.110837
O O11 0.601730 0.076444 0.113196
O O12 0.801784 0.645158 0.024296
O O13 0.954891 0.770580 0.123209
O O14 0.870030 0.352933 0.234397
O O15 0.000000 0.487033 0.333334
O O16 0.970759 0.458005 0.004993
O O17 0.000000 0.811582 0.833334
#
# Coordination Sequence:
#
# PCOD9576700 Si02
#       8
#     6   6   6   6   6   6   6   3
#     4  11  25  37  55  90 126 172 218 266 323 382
#     4  11  21  37  68  98 126 158 224 278 317 391
#     4  11  19  39  64 102 120 163 209 266 330 383
#     4  12  21  40  65  86 126 181 211 269 333 373
#     4  11  23  40  61 101 126 161 216 274 326 384
#     4  11  20  35  61  85 120 160 221 264 305 389
#     4  11  24  40  63  89 132 168 214 265 327 407
#     4  12  20  38  74  96 126 162 214 268 326 384
#
# _framework density 19.237749999999998
#
# number of rings (size 3 to 8) (size 9 to 14) (size 15 to 20)
#    0.000    0.800    7.333    3.600    0.933    0.000 
#    2.400    2.000    0.000    6.400    0.000    0.000 
#    0.000    0.000    0.000    0.000    0.000    0.000 
#
# Total GULP energy -251027.332450 kJ/mol
# GULP energy per Si atom -5578.385166 kJ/mol
# Density = 1.919396 g / cm^3
# Si number density = 19.237750 Si / 1000 Ang^3
#
#
#
# Elastic Constant Matrix: (Units=GPa)
#
#
# Indices 1 2 3 4 5 6 
#
# 1 64.0064 26.5360 6.4661 -2.2113 0.0000 0.0000
# 2 26.5360 64.0064 6.4661 2.2113 0.0000 0.0000
# 3 6.4661 6.4661 93.2949 0.0000 0.0000 0.0000
# 4 -2.2113 2.2113 0.0000 12.5701 0.0000 0.0000
# 5 0.0000 0.0000 0.0000 0.0000 12.5701 -2.2113
# 6 0.0000 0.0000 0.0000 0.0000 -2.2113 18.7352
#
#
#
# Elastic Compliance Matrix: (Units=1/GPa)
#
#
# Indices 1 2 3 4 5 6 
#
# 1 0.019204 -0.008049 -0.000773 0.004794 0.000000 0.000000
# 2 -0.008049 0.019204 -0.000773 -0.004794 0.000000 0.000000
# 3 -0.000773 -0.000773 0.010826 0.000000 0.000000 0.000000
# 4 0.004794 -0.004794 0.000000 0.081241 0.000000 0.000000
# 5 0.000000 0.000000 0.000000 0.000000 0.081241 0.009589
# 6 0.000000 0.000000 0.000000 0.000000 0.009589 0.054507
#
#
# Mechanical properties :
#
#
# Convention : Reuss Voigt Hill
#
# Bulk Modulus (GPa) = 33.28532 33.36048 33.32290
# Shear Modulus (GPa) = 16.92455 20.89770 18.91113
#
# Velocity S-wave (km/s) = 2.96929 3.29946 3.13872
# Velocity P-wave (km/s) = 5.39400 5.64748 5.52219
#
# Compressibility (1/GPa) = 0.03004328
#
# Stress axis : x y z
#
# Youngs Moduli (GPa) = 52.07162 52.07162 92.37135
#
# Poissons Ratio (x) = 0.41914 0.07142
# Poissons Ratio (y) = 0.41914 0.07142
# Poissons Ratio (z) = 0.04026 0.04026
#
# Static dielectric constant tensor:
#      x y z
#    x 1.695110 0.000000 0.000000 
#    y 0.000000 1.695110 0.000000 
#    z 0.000000 0.000000 1.737080 
# 
# From -- ./inp_files/1299.got.cif
#   From: 2010.05.17/outbox.cif.g08.bks.cpg/sg154_1_cif.got.tgz:1299.got - 2010.05.20 10:41:43.
