data_PCOD9576901
_publ_section_title
;
Structure prediction by ZEFSAII (Michael W. Deem and Ramdas Pophale) SiO2 
 PCOD9576901
Probable space group: R 3 2
;
_chemical_formula_sum "Si O2"
_cell_formula_units_Z 135
_cell_length_a 17.505304
_cell_length_b 17.505304
_cell_length_c 25.649885
_cell_angle_alpha 90.000000
_cell_angle_beta 90.000000
_cell_angle_gamma 120.000000
_cell_volume 6806.994009
_symmetry_space_group_name_H-M "R 3 2"
_symmetry_group_IT_number 155
_symmetry_cell_setting 'hexagonal'
loop_
_space_group_symop_operation_xyz
x,y,z
-y,x-y,z
-x+y,-x,z
x-y,-y,-z
-x,-x+y,-z
y,x,-z
2/3+x,1/3+y,1/3+z
2/3-y,1/3+x-y,1/3+z
2/3-x+y,1/3-x,1/3+z
2/3+x-y,1/3-y,1/3-z
2/3-x,1/3-x+y,1/3-z
2/3+y,1/3+x,1/3-z
1/3+x,2/3+y,2/3+z
1/3-y,2/3+x-y,2/3+z
1/3-x+y,2/3-x,2/3+z
1/3+x-y,2/3-y,2/3-z
1/3-x,2/3-x+y,2/3-z
1/3+y,2/3+x,2/3-z
loop_
_atom_site_type_symbol
_atom_site_label
_atom_site_fract_x
_atom_site_fract_y
_atom_site_fract_z
Si Si1 0.918147 0.595366 0.702998
Si Si2 0.419577 0.086244 0.833334
Si Si3 0.900631 0.908356 0.652011
Si Si4 0.822631 0.425539 0.883030
Si Si5 0.173117 0.882404 0.675968
Si Si6 0.500018 0.560595 0.550036
Si Si7 0.859193 0.250182 0.429322
Si Si8 0.927839 0.611192 0.455312
O O1 0.910884 0.666667 0.666667
O O2 0.843202 0.540069 0.745946
O O3 0.932755 0.526051 0.670159
O O4 0.007871 0.650755 0.735522
O O5 0.511067 0.105700 0.858514
O O6 0.347404 0.064776 0.876641
O O7 0.907672 0.899077 0.589139
O O8 0.805337 0.834271 0.670149
O O9 0.993035 0.915369 0.668754
O O10 0.775552 0.442218 0.833334
O O11 0.203159 0.870140 0.732042
O O12 0.230172 0.870324 0.630700
O O13 0.548262 0.548262 0.500000
O O14 0.519209 0.659532 0.559334
O O15 0.397519 0.488093 0.543339
O O16 0.776172 0.163571 0.453937
O O17 0.000000 0.666039 0.500000
#
# Coordination Sequence:
#
# PCOD9576901 Si02
#       8
#    18   9  18  18  18  18  18  18
#     4  11  20  38  60  90 121 164 224 269 323 390
#     4  12  22  38  58  98 138 176 216 256 338 398
#     4  10  20  36  55  90 133 178 223 253 314 399
#     4  12  22  36  59  96 141 179 220 272 325 399
#     4  11  21  41  62  88 127 169 217 270 330 398
#     4  11  24  45  66  93 125 170 216 276 342 390
#     4  11  23  41  66  94 133 167 215 269 330 405
#     4  10  22  42  70  93 122 167 217 269 330 393
#
# _framework density 19.832543000000001
#
# number of rings (size 3 to 8) (size 9 to 14) (size 15 to 20)
#    0.267    0.800    4.667    4.000    0.000    0.000 
#    3.600    2.667    0.000    0.000    0.000    0.000 
#    0.000    0.000    0.000    0.000    0.000    0.000 
#
# Total GULP energy -250733.111232 kJ/mol
# GULP energy per Si atom -5571.846916 kJ/mol
# Density = 1.978740 g / cm^3
# Si number density = 19.832543 Si / 1000 Ang^3
#
#
#
# Elastic Constant Matrix: (Units=GPa)
#
#
# Indices 1 2 3 4 5 6 
#
# 1 85.8343 29.0372 43.5920 -4.3747 0.0000 0.0000
# 2 29.0372 85.8343 43.5920 4.3747 0.0000 0.0000
# 3 43.5920 43.5920 112.5067 0.0000 0.0000 0.0000
# 4 -4.3747 4.3747 0.0000 28.4464 0.0000 0.0000
# 5 0.0000 0.0000 0.0000 0.0000 28.4464 -4.3747
# 6 0.0000 0.0000 0.0000 0.0000 -4.3747 28.3986
#
#
#
# Elastic Compliance Matrix: (Units=1/GPa)
#
#
# Indices 1 2 3 4 5 6 
#
# 1 0.015183 -0.002851 -0.004778 0.002773 0.000000 0.000000
# 2 -0.002851 0.015183 -0.004778 -0.002773 0.000000 0.000000
# 3 -0.004778 -0.004778 0.012591 0.000000 0.000000 0.000000
# 4 0.002773 -0.002773 0.000000 0.036007 0.000000 0.000000
# 5 0.000000 0.000000 0.000000 0.000000 0.036007 0.005547
# 6 0.000000 0.000000 0.000000 0.000000 0.005547 0.036067
#
#
# Mechanical properties :
#
#
# Convention : Reuss Voigt Hill
#
# Bulk Modulus (GPa) = 55.11997 57.40196 56.26096
# Shear Modulus (GPa) = 27.48773 28.25524 27.87148
#
# Velocity S-wave (km/s) = 3.72693 3.77860 3.75285
# Velocity P-wave (km/s) = 6.80977 6.93132 6.87082
#
# Compressibility (1/GPa) = 0.01814224
#
# Stress axis : x y z
#
# Youngs Moduli (GPa) = 65.86411 65.86411 79.42168
#
# Poissons Ratio (x) = 0.18778 0.37948
# Poissons Ratio (y) = 0.18778 0.37948
# Poissons Ratio (z) = 0.31471 0.31471
#
# Static dielectric constant tensor:
#      x y z
#    x 1.745280 0.000000 0.000000 
#    y 0.000000 1.745280 0.000000 
#    z 0.000000 0.000000 1.707520 
# 
# From -- ./inp_files/7578.got.cif
#   From: 2010.05.17/outbox.cif.g08.bks.cpg/sg155_4_cif.got.tgz:7578.got - 2010.05.20 10:44:35.
