data_PCOD9576535
_publ_section_title
;
Structure prediction by ZEFSAII (Michael W. Deem and Ramdas Pophale) SiO2 
 PCOD9576535
Probable space group: P 32 2 1
;
_chemical_formula_sum "Si O2"
_cell_formula_units_Z 24
_cell_length_a 10.860370
_cell_length_b 10.860370
_cell_length_c 12.051514
_cell_angle_alpha 90.000000
_cell_angle_beta 90.000000
_cell_angle_gamma 120.000000
_cell_volume 1231.009726
_symmetry_space_group_name_H-M "P 32 2 1"
_symmetry_group_IT_number 154
_symmetry_cell_setting 'hexagonal'
loop_
_space_group_symop_operation_xyz
x,y,z
-y,x-y,2/3+z
-x+y,-x,1/3+z
x-y,-y,1/3-z
-x,-x+y,2/3-z
y,x,-z
loop_
_atom_site_type_symbol
_atom_site_label
_atom_site_fract_x
_atom_site_fract_y
_atom_site_fract_z
Si Si1 0.845449 0.296242 0.317705
Si Si2 0.859793 0.859793 0.000000
Si Si3 0.137024 0.422476 0.898944
Si Si4 0.115858 0.000000 0.166667
Si Si5 0.254355 0.592415 0.123223
O O1 0.750092 0.328809 0.238019
O O2 0.777395 0.266353 0.439465
O O3 0.000000 0.436813 0.333334
O O4 0.885965 0.179043 0.281294
O O5 0.906173 0.982297 0.910475
O O6 0.093367 0.257279 0.907364
O O7 0.280969 0.508226 0.827571
O O8 0.000000 0.408719 0.833334
O O9 0.168777 0.504169 0.015485
#
# Coordination Sequence:
#
# PCOD9576535 Si02
#       5
#     6   3   6   3   6
#     4   9  23  40  65  99 124 181 221 279 344 391
#     4  10  24  44  64  98 130 184 226 266 346 396
#     4   9  23  40  66  99 128 179 220 279 347 390
#     4  10  24  44  62 102 130 186 220 276 338 396
#     4  10  20  44  66  97 133 168 235 281 342 396
#
# _framework density 19.496191
#
# number of rings (size 3 to 8) (size 9 to 14) (size 15 to 20)
#    1.500    1.000    0.000    0.000    3.500   10.000 
#   13.500    0.000    0.000    0.000    0.000    0.000 
#    0.000    0.000    0.000    0.000    0.000    0.000 
#
# Total GULP energy -133603.735581 kJ/mol
# GULP energy per Si atom -5566.822316 kJ/mol
# Density = 1.945182 g / cm^3
# Si number density = 19.496191 Si / 1000 Ang^3
#
#
#
# Elastic Constant Matrix: (Units=GPa)
#
#
# Indices 1 2 3 4 5 6 
#
# 1 107.1652 33.7624 37.2501 6.3063 0.0001 0.0000
# 2 33.7624 107.1652 37.2501 -6.3063 -0.0001 0.0000
# 3 37.2501 37.2501 76.8463 0.0000 0.0000 0.0000
# 4 6.3063 -6.3063 0.0000 21.4274 0.0000 -0.0001
# 5 0.0001 -0.0001 0.0000 0.0000 21.4274 6.3063
# 6 0.0000 0.0000 0.0000 -0.0001 6.3063 36.7014
#
#
#
# Elastic Compliance Matrix: (Units=1/GPa)
#
#
# Indices 1 2 3 4 5 6 
#
# 1 0.011945 -0.002404 -0.004625 -0.004223 0.000000 0.000000
# 2 -0.002404 0.011945 -0.004625 0.004223 0.000000 0.000000
# 3 -0.004625 -0.004625 0.017496 0.000000 0.000000 0.000000
# 4 -0.004223 0.004223 0.000000 0.049155 0.000000 0.000000
# 5 0.000000 0.000000 0.000000 0.000000 0.049155 -0.008446
# 6 0.000000 0.000000 0.000000 0.000000 -0.008446 0.028698
#
#
# Mechanical properties :
#
#
# Convention : Reuss Voigt Hill
#
# Bulk Modulus (GPa) = 55.31267 56.41130 55.86198
# Shear Modulus (GPa) = 25.28724 28.10550 26.69637
#
# Velocity S-wave (km/s) = 3.60534 3.80095 3.70444
# Velocity P-wave (km/s) = 6.76491 6.94696 6.85654
#
# Compressibility (1/GPa) = 0.01807904
#
# Stress axis : x y z
#
# Youngs Moduli (GPa) = 83.71796 83.71796 57.15435
#
# Poissons Ratio (x) = 0.20128 0.26432
# Poissons Ratio (y) = 0.20128 0.26432
# Poissons Ratio (z) = 0.38717 0.38717
#
# Static dielectric constant tensor:
#      x y z
#    x 1.694260 0.000000 0.000000 
#    y 0.000000 1.694260 0.000000 
#    z 0.000000 0.000000 1.695600 
# 
# From -- ./inp_files/1611.got.cif
#   From: 2010.05.17/outbox.cif.g08.bks.cpg/sg154_1_cif.got.tgz:1611.got - 2010.05.20 10:41:43.
