data_PCOD9576956
_publ_section_title
;
Structure prediction by ZEFSAII (Michael W. Deem and Ramdas Pophale) SiO2 
 PCOD9576956
Probable space group: R 3 2
;
_chemical_formula_sum "Si O2"
_cell_formula_units_Z 144
_cell_length_a 20.015663
_cell_length_b 20.015663
_cell_length_c 20.502889
_cell_angle_alpha 90.000000
_cell_angle_beta 90.000000
_cell_angle_gamma 120.000000
_cell_volume 7113.537949
_symmetry_space_group_name_H-M "R 3 2"
_symmetry_group_IT_number 155
_symmetry_cell_setting 'hexagonal'
loop_
_space_group_symop_operation_xyz
x,y,z
-y,x-y,z
-x+y,-x,z
x-y,-y,-z
-x,-x+y,-z
y,x,-z
2/3+x,1/3+y,1/3+z
2/3-y,1/3+x-y,1/3+z
2/3-x+y,1/3-x,1/3+z
2/3+x-y,1/3-y,1/3-z
2/3-x,1/3-x+y,1/3-z
2/3+y,1/3+x,1/3-z
1/3+x,2/3+y,2/3+z
1/3-y,2/3+x-y,2/3+z
1/3-x+y,2/3-x,2/3+z
1/3+x-y,2/3-y,2/3-z
1/3-x,2/3-x+y,2/3-z
1/3+y,2/3+x,2/3-z
loop_
_atom_site_type_symbol
_atom_site_label
_atom_site_fract_x
_atom_site_fract_y
_atom_site_fract_z
Si Si1 0.215673 0.298925 0.484512
Si Si2 0.378513 0.464949 0.014151
Si Si3 0.190776 0.125583 0.779955
Si Si4 0.224700 0.149459 0.152021
Si Si5 0.915183 0.261088 0.017405
Si Si6 0.542917 0.598604 0.213226
Si Si7 0.559243 0.996518 0.385631
Si Si8 0.561137 0.668838 0.849383
O O1 0.288603 0.288603 0.500000
O O2 0.181405 0.240525 0.422947
O O3 0.246354 0.387856 0.465982
O O4 0.147007 0.276295 0.535461
O O5 0.448231 0.448231 0.000000
O O6 0.380321 0.526463 0.963501
O O7 0.300563 0.384642 0.995978
O O8 0.135498 0.142358 0.825060
O O9 0.185842 0.045669 0.793646
O O10 0.256666 0.205204 0.089035
O O11 0.274705 0.188438 0.217646
O O12 0.234822 0.074883 0.142924
O O13 0.892236 0.293543 0.954227
O O14 0.848302 0.172873 0.019457
O O15 0.914085 0.300569 0.085444
O O16 0.000000 0.277438 0.000000
O O17 0.552320 0.666667 0.166667
O O18 0.609970 0.579907 0.189059
#
# Coordination Sequence:
#
# PCOD9576956 Si02
#       8
#    18  18  18  18  18  18  18  18
#     4  10  21  34  53  78 114 141 178 232 281 347
#     4   9  18  31  51  76 105 140 180 223 277 336
#     4   9  20  33  53  79 106 144 182 230 285 334
#     4   9  18  33  54  77 108 142 184 237 281 334
#     4  11  20  32  54  77 112 144 182 228 284 342
#     4  11  22  35  54  84 112 150 187 231 292 340
#     4   9  18  31  52  78 104 141 182 227 284 336
#     4  10  21  36  54  80 113 144 190 236 282 342
#
# _framework density 20.243091
#
# number of rings (size 3 to 8) (size 9 to 14) (size 15 to 20)
#    0.000    2.250    1.250    1.500    8.750    0.500 
#    0.750    0.000    0.000    0.250    0.000    0.000 
#    0.000    1.000    0.000    0.000    0.000    0.000 
#
# Total GULP energy -267409.737175 kJ/mol
# GULP energy per Si atom -5571.036191 kJ/mol
# Density = 2.019702 g / cm^3
# Si number density = 20.243091 Si / 1000 Ang^3
#
#
#
# Elastic Constant Matrix: (Units=GPa)
#
#
# Indices 1 2 3 4 5 6 
#
# 1 56.2887 8.1448 4.9634 3.6707 0.0000 0.0000
# 2 8.1448 56.2887 4.9634 -3.6707 0.0000 0.0000
# 3 4.9634 4.9634 59.8778 0.0000 0.0000 0.0000
# 4 3.6707 -3.6707 0.0000 21.1074 0.0000 0.0000
# 5 0.0000 0.0000 0.0000 0.0000 21.1074 3.6707
# 6 0.0000 0.0000 0.0000 0.0000 3.6707 24.0719
#
#
#
# Elastic Compliance Matrix: (Units=1/GPa)
#
#
# Indices 1 2 3 4 5 6 
#
# 1 0.018529 -0.002808 -0.001303 -0.003711 0.000000 0.000000
# 2 -0.002808 0.018529 -0.001303 0.003711 0.000000 0.000000
# 3 -0.001303 -0.001303 0.016917 0.000000 0.000000 0.000000
# 4 -0.003711 0.003711 0.000000 0.048667 0.000000 0.000000
# 5 0.000000 0.000000 0.000000 0.000000 0.048667 -0.007421
# 6 0.000000 0.000000 0.000000 0.000000 -0.007421 0.042674
#
#
# Mechanical properties :
#
#
# Convention : Reuss Voigt Hill
#
# Bulk Modulus (GPa) = 23.17740 23.17763 23.17752
# Shear Modulus (GPa) = 22.81089 23.54957 23.18023
#
# Velocity S-wave (km/s) = 3.36050 3.41448 3.38759
# Velocity P-wave (km/s) = 5.15089 5.19802 5.17451
#
# Compressibility (1/GPa) = 0.04314547
#
# Stress axis : x y z
#
# Youngs Moduli (GPa) = 53.97013 53.97013 59.11309
#
# Poissons Ratio (x) = 0.15156 0.07703
# Poissons Ratio (y) = 0.15156 0.07703
# Poissons Ratio (z) = 0.07033 0.07033
#
# Static dielectric constant tensor:
#      x y z
#    x 1.767430 0.000000 0.000000 
#    y 0.000000 1.767430 0.000000 
#    z 0.000000 0.000000 1.801490 
# 
# From -- ./inp_files/7065.got.cif
#   From: 2010.05.17/outbox.cif.g08.bks.cpg/sg155_4_cif.got.tgz:7065.got - 2010.05.20 10:44:35.
