data_PCOD9576574
_publ_section_title
;
Structure prediction by ZEFSAII (Michael W. Deem and Ramdas Pophale) SiO2 
 PCOD9576574
Probable space group: P 32 2 1
;
_chemical_formula_sum "Si O2"
_cell_formula_units_Z 18
_cell_length_a 8.547263
_cell_length_b 8.547263
_cell_length_c 10.759822
_cell_angle_alpha 90.000000
_cell_angle_beta 90.000000
_cell_angle_gamma 120.000000
_cell_volume 680.753454
_symmetry_space_group_name_H-M "P 32 2 1"
_symmetry_group_IT_number 154
_symmetry_cell_setting 'hexagonal'
loop_
_space_group_symop_operation_xyz
x,y,z
-y,x-y,2/3+z
-x+y,-x,1/3+z
x-y,-y,1/3-z
-x,-x+y,2/3-z
y,x,-z
loop_
_atom_site_type_symbol
_atom_site_label
_atom_site_fract_x
_atom_site_fract_y
_atom_site_fract_z
Si Si1 0.131965 0.542280 0.221226
Si Si2 0.832248 0.814820 0.244026
Si Si3 0.075085 0.519143 0.958930
O O1 0.117005 0.350602 0.187452
O O2 0.316896 0.712695 0.262996
O O3 0.000000 0.504582 0.333334
O O4 0.068330 0.591729 0.093803
O O5 0.668803 0.697600 0.343885
O O6 0.000000 0.865597 0.333334
O O7 0.888673 0.000000 0.166667
O O8 0.000000 0.553583 0.833334
#
# Coordination Sequence:
#
# PCOD9576574 Si02
#       3
#     6   6   6
#     4  10  24  45  71 112 159 212 265 343 406 491
#     4  10  21  41  79 110 159 202 274 331 414 489
#     4  10  24  46  74 112 158 211 270 338 417 506
#
# _framework density 26.441289999999999
#
# number of rings (size 3 to 8) (size 9 to 14) (size 15 to 20)
#    2.000    0.000    0.000    3.000    0.000    2.667 
#    0.000    1.667    0.000    0.000    0.000    0.000 
#    0.000    0.000    0.000    0.000    0.000    0.000 
#
# Total GULP energy -100245.410095 kJ/mol
# GULP energy per Si atom -5569.189450 kJ/mol
# Density = 2.638111 g / cm^3
# Si number density = 26.441290 Si / 1000 Ang^3
#
#
#
# Elastic Constant Matrix: (Units=GPa)
#
#
# Indices 1 2 3 4 5 6 
#
# 1 146.2062 79.5173 64.8221 0.9310 -0.0004 0.0000
# 2 79.5173 146.2062 64.8221 -0.9310 0.0004 0.0000
# 3 64.8221 64.8221 261.5053 0.0000 0.0000 0.0000
# 4 0.9310 -0.9310 0.0000 -3.2315 0.0000 0.0004
# 5 -0.0004 0.0004 0.0000 0.0000 -3.2315 0.9310
# 6 0.0000 0.0000 0.0000 0.0004 0.9310 33.3445
#
#
#
# Elastic Compliance Matrix: (Units=1/GPa)
#
#
# Indices 1 2 3 4 5 6 
#
# 1 0.010020 -0.004855 -0.001280 0.004286 -0.000002 0.000000
# 2 -0.004855 0.010020 -0.001280 -0.004286 0.000002 0.000000
# 3 -0.001280 -0.001280 0.004459 0.000000 0.000000 0.000000
# 4 0.004286 -0.004286 0.000000 -0.306982 0.000000 0.000004
# 5 -0.000002 0.000002 0.000000 0.000000 -0.306982 0.008572
# 6 0.000000 0.000000 0.000000 0.000004 0.008572 0.029751
#
#
# Mechanical properties :
#
#
# Convention : Reuss Voigt Hill
#
# Bulk Modulus (GPa) = 103.43148 108.02676 105.72912
# Shear Modulus (GPa) = -9.23091 28.36003 9.56456
#
# Velocity S-wave (km/s) = -1.87047 3.27856 1.90398
# Velocity P-wave (km/s) = 5.87686 7.43478 6.70125
#
# Compressibility (1/GPa) = 0.00966824
#
# Stress axis : x y z
#
# Youngs Moduli (GPa) = 99.79564 99.79564 224.27476
#
# Poissons Ratio (x) = 0.48449 0.28717
# Poissons Ratio (y) = 0.48449 0.28717
# Poissons Ratio (z) = 0.12778 0.12778
#
# Static dielectric constant tensor:
#      x y z
#    x 2.091370 0.000000 0.000000 
#    y 0.000000 2.091370 0.000000 
#    z 0.000000 0.000000 1.991700 
# 
# From -- ./inp_files/1447.got.cif
#   From: 2010.05.17/outbox.cif.g08.bks.cpg/sg154_1_cif.got.tgz:1447.got - 2010.05.20 10:41:43.
