data_PCOD9576123
_publ_section_title
;
Structure prediction by ZEFSAII (Michael W. Deem and Ramdas Pophale) SiO2 
 PCOD9576123
Probable space group: P 31 2 1
;
_chemical_formula_sum "Si O2"
_cell_formula_units_Z 24
_cell_length_a 10.162244
_cell_length_b 10.162244
_cell_length_c 9.672890
_cell_angle_alpha 90.000000
_cell_angle_beta 90.000000
_cell_angle_gamma 120.000000
_cell_volume 865.099612
_symmetry_space_group_name_H-M "P 31 2 1"
_symmetry_group_IT_number 152
_symmetry_cell_setting 'hexagonal'
loop_
_space_group_symop_operation_xyz
x,y,z
-y,x-y,1/3+z
-x+y,-x,2/3+z
x-y,-y,2/3-z
-x,-x+y,1/3-z
y,x,-z
loop_
_atom_site_type_symbol
_atom_site_label
_atom_site_fract_x
_atom_site_fract_y
_atom_site_fract_z
Si Si1 0.635501 0.126823 0.932964
Si Si2 0.097255 0.183218 0.319438
Si Si3 0.406310 0.811279 0.426082
Si Si4 0.853105 0.661291 0.786109
O O1 0.784620 0.112343 0.923895
O O2 0.655359 0.286995 0.888781
O O3 0.512032 0.000000 0.833334
O O4 0.589175 0.109695 0.094025
O O5 0.204322 0.210795 0.186067
O O6 0.950908 0.201595 0.349667
O O7 0.031089 0.000000 0.333334
O O8 0.261312 0.834600 0.419599
O O9 0.527494 0.854609 0.303217
#
# Coordination Sequence:
#
# PCOD9576123 Si02
#       4
#     6   6   6   6
#     4  11  27  51  86 121 180 240 306 376 467 552
#     4  12  29  54  86 129 187 233 307 379 478 563
#     4  10  28  52  88 129 183 235 319 378 468 540
#     4  11  28  56  88 137 180 245 304 387 468 567
#
# _framework density 27.742470000000001
#
# number of rings (size 3 to 8) (size 9 to 14) (size 15 to 20)
#    0.000    1.000    0.000    2.250   21.000    0.000 
#    9.000    0.000    0.000    0.000    0.000    0.000 
#    0.000    0.000    0.000    0.000    0.000    0.000 
#
# Total GULP energy -133910.632926 kJ/mol
# GULP energy per Si atom -5579.609705 kJ/mol
# Density = 2.767933 g / cm^3
# Si number density = 27.742470 Si / 1000 Ang^3
#
#
#
# Elastic Constant Matrix: (Units=GPa)
#
#
# Indices 1 2 3 4 5 6 
#
# 1 134.2942 55.9663 77.2042 -9.6015 -0.0001 0.0000
# 2 55.9663 134.2942 77.2042 9.6015 0.0001 0.0000
# 3 77.2042 77.2042 143.8238 0.0000 0.0000 0.0000
# 4 -9.6015 9.6015 0.0000 52.9599 0.0000 0.0001
# 5 -0.0001 0.0001 0.0000 0.0000 52.9599 -9.6015
# 6 0.0000 0.0000 0.0000 0.0001 -9.6015 39.1639
#
#
#
# Elastic Compliance Matrix: (Units=1/GPa)
#
#
# Indices 1 2 3 4 5 6 
#
# 1 0.011337 -0.002024 -0.004999 0.002422 0.000000 0.000000
# 2 -0.002024 0.011337 -0.004999 -0.002422 0.000000 0.000000
# 3 -0.004999 -0.004999 0.012320 0.000000 0.000000 0.000000
# 4 0.002422 -0.002422 0.000000 0.019761 0.000000 0.000000
# 5 0.000000 0.000000 0.000000 0.000000 0.019761 0.004845
# 6 0.000000 0.000000 0.000000 0.000000 0.004845 0.026721
#
#
# Mechanical properties :
#
#
# Convention : Reuss Voigt Hill
#
# Bulk Modulus (GPa) = 91.32945 92.57353 91.95149
# Shear Modulus (GPa) = 38.78047 42.48590 40.63318
#
# Velocity S-wave (km/s) = 3.74287 3.91761 3.83123
# Velocity P-wave (km/s) = 7.18823 7.34199 7.26552
#
# Compressibility (1/GPa) = 0.01094937
#
# Stress axis : x y z
#
# Youngs Moduli (GPa) = 88.20725 88.20725 81.16779
#
# Poissons Ratio (x) = 0.17851 0.40578
# Poissons Ratio (y) = 0.17851 0.40578
# Poissons Ratio (z) = 0.44097 0.44097
#
# Static dielectric constant tensor:
#      x y z
#    x 2.232800 0.000000 0.000000 
#    y 0.000000 2.232800 0.000000 
#    z 0.000000 0.000000 2.378330 
# 
# From -- ./inp_files/1620.got.cif
#   From: 2010.05.17/outbox.cif.g08.bks.cpg/sg152_1_cif.got.tgz:1620.got - 2010.05.20 10:36:06.
