data_PCOD9576273
_publ_section_title
;
Structure prediction by ZEFSAII (Michael W. Deem and Ramdas Pophale) SiO2 
 PCOD9576273
Probable space group: P 32 1 2
;
_chemical_formula_sum "Si O2"
_cell_formula_units_Z 42
_cell_length_a 13.750816
_cell_length_b 13.750816
_cell_length_c 13.246121
_cell_angle_alpha 90.000000
_cell_angle_beta 90.000000
_cell_angle_gamma 120.000000
_cell_volume 2169.083602
_symmetry_space_group_name_H-M "P 32 1 2"
_symmetry_group_IT_number 153
_symmetry_cell_setting 'hexagonal'
loop_
_space_group_symop_operation_xyz
x,y,z
-y,x-y,2/3+z
-x+y,-x,1/3+z
-y,-x,1/3-z
-x+y,y,2/3-z
x,x-y,-z
loop_
_atom_site_type_symbol
_atom_site_label
_atom_site_fract_x
_atom_site_fract_y
_atom_site_fract_z
Si Si1 0.590808 0.988117 0.762804
Si Si2 0.862113 0.636006 0.579241
Si Si3 0.512907 0.429348 0.383311
Si Si4 0.654192 0.227238 0.446655
Si Si5 0.447089 0.730879 0.746349
Si Si6 0.589484 0.873396 0.086595
Si Si7 0.855651 0.022175 0.063553
O O1 0.494619 0.989237 0.833334
O O2 0.534009 0.861871 0.719026
O O3 0.701610 0.036558 0.833300
O O4 0.610710 0.076177 0.674920
O O5 0.855390 0.536649 0.649567
O O6 0.738458 0.560396 0.535280
O O7 0.890476 0.740579 0.650866
O O8 0.544831 0.403293 0.490099
O O9 0.408583 0.450084 0.385203
O O10 0.615201 0.230401 0.333334
O O11 0.697412 0.348706 0.500000
O O12 0.362987 0.637014 0.666667
O O13 0.366881 0.733761 0.833334
O O14 0.530129 0.702135 0.807191
O O15 0.724342 0.939883 0.092392
O O16 0.557722 0.778861 0.000000
O O17 0.922623 0.077378 0.166667
O O18 0.894399 0.947200 0.000000
#
# Coordination Sequence:
#
# PCOD9576273 Si02
#       7
#     6   6   6   6   6   6   6
#     4   9  17  32  54  79 114 158 209 250 292 359
#     4  10  21  35  61  89 119 163 208 255 308 374
#     4  10  20  34  54  83 125 164 206 257 297 370
#     4  12  24  36  56  88 133 173 207 248 320 392
#     4  11  20  33  56  85 121 161 204 253 308 369
#     4  10  20  37  61  91 120 165 214 258 314 379
#     4  10  22  42  72  93 116 156 223 279 322 376
#
# _framework density 19.363015999999998
#
# number of rings (size 3 to 8) (size 9 to 14) (size 15 to 20)
#    0.000    1.714    1.429    6.857    4.000    0.571 
#    0.000    0.000    6.286    0.000    0.000    0.000 
#    0.000    0.000    0.000    0.000    0.000    0.000 
#
# Total GULP energy -233880.169479 kJ/mol
# GULP energy per Si atom -5568.575464 kJ/mol
# Density = 1.931894 g / cm^3
# Si number density = 19.363016 Si / 1000 Ang^3
#
#
#
# Elastic Constant Matrix: (Units=GPa)
#
#
# Indices 1 2 3 4 5 6 
#
# 1 48.5754 28.8634 37.8986 0.0001 3.5812 0.0000
# 2 28.8634 48.5754 37.8986 -0.0001 -3.5812 0.0000
# 3 37.8986 37.8986 117.5823 0.0000 0.0000 0.0000
# 4 0.0001 -0.0001 0.0000 34.3670 0.0000 -3.5812
# 5 3.5812 -3.5812 0.0000 0.0000 34.3670 0.0001
# 6 0.0000 0.0000 0.0000 -3.5812 0.0001 9.8560
#
#
#
# Elastic Compliance Matrix: (Units=1/GPa)
#
#
# Indices 1 2 3 4 5 6 
#
# 1 0.035796 -0.016931 -0.006080 0.000000 -0.005494 0.000000
# 2 -0.016931 0.035796 -0.006080 0.000000 0.005494 0.000000
# 3 -0.006080 -0.006080 0.012424 0.000000 0.000000 0.000000
# 4 0.000000 0.000000 0.000000 0.030243 0.000000 0.010989
# 5 -0.005494 0.005494 0.000000 0.000000 0.030243 0.000000
# 6 0.000000 0.000000 0.000000 0.010989 0.000000 0.105454
#
#
# Mechanical properties :
#
#
# Convention : Reuss Voigt Hill
#
# Bulk Modulus (GPa) = 38.71105 47.11715 42.91410
# Shear Modulus (GPa) = 15.78530 23.05615 19.42073
#
# Velocity S-wave (km/s) = 2.85832 3.45444 3.17042
# Velocity P-wave (km/s) = 5.56138 6.34801 5.96767
#
# Compressibility (1/GPa) = 0.02583242
#
# Stress axis : x y z
#
# Youngs Moduli (GPa) = 27.93610 27.93610 80.48710
#
# Poissons Ratio (x) = 0.47299 0.48940
# Poissons Ratio (y) = 0.47299 0.48940
# Poissons Ratio (z) = 0.16986 0.16986
#
# Static dielectric constant tensor:
#      x y z
#    x 1.865860 0.000000 0.000000 
#    y 0.000000 1.865860 0.000000 
#    z 0.000000 0.000000 2.035160 
# 
# From -- ./inp_files/2597.got.cif
#   From: 2010.05.17/outbox.cif.g08.bks.cpg/sg153_2_cif.got.tgz:2597.got - 2010.05.20 10:38:56.
