data_PCOD9576458
_publ_section_title
;
Structure prediction by ZEFSAII (Michael W. Deem and Ramdas Pophale) SiO2 
 PCOD9576458
Probable space group: P 32 2 1
;
_chemical_formula_sum "Si O2"
_cell_formula_units_Z 36
_cell_length_a 10.372461
_cell_length_b 10.372461
_cell_length_c 18.734388
_cell_angle_alpha 90.000000
_cell_angle_beta 90.000000
_cell_angle_gamma 120.000000
_cell_volume 1745.555908
_symmetry_space_group_name_H-M "P 32 2 1"
_symmetry_group_IT_number 154
_symmetry_cell_setting 'hexagonal'
loop_
_space_group_symop_operation_xyz
x,y,z
-y,x-y,2/3+z
-x+y,-x,1/3+z
x-y,-y,1/3-z
-x,-x+y,2/3-z
y,x,-z
loop_
_atom_site_type_symbol
_atom_site_label
_atom_site_fract_x
_atom_site_fract_y
_atom_site_fract_z
Si Si1 0.647274 0.206813 0.596434
Si Si2 0.788357 0.500122 0.515990
Si Si3 0.631100 0.496587 0.380019
Si Si4 0.726423 0.097242 0.452944
Si Si5 0.667483 0.518112 0.718688
Si Si6 0.369677 0.004733 0.797606
O O1 0.686046 0.370502 0.570376
O O2 0.741104 0.231554 0.666556
O O3 0.702218 0.137105 0.534313
O O4 0.471556 0.106468 0.595428
O O5 0.690998 0.529424 0.460156
O O6 0.920390 0.646029 0.552274
O O7 0.878891 0.425523 0.478734
O O8 0.511531 0.317309 0.376867
O O9 0.584065 0.607622 0.343360
O O10 0.638234 0.155875 0.404113
O O11 0.900397 0.195509 0.441333
O O12 0.687753 0.608842 0.792945
#
# Coordination Sequence:
#
# PCOD9576458 Si02
#       6
#     6   6   6   6   6   6
#     4   9  16  28  49  72 108 134 180 220 280 326
#     4   9  16  28  49  72 108 134 180 220 280 326
#     4  12  18  33  52  82 107 144 180 230 286 328
#     4   9  15  32  48  70 111 145 174 234 281 320
#     4  10  20  30  51  77 112 140 172 242 278 322
#     4   9  15  32  48  70 111 145 174 234 281 320
#
# _framework density 20.623802999999999
#
# number of rings (size 3 to 8) (size 9 to 14) (size 15 to 20)
#    0.000    2.667   10.000    0.000    0.000    2.667 
#    0.000    0.833    0.000    0.000    0.000    7.000 
#    0.000    0.000    0.000    0.000    0.000    0.000 
#
# Total GULP energy -200431.596722 kJ/mol
# GULP energy per Si atom -5567.544353 kJ/mol
# Density = 2.057686 g / cm^3
# Si number density = 20.623803 Si / 1000 Ang^3
#
#
#
# Elastic Constant Matrix: (Units=GPa)
#
#
# Indices 1 2 3 4 5 6 
#
# 1 85.9270 26.5901 6.2042 1.3228 0.0000 0.0000
# 2 26.5901 85.9270 6.2042 -1.3228 0.0000 0.0000
# 3 6.2042 6.2042 27.2838 0.0000 0.0000 0.0000
# 4 1.3228 -1.3228 0.0000 22.3796 0.0000 0.0000
# 5 0.0000 0.0000 0.0000 0.0000 22.3796 1.3228
# 6 0.0000 0.0000 0.0000 0.0000 1.3228 29.6684
#
#
#
# Elastic Compliance Matrix: (Units=1/GPa)
#
#
# Indices 1 2 3 4 5 6 
#
# 1 0.013007 -0.003891 -0.002073 -0.000999 0.000000 0.000000
# 2 -0.003891 0.013007 -0.002073 0.000999 0.000000 0.000000
# 3 -0.002073 -0.002073 0.037594 0.000000 0.000000 0.000000
# 4 -0.000999 0.000999 0.000000 0.044802 0.000000 0.000000
# 5 0.000000 0.000000 0.000000 0.000000 0.044802 -0.001997
# 6 0.000000 0.000000 0.000000 0.000000 -0.001997 0.033795
#
#
# Mechanical properties :
#
#
# Convention : Reuss Voigt Hill
#
# Bulk Modulus (GPa) = 21.03717 30.79275 25.91496
# Shear Modulus (GPa) = 22.83892 25.56146 24.20019
#
# Velocity S-wave (km/s) = 3.33138 3.52435 3.42922
# Velocity P-wave (km/s) = 5.00200 5.61467 5.31717
#
# Compressibility (1/GPa) = 0.04753492
#
# Stress axis : x y z
#
# Youngs Moduli (GPa) = 76.88285 76.88285 26.59964
#
# Poissons Ratio (x) = 0.29912 0.05514
# Poissons Ratio (y) = 0.29912 0.05514
# Poissons Ratio (z) = 0.15938 0.15938
#
# Static dielectric constant tensor:
#      x y z
#    x 1.798710 0.000000 0.000000 
#    y 0.000000 1.798710 0.000000 
#    z 0.000000 0.000000 1.802820 
# 
# From -- ./inp_files/2776.got.cif
#   From: 2010.05.17/outbox.cif.g08.bks.cpg/sg154_2_cif.got.tgz:2776.got - 2010.05.20 10:41:43.
