data_PCOD9577941
_publ_section_title
;
Structure prediction by ZEFSAII (Michael W. Deem and Ramdas Pophale) SiO2 
 PCOD9577941
Probable space group: P -3 1 M 
;
_chemical_formula_sum "Si O2"
_cell_formula_units_Z 72
_cell_length_a 14.328970
_cell_length_b 14.328970
_cell_length_c 19.361523
_cell_angle_alpha 90.000000
_cell_angle_beta 90.000000
_cell_angle_gamma 120.000000
_cell_volume 3442.707257
_symmetry_space_group_name_H-M "P -3 1 M "
_symmetry_group_IT_number 162
_symmetry_cell_setting 'hexagonal'
loop_
_space_group_symop_operation_xyz
x,y,z
-y,x-y,z
-x+y,-x,z
-y,-x,-z
-x+y,y,-z
x,x-y,-z
-x,-y,-z
y,-x+y,-z
x-y,x,-z
y,x,z
x-y,-y,z
-x,-x+y,z
loop_
_atom_site_type_symbol
_atom_site_label
_atom_site_fract_x
_atom_site_fract_y
_atom_site_fract_z
Si Si1 0.393634 0.877396 0.259464
Si Si2 0.872939 0.746858 0.794712
Si Si3 0.590556 0.777650 0.073461
Si Si4 0.567539 0.735816 0.683630
Si Si5 0.668526 0.121636 0.474595
Si Si6 0.565953 0.442483 0.889502
O O1 0.298555 0.801771 0.310946
O O2 0.501115 0.875500 0.275524
O O3 0.373005 0.835252 0.181395
O O4 0.418300 0.000000 0.262126
O O5 0.821828 0.821828 0.809366
O O6 0.853079 0.670373 0.861218
O O7 0.811715 0.675061 0.727024
O O8 0.000000 0.815599 0.781675
O O9 0.521887 0.649012 0.061855
O O10 0.500765 0.812273 0.088247
O O11 0.647450 0.823725 0.000000
O O12 0.566160 0.693007 0.607176
O O13 0.780670 0.219331 0.500000
O O14 0.569865 0.139730 0.500000
O O15 0.631221 0.000000 0.499126
O O16 0.532966 0.532966 0.876887
#
# Coordination Sequence:
#
# PCOD9577941 Si02
#       6
#    12  12  12  12  12  12
#     4  11  21  37  64  97 129 164 210 264 327 396
#     4  12  26  45  67  93 126 172 234 294 345 391
#     4  12  25  41  64  94 133 176 219 273 340 414
#     4  12  23  41  69  99 134 170 210 268 328 396
#     4  11  25  45  69 103 145 187 229 275 337 411
#     4  11  22  40  62  90 127 167 212 268 334 399
#
# _framework density 20.913772000000002
#
# number of rings (size 3 to 8) (size 9 to 14) (size 15 to 20)
#    0.000    0.500    3.333    5.500    0.000    6.000 
#    0.000    0.000    0.000    1.167    0.000    0.000 
#    0.000    0.000    0.000    0.000    0.000    0.000 
#
# Total GULP energy -402088.162483 kJ/mol
# GULP energy per Si atom -5584.557812 kJ/mol
# Density = 2.086617 g / cm^3
# Si number density = 20.913772 Si / 1000 Ang^3
#
#
#
# Elastic Constant Matrix: (Units=GPa)
#
#
# Indices 1 2 3 4 5 6 
#
# 1 119.1284 67.2141 34.0430 0.0001 3.5886 0.0000
# 2 67.2141 119.1284 34.0430 -0.0001 -3.5886 0.0000
# 3 34.0430 34.0430 91.9146 0.0000 0.0000 0.0000
# 4 0.0001 -0.0001 0.0000 4.6309 0.0000 -3.5886
# 5 3.5886 -3.5886 0.0000 0.0000 4.6309 0.0001
# 6 0.0000 0.0000 0.0000 -3.5886 0.0001 25.9571
#
#
#
# Elastic Compliance Matrix: (Units=1/GPa)
#
#
# Indices 1 2 3 4 5 6 
#
# 1 0.013890 -0.007684 -0.002299 -0.000001 -0.016718 0.000000
# 2 -0.007684 0.013890 -0.002299 0.000001 0.016718 0.000000
# 3 -0.002299 -0.002299 0.012582 0.000000 0.000000 0.000000
# 4 -0.000001 0.000001 0.000000 0.241852 0.000000 0.033437
# 5 -0.016718 0.016718 0.000000 0.000000 0.241852 -0.000001
# 6 0.000000 0.000000 0.000000 0.033437 -0.000001 0.043148
#
#
# Mechanical properties :
#
#
# Convention : Reuss Voigt Hill
#
# Bulk Modulus (GPa) = 63.28957 66.75238 65.02098
# Shear Modulus (GPa) = 8.37460 20.03521 14.20491
#
# Velocity S-wave (km/s) = 2.00326 3.09850 2.60900
# Velocity P-wave (km/s) = 5.97315 6.69239 6.34298
#
# Compressibility (1/GPa) = 0.01580039
#
# Stress axis : x y z
#
# Youngs Moduli (GPa) = 71.99364 71.99364 79.47601
#
# Poissons Ratio (x) = 0.55318 0.18269
# Poissons Ratio (y) = 0.55318 0.18269
# Poissons Ratio (z) = 0.16549 0.16549
#
# Static dielectric constant tensor:
#      x y z
#    x 1.754220 0.000000 0.000000 
#    y 0.000000 1.754220 0.000000 
#    z 0.000000 0.000000 1.979040 
# 
# From -- ./inp_files/3523.got.cif
#   From: 2010.05.17/outbox.cif.g08.bks.cpg/sg162_2_cif.got.tgz:3523.got - 2010.05.20 10:53:12.
