data_PCOD9577045
_publ_section_title
;
Structure prediction by ZEFSAII (Michael W. Deem and Ramdas Pophale) SiO2 
 PCOD9577045
Probable space group: R 3 2
;
_chemical_formula_sum "Si O2"
_cell_formula_units_Z 144
_cell_length_a 28.578348
_cell_length_b 28.578348
_cell_length_c 9.222247
_cell_angle_alpha 90.000000
_cell_angle_beta 90.000000
_cell_angle_gamma 120.000000
_cell_volume 6522.913542
_symmetry_space_group_name_H-M "R 3 2"
_symmetry_group_IT_number 155
_symmetry_cell_setting 'hexagonal'
loop_
_space_group_symop_operation_xyz
x,y,z
-y,x-y,z
-x+y,-x,z
x-y,-y,-z
-x,-x+y,-z
y,x,-z
2/3+x,1/3+y,1/3+z
2/3-y,1/3+x-y,1/3+z
2/3-x+y,1/3-x,1/3+z
2/3+x-y,1/3-y,1/3-z
2/3-x,1/3-x+y,1/3-z
2/3+y,1/3+x,1/3-z
1/3+x,2/3+y,2/3+z
1/3-y,2/3+x-y,2/3+z
1/3-x+y,2/3-x,2/3+z
1/3+x-y,2/3-y,2/3-z
1/3-x,2/3-x+y,2/3-z
1/3+y,2/3+x,2/3-z
loop_
_atom_site_type_symbol
_atom_site_label
_atom_site_fract_x
_atom_site_fract_y
_atom_site_fract_z
Si Si1 0.278467 0.236064 0.250421
Si Si2 0.903302 0.651539 0.506263
Si Si3 0.539383 0.439223 0.214630
Si Si4 0.033104 0.865693 0.363623
Si Si5 0.220407 0.968248 0.129026
Si Si6 0.847667 0.449024 0.519322
Si Si7 0.802539 0.272488 0.885698
Si Si8 0.576677 0.619412 0.278427
O O1 0.333334 0.251910 0.166667
O O2 0.296735 0.242848 0.416808
O O3 0.261104 0.278344 0.192197
O O4 0.231321 0.175118 0.223708
O O5 0.894335 0.666667 0.666667
O O6 0.846724 0.623473 0.418258
O O7 0.588652 0.494866 0.155706
O O8 0.556157 0.414194 0.349540
O O9 0.515895 0.396975 0.083689
O O10 0.083650 0.913664 0.448413
O O11 0.000000 0.829288 0.500000
O O12 0.989288 0.869090 0.256906
O O13 0.248699 0.936846 0.056239
O O14 0.259377 0.012385 0.245946
O O15 0.211549 0.000000 0.000000
O O16 0.851145 0.404574 0.617289
O O17 0.837190 0.333334 0.833334
O O18 0.847708 0.253849 0.889851
O O19 0.612385 0.666667 0.166667
#
# Coordination Sequence:
#
# PCOD9577045 Si02
#       8
#    18  18  18  18  18  18  18  18
#     4  12  24  43  62  92 138 190 234 286 348 401
#     4  12  27  39  62  92 137 188 243 289 336 411
#     4  12  25  42  66 100 137 180 242 290 347 422
#     4  10  23  42  69  97 135 179 221 283 352 422
#     4  12  26  44  67  98 135 185 235 293 360 423
#     4  11  24  42  69  97 138 183 230 292 355 420
#     4  10  23  43  69  99 136 178 229 294 358 429
#     4  11  23  42  67  95 136 180 234 296 353 419
#
# _framework density 22.076025999999999
#
# number of rings (size 3 to 8) (size 9 to 14) (size 15 to 20)
#    0.000    0.750    2.500    5.625    5.250    1.000 
#    0.000    0.000    0.000    6.750    0.000    0.000 
#    0.000    0.000    0.000    0.000    0.000    0.000 
#
# Total GULP energy -267680.389218 kJ/mol
# GULP energy per Si atom -5576.674775 kJ/mol
# Density = 2.202578 g / cm^3
# Si number density = 22.076026 Si / 1000 Ang^3
#
#
#
# Elastic Constant Matrix: (Units=GPa)
#
#
# Indices 1 2 3 4 5 6 
#
# 1 55.6064 25.3767 14.5375 3.1904 -0.0373 -0.0016
# 2 25.3767 55.6346 14.6086 -3.2091 0.0467 0.0060
# 3 14.5375 14.6086 103.4229 -0.0399 -0.0702 0.0307
# 4 3.1904 -3.2091 -0.0399 34.3837 -0.0149 0.0033
# 5 -0.0373 0.0467 -0.0702 -0.0149 34.3322 3.2137
# 6 -0.0016 0.0060 0.0307 0.0033 3.2137 15.2068
#
#
#
# Elastic Compliance Matrix: (Units=1/GPa)
#
#
# Indices 1 2 3 4 5 6 
#
# 1 0.023369 -0.010362 -0.001822 -0.003138 0.000034 0.000004
# 2 -0.010362 0.023366 -0.001843 0.003140 -0.000046 0.000002
# 3 -0.001822 -0.001843 0.010186 0.000009 0.000024 -0.000025
# 4 -0.003138 0.003140 0.000009 0.029668 0.000006 -0.000009
# 5 0.000034 -0.000046 0.000024 0.000006 0.029715 -0.006280
# 6 0.000004 0.000002 -0.000025 -0.000009 -0.006280 0.067087
#
#
# Mechanical properties :
#
#
# Convention : Reuss Voigt Hill
#
# Bulk Modulus (GPa) = 34.64248 35.96770 35.30509
# Shear Modulus (GPa) = 22.61770 27.46063 25.03916
#
# Velocity S-wave (km/s) = 3.20431 3.53074 3.37148
# Velocity P-wave (km/s) = 5.42370 5.74017 5.58418
#
# Compressibility (1/GPa) = 0.02886630
#
# Stress axis : x y z
#
# Youngs Moduli (GPa) = 42.79232 42.79767 98.17864
#
# Poissons Ratio (x) = 0.44346 0.17892
# Poissons Ratio (y) = 0.44340 0.18092
# Poissons Ratio (z) = 0.07798 0.07887
#
# Static dielectric constant tensor:
#      x y z
#    x 1.822980 0.000000 -0.000020 
#    y 0.000000 1.822970 0.000000 
#    z -0.000020 0.000000 1.885790 
# 
# From -- ./inp_files/3061.got.cif
#   From: 2010.05.17/outbox.cif.g08.bks.cpg/sg155_2_cif.got.tgz:3061.got - 2010.05.20 10:44:35.
