data_PCOD9577752
_publ_section_title
;
Structure prediction by ZEFSAII (Michael W. Deem and Ramdas Pophale) SiO2 
 PCOD9577752
Probable space group: P -3 1 M 
;
_chemical_formula_sum "Si O2"
_cell_formula_units_Z 84
_cell_length_a 29.513507
_cell_length_b 29.513507
_cell_length_c 6.075824
_cell_angle_alpha 90.000000
_cell_angle_beta 90.000000
_cell_angle_gamma 120.000000
_cell_volume 4583.291227
_symmetry_space_group_name_H-M "P -3 1 M "
_symmetry_group_IT_number 162
_symmetry_cell_setting 'hexagonal'
loop_
_space_group_symop_operation_xyz
x,y,z
-y,x-y,z
-x+y,-x,z
-y,-x,-z
-x+y,y,-z
x,x-y,-z
-x,-y,-z
y,-x+y,-z
x-y,x,-z
y,x,z
x-y,-y,z
-x,-x+y,z
loop_
_atom_site_type_symbol
_atom_site_label
_atom_site_fract_x
_atom_site_fract_y
_atom_site_fract_z
Si Si1 0.699533 0.852467 0.757765
Si Si2 0.383841 0.860978 0.124824
Si Si3 0.268148 0.944326 0.287502
Si Si4 0.600124 0.399877 0.500000
Si Si5 0.238137 0.547372 0.836242
Si Si6 0.879238 0.613471 0.344821
Si Si7 0.353920 0.413371 0.015364
Si Si8 0.463513 0.231757 0.500000
O O1 0.721673 0.860837 0.500000
O O2 0.681076 0.894641 0.765255
O O3 0.651240 0.792171 0.759273
O O4 0.727990 0.863995 0.000000
O O5 0.384647 0.836456 0.359214
O O6 0.378708 0.912128 0.123061
O O7 0.436847 0.873694 0.000000
O O8 0.338243 0.814085 0.983240
O O9 0.278959 0.932465 0.531915
O O10 0.311764 0.945148 0.133382
O O11 0.271718 0.000000 0.270435
O O12 0.586113 0.352228 0.336074
O O13 0.241462 0.501317 0.706584
O O14 0.286844 0.573688 0.000000
O O15 0.831184 0.574267 0.502218
O O16 0.898194 0.581462 0.196497
O O17 0.395375 0.395375 0.089191
#
# Coordination Sequence:
#
# PCOD9577752 Si02
#       8
#    12  12  12   6  12  12  12   6
#     4  10  19  34  53  77 113 155 201 237 297 357
#     4  10  23  41  63  85 115 151 185 230 273 350
#     4  10  21  33  50  81 119 157 191 242 298 345
#     4  10  24  46  63  89 124 142 181 226 294 348
#     4  11  24  40  68  96 114 146 179 228 285 348
#     4  11  21  35  57  85 121 152 191 245 290 352
#     4  11  23  38  59  86 119 153 192 241 292 341
#     4  12  22  34  64  97 112 148 189 236 280 348
#
# _framework density 18.327442000000001
#
# number of rings (size 3 to 8) (size 9 to 14) (size 15 to 20)
#    0.000    1.429    5.000    1.286    4.000    0.857 
#    0.000    0.357    0.000   46.571    0.000    0.000 
#    0.000    0.000    0.000    0.000    0.000    0.000 
#
# Total GULP energy -467753.070285 kJ/mol
# GULP energy per Si atom -5568.488932 kJ/mol
# Density = 1.828573 g / cm^3
# Si number density = 18.327442 Si / 1000 Ang^3
#
#
#
# Elastic Constant Matrix: (Units=GPa)
#
#
# Indices 1 2 3 4 5 6 
#
# 1 63.1143 23.2194 26.3428 -0.0001 5.2705 0.0000
# 2 23.2194 63.1143 26.3428 0.0001 -5.2705 0.0000
# 3 26.3428 26.3428 88.6413 0.0000 0.0000 0.0000
# 4 -0.0001 0.0001 0.0000 18.8238 0.0000 -5.2705
# 5 5.2705 -5.2705 0.0000 0.0000 18.8238 -0.0001
# 6 0.0000 0.0000 0.0000 -5.2705 -0.0001 19.9475
#
#
#
# Elastic Compliance Matrix: (Units=1/GPa)
#
#
# Indices 1 2 3 4 5 6 
#
# 1 0.020609 -0.006460 -0.004205 0.000000 -0.007579 0.000000
# 2 -0.006460 0.020609 -0.004205 0.000000 0.007579 0.000000
# 3 -0.004205 -0.004205 0.013781 0.000000 0.000000 0.000000
# 4 0.000000 0.000000 0.000000 0.057368 0.000000 0.015158
# 5 -0.007579 0.007579 0.000000 0.000000 0.057368 0.000000
# 6 0.000000 0.000000 0.000000 0.015158 0.000000 0.054137
#
#
# Mechanical properties :
#
#
# Convention : Reuss Voigt Hill
#
# Bulk Modulus (GPa) = 39.58953 40.74222 40.16587
# Shear Modulus (GPa) = 19.08180 20.78333 19.93256
#
# Velocity S-wave (km/s) = 3.23020 3.37115 3.30143
# Velocity P-wave (km/s) = 5.96325 6.11811 6.04118
#
# Compressibility (1/GPa) = 0.02525921
#
# Stress axis : x y z
#
# Youngs Moduli (GPa) = 48.52331 48.52331 72.56543
#
# Poissons Ratio (x) = 0.31344 0.30513
# Poissons Ratio (y) = 0.31344 0.30513
# Poissons Ratio (z) = 0.20403 0.20403
#
# Static dielectric constant tensor:
#      x y z
#    x 1.626880 0.000000 0.000000 
#    y 0.000000 1.626880 0.000000 
#    z 0.000000 0.000000 1.746420 
# 
# From -- ./inp_files/810.got.cif
#   From: 2010.05.17/outbox.cif.g08.bks.cpg/sg162_1_cif.got.tgz:810.got - 2010.05.20 10:53:12.
