data_PCOD9577986
_publ_section_title
;
Structure prediction by ZEFSAII (Michael W. Deem and Ramdas Pophale) SiO2 
 PCOD9577986
Probable space group: P -3 1 C
;
_chemical_formula_sum "Si O2"
_cell_formula_units_Z 60
_cell_length_a 21.912984
_cell_length_b 21.912984
_cell_length_c 7.595163
_cell_angle_alpha 90.000000
_cell_angle_beta 90.000000
_cell_angle_gamma 120.000000
_cell_volume 3158.426491
_symmetry_space_group_name_H-M "P -3 1 C"
_symmetry_group_IT_number 163
_symmetry_cell_setting 'hexagonal'
loop_
_space_group_symop_operation_xyz
x,y,z
-y,x-y,z
-x+y,-x,z
-y,-x,1/2-z
-x+y,y,1/2-z
x,x-y,1/2-z
-x,-y,-z
y,-x+y,-z
x-y,x,-z
y,x,1/2+z
x-y,-y,1/2+z
-x,-x+y,1/2+z
loop_
_atom_site_type_symbol
_atom_site_label
_atom_site_fract_x
_atom_site_fract_y
_atom_site_fract_z
Si Si1 0.544154 0.703001 0.465144
Si Si2 0.919286 0.214154 0.960538
Si Si3 0.158848 0.703001 0.465144
Si Si4 0.919286 0.705132 0.960539
Si Si5 0.458143 0.916285 0.461749
O O1 0.625173 0.734388 0.522955
O O2 0.522340 0.761170 0.517481
O O3 0.542923 0.701834 0.250000
O O4 0.498267 0.622697 0.526051
O O5 0.863930 0.136070 0.026088
O O6 0.913524 0.213304 0.750000
O O7 0.000000 0.243532 0.999999
O O8 0.109216 0.734389 0.522956
O O9 0.124430 0.622697 0.526052
O O10 0.455373 0.910745 0.250000
O O11 0.500000 0.000000 0.500000
#
# Coordination Sequence:
#
# PCOD9577986 Si02
#       5
#    12  12  12  12  12
#     4   8  15  28  43  63  91 118 146 183 225 261
#     4   9  17  29  45  64  88 115 141 175 217 257
#     4   8  15  28  43  63  91 118 146 183 225 261
#     4   9  17  29  45  64  88 115 141 175 217 257
#     4  10  18  28  46  68  90 118 152 190 228 268
#
# _framework density 18.9968
#
# number of rings (size 3 to 8) (size 9 to 14) (size 15 to 20)
#    0.000    3.200    0.000    3.600    0.000    0.800 
#    1.200    0.000    0.000    4.000    0.000    0.000 
#    0.000    0.000    0.000    0.000    0.000    0.000 
#
# Total GULP energy -334376.526867 kJ/mol
# GULP energy per Si atom -5572.942114 kJ/mol
# Density = 1.895356 g / cm^3
# Si number density = 18.996800 Si / 1000 Ang^3
#
#
#
# Elastic Constant Matrix: (Units=GPa)
#
#
# Indices 1 2 3 4 5 6 
#
# 1 189.6854 139.3536 6.1763 0.0000 0.0000 0.0000
# 2 139.3536 189.6854 6.1763 0.0000 0.0000 0.0000
# 3 6.1763 6.1763 37.2648 0.0000 0.0000 0.0000
# 4 0.0000 0.0000 0.0000 5.1495 0.0000 0.0000
# 5 0.0000 0.0000 0.0000 0.0000 5.1495 0.0000
# 6 0.0000 0.0000 0.0000 0.0000 0.0000 25.1659
#
#
#
# Elastic Compliance Matrix: (Units=1/GPa)
#
#
# Indices 1 2 3 4 5 6 
#
# 1 0.011463 -0.008405 -0.000507 0.000000 0.000000 0.000000
# 2 -0.008405 0.011463 -0.000507 0.000000 0.000000 0.000000
# 3 -0.000507 -0.000507 0.027003 0.000000 0.000000 0.000000
# 4 0.000000 0.000000 0.000000 0.194193 0.000000 0.000000
# 5 0.000000 0.000000 0.000000 0.000000 0.194193 0.000000
# 6 0.000000 0.000000 0.000000 0.000000 0.000000 0.039736
#
#
# Mechanical properties :
#
#
# Convention : Reuss Voigt Hill
#
# Bulk Modulus (GPa) = 32.16275 80.00532 56.08403
# Shear Modulus (GPa) = 9.85701 24.75496 17.30598
#
# Velocity S-wave (km/s) = 2.28036 3.61378 3.02154
# Velocity P-wave (km/s) = 4.88884 7.72134 6.46219
#
# Compressibility (1/GPa) = 0.03109187
#
# Stress axis : x y z
#
# Youngs Moduli (GPa) = 87.23595 87.23595 37.03298
#
# Poissons Ratio (x) = 0.73322 0.01877
# Poissons Ratio (y) = 0.73322 0.01877
# Poissons Ratio (z) = 0.04422 0.04422
#
# Static dielectric constant tensor:
#      x y z
#    x 1.665850 0.000000 0.000000 
#    y 0.000000 1.665850 0.000000 
#    z 0.000000 0.000000 1.739540 
# 
# From -- ./inp_files/1754.got.cif
#   From: 2010.05.17/outbox.cif.g08.bks.cpg/sg163_1_cif.got.tgz:1754.got - 2010.05.20 10:56:03.
