data_PCOD9577206
_publ_section_title
;
Structure prediction by ZEFSAII (Michael W. Deem and Ramdas Pophale) SiO2 
 PCOD9577206
Probable space group: P 3 M 1
;
_chemical_formula_sum "Si O2"
_cell_formula_units_Z 48
_cell_length_a 12.918984
_cell_length_b 12.918984
_cell_length_c 21.241731
_cell_angle_alpha 90.000000
_cell_angle_beta 90.000000
_cell_angle_gamma 120.000000
_cell_volume 3070.274865
_symmetry_space_group_name_H-M "P 3 M 1"
_symmetry_group_IT_number 156
_symmetry_cell_setting 'hexagonal'
loop_
_space_group_symop_operation_xyz
x,y,z
-y,x-y,z
-x+y,-x,z
-x+y,y,z
x,x-y,z
-y,-x,z
loop_
_atom_site_type_symbol
_atom_site_label
_atom_site_fract_x
_atom_site_fract_y
_atom_site_fract_z
Si Si1 0.914410 0.580992 0.402920
Si Si2 0.754315 0.754326 0.638427
Si Si3 0.914561 0.581344 0.126883
Si Si4 0.088281 0.421704 0.751448
Si Si5 0.332994 0.420086 0.520180
Si Si6 0.577730 0.911192 0.896802
Si Si7 0.420192 0.087083 0.264801
Si Si8 0.246542 0.000048 0.010550
O O1 0.791751 0.583502 0.411752
O O2 0.887906 0.443953 0.403779
O O3 0.966683 0.632911 0.333164
O O4 0.007906 0.648659 0.458222
O O5 0.782709 0.891355 0.639489
O O6 0.681501 0.692699 0.702002
O O7 0.665877 0.691548 0.579765
O O8 0.874120 0.748239 0.633026
O O9 0.778448 0.556896 0.124367
O O10 0.915241 0.457621 0.120235
O O11 0.964578 0.635917 0.196573
O O12 0.984791 0.671209 0.070661
O O13 0.224636 0.449271 0.744195
O O14 0.082857 0.541429 0.739314
O O15 0.053066 0.385193 0.824159
O O16 0.218719 0.437438 0.513521
O O17 0.453086 0.546915 0.529397
O O18 0.458805 0.917610 0.908610
O O19 0.549490 0.774745 0.902845
O O20 0.678871 0.986884 0.947467
O O21 0.548303 0.096605 0.262471
O O22 0.437576 0.218788 0.266988
O O23 0.118561 0.881440 0.016492
O O24 0.233167 0.116584 0.007397
#
# Coordination Sequence:
#
# PCOD9577206 Si02
#       8
#     6   6   6   6   6   6   6   6
#     4   9  16  27  45  69  95 120 146 179 222 272
#     4  10  20  33  49  69  93 121 152 186 223 261
#     4   9  16  27  45  68  91 114 144 186 233 275
#     4   9  17  30  50  74  97 120 147 181 220 262
#     4  10  20  33  49  68  90 118 152 189 226 264
#     4   9  17  30  49  72  94 116 145 184 228 267
#     4   8  13  22  39  64  91 116 143 178 222 269
#     4  10  20  32  45  62  87 121 157 189 222 264
#
# _framework density 15.633781000000001
#
# number of rings (size 3 to 8) (size 9 to 14) (size 15 to 20)
#    0.000    2.750    0.000    2.125    0.000    3.500 
#    0.000    1.875    0.000    5.000    0.000    0.000 
#    0.000    0.000    0.000    0.000    0.000    0.000 
#
# Total GULP energy -267277.991222 kJ/mol
# GULP energy per Si atom -5568.291484 kJ/mol
# Density = 1.559820 g / cm^3
# Si number density = 15.633781 Si / 1000 Ang^3
#
#
#
# Elastic Constant Matrix: (Units=GPa)
#
#
# Indices 1 2 3 4 5 6 
#
# 1 82.1012 46.7375 73.4074 -0.7647 -0.0003 0.0000
# 2 46.7375 82.1012 73.4074 0.7647 0.0003 0.0000
# 3 73.4074 73.4074 144.4365 0.0000 0.0000 0.0000
# 4 -0.7647 0.7647 0.0000 22.8492 0.0000 0.0003
# 5 -0.0003 0.0003 0.0000 0.0000 22.8492 -0.7647
# 6 0.0000 0.0000 0.0000 0.0003 -0.7647 17.6819
#
#
#
# Elastic Compliance Matrix: (Units=1/GPa)
#
#
# Indices 1 2 3 4 5 6 
#
# 1 0.023381 -0.004938 -0.009373 0.000948 0.000000 0.000000
# 2 -0.004938 0.023381 -0.009373 -0.000948 0.000000 0.000000
# 3 -0.009373 -0.009373 0.016451 0.000000 0.000000 0.000000
# 4 0.000948 -0.000948 0.000000 0.043829 0.000000 -0.000001
# 5 0.000000 0.000000 0.000000 0.000000 0.043829 0.001895
# 6 0.000000 0.000000 0.000000 -0.000001 0.001895 0.056637
#
#
# Mechanical properties :
#
#
# Convention : Reuss Voigt Hill
#
# Bulk Modulus (GPa) = 63.11722 77.30484 70.21103
# Shear Modulus (GPa) = 19.21926 20.34851 19.78388
#
# Velocity S-wave (km/s) = 3.51000 3.61165 3.56119
# Velocity P-wave (km/s) = 7.54233 8.18209 7.86872
#
# Compressibility (1/GPa) = 0.01584354
#
# Stress axis : x y z
#
# Youngs Moduli (GPa) = 42.77065 42.77065 60.78690
#
# Poissons Ratio (x) = 0.21120 0.56976
# Poissons Ratio (y) = 0.21120 0.56976
# Poissons Ratio (z) = 0.40089 0.40089
#
# Static dielectric constant tensor:
#      x y z
#    x 1.488450 0.000000 0.000000 
#    y 0.000000 1.488450 0.000000 
#    z 0.000000 0.000000 1.554740 
# 
# From -- ./inp_files/1119.got.cif
#   From: 2010.05.17/outbox.cif.g08.bks.cpg/sg156_cif.got.tgz:1119.got - 2010.05.20 10:49:08.
