data_PCOD9577213
_publ_section_title
;
Structure prediction by ZEFSAII (Michael W. Deem and Ramdas Pophale) SiO2 
 PCOD9577213
Probable space group: P 3 M 1
;
_chemical_formula_sum "Si O2"
_cell_formula_units_Z 48
_cell_length_a 12.893382
_cell_length_b 12.893382
_cell_length_c 21.317820
_cell_angle_alpha 90.000000
_cell_angle_beta 90.000000
_cell_angle_gamma 120.000000
_cell_volume 3069.072321
_symmetry_space_group_name_H-M "P 3 M 1"
_symmetry_group_IT_number 156
_symmetry_cell_setting 'hexagonal'
loop_
_space_group_symop_operation_xyz
x,y,z
-y,x-y,z
-x+y,-x,z
-x+y,y,z
x,x-y,z
-y,-x,z
loop_
_atom_site_type_symbol
_atom_site_label
_atom_site_fract_x
_atom_site_fract_y
_atom_site_fract_z
Si Si1 0.246653 0.246120 0.696790
Si Si2 0.751771 0.000133 0.051507
Si Si3 0.579722 0.913433 0.438916
Si Si4 0.913446 0.580085 0.815407
Si Si5 0.579366 0.912408 0.581255
Si Si6 0.579910 0.913834 0.934361
Si Si7 0.248920 0.247866 0.326133
Si Si8 0.247264 0.000189 0.189297
O O1 0.121466 0.242932 0.707113
O O2 0.336019 0.308592 0.754946
O O3 0.305435 0.322129 0.633875
O O4 0.226039 0.113020 0.690830
O O5 0.776814 0.888407 0.050744
O O6 0.700875 0.002192 0.121046
O O7 0.658365 0.974827 0.996360
O O8 0.875494 0.124507 0.042395
O O9 0.454274 0.908547 0.432168
O O10 0.561021 0.780511 0.432806
O O11 0.623742 0.954490 0.510138
O O12 0.669674 0.991167 0.384227
O O13 0.784400 0.568799 0.825477
O O14 0.900533 0.450267 0.805879
O O15 0.998938 0.639949 0.875261
O O16 0.459557 0.919113 0.591486
O O17 0.548995 0.774498 0.584922
O O18 0.447262 0.894524 0.941098
O O19 0.575393 0.787697 0.925013
O O20 0.117108 0.234216 0.328381
O O21 0.303802 0.300760 0.257075
O O22 0.238022 0.119011 0.331249
O O23 0.119690 0.880311 0.190065
O O24 0.228328 0.114164 0.188930
#
# Coordination Sequence:
#
# PCOD9577213 Si02
#       8
#     6   6   6   6   6   6   6   6
#     4  10  20  33  49  70  97 126 151 176 213 265
#     4   9  16  27  45  68  91 114 143 182 227 271
#     4   9  17  29  45  64  87 116 150 187 224 262
#     4  10  20  34  52  72  93 118 151 192 232 265
#     4   9  17  30  48  68  88 113 148 189 228 262
#     4  10  20  33  48  66  91 123 155 185 219 264
#     4   9  16  26  42  65  91 117 145 180 224 271
#     4   8  13  22  38  61  88 115 143 177 219 266
#
# _framework density 15.639904
#
# number of rings (size 3 to 8) (size 9 to 14) (size 15 to 20)
#    0.000    2.750    0.000    2.125    0.000    3.500 
#    0.000    0.625    0.000   10.250    0.000    1.750 
#    0.000    0.000    0.000    0.000    0.000    0.000 
#
# Total GULP energy -267234.566561 kJ/mol
# GULP energy per Si atom -5567.386803 kJ/mol
# Density = 1.560431 g / cm^3
# Si number density = 15.639904 Si / 1000 Ang^3
#
#
#
# Elastic Constant Matrix: (Units=GPa)
#
#
# Indices 1 2 3 4 5 6 
#
# 1 17.8479 101.9920 75.4356 16.1805 0.0019 0.0000
# 2 101.9920 17.8479 75.4356 -16.1805 -0.0019 0.0000
# 3 75.4356 75.4356 160.4403 0.0000 0.0000 0.0000
# 4 16.1805 -16.1805 0.0000 18.7377 0.0000 -0.0019
# 5 0.0019 -0.0019 0.0000 0.0000 18.7377 16.1805
# 6 0.0000 0.0000 0.0000 -0.0019 16.1805 -42.0720
#
#
#
# Elastic Compliance Matrix: (Units=1/GPa)
#
#
# Indices 1 2 3 4 5 6 
#
# 1 0.005763 0.014685 -0.009614 0.007704 0.000001 0.000000
# 2 0.014685 0.005763 -0.009614 -0.007704 -0.000001 0.000000
# 3 -0.009614 -0.009614 0.015274 0.000000 0.000000 0.000000
# 4 0.007704 -0.007704 0.000000 0.040063 0.000000 -0.000002
# 5 0.000001 -0.000001 0.000000 0.000000 0.040063 0.015408
# 6 0.000000 0.000000 0.000000 -0.000002 0.015408 -0.017843
#
#
# Mechanical properties :
#
#
# Convention : Reuss Voigt Hill
#
# Bulk Modulus (GPa) = 56.45559 77.98473 67.22016
# Shear Modulus (GPa) = 48.04175 -4.70112 21.67032
#
# Velocity S-wave (km/s) = 5.54834 -1.73562 3.72637
# Velocity P-wave (km/s) = 8.78755 6.77897 7.84778
#
# Compressibility (1/GPa) = 0.01771304
#
# Stress axis : x y z
#
# Youngs Moduli (GPa) = 173.50705 173.50705 65.47146
#
# Poissons Ratio (x) = -2.54795 0.62947
# Poissons Ratio (y) = -2.54795 0.62947
# Poissons Ratio (z) = 1.66817 1.66817
#
# Static dielectric constant tensor:
#      x y z
#    x 1.492880 0.000000 0.000000 
#    y 0.000000 1.492880 0.000000 
#    z 0.000000 0.000000 1.553610 
# 
# From -- ./inp_files/1100.got.cif
#   From: 2010.05.17/outbox.cif.g08.bks.cpg/sg156_cif.got.tgz:1100.got - 2010.05.20 10:49:08.
