data_PCOD9577896
_publ_section_title
;
Structure prediction by ZEFSAII (Michael W. Deem and Ramdas Pophale) SiO2 
 PCOD9577896
Probable space group: P -3 1 M 
;
_chemical_formula_sum "Si O2"
_cell_formula_units_Z 84
_cell_length_a 22.092158
_cell_length_b 22.092158
_cell_length_c 12.222421
_cell_angle_alpha 90.000000
_cell_angle_beta 90.000000
_cell_angle_gamma 120.000000
_cell_volume 5166.115978
_symmetry_space_group_name_H-M "P -3 1 M "
_symmetry_group_IT_number 162
_symmetry_cell_setting 'hexagonal'
loop_
_space_group_symop_operation_xyz
x,y,z
-y,x-y,z
-x+y,-x,z
-y,-x,-z
-x+y,y,-z
x,x-y,-z
-x,-y,-z
y,-x+y,-z
x-y,x,-z
y,x,z
x-y,-y,z
-x,-x+y,z
loop_
_atom_site_type_symbol
_atom_site_label
_atom_site_fract_x
_atom_site_fract_y
_atom_site_fract_z
Si Si1 0.915550 0.317405 0.781508
Si Si2 0.084450 0.401857 0.218492
Si Si3 0.333392 0.524481 0.368226
Si Si4 0.666607 0.191089 0.631774
Si Si5 0.524847 0.915802 0.000002
Si Si6 0.157355 0.078678 0.132141
Si Si7 0.321664 0.160833 0.866972
O O1 0.873237 0.328976 0.684732
O O2 0.898257 0.347326 0.890097
O O3 0.883333 0.236125 0.810296
O O4 0.000000 0.357873 0.766084
O O5 0.126763 0.455740 0.315267
O O6 0.116669 0.352795 0.189704
O O7 0.000000 0.357873 0.233919
O O8 0.101739 0.449069 0.109903
O O9 0.264374 0.528749 0.336553
O O10 0.404825 0.595174 0.336096
O O11 0.333463 0.519953 0.500000
O O12 0.562977 0.000000 0.000007
O O13 0.442788 0.885576 0.000000
O O14 0.120025 0.120025 0.174422
O O15 0.239136 0.119565 0.151642
O O16 0.120020 0.000000 0.174423
O O17 0.149677 0.074839 0.000000
O O18 0.334311 0.167156 0.000000
#
# Coordination Sequence:
#
# PCOD9577896 Si02
#       7
#    12  12  12  12  12  12  12
#     4  11  21  34  54  79 107 141 180 220 265 319
#     4  11  21  34  54  79 107 141 180 220 265 319
#     4  10  21  38  59  81 106 138 177 220 267 318
#     4  10  21  38  59  81 106 138 177 220 267 318
#     4   9  18  31  48  74 105 136 170 211 258 308
#     4   9  17  28  45  69 101 141 184 227 268 313
#     4  11  20  33  51  76 109 147 185 220 265 321
#
# _framework density 16.259799000000001
#
# number of rings (size 3 to 8) (size 9 to 14) (size 15 to 20)
#    0.000    1.857    2.857    2.143    0.000    5.143 
#    0.000    1.429    0.000    0.000    0.000    0.000 
#    0.000    0.000    0.000    0.000    0.000   10.143 
#
# Total GULP energy -468190.022808 kJ/mol
# GULP energy per Si atom -5573.690748 kJ/mol
# Density = 1.622279 g / cm^3
# Si number density = 16.259799 Si / 1000 Ang^3
#
#
#
# Elastic Constant Matrix: (Units=GPa)
#
#
# Indices 1 2 3 4 5 6 
#
# 1 146.9650 83.4472 36.2233 0.0000 -0.0001 0.0000
# 2 83.4472 146.9650 36.2233 0.0000 0.0001 0.0000
# 3 36.2233 36.2233 36.8160 0.0000 0.0000 0.0000
# 4 0.0000 0.0000 0.0000 23.2368 0.0000 0.0001
# 5 -0.0001 0.0001 0.0000 0.0000 23.2368 0.0000
# 6 0.0000 0.0000 0.0000 0.0001 0.0000 31.7589
#
#
#
# Elastic Compliance Matrix: (Units=1/GPa)
#
#
# Indices 1 2 3 4 5 6 
#
# 1 0.011014 -0.004730 -0.006183 0.000000 0.000000 0.000000
# 2 -0.004730 0.011014 -0.006183 0.000000 0.000000 0.000000
# 3 -0.006183 -0.006183 0.039329 0.000000 0.000000 0.000000
# 4 0.000000 0.000000 0.000000 0.043035 0.000000 0.000000
# 5 0.000000 0.000000 0.000000 0.000000 0.043035 0.000000
# 6 0.000000 0.000000 0.000000 0.000000 0.000000 0.031487
#
#
# Mechanical properties :
#
#
# Convention : Reuss Voigt Hill
#
# Bulk Modulus (GPa) = 36.81159 71.39264 54.10211
# Shear Modulus (GPa) = 22.50624 27.30331 24.90477
#
# Velocity S-wave (km/s) = 3.72447 4.10224 3.91791
# Velocity P-wave (km/s) = 6.41751 8.15111 7.33570
#
# Compressibility (1/GPa) = 0.02716536
#
# Stress axis : x y z
#
# Youngs Moduli (GPa) = 90.79467 90.79467 25.42659
#
# Poissons Ratio (x) = 0.42944 0.15721
# Poissons Ratio (y) = 0.42944 0.15721
# Poissons Ratio (z) = 0.56138 0.56138
#
# Static dielectric constant tensor:
#      x y z
#    x 1.547130 0.000000 0.000000 
#    y 0.000000 1.547130 0.000000 
#    z 0.000000 0.000000 1.538560 
# 
# From -- ./inp_files/2502.got.cif
#   From: 2010.05.17/outbox.cif.g08.bks.cpg/sg162_2_cif.got.tgz:2502.got - 2010.05.20 10:53:12.
