data_PCOD9577893
_publ_section_title
;
Structure prediction by ZEFSAII (Michael W. Deem and Ramdas Pophale) SiO2 
 PCOD9577893
Probable space group: P -3 1 M 
;
_chemical_formula_sum "Si O2"
_cell_formula_units_Z 84
_cell_length_a 18.531686
_cell_length_b 18.531686
_cell_length_c 14.249949
_cell_angle_alpha 90.000000
_cell_angle_beta 90.000000
_cell_angle_gamma 120.000000
_cell_volume 4238.125447
_symmetry_space_group_name_H-M "P -3 1 M "
_symmetry_group_IT_number 162
_symmetry_cell_setting 'hexagonal'
loop_
_space_group_symop_operation_xyz
x,y,z
-y,x-y,z
-x+y,-x,z
-y,-x,-z
-x+y,y,-z
x,x-y,-z
-x,-y,-z
y,-x+y,-z
x-y,x,-z
y,x,z
x-y,-y,z
-x,-x+y,z
loop_
_atom_site_type_symbol
_atom_site_label
_atom_site_fract_x
_atom_site_fract_y
_atom_site_fract_z
Si Si1 0.176995 0.511123 0.540315
Si Si2 0.203491 0.826049 0.890417
Si Si3 0.504953 0.903867 0.082224
Si Si4 0.668900 0.902894 0.549875
Si Si5 0.699596 0.099396 0.739262
Si Si6 0.903871 0.462859 0.295281
Si Si7 0.906154 0.094625 0.885706
O O1 0.268937 0.537873 0.500000
O O2 0.149914 0.574957 0.500000
O O3 0.122723 0.416794 0.505576
O O4 0.159973 0.516369 0.651037
O O5 0.301769 0.861802 0.892763
O O6 0.153895 0.741527 0.830773
O O7 0.163721 0.881947 0.855940
O O8 0.184255 0.815746 0.000000
O O9 0.465857 0.902438 0.182732
O O10 0.568543 0.000000 0.054903
O O11 0.434896 0.869792 0.000000
O O12 0.707192 0.853596 0.500000
O O13 0.646399 0.878538 0.658477
O O14 0.726522 0.000000 0.546256
O O15 0.630991 0.115646 0.689545
O O16 0.652775 0.000000 0.760300
O O17 0.000000 0.526429 0.325251
O O18 0.000000 0.123521 0.855266
O O19 0.840447 0.000000 0.855546
O O20 0.906519 0.093482 0.000000
#
# Coordination Sequence:
#
# PCOD9577893 Si02
#       7
#    12  12  12  12  12  12  12
#     4  11  22  36  57  89 127 162 202 251 319 389
#     4  11  22  35  57  84 116 155 208 261 313 368
#     4  10  22  39  58  83 116 158 212 264 309 369
#     4  10  22  39  63  92 125 163 206 261 319 385
#     4  10  21  39  62  88 120 162 207 259 318 385
#     4  10  21  37  60  84 114 159 208 256 319 385
#     4   9  17  30  50  79 114 152 191 242 310 379
#
# _framework density 19.820084000000001
#
# number of rings (size 3 to 8) (size 9 to 14) (size 15 to 20)
#    0.000    1.857    1.429    2.429    4.000    4.000 
#    0.000    0.714    0.000    5.286    0.000    0.000 
#    0.000    0.000    0.000    0.000    0.000    0.000 
#
# Total GULP energy -468144.583521 kJ/mol
# GULP energy per Si atom -5573.149804 kJ/mol
# Density = 1.977497 g / cm^3
# Si number density = 19.820084 Si / 1000 Ang^3
#
#
#
# Elastic Constant Matrix: (Units=GPa)
#
#
# Indices 1 2 3 4 5 6 
#
# 1 79.5317 26.1943 30.3990 -0.0001 -4.8197 0.0000
# 2 26.1943 79.5317 30.3990 0.0001 4.8197 0.0000
# 3 30.3990 30.3990 90.0441 0.0000 0.0000 0.0000
# 4 -0.0001 0.0001 0.0000 28.5526 0.0000 4.8197
# 5 -4.8197 4.8197 0.0000 0.0000 28.5526 -0.0001
# 6 0.0000 0.0000 0.0000 4.8197 -0.0001 26.6687
#
#
#
# Elastic Compliance Matrix: (Units=1/GPa)
#
#
# Indices 1 2 3 4 5 6 
#
# 1 0.015538 -0.003801 -0.003962 0.000000 0.003264 0.000000
# 2 -0.003801 0.015538 -0.003962 0.000000 -0.003264 0.000000
# 3 -0.003962 -0.003962 0.013781 0.000000 0.000000 0.000000
# 4 0.000000 0.000000 0.000000 0.036125 0.000000 -0.006529
# 5 0.003264 -0.003264 0.000000 0.000000 0.036125 0.000000
# 6 0.000000 0.000000 0.000000 -0.006529 0.000000 0.038677
#
#
# Mechanical properties :
#
#
# Convention : Reuss Voigt Hill
#
# Bulk Modulus (GPa) = 46.71713 47.01022 46.86368
# Shear Modulus (GPa) = 26.82834 27.56250 27.19542
#
# Velocity S-wave (km/s) = 3.68311 3.73317 3.70822
# Velocity P-wave (km/s) = 6.45824 6.50784 6.48309
#
# Compressibility (1/GPa) = 0.02140542
#
# Stress axis : x y z
#
# Youngs Moduli (GPa) = 64.35938 64.35938 72.56316
#
# Poissons Ratio (x) = 0.24461 0.28753
# Poissons Ratio (y) = 0.24461 0.28753
# Poissons Ratio (z) = 0.25502 0.25502
#
# Static dielectric constant tensor:
#      x y z
#    x 1.720040 0.000000 0.000000 
#    y 0.000000 1.720040 0.000000 
#    z 0.000000 0.000000 1.918880 
# 
# From -- ./inp_files/3178.got.cif
#   From: 2010.05.17/outbox.cif.g08.bks.cpg/sg162_2_cif.got.tgz:3178.got - 2010.05.20 10:53:12.
