data_PCOD9577930
_publ_section_title
;
Structure prediction by ZEFSAII (Michael W. Deem and Ramdas Pophale) SiO2 
 PCOD9577930
Probable space group: P -3 1 M 
;
_chemical_formula_sum "Si O2"
_cell_formula_units_Z 84
_cell_length_a 21.526505
_cell_length_b 21.526505
_cell_length_c 13.276409
_cell_angle_alpha 90.000000
_cell_angle_beta 90.000000
_cell_angle_gamma 120.000000
_cell_volume 5327.927463
_symmetry_space_group_name_H-M "P -3 1 M "
_symmetry_group_IT_number 162
_symmetry_cell_setting 'hexagonal'
loop_
_space_group_symop_operation_xyz
x,y,z
-y,x-y,z
-x+y,-x,z
-y,-x,-z
-x+y,y,-z
x,x-y,-z
-x,-y,-z
y,-x+y,-z
x-y,x,-z
y,x,z
x-y,-y,z
-x,-x+y,z
loop_
_atom_site_type_symbol
_atom_site_label
_atom_site_fract_x
_atom_site_fract_y
_atom_site_fract_z
Si Si1 0.674537 0.838413 0.878565
Si Si2 0.673119 0.087249 0.175242
Si Si3 0.615791 0.086852 0.389452
Si Si4 0.087162 0.416410 0.175289
Si Si5 0.081001 0.162164 0.877280
Si Si6 0.615030 0.086839 0.609799
Si Si7 0.664463 0.480611 0.999909
O O1 0.639986 0.757152 0.841444
O O2 0.637123 0.882625 0.843152
O O3 0.756383 0.881855 0.845841
O O4 0.670532 0.835266 0.000000
O O5 0.661507 0.106098 0.288544
O O6 0.625351 0.000000 0.160307
O O7 0.655224 0.132782 0.095426
O O8 0.651131 0.111338 0.499864
O O9 0.554996 0.109280 0.380734
O O10 0.572607 0.000000 0.391387
O O11 0.105957 0.445592 0.289065
O O12 0.132713 0.479977 0.096025
O O13 0.000000 0.377125 0.160511
O O14 0.117392 0.117392 0.842996
O O15 0.000000 0.126004 0.842808
O O16 0.080641 0.161282 0.000000
O O17 0.571630 0.000000 0.607401
O O18 0.602243 0.397758 0.000000
O O19 0.744266 0.488531 0.000000
#
# Coordination Sequence:
#
# PCOD9577930 Si02
#       7
#    12  12  12  12  12  12  12
#     4  11  20  33  45  70 111 143 169 208 268 314
#     4  11  20  33  54  77 102 133 172 214 251 303
#     4   8  15  29  49  74 100 125 159 207 259 303
#     4  11  20  33  54  77 102 133 172 214 251 303
#     4   9  17  28  45  67  95 137 184 223 258 304
#     4   8  15  29  49  74 100 125 159 207 259 303
#     4  12  24  39  53  74 105 139 172 206 249 297
#
# _framework density 15.765981
#
# number of rings (size 3 to 8) (size 9 to 14) (size 15 to 20)
#    0.000    2.000    2.857    3.286    0.000    4.000 
#    0.000    0.714    0.000    0.000    0.000    0.000 
#    0.000    0.000    0.000    0.857    0.000   26.429 
#
# Total GULP energy -467806.853762 kJ/mol
# GULP energy per Si atom -5569.129211 kJ/mol
# Density = 1.573010 g / cm^3
# Si number density = 15.765981 Si / 1000 Ang^3
#
#
#
# Elastic Constant Matrix: (Units=GPa)
#
#
# Indices 1 2 3 4 5 6 
#
# 1 62.0817 14.0660 26.3193 -0.0003 -0.6761 0.0000
# 2 14.0660 62.0817 26.3193 0.0003 0.6761 0.0000
# 3 26.3193 26.3193 114.5063 0.0000 0.0000 0.0000
# 4 -0.0003 0.0003 0.0000 13.6119 0.0000 0.6761
# 5 -0.6761 0.6761 0.0000 0.0000 13.6119 -0.0003
# 6 0.0000 0.0000 0.0000 0.6761 -0.0003 24.0078
#
#
#
# Elastic Compliance Matrix: (Units=1/GPa)
#
#
# Indices 1 2 3 4 5 6 
#
# 1 0.018234 -0.002621 -0.003589 0.000000 0.001036 0.000000
# 2 -0.002621 0.018234 -0.003589 0.000000 -0.001036 0.000000
# 3 -0.003589 -0.003589 0.010383 0.000000 0.000000 0.000000
# 4 0.000000 0.000000 0.000000 0.073568 0.000000 -0.002072
# 5 0.001036 -0.001036 0.000000 0.000000 0.073568 0.000001
# 6 0.000000 0.000000 0.000000 -0.002072 0.000001 0.041711
#
#
# Mechanical properties :
#
#
# Convention : Reuss Voigt Hill
#
# Bulk Modulus (GPa) = 36.69135 41.34210 39.01673
# Shear Modulus (GPa) = 18.91205 21.71064 20.31135
#
# Velocity S-wave (km/s) = 3.46721 3.71490 3.59319
# Velocity P-wave (km/s) = 6.27309 6.68430 6.48196
#
# Compressibility (1/GPa) = 0.02725438
#
# Stress axis : x y z
#
# Youngs Moduli (GPa) = 54.84133 54.84133 96.31255
#
# Poissons Ratio (x) = 0.14376 0.34563
# Poissons Ratio (y) = 0.14376 0.34563
# Poissons Ratio (z) = 0.19681 0.19681
#
# Static dielectric constant tensor:
#      x y z
#    x 1.521190 0.000000 0.000000 
#    y 0.000000 1.521190 0.000000 
#    z 0.000000 0.000000 1.542970 
# 
# From -- ./inp_files/2516.got.cif
#   From: 2010.05.17/outbox.cif.g08.bks.cpg/sg162_2_cif.got.tgz:2516.got - 2010.05.20 10:53:12.
