data_PCOD9577658
_publ_section_title
;
Structure prediction by ZEFSAII (Michael W. Deem and Ramdas Pophale) SiO2 
 PCOD9577658
Probable space group: P -3 1 M 
;
_chemical_formula_sum "Si O2"
_cell_formula_units_Z 96
_cell_length_a 23.457030
_cell_length_b 23.457030
_cell_length_c 11.944965
_cell_angle_alpha 90.000000
_cell_angle_beta 90.000000
_cell_angle_gamma 120.000000
_cell_volume 5691.956335
_symmetry_space_group_name_H-M "P -3 1 M "
_symmetry_group_IT_number 162
_symmetry_cell_setting 'hexagonal'
loop_
_space_group_symop_operation_xyz
x,y,z
-y,x-y,z
-x+y,-x,z
-y,-x,-z
-x+y,y,-z
x,x-y,-z
-x,-y,-z
y,-x+y,-z
x-y,x,-z
y,x,z
x-y,-y,z
-x,-x+y,z
loop_
_atom_site_type_symbol
_atom_site_label
_atom_site_fract_x
_atom_site_fract_y
_atom_site_fract_z
Si Si1 0.166115 0.701792 0.512931
Si Si2 0.279707 0.203796 0.765040
Si Si3 0.460842 0.077279 0.288401
Si Si4 0.811281 0.735995 0.723790
Si Si5 0.079339 0.692340 0.916223
Si Si6 0.759235 0.685202 0.494769
Si Si7 0.613132 0.920710 0.168382
Si Si8 0.593703 0.516364 0.655306
O O1 0.244181 0.755820 0.500000
O O2 0.133590 0.672957 0.634345
O O3 0.128432 0.740263 0.476072
O O4 0.132283 0.635623 0.437587
O O5 0.231710 0.231710 0.790647
O O6 0.245603 0.126164 0.774510
O O7 0.342851 0.241772 0.844931
O O8 0.300933 0.220899 0.634657
O O9 0.447416 0.090629 0.161952
O O10 0.529612 0.079946 0.307184
O O11 0.404185 0.000000 0.314549
O O12 0.783264 0.783264 0.755476
O O13 0.810634 0.731282 0.588564
O O14 0.759752 0.662997 0.769261
O O15 0.000000 0.657675 0.924472
O O16 0.105865 0.703106 0.041986
O O17 0.698175 0.698175 0.511194
O O18 0.550899 0.906237 0.243237
O O19 0.653781 0.000000 0.161528
O O20 0.565308 0.565308 0.618957
#
# Coordination Sequence:
#
# PCOD9577658 Si02
#       8
#    12  12  12  12  12  12  12  12
#     4  12  21  30  48  73 102 133 168 203 242 294
#     4  10  19  31  48  71 100 133 168 207 252 300
#     4  10  20  34  53  76 102 132 165 202 245 294
#     4  10  19  31  48  71 100 133 168 207 252 300
#     4   9  18  31  47  70 100 131 160 194 240 293
#     4  10  18  29  47  71  98 127 164 207 252 298
#     4   9  18  31  47  70 100 131 160 194 240 293
#     4  10  20  34  53  76 102 132 165 202 245 294
#
# _framework density 16.865905999999999
#
# number of rings (size 3 to 8) (size 9 to 14) (size 15 to 20)
#    0.000    2.000    2.500    2.625    0.000    2.000 
#    0.000    2.500    0.000    2.250    0.000    0.000 
#    0.000    3.000    0.000    6.250    0.000    0.000 
#
# Total GULP energy -534604.015179 kJ/mol
# GULP energy per Si atom -5568.791825 kJ/mol
# Density = 1.682752 g / cm^3
# Si number density = 16.865906 Si / 1000 Ang^3
#
#
#
# Elastic Constant Matrix: (Units=GPa)
#
#
# Indices 1 2 3 4 5 6 
#
# 1 55.1747 26.3098 15.0304 -0.0001 2.7850 0.0000
# 2 26.3098 55.1747 15.0304 0.0001 -2.7850 0.0000
# 3 15.0304 15.0304 92.3131 0.0000 0.0000 0.0000
# 4 -0.0001 0.0001 0.0000 8.3228 0.0000 -2.7850
# 5 2.7850 -2.7850 0.0000 0.0000 8.3228 -0.0001
# 6 0.0000 0.0000 0.0000 -2.7850 -0.0001 14.4325
#
#
#
# Elastic Compliance Matrix: (Units=1/GPa)
#
#
# Indices 1 2 3 4 5 6 
#
# 1 0.025046 -0.011990 -0.002126 0.000000 -0.012393 0.000000
# 2 -0.011990 0.025046 -0.002126 0.000000 0.012393 0.000000
# 3 -0.002126 -0.002126 0.011525 0.000000 0.000000 0.000000
# 4 0.000000 0.000000 0.000000 0.128445 0.000000 0.024786
# 5 -0.012393 0.012393 0.000000 0.000000 0.128445 0.000001
# 6 0.000000 0.000000 0.000000 0.024786 0.000001 0.074071
#
#
# Mechanical properties :
#
#
# Convention : Reuss Voigt Hill
#
# Bulk Modulus (GPa) = 34.32347 35.04485 34.68416
# Shear Modulus (GPa) = 11.50026 15.96842 13.73434
#
# Velocity S-wave (km/s) = 2.61409 3.08033 2.85673
# Velocity P-wave (km/s) = 5.43196 5.78575 5.61164
#
# Compressibility (1/GPa) = 0.02913458
#
# Stress axis : x y z
#
# Youngs Moduli (GPa) = 39.92648 39.92648 86.76813
#
# Poissons Ratio (x) = 0.47870 0.18446
# Poissons Ratio (y) = 0.47870 0.18446
# Poissons Ratio (z) = 0.08488 0.08488
#
# Static dielectric constant tensor:
#      x y z
#    x 1.586110 0.000000 0.000000 
#    y 0.000000 1.586110 0.000000 
#    z 0.000000 0.000000 1.616210 
# 
# From -- ./inp_files/2670.got.cif
#   From: 2010.05.17/outbox.cif.g08.bks.cpg/sg162_2_cif.got.tgz:2670.got - 2010.05.20 10:53:12.
