data_PCOD9577725
_publ_section_title
;
Structure prediction by ZEFSAII (Michael W. Deem and Ramdas Pophale) SiO2 
 PCOD9577725
Probable space group: P -3 1 M 
;
_chemical_formula_sum "Si O2"
_cell_formula_units_Z 72
_cell_length_a 23.689870
_cell_length_b 23.689870
_cell_length_c 8.586104
_cell_angle_alpha 90.000000
_cell_angle_beta 90.000000
_cell_angle_gamma 120.000000
_cell_volume 4173.036000
_symmetry_space_group_name_H-M "P -3 1 M "
_symmetry_group_IT_number 162
_symmetry_cell_setting 'hexagonal'
loop_
_space_group_symop_operation_xyz
x,y,z
-y,x-y,z
-x+y,-x,z
-y,-x,-z
-x+y,y,-z
x,x-y,-z
-x,-y,-z
y,-x+y,-z
x-y,x,-z
y,x,z
x-y,-y,z
-x,-x+y,z
loop_
_atom_site_type_symbol
_atom_site_label
_atom_site_fract_x
_atom_site_fract_y
_atom_site_fract_z
Si Si1 0.413492 0.339519 0.516077
Si Si2 0.737121 0.924220 0.074524
Si Si3 0.542526 0.334146 0.561479
Si Si4 0.697082 0.625923 0.127768
Si Si5 0.795130 0.276754 0.139726
Si Si6 0.785039 0.632359 0.667538
O O1 0.397906 0.397906 0.496879
O O2 0.487275 0.353081 0.521602
O O3 0.380419 0.305744 0.683121
O O4 0.383141 0.287182 0.378543
O O5 0.695456 0.882663 0.223229
O O6 0.785668 0.000000 0.109297
O O7 0.768771 0.884386 0.000000
O O8 0.684267 0.922123 0.948667
O O9 0.611469 0.388532 0.500000
O O10 0.526126 0.263063 0.500000
O O11 0.537036 0.325085 0.745861
O O12 0.639739 0.639739 0.082442
O O13 0.691204 0.559193 0.072769
O O14 0.786325 0.212738 0.236456
O O15 0.746070 0.253931 0.000000
O O16 0.820053 0.640106 0.500000
#
# Coordination Sequence:
#
# PCOD9577725 Si02
#       6
#    12  12  12  12  12  12
#     4  10  19  32  53  82 111 144 182 221 280 347
#     4  11  20  31  49  79 114 149 187 227 280 340
#     4  11  22  39  59  79 105 146 191 238 285 326
#     4   9  16  28  48  75 109 141 173 214 267 332
#     4  11  18  34  56  78 108 144 182 226 280 333
#     4  12  17  31  52  81 114 144 177 226 281 341
#
# _framework density 17.253623999999999
#
# number of rings (size 3 to 8) (size 9 to 14) (size 15 to 20)
#    0.000    1.333    8.333    0.667    0.000    0.333 
#    0.000    1.667    0.000    0.167    0.000    1.167 
#    0.000    0.667    0.000    0.000    0.000    0.000 
#
# Total GULP energy -400899.606314 kJ/mol
# GULP energy per Si atom -5568.050088 kJ/mol
# Density = 1.721435 g / cm^3
# Si number density = 17.253624 Si / 1000 Ang^3
#
#
#
# Elastic Constant Matrix: (Units=GPa)
#
#
# Indices 1 2 3 4 5 6 
#
# 1 68.6751 41.3007 31.9162 0.0003 6.1427 0.0000
# 2 41.3007 68.6751 31.9162 -0.0003 -6.1427 0.0000
# 3 31.9162 31.9162 44.4812 0.0000 0.0000 0.0000
# 4 0.0003 -0.0003 0.0000 18.9951 0.0000 -6.1427
# 5 6.1427 -6.1427 0.0000 0.0000 18.9951 0.0003
# 6 0.0000 0.0000 0.0000 -6.1427 0.0003 13.6872
#
#
#
# Elastic Compliance Matrix: (Units=1/GPa)
#
#
# Indices 1 2 3 4 5 6 
#
# 1 0.029157 -0.013575 -0.011181 -0.000001 -0.013819 0.000000
# 2 -0.013575 0.029157 -0.011181 0.000001 0.013819 0.000000
# 3 -0.011181 -0.011181 0.038526 0.000000 0.000000 0.000000
# 4 -0.000001 0.000001 0.000000 0.061583 0.000000 0.027637
# 5 -0.013819 0.013819 0.000000 0.000000 0.061583 -0.000001
# 6 0.000000 0.000000 0.000000 0.027637 -0.000001 0.085464
#
#
# Mechanical properties :
#
#
# Convention : Reuss Voigt Hill
#
# Bulk Modulus (GPa) = 40.05092 43.56638 41.80865
# Shear Modulus (GPa) = 12.96462 15.44872 14.20667
#
# Velocity S-wave (km/s) = 2.74417 2.99555 2.87261
# Velocity P-wave (km/s) = 5.77097 6.10490 5.94028
#
# Compressibility (1/GPa) = 0.02496821
#
# Stress axis : x y z
#
# Youngs Moduli (GPa) = 34.29681 34.29681 25.95635
#
# Poissons Ratio (x) = 0.46557 0.29021
# Poissons Ratio (y) = 0.46557 0.29021
# Poissons Ratio (z) = 0.38346 0.38346
#
# Static dielectric constant tensor:
#      x y z
#    x 1.605180 0.000000 0.000000 
#    y 0.000000 1.605180 0.000000 
#    z 0.000000 0.000000 1.623180 
# 
# From -- ./inp_files/1711.got.cif
#   From: 2010.05.17/outbox.cif.g08.bks.cpg/sg162_1_cif.got.tgz:1711.got - 2010.05.20 10:53:12.
