data_PCOD9577201
_publ_section_title
;
Structure prediction by ZEFSAII (Michael W. Deem and Ramdas Pophale) SiO2 
 PCOD9577201
Probable space group: P 3 M 1
;
_chemical_formula_sum "Si O2"
_cell_formula_units_Z 30
_cell_length_a 17.738127
_cell_length_b 17.738127
_cell_length_c 7.941893
_cell_angle_alpha 90.000000
_cell_angle_beta 90.000000
_cell_angle_gamma 120.000000
_cell_volume 2164.064413
_symmetry_space_group_name_H-M "P 3 M 1"
_symmetry_group_IT_number 156
_symmetry_cell_setting 'hexagonal'
loop_
_space_group_symop_operation_xyz
x,y,z
-y,x-y,z
-x+y,-x,z
-x+y,y,z
x,x-y,z
-y,-x,z
loop_
_atom_site_type_symbol
_atom_site_label
_atom_site_fract_x
_atom_site_fract_y
_atom_site_fract_z
Si Si1 0.181407 0.001334 0.013000
Si Si2 0.334129 0.492840 0.808990
Si Si3 0.058620 0.300353 0.700291
Si Si4 0.334129 0.492840 0.217010
Si Si5 0.058620 0.300352 0.325709
O O1 0.172134 0.086067 0.013000
O O2 0.232091 0.996769 0.177674
O O3 0.086172 0.913829 0.013000
O O4 0.232091 0.996769 0.848326
O O5 0.253408 0.506816 0.760695
O O6 0.425192 0.574808 0.756219
O O7 0.313643 0.399975 0.738380
O O8 0.333128 0.487550 0.013000
O O9 0.150462 0.300924 0.703323
O O10 0.021275 0.274303 0.513000
O O11 0.253408 0.506816 0.265305
O O12 0.425192 0.574808 0.269781
O O13 0.313643 0.399975 0.287620
O O14 0.150462 0.300924 0.322677
#
# Coordination Sequence:
#
# PCOD9577201 Si02
#       5
#     6   6   6   6   6
#     4  10  19  32  47  62  78 100 134 176 219 260
#     4   9  15  24  39  60  86 117 151 180 201 226
#     4   9  17  29  43  59  82 110 137 168 209 251
#     4   9  15  24  39  60  86 117 151 180 201 226
#     4   9  17  29  43  59  82 110 137 168 209 251
#
# _framework density 13.862804000000001
#
# number of rings (size 3 to 8) (size 9 to 14) (size 15 to 20)
#    0.000    2.800    2.000    0.600    0.000    3.200 
#    0.000    0.000    0.000    4.800    0.000    0.000 
#    0.000    0.000    0.000    4.800    0.000   10.400 
#
# Total GULP energy -167102.862526 kJ/mol
# GULP energy per Si atom -5570.095418 kJ/mol
# Density = 1.383125 g / cm^3
# Si number density = 13.862804 Si / 1000 Ang^3
#
#
#
# Elastic Constant Matrix: (Units=GPa)
#
#
# Indices 1 2 3 4 5 6 
#
# 1 70.6755 27.1823 43.6283 0.0000 0.0000 0.0000
# 2 27.1823 70.6755 43.6283 0.0000 0.0000 0.0000
# 3 43.6283 43.6283 99.6049 0.0000 0.0000 0.0000
# 4 0.0000 0.0000 0.0000 3.8010 0.0000 0.0000
# 5 0.0000 0.0000 0.0000 0.0000 3.8010 0.0000
# 6 0.0000 0.0000 0.0000 0.0000 0.0000 21.7466
#
#
#
# Elastic Compliance Matrix: (Units=1/GPa)
#
#
# Indices 1 2 3 4 5 6 
#
# 1 0.019880 -0.003112 -0.007345 0.000000 0.000000 0.000000
# 2 -0.003112 0.019880 -0.007345 0.000000 0.000000 0.000000
# 3 -0.007345 -0.007345 0.016474 0.000000 0.000000 0.000000
# 4 0.000000 0.000000 0.000000 0.263086 0.000000 0.000000
# 5 0.000000 0.000000 0.000000 0.000000 0.263086 0.000000
# 6 0.000000 0.000000 0.000000 0.000000 0.000000 0.045984
#
#
# Mechanical properties :
#
#
# Convention : Reuss Voigt Hill
#
# Bulk Modulus (GPa) = 48.47038 52.20375 50.33706
# Shear Modulus (GPa) = 7.45301 14.30419 10.87860
#
# Velocity S-wave (km/s) = 2.32119 3.21571 2.80435
# Velocity P-wave (km/s) = 6.49801 7.17822 6.84657
#
# Compressibility (1/GPa) = 0.02063116
#
# Stress axis : x y z
#
# Youngs Moduli (GPa) = 50.30193 50.30193 60.70284
#
# Poissons Ratio (x) = 0.15655 0.44583
# Poissons Ratio (y) = 0.15655 0.44583
# Poissons Ratio (z) = 0.36944 0.36944
#
# Static dielectric constant tensor:
#      x y z
#    x 1.429520 0.000000 0.000000 
#    y 0.000000 1.429520 0.000000 
#    z 0.000000 0.000000 1.498510 
# 
# From -- ./inp_files/370.got.cif
#   From: 2010.05.17/outbox.cif.g08.bks.cpg/sg156_cif.got.tgz:370.got - 2010.05.20 10:49:08.
