data_PCOD9577207
_publ_section_title
;
Structure prediction by ZEFSAII (Michael W. Deem and Ramdas Pophale) SiO2 
 PCOD9577207
Probable space group: P 3 M 1
;
_chemical_formula_sum "Si O2"
_cell_formula_units_Z 42
_cell_length_a 13.092679
_cell_length_b 13.092679
_cell_length_c 18.406362
_cell_angle_alpha 90.000000
_cell_angle_beta 90.000000
_cell_angle_gamma 120.000000
_cell_volume 2732.471439
_symmetry_space_group_name_H-M "P 3 M 1"
_symmetry_group_IT_number 156
_symmetry_cell_setting 'hexagonal'
loop_
_space_group_symop_operation_xyz
x,y,z
-y,x-y,z
-x+y,-x,z
-x+y,y,z
x,x-y,z
-y,-x,z
loop_
_atom_site_type_symbol
_atom_site_label
_atom_site_fract_x
_atom_site_fract_y
_atom_site_fract_z
Si Si1 0.756902 0.999754 0.744750
Si Si2 0.000247 0.243099 0.324739
Si Si3 0.911446 0.576933 0.874734
Si Si4 0.426564 0.092149 0.034744
Si Si5 0.427051 0.093322 0.449589
Si Si6 0.665487 0.088554 0.194755
Si Si7 0.427051 0.333729 0.619899
O O1 0.753538 0.876769 0.747055
O O2 0.692206 0.019000 0.813486
O O3 0.695985 0.015127 0.672707
O O4 0.891169 0.108832 0.745368
O O5 0.891167 0.108834 0.324121
O O6 0.984875 0.304017 0.396782
O O7 0.981002 0.307795 0.256002
O O8 0.123231 0.246461 0.322433
O O9 0.777778 0.555556 0.874615
O O10 0.908336 0.454168 0.860413
O O11 0.964730 0.620246 0.955899
O O12 0.563105 0.126210 0.034744
O O13 0.417237 0.208619 0.034744
O O14 0.379755 0.035271 0.113590
O O15 0.542054 0.084107 0.432253
O O16 0.456091 0.228046 0.439124
O O17 0.398377 0.064761 0.534744
O O18 0.545833 0.091665 0.209076
O O19 0.777779 0.222222 0.194874
O O20 0.456093 0.228047 0.630364
O O21 0.542053 0.457948 0.637236
#
# Coordination Sequence:
#
# PCOD9577207 Si02
#       7
#     6   6   6   6   6   6   6
#     4  10  20  32  45  62  88 123 159 190 217 249
#     4  10  20  32  45  62  88 123 159 190 217 249
#     4   9  16  27  46  71  95 116 140 177 227 278
#     4   8  13  22  39  66  96 118 136 166 218 280
#     4   9  17  30  50  75  98 116 136 171 223 277
#     4   9  16  27  46  71  95 116 140 177 227 278
#     4   9  17  30  50  75  98 116 136 171 223 277
#
# _framework density 15.370699999999999
#
# number of rings (size 3 to 8) (size 9 to 14) (size 15 to 20)
#    0.000    2.857    0.000    1.857    0.000    4.000 
#    0.000    3.571    0.000    6.286    0.000    2.000 
#    0.000    0.000    0.000    0.000    0.000    0.000 
#
# Total GULP energy -233821.433797 kJ/mol
# GULP energy per Si atom -5567.176995 kJ/mol
# Density = 1.533572 g / cm^3
# Si number density = 15.370700 Si / 1000 Ang^3
#
#
#
# Elastic Constant Matrix: (Units=GPa)
#
#
# Indices 1 2 3 4 5 6 
#
# 1 89.7734 52.9377 72.5475 0.0001 0.0001 0.0000
# 2 52.9377 89.7734 72.5475 -0.0001 -0.0001 0.0000
# 3 72.5475 72.5475 110.9228 0.0000 0.0000 0.0000
# 4 0.0001 -0.0001 0.0000 13.9694 0.0000 -0.0001
# 5 0.0001 -0.0001 0.0000 0.0000 13.9694 0.0001
# 6 0.0000 0.0000 0.0000 -0.0001 0.0001 18.4178
#
#
#
# Elastic Compliance Matrix: (Units=1/GPa)
#
#
# Indices 1 2 3 4 5 6 
#
# 1 0.024031 -0.003117 -0.013679 0.000000 0.000000 0.000000
# 2 -0.003117 0.024031 -0.013679 0.000000 0.000000 0.000000
# 3 -0.013679 -0.013679 0.026908 0.000000 0.000000 0.000000
# 4 0.000000 0.000000 0.000000 0.071585 0.000000 0.000000
# 5 0.000000 0.000000 0.000000 0.000000 0.071585 0.000000
# 6 0.000000 0.000000 0.000000 0.000000 0.000000 0.054295
#
#
# Mechanical properties :
#
#
# Convention : Reuss Voigt Hill
#
# Bulk Modulus (GPa) = 71.31737 76.28170 73.79954
# Shear Modulus (GPa) = 14.79034 15.43376 15.11205
#
# Velocity S-wave (km/s) = 3.10537 3.17220 3.13896
# Velocity P-wave (km/s) = 7.70433 7.94688 7.82654
#
# Compressibility (1/GPa) = 0.01402183
#
# Stress axis : x y z
#
# Youngs Moduli (GPa) = 41.61283 41.61283 37.16340
#
# Poissons Ratio (x) = 0.12969 0.50835
# Poissons Ratio (y) = 0.12969 0.50835
# Poissons Ratio (z) = 0.56922 0.56922
#
# Static dielectric constant tensor:
#      x y z
#    x 1.478270 0.000000 0.000000 
#    y 0.000000 1.478270 0.000000 
#    z 0.000000 0.000000 1.560680 
# 
# From -- ./inp_files/997.got.cif
#   From: 2010.05.17/outbox.cif.g08.bks.cpg/sg156_cif.got.tgz:997.got - 2010.05.20 10:49:08.
