data_PCOD9577006
_publ_section_title
;
Structure prediction by ZEFSAII (Michael W. Deem and Ramdas Pophale) SiO2 
 PCOD9577006
Probable space group: R 3 2
;
_chemical_formula_sum "Si O2"
_cell_formula_units_Z 72
_cell_length_a 19.394440
_cell_length_b 19.394440
_cell_length_c 11.457692
_cell_angle_alpha 90.000000
_cell_angle_beta 90.000000
_cell_angle_gamma 120.000000
_cell_volume 3732.349148
_symmetry_space_group_name_H-M "R 3 2"
_symmetry_group_IT_number 155
_symmetry_cell_setting 'hexagonal'
loop_
_space_group_symop_operation_xyz
x,y,z
-y,x-y,z
-x+y,-x,z
x-y,-y,-z
-x,-x+y,-z
y,x,-z
2/3+x,1/3+y,1/3+z
2/3-y,1/3+x-y,1/3+z
2/3-x+y,1/3-x,1/3+z
2/3+x-y,1/3-y,1/3-z
2/3-x,1/3-x+y,1/3-z
2/3+y,1/3+x,1/3-z
1/3+x,2/3+y,2/3+z
1/3-y,2/3+x-y,2/3+z
1/3-x+y,2/3-x,2/3+z
1/3+x-y,2/3-y,2/3-z
1/3-x,2/3-x+y,2/3-z
1/3+y,2/3+x,2/3-z
loop_
_atom_site_type_symbol
_atom_site_label
_atom_site_fract_x
_atom_site_fract_y
_atom_site_fract_z
Si Si1 0.441098 0.333334 0.833334
Si Si2 0.292020 0.856023 0.914599
Si Si3 0.114765 0.708115 0.918479
Si Si4 0.721697 0.721697 0.000000
Si Si5 0.906731 0.457009 0.009481
O O1 0.419586 0.367041 0.720112
O O2 0.450179 0.262478 0.779993
O O3 0.207688 0.775533 0.910834
O O4 0.285383 0.920551 0.997228
O O5 0.319927 0.895298 0.785358
O O6 0.366402 0.850601 0.960267
O O7 0.069005 0.735671 0.833334
O O8 0.100973 0.619165 0.901536
O O9 0.000000 0.483667 0.000000
#
# Coordination Sequence:
#
# PCOD9577006 Si02
#       5
#     9  18  18   9  18
#     4   8  24  38  60 100 124 178 220 262 346 386
#     4  11  22  41  65  98 135 170 228 278 332 396
#     4  10  22  42  64  94 137 176 220 279 337 394
#     4  10  22  36  66  98 122 176 222 278 336 380
#     4  10  23  39  63  96 131 172 223 271 326 400
#
# _framework density 19.290799
#
# number of rings (size 3 to 8) (size 9 to 14) (size 15 to 20)
#    1.500    0.500    3.750    0.000    5.250    1.000 
#    1.500    3.750    0.000    0.000    0.000    0.000 
#    0.000    0.000    0.000    0.000    0.000    0.000 
#
# Total GULP energy -133605.816652 kJ/mol
# GULP energy per Si atom -5566.909027 kJ/mol
# Density = 1.924689 g / cm^3
# Si number density = 19.290799 Si / 1000 Ang^3
#
#
#
# Elastic Constant Matrix: (Units=GPa)
#
#
# Indices 1 2 3 4 5 6 
#
# 1 94.2157 39.6452 40.8612 3.3194 0.0000 0.0000
# 2 39.6452 94.2157 40.8612 -3.3194 0.0000 0.0000
# 3 40.8612 40.8612 119.7680 0.0000 0.0000 0.0000
# 4 3.3194 -3.3194 0.0000 22.2820 0.0000 0.0000
# 5 0.0000 0.0000 0.0000 0.0000 22.2820 3.3194
# 6 0.0000 0.0000 0.0000 0.0000 3.3194 27.2853
#
#
#
# Elastic Compliance Matrix: (Units=1/GPa)
#
#
# Indices 1 2 3 4 5 6 
#
# 1 0.014049 -0.004614 -0.003219 -0.002780 0.000000 0.000000
# 2 -0.004614 0.014049 -0.003219 0.002780 0.000000 0.000000
# 3 -0.003219 -0.003219 0.010546 0.000000 0.000000 0.000000
# 4 -0.002780 0.002780 0.000000 0.045708 0.000000 0.000000
# 5 0.000000 0.000000 0.000000 0.000000 0.045708 -0.005561
# 6 0.000000 0.000000 0.000000 0.000000 -0.005561 0.037326
#
#
# Mechanical properties :
#
#
# Convention : Reuss Voigt Hill
#
# Bulk Modulus (GPa) = 60.45654 61.21496 60.83575
# Shear Modulus (GPa) = 25.64044 26.82529 26.23287
#
# Velocity S-wave (km/s) = 3.64971 3.73309 3.69163
# Velocity P-wave (km/s) = 7.01200 7.09809 7.05517
#
# Compressibility (1/GPa) = 0.01654081
#
# Stress axis : x y z
#
# Youngs Moduli (GPa) = 71.17710 71.17710 94.82206
#
# Poissons Ratio (x) = 0.32839 0.30525
# Poissons Ratio (y) = 0.32839 0.30525
# Poissons Ratio (z) = 0.22913 0.22913
#
# Static dielectric constant tensor:
#      x y z
#    x 1.685480 0.000000 0.000000 
#    y 0.000000 1.685480 0.000000 
#    z 0.000000 0.000000 1.721670 
# 
# From -- ./inp_files/3754.got.cif
#   From: 2010.05.17/outbox.cif.g08.bks.cpg/sg155_2_cif.got.tgz:3754.got - 2010.05.20 10:44:35.
