data_PCOD9577861
_publ_section_title
;
Structure prediction by ZEFSAII (Michael W. Deem and Ramdas Pophale) SiO2 
 PCOD9577861
Probable space group: P -3 1 M 
;
_chemical_formula_sum "Si O2"
_cell_formula_units_Z 72
_cell_length_a 14.485489
_cell_length_b 14.485489
_cell_length_c 18.185603
_cell_angle_alpha 90.000000
_cell_angle_beta 90.000000
_cell_angle_gamma 120.000000
_cell_volume 3304.643833
_symmetry_space_group_name_H-M "P -3 1 M "
_symmetry_group_IT_number 162
_symmetry_cell_setting 'hexagonal'
loop_
_space_group_symop_operation_xyz
x,y,z
-y,x-y,z
-x+y,-x,z
-y,-x,-z
-x+y,y,-z
x,x-y,-z
-x,-y,-z
y,-x+y,-z
x-y,x,-z
y,x,z
x-y,-y,z
-x,-x+y,z
loop_
_atom_site_type_symbol
_atom_site_label
_atom_site_fract_x
_atom_site_fract_y
_atom_site_fract_z
Si Si1 0.775237 0.552002 0.414272
Si Si2 0.443040 0.874183 0.165302
Si Si3 0.877484 0.664601 0.171399
Si Si4 0.246314 0.124996 0.330451
Si Si5 0.568099 0.124319 0.671542
Si Si6 0.122496 0.413704 0.056633
O O1 0.763376 0.526751 0.500000
O O2 0.858227 0.674559 0.397648
O O3 0.812519 0.480344 0.370111
O O4 0.664959 0.527824 0.377360
O O5 0.547780 0.864087 0.161586
O O6 0.393451 0.832937 0.245799
O O7 0.365528 0.837317 0.095655
O O8 0.483819 0.000000 0.166210
O O9 0.862817 0.686681 0.255720
O O10 0.787219 0.663065 0.120691
O O11 0.000000 0.749185 0.150911
O O12 0.152230 0.152230 0.330244
O O13 0.200661 0.000000 0.331306
O O14 0.478220 0.000000 0.677636
O O15 0.000000 0.363368 0.028006
O O16 0.209677 0.419353 0.000000
#
# Coordination Sequence:
#
# PCOD9577861 Si02
#       6
#    12  12  12  12  12  12
#     4  12  25  40  63  95 131 175 224 278 347 414
#     4   9  20  39  64  93 125 167 217 270 326 393
#     4  10  20  40  67  92 126 171 222 278 332 390
#     4  11  23  41  65  95 132 178 231 283 335 396
#     4  11  23  43  66  92 130 173 220 279 340 401
#     4  11  23  40  64  98 137 175 216 264 330 402
#
# _framework density 21.787523
#
# number of rings (size 3 to 8) (size 9 to 14) (size 15 to 20)
#    0.000    1.333    1.667    4.000    0.000    5.333 
#    1.000    2.500    0.000    5.000    0.000    0.000 
#    0.000    0.000    0.000    0.000    0.000    0.000 
#
# Total GULP energy -402592.033332 kJ/mol
# GULP energy per Si atom -5591.556018 kJ/mol
# Density = 2.173793 g / cm^3
# Si number density = 21.787523 Si / 1000 Ang^3
#
#
#
# Elastic Constant Matrix: (Units=GPa)
#
#
# Indices 1 2 3 4 5 6 
#
# 1 80.6609 16.3555 27.4958 0.0000 -2.3869 0.0000
# 2 16.3555 80.6609 27.4958 0.0000 2.3869 0.0000
# 3 27.4958 27.4958 104.9246 0.0000 0.0000 0.0000
# 4 0.0000 0.0000 0.0000 19.3707 0.0000 2.3869
# 5 -2.3869 2.3869 0.0000 0.0000 19.3707 0.0000
# 6 0.0000 0.0000 0.0000 2.3869 0.0000 32.1527
#
#
#
# Elastic Compliance Matrix: (Units=1/GPa)
#
#
# Indices 1 2 3 4 5 6 
#
# 1 0.013900 -0.001794 -0.003172 0.000000 0.001934 0.000000
# 2 -0.001794 0.013900 -0.003172 0.000000 -0.001934 0.000000
# 3 -0.003172 -0.003172 0.011193 0.000000 0.000000 0.000000
# 4 0.000000 0.000000 0.000000 0.052101 0.000000 -0.003868
# 5 0.001934 -0.001934 0.000000 0.000000 0.052101 0.000000
# 6 0.000000 0.000000 0.000000 -0.003868 0.000000 0.031389
#
#
# Mechanical properties :
#
#
# Convention : Reuss Voigt Hill
#
# Bulk Modulus (GPa) = 44.02309 45.43785 44.73047
# Shear Modulus (GPa) = 25.19732 27.17211 26.18471
#
# Velocity S-wave (km/s) = 3.40443 3.53532 3.47049
# Velocity P-wave (km/s) = 5.97520 6.12902 6.05260
#
# Compressibility (1/GPa) = 0.02271535
#
# Stress axis : x y z
#
# Youngs Moduli (GPa) = 71.94232 71.94232 89.33922
#
# Poissons Ratio (x) = 0.12909 0.28341
# Poissons Ratio (y) = 0.12909 0.28341
# Poissons Ratio (z) = 0.22822 0.22822
#
# Static dielectric constant tensor:
#      x y z
#    x 1.787380 0.000000 0.000000 
#    y 0.000000 1.787380 0.000000 
#    z 0.000000 0.000000 1.801350 
# 
# From -- ./inp_files/3496.got.cif
#   From: 2010.05.17/outbox.cif.g08.bks.cpg/sg162_2_cif.got.tgz:3496.got - 2010.05.20 10:53:12.
