data_PCOD9577566
_publ_section_title
;
Structure prediction by ZEFSAII (Michael W. Deem and Ramdas Pophale) SiO2 
 PCOD9577566
Probable space group: R 3 C
;
_chemical_formula_sum "Si O2"
_cell_formula_units_Z 102
_cell_length_a 20.786125
_cell_length_b 20.786125
_cell_length_c 14.619626
_cell_angle_alpha 90.000000
_cell_angle_beta 90.000000
_cell_angle_gamma 120.000000
_cell_volume 5470.335510
_symmetry_space_group_name_H-M "R 3 C"
_symmetry_group_IT_number 161
_symmetry_cell_setting 'hexagonal'
loop_
_space_group_symop_operation_xyz
x,y,z
-y,x-y,z
-x+y,-x,z
-x+y,y,1/2+z
x,x-y,1/2+z
-y,-x,1/2+z
2/3+x,1/3+y,1/3+z
2/3-y,1/3+x-y,1/3+z
2/3-x+y,1/3-x,1/3+z
2/3-x+y,1/3+y,5/6+z
2/3+x,1/3+x-y,5/6+z
2/3-y,1/3-x,5/6+z
1/3+x,2/3+y,2/3+z
1/3-y,2/3+x-y,2/3+z
1/3-x+y,2/3-x,2/3+z
1/3-x+y,2/3+y,1/6+z
1/3+x,2/3+x-y,1/6+z
1/3-y,2/3-x,1/6+z
loop_
_atom_site_type_symbol
_atom_site_label
_atom_site_fract_x
_atom_site_fract_y
_atom_site_fract_z
Si Si1 0.953558 0.834090 0.093944
Si Si2 0.717962 0.971704 0.402471
Si Si3 0.333334 0.666668 0.307220
Si Si4 0.888028 0.832131 0.909825
Si Si5 0.333334 0.666668 0.525717
Si Si6 0.602505 0.797334 0.902701
Si Si7 0.995934 0.265683 0.687524
O O1 0.877241 0.787274 0.152223
O O2 0.005673 0.804799 0.137933
O O3 0.987298 0.921135 0.107141
O O4 0.930247 0.814762 0.989432
O O5 0.802143 0.998267 0.432350
O O6 0.715121 0.973617 0.290999
O O7 0.692519 0.023915 0.454044
O O8 0.659954 0.887874 0.427736
O O9 0.333334 0.666667 0.416416
O O10 0.881553 0.784925 0.820231
O O11 0.934965 0.919863 0.891704
O O12 0.644021 0.883996 0.871458
#
# Coordination Sequence:
#
# PCOD9577566 Si02
#       7
#    18  18   6  18   6  18  18
#     4  10  22  43  59  96 128 170 223 265 338 387
#     4  11  21  43  64  94 132 172 216 272 330 397
#     4  12  19  44  64  88 140 172 220 287 325 397
#     4  11  23  41  66  96 128 172 224 271 332 397
#     4  12  22  44  70  97 131 169 232 284 322 406
#     4   9  22  40  60  94 129 168 216 263 328 394
#     4   9  23  41  61  93 132 163 221 268 323 402
#
# _framework density 18.646021000000001
#
# number of rings (size 3 to 8) (size 9 to 14) (size 15 to 20)
#    1.059    0.706    1.765    2.118    2.471    1.412 
#   12.706    0.000    0.000    0.000    0.000    0.000 
#    0.000    0.000    0.000    0.000    0.000    0.000 
#
# Total GULP energy -189276.890066 kJ/mol
# GULP energy per Si atom -5566.967355 kJ/mol
# Density = 1.860358 g / cm^3
# Si number density = 18.646021 Si / 1000 Ang^3
#
#
#
# Elastic Constant Matrix: (Units=GPa)
#
#
# Indices 1 2 3 4 5 6 
#
# 1 105.7009 79.5350 24.5444 -2.1459 0.0000 0.0000
# 2 79.5350 105.6987 24.5450 2.1465 0.0000 0.0000
# 3 24.5444 24.5450 94.7405 0.0000 0.0000 0.0000
# 4 -2.1459 2.1465 0.0000 22.5302 0.0000 0.0000
# 5 0.0000 0.0000 0.0000 0.0000 22.5303 -2.1458
# 6 0.0000 0.0000 0.0000 0.0000 -2.1458 13.0839
#
#
#
# Elastic Compliance Matrix: (Units=1/GPa)
#
#
# Indices 1 2 3 4 5 6 
#
# 1 0.022311 -0.016515 -0.001502 0.003698 0.000000 0.000000
# 2 -0.016515 0.022312 -0.001502 -0.003699 0.000000 0.000000
# 3 -0.001502 -0.001502 0.011333 0.000000 0.000000 0.000000
# 4 0.003698 -0.003699 0.000000 0.045090 0.000000 0.000000
# 5 0.000000 0.000000 0.000000 0.000000 0.045089 0.007395
# 6 0.000000 0.000000 0.000000 0.000000 0.007395 0.077642
#
#
# Mechanical properties :
#
#
# Convention : Reuss Voigt Hill
#
# Bulk Modulus (GPa) = 59.10366 62.59876 60.85121
# Shear Modulus (GPa) = 18.62524 23.46327 21.04425
#
# Velocity S-wave (km/s) = 3.16394 3.55117 3.36314
# Velocity P-wave (km/s) = 6.71669 7.10349 6.91279
#
# Compressibility (1/GPa) = 0.01691942
#
# Stress axis : x y z
#
# Youngs Moduli (GPa) = 44.82091 44.81977 88.23583
#
# Poissons Ratio (x) = 0.74019 0.13249
# Poissons Ratio (y) = 0.74021 0.13252
# Poissons Ratio (z) = 0.06730 0.06732
#
# Static dielectric constant tensor:
#      x y z
#    x 1.641990 0.000000 0.000000 
#    y 0.000000 1.641990 0.000000 
#    z 0.000000 0.000000 1.663960 
# 
# From -- ./inp_files/977.got.cif
#   From: 2010.05.17/outbox.cif.g08.bks.cpg/sg161_cif.got.tgz:977.got - 2010.05.20 10:52:32.
