data_PCOD9577878
_publ_section_title
;
Structure prediction by ZEFSAII (Michael W. Deem and Ramdas Pophale) SiO2 
 PCOD9577878
Probable space group: P -3 1 M 
;
_chemical_formula_sum "Si O2"
_cell_formula_units_Z 72
_cell_length_a 23.511145
_cell_length_b 23.511145
_cell_length_c 7.588020
_cell_angle_alpha 90.000000
_cell_angle_beta 90.000000
_cell_angle_gamma 120.000000
_cell_volume 3632.508661
_symmetry_space_group_name_H-M "P -3 1 M "
_symmetry_group_IT_number 162
_symmetry_cell_setting 'hexagonal'
loop_
_space_group_symop_operation_xyz
x,y,z
-y,x-y,z
-x+y,-x,z
-y,-x,-z
-x+y,y,-z
x,x-y,-z
-x,-y,-z
y,-x+y,-z
x-y,x,-z
y,x,z
x-y,-y,z
-x,-x+y,z
loop_
_atom_site_type_symbol
_atom_site_label
_atom_site_fract_x
_atom_site_fract_y
_atom_site_fract_z
Si Si1 0.406049 0.073094 0.288028
Si Si2 0.926906 0.593952 0.288028
Si Si3 0.275637 0.073660 0.715196
Si Si4 0.333299 0.795014 0.210430
Si Si5 0.666701 0.204986 0.210430
Si Si6 0.724363 0.926340 0.715196
O O1 0.403621 0.070731 0.500000
O O2 0.475881 0.133543 0.239869
O O3 0.346747 0.084889 0.229717
O O4 0.387044 0.000000 0.226058
O O5 0.915111 0.653253 0.229717
O O6 0.866457 0.524119 0.239869
O O7 0.000000 0.612956 0.226058
O O8 0.275726 0.074418 0.500000
O O9 0.264879 0.132439 0.775923
O O10 0.222202 0.000000 0.769674
O O11 0.263829 0.736171 0.279187
O O12 0.395154 0.790308 0.280919
O O13 0.332548 0.786787 0.000000
O O14 0.777798 0.000000 0.769675
#
# Coordination Sequence:
#
# PCOD9577878 Si02
#       6
#    12  12  12  12  12  12
#     4   9  18  32  50  72  95 119 151 193 238 281
#     4   9  18  32  50  72  95 119 151 193 238 281
#     4   8  13  22  38  60  85 113 145 181 221 264
#     4  10  21  36  52  69  92 124 159 192 228 275
#     4  10  21  36  52  69  92 124 159 192 228 275
#     4   8  13  22  38  60  85 113 145 181 221 264
#
# _framework density 19.821012
#
# number of rings (size 3 to 8) (size 9 to 14) (size 15 to 20)
#    0.000    3.000    0.000    3.333    0.000    5.333 
#    0.000    3.333    0.000    2.333    0.000    2.333 
#    0.000    0.000    0.000    0.000    0.000    0.000 
#
# Total GULP energy -401602.147008 kJ/mol
# GULP energy per Si atom -5577.807597 kJ/mol
# Density = 1.977590 g / cm^3
# Si number density = 19.821012 Si / 1000 Ang^3
#
#
#
# Elastic Constant Matrix: (Units=GPa)
#
#
# Indices 1 2 3 4 5 6 
#
# 1 158.4806 120.2451 6.0870 0.0000 0.0000 0.0000
# 2 120.2451 158.4806 6.0870 0.0000 0.0000 0.0000
# 3 6.0870 6.0870 41.3901 0.0000 0.0000 0.0000
# 4 0.0000 0.0000 0.0000 16.5997 0.0000 0.0000
# 5 0.0000 0.0000 0.0000 0.0000 16.5997 0.0000
# 6 0.0000 0.0000 0.0000 0.0000 0.0000 19.1177
#
#
#
# Elastic Compliance Matrix: (Units=1/GPa)
#
#
# Indices 1 2 3 4 5 6 
#
# 1 0.014882 -0.011271 -0.000531 0.000000 0.000000 0.000000
# 2 -0.011271 0.014882 -0.000531 0.000000 0.000000 0.000000
# 3 -0.000531 -0.000531 0.024317 0.000000 0.000000 0.000000
# 4 0.000000 0.000000 0.000000 0.060242 0.000000 0.000000
# 5 0.000000 0.000000 0.000000 0.000000 0.060242 0.000000
# 6 0.000000 0.000000 0.000000 0.000000 0.000000 0.052307
#
#
# Mechanical properties :
#
#
# Convention : Reuss Voigt Hill
#
# Bulk Modulus (GPa) = 33.99710 69.24328 51.62019
# Shear Modulus (GPa) = 19.13185 25.52558 22.32872
#
# Velocity S-wave (km/s) = 3.11019 3.59249 3.36000
# Velocity P-wave (km/s) = 5.48516 7.22621 6.41502
#
# Compressibility (1/GPa) = 0.02941428
#
# Stress axis : x y z
#
# Youngs Moduli (GPa) = 67.19378 67.19378 41.12425
#
# Poissons Ratio (x) = 0.75737 0.02184
# Poissons Ratio (y) = 0.75737 0.02184
# Poissons Ratio (z) = 0.03568 0.03568
#
# Static dielectric constant tensor:
#      x y z
#    x 1.685900 0.000000 0.000000 
#    y 0.000000 1.685900 0.000000 
#    z 0.000000 0.000000 1.773390 
# 
# From -- ./inp_files/1702.got.cif
#   From: 2010.05.17/outbox.cif.g08.bks.cpg/sg162_1_cif.got.tgz:1702.got - 2010.05.20 10:53:12.
