data_PCOD9577559
_publ_section_title
;
Structure prediction by ZEFSAII (Michael W. Deem and Ramdas Pophale) SiO2 
 PCOD9577559
Probable space group: R 3 C
;
_chemical_formula_sum "Si O2"
_cell_formula_units_Z 120
_cell_length_a 13.934707
_cell_length_b 13.934707
_cell_length_c 34.091696
_cell_angle_alpha 90.000000
_cell_angle_beta 90.000000
_cell_angle_gamma 120.000000
_cell_volume 5732.907330
_symmetry_space_group_name_H-M "R 3 C"
_symmetry_group_IT_number 161
_symmetry_cell_setting 'hexagonal'
loop_
_space_group_symop_operation_xyz
x,y,z
-y,x-y,z
-x+y,-x,z
-x+y,y,1/2+z
x,x-y,1/2+z
-y,-x,1/2+z
2/3+x,1/3+y,1/3+z
2/3-y,1/3+x-y,1/3+z
2/3-x+y,1/3-x,1/3+z
2/3-x+y,1/3+y,5/6+z
2/3+x,1/3+x-y,5/6+z
2/3-y,1/3-x,5/6+z
1/3+x,2/3+y,2/3+z
1/3-y,2/3+x-y,2/3+z
1/3-x+y,2/3-x,2/3+z
1/3-x+y,2/3+y,1/6+z
1/3+x,2/3+x-y,1/6+z
1/3-y,2/3-x,1/6+z
loop_
_atom_site_type_symbol
_atom_site_label
_atom_site_fract_x
_atom_site_fract_y
_atom_site_fract_z
Si Si1 0.000000 0.000000 0.120543
Si Si2 0.880246 0.353618 0.913340
Si Si3 0.476642 0.550384 0.969711
Si Si4 0.204701 0.092365 0.770805
Si Si5 0.585985 0.398947 0.332819
Si Si6 0.085911 0.528034 0.057264
Si Si7 0.000000 0.000000 0.714221
Si Si8 0.894473 0.760895 0.414136
O O1 0.887613 0.988017 0.102875
O O2 0.000000 0.000000 0.167544
O O3 0.887133 0.243052 0.906160
O O4 0.981151 0.438605 0.940351
O O5 0.878437 0.412562 0.872733
O O6 0.498505 0.675668 0.966524
O O7 0.350922 0.473420 0.956157
O O8 0.488241 0.523472 0.014155
O O9 0.327768 0.170820 0.756383
O O10 0.121963 0.055806 0.733504
O O11 0.547658 0.267360 0.332411
O O12 0.555617 0.441463 0.294005
O O13 0.132474 0.444647 0.062151
O O14 0.179505 0.655012 0.064095
#
# Coordination Sequence:
#
# PCOD9577559 Si02
#       8
#     6  18  18  18  18  18   6  18
#     4  12  24  45  63  99 142 188 238 279 363 417
#     4  12  26  44  69 107 140 188 239 290 356 432
#     4  11  25  45  70 100 142 181 234 291 354 424
#     4  10  23  45  65  99 138 181 227 282 361 409
#     4  10  21  48  71  93 147 186 236 294 350 425
#     4  12  24  46  68 104 138 180 237 292 352 419
#     4   9  21  42  69  87 136 188 217 288 342 429
#     4  12  26  43  75 105 137 188 240 292 358 421
#
# _framework density 20.931788999999998
#
# number of rings (size 3 to 8) (size 9 to 14) (size 15 to 20)
#    0.300    0.600    4.500    2.400    2.100    7.200 
#    0.000    0.000    0.000    0.000    0.000    0.000 
#    0.000    0.000    0.000    0.000    0.000    0.000 
#
# Total GULP energy -223633.126419 kJ/mol
# GULP energy per Si atom -5590.828160 kJ/mol
# Density = 2.088415 g / cm^3
# Si number density = 20.931789 Si / 1000 Ang^3
#
#
#
# Elastic Constant Matrix: (Units=GPa)
#
#
# Indices 1 2 3 4 5 6 
#
# 1 53.2396 0.6934 -7.6533 -5.2623 0.0000 0.0000
# 2 0.6934 53.2396 -7.6533 5.2623 0.0000 0.0000
# 3 -7.6533 -7.6533 72.0136 0.0000 0.0000 0.0000
# 4 -5.2623 5.2623 0.0000 17.5480 0.0000 0.0000
# 5 0.0000 0.0000 0.0000 0.0000 17.5480 -5.2623
# 6 0.0000 0.0000 0.0000 0.0000 -5.2623 26.2731
#
#
#
# Elastic Compliance Matrix: (Units=1/GPa)
#
#
# Indices 1 2 3 4 5 6 
#
# 1 0.019683 -0.000564 0.002032 0.006072 0.000000 0.000000
# 2 -0.000564 0.019683 0.002032 -0.006072 0.000000 0.000000
# 3 0.002032 0.002032 0.014318 0.000000 0.000000 0.000000
# 4 0.006072 -0.006072 0.000000 0.060628 0.000000 0.000000
# 5 0.000000 0.000000 0.000000 0.000000 0.060628 0.012143
# 6 0.000000 0.000000 0.000000 0.000000 0.012143 0.040494
#
#
# Mechanical properties :
#
#
# Convention : Reuss Voigt Hill
#
# Bulk Modulus (GPa) = 16.47947 16.58518 16.53232
# Shear Modulus (GPa) = 21.86628 25.14755 23.50692
#
# Velocity S-wave (km/s) = 3.23560 3.46989 3.35479
# Velocity P-wave (km/s) = 4.67428 4.89838 4.78764
#
# Compressibility (1/GPa) = 0.06068156
#
# Stress axis : x y z
#
# Youngs Moduli (GPa) = 50.80639 50.80639 69.84158
#
# Poissons Ratio (x) = 0.02868 -0.14190
# Poissons Ratio (y) = 0.02868 -0.14190
# Poissons Ratio (z) = -0.10323 -0.10323
#
# Static dielectric constant tensor:
#      x y z
#    x 1.733030 0.000000 0.000000 
#    y 0.000000 1.733030 0.000000 
#    z 0.000000 0.000000 1.739270 
# 
# From -- ./inp_files/2459.got.cif
#   From: 2010.05.17/outbox.cif.g08.bks.cpg/sg161_cif.got.tgz:2459.got - 2010.05.20 10:52:32.
