data_PCOD9577061
_publ_section_title
;
Structure prediction by ZEFSAII (Michael W. Deem and Ramdas Pophale) SiO2 
 PCOD9577061
Probable space group: R 3 2
;
_chemical_formula_sum "Si O2"
_cell_formula_units_Z 126
_cell_length_a 19.874762
_cell_length_b 19.874762
_cell_length_c 18.576734
_cell_angle_alpha 90.000000
_cell_angle_beta 90.000000
_cell_angle_gamma 120.000000
_cell_volume 6354.828982
_symmetry_space_group_name_H-M "R 3 2"
_symmetry_group_IT_number 155
_symmetry_cell_setting 'hexagonal'
loop_
_space_group_symop_operation_xyz
x,y,z
-y,x-y,z
-x+y,-x,z
x-y,-y,-z
-x,-x+y,-z
y,x,-z
2/3+x,1/3+y,1/3+z
2/3-y,1/3+x-y,1/3+z
2/3-x+y,1/3-x,1/3+z
2/3+x-y,1/3-y,1/3-z
2/3-x,1/3-x+y,1/3-z
2/3+y,1/3+x,1/3-z
1/3+x,2/3+y,2/3+z
1/3-y,2/3+x-y,2/3+z
1/3-x+y,2/3-x,2/3+z
1/3+x-y,2/3-y,2/3-z
1/3-x,2/3-x+y,2/3-z
1/3+y,2/3+x,2/3-z
loop_
_atom_site_type_symbol
_atom_site_label
_atom_site_fract_x
_atom_site_fract_y
_atom_site_fract_z
Si Si1 0.585031 0.057267 0.868086
Si Si2 0.515036 0.138729 0.258606
Si Si3 0.621645 0.463549 0.671939
Si Si4 0.149812 0.697520 0.497431
Si Si5 0.955996 0.827197 0.667421
Si Si6 0.598760 0.565306 0.783628
Si Si7 0.853864 0.756371 0.180438
O O1 0.666667 0.120380 0.833334
O O2 0.590840 0.083904 0.951008
O O3 0.507637 0.050984 0.834314
O O4 0.572506 0.973147 0.846205
O O5 0.512709 0.179375 0.333334
O O6 0.592248 0.140693 0.226455
O O7 0.482257 0.173512 0.199817
O O8 0.451851 0.046965 0.258192
O O9 0.703260 0.466401 0.673079
O O10 0.552928 0.377300 0.689931
O O11 0.631365 0.529477 0.726460
O O12 0.595959 0.481187 0.595423
O O13 0.189346 0.712053 0.418854
O O14 0.103622 0.605356 0.507086
O O15 0.666667 0.629036 0.833334
O O16 0.792276 0.666667 0.166667
#
# Coordination Sequence:
#
# PCOD9577061 Si02
#       7
#    18  18  18  18  18  18  18
#     4  11  21  38  62  90 131 165 207 259 318 383
#     4  11  24  44  65  93 126 164 221 279 331 382
#     4  11  22  38  62  95 127 173 212 256 314 388
#     4  10  24  42  65  94 122 167 217 272 327 392
#     4  11  21  39  62  92 132 172 215 256 318 387
#     4  11  22  37  60  93 129 168 210 258 312 382
#     4  11  23  44  68  93 127 167 218 268 332 390
#
# _framework density 19.827442000000001
#
# number of rings (size 3 to 8) (size 9 to 14) (size 15 to 20)
#    0.000    1.143    4.286    2.429    0.000    0.571 
#    0.857    0.000    0.000    0.000    0.000    0.000 
#    0.000    0.000    0.000    0.000    0.000    0.000 
#
# Total GULP energy -234360.745317 kJ/mol
# GULP energy per Si atom -5580.017746 kJ/mol
# Density = 1.978231 g / cm^3
# Si number density = 19.827442 Si / 1000 Ang^3
#
#
#
# Elastic Constant Matrix: (Units=GPa)
#
#
# Indices 1 2 3 4 5 6 
#
# 1 -238.9834 318.6620 25.9178 68.4746 -0.0515 0.0000
# 2 318.6620 -238.9834 25.9178 -68.4746 0.0515 0.0000
# 3 25.9178 25.9178 57.6298 0.0000 0.0000 0.0000
# 4 68.4746 -68.4746 0.0000 4.6650 0.0000 0.0515
# 5 -0.0515 0.0515 0.0000 0.0000 4.6650 68.4746
# 6 0.0000 0.0000 0.0000 0.0515 68.4746 -278.8227
#
#
#
# Elastic Compliance Matrix: (Units=1/GPa)
#
#
# Indices 1 2 3 4 5 6 
#
# 1 0.008676 0.009065 -0.007979 0.005716 -0.000004 0.000000
# 2 0.009065 0.008676 -0.007979 -0.005716 0.000004 0.000000
# 3 -0.007979 -0.007979 0.024529 0.000000 0.000000 0.000000
# 4 0.005716 -0.005716 0.000000 0.046552 0.000000 0.000009
# 5 -0.000004 0.000004 0.000000 0.000000 0.046552 0.011432
# 6 0.000000 0.000000 0.000000 0.000009 0.011432 -0.000779
#
#
# Mechanical properties :
#
#
# Convention : Reuss Voigt Hill
#
# Bulk Modulus (GPa) = 35.59225 35.62869 35.61047
# Shear Modulus (GPa) = 31.77527 -106.62085 -37.42279
#
# Velocity S-wave (km/s) = 4.00758 -7.34106 -4.34916
# Velocity P-wave (km/s) = 6.27728 7.33801 2.68721
#
# Compressibility (1/GPa) = 0.02809601
#
# Stress axis : x y z
#
# Youngs Moduli (GPa) = 115.26331 115.26331 40.76874
#
# Poissons Ratio (x) = -1.04489 0.32528
# Poissons Ratio (y) = -1.04489 0.32528
# Poissons Ratio (z) = 0.91965 0.91965
#
# Static dielectric constant tensor:
#      x y z
#    x 1.704540 0.000000 0.000000 
#    y 0.000000 1.704540 0.000000 
#    z 0.000000 0.000000 1.632980 
# 
# From -- ./inp_files/6257.got.cif
#   From: 2010.05.17/outbox.cif.g08.bks.cpg/sg155_4_cif.got.tgz:6257.got - 2010.05.20 10:44:35.
