data_PCOD9577177
_publ_section_title
;
Structure prediction by ZEFSAII (Michael W. Deem and Ramdas Pophale) SiO2 
 PCOD9577177
Probable space group: R 3 2
;
_chemical_formula_sum "Si O2"
_cell_formula_units_Z 39
_cell_length_a 8.982112
_cell_length_b 8.982112
_cell_length_c 20.572779
_cell_angle_alpha 90.000000
_cell_angle_beta 90.000000
_cell_angle_gamma 120.000000
_cell_volume 1437.409546
_symmetry_space_group_name_H-M "R 3 2"
_symmetry_group_IT_number 155
_symmetry_cell_setting 'hexagonal'
loop_
_space_group_symop_operation_xyz
x,y,z
-y,x-y,z
-x+y,-x,z
x-y,-y,-z
-x,-x+y,-z
y,x,-z
2/3+x,1/3+y,1/3+z
2/3-y,1/3+x-y,1/3+z
2/3-x+y,1/3-x,1/3+z
2/3+x-y,1/3-y,1/3-z
2/3-x,1/3-x+y,1/3-z
2/3+y,1/3+x,1/3-z
1/3+x,2/3+y,2/3+z
1/3-y,2/3+x-y,2/3+z
1/3-x+y,2/3-x,2/3+z
1/3+x-y,2/3-y,2/3-z
1/3-x,2/3-x+y,2/3-z
1/3+y,2/3+x,2/3-z
loop_
_atom_site_type_symbol
_atom_site_label
_atom_site_fract_x
_atom_site_fract_y
_atom_site_fract_z
Si Si1 0.000000 0.000000 0.265954
Si Si2 0.870203 0.203537 0.666667
Si Si3 0.333335 0.666668 0.779534
Si Si4 0.166615 0.870497 0.548608
O O1 0.138193 0.190349 0.290029
O O2 0.000000 0.000000 0.189896
O O3 0.890695 0.347041 0.719958
O O4 0.382335 0.524906 0.760915
O O5 0.000000 0.807286 0.500000
O O6 0.318604 0.000000 0.500000
#
# Coordination Sequence:
#
# PCOD9577177 Si02
#       4
#     6   9   6  18
#     4  12  27  51  77 116 162 207 280 344 418 513
#     4  12  28  48  86 118 158 224 276 346 432 508
#     4  12  27  49  73 109 166 201 262 353 409 489
#     4  12  26  49  76 112 158 208 272 339 412 502
#
# _framework density 27.132141000000001
#
# number of rings (size 3 to 8) (size 9 to 14) (size 15 to 20)
#    0.000    0.000    4.615    4.615    0.000    1.846 
#    0.000    0.000    0.000    0.923    0.000    0.000 
#    0.000    0.000    0.000    0.000    0.000    0.000 
#
# Total GULP energy -72534.772620 kJ/mol
# GULP energy per Si atom -5579.597894 kJ/mol
# Density = 2.707039 g / cm^3
# Si number density = 27.132141 Si / 1000 Ang^3
#
#
#
# Elastic Constant Matrix: (Units=GPa)
#
#
# Indices 1 2 3 4 5 6 
#
# 1 98.5117 51.7925 13.1190 -14.4476 -0.0001 0.0000
# 2 51.7925 98.5129 13.1191 14.4476 0.0001 0.0000
# 3 13.1190 13.1191 113.9156 0.0004 0.0000 0.0000
# 4 -14.4476 14.4476 0.0004 46.6748 0.0000 0.0001
# 5 -0.0001 0.0001 0.0000 0.0000 46.6755 -14.4477
# 6 0.0000 0.0000 0.0000 0.0001 -14.4477 23.3588
#
#
#
# Elastic Compliance Matrix: (Units=1/GPa)
#
#
# Indices 1 2 3 4 5 6 
#
# 1 0.016631 -0.009841 -0.000782 0.008194 0.000000 0.000000
# 2 -0.009841 0.016631 -0.000782 -0.008194 0.000000 0.000000
# 3 -0.000782 -0.000782 0.008959 0.000000 0.000000 0.000000
# 4 0.008194 -0.008194 0.000000 0.026498 0.000000 0.000000
# 5 0.000000 0.000000 0.000000 0.000000 0.026497 0.016389
# 6 0.000000 0.000000 0.000000 0.000000 0.016389 0.052947
#
#
# Mechanical properties :
#
#
# Convention : Reuss Voigt Hill
#
# Bulk Modulus (GPa) = 51.51955 51.88906 51.70431
# Shear Modulus (GPa) = 28.17813 38.86913 33.52363
#
# Velocity S-wave (km/s) = 3.22615 3.78906 3.51888
# Velocity P-wave (km/s) = 5.73646 6.18940 5.96723
#
# Compressibility (1/GPa) = 0.01941011
#
# Stress axis : x y z
#
# Youngs Moduli (GPa) = 60.12878 60.12955 111.62546
#
# Poissons Ratio (x) = 0.59175 0.08729
# Poissons Ratio (y) = 0.59174 0.08728
# Poissons Ratio (z) = 0.04702 0.04702
#
# Static dielectric constant tensor:
#      x y z
#    x 2.176180 0.000000 0.000000 
#    y 0.000000 2.176170 0.000000 
#    z 0.000000 0.000000 2.043070 
# 
# From -- ./inp_files/7677.got.cif
#   From: 2010.05.17/outbox.cif.g08.bks.cpg/sg155_4_cif.got.tgz:7677.got - 2010.05.20 10:44:35.
