data_PCOD9577091
_publ_section_title
;
Structure prediction by ZEFSAII (Michael W. Deem and Ramdas Pophale) SiO2 
 PCOD9577091
Probable space group: R 3 2
;
_chemical_formula_sum "Si O2"
_cell_formula_units_Z 117
_cell_length_a 14.135145
_cell_length_b 14.135145
_cell_length_c 31.832862
_cell_angle_alpha 90.000000
_cell_angle_beta 90.000000
_cell_angle_gamma 120.000000
_cell_volume 5508.163893
_symmetry_space_group_name_H-M "R 3 2"
_symmetry_group_IT_number 155
_symmetry_cell_setting 'hexagonal'
loop_
_space_group_symop_operation_xyz
x,y,z
-y,x-y,z
-x+y,-x,z
x-y,-y,-z
-x,-x+y,-z
y,x,-z
2/3+x,1/3+y,1/3+z
2/3-y,1/3+x-y,1/3+z
2/3-x+y,1/3-x,1/3+z
2/3+x-y,1/3-y,1/3-z
2/3-x,1/3-x+y,1/3-z
2/3+y,1/3+x,1/3-z
1/3+x,2/3+y,2/3+z
1/3-y,2/3+x-y,2/3+z
1/3-x+y,2/3-x,2/3+z
1/3+x-y,2/3-y,2/3-z
1/3-x,2/3-x+y,2/3-z
1/3+y,2/3+x,2/3-z
loop_
_atom_site_type_symbol
_atom_site_label
_atom_site_fract_x
_atom_site_fract_y
_atom_site_fract_z
Si Si1 0.590378 0.107759 0.139281
Si Si2 0.124255 0.554595 0.764696
Si Si3 0.230939 0.436008 0.729580
Si Si4 0.375852 0.900887 0.257095
Si Si5 0.832778 0.033612 0.548109
Si Si6 0.333334 0.960180 0.666667
Si Si7 0.081256 0.503414 0.459854
O O1 0.594025 0.117284 0.189551
O O2 0.481406 0.106297 0.123781
O O3 0.703668 0.211551 0.127587
O O4 0.584706 0.996300 0.124525
O O5 0.221000 0.531264 0.754240
O O6 0.124152 0.639373 0.730669
O O7 0.019364 0.433227 0.764342
O O8 0.155546 0.407370 0.688966
O O9 0.162605 0.327343 0.755959
O O10 0.273888 0.803157 0.233751
O O11 0.470509 0.869327 0.247732
O O12 0.349487 0.938040 0.302262
O O13 0.846337 0.000000 0.500000
O O14 0.000000 0.462124 0.500000
#
# Coordination Sequence:
#
# PCOD9577091 Si02
#       7
#    18  18  18  18  18   9  18
#     4  12  22  37  62 101 143 176 214 283 367 438
#     4  11  20  37  63  99 140 178 230 284 359 421
#     4  11  23  40  66  96 135 187 234 289 340 418
#     4  11  25  44  68 103 141 183 234 294 360 424
#     4  12  24  41  72 107 139 175 231 306 369 421
#     4  10  26  50  68  94 140 194 246 284 342 424
#     4  12  23  38  62  95 137 182 225 288 362 436
#
# _framework density 21.241199000000002
#
# number of rings (size 3 to 8) (size 9 to 14) (size 15 to 20)
#    0.000    0.615    4.615    4.615    0.000    2.462 
#    0.000    4.615    0.000    0.000    0.000    0.000 
#    0.000    0.000    0.000    0.000    0.000    0.000 
#
# Total GULP energy -217272.563247 kJ/mol
# GULP energy per Si atom -5571.091365 kJ/mol
# Density = 2.119285 g / cm^3
# Si number density = 21.241199 Si / 1000 Ang^3
#
#
#
# Elastic Constant Matrix: (Units=GPa)
#
#
# Indices 1 2 3 4 5 6 
#
# 1 105.7672 30.8842 31.8781 4.2470 -0.0002 0.0000
# 2 30.8842 105.7672 31.8781 -4.2470 0.0002 0.0000
# 3 31.8781 31.8781 86.9589 0.0000 0.0000 0.0000
# 4 4.2470 -4.2470 0.0000 27.9068 0.0000 0.0002
# 5 -0.0002 0.0002 0.0000 0.0000 27.9068 4.2470
# 6 0.0000 0.0000 0.0000 0.0002 4.2470 37.4415
#
#
#
# Elastic Compliance Matrix: (Units=1/GPa)
#
#
# Indices 1 2 3 4 5 6 
#
# 1 0.011208 -0.002380 -0.003236 -0.002068 0.000000 0.000000
# 2 -0.002380 0.011208 -0.003236 0.002068 0.000000 0.000000
# 3 -0.003236 -0.003236 0.013872 0.000000 0.000000 0.000000
# 4 -0.002068 0.002068 0.000000 0.036463 0.000000 0.000000
# 5 0.000000 0.000000 0.000000 0.000000 0.036463 -0.004136
# 6 0.000000 0.000000 0.000000 0.000000 -0.004136 0.027177
#
#
# Mechanical properties :
#
#
# Convention : Reuss Voigt Hill
#
# Bulk Modulus (GPa) = 53.81187 54.19712 54.00450
# Shear Modulus (GPa) = 31.19303 32.24123 31.71713
#
# Velocity S-wave (km/s) = 3.83628 3.90020 3.86837
# Velocity P-wave (km/s) = 6.70906 6.77145 6.74033
#
# Compressibility (1/GPa) = 0.01858326
#
# Stress axis : x y z
#
# Youngs Moduli (GPa) = 89.22004 89.22004 72.08587
#
# Poissons Ratio (x) = 0.21239 0.23328
# Poissons Ratio (y) = 0.21239 0.23328
# Poissons Ratio (z) = 0.28873 0.28873
#
# Static dielectric constant tensor:
#      x y z
#    x 1.907850 0.000000 0.000000 
#    y 0.000000 1.907850 0.000000 
#    z 0.000000 0.000000 1.652830 
# 
# From -- ./inp_files/8483.got.cif
#   From: 2010.05.17/outbox.cif.g08.bks.cpg/sg155_5_cif.got.tgz:8483.got - 2010.05.20 10:44:35.
