data_PCOD9577249
_publ_section_title
;
Structure prediction by ZEFSAII (Michael W. Deem and Ramdas Pophale) SiO2 
 PCOD9577249
Probable space group: P 3 1 M
;
_chemical_formula_sum "Si O2"
_cell_formula_units_Z 48
_cell_length_a 17.607813
_cell_length_b 17.607813
_cell_length_c 9.234745
_cell_angle_alpha 90.000000
_cell_angle_beta 90.000000
_cell_angle_gamma 120.000000
_cell_volume 2479.512910
_symmetry_space_group_name_H-M "P 3 1 M"
_symmetry_group_IT_number 157
_symmetry_cell_setting 'hexagonal'
loop_
_space_group_symop_operation_xyz
x,y,z
-y,x-y,z
-x+y,-x,z
y,x,z
x-y,-y,z
-x,-x+y,z
loop_
_atom_site_type_symbol
_atom_site_label
_atom_site_fract_x
_atom_site_fract_y
_atom_site_fract_z
Si Si1 0.480269 0.378607 0.809640
Si Si2 0.101547 0.814530 0.460849
Si Si3 0.248458 0.902671 0.238773
Si Si4 0.449789 0.099803 0.782302
Si Si5 0.895630 0.101769 0.770487
Si Si6 0.850176 0.353207 0.449988
Si Si7 0.374839 0.201931 0.954711
Si Si8 0.490928 0.316566 0.497051
O O1 0.421878 0.421878 0.763007
O O2 0.574381 0.459576 0.851308
O O3 0.427308 0.305751 0.929276
O O4 0.495318 0.334391 0.668799
O O5 0.170856 0.884581 0.350195
O O6 0.116832 0.856972 0.620436
O O7 0.122958 0.735136 0.460374
O O8 0.000000 0.776253 0.423039
O O9 0.321415 0.893590 0.330279
O O10 0.291949 0.000000 0.175277
O O11 0.206864 0.829883 0.115176
O O12 0.464882 0.112039 0.609594
O O13 0.420792 0.163385 0.850781
O O14 0.376338 0.000000 0.810430
O O15 0.843481 0.118721 0.897699
O O16 0.000000 0.164801 0.779295
O O17 0.868921 0.000000 0.771687
O O18 0.749050 0.275575 0.458953
O O19 0.858380 0.447160 0.426574
#
# Coordination Sequence:
#
# PCOD9577249 Si02
#       8
#     6   6   6   6   6   6   6   6
#     4  10  20  36  59  89 119 147 193 249 301 358
#     4  10  21  38  61  88 118 156 204 254 306 363
#     4  11  24  40  58  84 120 162 204 244 300 365
#     4  10  20  36  61  87 113 152 199 246 293 348
#     4  11  22  38  64  93 124 158 203 259 310 364
#     4  10  20  36  59  87 118 153 195 247 293 351
#     4  12  22  40  59  86 120 162 198 246 300 367
#     4  10  18  34  60  90 118 150 197 249 304 356
#
# _framework density 19.358642
#
# number of rings (size 3 to 8) (size 9 to 14) (size 15 to 20)
#    0.000    1.500    2.500    3.750    0.000    2.500 
#    5.250    0.000    0.000    0.250    0.000    0.000 
#    0.000    0.000    0.000    0.000    0.000    0.000 
#
# Total GULP energy -268074.711795 kJ/mol
# GULP energy per Si atom -5584.889829 kJ/mol
# Density = 1.931458 g / cm^3
# Si number density = 19.358642 Si / 1000 Ang^3
#
#
#
# Elastic Constant Matrix: (Units=GPa)
#
#
# Indices 1 2 3 4 5 6 
#
# 1 66.7071 22.2780 10.0004 0.0000 -1.0136 0.0000
# 2 22.2780 66.7071 10.0004 0.0000 1.0136 0.0000
# 3 10.0004 10.0004 45.5122 0.0000 0.0000 0.0000
# 4 0.0000 0.0000 0.0000 7.3319 0.0000 1.0136
# 5 -1.0136 1.0136 0.0000 0.0000 7.3319 0.0000
# 6 0.0000 0.0000 0.0000 1.0136 0.0000 22.2145
#
#
#
# Elastic Compliance Matrix: (Units=1/GPa)
#
#
# Indices 1 2 3 4 5 6 
#
# 1 0.017236 -0.005414 -0.002598 0.000000 0.003131 0.000000
# 2 -0.005414 0.017236 -0.002598 0.000000 -0.003131 0.000000
# 3 -0.002598 -0.002598 0.023114 0.000000 0.000000 0.000000
# 4 0.000000 0.000000 0.000000 0.137255 0.000000 -0.006263
# 5 0.003131 -0.003131 0.000000 0.000000 0.137255 0.000000
# 6 0.000000 0.000000 0.000000 -0.006263 0.000000 0.045301
#
#
# Mechanical properties :
#
#
# Convention : Reuss Voigt Hill
#
# Bulk Modulus (GPa) = 27.49766 29.27598 28.38682
# Shear Modulus (GPa) = 12.17317 16.48552 14.32934
#
# Velocity S-wave (km/s) = 2.51036 2.92136 2.72362
# Velocity P-wave (km/s) = 4.75791 5.15120 4.95846
#
# Compressibility (1/GPa) = 0.03636673
#
# Stress axis : x y z
#
# Youngs Moduli (GPa) = 58.01753 58.01753 43.26440
#
# Poissons Ratio (x) = 0.31413 0.11238
# Poissons Ratio (y) = 0.31413 0.11238
# Poissons Ratio (z) = 0.15071 0.15071
#
# Static dielectric constant tensor:
#      x y z
#    x 1.684330 0.000000 0.000000 
#    y 0.000000 1.684330 0.000000 
#    z 0.000000 0.000000 1.659830 
# 
# From -- ./inp_files/462.got.cif
#   From: 2010.05.17/outbox.cif.g08.bks.cpg/sg157_cif.got.tgz:462.got - 2010.05.20 10:49:36.
