data_PCOD9577717
_publ_section_title
;
Structure prediction by ZEFSAII (Michael W. Deem and Ramdas Pophale) SiO2 
 PCOD9577717
Probable space group: P -3 1 M 
;
_chemical_formula_sum "Si O2"
_cell_formula_units_Z 90
_cell_length_a 17.161184
_cell_length_b 17.161184
_cell_length_c 18.951938
_cell_angle_alpha 90.000000
_cell_angle_beta 90.000000
_cell_angle_gamma 120.000000
_cell_volume 4833.689554
_symmetry_space_group_name_H-M "P -3 1 M "
_symmetry_group_IT_number 162
_symmetry_cell_setting 'hexagonal'
loop_
_space_group_symop_operation_xyz
x,y,z
-y,x-y,z
-x+y,-x,z
-y,-x,-z
-x+y,y,-z
x,x-y,-z
-x,-y,-z
y,-x+y,-z
x-y,x,-z
y,x,z
x-y,-y,z
-x,-x+y,z
loop_
_atom_site_type_symbol
_atom_site_label
_atom_site_fract_x
_atom_site_fract_y
_atom_site_fract_z
Si Si1 0.608145 0.216290 0.500000
Si Si2 0.105900 0.798320 0.188193
Si Si3 0.662559 0.764580 0.554565
Si Si4 0.495105 0.894236 0.369790
Si Si5 0.520429 0.108962 0.075051
Si Si6 0.769118 0.105700 0.937813
Si Si7 0.898467 0.104440 0.671070
Si Si8 0.381082 0.890477 0.789709
O O1 0.714886 0.285115 0.500000
O O2 0.579000 0.157796 0.570635
O O3 0.168206 0.869254 0.130386
O O4 0.116604 0.847702 0.261874
O O5 0.131190 0.720125 0.196065
O O6 0.000000 0.748319 0.168443
O O7 0.635105 0.817553 0.500000
O O8 0.707308 0.707308 0.523456
O O9 0.581101 0.694209 0.603892
O O10 0.737788 0.842051 0.603186
O O11 0.470775 0.860463 0.289275
O O12 0.527631 0.000000 0.371090
O O13 0.437711 0.127035 0.077241
O O14 0.582244 0.141484 0.144781
O O15 0.475328 0.000000 0.074966
O O16 0.570837 0.141674 0.000000
O O17 0.721732 0.000000 0.955671
O O18 0.831543 0.168458 0.000000
O O19 0.000000 0.123041 0.677254
O O20 0.828351 0.000000 0.668032
O O21 0.440067 0.000000 0.787648
#
# Coordination Sequence:
#
# PCOD9577717 Si02
#       8
#     6  12  12  12  12  12  12  12
#     4  10  23  40  56  80 116 152 186 230 291 362
#     4  10  19  35  58  83 113 154 197 241 291 343
#     4  10  19  32  52  78 110 147 193 243 288 337
#     4  10  19  37  61  84 109 147 195 239 289 351
#     4   9  18  34  57  83 109 138 179 231 290 346
#     4  11  22  36  55  84 116 153 197 242 287 343
#     4  10  19  32  50  78 115 156 198 245 297 347
#     4   9  17  34  60  85 108 140 184 237 292 351
#
# _framework density 18.619318
#
# number of rings (size 3 to 8) (size 9 to 14) (size 15 to 20)
#    0.133    2.000    1.333    2.733    0.000    2.133 
#    2.400    0.000    0.000   14.933    0.000    0.000 
#    0.000    0.000    0.000    0.000    0.000    0.000 
#
# Total GULP energy -501999.100884 kJ/mol
# GULP energy per Si atom -5577.767788 kJ/mol
# Density = 1.857694 g / cm^3
# Si number density = 18.619318 Si / 1000 Ang^3
#
#
#
# Elastic Constant Matrix: (Units=GPa)
#
#
# Indices 1 2 3 4 5 6 
#
# 1 61.4066 47.1912 40.2482 0.0003 8.4796 0.0000
# 2 47.1912 61.4066 40.2482 -0.0003 -8.4796 0.0000
# 3 40.2482 40.2482 108.5805 0.0000 0.0000 0.0000
# 4 0.0003 -0.0003 0.0000 18.4893 0.0000 -8.4796
# 5 8.4796 -8.4796 0.0000 0.0000 18.4893 0.0003
# 6 0.0000 0.0000 0.0000 -8.4796 0.0003 7.1077
#
#
#
# Elastic Compliance Matrix: (Units=1/GPa)
#
#
# Indices 1 2 3 4 5 6 
#
# 1 0.084018 -0.071321 -0.004706 -0.000003 -0.071242 0.000000
# 2 -0.071321 0.084018 -0.004706 0.000003 0.071242 0.000000
# 3 -0.004706 -0.004706 0.012699 0.000000 0.000000 0.000000
# 4 -0.000003 0.000003 0.000000 0.119432 0.000000 0.142484
# 5 -0.071242 0.071242 0.000000 0.000000 0.119432 -0.000005
# 6 0.000000 0.000000 0.000000 0.142484 -0.000005 0.310678
#
#
# Mechanical properties :
#
#
# Convention : Reuss Voigt Hill
#
# Bulk Modulus (GPa) = 51.90249 54.08543 52.99396
# Shear Modulus (GPa) = 5.56689 15.73099 10.64894
#
# Velocity S-wave (km/s) = 1.73099 2.90983 2.39410
# Velocity P-wave (km/s) = 5.65077 6.35614 6.01381
#
# Compressibility (1/GPa) = 0.01926690
#
# Stress axis : x y z
#
# Youngs Moduli (GPa) = 11.90221 11.90221 78.74704
#
# Poissons Ratio (x) = 0.84888 0.37062
# Poissons Ratio (y) = 0.84888 0.37062
# Poissons Ratio (z) = 0.05602 0.05602
#
# Static dielectric constant tensor:
#      x y z
#    x 1.639690 0.000000 0.000000 
#    y 0.000000 1.639690 0.000000 
#    z 0.000000 0.000000 1.648230 
# 
# From -- ./inp_files/3651.got.cif
#   From: 2010.05.17/outbox.cif.g08.bks.cpg/sg162_2_cif.got.tgz:3651.got - 2010.05.20 10:53:12.
