data_PCOD9577745
_publ_section_title
;
Structure prediction by ZEFSAII (Michael W. Deem and Ramdas Pophale) SiO2 
 PCOD9577745
Probable space group: P -3 1 M 
;
_chemical_formula_sum "Si O2"
_cell_formula_units_Z 54
_cell_length_a 20.320476
_cell_length_b 20.320476
_cell_length_c 7.656511
_cell_angle_alpha 90.000000
_cell_angle_beta 90.000000
_cell_angle_gamma 120.000000
_cell_volume 2737.973853
_symmetry_space_group_name_H-M "P -3 1 M "
_symmetry_group_IT_number 162
_symmetry_cell_setting 'hexagonal'
loop_
_space_group_symop_operation_xyz
x,y,z
-y,x-y,z
-x+y,-x,z
-y,-x,-z
-x+y,y,-z
x,x-y,-z
-x,-y,-z
y,-x+y,-z
x-y,x,-z
y,x,z
x-y,-y,z
-x,-x+y,z
loop_
_atom_site_type_symbol
_atom_site_label
_atom_site_fract_x
_atom_site_fract_y
_atom_site_fract_z
Si Si1 0.804014 0.508660 0.296160
Si Si2 0.723417 0.810503 0.158267
Si Si3 0.627877 0.191547 0.811251
Si Si4 0.577805 0.660873 0.019195
Si Si5 0.821015 0.178986 0.500000
O O1 0.811388 0.434557 0.319455
O O2 0.713944 0.473116 0.257882
O O3 0.850515 0.547279 0.121548
O O4 0.841406 0.578330 0.432423
O O5 0.790887 0.790887 0.179515
O O6 0.696189 0.830684 0.337962
O O7 0.738470 0.869235 0.000000
O O8 0.648845 0.731583 0.107142
O O9 0.609378 0.218756 0.000000
O O10 0.616612 0.109019 0.850707
O O11 0.606442 0.606442 0.943616
#
# Coordination Sequence:
#
# PCOD9577745 Si02
#       5
#    12  12  12  12   6
#     4  11  22  36  57  84 126 167 230 283 342 392
#     4  11  23  44  73 102 136 175 218 264 323 398
#     4  10  19  33  56  81 115 167 221 274 328 390
#     4  10  19  36  61  87 120 167 217 271 333 394
#     4  12  24  40  64  96 135 166 219 276 336 394
#
# _framework density 19.722614
#
# number of rings (size 3 to 8) (size 9 to 14) (size 15 to 20)
#    0.000    1.333    4.444    3.111    0.000    8.444 
#    0.000    0.000    0.000    2.889    0.000    0.778 
#    0.000    0.000    0.000    0.000    0.000    0.000 
#
# Total GULP energy -300819.124259 kJ/mol
# GULP energy per Si atom -5570.724523 kJ/mol
# Density = 1.967772 g / cm^3
# Si number density = 19.722614 Si / 1000 Ang^3
#
#
#
# Elastic Constant Matrix: (Units=GPa)
#
#
# Indices 1 2 3 4 5 6 
#
# 1 72.4264 40.7743 40.0227 0.0001 6.0457 0.0000
# 2 40.7743 72.4264 40.0227 -0.0001 -6.0457 0.0000
# 3 40.0227 40.0227 106.5342 0.0000 0.0000 0.0000
# 4 0.0001 -0.0001 0.0000 0.8716 0.0000 -6.0457
# 5 6.0457 -6.0457 0.0000 0.0000 0.8716 0.0001
# 6 0.0000 0.0000 0.0000 -6.0457 0.0001 15.8260
#
#
#
# Elastic Compliance Matrix: (Units=1/GPa)
#
#
# Indices 1 2 3 4 5 6 
#
# 1 -0.003560 0.015589 -0.004519 0.000003 0.132830 0.000000
# 2 0.015589 -0.003560 -0.004519 -0.000003 -0.132830 0.000000
# 3 -0.004519 -0.004519 0.012782 0.000000 0.000000 0.000000
# 4 0.000003 -0.000003 0.000000 -0.695425 0.000000 -0.265661
# 5 0.132830 -0.132830 0.000000 0.000000 -0.695425 0.000005
# 6 0.000000 0.000000 0.000000 -0.265661 0.000005 -0.038298
#
#
# Mechanical properties :
#
#
# Convention : Reuss Voigt Hill
#
# Bulk Modulus (GPa) = 53.29285 54.78073 54.03679
# Shear Modulus (GPa) = -3.49569 12.21832 4.36132
#
# Velocity S-wave (km/s) = -1.33277 2.49169 1.48867
# Velocity P-wave (km/s) = 4.97106 6.00949 5.51477
#
# Compressibility (1/GPa) = 0.01876424
#
# Stress axis : x y z
#
# Youngs Moduli (GPa) = -280.90765 -280.90764 78.23369
#
# Poissons Ratio (x) = 4.37917 0.35356
# Poissons Ratio (y) = 4.37917 0.35356
# Poissons Ratio (z) = -1.26948 -1.26948
#
# Static dielectric constant tensor:
#      x y z
#    x 1.715730 0.000000 0.000000 
#    y 0.000000 1.715730 0.000000 
#    z 0.000000 0.000000 1.800380 
# 
# From -- ./inp_files/1466.got.cif
#   From: 2010.05.17/outbox.cif.g08.bks.cpg/sg162_1_cif.got.tgz:1466.got - 2010.05.20 10:53:12.
