data_PCOD9577488
_publ_section_title
;
Structure prediction by ZEFSAII (Michael W. Deem and Ramdas Pophale) SiO2 
 PCOD9577488
Probable space group: R 3 M
;
_chemical_formula_sum "Si O2"
_cell_formula_units_Z 108
_cell_length_a 18.172637
_cell_length_b 18.172637
_cell_length_c 17.239661
_cell_angle_alpha 90.000000
_cell_angle_beta 90.000000
_cell_angle_gamma 120.000000
_cell_volume 4930.548743
_symmetry_space_group_name_H-M "R 3 M"
_symmetry_group_IT_number 160
_symmetry_cell_setting 'hexagonal'
loop_
_space_group_symop_operation_xyz
x,y,z
-y,x-y,z
-x+y,-x,z
-x+y,y,z
x,x-y,z
-y,-x,z
2/3+x,1/3+y,1/3+z
2/3-y,1/3+x-y,1/3+z
2/3-x+y,1/3-x,1/3+z
2/3-x+y,1/3+y,1/3+z
2/3+x,1/3+x-y,1/3+z
2/3-y,1/3-x,1/3+z
1/3+x,2/3+y,2/3+z
1/3-y,2/3+x-y,2/3+z
1/3-x+y,2/3-x,2/3+z
1/3-x+y,2/3+y,2/3+z
1/3+x,2/3+x-y,2/3+z
1/3-y,2/3-x,2/3+z
loop_
_atom_site_type_symbol
_atom_site_label
_atom_site_fract_x
_atom_site_fract_y
_atom_site_fract_z
Si Si1 0.065982 0.758578 0.952195
Si Si2 0.502041 0.836812 0.930614
Si Si3 0.168757 0.000011 0.078371
Si Si4 0.164578 0.666656 0.351285
Si Si5 0.425245 0.025931 0.144127
Si Si6 0.497959 0.163189 0.832374
O O1 0.151327 0.848674 0.933719
O O2 0.098535 0.692228 0.963387
O O3 0.024740 0.773430 0.028261
O O4 0.000002 0.729881 0.881494
O O5 0.425068 0.850136 0.956345
O O6 0.481057 0.740529 0.945971
O O7 0.512298 0.849254 0.837275
O O8 0.071341 0.928660 0.061101
O O9 0.185197 0.092599 0.058001
O O10 0.148137 0.574069 0.371657
O O11 0.261994 0.738007 0.368556
O O12 0.106764 0.691407 0.401393
O O13 0.154371 0.670288 0.259047
O O14 0.515342 0.030684 0.162605
O O15 0.358897 0.927027 0.132937
O O16 0.574931 0.149862 0.806643
O O17 0.518945 0.259472 0.817014
#
# Coordination Sequence:
#
# PCOD9577488 Si02
#       6
#    18  18  18  18  18  18
#     4  10  20  32  48  73 105 138 169 205 253 306
#     4   9  18  33  54  77 100 130 170 215 258 300
#     4   9  17  31  52  77 104 134 169 208 251 302
#     4   9  17  31  52  77 104 134 169 208 251 302
#     4  10  20  32  48  73 105 138 169 205 253 306
#     4   9  18  33  54  77 100 130 170 215 258 300
#
# _framework density 21.904254999999999
#
# number of rings (size 3 to 8) (size 9 to 14) (size 15 to 20)
#    0.000    2.667    0.000    1.667    0.000    4.667 
#    0.000    5.000    0.000    9.333    0.000    0.000 
#    0.000    0.000    0.000   45.000    0.000    0.000 
#
# Total GULP energy -201478.301554 kJ/mol
# GULP energy per Si atom -5596.619488 kJ/mol
# Density = 2.185440 g / cm^3
# Si number density = 21.904255 Si / 1000 Ang^3
#
#
#
# Elastic Constant Matrix: (Units=GPa)
#
#
# Indices 1 2 3 4 5 6 
#
# 1 158.6231 101.3657 62.3034 7.7951 0.0004 0.0000
# 2 101.3657 158.6231 62.3034 -7.7951 -0.0004 0.0000
# 3 62.3034 62.3034 73.8718 0.0000 0.0000 0.0000
# 4 7.7951 -7.7951 0.0000 15.3834 0.0000 -0.0004
# 5 0.0004 -0.0004 0.0000 0.0000 15.3834 7.7951
# 6 0.0000 0.0000 0.0000 -0.0004 7.7951 28.6287
#
#
#
# Elastic Compliance Matrix: (Units=1/GPa)
#
#
# Indices 1 2 3 4 5 6 
#
# 1 0.013358 -0.006902 -0.005445 -0.010266 -0.000001 0.000000
# 2 -0.006902 0.013358 -0.005445 0.010266 0.000001 0.000000
# 3 -0.005445 -0.005445 0.022722 0.000000 0.000000 0.000000
# 4 -0.010266 0.010266 0.000000 0.075410 0.000000 0.000001
# 5 -0.000001 0.000001 0.000000 0.000000 0.075410 -0.020533
# 6 0.000000 0.000000 0.000000 0.000001 -0.020533 0.040521
#
#
# Mechanical properties :
#
#
# Convention : Reuss Voigt Hill
#
# Bulk Modulus (GPa) = 72.18331 93.67367 82.92849
# Shear Modulus (GPa) = 17.79483 22.88876 20.34179
#
# Velocity S-wave (km/s) = 2.85334 3.23607 3.05071
# Velocity P-wave (km/s) = 6.62427 7.53795 7.09583
#
# Compressibility (1/GPa) = 0.01385362
#
# Stress axis : x y z
#
# Youngs Moduli (GPa) = 74.86048 74.86048 44.01112
#
# Poissons Ratio (x) = 0.51670 0.23964
# Poissons Ratio (y) = 0.51670 0.23964
# Poissons Ratio (z) = 0.40761 0.40761
#
# Static dielectric constant tensor:
#      x y z
#    x 1.777360 0.000000 0.000000 
#    y 0.000000 1.777360 0.000000 
#    z 0.000000 0.000000 1.788450 
# 
# From -- ./inp_files/3314.got.cif
#   From: 2010.05.17/outbox.cif.g08.bks.cpg/sg160_2_cif.got.tgz:3314.got - 2010.05.20 10:51:19.
