data_PCOD9577113
_publ_section_title
;
Structure prediction by ZEFSAII (Michael W. Deem and Ramdas Pophale) SiO2 
 PCOD9577113
Probable space group: R 3 2
;
_chemical_formula_sum "Si O2"
_cell_formula_units_Z 90
_cell_length_a 16.283893
_cell_length_b 16.283893
_cell_length_c 16.924436
_cell_angle_alpha 90.000000
_cell_angle_beta 90.000000
_cell_angle_gamma 120.000000
_cell_volume 3886.523666
_symmetry_space_group_name_H-M "R 3 2"
_symmetry_group_IT_number 155
_symmetry_cell_setting 'hexagonal'
loop_
_space_group_symop_operation_xyz
x,y,z
-y,x-y,z
-x+y,-x,z
x-y,-y,-z
-x,-x+y,-z
y,x,-z
2/3+x,1/3+y,1/3+z
2/3-y,1/3+x-y,1/3+z
2/3-x+y,1/3-x,1/3+z
2/3+x-y,1/3-y,1/3-z
2/3-x,1/3-x+y,1/3-z
2/3+y,1/3+x,1/3-z
1/3+x,2/3+y,2/3+z
1/3-y,2/3+x-y,2/3+z
1/3-x+y,2/3-x,2/3+z
1/3+x-y,2/3-y,2/3-z
1/3-x,2/3-x+y,2/3-z
1/3+y,2/3+x,2/3-z
loop_
_atom_site_type_symbol
_atom_site_label
_atom_site_fract_x
_atom_site_fract_y
_atom_site_fract_z
Si Si1 0.130795 0.683969 0.350174
Si Si2 0.062307 0.359536 0.920908
Si Si3 0.757027 0.862751 0.184691
Si Si4 0.553334 0.055835 0.323791
Si Si5 0.101248 0.199282 0.459582
O O1 0.075909 0.742575 0.333334
O O2 0.162165 0.701433 0.441349
O O3 0.224724 0.732675 0.297348
O O4 0.054818 0.580122 0.320071
O O5 0.016538 0.333334 0.833334
O O6 0.129108 0.471031 0.901103
O O7 0.104299 0.290330 0.939844
O O8 0.000000 0.346764 0.000000
O O9 0.761333 0.865868 0.090146
O O10 0.643858 0.806869 0.201435
O O11 0.666667 0.117741 0.333334
O O12 0.175490 0.175490 0.500000
O O13 0.000000 0.140643 0.500000
#
# Coordination Sequence:
#
# PCOD9577113 Si02
#       5
#    18  18  18  18  18
#     4   9  21  36  59  91 129 177 225 285 355 430
#     4  12  25  45  71 107 142 192 253 313 374 442
#     4  11  23  41  65  97 142 183 243 303 363 435
#     4  11  25  43  69 103 142 187 245 304 370 449
#     4  11  21  35  57  90 135 181 228 286 367 446
#
# _framework density 23.156941
#
# number of rings (size 3 to 8) (size 9 to 14) (size 15 to 20)
#    0.000    1.200    4.000    2.600    5.600    0.000 
#    0.000    0.000    0.000    1.200    5.200    0.000 
#    0.000    0.000    0.000    0.000    0.000    0.000 
#
# Total GULP energy -167017.766750 kJ/mol
# GULP energy per Si atom -5567.258892 kJ/mol
# Density = 2.310424 g / cm^3
# Si number density = 23.156941 Si / 1000 Ang^3
#
#
#
# Elastic Constant Matrix: (Units=GPa)
#
#
# Indices 1 2 3 4 5 6 
#
# 1 71.4364 19.1938 32.5691 -19.4355 -0.0001 0.0000
# 2 19.1938 71.4364 32.5691 19.4355 0.0001 0.0000
# 3 32.5691 32.5691 139.3936 0.0000 0.0000 0.0000
# 4 -19.4355 19.4355 0.0000 25.1444 0.0000 0.0001
# 5 -0.0001 0.0001 0.0000 0.0000 25.1444 -19.4355
# 6 0.0000 0.0000 0.0000 0.0001 -19.4355 26.1213
#
#
#
# Elastic Compliance Matrix: (Units=1/GPa)
#
#
# Indices 1 2 3 4 5 6 
#
# 1 0.029156 -0.015895 -0.003098 0.034822 0.000000 0.000000
# 2 -0.015895 0.029156 -0.003098 -0.034822 0.000000 0.000000
# 3 -0.003098 -0.003098 0.008622 0.000000 0.000000 0.000000
# 4 0.034822 -0.034822 0.000000 0.093602 0.000000 0.000000
# 5 0.000000 0.000000 0.000000 0.000000 0.093602 0.069645
# 6 0.000000 0.000000 0.000000 0.000000 0.069645 0.090102
#
#
# Mechanical properties :
#
#
# Convention : Reuss Voigt Hill
#
# Bulk Modulus (GPa) = 43.95641 50.10338 47.02990
# Shear Modulus (GPa) = 12.62605 28.47764 20.55185
#
# Velocity S-wave (km/s) = 2.33757 3.51061 2.98233
# Velocity P-wave (km/s) = 5.12921 6.17381 5.67559
#
# Compressibility (1/GPa) = 0.02274981
#
# Stress axis : x y z
#
# Youngs Moduli (GPa) = 34.29850 34.29850 115.98530
#
# Poissons Ratio (x) = 0.54518 0.35936
# Poissons Ratio (y) = 0.54518 0.35936
# Poissons Ratio (z) = 0.10627 0.10627
#
# Static dielectric constant tensor:
#      x y z
#    x 1.950990 0.000000 0.000000 
#    y 0.000000 1.950990 0.000000 
#    z 0.000000 0.000000 1.956650 
# 
# From -- ./inp_files/6093.got.cif
#   From: 2010.05.17/outbox.cif.g08.bks.cpg/sg155_4_cif.got.tgz:6093.got - 2010.05.20 10:44:35.
