data_PCOD9577064
_publ_section_title
;
Structure prediction by ZEFSAII (Michael W. Deem and Ramdas Pophale) SiO2 
 PCOD9577064
Probable space group: R 3 2
;
_chemical_formula_sum "Si O2"
_cell_formula_units_Z 114
_cell_length_a 21.018271
_cell_length_b 21.018271
_cell_length_c 13.522764
_cell_angle_alpha 90.000000
_cell_angle_beta 90.000000
_cell_angle_gamma 120.000000
_cell_volume 5173.566969
_symmetry_space_group_name_H-M "R 3 2"
_symmetry_group_IT_number 155
_symmetry_cell_setting 'hexagonal'
loop_
_space_group_symop_operation_xyz
x,y,z
-y,x-y,z
-x+y,-x,z
x-y,-y,-z
-x,-x+y,-z
y,x,-z
2/3+x,1/3+y,1/3+z
2/3-y,1/3+x-y,1/3+z
2/3-x+y,1/3-x,1/3+z
2/3+x-y,1/3-y,1/3-z
2/3-x,1/3-x+y,1/3-z
2/3+y,1/3+x,1/3-z
1/3+x,2/3+y,2/3+z
1/3-y,2/3+x-y,2/3+z
1/3-x+y,2/3-x,2/3+z
1/3+x-y,2/3-y,2/3-z
1/3-x,2/3-x+y,2/3-z
1/3+y,2/3+x,2/3-z
loop_
_atom_site_type_symbol
_atom_site_label
_atom_site_fract_x
_atom_site_fract_y
_atom_site_fract_z
Si Si1 0.000000 0.000000 0.380910
Si Si2 0.311346 0.510824 0.351079
Si Si3 0.528592 0.451848 0.555785
Si Si4 0.049005 0.400802 0.404950
Si Si5 0.957359 0.554252 0.897852
Si Si6 0.443635 0.918747 0.830498
Si Si7 0.414561 0.832306 0.642173
O O1 0.073050 0.073270 0.342751
O O2 0.000000 0.000000 0.500000
O O3 0.378972 0.498191 0.379189
O O4 0.269542 0.452968 0.262909
O O5 0.258781 0.482813 0.446459
O O6 0.472076 0.472076 0.500000
O O7 0.585930 0.518181 0.625633
O O8 0.574005 0.439224 0.467601
O O9 0.004681 0.333334 0.333334
O O10 0.120543 0.400230 0.442773
O O11 0.000000 0.388244 0.500000
O O12 0.940539 0.607206 0.833334
O O13 0.010672 0.533925 0.839699
O O14 0.000000 0.589938 0.000000
O O15 0.424005 0.895609 0.717766
O O16 0.333334 0.766240 0.666667
O O17 0.473444 0.806777 0.666667
#
# Coordination Sequence:
#
# PCOD9577064 Si02
#       7
#     6  18  18  18  18  18  18
#     4  12  27  45  72  97 137 178 243 294 351 414
#     4  11  24  45  70  99 137 186 230 297 343 416
#     4  11  26  43  69 108 143 180 242 291 352 435
#     4  11  25  43  69 100 136 184 231 295 362 420
#     4  10  24  43  66  95 134 181 232 283 346 419
#     4  11  24  45  67  98 140 180 233 283 353 432
#     4  12  25  45  74 109 145 185 233 293 362 430
#
# _framework density 22.035087999999998
#
# number of rings (size 3 to 8) (size 9 to 14) (size 15 to 20)
#    0.000    0.947    3.158    3.000    6.632    3.158 
#    0.000    5.526    0.000    0.000    0.000    0.000 
#    0.000    0.000    0.000    0.000    0.000    0.000 
#
# Total GULP energy -212537.335175 kJ/mol
# GULP energy per Si atom -5593.087768 kJ/mol
# Density = 2.198494 g / cm^3
# Si number density = 22.035088 Si / 1000 Ang^3
#
#
#
# Elastic Constant Matrix: (Units=GPa)
#
#
# Indices 1 2 3 4 5 6 
#
# 1 85.8050 25.7266 1.6683 -14.8186 0.0021 0.0000
# 2 25.7266 85.8050 1.6683 14.8186 -0.0021 0.0000
# 3 1.6683 1.6683 41.5014 0.0000 0.0000 0.0000
# 4 -14.8186 14.8186 0.0000 -54.2533 0.0000 -0.0021
# 5 0.0021 -0.0021 0.0000 0.0000 -54.2533 -14.8186
# 6 0.0000 0.0000 0.0000 -0.0021 -14.8186 30.0392
#
#
#
# Elastic Compliance Matrix: (Units=1/GPa)
#
#
# Indices 1 2 3 4 5 6 
#
# 1 0.011823 -0.002846 -0.000361 -0.004007 0.000001 0.000000
# 2 -0.002846 0.011823 -0.000361 0.004007 -0.000001 0.000000
# 3 -0.000361 -0.000361 0.024125 0.000000 0.000000 0.000000
# 4 -0.004007 0.004007 0.000000 -0.016243 0.000000 -0.000001
# 5 0.000001 -0.000001 0.000000 0.000000 -0.016243 -0.008013
# 6 0.000000 0.000000 0.000000 -0.000001 -0.008013 0.029337
#
#
# Mechanical properties :
#
#
# Convention : Reuss Voigt Hill
#
# Bulk Modulus (GPa) = 24.60940 30.13753 27.37346
# Shear Modulus (GPa) = 76.56956 -3.42362 36.57297
#
# Velocity S-wave (km/s) = 5.90122 -1.24783 4.07844
# Velocity P-wave (km/s) = 7.59111 3.41037 5.88454
#
# Compressibility (1/GPa) = 0.04063489
#
# Stress axis : x y z
#
# Youngs Moduli (GPa) = 84.58326 84.58326 41.45148
#
# Poissons Ratio (x) = 0.24071 0.01496
# Poissons Ratio (y) = 0.24071 0.01496
# Poissons Ratio (z) = 0.03052 0.03052
#
# Static dielectric constant tensor:
#      x y z
#    x 1.982010 0.000000 0.000000 
#    y 0.000000 1.982010 0.000000 
#    z 0.000000 0.000000 1.809030 
# 
# From -- ./inp_files/5196.got.cif
#   From: 2010.05.17/outbox.cif.g08.bks.cpg/sg155_3_cif.got.tgz:5196.got - 2010.05.20 10:44:35.
