data_PCOD9577263
_publ_section_title
;
Structure prediction by ZEFSAII (Michael W. Deem and Ramdas Pophale) SiO2 
 PCOD9577263
Probable space group: P 3 1 M
;
_chemical_formula_sum "Si O2"
_cell_formula_units_Z 26
_cell_length_a 14.476187
_cell_length_b 14.476187
_cell_length_c 7.472001
_cell_angle_alpha 90.000000
_cell_angle_beta 90.000000
_cell_angle_gamma 120.000000
_cell_volume 1356.050684
_symmetry_space_group_name_H-M "P 3 1 M"
_symmetry_group_IT_number 157
_symmetry_cell_setting 'hexagonal'
loop_
_space_group_symop_operation_xyz
x,y,z
-y,x-y,z
-x+y,-x,z
y,x,z
x-y,-y,z
-x,-x+y,z
loop_
_atom_site_type_symbol
_atom_site_label
_atom_site_fract_x
_atom_site_fract_y
_atom_site_fract_z
Si Si1 0.784063 0.000000 0.700021
Si Si2 0.000000 0.000000 0.777670
Si Si3 0.637361 0.763161 0.277413
Si Si4 0.637361 0.763161 0.705537
Si Si5 0.000000 0.000000 0.205281
Si Si6 0.000000 0.784063 0.282930
Si Si7 0.319053 0.779455 0.991475
O O1 0.807939 0.114049 0.770826
O O2 0.758632 0.000000 0.491475
O O3 0.895001 0.000000 0.712950
O O4 0.000000 0.000000 0.991475
O O5 0.717796 0.717796 0.246727
O O6 0.618660 0.758661 0.491475
O O7 0.530957 0.694574 0.164624
O O8 0.693890 0.885951 0.212125
O O9 0.717796 0.717796 0.736224
O O10 0.530957 0.694574 0.818327
O O11 0.000000 0.895001 0.270000
O O12 0.228071 0.654178 0.991475
#
# Coordination Sequence:
#
# PCOD9577263 Si02
#       7
#     3   1   6   6   1   3   6
#     4  10  20  36  58  88 129 164 192 238 305 381
#     4  12  22  26  52  96 127 176 190 225 304 380
#     4  10  21  39  66  95 125 159 196 245 306 374
#     4  10  21  39  66  95 125 159 196 245 306 374
#     4  12  22  26  52  96 127 176 190 225 304 380
#     4  10  20  36  58  88 129 164 192 238 305 381
#     4  10  25  45  61  79 116 166 206 266 304 332
#
# _framework density 19.173324999999998
#
# number of rings (size 3 to 8) (size 9 to 14) (size 15 to 20)
#    0.462    1.385    2.308    1.385    3.231    1.846 
#    8.308    0.000    0.000    0.000    0.000    0.000 
#    0.000    0.000    0.000    0.000    0.000    0.000 
#
# Total GULP energy -145015.559851 kJ/mol
# GULP energy per Si atom -5577.521533 kJ/mol
# Density = 1.912969 g / cm^3
# Si number density = 19.173325 Si / 1000 Ang^3
#
#
#
# Elastic Constant Matrix: (Units=GPa)
#
#
# Indices 1 2 3 4 5 6 
#
# 1 91.0798 -20.6826 34.0363 0.0000 -0.0002 0.0000
# 2 -20.6826 91.0798 34.0363 0.0000 0.0002 0.0000
# 3 34.0363 34.0363 83.5825 0.0000 0.0000 0.0000
# 4 0.0000 0.0000 0.0000 27.9111 0.0000 0.0002
# 5 -0.0002 0.0002 0.0000 0.0000 27.9111 0.0000
# 6 0.0000 0.0000 0.0000 0.0002 0.0000 55.8812
#
#
#
# Elastic Compliance Matrix: (Units=1/GPa)
#
#
# Indices 1 2 3 4 5 6 
#
# 1 0.016190 0.007242 -0.009542 0.000000 0.000000 0.000000
# 2 0.007242 0.016190 -0.009542 0.000000 0.000000 0.000000
# 3 -0.009542 -0.009542 0.019736 0.000000 0.000000 0.000000
# 4 0.000000 0.000000 0.000000 0.035828 0.000000 0.000000
# 5 0.000000 0.000000 0.000000 0.000000 0.035828 0.000000
# 6 0.000000 0.000000 0.000000 0.000000 0.000000 0.017895
#
#
# Mechanical properties :
#
#
# Convention : Reuss Voigt Hill
#
# Bulk Modulus (GPa) = 35.17198 40.05804 37.61501
# Shear Modulus (GPa) = 28.59973 36.89746 32.74860
#
# Velocity S-wave (km/s) = 3.86637 4.39158 4.13731
# Velocity P-wave (km/s) = 6.18997 6.83027 6.51799
#
# Compressibility (1/GPa) = 0.02843172
#
# Stress axis : x y z
#
# Youngs Moduli (GPa) = 61.76749 61.76749 50.67007
#
# Poissons Ratio (x) = -0.44733 0.48349
# Poissons Ratio (y) = -0.44733 0.48349
# Poissons Ratio (z) = 0.58938 0.58938
#
# Static dielectric constant tensor:
#      x y z
#    x 1.624850 0.000000 0.000000 
#    y 0.000000 1.624850 0.000000 
#    z 0.000000 0.000000 1.672190 
# 
# From -- ./inp_files/324.got.cif
#   From: 2010.05.17/outbox.cif.g08.bks.cpg/sg157_cif.got.tgz:324.got - 2010.05.20 10:49:36.
