data_PCOD9577481
_publ_section_title
;
Structure prediction by ZEFSAII (Michael W. Deem and Ramdas Pophale) SiO2 
 PCOD9577481
Probable space group: R 3 M
;
_chemical_formula_sum "Si O2"
_cell_formula_units_Z 144
_cell_length_a 21.688348
_cell_length_b 21.688348
_cell_length_c 19.851925
_cell_angle_alpha 90.000000
_cell_angle_beta 90.000000
_cell_angle_gamma 120.000000
_cell_volume 8086.976920
_symmetry_space_group_name_H-M "R 3 M"
_symmetry_group_IT_number 160
_symmetry_cell_setting 'hexagonal'
loop_
_space_group_symop_operation_xyz
x,y,z
-y,x-y,z
-x+y,-x,z
-x+y,y,z
x,x-y,z
-y,-x,z
2/3+x,1/3+y,1/3+z
2/3-y,1/3+x-y,1/3+z
2/3-x+y,1/3-x,1/3+z
2/3-x+y,1/3+y,1/3+z
2/3+x,1/3+x-y,1/3+z
2/3-y,1/3-x,1/3+z
1/3+x,2/3+y,2/3+z
1/3-y,2/3+x-y,2/3+z
1/3-x+y,2/3-x,2/3+z
1/3-x+y,2/3+y,2/3+z
1/3+x,2/3+x-y,2/3+z
1/3-y,2/3-x,2/3+z
loop_
_atom_site_type_symbol
_atom_site_label
_atom_site_fract_x
_atom_site_fract_y
_atom_site_fract_z
Si Si1 0.426508 0.140266 0.885312
Si Si2 0.192754 0.953803 0.920054
Si Si3 0.577242 0.648480 0.002648
Si Si4 0.912723 0.384367 0.015383
Si Si5 0.138115 0.998302 0.423410
Si Si6 0.026821 0.360069 0.859646
Si Si7 0.738104 0.623296 0.394115
Si Si8 0.998463 0.139238 0.805608
O O1 0.404917 0.202459 0.888359
O O2 0.452728 0.127040 0.957227
O O3 0.487618 0.166560 0.828489
O O4 0.369326 0.059388 0.863696
O O5 0.123233 0.876768 0.923622
O O6 0.251387 0.946969 0.875995
O O7 0.173221 0.004629 0.878836
O O8 0.214133 0.973712 0.997835
O O9 0.600150 0.592488 0.028974
O O10 0.585508 0.643115 0.922830
O O11 0.504667 0.636851 0.033449
O O12 0.632988 0.727357 0.029172
O O13 0.917410 0.458705 0.994673
O O14 0.867722 0.357743 0.083156
O O15 0.157777 0.078889 0.413062
O O16 0.053832 0.946169 0.423560
O O17 0.048983 0.407135 0.792412
O O18 0.808130 0.616260 0.408742
O O19 0.944051 0.055950 0.801073
O O20 0.078037 0.156074 0.793642
#
# Coordination Sequence:
#
# PCOD9577481 Si02
#       8
#    18  18  18  18  18  18  18  18
#     4  10  21  34  53  81 113 144 181 222 267 326
#     4   9  20  37  54  76 106 139 176 221 274 327
#     4  10  20  33  52  80 107 135 181 228 272 317
#     4  10  20  34  53  77 108 144 181 225 272 321
#     4  11  22  36  53  76 110 151 191 229 271 325
#     4  10  20  34  56  82 106 138 179 220 274 325
#     4  10  19  34  55  76 105 142 177 220 278 333
#     4  10  20  34  54  76 104 139 179 223 272 330
#
# _framework density 17.806405999999999
#
# number of rings (size 3 to 8) (size 9 to 14) (size 15 to 20)
#    0.000    2.000    1.250    2.500    0.000    3.500 
#    0.000    0.625    0.000    4.000    0.000    0.000 
#    0.000    2.000    0.000    0.000    0.000    0.125 
#
# Total GULP energy -267411.430243 kJ/mol
# GULP energy per Si atom -5571.071463 kJ/mol
# Density = 1.776588 g / cm^3
# Si number density = 17.806406 Si / 1000 Ang^3
#
#
#
# Elastic Constant Matrix: (Units=GPa)
#
#
# Indices 1 2 3 4 5 6 
#
# 1 54.6520 15.6657 33.6593 1.3954 -0.0002 0.0000
# 2 15.6657 54.6520 33.6593 -1.3954 0.0002 0.0000
# 3 33.6593 33.6593 103.2309 0.0000 0.0000 0.0000
# 4 1.3954 -1.3954 0.0000 22.4784 0.0000 0.0002
# 5 -0.0002 0.0002 0.0000 0.0000 22.4784 1.3954
# 6 0.0000 0.0000 0.0000 0.0002 1.3954 19.4931
#
#
#
# Elastic Compliance Matrix: (Units=1/GPa)
#
#
# Indices 1 2 3 4 5 6 
#
# 1 0.023220 -0.002545 -0.006741 -0.001599 0.000000 0.000000
# 2 -0.002545 0.023220 -0.006741 0.001599 0.000000 0.000000
# 3 -0.006741 -0.006741 0.014083 0.000000 0.000000 0.000000
# 4 -0.001599 0.001599 0.000000 0.044686 0.000000 -0.000001
# 5 0.000000 0.000000 0.000000 0.000000 0.044686 -0.003199
# 6 0.000000 0.000000 0.000000 -0.000001 -0.003199 0.051529
#
#
# Mechanical properties :
#
#
# Convention : Reuss Voigt Hill
#
# Bulk Modulus (GPa) = 35.12720 42.05594 38.59157
# Shear Modulus (GPa) = 20.57894 21.52669 21.05282
#
# Velocity S-wave (km/s) = 3.40325 3.48074 3.44221
# Velocity P-wave (km/s) = 5.93405 6.31061 6.12522
#
# Compressibility (1/GPa) = 0.02846797
#
# Stress axis : x y z
#
# Youngs Moduli (GPa) = 43.06685 43.06685 71.00716
#
# Poissons Ratio (x) = 0.10960 0.47868
# Poissons Ratio (y) = 0.10960 0.47868
# Poissons Ratio (z) = 0.29032 0.29032
#
# Static dielectric constant tensor:
#      x y z
#    x 1.612840 0.000000 0.000000 
#    y 0.000000 1.612840 0.000000 
#    z 0.000000 0.000000 1.629060 
# 
# From -- ./inp_files/3472.got.cif
#   From: 2010.05.17/outbox.cif.g08.bks.cpg/sg160_2_cif.got.tgz:3472.got - 2010.05.20 10:51:19.
