data_PCOD9577216
_publ_section_title
;
Structure prediction by ZEFSAII (Michael W. Deem and Ramdas Pophale) SiO2 
 PCOD9577216
Probable space group: P 3 M 1
;
_chemical_formula_sum "Si O2"
_cell_formula_units_Z 36
_cell_length_a 13.037879
_cell_length_b 13.037879
_cell_length_c 15.671391
_cell_angle_alpha 90.000000
_cell_angle_beta 90.000000
_cell_angle_gamma 120.000000
_cell_volume 2307.023776
_symmetry_space_group_name_H-M "P 3 M 1"
_symmetry_group_IT_number 156
_symmetry_cell_setting 'hexagonal'
loop_
_space_group_symop_operation_xyz
x,y,z
-y,x-y,z
-x+y,-x,z
-x+y,y,z
x,x-y,z
-y,-x,z
loop_
_atom_site_type_symbol
_atom_site_label
_atom_site_fract_x
_atom_site_fract_y
_atom_site_fract_z
Si Si1 0.422902 0.333724 0.008800
Si Si2 0.333512 0.422556 0.166522
Si Si3 0.332853 0.910095 0.856795
Si Si4 0.756969 0.999594 0.320464
Si Si5 0.333902 0.909950 0.661465
Si Si6 0.756974 0.756497 0.514762
O O1 0.415358 0.207679 0.014387
O O2 0.559335 0.440666 0.007653
O O3 0.361069 0.359701 0.088511
O O4 0.361399 0.348311 0.923958
O O5 0.214263 0.428526 0.151068
O O6 0.446404 0.553597 0.175330
O O7 0.312558 0.344446 0.251201
O O8 0.441541 0.883081 0.862983
O O9 0.209275 0.790726 0.874636
O O10 0.330554 0.947746 0.759020
O O11 0.874177 0.125824 0.304979
O O12 0.714621 0.998017 0.417594
O O13 0.789005 0.894503 0.315448
O O14 0.453761 0.907521 0.650196
O O15 0.222136 0.777865 0.653077
O O16 0.320524 0.987828 0.588627
O O17 0.880552 0.761104 0.524503
O O18 0.775310 0.887655 0.523263
#
# Coordination Sequence:
#
# PCOD9577216 Si02
#       6
#     6   6   6   6   6   6
#     4  10  20  33  49  68  91 120 154 191 228 269
#     4  10  20  33  50  72  97 123 151 186 228 274
#     4   9  17  30  49  71  94 121 154 192 232 275
#     4   9  17  30  48  69  92 120 155 193 232 274
#     4   9  17  29  46  69  95 123 155 191 232 276
#     4   9  17  29  46  67  91 121 157 195 232 272
#
# _framework density 15.604519
#
# number of rings (size 3 to 8) (size 9 to 14) (size 15 to 20)
#    0.000    2.667    0.000    2.000    0.000    4.000 
#    0.000    1.667    0.000    6.333    0.000    0.000 
#    0.000    0.000    0.000    0.000    0.000    0.000 
#
# Total GULP energy -200619.850072 kJ/mol
# GULP energy per Si atom -5572.773613 kJ/mol
# Density = 1.556900 g / cm^3
# Si number density = 15.604519 Si / 1000 Ang^3
#
#
#
# Elastic Constant Matrix: (Units=GPa)
#
#
# Indices 1 2 3 4 5 6 
#
# 1 93.2709 56.9075 78.4275 -1.9339 -0.0002 0.0000
# 2 56.9075 93.2709 78.4275 1.9339 0.0002 0.0000
# 3 78.4275 78.4275 134.8562 0.0000 0.0000 0.0000
# 4 -1.9339 1.9339 0.0000 25.1785 0.0000 0.0002
# 5 -0.0002 0.0002 0.0000 0.0000 25.1785 -1.9339
# 6 0.0000 0.0000 0.0000 0.0002 -1.9339 18.1817
#
#
#
# Elastic Compliance Matrix: (Units=1/GPa)
#
#
# Indices 1 2 3 4 5 6 
#
# 1 0.022344 -0.005383 -0.009864 0.002130 0.000000 0.000000
# 2 -0.005383 0.022344 -0.009864 -0.002130 0.000000 0.000000
# 3 -0.009864 -0.009864 0.018889 0.000000 0.000000 0.000000
# 4 0.002130 -0.002130 0.000000 0.040044 0.000000 0.000000
# 5 0.000000 0.000000 0.000000 0.000000 0.040044 0.004259
# 6 0.000000 0.000000 0.000000 0.000000 0.004259 0.055453
#
#
# Mechanical properties :
#
#
# Convention : Reuss Voigt Hill
#
# Bulk Modulus (GPa) = 74.87926 83.21366 79.04646
# Shear Modulus (GPa) = 19.70125 20.88342 20.29234
#
# Velocity S-wave (km/s) = 3.55707 3.66224 3.61004
# Velocity P-wave (km/s) = 8.05979 8.44542 8.25485
#
# Compressibility (1/GPa) = 0.01335483
#
# Stress axis : x y z
#
# Youngs Moduli (GPa) = 44.75457 44.75457 52.94187
#
# Poissons Ratio (x) = 0.24090 0.52223
# Poissons Ratio (y) = 0.24090 0.52223
# Poissons Ratio (z) = 0.44147 0.44147
#
# Static dielectric constant tensor:
#      x y z
#    x 1.489870 0.000000 0.000000 
#    y 0.000000 1.489870 0.000000 
#    z 0.000000 0.000000 1.534900 
# 
# From -- ./inp_files/781.got.cif
#   From: 2010.05.17/outbox.cif.g08.bks.cpg/sg156_cif.got.tgz:781.got - 2010.05.20 10:49:08.
