data_PCOD9577305
_publ_section_title
;
Structure prediction by ZEFSAII (Michael W. Deem and Ramdas Pophale) SiO2 
 PCOD9577305
Probable space group: P 3 C 1
;
_chemical_formula_sum "Si O2"
_cell_formula_units_Z 48
_cell_length_a 19.137624
_cell_length_b 19.137624
_cell_length_c 8.658677
_cell_angle_alpha 90.000000
_cell_angle_beta 90.000000
_cell_angle_gamma 120.000000
_cell_volume 2746.364687
_symmetry_space_group_name_H-M "P 3 C 1"
_symmetry_group_IT_number 158
_symmetry_cell_setting 'hexagonal'
loop_
_space_group_symop_operation_xyz
x,y,z
-y,x-y,z
-x+y,-x,z
-x+y,y,1/2+z
x,x-y,1/2+z
-y,-x,1/2+z
loop_
_atom_site_type_symbol
_atom_site_label
_atom_site_fract_x
_atom_site_fract_y
_atom_site_fract_z
Si Si1 0.332418 0.513426 0.216790
Si Si2 0.330005 0.240466 0.717078
Si Si3 0.152326 0.999085 0.716790
Si Si4 0.759534 0.089539 0.347211
Si Si5 0.486574 0.818992 0.847500
Si Si6 0.152326 0.153241 0.847500
Si Si7 0.422873 0.426201 0.347211
Si Si8 0.422873 0.996672 0.217078
O O1 0.399254 0.600746 0.282145
O O2 0.245917 0.491834 0.282145
O O3 0.362142 0.452789 0.274751
O O4 0.332723 0.516049 0.032145
O O5 0.320770 0.231082 0.532145
O O6 0.354680 0.177340 0.782145
O O7 0.242686 0.213878 0.789539
O O8 0.392036 0.333333 0.753249
O O9 0.242686 0.028808 0.774751
O O10 0.131842 0.065921 0.782145
O O11 0.087416 0.912584 0.782145
O O12 0.150007 0.150617 0.032145
O O13 0.666667 0.058702 0.311040
O O14 0.547211 0.909352 0.789539
O O15 0.510673 0.489327 0.282145
O O16 0.423021 0.435584 0.532145
#
# Coordination Sequence:
#
# PCOD9577305 Si02
#       8
#     6   6   6   6   6   6   6   6
#     4  11  21  34  52  75 106 143 183 223 262 305
#     4  10  21  37  57  81 107 136 172 213 260 314
#     4  11  21  34  52  75 106 143 183 223 262 305
#     4  10  21  37  57  81 107 136 172 213 260 314
#     4  11  21  34  52  75 106 143 183 223 262 305
#     4  11  21  34  52  75 106 143 183 223 262 305
#     4  10  21  37  57  81 107 136 172 213 260 314
#     4  10  21  37  57  81 107 136 172 213 260 314
#
# _framework density 17.477650000000001
#
# number of rings (size 3 to 8) (size 9 to 14) (size 15 to 20)
#    0.000    1.500    0.000    9.500    0.000    5.000 
#    0.000    0.000    0.000    0.500    0.000    0.000 
#    0.000    0.000    0.000    0.000    0.000    0.000 
#
# Total GULP energy -268257.461621 kJ/mol
# GULP energy per Si atom -5588.697117 kJ/mol
# Density = 1.743787 g / cm^3
# Si number density = 17.477650 Si / 1000 Ang^3
#
#
#
# Elastic Constant Matrix: (Units=GPa)
#
#
# Indices 1 2 3 4 5 6 
#
# 1 113.7832 103.1309 73.7091 0.0000 0.0000 0.0000
# 2 103.1309 113.7832 73.7091 0.0000 0.0000 0.0000
# 3 73.7091 73.7091 146.3592 0.0000 0.0000 0.0000
# 4 0.0000 0.0000 0.0000 28.9832 0.0000 0.0000
# 5 0.0000 0.0000 0.0000 0.0000 28.9832 0.0000
# 6 0.0000 0.0000 0.0000 0.0000 0.0000 5.3261
#
#
#
# Elastic Compliance Matrix: (Units=1/GPa)
#
#
# Indices 1 2 3 4 5 6 
#
# 1 0.050443 -0.043434 -0.003530 0.000000 0.000000 0.000000
# 2 -0.043434 0.050443 -0.003530 0.000000 0.000000 0.000000
# 3 -0.003530 -0.003530 0.010388 0.000000 0.000000 0.000000
# 4 0.000000 0.000000 0.000000 0.034503 0.000000 0.000000
# 5 0.000000 0.000000 0.000000 0.000000 0.034503 0.000000
# 6 0.000000 0.000000 0.000000 0.000000 0.000000 0.187753
#
#
# Mechanical properties :
#
#
# Convention : Reuss Voigt Hill
#
# Bulk Modulus (GPa) = 97.21457 97.22486 97.21971
# Shear Modulus (GPa) = 10.58318 20.88363 15.73341
#
# Velocity S-wave (km/s) = 2.46341 3.46045 3.00359
# Velocity P-wave (km/s) = 7.98963 8.46848 8.23254
#
# Compressibility (1/GPa) = 0.01028652
#
# Stress axis : x y z
#
# Youngs Moduli (GPa) = 19.82444 19.82444 96.26538
#
# Poissons Ratio (x) = 0.86105 0.33981
# Poissons Ratio (y) = 0.86105 0.33981
# Poissons Ratio (z) = 0.06998 0.06998
#
# Static dielectric constant tensor:
#      x y z
#    x 1.580370 0.000000 0.000000 
#    y 0.000000 1.580370 0.000000 
#    z 0.000000 0.000000 1.583440 
# 
# From -- ./inp_files/233.got.cif
#   From: 2010.05.17/outbox.cif.g08.bks.cpg/sg158_cif.got.tgz:233.got - 2010.05.20 10:49:59.
