data_PCOD9577663
_publ_section_title
;
Structure prediction by ZEFSAII (Michael W. Deem and Ramdas Pophale) SiO2 
 PCOD9577663
Probable space group: P -3 1 M 
;
_chemical_formula_sum "Si O2"
_cell_formula_units_Z 84
_cell_length_a 21.197934
_cell_length_b 21.197934
_cell_length_c 12.137083
_cell_angle_alpha 90.000000
_cell_angle_beta 90.000000
_cell_angle_gamma 120.000000
_cell_volume 4723.153116
_symmetry_space_group_name_H-M "P -3 1 M "
_symmetry_group_IT_number 162
_symmetry_cell_setting 'hexagonal'
loop_
_space_group_symop_operation_xyz
x,y,z
-y,x-y,z
-x+y,-x,z
-y,-x,-z
-x+y,y,-z
x,x-y,-z
-x,-y,-z
y,-x+y,-z
x-y,x,-z
y,x,z
x-y,-y,z
-x,-x+y,z
loop_
_atom_site_type_symbol
_atom_site_label
_atom_site_fract_x
_atom_site_fract_y
_atom_site_fract_z
Si Si1 0.748512 0.633187 0.520653
Si Si2 0.218511 0.301377 0.704861
Si Si3 0.304854 0.084919 0.767920
Si Si4 0.915112 0.402880 0.572040
Si Si5 0.426466 0.342507 0.814516
Si Si6 0.143770 0.429067 0.955848
Si Si7 0.514147 0.424697 0.182570
O O1 0.798660 0.597320 0.500000
O O2 0.779659 0.695695 0.427971
O O3 0.754701 0.661718 0.644923
O O4 0.664751 0.574547 0.507355
O O5 0.255348 0.255348 0.743231
O O6 0.140377 0.274108 0.758212
O O7 0.271180 0.386565 0.738373
O O8 0.366839 0.114993 0.861972
O O9 0.249049 0.000000 0.787613
O O10 0.879672 0.439836 0.500000
O O11 0.889617 0.386766 0.697530
O O12 0.000000 0.461583 0.586913
O O13 0.390592 0.390592 0.780585
O O14 0.511952 0.401311 0.815592
O O15 0.403531 0.310750 0.936799
O O16 0.132222 0.493089 0.905287
O O17 0.223565 0.447130 0.000000
O O18 0.464120 0.464120 0.163966
#
# Coordination Sequence:
#
# PCOD9577663 Si02
#       7
#    12  12  12  12  12  12  12
#     4  10  20  33  54  80 111 148 183 226 284 340
#     4  10  20  35  55  86 119 145 181 234 289 344
#     4  11  21  36  57  82 112 151 190 231 288 347
#     4  10  18  30  51  81 112 140 175 220 272 333
#     4  10  20  35  55  81 111 142 178 227 283 333
#     4  12  22  35  52  78 112 148 192 236 276 326
#     4  10  20  34  55  81 109 145 185 229 280 336
#
# _framework density 17.784728999999999
#
# number of rings (size 3 to 8) (size 9 to 14) (size 15 to 20)
#    0.000    1.571    2.857    3.857    0.000    3.429 
#    0.000    0.000    0.000    2.857    0.000    2.000 
#    0.000    4.000    0.000    0.000    0.000    0.000 
#
# Total GULP energy -467798.868400 kJ/mol
# GULP energy per Si atom -5569.034148 kJ/mol
# Density = 1.774425 g / cm^3
# Si number density = 17.784729 Si / 1000 Ang^3
#
#
#
# Elastic Constant Matrix: (Units=GPa)
#
#
# Indices 1 2 3 4 5 6 
#
# 1 74.4755 37.1647 16.3054 0.0004 -4.8098 0.0000
# 2 37.1647 74.4755 16.3054 -0.0004 4.8098 0.0000
# 3 16.3054 16.3054 76.0676 0.0000 0.0000 0.0000
# 4 0.0004 -0.0004 0.0000 13.4467 0.0000 4.8098
# 5 -4.8098 4.8098 0.0000 0.0000 13.4467 0.0004
# 6 0.0000 0.0000 0.0000 4.8098 0.0004 18.6554
#
#
#
# Elastic Compliance Matrix: (Units=1/GPa)
#
#
# Indices 1 2 3 4 5 6 
#
# 1 0.019540 -0.009984 -0.002048 -0.000001 0.010561 0.000000
# 2 -0.009984 0.019540 -0.002048 0.000001 -0.010561 0.000000
# 3 -0.002048 -0.002048 0.014024 0.000000 0.000000 0.000000
# 4 -0.000001 0.000001 0.000000 0.081923 0.000000 -0.021121
# 5 0.010561 -0.010561 0.000000 0.000000 0.081923 -0.000002
# 6 0.000000 0.000000 0.000000 -0.021121 -0.000002 0.059049
#
#
# Mechanical properties :
#
#
# Convention : Reuss Voigt Hill
#
# Bulk Modulus (GPa) = 40.09228 40.50776 40.30002
# Shear Modulus (GPa) = 16.00125 19.45930 17.73028
#
# Velocity S-wave (km/s) = 3.00278 3.31139 3.16086
# Velocity P-wave (km/s) = 5.88339 6.11936 6.00254
#
# Compressibility (1/GPa) = 0.02494246
#
# Stress axis : x y z
#
# Youngs Moduli (GPa) = 51.17665 51.17665 71.30472
#
# Poissons Ratio (x) = 0.51097 0.14605
# Poissons Ratio (y) = 0.51097 0.14605
# Poissons Ratio (z) = 0.10483 0.10483
#
# Static dielectric constant tensor:
#      x y z
#    x 1.633150 0.000000 0.000000 
#    y 0.000000 1.633150 0.000000 
#    z 0.000000 0.000000 1.680250 
# 
# From -- ./inp_files/2504.got.cif
#   From: 2010.05.17/outbox.cif.g08.bks.cpg/sg162_2_cif.got.tgz:2504.got - 2010.05.20 10:53:12.
