data_PCOD9577321
_publ_section_title
;
Structure prediction by ZEFSAII (Michael W. Deem and Ramdas Pophale) SiO2 
 PCOD9577321
Probable space group: P 3 C 1
;
_chemical_formula_sum "Si O2"
_cell_formula_units_Z 34
_cell_length_a 10.483116
_cell_length_b 10.483116
_cell_length_c 14.824630
_cell_angle_alpha 90.000000
_cell_angle_beta 90.000000
_cell_angle_gamma 120.000000
_cell_volume 1410.896894
_symmetry_space_group_name_H-M "P 3 C 1"
_symmetry_group_IT_number 158
_symmetry_cell_setting 'hexagonal'
loop_
_space_group_symop_operation_xyz
x,y,z
-y,x-y,z
-x+y,-x,z
-x+y,y,1/2+z
x,x-y,1/2+z
-y,-x,1/2+z
loop_
_atom_site_type_symbol
_atom_site_label
_atom_site_fract_x
_atom_site_fract_y
_atom_site_fract_z
Si Si1 0.922134 0.695307 0.376840
Si Si2 0.595883 0.601439 0.036291
Si Si3 0.000000 0.000000 0.913368
Si Si4 0.000000 0.000000 0.698523
Si Si5 0.606888 0.720488 0.592549
Si Si6 0.514942 0.723318 0.794714
Si Si7 0.816157 0.677082 0.179457
O O1 0.825063 0.648587 0.285751
O O2 0.902680 0.576183 0.450535
O O3 0.088360 0.755124 0.338223
O O4 0.918759 0.826866 0.432281
O O5 0.637512 0.772874 0.037672
O O6 0.422121 0.506736 0.037292
O O7 0.664782 0.578560 0.128211
O O8 0.000000 0.000000 0.805163
O O9 0.989657 0.848566 0.671767
O O10 0.535826 0.730441 0.687261
O O11 0.732052 0.684012 0.624947
O O12 0.441626 0.822718 0.818152
#
# Coordination Sequence:
#
# PCOD9577321 Si02
#       7
#     6   6   2   2   6   6   6
#     4  10  24  36  64  97 135 179 223 286 342 407
#     4  12  24  41  68 100 139 178 236 290 346 430
#     4   9  21  37  53  94 127 164 232 265 329 400
#     4   9  15  37  68  88 127 173 220 277 332 400
#     4  11  22  39  65  99 131 182 230 282 354 401
#     4   9  18  36  59  90 135 175 213 277 345 409
#     4  10  22  42  63  96 136 181 226 283 350 409
#
# _framework density 24.098146
#
# number of rings (size 3 to 8) (size 9 to 14) (size 15 to 20)
#    0.353    1.412    3.529    0.353    7.412    0.000 
#    1.059    3.529    0.000    0.000    0.000    0.000 
#    1.765    0.000    0.000    0.000    0.000    0.000 
#
# Total GULP energy -189842.337465 kJ/mol
# GULP energy per Si atom -5583.598161 kJ/mol
# Density = 2.404330 g / cm^3
# Si number density = 24.098146 Si / 1000 Ang^3
#
#
#
# Elastic Constant Matrix: (Units=GPa)
#
#
# Indices 1 2 3 4 5 6 
#
# 1 49.7889 -2.1552 18.4915 0.8226 0.0000 0.0000
# 2 -2.1552 49.7889 18.4915 -0.8226 0.0000 0.0000
# 3 18.4915 18.4915 128.6354 0.0000 0.0000 0.0000
# 4 0.8226 -0.8226 0.0000 18.6371 0.0000 0.0000
# 5 0.0000 0.0000 0.0000 0.0000 18.6371 0.8226
# 6 0.0000 0.0000 0.0000 0.0000 0.8226 25.9721
#
#
#
# Elastic Compliance Matrix: (Units=1/GPa)
#
#
# Indices 1 2 3 4 5 6 
#
# 1 0.021455 0.002176 -0.003397 -0.000851 0.000000 0.000000
# 2 0.002176 0.021455 -0.003397 0.000851 0.000000 0.000000
# 3 -0.003397 -0.003397 0.008751 0.000000 0.000000 0.000000
# 4 -0.000851 0.000851 0.000000 0.053731 0.000000 0.000000
# 5 0.000000 0.000000 0.000000 0.000000 0.053731 -0.001702
# 6 0.000000 0.000000 0.000000 0.000000 -0.001702 0.038557
#
#
# Mechanical properties :
#
#
# Convention : Reuss Voigt Hill
#
# Bulk Modulus (GPa) = 23.57128 33.09655 28.33391
# Shear Modulus (GPa) = 22.61865 25.54162 24.08014
#
# Velocity S-wave (km/s) = 3.06699 3.25914 3.16453
# Velocity P-wave (km/s) = 4.72700 5.28456 5.01353
#
# Compressibility (1/GPa) = 0.04242451
#
# Stress axis : x y z
#
# Youngs Moduli (GPa) = 46.60989 46.60989 114.27854
#
# Poissons Ratio (x) = -0.10144 0.38820
# Poissons Ratio (y) = -0.10144 0.38820
# Poissons Ratio (z) = 0.15833 0.15833
#
# Static dielectric constant tensor:
#      x y z
#    x 1.942760 0.000000 0.000000 
#    y 0.000000 1.942760 0.000000 
#    z 0.000000 0.000000 1.935790 
# 
# From -- ./inp_files/494.got.cif
#   From: 2010.05.17/outbox.cif.g08.bks.cpg/sg158_cif.got.tgz:494.got - 2010.05.20 10:49:59.
