data_PCOD9577965
_publ_section_title
;
Structure prediction by ZEFSAII (Michael W. Deem and Ramdas Pophale) SiO2 
 PCOD9577965
Probable space group: P -3 1 M 
;
_chemical_formula_sum "Si O2"
_cell_formula_units_Z 60
_cell_length_a 18.000000
_cell_length_b 18.000000
_cell_length_c 12.000000
_cell_angle_alpha 90.000000
_cell_angle_beta 90.000000
_cell_angle_gamma 120.000000
_cell_volume 3367.106770
_symmetry_space_group_name_H-M "P -3 1 M "
_symmetry_group_IT_number 162
_symmetry_cell_setting 'hexagonal'
loop_
_space_group_symop_operation_xyz
x,y,z
-y,x-y,z
-x+y,-x,z
-y,-x,-z
-x+y,y,-z
x,x-y,-z
-x,-y,-z
y,-x+y,-z
x-y,x,-z
y,x,z
x-y,-y,z
-x,-x+y,z
loop_
_atom_site_type_symbol
_atom_site_label
_atom_site_fract_x
_atom_site_fract_y
_atom_site_fract_z
Si Si1 0.608500 0.766496 0.773411
Si Si2 0.898323 0.546676 0.705837
Si Si3 0.201026 0.099758 0.865628
Si Si4 0.900133 0.628292 0.476424
Si Si5 0.484082 0.587168 0.878854
O O1 0.574785 0.833566 0.756668
O O2 0.707736 0.827868 0.812047
O O3 0.602980 0.720274 0.654098
O O4 0.546539 0.688551 0.855457
O O5 0.887822 0.556369 0.570483
O O6 0.879373 0.460272 0.773374
O O7 0.000000 0.612446 0.727378
O O8 0.162691 0.162691 0.833979
O O9 0.131969 0.000000 0.840187
O O10 0.212632 0.106316 0.000000
O O11 0.827259 0.654517 0.500000
O O12 0.000000 0.701704 0.488325
O O13 0.544745 0.544745 0.883084
O O14 0.435686 0.564315 0.000000
#
# Coordination Sequence:
#
# PCOD9577965 Si02
#       5
#    12  12  12  12  12
#     4  11  21  36  59  85 113 154 199 239 287 355
#     4   9  20  38  58  83 115 152 189 238 292 340
#     4  10  21  35  55  84 120 160 202 249 300 358
#     4   9  18  34  57  84 114 149 198 245 290 345
#     4  10  22  37  55  81 114 146 185 237 291 347
#
# _framework density 17.819452999999999
#
# number of rings (size 3 to 8) (size 9 to 14) (size 15 to 20)
#    0.000    2.200    0.000    2.600    2.800    2.400 
#    1.200    3.000    0.000    0.200    0.000    0.000 
#    0.000    0.000    0.000    0.000    0.000    0.000 
#
# Total GULP energy -334127.479323 kJ/mol
# GULP energy per Si atom -5568.791322 kJ/mol
# Density = 1.777889 g / cm^3
# Si number density = 17.819453 Si / 1000 Ang^3
#
#
#
# Elastic Constant Matrix: (Units=GPa)
#
#
# Indices 1 2 3 4 5 6 
#
# 1 108.8649 43.4802 44.6026 -0.0001 -0.7271 0.0000
# 2 43.4802 108.8649 44.6026 0.0001 0.7271 0.0000
# 3 44.6026 44.6026 100.8873 0.0000 0.0000 0.0000
# 4 -0.0001 0.0001 0.0000 31.4341 0.0000 0.7271
# 5 -0.7271 0.7271 0.0000 0.0000 31.4341 -0.0001
# 6 0.0000 0.0000 0.0000 0.7271 -0.0001 32.6923
#
#
#
# Elastic Compliance Matrix: (Units=1/GPa)
#
#
# Indices 1 2 3 4 5 6 
#
# 1 0.012079 -0.003223 -0.003916 0.000000 0.000354 0.000000
# 2 -0.003223 0.012079 -0.003916 0.000000 -0.000354 0.000000
# 3 -0.003916 -0.003916 0.013374 0.000000 0.000000 0.000000
# 4 0.000000 0.000000 0.000000 0.031829 0.000000 -0.000708
# 5 0.000354 -0.000354 0.000000 0.000000 0.031829 0.000000
# 6 0.000000 0.000000 0.000000 -0.000708 0.000000 0.030604
#
#
# Mechanical properties :
#
#
# Convention : Reuss Voigt Hill
#
# Bulk Modulus (GPa) = 64.82813 64.88756 64.85785
# Shear Modulus (GPa) = 31.43777 31.50757 31.47267
#
# Velocity S-wave (km/s) = 4.20484 4.20951 4.20717
# Velocity P-wave (km/s) = 7.74815 7.75368 7.75091
#
# Compressibility (1/GPa) = 0.01542540
#
# Stress axis : x y z
#
# Youngs Moduli (GPa) = 82.78553 82.78553 74.77038
#
# Poissons Ratio (x) = 0.26678 0.29277
# Poissons Ratio (y) = 0.26678 0.29277
# Poissons Ratio (z) = 0.32416 0.32416
#
# Static dielectric constant tensor:
#      x y z
#    x 1.604190 0.000000 0.000000 
#    y 0.000000 1.604190 0.000000 
#    z 0.000000 0.000000 1.663360 
# 
# From -- ./inp_files/2339.got.cif
#   From: 2010.05.17/outbox.ucp.g08.bks.cvg/sg162_2_cif.got.tgz:2339.got - 2010.06.11 15:15:45.
