data_PCOD9577679
_publ_section_title
;
Structure prediction by ZEFSAII (Michael W. Deem and Ramdas Pophale) SiO2 
 PCOD9577679
Probable space group: P -3 1 M 
;
_chemical_formula_sum "Si O2"
_cell_formula_units_Z 84
_cell_length_a 18.279791
_cell_length_b 18.279791
_cell_length_c 13.243033
_cell_angle_alpha 90.000000
_cell_angle_beta 90.000000
_cell_angle_gamma 120.000000
_cell_volume 3832.309228
_symmetry_space_group_name_H-M "P -3 1 M "
_symmetry_group_IT_number 162
_symmetry_cell_setting 'hexagonal'
loop_
_space_group_symop_operation_xyz
x,y,z
-y,x-y,z
-x+y,-x,z
-y,-x,-z
-x+y,y,-z
x,x-y,-z
-x,-y,-z
y,-x+y,-z
x-y,x,-z
y,x,z
x-y,-y,z
-x,-x+y,z
loop_
_atom_site_type_symbol
_atom_site_label
_atom_site_fract_x
_atom_site_fract_y
_atom_site_fract_z
Si Si1 0.087716 0.224629 0.606781
Si Si2 0.633872 0.531980 0.774959
Si Si3 0.631944 0.733600 0.363198
Si Si4 0.097249 0.194001 0.838808
Si Si5 0.476091 0.374173 0.455266
Si Si6 0.395931 0.494139 0.905632
Si Si7 0.784662 0.605115 0.150626
O O1 0.092271 0.184542 0.500000
O O2 0.168859 0.313759 0.610428
O O3 0.091946 0.187064 0.715080
O O4 0.000000 0.224013 0.605380
O O5 0.594282 0.594282 0.785505
O O6 0.655300 0.526367 0.658297
O O7 0.560040 0.440743 0.813360
O O8 0.721113 0.568003 0.835270
O O9 0.693188 0.693188 0.353677
O O10 0.572349 0.690676 0.456621
O O11 0.594044 0.732991 0.255031
O O12 0.140113 0.140113 0.873846
O O13 0.157363 0.293262 0.865391
O O14 0.000000 0.154671 0.872875
O O15 0.568519 0.431482 0.500000
O O16 0.432146 0.432146 0.446793
O O17 0.421989 0.421989 0.894664
O O18 0.295436 0.448807 0.921086
O O19 0.448078 0.551923 0.000000
#
# Coordination Sequence:
#
# PCOD9577679 Si02
#       7
#    12  12  12  12  12  12  12
#     4  10  19  29  41  63 105 163 227 278 308 340
#     4  10  22  39  60  92 126 158 202 257 313 376
#     4  10  20  32  52  81 116 165 215 260 307 361
#     4  10  20  33  52  82 126 178 226 268 309 361
#     4   9  18  33  55  82 116 159 206 254 306 366
#     4  10  22  43  69  92 117 152 195 252 323 395
#     4  11  21  36  61  90 125 163 210 262 318 383
#
# _framework density 21.918900000000001
#
# number of rings (size 3 to 8) (size 9 to 14) (size 15 to 20)
#    0.000    2.000    0.000    4.857    4.000    3.429 
#    0.857    0.000    0.000    5.571    0.000    0.000 
#    0.000    0.000    0.000   10.857    0.000    0.000 
#
# Total GULP energy -468861.594747 kJ/mol
# GULP energy per Si atom -5581.685652 kJ/mol
# Density = 2.186901 g / cm^3
# Si number density = 21.918900 Si / 1000 Ang^3
#
#
#
# Elastic Constant Matrix: (Units=GPa)
#
#
# Indices 1 2 3 4 5 6 
#
# 1 114.1904 82.9274 16.7292 -0.0003 0.9558 0.0000
# 2 82.9274 114.1904 16.7292 0.0003 -0.9558 0.0000
# 3 16.7292 16.7292 76.6741 0.0000 0.0000 0.0000
# 4 -0.0003 0.0003 0.0000 17.3694 0.0000 -0.9558
# 5 0.9558 -0.9558 0.0000 0.0000 17.3694 -0.0003
# 6 0.0000 0.0000 0.0000 -0.9558 -0.0003 15.6315
#
#
#
# Elastic Compliance Matrix: (Units=1/GPa)
#
#
# Indices 1 2 3 4 5 6 
#
# 1 0.018681 -0.013413 -0.001149 0.000001 -0.001766 0.000000
# 2 -0.013413 0.018681 -0.001149 -0.000001 0.001766 0.000000
# 3 -0.001149 -0.001149 0.013544 0.000000 0.000000 0.000000
# 4 0.000001 -0.000001 0.000000 0.057767 0.000000 0.003532
# 5 -0.001766 0.001766 0.000000 0.000000 0.057767 0.000001
# 6 0.000000 0.000000 0.000000 0.003532 0.000001 0.064189
#
#
# Mechanical properties :
#
#
# Convention : Reuss Voigt Hill
#
# Bulk Modulus (GPa) = 51.32831 59.75852 55.54342
# Shear Modulus (GPa) = 18.61863 22.65200 20.63532
#
# Velocity S-wave (km/s) = 2.91766 3.21821 3.07162
# Velocity P-wave (km/s) = 5.90073 6.41341 6.16240
#
# Compressibility (1/GPa) = 0.01948242
#
# Stress axis : x y z
#
# Youngs Moduli (GPa) = 53.52902 53.52902 73.83451
#
# Poissons Ratio (x) = 0.71800 0.08487
# Poissons Ratio (y) = 0.71800 0.08487
# Poissons Ratio (z) = 0.06153 0.06153
#
# Static dielectric constant tensor:
#      x y z
#    x 1.925440 0.000000 0.000000 
#    y 0.000000 1.925440 0.000000 
#    z 0.000000 0.000000 1.944440 
# 
# From -- ./inp_files/3215.got.cif
#   From: 2010.05.17/outbox.cif.g08.bks.cpg/sg162_2_cif.got.tgz:3215.got - 2010.05.20 10:53:12.
