data_PCOD9577514
_publ_section_title
;
Structure prediction by ZEFSAII (Michael W. Deem and Ramdas Pophale) SiO2 
 PCOD9577514
Probable space group: R 3 M
;
_chemical_formula_sum "Si O2"
_cell_formula_units_Z 48
_cell_length_a 21.000000
_cell_length_b 21.000000
_cell_length_c 21.000000
_cell_angle_alpha 90.000000
_cell_angle_beta 90.000000
_cell_angle_gamma 120.000000
_cell_volume 8020.261264
_symmetry_space_group_name_H-M "R 3 M"
_symmetry_group_IT_number 160
_symmetry_cell_setting 'hexagonal'
loop_
_space_group_symop_operation_xyz
x,y,z
-y,x-y,z
-x+y,-x,z
-x+y,y,z
x,x-y,z
-y,-x,z
2/3+x,1/3+y,1/3+z
2/3-y,1/3+x-y,1/3+z
2/3-x+y,1/3-x,1/3+z
2/3-x+y,1/3+y,1/3+z
2/3+x,1/3+x-y,1/3+z
2/3-y,1/3-x,1/3+z
1/3+x,2/3+y,2/3+z
1/3-y,2/3+x-y,2/3+z
1/3-x+y,2/3-x,2/3+z
1/3-x+y,2/3+y,2/3+z
1/3+x,2/3+x-y,2/3+z
1/3-y,2/3-x,2/3+z
loop_
_atom_site_type_symbol
_atom_site_label
_atom_site_fract_x
_atom_site_fract_y
_atom_site_fract_z
Si Si1 0.084771 0.619267 0.087454
Si Si2 0.819022 0.486503 0.363383
Si Si3 0.608948 0.544353 0.253431
Si Si4 0.064975 0.404196 0.452209
Si Si5 0.150001 0.001038 0.691290
Si Si6 0.154994 0.154994 0.292388
Si Si7 0.957333 0.762061 0.159674
Si Si8 0.769335 0.807620 0.565451
O O1 0.076586 0.538293 0.087613
O O2 0.116157 0.653589 0.158122
O O3 0.003870 0.609923 0.088648
O O4 0.133605 0.659271 0.024891
O O5 0.742730 0.485459 0.352168
O O6 0.808201 0.404101 0.358664
O O7 0.881874 0.536638 0.311461
O O8 0.849306 0.515616 0.434458
O O9 0.531826 0.468174 0.253643
O O10 0.646401 0.555791 0.184724
O O11 0.587860 0.608859 0.255049
O O12 0.113255 0.469094 0.402709
O O13 0.983970 0.387630 0.472896
O O14 0.065833 0.934168 0.691807
O O15 0.181597 0.008983 0.619452
O O16 0.155749 0.077875 0.711236
O O17 0.074270 0.148539 0.287718
O O18 0.203257 0.195952 0.228824
O O19 0.147762 0.073881 0.294596
O O20 0.876679 0.753358 0.161419
O O21 0.767865 0.883933 0.565681
#
# Coordination Sequence:
#
# PCOD9577514 Si02
#       8
#    18  18  18  18  18  18  18  18
#     4   9  19  36  58  85 114 144 186 231 271 331
#     4  10  20  35  55  79 107 139 177 224 276 331
#     4   9  18  34  56  80 105 137 182 229 274 333
#     4  11  21  37  57  78 108 151 188 229 285 331
#     4  11  22  35  54  81 113 149 190 234 281 333
#     4  10  21  39  62  88 118 150 183 226 281 338
#     4  10  22  37  54  80 111 144 189 234 271 327
#     4   8  16  33  54  75 105 144 180 219 267 316
#
# _framework density 5.9848420000000004
#
# number of rings (size 3 to 8) (size 9 to 14) (size 15 to 20)
#    0.000    2.250    0.000    3.750    0.000    6.500 
#    0.000    3.750    0.000    3.750    0.000    0.000 
#    0.000    0.000    0.000    0.000    0.000    0.000 
#
# Total GULP energy -267629.693007 kJ/mol
# GULP energy per Si atom -5575.618604 kJ/mol
# Density = 0.597122 g / cm^3
# Si number density = 5.984842 Si / 1000 Ang^3
#
#
#
# Elastic Constant Matrix: (Units=GPa)
#
#
# Indices 1 2 3 4 5 6 
#
# 1 79.9781 34.1890 53.4789 0.8583 0.0000 0.0000
# 2 34.1890 79.9781 53.4789 -0.8583 0.0000 0.0000
# 3 53.4789 53.4789 144.5042 0.0000 0.0000 0.0000
# 4 0.8583 -0.8583 0.0000 35.0802 0.0000 0.0000
# 5 0.0000 0.0000 0.0000 0.0000 35.0802 0.8583
# 6 0.0000 0.0000 0.0000 0.0000 0.8583 22.8946
#
#
#
# Elastic Compliance Matrix: (Units=1/GPa)
#
#
# Indices 1 2 3 4 5 6 
#
# 1 0.017634 -0.004226 -0.004962 -0.000535 0.000000 0.000000
# 2 -0.004226 0.017634 -0.004962 0.000535 0.000000 0.000000
# 3 -0.004962 -0.004962 0.010593 0.000000 0.000000 0.000000
# 4 -0.000535 0.000535 0.000000 0.028532 0.000000 0.000000
# 5 0.000000 0.000000 0.000000 0.000000 0.028532 -0.001070
# 6 0.000000 0.000000 0.000000 0.000000 -0.001070 0.043719
#
#
# Mechanical properties :
#
#
# Convention : Reuss Voigt Hill
#
# Bulk Modulus (GPa) = 56.94624 65.19489 61.07057
# Shear Modulus (GPa) = 27.65542 29.49854 28.57698
#
# Velocity S-wave (km/s) = 3.92893 4.05774 3.99385
# Velocity P-wave (km/s) = 7.23656 7.63830 7.44014
#
# Compressibility (1/GPa) = 0.01756042
#
# Stress axis : x y z
#
# Youngs Moduli (GPa) = 56.71010 56.71010 94.40227
#
# Poissons Ratio (x) = 0.23964 0.46843
# Poissons Ratio (y) = 0.23964 0.46843
# Poissons Ratio (z) = 0.28140 0.28140
#
# Static dielectric constant tensor:
#      x y z
#    x 1.610050 0.000000 0.000000 
#    y 0.000000 1.610050 0.000000 
#    z 0.000000 0.000000 1.632610 
# 
# From -- ./inp_files/3422.got.cif
#   From: 2010.05.17/outbox.ucp.g08.bks.cvg/sg160_2_cif.got.tgz:3422.got - 2010.06.11 15:14:33.
