data_PCOD9577586
_publ_section_title
;
Structure prediction by ZEFSAII (Michael W. Deem and Ramdas Pophale) SiO2 
 PCOD9577586
Probable space group: R 3 C
;
_chemical_formula_sum "Si O2"
_cell_formula_units_Z 126
_cell_length_a 21.569600
_cell_length_b 21.569600
_cell_length_c 14.519508
_cell_angle_alpha 90.000000
_cell_angle_beta 90.000000
_cell_angle_gamma 120.000000
_cell_volume 5850.146135
_symmetry_space_group_name_H-M "R 3 C"
_symmetry_group_IT_number 161
_symmetry_cell_setting 'hexagonal'
loop_
_space_group_symop_operation_xyz
x,y,z
-y,x-y,z
-x+y,-x,z
-x+y,y,1/2+z
x,x-y,1/2+z
-y,-x,1/2+z
2/3+x,1/3+y,1/3+z
2/3-y,1/3+x-y,1/3+z
2/3-x+y,1/3-x,1/3+z
2/3-x+y,1/3+y,5/6+z
2/3+x,1/3+x-y,5/6+z
2/3-y,1/3-x,5/6+z
1/3+x,2/3+y,2/3+z
1/3-y,2/3+x-y,2/3+z
1/3-x+y,2/3-x,2/3+z
1/3-x+y,2/3+y,1/6+z
1/3+x,2/3+x-y,1/6+z
1/3-y,2/3-x,1/6+z
loop_
_atom_site_type_symbol
_atom_site_label
_atom_site_fract_x
_atom_site_fract_y
_atom_site_fract_z
Si Si1 0.568257 0.723719 0.061264
Si Si2 0.932298 0.275660 0.011260
Si Si3 0.613846 0.860618 0.844173
Si Si4 0.796640 0.045582 0.677298
Si Si5 0.972239 0.184867 0.876751
Si Si6 0.054786 0.498864 0.787520
Si Si7 0.440277 0.537141 0.582740
O O1 0.590468 0.722533 0.954094
O O2 0.533700 0.774212 0.070810
O O3 0.642259 0.762119 0.117994
O O4 0.509831 0.644753 0.089947
O O5 0.953179 0.353457 0.972105
O O6 0.967584 0.240231 0.947368
O O7 0.846863 0.227320 0.003558
O O8 0.069040 0.353188 0.782556
O O9 0.571607 0.778414 0.808749
O O10 0.580623 0.862005 0.943123
O O11 0.692579 0.872484 0.858159
O O12 0.780174 0.965319 0.659919
O O13 0.049883 0.192981 0.876003
O O14 0.073085 0.525538 0.683158
#
# Coordination Sequence:
#
# PCOD9577586 Si02
#       7
#    18  18  18  18  18  18  18
#     4  10  25  44  66  96 132 180 227 271 338 407
#     4  11  23  41  68  96 135 171 221 280 339 393
#     4  11  24  38  64  99 129 175 218 272 338 396
#     4  11  23  42  63  97 134 170 224 272 328 403
#     4  10  23  46  60  96 135 172 222 271 333 401
#     4  11  24  44  65 100 133 173 218 285 336 392
#     4  12  22  43  68  92 134 177 222 275 338 404
#
# _framework density 21.537924
#
# number of rings (size 3 to 8) (size 9 to 14) (size 15 to 20)
#    0.000    1.143    5.714    1.714    4.000    2.286 
#    3.429    0.000    0.000    0.571    0.000    0.000 
#    0.000    0.000    0.000    0.000    0.000    0.000 
#
# Total GULP energy -234793.703837 kJ/mol
# GULP energy per Si atom -5590.326282 kJ/mol
# Density = 2.148890 g / cm^3
# Si number density = 21.537924 Si / 1000 Ang^3
#
#
#
# Elastic Constant Matrix: (Units=GPa)
#
#
# Indices 1 2 3 4 5 6 
#
# 1 138.9309 56.9448 21.1992 -0.9957 0.0000 0.0000
# 2 56.9448 138.9309 21.1992 0.9957 0.0000 0.0000
# 3 21.1992 21.1992 54.5982 0.0000 0.0000 0.0000
# 4 -0.9957 0.9957 0.0000 28.6844 0.0000 0.0000
# 5 0.0000 0.0000 0.0000 0.0000 28.6844 -0.9957
# 6 0.0000 0.0000 0.0000 0.0000 -0.9957 40.9930
#
#
#
# Elastic Compliance Matrix: (Units=1/GPa)
#
#
# Indices 1 2 3 4 5 6 
#
# 1 0.008891 -0.003317 -0.002164 0.000424 0.000000 0.000000
# 2 -0.003317 0.008891 -0.002164 -0.000424 0.000000 0.000000
# 3 -0.002164 -0.002164 0.019996 0.000000 0.000000 0.000000
# 4 0.000424 -0.000424 0.000000 0.034892 0.000000 0.000000
# 5 0.000000 0.000000 0.000000 0.000000 0.034892 0.000848
# 6 0.000000 0.000000 0.000000 0.000000 0.000848 0.024415
#
#
# Mechanical properties :
#
#
# Convention : Reuss Voigt Hill
#
# Bulk Modulus (GPa) = 44.47002 59.01626 51.74314
# Shear Modulus (GPa) = 32.30776 35.21348 33.76062
#
# Velocity S-wave (km/s) = 3.87724 4.04784 3.96346
# Velocity P-wave (km/s) = 6.38248 7.02191 6.70982
#
# Compressibility (1/GPa) = 0.02248706
#
# Stress axis : x y z
#
# Youngs Moduli (GPa) = 112.47830 112.47830 50.00955
#
# Poissons Ratio (x) = 0.37308 0.10823
# Poissons Ratio (y) = 0.37308 0.10823
# Poissons Ratio (z) = 0.24342 0.24342
#
# Static dielectric constant tensor:
#      x y z
#    x 1.802330 0.000000 0.000000 
#    y 0.000000 1.802330 0.000000 
#    z 0.000000 0.000000 1.869920 
# 
# From -- ./inp_files/1427.got.cif
#   From: 2010.05.17/outbox.cif.g08.bks.cpg/sg161_cif.got.tgz:1427.got - 2010.05.20 10:52:32.
