data_PCOD9577963
_publ_section_title
;
Structure prediction by ZEFSAII (Michael W. Deem and Ramdas Pophale) SiO2 
 PCOD9577963
Probable space group: P -3 1 M 
;
_chemical_formula_sum "Si O2"
_cell_formula_units_Z 72
_cell_length_a 15.000000
_cell_length_b 15.000000
_cell_length_c 21.000000
_cell_angle_alpha 90.000000
_cell_angle_beta 90.000000
_cell_angle_gamma 120.000000
_cell_volume 4091.970033
_symmetry_space_group_name_H-M "P -3 1 M "
_symmetry_group_IT_number 162
_symmetry_cell_setting 'hexagonal'
loop_
_space_group_symop_operation_xyz
x,y,z
-y,x-y,z
-x+y,-x,z
-y,-x,-z
-x+y,y,-z
x,x-y,-z
-x,-y,-z
y,-x+y,-z
x-y,x,-z
y,x,z
x-y,-y,z
-x,-x+y,z
loop_
_atom_site_type_symbol
_atom_site_label
_atom_site_fract_x
_atom_site_fract_y
_atom_site_fract_z
Si Si1 0.658580 0.878493 0.382118
Si Si2 0.446573 0.569715 0.289351
Si Si3 0.788146 0.208242 0.249540
Si Si4 0.877901 0.122100 0.000000
Si Si5 0.123834 0.875309 0.141323
Si Si6 0.118681 0.237363 0.500000
Si Si7 0.423846 0.879173 0.571105
O O1 0.641576 0.821793 0.316015
O O2 0.696435 0.832618 0.437335
O O3 0.557127 0.874159 0.411196
O O4 0.736721 0.000000 0.370710
O O5 0.499528 0.499528 0.293727
O O6 0.513078 0.669001 0.246756
O O7 0.333443 0.499006 0.260190
O O8 0.443920 0.607129 0.362494
O O9 0.820555 0.159824 0.192639
O O10 0.852447 0.148619 0.930537
O O11 0.000000 0.172903 0.000922
O O12 0.000000 0.827727 0.146315
O O13 0.184375 0.000000 0.150004
O O14 0.168350 0.168350 0.487081
O O15 0.417450 0.834901 0.500000
O O16 0.511518 0.000000 0.567022
#
# Coordination Sequence:
#
# PCOD9577963 Si02
#       7
#    12  12  12   6  12   6  12
#     4   9  19  33  48  69  96 126 166 215 265 316
#     4  10  21  35  51  74 102 133 174 221 270 318
#     4  11  21  36  55  76 106 141 181 224 272 324
#     4   8  15  28  50  82 116 146 176 214 263 316
#     4  10  19  33  56  86 118 148 178 216 265 323
#     4  10  21  34  48  66  96 136 174 208 249 312
#     4   8  15  29  48  67  89 116 153 208 266 310
#
# _framework density 17.595437
#
# number of rings (size 3 to 8) (size 9 to 14) (size 15 to 20)
#    0.000    2.500    0.000    3.667    2.333    2.667 
#    0.000    0.000    0.000    3.000    0.000    4.667 
#    0.000    0.000    0.000    0.000    0.000    0.000 
#
# Total GULP energy -401034.078879 kJ/mol
# GULP energy per Si atom -5569.917762 kJ/mol
# Density = 1.755539 g / cm^3
# Si number density = 17.595437 Si / 1000 Ang^3
#
#
#
# Elastic Constant Matrix: (Units=GPa)
#
#
# Indices 1 2 3 4 5 6 
#
# 1 -23.1055 86.9051 44.5688 0.0008 16.5203 0.0000
# 2 86.9051 -23.1055 44.5688 -0.0008 -16.5203 0.0000
# 3 44.5688 44.5688 156.2494 0.0000 0.0000 0.0000
# 4 0.0008 -0.0008 0.0000 20.0391 0.0000 -16.5203
# 5 16.5203 -16.5203 0.0000 0.0000 20.0391 0.0008
# 6 0.0000 0.0000 0.0000 -16.5203 0.0008 -55.0053
#
#
#
# Elastic Compliance Matrix: (Units=1/GPa)
#
#
# Indices 1 2 3 4 5 6 
#
# 1 0.009387 0.016673 -0.007433 0.000000 0.006007 0.000000
# 2 0.016673 0.009387 -0.007433 0.000000 -0.006007 0.000000
# 3 -0.007433 -0.007433 0.010641 0.000000 0.000000 0.000000
# 4 0.000000 0.000000 0.000000 0.039999 0.000000 -0.012013
# 5 0.006007 -0.006007 0.000000 0.000000 0.039999 0.000001
# 6 0.000000 0.000000 0.000000 -0.012013 0.000001 -0.014572
#
#
# Mechanical properties :
#
#
# Convention : Reuss Voigt Hill
#
# Bulk Modulus (GPa) = 30.27871 51.34709 40.81290
# Shear Modulus (GPa) = 48.90655 -7.38571 20.76042
#
# Velocity S-wave (km/s) = 5.27782 -2.05101 3.43866
# Velocity P-wave (km/s) = 7.37469 4.86174 6.24591
#
# Compressibility (1/GPa) = 0.03302651
#
# Stress axis : x y z
#
# Youngs Moduli (GPa) = 106.53342 106.53342 93.97995
#
# Poissons Ratio (x) = -1.77620 0.69858
# Poissons Ratio (y) = -1.77620 0.69858
# Poissons Ratio (z) = 0.79189 0.79189
#
# Static dielectric constant tensor:
#      x y z
#    x 1.612290 0.000000 0.000000 
#    y 0.000000 1.612290 0.000000 
#    z 0.000000 0.000000 1.612300 
# 
# From -- ./inp_files/3838.got.cif
#   From: 2010.05.17/outbox.ucp.g08.bks.cvg/sg162_2_cif.got.tgz:3838.got - 2010.06.11 15:15:45.
