data_PCOD9577317
_publ_section_title
;
Structure prediction by ZEFSAII (Michael W. Deem and Ramdas Pophale) SiO2 
 PCOD9577317
Probable space group: P 3 C 1
;
_chemical_formula_sum "Si O2"
_cell_formula_units_Z 30
_cell_length_a 11.270871
_cell_length_b 11.270871
_cell_length_c 11.982472
_cell_angle_alpha 90.000000
_cell_angle_beta 90.000000
_cell_angle_gamma 120.000000
_cell_volume 1318.232494
_symmetry_space_group_name_H-M "P 3 C 1"
_symmetry_group_IT_number 158
_symmetry_cell_setting 'hexagonal'
loop_
_space_group_symop_operation_xyz
x,y,z
-y,x-y,z
-x+y,-x,z
-x+y,y,1/2+z
x,x-y,1/2+z
-y,-x,1/2+z
loop_
_atom_site_type_symbol
_atom_site_label
_atom_site_fract_x
_atom_site_fract_y
_atom_site_fract_z
Si Si1 0.268250 0.184194 0.900750
Si Si2 0.507827 0.182963 0.536472
Si Si3 0.280228 0.280228 0.213574
Si Si4 0.731750 0.815806 0.026398
Si Si5 0.492173 0.675136 0.890676
O O1 0.163454 0.236364 0.926810
O O2 0.253598 0.103643 0.787784
O O3 0.236363 0.072909 0.000338
O O4 0.423784 0.302584 0.922482
O O5 0.658550 0.202446 0.541951
O O6 0.408824 0.088691 0.633055
O O7 0.320132 0.408824 0.294093
O O8 0.149954 0.253599 0.139364
O O9 0.576216 0.697415 0.004666
O O10 0.456103 0.797553 0.885197
#
# Coordination Sequence:
#
# PCOD9577317 Si02
#       5
#     6   6   6   6   6
#     4  10  22  39  60  89 123 159 208 261 309 366
#     4   9  22  40  57  93 120 164 201 262 306 360
#     4  10  22  38  64  88 118 170 206 250 320 376
#     4  10  22  39  60  89 123 159 208 261 309 366
#     4   9  22  40  57  93 120 164 201 262 306 360
#
# _framework density 22.757745
#
# number of rings (size 3 to 8) (size 9 to 14) (size 15 to 20)
#    0.800    1.600    0.000    0.400    0.000   19.200 
#    0.000    0.000    0.000    0.000    0.000    0.000 
#    0.000    0.000    0.000    0.000    0.000    0.000 
#
# Total GULP energy -167489.201201 kJ/mol
# GULP energy per Si atom -5582.973373 kJ/mol
# Density = 2.270595 g / cm^3
# Si number density = 22.757745 Si / 1000 Ang^3
#
#
#
# Elastic Constant Matrix: (Units=GPa)
#
#
# Indices 1 2 3 4 5 6 
#
# 1 86.7496 28.8345 10.7358 2.5385 0.0000 0.0000
# 2 28.8345 86.7496 10.7358 -2.5385 0.0000 0.0000
# 3 10.7358 10.7358 76.4297 0.0000 0.0000 0.0000
# 4 2.5385 -2.5385 0.0000 29.9675 0.0000 0.0000
# 5 0.0000 0.0000 0.0000 0.0000 29.9675 2.5385
# 6 0.0000 0.0000 0.0000 0.0000 2.5385 28.9575
#
#
#
# Elastic Compliance Matrix: (Units=1/GPa)
#
#
# Indices 1 2 3 4 5 6 
#
# 1 0.013140 -0.004256 -0.001248 -0.001474 0.000000 0.000000
# 2 -0.004256 0.013140 -0.001248 0.001474 0.000000 0.000000
# 3 -0.001248 -0.001248 0.013434 0.000000 0.000000 0.000000
# 4 -0.001474 0.001474 0.000000 0.033619 0.000000 0.000000
# 5 0.000000 0.000000 0.000000 0.000000 0.033619 -0.002947
# 6 0.000000 0.000000 0.000000 0.000000 -0.002947 0.034792
#
#
# Mechanical properties :
#
#
# Convention : Reuss Voigt Hill
#
# Bulk Modulus (GPa) = 38.15312 38.94899 38.55106
# Shear Modulus (GPa) = 30.49076 31.08669 30.78873
#
# Velocity S-wave (km/s) = 3.66429 3.69993 3.68216
# Velocity P-wave (km/s) = 5.89101 5.95016 5.92066
#
# Compressibility (1/GPa) = 0.02621018
#
# Stress axis : x y z
#
# Youngs Moduli (GPa) = 76.10537 76.10537 74.43537
#
# Poissons Ratio (x) = 0.32392 0.09288
# Poissons Ratio (y) = 0.32392 0.09288
# Poissons Ratio (z) = 0.09497 0.09497
#
# Static dielectric constant tensor:
#      x y z
#    x 1.839480 0.000000 0.000000 
#    y 0.000000 1.839480 0.000000 
#    z 0.000000 0.000000 1.857170 
# 
# From -- ./inp_files/425.got.cif
#   From: 2010.05.17/outbox.cif.g08.bks.cpg/sg158_cif.got.tgz:425.got - 2010.05.20 10:49:59.
