data_PCOD9577298
_publ_section_title
;
Structure prediction by ZEFSAII (Michael W. Deem and Ramdas Pophale) SiO2 
 PCOD9577298
Probable space group: P 3 C 1
;
_chemical_formula_sum "Si O2"
_cell_formula_units_Z 36
_cell_length_a 8.376962
_cell_length_b 8.376962
_cell_length_c 26.796329
_cell_angle_alpha 90.000000
_cell_angle_beta 90.000000
_cell_angle_gamma 120.000000
_cell_volume 1628.467231
_symmetry_space_group_name_H-M "P 3 C 1"
_symmetry_group_IT_number 158
_symmetry_cell_setting 'hexagonal'
loop_
_space_group_symop_operation_xyz
x,y,z
-y,x-y,z
-x+y,-x,z
-x+y,y,1/2+z
x,x-y,1/2+z
-y,-x,1/2+z
loop_
_atom_site_type_symbol
_atom_site_label
_atom_site_fract_x
_atom_site_fract_y
_atom_site_fract_z
Si Si1 0.547968 0.090568 0.535590
Si Si2 0.276725 0.846968 0.786315
Si Si3 0.997201 0.312442 0.681026
Si Si4 0.631539 0.991984 0.639617
Si Si5 0.359363 0.363121 0.933254
Si Si6 0.008655 0.319101 0.892375
O O1 0.767612 0.236591 0.535372
O O2 0.542226 0.987872 0.585880
O O3 0.450103 0.985257 0.485492
O O4 0.144810 0.622557 0.784645
O O5 0.256621 0.950680 0.738243
O O6 0.248480 0.942327 0.835197
O O7 0.939543 0.467101 0.676432
O O8 0.192142 0.395904 0.653156
O O9 0.846756 0.134600 0.651078
O O10 0.469681 0.528973 0.895311
O O11 0.388390 0.196041 0.914447
O O12 0.144577 0.288945 0.928168
#
# Coordination Sequence:
#
# PCOD9577298 Si02
#       6
#     6   6   6   6   6   6
#     4  10  20  44  70  96 140 178 234 298 356 426
#     4  10  20  42  70 102 142 186 236 294 364 440
#     4  12  24  43  73 101 146 186 241 297 368 430
#     4  12  24  45  70 108 140 193 237 305 358 441
#     4  12  24  45  70 108 140 193 237 305 358 441
#     4  12  24  43  73 101 146 186 241 297 368 430
#
# _framework density 22.106680000000001
#
# number of rings (size 3 to 8) (size 9 to 14) (size 15 to 20)
#    0.667    0.000    6.667    2.000    0.000    4.000 
#    0.000    0.000    0.000    0.000    0.000    0.000 
#    0.000    0.000    0.000    0.000    0.000    0.000 
#
# Total GULP energy -200427.984239 kJ/mol
# GULP energy per Si atom -5567.444007 kJ/mol
# Density = 2.205636 g / cm^3
# Si number density = 22.106680 Si / 1000 Ang^3
#
#
#
# Elastic Constant Matrix: (Units=GPa)
#
#
# Indices 1 2 3 4 5 6 
#
# 1 58.9410 5.6004 32.0523 -0.8414 0.0000 0.0000
# 2 5.6004 58.9410 32.0523 0.8414 0.0000 0.0000
# 3 32.0523 32.0523 195.3856 0.0000 0.0000 0.0000
# 4 -0.8414 0.8414 0.0000 28.4563 0.0000 0.0000
# 5 0.0000 0.0000 0.0000 0.0000 28.4563 -0.8414
# 6 0.0000 0.0000 0.0000 0.0000 -0.8414 26.6703
#
#
#
# Elastic Compliance Matrix: (Units=1/GPa)
#
#
# Indices 1 2 3 4 5 6 
#
# 1 0.018637 -0.000128 -0.003036 0.000555 0.000000 0.000000
# 2 -0.000128 0.018637 -0.003036 -0.000555 0.000000 0.000000
# 3 -0.003036 -0.003036 0.006114 0.000000 0.000000 0.000000
# 4 0.000555 -0.000555 0.000000 0.035174 0.000000 0.000000
# 5 0.000000 0.000000 0.000000 0.000000 0.035174 0.001110
# 6 0.000000 0.000000 0.000000 0.000000 0.001110 0.037530
#
#
# Mechanical properties :
#
#
# Convention : Reuss Voigt Hill
#
# Bulk Modulus (GPa) = 32.27040 50.29748 41.28394
# Shear Modulus (GPa) = 28.73590 32.95407 30.84498
#
# Velocity S-wave (km/s) = 3.60929 3.86513 3.73940
# Velocity P-wave (km/s) = 5.65673 6.53609 6.11224
#
# Compressibility (1/GPa) = 0.03098815
#
# Stress axis : x y z
#
# Youngs Moduli (GPa) = 53.65554 53.65554 163.55024
#
# Poissons Ratio (x) = 0.00684 0.49662
# Poissons Ratio (y) = 0.00684 0.49662
# Poissons Ratio (z) = 0.16292 0.16292
#
# Static dielectric constant tensor:
#      x y z
#    x 1.846400 0.000000 0.000000 
#    y 0.000000 1.846400 0.000000 
#    z 0.000000 0.000000 1.896310 
# 
# From -- ./inp_files/764.got.cif
#   From: 2010.05.17/outbox.cif.g08.bks.cpg/sg158_cif.got.tgz:764.got - 2010.05.20 10:49:59.
