data_PCOD9577634
_publ_section_title
;
Structure prediction by ZEFSAII (Michael W. Deem and Ramdas Pophale) SiO2 
 PCOD9577634
Probable space group: P -3 1 M 
;
_chemical_formula_sum "Si O2"
_cell_formula_units_Z 60
_cell_length_a 30.747465
_cell_length_b 30.747465
_cell_length_c 5.166541
_cell_angle_alpha 90.000000
_cell_angle_beta 90.000000
_cell_angle_gamma 120.000000
_cell_volume 4230.085480
_symmetry_space_group_name_H-M "P -3 1 M "
_symmetry_group_IT_number 162
_symmetry_cell_setting 'hexagonal'
loop_
_space_group_symop_operation_xyz
x,y,z
-y,x-y,z
-x+y,-x,z
-y,-x,-z
-x+y,y,-z
x,x-y,-z
-x,-y,-z
y,-x+y,-z
x-y,x,-z
y,x,z
x-y,-y,z
-x,-x+y,z
loop_
_atom_site_type_symbol
_atom_site_label
_atom_site_fract_x
_atom_site_fract_y
_atom_site_fract_z
Si Si1 0.731964 0.000000 0.940915
Si Si2 0.803607 0.503025 0.494600
Si Si3 0.109376 0.725763 0.531094
Si Si4 0.675469 0.675469 0.559298
Si Si5 0.212148 0.322795 0.030504
Si Si6 0.437232 0.666399 0.005526
O O1 0.716404 0.000000 0.642568
O O2 0.779740 0.054409 0.001225
O O3 0.691265 0.000000 0.143379
O O4 0.755144 0.510287 0.500000
O O5 0.851235 0.558157 0.505054
O O6 0.797731 0.468817 0.739627
O O7 0.799257 0.471970 0.238824
O O8 0.052620 0.679512 0.502819
O O9 0.115410 0.764364 0.301355
O O10 0.115170 0.754256 0.801518
O O11 0.155558 0.311115 0.000000
O O12 0.384676 0.615325 0.000000
O O13 0.428286 0.714143 0.000000
#
# Coordination Sequence:
#
# PCOD9577634 Si02
#       6
#     6  12  12   6  12  12
#     4   8  16  26  36  56  80 106 144 172 192 240
#     4  10  19  29  44  66  86 103 130 166 199 234
#     4  10  18  29  43  64  87 109 138 168 198 239
#     4   8  16  28  42  58  83 112 136 164 197 232
#     4  10  17  26  41  58  83 115 139 167 206 239
#     4  10  20  33  47  63  83 107 131 157 195 242
#
# _framework density 14.184111
#
# number of rings (size 3 to 8) (size 9 to 14) (size 15 to 20)
#    0.000    2.400    0.000    3.800    0.000    1.600 
#    0.000    2.000    0.000    0.000    0.000    4.200 
#    0.000    0.000    0.000    0.300    0.000    0.000 
#
# Total GULP energy -334236.809883 kJ/mol
# GULP energy per Si atom -5570.613498 kJ/mol
# Density = 1.415183 g / cm^3
# Si number density = 14.184111 Si / 1000 Ang^3
#
#
#
# Elastic Constant Matrix: (Units=GPa)
#
#
# Indices 1 2 3 4 5 6 
#
# 1 85.2208 43.1198 15.4579 -0.0010 -1.3972 0.0000
# 2 43.1198 85.2208 15.4579 0.0010 1.3972 0.0000
# 3 15.4579 15.4579 83.1979 0.0000 0.0000 0.0000
# 4 -0.0010 0.0010 0.0000 6.7689 0.0000 1.3972
# 5 -1.3972 1.3972 0.0000 0.0000 6.7689 -0.0010
# 6 0.0000 0.0000 0.0000 1.3972 -0.0010 21.0505
#
#
#
# Elastic Compliance Matrix: (Units=1/GPa)
#
#
# Indices 1 2 3 4 5 6 
#
# 1 0.016120 -0.007963 -0.001516 0.000004 0.004971 0.000000
# 2 -0.007963 0.016120 -0.001516 -0.000004 -0.004971 0.000000
# 3 -0.001516 -0.001516 0.012583 0.000000 0.000000 0.000000
# 4 0.000004 -0.000004 0.000000 0.149787 0.000000 -0.009942
# 5 0.004971 -0.004971 0.000000 0.000000 0.149787 0.000007
# 6 0.000000 0.000000 0.000000 -0.009942 0.000007 0.048165
#
#
# Mechanical properties :
#
#
# Convention : Reuss Voigt Hill
#
# Bulk Modulus (GPa) = 43.79375 44.63451 44.21413
# Shear Modulus (GPa) = 11.84385 18.89124 15.36755
#
# Velocity S-wave (km/s) = 2.89279 3.65342 3.29513
# Velocity P-wave (km/s) = 6.48844 7.02374 6.76139
#
# Compressibility (1/GPa) = 0.02283431
#
# Stress axis : x y z
#
# Youngs Moduli (GPa) = 62.03630 62.03630 79.47426
#
# Poissons Ratio (x) = 0.49398 0.12044
# Poissons Ratio (y) = 0.49398 0.12044
# Poissons Ratio (z) = 0.09402 0.09402
#
# Static dielectric constant tensor:
#      x y z
#    x 1.454760 0.000000 0.000000 
#    y 0.000000 1.454760 0.000000 
#    z 0.000000 0.000000 1.454620 
# 
# From -- ./inp_files/691.got.cif
#   From: 2010.05.17/outbox.cif.g08.bks.cpg/sg162_1_cif.got.tgz:691.got - 2010.05.20 10:53:12.
