data_PCOD9577901
_publ_section_title
;
Structure prediction by ZEFSAII (Michael W. Deem and Ramdas Pophale) SiO2 
 PCOD9577901
Probable space group: P -3 1 M 
;
_chemical_formula_sum "Si O2"
_cell_formula_units_Z 72
_cell_length_a 14.704722
_cell_length_b 14.704722
_cell_length_c 17.194969
_cell_angle_alpha 90.000000
_cell_angle_beta 90.000000
_cell_angle_gamma 120.000000
_cell_volume 3219.924330
_symmetry_space_group_name_H-M "P -3 1 M "
_symmetry_group_IT_number 162
_symmetry_cell_setting 'hexagonal'
loop_
_space_group_symop_operation_xyz
x,y,z
-y,x-y,z
-x+y,-x,z
-y,-x,-z
-x+y,y,-z
x,x-y,-z
-x,-y,-z
y,-x+y,-z
x-y,x,-z
y,x,z
x-y,-y,z
-x,-x+y,z
loop_
_atom_site_type_symbol
_atom_site_label
_atom_site_fract_x
_atom_site_fract_y
_atom_site_fract_z
Si Si1 0.802877 0.421509 0.835128
Si Si2 0.121003 0.880266 0.182219
Si Si3 0.238290 0.119265 0.365193
Si Si4 0.715986 0.598265 0.057786
Si Si5 0.194879 0.462838 0.583863
Si Si6 0.518027 0.403306 0.666365
O O1 0.704541 0.443848 0.835799
O O2 0.868350 0.490013 0.907715
O O3 0.870413 0.455307 0.757230
O O4 0.136599 0.866790 0.273627
O O5 0.207280 0.874596 0.128935
O O6 0.000000 0.799261 0.161581
O O7 0.145027 0.000000 0.174476
O O8 0.144587 0.144587 0.371753
O O9 0.337520 0.205195 0.412187
O O10 0.198426 0.000000 0.388484
O O11 0.667407 0.667407 0.024476
O O12 0.789549 0.579098 0.000000
O O13 0.248979 0.497958 0.500000
O O14 0.290606 0.499127 0.643409
O O15 0.127790 0.513880 0.613353
O O16 0.419666 0.419666 0.652089
#
# Coordination Sequence:
#
# PCOD9577901 Si02
#       6
#    12  12  12  12  12  12
#     4  10  22  45  71  91 124 166 219 273 334 391
#     4   9  18  34  58  87 124 169 218 270 321 382
#     4  10  21  38  61  89 124 168 218 268 321 385
#     4  11  23  40  63  98 136 173 215 267 329 399
#     4  12  25  42  62  94 134 171 216 274 337 404
#     4  12  24  44  71  98 129 174 227 280 343 403
#
# _framework density 22.360772999999998
#
# number of rings (size 3 to 8) (size 9 to 14) (size 15 to 20)
#    0.333    1.000    1.667    4.167    0.000    6.667 
#    0.000    3.333    0.000    3.667    0.000    0.000 
#    0.000    0.000    0.000    0.000    0.000    0.000 
#
# Total GULP energy -402321.516950 kJ/mol
# GULP energy per Si atom -5587.798847 kJ/mol
# Density = 2.230988 g / cm^3
# Si number density = 22.360773 Si / 1000 Ang^3
#
#
#
# Elastic Constant Matrix: (Units=GPa)
#
#
# Indices 1 2 3 4 5 6 
#
# 1 55.7252 13.7079 14.4863 0.0002 -0.5473 0.0000
# 2 13.7079 55.7252 14.4863 -0.0002 0.5473 0.0000
# 3 14.4863 14.4863 61.2545 0.0000 0.0000 0.0000
# 4 0.0002 -0.0002 0.0000 12.4798 0.0000 0.5473
# 5 -0.5473 0.5473 0.0000 0.0000 12.4798 0.0002
# 6 0.0000 0.0000 0.0000 0.5473 0.0002 21.0086
#
#
#
# Elastic Compliance Matrix: (Units=1/GPa)
#
#
# Indices 1 2 3 4 5 6 
#
# 1 0.019903 -0.003924 -0.003779 0.000000 0.001045 0.000000
# 2 -0.003924 0.019903 -0.003779 0.000000 -0.001045 0.000000
# 3 -0.003779 -0.003779 0.018113 0.000000 0.000000 0.000000
# 4 0.000000 0.000000 0.000000 0.080221 0.000000 -0.002090
# 5 0.001045 -0.001045 0.000000 0.000000 0.080221 -0.000001
# 6 0.000000 0.000000 0.000000 -0.002090 -0.000001 0.047654
#
#
# Mechanical properties :
#
#
# Convention : Reuss Voigt Hill
#
# Bulk Modulus (GPa) = 28.60801 28.67400 28.64100
# Shear Modulus (GPa) = 16.63174 17.86195 17.24685
#
# Velocity S-wave (km/s) = 2.73021 2.82938 2.78024
# Velocity P-wave (km/s) = 4.77078 4.85027 4.81069
#
# Compressibility (1/GPa) = 0.03495524
#
# Stress axis : x y z
#
# Youngs Moduli (GPa) = 50.24345 50.24345 55.20976
#
# Poissons Ratio (x) = 0.19715 0.20864
# Poissons Ratio (y) = 0.19715 0.20864
# Poissons Ratio (z) = 0.18987 0.18987
#
# Static dielectric constant tensor:
#      x y z
#    x 1.810510 0.000000 0.000000 
#    y 0.000000 1.810510 0.000000 
#    z 0.000000 0.000000 1.836130 
# 
# From -- ./inp_files/3514.got.cif
#   From: 2010.05.17/outbox.cif.g08.bks.cpg/sg162_2_cif.got.tgz:3514.got - 2010.05.20 10:53:12.
