data_PCOD9577269
_publ_section_title
;
Structure prediction by ZEFSAII (Michael W. Deem and Ramdas Pophale) SiO2 
 PCOD9577269
Probable space group: P 3 1 M
;
_chemical_formula_sum "Si O2"
_cell_formula_units_Z 42
_cell_length_a 21.256862
_cell_length_b 21.256862
_cell_length_c 5.040386
_cell_angle_alpha 90.000000
_cell_angle_beta 90.000000
_cell_angle_gamma 120.000000
_cell_volume 1972.389739
_symmetry_space_group_name_H-M "P 3 1 M"
_symmetry_group_IT_number 157
_symmetry_cell_setting 'hexagonal'
loop_
_space_group_symop_operation_xyz
x,y,z
-y,x-y,z
-x+y,-x,z
y,x,z
x-y,-y,z
-x,-x+y,z
loop_
_atom_site_type_symbol
_atom_site_label
_atom_site_fract_x
_atom_site_fract_y
_atom_site_fract_z
Si Si1 0.085356 0.915276 0.553360
Si Si2 0.465816 0.854072 0.159498
Si Si3 0.214133 0.541316 0.922606
Si Si4 0.593748 0.754978 0.320979
Si Si5 0.168988 0.915305 0.044529
Si Si6 0.812981 0.519471 0.670549
Si Si7 0.919777 0.398232 0.519453
O O1 0.109877 0.909838 0.257587
O O2 0.000000 0.865824 0.590835
O O3 0.111626 0.000000 0.604421
O O4 0.131322 0.896125 0.758721
O O5 0.387997 0.782572 0.095479
O O6 0.518788 0.861461 0.916527
O O7 0.502435 0.844638 0.416149
O O8 0.439084 0.909022 0.266091
O O9 0.275441 0.544709 0.732873
O O10 0.144224 0.520961 0.733827
O O11 0.200274 0.475759 0.122548
O O12 0.665822 0.800184 0.153316
O O13 0.583397 0.798461 0.565554
O O14 0.586528 0.680518 0.430866
O O15 0.231904 0.000000 0.037998
O O16 0.000000 0.447296 0.629875
#
# Coordination Sequence:
#
# PCOD9577269 Si02
#       7
#     6   6   6   6   6   6   6
#     4  10  21  38  61  91 127 167 207 250 300 357
#     4  11  22  41  60  86 120 154 205 251 301 367
#     4  10  22  40  63  92 119 165 199 250 320 368
#     4  10  22  39  62  91 128 164 199 255 322 377
#     4  10  22  37  61  96 127 161 204 253 309 373
#     4  11  22  40  61  83 119 162 199 247 305 374
#     4  10  22  39  64  93 124 161 205 258 318 378
#
# _framework density 21.293965
#
# number of rings (size 3 to 8) (size 9 to 14) (size 15 to 20)
#    0.000    1.714    2.857    1.000    4.000    2.857 
#    0.857    5.714    0.000    5.143    0.000    0.000 
#    0.000    0.000    0.000    0.000    0.000    0.000 
#
# Total GULP energy -234097.733509 kJ/mol
# GULP energy per Si atom -5573.755560 kJ/mol
# Density = 2.124550 g / cm^3
# Si number density = 21.293965 Si / 1000 Ang^3
#
#
#
# Elastic Constant Matrix: (Units=GPa)
#
#
# Indices 1 2 3 4 5 6 
#
# 1 37.8637 22.9703 0.3684 0.0000 -2.1179 0.0000
# 2 22.9703 37.8637 0.3684 0.0000 2.1179 0.0000
# 3 0.3684 0.3684 101.9306 0.0000 0.0000 0.0000
# 4 0.0000 0.0000 0.0000 21.9941 0.0000 2.1179
# 5 -2.1179 2.1179 0.0000 0.0000 21.9941 0.0000
# 6 0.0000 0.0000 0.0000 2.1179 0.0000 7.4467
#
#
#
# Elastic Compliance Matrix: (Units=1/GPa)
#
#
# Indices 1 2 3 4 5 6 
#
# 1 0.042737 -0.026298 -0.000059 0.000000 0.006648 0.000000
# 2 -0.026298 0.042737 -0.000059 0.000000 -0.006648 0.000000
# 3 -0.000059 -0.000059 0.009811 0.000000 0.000000 0.000000
# 4 0.000000 0.000000 0.000000 0.046747 0.000000 -0.013295
# 5 0.006648 -0.006648 0.000000 0.000000 0.046747 0.000000
# 6 0.000000 0.000000 0.000000 -0.013295 0.000000 0.138069
#
#
# Mechanical properties :
#
#
# Convention : Reuss Voigt Hill
#
# Bulk Modulus (GPa) = 23.55649 25.00803 24.28226
# Shear Modulus (GPa) = 12.69582 20.55037 16.62309
#
# Velocity S-wave (km/s) = 2.44440 3.10994 2.79704
# Velocity P-wave (km/s) = 4.36501 4.96642 4.67540
#
# Compressibility (1/GPa) = 0.04245114
#
# Stress axis : x y z
#
# Youngs Moduli (GPa) = 23.39914 23.39914 101.92610
#
# Poissons Ratio (x) = 0.61534 0.00606
# Poissons Ratio (y) = 0.61534 0.00606
# Poissons Ratio (z) = 0.00139 0.00139
#
# Static dielectric constant tensor:
#      x y z
#    x 1.817180 0.000000 0.000000 
#    y 0.000000 1.817180 0.000000 
#    z 0.000000 0.000000 1.848870 
# 
# From -- ./inp_files/192.got.cif
#   From: 2010.05.17/outbox.cif.g08.bks.cpg/sg157_cif.got.tgz:192.got - 2010.05.20 10:49:36.
