data_PCOD9577723
_publ_section_title
;
Structure prediction by ZEFSAII (Michael W. Deem and Ramdas Pophale) SiO2 
 PCOD9577723
Probable space group: P -3 1 M 
;
_chemical_formula_sum "Si O2"
_cell_formula_units_Z 90
_cell_length_a 17.734867
_cell_length_b 17.734867
_cell_length_c 18.796748
_cell_angle_alpha 90.000000
_cell_angle_beta 90.000000
_cell_angle_gamma 120.000000
_cell_volume 5119.991294
_symmetry_space_group_name_H-M "P -3 1 M "
_symmetry_group_IT_number 162
_symmetry_cell_setting 'hexagonal'
loop_
_space_group_symop_operation_xyz
x,y,z
-y,x-y,z
-x+y,-x,z
-y,-x,-z
-x+y,y,-z
x,x-y,-z
-x,-y,-z
y,-x+y,-z
x-y,x,-z
y,x,z
x-y,-y,z
-x,-x+y,z
loop_
_atom_site_type_symbol
_atom_site_label
_atom_site_fract_x
_atom_site_fract_y
_atom_site_fract_z
Si Si1 0.457446 0.816170 0.072465
Si Si2 0.523711 0.628765 0.414514
Si Si3 0.894427 0.354155 0.573864
Si Si4 0.625301 0.729784 0.277671
Si Si5 0.896372 0.103629 0.500000
Si Si6 0.730361 0.096362 0.992453
Si Si7 0.800377 0.103361 0.356196
Si Si8 0.684628 0.171914 0.861307
O O1 0.414634 0.850946 0.129028
O O2 0.467802 0.739150 0.108499
O O3 0.397534 0.795068 0.000000
O O4 0.554698 0.882507 0.046250
O O5 0.572455 0.572455 0.418901
O O6 0.422191 0.558207 0.403582
O O7 0.536910 0.671834 0.492075
O O8 0.569086 0.692112 0.349569
O O9 0.874002 0.274936 0.624853
O O10 0.000000 0.408349 0.572027
O O11 0.677497 0.677497 0.265047
O O12 0.690770 0.831275 0.294659
O O13 0.558107 0.713205 0.214390
O O14 0.855175 0.119165 0.428980
O O15 0.000000 0.148718 0.490715
O O16 0.700976 0.111875 0.915715
O O17 0.710680 0.000000 0.002081
O O18 0.829624 0.170376 0.000000
O O19 0.754516 0.000000 0.339721
#
# Coordination Sequence:
#
# PCOD9577723 Si02
#       8
#    12  12  12  12   6  12  12  12
#     4   9  18  33  55  80 106 135 169 209 254 306
#     4   8  15  28  47  69  93 124 163 210 264 318
#     4   8  14  28  49  69  88 118 168 223 266 309
#     4  11  22  34  48  72 108 145 178 215 264 322
#     4  10  19  32  52  78 104 134 182 248 313 356
#     4   9  18  33  54  80 107 138 177 219 259 297
#     4  10  20  33  51  73 101 140 185 235 285 333
#     4  10  20  33  53  79 110 145 171 200 249 315
#
# _framework density 17.578156
#
# number of rings (size 3 to 8) (size 9 to 14) (size 15 to 20)
#    0.000    2.667    0.000    3.933    0.000    7.733 
#    0.000    2.667    0.000    0.933    0.000    1.867 
#    0.000    1.067    0.000    0.000    0.000    0.400 
#
# Total GULP energy -501309.539313 kJ/mol
# GULP energy per Si atom -5570.105992 kJ/mol
# Density = 1.753815 g / cm^3
# Si number density = 17.578156 Si / 1000 Ang^3
#
#
#
# Elastic Constant Matrix: (Units=GPa)
#
#
# Indices 1 2 3 4 5 6 
#
# 1 77.6805 54.2163 29.1375 0.0002 0.3160 0.0000
# 2 54.2163 77.6805 29.1375 -0.0002 -0.3160 0.0000
# 3 29.1375 29.1375 48.2792 0.0000 0.0000 0.0000
# 4 0.0002 -0.0002 0.0000 18.7266 0.0000 -0.3160
# 5 0.3160 -0.3160 0.0000 0.0000 18.7266 0.0002
# 6 0.0000 0.0000 0.0000 -0.3160 0.0002 11.7321
#
#
#
# Elastic Compliance Matrix: (Units=1/GPa)
#
#
# Indices 1 2 3 4 5 6 
#
# 1 0.026488 -0.016150 -0.006239 0.000000 -0.000719 0.000000
# 2 -0.016150 0.026488 -0.006239 0.000000 0.000719 0.000000
# 3 -0.006239 -0.006239 0.028244 0.000000 0.000000 0.000000
# 4 0.000000 0.000000 0.000000 0.053424 0.000000 0.001439
# 5 -0.000719 0.000719 0.000000 0.000000 0.053424 -0.000001
# 6 0.000000 0.000000 0.000000 0.001439 -0.000001 0.085275
#
#
# Mechanical properties :
#
#
# Convention : Reuss Voigt Hill
#
# Bulk Modulus (GPa) = 41.73075 47.62479 44.67777
# Shear Modulus (GPa) = 14.76719 15.91364 15.34041
#
# Velocity S-wave (km/s) = 2.90157 3.01210 2.95735
# Velocity P-wave (km/s) = 5.91753 6.26490 6.09369
#
# Compressibility (1/GPa) = 0.02396314
#
# Stress axis : x y z
#
# Youngs Moduli (GPa) = 37.75297 37.75297 35.40559
#
# Poissons Ratio (x) = 0.60969 0.22091
# Poissons Ratio (y) = 0.60969 0.22091
# Poissons Ratio (z) = 0.23556 0.23556
#
# Static dielectric constant tensor:
#      x y z
#    x 1.618490 0.000000 0.000000 
#    y 0.000000 1.618490 0.000000 
#    z 0.000000 0.000000 1.597550 
# 
# From -- ./inp_files/3663.got.cif
#   From: 2010.05.17/outbox.cif.g08.bks.cpg/sg162_2_cif.got.tgz:3663.got - 2010.05.20 10:53:12.
