data_PCOD9577545
_publ_section_title
;
Structure prediction by ZEFSAII (Michael W. Deem and Ramdas Pophale) SiO2 
 PCOD9577545
Probable space group: R 3 C
;
_chemical_formula_sum "Si O2"
_cell_formula_units_Z 66
_cell_length_a 14.923568
_cell_length_b 14.923568
_cell_length_c 13.845525
_cell_angle_alpha 90.000000
_cell_angle_beta 90.000000
_cell_angle_gamma 120.000000
_cell_volume 2670.455820
_symmetry_space_group_name_H-M "R 3 C"
_symmetry_group_IT_number 161
_symmetry_cell_setting 'hexagonal'
loop_
_space_group_symop_operation_xyz
x,y,z
-y,x-y,z
-x+y,-x,z
-x+y,y,1/2+z
x,x-y,1/2+z
-y,-x,1/2+z
2/3+x,1/3+y,1/3+z
2/3-y,1/3+x-y,1/3+z
2/3-x+y,1/3-x,1/3+z
2/3-x+y,1/3+y,5/6+z
2/3+x,1/3+x-y,5/6+z
2/3-y,1/3-x,5/6+z
1/3+x,2/3+y,2/3+z
1/3-y,2/3+x-y,2/3+z
1/3-x+y,2/3-x,2/3+z
1/3-x+y,2/3+y,1/6+z
1/3+x,2/3+x-y,1/6+z
1/3-y,2/3-x,1/6+z
loop_
_atom_site_type_symbol
_atom_site_label
_atom_site_fract_x
_atom_site_fract_y
_atom_site_fract_z
Si Si1 0.000000 0.000000 0.039160
Si Si2 0.990170 0.327690 0.990879
Si Si3 0.333334 0.666668 0.438424
Si Si4 0.434402 0.222451 0.600667
Si Si5 0.121829 0.232219 0.046563
O O1 0.000000 0.000000 0.155438
O O2 0.081461 0.116559 0.009821
O O3 0.909512 0.275343 0.079350
O O4 0.073059 0.289936 0.989178
O O5 0.910485 0.285654 0.900430
O O6 0.045943 0.450988 0.993877
O O7 0.417622 0.634777 0.467661
O O8 0.445910 0.190701 0.490220
#
# Coordination Sequence:
#
# PCOD9577545 Si02
#       5
#     6  18   6  18  18
#     4   9  15  36  60  85 116 181 198 238 320 388
#     4  10  20  39  60  98 120 174 209 257 321 383
#     4   9  18  36  57  88 122 160 213 259 311 361
#     4   9  21  37  64  90 126 169 212 261 317 387
#     4   9  20  34  65  87 126 164 216 253 305 393
#
# _framework density 24.714881999999999
#
# number of rings (size 3 to 8) (size 9 to 14) (size 15 to 20)
#    1.636    1.091    0.000    1.636    3.818    0.000 
#    4.909    0.000    0.000    0.000    0.000    0.000 
#    0.000    0.000    0.000    0.000    0.000    0.000 
#
# Total GULP energy -122910.243823 kJ/mol
# GULP energy per Si atom -5586.829265 kJ/mol
# Density = 2.465863 g / cm^3
# Si number density = 24.714882 Si / 1000 Ang^3
#
#
#
# Elastic Constant Matrix: (Units=GPa)
#
#
# Indices 1 2 3 4 5 6 
#
# 1 136.8298 42.3114 -3.1367 -1.5140 0.0000 0.0000
# 2 42.3114 136.8270 -3.1373 1.5142 0.0000 0.0000
# 3 -3.1367 -3.1373 68.2173 -0.0001 0.0000 0.0000
# 4 -1.5140 1.5142 -0.0001 30.8572 0.0000 0.0000
# 5 0.0000 0.0000 0.0000 0.0000 30.8574 -1.5139
# 6 0.0000 0.0000 0.0000 0.0000 -1.5139 47.2581
#
#
#
# Elastic Compliance Matrix: (Units=1/GPa)
#
#
# Indices 1 2 3 4 5 6 
#
# 1 0.008094 -0.002503 0.000257 0.000520 0.000000 0.000000
# 2 -0.002503 0.008094 0.000257 -0.000520 0.000000 0.000000
# 3 0.000257 0.000257 0.014683 0.000000 0.000000 0.000000
# 4 0.000520 -0.000520 0.000000 0.032458 0.000000 0.000000
# 5 0.000000 0.000000 0.000000 0.000000 0.032458 0.001040
# 6 0.000000 0.000000 0.000000 0.000000 0.001040 0.021194
#
#
# Mechanical properties :
#
#
# Convention : Reuss Voigt Hill
#
# Bulk Modulus (GPa) = 37.18354 45.99433 41.58894
# Shear Modulus (GPa) = 38.48447 42.18365 40.33406
#
# Velocity S-wave (km/s) = 3.95034 4.13584 4.04415
# Velocity P-wave (km/s) = 5.99037 6.43873 6.21859
#
# Compressibility (1/GPa) = 0.02689362
#
# Stress axis : x y z
#
# Youngs Moduli (GPa) = 123.54957 123.54697 68.10741
#
# Poissons Ratio (x) = 0.30921 -0.01751
# Poissons Ratio (y) = 0.30922 -0.01751
# Poissons Ratio (z) = -0.03176 -0.03177
#
# Static dielectric constant tensor:
#      x y z
#    x 1.870320 0.000000 0.000000 
#    y 0.000000 1.870320 0.000000 
#    z 0.000000 0.000000 2.142160 
# 
# From -- ./inp_files/1221.got.cif
#   From: 2010.05.17/outbox.cif.g08.bks.cpg/sg161_cif.got.tgz:1221.got - 2010.05.20 10:52:32.
