data_PCOD9577157
_publ_section_title
;
Structure prediction by ZEFSAII (Michael W. Deem and Ramdas Pophale) SiO2 
 PCOD9577157
Probable space group: R 3 2
;
_chemical_formula_sum "Si O2"
_cell_formula_units_Z 114
_cell_length_a 19.984570
_cell_length_b 19.984570
_cell_length_c 16.263451
_cell_angle_alpha 90.000000
_cell_angle_beta 90.000000
_cell_angle_gamma 120.000000
_cell_volume 5625.135050
_symmetry_space_group_name_H-M "R 3 2"
_symmetry_group_IT_number 155
_symmetry_cell_setting 'hexagonal'
loop_
_space_group_symop_operation_xyz
x,y,z
-y,x-y,z
-x+y,-x,z
x-y,-y,-z
-x,-x+y,-z
y,x,-z
2/3+x,1/3+y,1/3+z
2/3-y,1/3+x-y,1/3+z
2/3-x+y,1/3-x,1/3+z
2/3+x-y,1/3-y,1/3-z
2/3-x,1/3-x+y,1/3-z
2/3+y,1/3+x,1/3-z
1/3+x,2/3+y,2/3+z
1/3-y,2/3+x-y,2/3+z
1/3-x+y,2/3-x,2/3+z
1/3+x-y,2/3-y,2/3-z
1/3-x,2/3-x+y,2/3-z
1/3+y,2/3+x,2/3-z
loop_
_atom_site_type_symbol
_atom_site_label
_atom_site_fract_x
_atom_site_fract_y
_atom_site_fract_z
Si Si1 0.806628 0.185025 0.857372
Si Si2 0.650818 0.104855 0.588665
Si Si3 0.592317 0.160421 0.955878
Si Si4 0.666667 0.333334 0.736102
Si Si5 0.888626 0.391566 0.646343
Si Si6 0.013756 0.742373 0.086316
Si Si7 0.311411 0.043180 0.764536
O O1 0.759395 0.214022 0.800907
O O2 0.755059 0.098471 0.892447
O O3 0.876443 0.197373 0.797660
O O4 0.842417 0.238607 0.937106
O O5 0.715895 0.161224 0.652381
O O6 0.579648 0.116307 0.611355
O O7 0.668867 0.121874 0.493041
O O8 0.632510 0.015861 0.588822
O O9 0.656500 0.251050 0.955645
O O10 0.518675 0.163900 0.990342
O O11 0.666668 0.333334 0.833334
O O12 0.922984 0.363167 0.574317
O O13 0.000000 0.771268 0.000000
O O14 0.333334 0.051575 0.666667
O O15 0.357919 0.024586 0.833334
#
# Coordination Sequence:
#
# PCOD9577157 Si02
#       7
#    18  18  18   6  18  18  18
#     4  12  25  43  71 104 147 185 238 303 362 446
#     4  11  27  44  68  99 140 188 237 297 357 437
#     4  12  25  43  69 101 140 189 235 290 367 433
#     4  12  24  39  63 108 139 182 238 282 360 441
#     4  12  24  44  67 101 139 187 237 297 356 431
#     4  11  26  45  67 102 139 186 243 296 365 431
#     4  12  24  43  70 103 142 186 245 298 368 439
#
# _framework density 20.266181
#
# number of rings (size 3 to 8) (size 9 to 14) (size 15 to 20)
#    0.000    0.316    6.316    2.368    6.632    0.000 
#    0.000    0.000    0.000    0.000    0.000    0.000 
#    0.000    0.000    0.000    0.000    0.000    0.000 
#
# Total GULP energy -211922.017766 kJ/mol
# GULP energy per Si atom -5576.895204 kJ/mol
# Density = 2.022005 g / cm^3
# Si number density = 20.266181 Si / 1000 Ang^3
#
#
#
# Elastic Constant Matrix: (Units=GPa)
#
#
# Indices 1 2 3 4 5 6 
#
# 1 102.6052 41.1859 31.7324 -1.3601 -0.0001 0.0000
# 2 41.1859 102.6056 31.7324 1.3600 0.0001 0.0001
# 3 31.7324 31.7324 116.8393 0.0000 0.0000 0.0000
# 4 -1.3601 1.3600 0.0000 38.1393 0.0001 0.0001
# 5 -0.0001 0.0001 0.0000 0.0001 38.1393 -1.3600
# 6 0.0000 0.0001 0.0000 0.0001 -1.3600 30.7098
#
#
#
# Elastic Compliance Matrix: (Units=1/GPa)
#
#
# Indices 1 2 3 4 5 6 
#
# 1 0.012104 -0.004203 -0.002146 0.000582 0.000000 0.000000
# 2 -0.004203 0.012104 -0.002146 -0.000582 0.000000 0.000000
# 3 -0.002146 -0.002146 0.009724 0.000000 0.000000 0.000000
# 4 0.000582 -0.000582 0.000000 0.026261 0.000000 0.000000
# 5 0.000000 0.000000 0.000000 0.000000 0.026261 0.001163
# 6 0.000000 0.000000 0.000000 0.000000 0.001163 0.032614
#
#
# Mechanical properties :
#
#
# Convention : Reuss Voigt Hill
#
# Bulk Modulus (GPa) = 59.01879 59.03906 59.02893
# Shear Modulus (GPa) = 35.28390 35.89096 35.58743
#
# Velocity S-wave (km/s) = 4.17708 4.21286 4.19501
# Velocity P-wave (km/s) = 7.24217 7.27044 7.25632
#
# Compressibility (1/GPa) = 0.01694376
#
# Stress axis : x y z
#
# Youngs Moduli (GPa) = 82.61391 82.61428 102.83363
#
# Poissons Ratio (x) = 0.34721 0.22068
# Poissons Ratio (y) = 0.34721 0.22068
# Poissons Ratio (z) = 0.17729 0.17729
#
# Static dielectric constant tensor:
#      x y z
#    x 1.792840 0.000000 0.000000 
#    y 0.000000 1.792840 0.000000 
#    z 0.000000 0.000000 1.794540 
# 
# From -- ./inp_files/5229.got.cif
#   From: 2010.05.17/outbox.cif.g08.bks.cpg/sg155_3_cif.got.tgz:5229.got - 2010.05.20 10:44:35.
