data_PCOD9577605
_publ_section_title
;
Structure prediction by ZEFSAII (Michael W. Deem and Ramdas Pophale) SiO2 
 PCOD9577605
Probable space group: R 3 C
;
_chemical_formula_sum "Si O2"
_cell_formula_units_Z 120
_cell_length_a 19.153843
_cell_length_b 19.153843
_cell_length_c 16.452213
_cell_angle_alpha 90.000000
_cell_angle_beta 90.000000
_cell_angle_gamma 120.000000
_cell_volume 5227.172132
_symmetry_space_group_name_H-M "R 3 C"
_symmetry_group_IT_number 161
_symmetry_cell_setting 'hexagonal'
loop_
_space_group_symop_operation_xyz
x,y,z
-y,x-y,z
-x+y,-x,z
-x+y,y,1/2+z
x,x-y,1/2+z
-y,-x,1/2+z
2/3+x,1/3+y,1/3+z
2/3-y,1/3+x-y,1/3+z
2/3-x+y,1/3-x,1/3+z
2/3-x+y,1/3+y,5/6+z
2/3+x,1/3+x-y,5/6+z
2/3-y,1/3-x,5/6+z
1/3+x,2/3+y,2/3+z
1/3-y,2/3+x-y,2/3+z
1/3-x+y,2/3-x,2/3+z
1/3-x+y,2/3+y,1/6+z
1/3+x,2/3+x-y,1/6+z
1/3-y,2/3-x,1/6+z
loop_
_atom_site_type_symbol
_atom_site_label
_atom_site_fract_x
_atom_site_fract_y
_atom_site_fract_z
Si Si1 0.000000 0.000000 0.770829
Si Si2 0.900808 0.642691 0.382201
Si Si3 0.592059 0.661408 0.850366
Si Si4 0.000000 0.000000 0.469325
Si Si5 0.005481 0.535941 0.891827
Si Si6 0.574976 0.093751 0.162483
Si Si7 0.475351 0.652459 0.133306
Si Si8 0.041374 0.881870 0.312418
O O1 0.000000 0.000000 0.870675
O O2 0.048428 0.094948 0.753366
O O3 0.908086 0.670656 0.473848
O O4 0.857037 0.679986 0.329397
O O5 0.839886 0.548061 0.375439
O O6 0.988469 0.667366 0.350489
O O7 0.533549 0.562499 0.862598
O O8 0.602022 0.729145 0.781157
O O9 0.574988 0.698906 0.930254
O O10 0.976565 0.065138 0.495704
O O11 0.087696 0.591964 0.940108
O O12 0.619498 0.113804 0.248688
O O13 0.550258 0.162315 0.155270
O O14 0.420014 0.585479 0.065089
#
# Coordination Sequence:
#
# PCOD9577605 Si02
#       8
#     6  18  18   6  18  18  18  18
#     4   9  15  33  67 104 133 183 250 302 373 456
#     4  12  30  44  73 107 156 201 258 326 402 487
#     4  12  29  51  77 110 156 208 269 326 404 495
#     4   9  18  39  76 104 145 183 247 320 394 486
#     4  12  28  49  71 112 156 203 261 328 405 483
#     4  12  24  43  78 105 146 205 258 329 396 484
#     4  11  21  44  73 110 143 195 257 318 398 474
#     4  11  19  41  73 106 141 194 254 317 388 477
#
# _framework density 22.956963999999999
#
# number of rings (size 3 to 8) (size 9 to 14) (size 15 to 20)
#    0.000    0.600    7.500    1.800    6.300    0.000 
#    2.700    0.000    0.000    0.000    0.000    0.000 
#    0.000    0.000    0.000    0.000    0.000    0.000 
#
# Total GULP energy -222669.390767 kJ/mol
# GULP energy per Si atom -5566.734769 kJ/mol
# Density = 2.290471 g / cm^3
# Si number density = 22.956964 Si / 1000 Ang^3
#
#
#
# Elastic Constant Matrix: (Units=GPa)
#
#
# Indices 1 2 3 4 5 6 
#
# 1 83.7118 31.2580 25.3374 4.5426 0.0000 0.0000
# 2 31.2580 83.7118 25.3374 -4.5426 0.0000 0.0000
# 3 25.3374 25.3374 39.7262 0.0000 0.0000 0.0000
# 4 4.5426 -4.5426 0.0000 20.3522 0.0000 0.0000
# 5 0.0000 0.0000 0.0000 0.0000 20.3522 4.5426
# 6 0.0000 0.0000 0.0000 0.0000 4.5426 26.2269
#
#
#
# Elastic Compliance Matrix: (Units=1/GPa)
#
#
# Indices 1 2 3 4 5 6 
#
# 1 0.015965 -0.003866 -0.007717 -0.004426 0.000000 0.000000
# 2 -0.003866 0.015965 -0.007717 0.004426 0.000000 0.000000
# 3 -0.007717 -0.007717 0.035016 0.000000 0.000000 0.000000
# 4 -0.004426 0.004426 0.000000 0.051111 0.000000 0.000000
# 5 0.000000 0.000000 0.000000 0.000000 0.051111 -0.008853
# 6 0.000000 0.000000 0.000000 0.000000 -0.008853 0.039662
#
#
# Mechanical properties :
#
#
# Convention : Reuss Voigt Hill
#
# Bulk Modulus (GPa) = 35.27728 41.22394 38.25061
# Shear Modulus (GPa) = 19.46448 21.73407 20.59927
#
# Velocity S-wave (km/s) = 2.91498 3.08024 2.99875
# Velocity P-wave (km/s) = 5.17006 5.53593 5.35612
#
# Compressibility (1/GPa) = 0.02834686
#
# Stress axis : x y z
#
# Youngs Moduli (GPa) = 62.63627 62.63627 28.55831
#
# Poissons Ratio (x) = 0.24214 0.22038
# Poissons Ratio (y) = 0.24214 0.22038
# Poissons Ratio (z) = 0.48336 0.48336
#
# Static dielectric constant tensor:
#      x y z
#    x 1.945190 0.000000 0.000000 
#    y 0.000000 1.945190 0.000000 
#    z 0.000000 0.000000 1.825350 
# 
# From -- ./inp_files/1472.got.cif
#   From: 2010.05.17/outbox.cif.g08.bks.cpg/sg161_cif.got.tgz:1472.got - 2010.05.20 10:52:32.
