data_PCOD9577377
_publ_section_title
;
Structure prediction by ZEFSAII (Michael W. Deem and Ramdas Pophale) SiO2 
 PCOD9577377
Probable space group: P 3 1 C
;
_chemical_formula_sum "Si O2"
_cell_formula_units_Z 48
_cell_length_a 16.791512
_cell_length_b 16.791512
_cell_length_c 9.257227
_cell_angle_alpha 90.000000
_cell_angle_beta 90.000000
_cell_angle_gamma 120.000000
_cell_volume 2260.430473
_symmetry_space_group_name_H-M "P 3 1 C"
_symmetry_group_IT_number 159
_symmetry_cell_setting 'hexagonal'
loop_
_space_group_symop_operation_xyz
x,y,z
-y,x-y,z
-x+y,-x,z
y,x,1/2+z
x-y,-y,1/2+z
-x,-x+y,1/2+z
loop_
_atom_site_type_symbol
_atom_site_label
_atom_site_fract_x
_atom_site_fract_y
_atom_site_fract_z
Si Si1 0.441978 0.404540 0.592960
Si Si2 0.068048 0.328488 0.583932
Si Si3 0.361139 0.854734 0.412013
Si Si4 0.725772 0.904690 0.375732
Si Si5 0.308986 0.488399 0.330282
Si Si6 0.112701 0.372989 0.906795
Si Si7 0.072801 0.786514 0.055202
Si Si8 0.503099 0.053180 0.316016
O O1 0.496301 0.365819 0.686601
O O2 0.339029 0.320755 0.600866
O O3 0.480157 0.427116 0.433034
O O4 0.458791 0.499004 0.664909
O O5 0.130134 0.437480 0.543971
O O6 0.103545 0.276015 0.479849
O O7 0.078622 0.318647 0.753878
O O8 0.965511 0.296454 0.530700
O O9 0.437832 0.825357 0.434996
O O10 0.281952 0.774532 0.316122
O O11 0.409713 0.954035 0.334846
O O12 0.618244 0.879499 0.376476
O O13 0.793394 0.003719 0.444390
O O14 0.745672 0.903166 0.205168
O O15 0.192687 0.358351 0.972279
O O16 0.125663 0.472232 0.863347
#
# Coordination Sequence:
#
# PCOD9577377 Si02
#       8
#     6   6   6   6   6   6   6   6
#     4  10  20  34  54  81 114 151 197 249 308 367
#     4  10  21  37  56  83 114 151 193 242 303 369
#     4   9  17  31  51  78 109 148 196 244 300 363
#     4  10  21  36  56  83 116 150 192 242 306 367
#     4   9  18  30  51  80 110 150 195 248 299 364
#     4  11  22  37  60  86 115 153 203 255 303 367
#     4  11  21  36  58  87 116 153 198 254 307 368
#     4  10  20  35  56  82 114 158 202 248 308 377
#
# _framework density 21.234894000000001
#
# number of rings (size 3 to 8) (size 9 to 14) (size 15 to 20)
#    0.000    2.000    0.000    5.500    0.000    7.000 
#    0.000    1.250    0.000    1.000    0.000    3.500 
#    0.000    0.000    0.000    0.000    0.000    0.000 
#
# Total GULP energy -267471.424533 kJ/mol
# GULP energy per Si atom -5572.321344 kJ/mol
# Density = 2.118656 g / cm^3
# Si number density = 21.234894 Si / 1000 Ang^3
#
#
#
# Elastic Constant Matrix: (Units=GPa)
#
#
# Indices 1 2 3 4 5 6 
#
# 1 47.1529 -10.9273 1.8069 0.0000 -0.6712 0.0000
# 2 -10.9273 47.1529 1.8069 0.0000 0.6712 0.0000
# 3 1.8069 1.8069 88.4231 0.0000 0.0000 0.0000
# 4 0.0000 0.0000 0.0000 26.0733 0.0000 0.6712
# 5 -0.6712 0.6712 0.0000 0.0000 26.0733 0.0000
# 6 0.0000 0.0000 0.0000 0.6712 0.0000 29.0401
#
#
#
# Elastic Compliance Matrix: (Units=1/GPa)
#
#
# Indices 1 2 3 4 5 6 
#
# 1 0.022445 0.005217 -0.000565 0.000000 0.000443 0.000000
# 2 0.005217 0.022445 -0.000565 0.000000 -0.000443 0.000000
# 3 -0.000565 -0.000565 0.011332 0.000000 0.000000 0.000000
# 4 0.000000 0.000000 0.000000 0.038376 0.000000 -0.000887
# 5 0.000443 -0.000443 0.000000 0.000000 0.038376 0.000000
# 6 0.000000 0.000000 0.000000 -0.000887 0.000000 0.034456
#
#
# Mechanical properties :
#
#
# Convention : Reuss Voigt Hill
#
# Bulk Modulus (GPa) = 15.52947 18.67800 17.10374
# Shear Modulus (GPa) = 27.66683 28.90682 28.28682
#
# Velocity S-wave (km/s) = 3.61348 3.69357 3.65374
# Velocity P-wave (km/s) = 4.97380 5.19663 5.08643
#
# Compressibility (1/GPa) = 0.06439370
#
# Stress axis : x y z
#
# Youngs Moduli (GPa) = 44.55434 44.55434 88.24286
#
# Poissons Ratio (x) = -0.23243 0.04988
# Poissons Ratio (y) = -0.23243 0.04988
# Poissons Ratio (z) = 0.02518 0.02518
#
# Static dielectric constant tensor:
#      x y z
#    x 1.799420 0.000000 0.000000 
#    y 0.000000 1.799420 0.000000 
#    z 0.000000 0.000000 1.834410 
# 
# From -- ./inp_files/506.got.cif
#   From: 2010.05.17/outbox.cif.g08.bks.cpg/sg159_cif.got.tgz:506.got - 2010.05.20 10:50:30.
