data_PCOD9577293
_publ_section_title
;
Structure prediction by ZEFSAII (Michael W. Deem and Ramdas Pophale) SiO2 
 PCOD9577293
Probable space group: P 3 C 1
;
_chemical_formula_sum "Si O2"
_cell_formula_units_Z 42
_cell_length_a 19.737019
_cell_length_b 19.737019
_cell_length_c 7.874985
_cell_angle_alpha 90.000000
_cell_angle_beta 90.000000
_cell_angle_gamma 120.000000
_cell_volume 2656.705931
_symmetry_space_group_name_H-M "P 3 C 1"
_symmetry_group_IT_number 158
_symmetry_cell_setting 'hexagonal'
loop_
_space_group_symop_operation_xyz
x,y,z
-y,x-y,z
-x+y,-x,z
-x+y,y,1/2+z
x,x-y,1/2+z
-y,-x,1/2+z
loop_
_atom_site_type_symbol
_atom_site_label
_atom_site_fract_x
_atom_site_fract_y
_atom_site_fract_z
Si Si1 0.840266 0.851262 0.416890
Si Si2 0.929103 0.253205 0.436378
Si Si3 0.854668 0.844336 0.016826
Si Si4 0.773880 0.670428 0.037259
Si Si5 0.487962 0.122674 0.919547
Si Si6 0.578047 0.337223 0.728341
Si Si7 0.620193 0.107494 0.014423
O O1 0.843398 0.842153 0.216912
O O2 0.775385 0.765683 0.486210
O O3 0.944774 0.075161 0.485005
O O4 0.074522 0.169814 0.947636
O O5 0.915919 0.241321 0.235044
O O6 0.845814 0.191749 0.520066
O O7 0.943002 0.338689 0.474664
O O8 0.804327 0.755139 0.952398
O O9 0.695947 0.601441 0.958141
O O10 0.594836 0.265209 0.734718
O O11 0.528512 0.072296 0.975100
O O12 0.492442 0.123626 0.715038
O O13 0.534673 0.196030 0.055325
O O14 0.526491 0.343019 0.882782
#
# Coordination Sequence:
#
# PCOD9577293 Si02
#       7
#     6   6   6   6   6   6   6
#     4  10  20  34  53  75  99 125 155 197 241 294
#     4  10  21  35  51  68  93 124 160 200 246 293
#     4  10  20  34  53  75  99 125 155 197 241 294
#     4  10  21  35  51  68  93 124 160 200 246 293
#     4  12  24  38  52  67  93 129 168 214 255 294
#     4  10  26  40  48  66  90 122 172 220 262 290
#     4  12  24  38  52  67  93 129 168 214 255 294
#
# _framework density 15.809051
#
# number of rings (size 3 to 8) (size 9 to 14) (size 15 to 20)
#    0.286    1.143    2.857    2.000    4.000    4.571 
#    0.000    0.000    0.000    0.000    0.000    0.000 
#    0.000    0.000    0.000    0.857    0.000   13.714 
#
# Total GULP energy -233840.241894 kJ/mol
# GULP energy per Si atom -5567.624807 kJ/mol
# Density = 1.577307 g / cm^3
# Si number density = 15.809051 Si / 1000 Ang^3
#
#
#
# Elastic Constant Matrix: (Units=GPa)
#
#
# Indices 1 2 3 4 5 6 
#
# 1 75.6302 14.8220 3.2473 -4.5483 0.0000 0.0000
# 2 14.8220 75.6302 3.2473 4.5483 0.0000 0.0000
# 3 3.2473 3.2473 85.8972 0.0000 0.0000 0.0000
# 4 -4.5483 4.5483 0.0000 19.9021 0.0000 0.0000
# 5 0.0000 0.0000 0.0000 0.0000 19.9021 -4.5483
# 6 0.0000 0.0000 0.0000 0.0000 -4.5483 30.4041
#
#
#
# Elastic Compliance Matrix: (Units=1/GPa)
#
#
# Indices 1 2 3 4 5 6 
#
# 1 0.014056 -0.002971 -0.000419 0.003891 0.000000 0.000000
# 2 -0.002971 0.014056 -0.000419 -0.003891 0.000000 0.000000
# 3 -0.000419 -0.000419 0.011674 0.000000 0.000000 0.000000
# 4 0.003891 -0.003891 0.000000 0.052025 0.000000 0.000000
# 5 0.000000 0.000000 0.000000 0.000000 0.052025 0.007783
# 6 0.000000 0.000000 0.000000 0.000000 0.007783 0.034055
#
#
# Mechanical properties :
#
#
# Convention : Reuss Voigt Hill
#
# Bulk Modulus (GPa) = 31.08634 31.08787 31.08710
# Shear Modulus (GPa) = 25.48019 28.43105 26.95562
#
# Velocity S-wave (km/s) = 4.01901 4.24536 4.13374
# Velocity P-wave (km/s) = 6.42207 6.61348 6.51847
#
# Compressibility (1/GPa) = 0.03216847
#
# Stress axis : x y z
#
# Youngs Moduli (GPa) = 71.14160 71.14160 85.66402
#
# Poissons Ratio (x) = 0.21135 0.03590
# Poissons Ratio (y) = 0.21135 0.03590
# Poissons Ratio (z) = 0.02981 0.02981
#
# Static dielectric constant tensor:
#      x y z
#    x 1.585240 0.000000 0.000000 
#    y 0.000000 1.585240 0.000000 
#    z 0.000000 0.000000 1.582520 
# 
# From -- ./inp_files/246.got.cif
#   From: 2010.05.17/outbox.cif.g08.bks.cpg/sg158_cif.got.tgz:246.got - 2010.05.20 10:49:59.
