data_PCOD9577509
_publ_section_title
;
Structure prediction by ZEFSAII (Michael W. Deem and Ramdas Pophale) SiO2 
 PCOD9577509
Probable space group: R 3 M
;
_chemical_formula_sum "Si O2"
_cell_formula_units_Z 42
_cell_length_a 27.000000
_cell_length_b 27.000000
_cell_length_c 12.000000
_cell_angle_alpha 90.000000
_cell_angle_beta 90.000000
_cell_angle_gamma 120.000000
_cell_volume 7575.990232
_symmetry_space_group_name_H-M "R 3 M"
_symmetry_group_IT_number 160
_symmetry_cell_setting 'hexagonal'
loop_
_space_group_symop_operation_xyz
x,y,z
-y,x-y,z
-x+y,-x,z
-x+y,y,z
x,x-y,z
-y,-x,z
2/3+x,1/3+y,1/3+z
2/3-y,1/3+x-y,1/3+z
2/3-x+y,1/3-x,1/3+z
2/3-x+y,1/3+y,1/3+z
2/3+x,1/3+x-y,1/3+z
2/3-y,1/3-x,1/3+z
1/3+x,2/3+y,2/3+z
1/3-y,2/3+x-y,2/3+z
1/3-x+y,2/3-x,2/3+z
1/3-x+y,2/3+y,2/3+z
1/3+x,2/3+x-y,2/3+z
1/3-y,2/3-x,2/3+z
loop_
_atom_site_type_symbol
_atom_site_label
_atom_site_fract_x
_atom_site_fract_y
_atom_site_fract_z
Si Si1 0.353675 0.890538 0.670632
Si Si2 0.842497 0.564066 0.079143
Si Si3 0.497604 0.383321 0.896490
Si Si4 0.312999 0.097008 0.375060
Si Si5 0.112755 0.000407 0.396757
Si Si6 0.552210 0.218763 0.471025
Si Si7 0.124369 0.366164 0.783454
O O1 0.364926 0.884004 0.540212
O O2 0.353434 0.838329 0.735001
O O3 0.293050 0.884892 0.703174
O O4 0.401918 0.953548 0.712776
O O5 0.775449 0.550897 0.063375
O O6 0.881443 0.633535 0.077144
O O7 0.867038 0.533392 0.993509
O O8 0.553719 0.446282 0.931395
O O9 0.455733 0.396015 0.815899
O O10 0.523461 0.356008 0.811501
O O11 0.310237 0.155119 0.373993
O O12 0.294092 0.072168 0.248075
O O13 0.063081 0.936920 0.423026
O O14 0.089282 0.044641 0.405749
O O15 0.130713 0.003315 0.268081
O O16 0.604677 0.209353 0.437485
O O17 0.570784 0.285392 0.462720
O O18 0.189800 0.379600 0.779628
#
# Coordination Sequence:
#
# PCOD9577509 Si02
#       7
#    18  18  18  18  18  18  18
#     4  11  20  34  57  79 103 139 180 219 265 324
#     4  10  22  39  55  76 112 149 176 210 266 333
#     4  10  20  34  54  78 105 139 179 221 263 313
#     4   9  19  36  54  75 104 135 172 222 273 313
#     4   9  17  30  50  76 104 134 170 214 263 311
#     4  10  19  31  50  78 110 142 179 225 274 322
#     4   9  19  36  57  78 101 134 178 227 274 322
#
# _framework density 5.5438299999999998
#
# number of rings (size 3 to 8) (size 9 to 14) (size 15 to 20)
#    0.000    2.286    0.000    4.143    0.000    6.857 
#    0.000    1.429    0.000    3.714    0.000    0.000 
#    0.000    0.000    0.000    0.000    0.000    0.000 
#
# Total GULP energy -233846.722940 kJ/mol
# GULP energy per Si atom -5567.779118 kJ/mol
# Density = 0.553121 g / cm^3
# Si number density = 5.543830 Si / 1000 Ang^3
#
#
#
# Elastic Constant Matrix: (Units=GPa)
#
#
# Indices 1 2 3 4 5 6 
#
# 1 86.6388 29.5593 56.7565 4.1597 -0.0002 0.0002
# 2 29.5593 86.6387 56.7563 -4.1596 0.0004 0.0000
# 3 56.7565 56.7563 101.0697 0.0002 0.0004 0.0006
# 4 4.1597 -4.1596 0.0002 33.0097 0.0001 0.0004
# 5 -0.0002 0.0004 0.0004 0.0001 33.0097 4.1599
# 6 0.0002 0.0000 0.0006 0.0004 4.1599 28.5398
#
#
#
# Elastic Compliance Matrix: (Units=1/GPa)
#
#
# Indices 1 2 3 4 5 6 
#
# 1 0.018456 0.000609 -0.010706 -0.002249 0.000000 0.000000
# 2 0.000609 0.018456 -0.010706 0.002249 0.000000 0.000000
# 3 -0.010706 -0.010706 0.021918 0.000000 0.000000 0.000000
# 4 -0.002249 0.002249 0.000000 0.030861 0.000000 0.000000
# 5 0.000000 0.000000 0.000000 0.000000 0.030861 -0.004498
# 6 0.000000 0.000000 0.000000 0.000000 -0.004498 0.035695
#
#
# Mechanical properties :
#
#
# Convention : Reuss Voigt Hill
#
# Bulk Modulus (GPa) = 58.05955 62.27682 60.16819
# Shear Modulus (GPa) = 24.55884 27.66350 26.11117
#
# Velocity S-wave (km/s) = 3.84689 4.08281 3.96660
# Velocity P-wave (km/s) = 7.39706 7.72995 7.56534
#
# Compressibility (1/GPa) = 0.01722369
#
# Stress axis : x y z
#
# Youngs Moduli (GPa) = 54.18360 54.18369 45.62489
#
# Poissons Ratio (x) = -0.03297 0.48845
# Poissons Ratio (y) = -0.03297 0.48844
# Poissons Ratio (z) = 0.58007 0.58007
#
# Static dielectric constant tensor:
#      x y z
#    x 1.574910 0.000000 0.000000 
#    y 0.000000 1.574910 0.000000 
#    z 0.000000 0.000000 1.558510 
# 
# From -- ./inp_files/1802.got.cif
#   From: 2010.05.17/outbox.ucp.g08.bks.cvg/sg160_1_cif.got.tgz:1802.got - 2010.06.11 15:14:33.
