data_PCOD9577043
_publ_section_title
;
Structure prediction by ZEFSAII (Michael W. Deem and Ramdas Pophale) SiO2 
 PCOD9577043
Probable space group: R 3 2
;
_chemical_formula_sum "Si O2"
_cell_formula_units_Z 69
_cell_length_a 12.992446
_cell_length_b 12.992446
_cell_length_c 20.391793
_cell_angle_alpha 90.000000
_cell_angle_beta 90.000000
_cell_angle_gamma 120.000000
_cell_volume 2981.040570
_symmetry_space_group_name_H-M "R 3 2"
_symmetry_group_IT_number 155
_symmetry_cell_setting 'hexagonal'
loop_
_space_group_symop_operation_xyz
x,y,z
-y,x-y,z
-x+y,-x,z
x-y,-y,-z
-x,-x+y,-z
y,x,-z
2/3+x,1/3+y,1/3+z
2/3-y,1/3+x-y,1/3+z
2/3-x+y,1/3-x,1/3+z
2/3+x-y,1/3-y,1/3-z
2/3-x,1/3-x+y,1/3-z
2/3+y,1/3+x,1/3-z
1/3+x,2/3+y,2/3+z
1/3-y,2/3+x-y,2/3+z
1/3-x+y,2/3-x,2/3+z
1/3+x-y,2/3-y,2/3-z
1/3-x,2/3-x+y,2/3-z
1/3+y,2/3+x,2/3-z
loop_
_atom_site_type_symbol
_atom_site_label
_atom_site_fract_x
_atom_site_fract_y
_atom_site_fract_z
Si Si1 0.747153 0.589199 0.929443
Si Si2 0.891005 0.616334 0.047717
Si Si3 0.560864 0.506475 0.125662
Si Si4 0.333334 0.157804 0.166667
Si Si5 0.666667 0.333334 0.910552
O O1 0.612117 0.557787 0.915807
O O2 0.818585 0.663043 0.864818
O O3 0.749621 0.466736 0.931592
O O4 0.795850 0.630604 0.002175
O O5 0.884151 0.502255 0.086538
O O6 0.913609 0.706056 0.106799
O O7 0.000000 0.656218 0.000000
O O8 0.700538 0.560395 0.139920
O O9 0.666668 0.333334 0.833334
#
# Coordination Sequence:
#
# PCOD9577043 Si02
#       5
#    18  18  18   9   6
#     4  10  23  39  67  98 139 178 229 291 356 403
#     4  12  25  41  72 100 137 185 238 282 349 417
#     4  10  24  46  67 101 141 184 232 295 351 415
#     4  10  26  46  64 104 144 180 230 294 348 424
#     4  12  18  33  60 102 135 156 217 296 340 402
#
# _framework density 23.146279
#
# number of rings (size 3 to 8) (size 9 to 14) (size 15 to 20)
#    0.000    1.565    2.609    3.130    7.304    3.130 
#    1.565    0.000    0.000    0.000    0.000    0.000 
#    0.000    0.000    0.000    0.000    0.000    0.000 
#
# Total GULP energy -128138.112795 kJ/mol
# GULP energy per Si atom -5571.222295 kJ/mol
# Density = 2.309360 g / cm^3
# Si number density = 23.146279 Si / 1000 Ang^3
#
#
#
# Elastic Constant Matrix: (Units=GPa)
#
#
# Indices 1 2 3 4 5 6 
#
# 1 82.6872 35.6152 39.4768 4.3715 -0.0001 0.0001
# 2 35.6152 82.6879 39.4767 -4.3712 0.0000 0.0000
# 3 39.4768 39.4767 181.5861 0.0000 0.0000 0.0000
# 4 4.3715 -4.3712 0.0000 39.0963 0.0000 0.0000
# 5 -0.0001 0.0000 0.0000 0.0000 39.0963 4.3717
# 6 0.0001 0.0000 0.0000 0.0000 4.3717 23.5360
#
#
#
# Elastic Compliance Matrix: (Units=1/GPa)
#
#
# Indices 1 2 3 4 5 6 
#
# 1 0.015791 -0.005903 -0.002150 -0.002426 0.000000 0.000000
# 2 -0.005903 0.015791 -0.002150 0.002426 0.000000 0.000000
# 3 -0.002150 -0.002150 0.006442 0.000000 0.000000 0.000000
# 4 -0.002426 0.002426 0.000000 0.026120 0.000000 0.000000
# 5 0.000000 0.000000 0.000000 0.000000 0.026120 -0.004852
# 6 0.000000 0.000000 0.000000 0.000000 -0.004852 0.043389
#
#
# Mechanical properties :
#
#
# Convention : Reuss Voigt Hill
#
# Bulk Modulus (GPa) = 56.75876 64.01098 60.38487
# Shear Modulus (GPa) = 31.26342 35.83855 33.55099
#
# Velocity S-wave (km/s) = 3.67916 3.93918 3.81139
# Velocity P-wave (km/s) = 6.52865 6.95733 6.74640
#
# Compressibility (1/GPa) = 0.01761843
#
# Stress axis : x y z
#
# Youngs Moduli (GPa) = 63.32711 63.32785 155.23989
#
# Poissons Ratio (x) = 0.37385 0.33370
# Poissons Ratio (y) = 0.37385 0.33369
# Poissons Ratio (z) = 0.13613 0.13612
#
# Static dielectric constant tensor:
#      x y z
#    x 1.889920 0.000000 0.000000 
#    y 0.000000 1.889920 0.000000 
#    z 0.000000 0.000000 2.170330 
# 
# From -- ./inp_files/5944.got.cif
#   From: 2010.05.17/outbox.cif.g08.bks.cpg/sg155_3_cif.got.tgz:5944.got - 2010.05.20 10:44:35.
