data_PCOD9577084
_publ_section_title
;
Structure prediction by ZEFSAII (Michael W. Deem and Ramdas Pophale) SiO2 
 PCOD9577084
Probable space group: R 3 2
;
_chemical_formula_sum "Si O2"
_cell_formula_units_Z 63
_cell_length_a 14.321768
_cell_length_b 14.321768
_cell_length_c 16.651993
_cell_angle_alpha 90.000000
_cell_angle_beta 90.000000
_cell_angle_gamma 120.000000
_cell_volume 2957.945173
_symmetry_space_group_name_H-M "R 3 2"
_symmetry_group_IT_number 155
_symmetry_cell_setting 'hexagonal'
loop_
_space_group_symop_operation_xyz
x,y,z
-y,x-y,z
-x+y,-x,z
x-y,-y,-z
-x,-x+y,-z
y,x,-z
2/3+x,1/3+y,1/3+z
2/3-y,1/3+x-y,1/3+z
2/3-x+y,1/3-x,1/3+z
2/3+x-y,1/3-y,1/3-z
2/3-x,1/3-x+y,1/3-z
2/3+y,1/3+x,1/3-z
1/3+x,2/3+y,2/3+z
1/3-y,2/3+x-y,2/3+z
1/3-x+y,2/3-x,2/3+z
1/3+x-y,2/3-y,2/3-z
1/3-x,2/3-x+y,2/3-z
1/3+y,2/3+x,2/3-z
loop_
_atom_site_type_symbol
_atom_site_label
_atom_site_fract_x
_atom_site_fract_y
_atom_site_fract_z
Si Si1 0.266781 0.483637 0.087880
Si Si2 0.871087 0.599905 0.484309
Si Si3 0.787575 0.454242 0.333334
Si Si4 0.116438 0.543130 0.984380
O O1 0.333334 0.551132 0.166667
O O2 0.187604 0.365077 0.121183
O O3 0.208083 0.526533 0.027910
O O4 0.358337 0.480163 0.034756
O O5 0.844970 0.517058 0.412891
O O6 0.790699 0.543828 0.559383
O O7 0.000000 0.656475 0.500000
O O8 0.666667 0.434716 0.333334
O O9 0.000000 0.440098 0.000000
#
# Coordination Sequence:
#
# PCOD9577084 Si02
#       4
#    18  18   9  18
#     4  11  24  42  70 109 152 184 246 318 364 448
#     4  11  23  46  73 100 143 195 245 297 372 450
#     4  10  26  46  70 100 140 184 242 312 352 426
#     4  12  24  43  75 109 146 198 247 305 389 441
#
# _framework density 21.298570000000002
#
# number of rings (size 3 to 8) (size 9 to 14) (size 15 to 20)
#    0.286    0.571    5.714    3.143    4.000    1.143 
#    0.000    0.000    0.000    0.000    0.000    0.000 
#    0.000    0.000    0.000    0.000    0.000    0.000 
#
# Total GULP energy -117065.934001 kJ/mol
# GULP energy per Si atom -5574.568286 kJ/mol
# Density = 2.125009 g / cm^3
# Si number density = 21.298570 Si / 1000 Ang^3
#
#
#
# Elastic Constant Matrix: (Units=GPa)
#
#
# Indices 1 2 3 4 5 6 
#
# 1 93.2134 39.5381 70.1322 -4.9471 -0.0005 0.0000
# 2 39.5381 93.2134 70.1322 4.9471 0.0005 0.0000
# 3 70.1322 70.1322 204.3166 0.0000 0.0000 0.0000
# 4 -4.9471 4.9471 0.0000 37.2617 0.0000 0.0005
# 5 -0.0005 0.0005 0.0000 0.0000 37.2617 -4.9471
# 6 0.0000 0.0000 0.0000 0.0005 -4.9471 26.8376
#
#
#
# Elastic Compliance Matrix: (Units=1/GPa)
#
#
# Indices 1 2 3 4 5 6 
#
# 1 0.015459 -0.003639 -0.004057 0.002536 0.000000 0.000000
# 2 -0.003639 0.015459 -0.004057 -0.002536 0.000000 0.000000
# 3 -0.004057 -0.004057 0.007680 0.000000 0.000000 0.000000
# 4 0.002536 -0.002536 0.000000 0.027510 0.000000 -0.000001
# 5 0.000000 0.000000 0.000000 0.000000 0.027510 0.005071
# 6 0.000000 0.000000 0.000000 -0.000001 0.005071 0.038196
#
#
# Mechanical properties :
#
#
# Convention : Reuss Voigt Hill
#
# Bulk Modulus (GPa) = 66.26760 83.37204 74.81982
# Shear Modulus (GPa) = 31.18164 34.33494 32.75829
#
# Velocity S-wave (km/s) = 3.83041 4.01942 3.92605
# Velocity P-wave (km/s) = 7.12347 7.79554 7.46707
#
# Compressibility (1/GPa) = 0.01509033
#
# Stress axis : x y z
#
# Youngs Moduli (GPa) = 64.68829 64.68829 130.21548
#
# Poissons Ratio (x) = 0.23541 0.52830
# Poissons Ratio (y) = 0.23541 0.52830
# Poissons Ratio (z) = 0.26245 0.26245
#
# Static dielectric constant tensor:
#      x y z
#    x 1.889670 0.000000 0.000000 
#    y 0.000000 1.889670 0.000000 
#    z 0.000000 0.000000 1.763430 
# 
# From -- ./inp_files/5816.got.cif
#   From: 2010.05.17/outbox.cif.g08.bks.cpg/sg155_3_cif.got.tgz:5816.got - 2010.05.20 10:44:35.
