data_PCOD9577560
_publ_section_title
;
Structure prediction by ZEFSAII (Michael W. Deem and Ramdas Pophale) SiO2 
 PCOD9577560
Probable space group: R 3 C
;
_chemical_formula_sum "Si O2"
_cell_formula_units_Z 126
_cell_length_a 16.747232
_cell_length_b 16.747232
_cell_length_c 23.555503
_cell_angle_alpha 90.000000
_cell_angle_beta 90.000000
_cell_angle_gamma 120.000000
_cell_volume 5721.489266
_symmetry_space_group_name_H-M "R 3 C"
_symmetry_group_IT_number 161
_symmetry_cell_setting 'hexagonal'
loop_
_space_group_symop_operation_xyz
x,y,z
-y,x-y,z
-x+y,-x,z
-x+y,y,1/2+z
x,x-y,1/2+z
-y,-x,1/2+z
2/3+x,1/3+y,1/3+z
2/3-y,1/3+x-y,1/3+z
2/3-x+y,1/3-x,1/3+z
2/3-x+y,1/3+y,5/6+z
2/3+x,1/3+x-y,5/6+z
2/3-y,1/3-x,5/6+z
1/3+x,2/3+y,2/3+z
1/3-y,2/3+x-y,2/3+z
1/3-x+y,2/3-x,2/3+z
1/3-x+y,2/3+y,1/6+z
1/3+x,2/3+x-y,1/6+z
1/3-y,2/3-x,1/6+z
loop_
_atom_site_type_symbol
_atom_site_label
_atom_site_fract_x
_atom_site_fract_y
_atom_site_fract_z
Si Si1 0.616248 0.127146 0.516393
Si Si2 0.402819 0.048874 0.539355
Si Si3 0.135451 0.622989 0.061459
Si Si4 0.844821 0.801446 0.433249
Si Si5 0.562377 0.487870 0.892797
Si Si6 0.662428 0.016343 0.908740
Si Si7 0.551491 0.299920 0.613626
O O1 0.512482 0.102496 0.531550
O O2 0.618594 0.128883 0.448545
O O3 0.634264 0.048814 0.543113
O O4 0.691151 0.218315 0.549198
O O5 0.357065 0.106687 0.562638
O O6 0.378247 0.958465 0.575996
O O7 0.358306 0.011903 0.477223
O O8 0.144572 0.540814 0.088469
O O9 0.222734 0.719343 0.078426
O O10 0.141608 0.611584 0.993375
O O11 0.844129 0.786489 0.500475
O O12 0.772638 0.706004 0.401781
O O13 0.460700 0.398430 0.891659
O O14 0.597470 0.237328 0.624261
#
# Coordination Sequence:
#
# PCOD9577560 Si02
#       7
#    18  18  18  18  18  18  18
#     4  11  22  41  68  97 134 176 228 294 346 420
#     4  10  23  41  67  99 131 179 237 288 352 415
#     4  12  21  42  72 100 136 181 241 302 345 420
#     4  11  24  46  67 104 143 188 233 294 368 423
#     4  10  26  45  62 101 146 185 227 293 355 437
#     4  10  22  44  67  93 137 181 235 288 351 425
#     4  10  22  39  65 102 125 168 231 297 347 408
#
# _framework density 22.022238999999999
#
# number of rings (size 3 to 8) (size 9 to 14) (size 15 to 20)
#    0.286    1.143    4.286    0.286    4.000    1.143 
#    7.714    0.000    0.000    0.000    0.000    0.000 
#    0.000    0.000    0.000    0.000    0.000    0.000 
#
# Total GULP energy -234497.216058 kJ/mol
# GULP energy per Si atom -5583.267049 kJ/mol
# Density = 2.197212 g / cm^3
# Si number density = 22.022239 Si / 1000 Ang^3
#
#
#
# Elastic Constant Matrix: (Units=GPa)
#
#
# Indices 1 2 3 4 5 6 
#
# 1 77.6520 30.8532 40.2909 -0.9015 0.0000 0.0000
# 2 30.8532 77.6520 40.2909 0.9015 0.0000 0.0000
# 3 40.2909 40.2909 110.2530 0.0000 0.0000 0.0000
# 4 -0.9015 0.9015 0.0000 27.7856 0.0000 0.0000
# 5 0.0000 0.0000 0.0000 0.0000 27.7856 -0.9015
# 6 0.0000 0.0000 0.0000 0.0000 -0.9015 23.3994
#
#
#
# Elastic Compliance Matrix: (Units=1/GPa)
#
#
# Indices 1 2 3 4 5 6 
#
# 1 0.017022 -0.004373 -0.004622 0.000694 0.000000 0.000000
# 2 -0.004373 0.017022 -0.004622 -0.000694 0.000000 0.000000
# 3 -0.004622 -0.004622 0.012449 0.000000 0.000000 0.000000
# 4 0.000694 -0.000694 0.000000 0.036035 0.000000 0.000000
# 5 0.000000 0.000000 0.000000 0.000000 0.036035 0.001388
# 6 0.000000 0.000000 0.000000 0.000000 0.001388 0.042790
#
#
# Mechanical properties :
#
#
# Convention : Reuss Voigt Hill
#
# Bulk Modulus (GPa) = 51.92991 54.26968 53.09980
# Shear Modulus (GPa) = 25.64019 26.06892 25.85455
#
# Velocity S-wave (km/s) = 3.41587 3.44431 3.43012
# Velocity P-wave (km/s) = 6.26014 6.36508 6.31283
#
# Compressibility (1/GPa) = 0.01925672
#
# Stress axis : x y z
#
# Youngs Moduli (GPa) = 58.74775 58.74775 80.33082
#
# Poissons Ratio (x) = 0.25690 0.37133
# Poissons Ratio (y) = 0.25690 0.37133
# Poissons Ratio (z) = 0.27156 0.27156
#
# Static dielectric constant tensor:
#      x y z
#    x 1.820220 0.000000 0.000000 
#    y 0.000000 1.820220 0.000000 
#    z 0.000000 0.000000 1.794020 
# 
# From -- ./inp_files/1934.got.cif
#   From: 2010.05.17/outbox.cif.g08.bks.cpg/sg161_cif.got.tgz:1934.got - 2010.05.20 10:52:32.
