data_PCOD9577275
_publ_section_title
;
Structure prediction by ZEFSAII (Michael W. Deem and Ramdas Pophale) SiO2 
 PCOD9577275
Probable space group: P 3 C 1
;
_chemical_formula_sum "Si O2"
_cell_formula_units_Z 48
_cell_length_a 22.868714
_cell_length_b 22.868714
_cell_length_c 5.395405
_cell_angle_alpha 90.000000
_cell_angle_beta 90.000000
_cell_angle_gamma 120.000000
_cell_volume 2443.645304
_symmetry_space_group_name_H-M "P 3 C 1"
_symmetry_group_IT_number 158
_symmetry_cell_setting 'hexagonal'
loop_
_space_group_symop_operation_xyz
x,y,z
-y,x-y,z
-x+y,-x,z
-x+y,y,1/2+z
x,x-y,1/2+z
-y,-x,1/2+z
loop_
_atom_site_type_symbol
_atom_site_label
_atom_site_fract_x
_atom_site_fract_y
_atom_site_fract_z
Si Si1 0.553194 0.849156 0.193580
Si Si2 0.408754 0.779455 0.203177
Si Si3 0.282510 0.153037 0.099981
Si Si4 0.963206 0.597231 0.578196
Si Si5 0.122116 0.817877 0.165391
Si Si6 0.694568 0.014888 0.077761
Si Si7 0.749581 0.568059 0.095345
Si Si8 0.523549 0.903724 0.699844
O O1 0.480179 0.785495 0.158098
O O2 0.614061 0.835024 0.179027
O O3 0.548945 0.878250 0.462900
O O4 0.554525 0.894617 0.958647
O O5 0.384783 0.748815 0.467662
O O6 0.411604 0.853922 0.220642
O O7 0.243304 0.120782 0.349076
O O8 0.311860 0.232183 0.101954
O O9 0.349678 0.145902 0.095351
O O10 0.881117 0.553653 0.592191
O O11 0.980081 0.631022 0.304765
O O12 0.016439 0.571344 0.639009
O O13 0.982586 0.651250 0.802803
O O14 0.133440 0.854207 0.428661
O O15 0.048552 0.753671 0.122530
O O16 0.772560 0.545981 0.346320
#
# Coordination Sequence:
#
# PCOD9577275 Si02
#       8
#     6   6   6   6   6   6   6   6
#     4  10  18  32  46  58  82 113 144 182 219 264
#     4   8  16  27  44  63  82 102 135 181 221 250
#     4  10  16  27  42  61  81 105 145 184 203 237
#     4  12  17  26  44  62  86 115 144 176 216 255
#     4  12  24  35  44  61  87 122 161 179 226 295
#     4  12  20  30  44  59  85 119 148 176 221 255
#     4  10  16  25  36  60  86 108 144 178 201 232
#     4  10  17  28  44  68  83 108 145 176 221 270
#
# _framework density 19.642785
#
# number of rings (size 3 to 8) (size 9 to 14) (size 15 to 20)
#    0.000    1.500    7.500    1.500    0.000    0.000 
#    0.000    0.000    0.000    0.000    0.000    0.000 
#    0.000    0.000    0.000  210.000    0.000    0.000 
#
# Total GULP energy -267362.482703 kJ/mol
# GULP energy per Si atom -5570.051723 kJ/mol
# Density = 1.959808 g / cm^3
# Si number density = 19.642785 Si / 1000 Ang^3
#
#
#
# Elastic Constant Matrix: (Units=GPa)
#
#
# Indices 1 2 3 4 5 6 
#
# 1 18.9348 31.1431 -2.2307 -27.5443 0.0000 0.0000
# 2 31.1431 18.9348 -2.2307 27.5443 0.0000 0.0000
# 3 -2.2307 -2.2307 158.2887 0.0000 0.0000 0.0000
# 4 -27.5443 27.5443 0.0000 -21.9306 0.0000 0.0000
# 5 0.0000 0.0000 0.0000 0.0000 -21.9306 -27.5443
# 6 0.0000 0.0000 0.0000 0.0000 -27.5443 -6.1042
#
#
#
# Elastic Compliance Matrix: (Units=1/GPa)
#
#
# Indices 1 2 3 4 5 6 
#
# 1 0.018772 0.001222 0.000282 -0.022042 0.000000 0.000000
# 2 0.001222 0.018772 0.000282 0.022042 0.000000 0.000000
# 3 0.000282 0.000282 0.006326 0.000000 0.000000 0.000000
# 4 -0.022042 0.022042 0.000000 0.009769 0.000000 0.000000
# 5 0.000000 0.000000 0.000000 0.000000 0.009769 -0.044084
# 6 0.000000 0.000000 0.000000 0.000000 -0.044084 0.035099
#
#
# Mechanical properties :
#
#
# Convention : Reuss Voigt Hill
#
# Bulk Modulus (GPa) = 21.07901 27.72463 24.40182
# Shear Modulus (GPa) = 45.14722 1.30539 23.22631
#
# Velocity S-wave (km/s) = 4.79938 0.81609 3.44239
# Velocity P-wave (km/s) = 6.43945 3.87725 5.31505
#
# Compressibility (1/GPa) = 0.04744056
#
# Stress axis : x y z
#
# Youngs Moduli (GPa) = 53.27160 53.27160 158.09001
#
# Poissons Ratio (x) = -0.06511 -0.04455
# Poissons Ratio (y) = -0.06511 -0.04455
# Poissons Ratio (z) = -0.01501 -0.01501
#
# Static dielectric constant tensor:
#      x y z
#    x 1.769380 0.000000 0.000000 
#    y 0.000000 1.769380 0.000000 
#    z 0.000000 0.000000 1.796070 
# 
# From -- ./inp_files/43.got.cif
#   From: 2010.05.17/outbox.cif.g08.bks.cpg/sg158_cif.got.tgz:43.got - 2010.05.20 10:49:59.
