data_PCOD9577650
_publ_section_title
;
Structure prediction by ZEFSAII (Michael W. Deem and Ramdas Pophale) SiO2 
 PCOD9577650
Probable space group: P -3 1 M 
;
_chemical_formula_sum "Si O2"
_cell_formula_units_Z 40
_cell_length_a 18.352410
_cell_length_b 18.352410
_cell_length_c 8.285962
_cell_angle_alpha 90.000000
_cell_angle_beta 90.000000
_cell_angle_gamma 120.000000
_cell_volume 2416.906084
_symmetry_space_group_name_H-M "P -3 1 M "
_symmetry_group_IT_number 162
_symmetry_cell_setting 'hexagonal'
loop_
_space_group_symop_operation_xyz
x,y,z
-y,x-y,z
-x+y,-x,z
-y,-x,-z
-x+y,y,-z
x,x-y,-z
-x,-y,-z
y,-x+y,-z
x-y,x,-z
y,x,z
x-y,-y,z
-x,-x+y,z
loop_
_atom_site_type_symbol
_atom_site_label
_atom_site_fract_x
_atom_site_fract_y
_atom_site_fract_z
Si Si1 0.635400 0.100787 0.996493
Si Si2 0.099840 0.634329 0.646014
Si Si3 0.666668 0.333334 0.197974
Si Si4 0.828956 0.493308 0.317265
O O1 0.678168 0.123335 0.821594
O O2 0.583207 0.000000 0.004927
O O3 0.565629 0.131257 0.000000
O O4 0.687255 0.136276 0.159374
O O5 0.119270 0.557706 0.668146
O O6 0.150985 0.687308 0.491558
O O7 0.000000 0.593388 0.620123
O O8 0.734435 0.422681 0.273393
O O9 0.666668 0.333334 0.000000
#
# Coordination Sequence:
#
# PCOD9577650 Si02
#       4
#    12  12   4  12
#     4   8  13  24  41  54  61  69  90 131 165 174
#     4   9  16  26  42  56  58  66  96 134 166 180
#     4  12  24  31  35  46  70 101 115 112 131 193
#     4  10  18  28  36  46  65  85 104 121 139 174
#
# _framework density 16.550084999999999
#
# number of rings (size 3 to 8) (size 9 to 14) (size 15 to 20)
#    0.000    2.700    0.000    8.100    0.000    4.800 
#    0.000    3.000    0.000    0.000    0.000    0.000 
#    0.000    0.000    0.000    0.000    0.000    0.000 
#
# Total GULP energy -222852.267770 kJ/mol
# GULP energy per Si atom -5571.306694 kJ/mol
# Density = 1.651242 g / cm^3
# Si number density = 16.550085 Si / 1000 Ang^3
#
#
#
# Elastic Constant Matrix: (Units=GPa)
#
#
# Indices 1 2 3 4 5 6 
#
# 1 38.4885 20.0771 30.9922 0.0000 -1.1173 0.0001
# 2 20.0771 38.4888 30.9923 0.0003 1.1175 0.0001
# 3 30.9922 30.9923 206.2130 -0.0001 -0.0001 0.0000
# 4 0.0000 0.0003 -0.0001 1.1866 -0.0001 1.1175
# 5 -1.1173 1.1175 -0.0001 -0.0001 1.1865 0.0001
# 6 0.0001 0.0001 0.0000 1.1175 0.0001 9.2058
#
#
#
# Elastic Compliance Matrix: (Units=1/GPa)
#
#
# Indices 1 2 3 4 5 6 
#
# 1 0.040814 -0.020510 -0.003052 0.000008 0.057750 -0.000002
# 2 -0.020510 0.040814 -0.003052 -0.000014 -0.057753 0.000002
# 3 -0.003052 -0.003052 0.005767 0.000002 0.000001 0.000000
# 4 0.000008 -0.000014 0.000002 0.951528 0.000083 -0.115503
# 5 0.057750 -0.057753 0.000001 0.000083 0.951571 -0.000020
# 6 -0.000002 0.000002 0.000000 -0.115503 -0.000020 0.122648
#
#
# Mechanical properties :
#
#
# Convention : Reuss Voigt Hill
#
# Bulk Modulus (GPa) = 29.26602 49.70151 39.48376
# Shear Modulus (GPa) = 2.29594 15.72435 9.01015
#
# Velocity S-wave (km/s) = 1.17910 3.08572 2.33581
# Velocity P-wave (km/s) = 4.42441 6.54154 5.58423
#
# Compressibility (1/GPa) = 0.03416932
#
# Stress axis : x y z
#
# Youngs Moduli (GPa) = 24.50126 24.50124 173.41146
#
# Poissons Ratio (x) = 0.50251 0.52918
# Poissons Ratio (y) = 0.50251 0.52919
# Poissons Ratio (z) = 0.07477 0.07477
#
# Static dielectric constant tensor:
#      x y z
#    x 1.567710 0.000000 0.000000 
#    y 0.000000 1.567700 0.000000 
#    z 0.000000 0.000000 1.733200 
# 
# From -- ./inp_files/1114.got.cif
#   From: 2010.05.17/outbox.cif.g08.bks.cpg/sg162_1_cif.got.tgz:1114.got - 2010.05.20 10:53:12.
