data_PCOD9577972
_publ_section_title
;
Structure prediction by ZEFSAII (Michael W. Deem and Ramdas Pophale) SiO2 
 PCOD9577972
Probable space group: P -3 1 C
;
_chemical_formula_sum "Si O2"
_cell_formula_units_Z 42
_cell_length_a 23.640957
_cell_length_b 23.640957
_cell_length_c 5.466098
_cell_angle_alpha 90.000000
_cell_angle_beta 90.000000
_cell_angle_gamma 120.000000
_cell_volume 2645.685101
_symmetry_space_group_name_H-M "P -3 1 C"
_symmetry_group_IT_number 163
_symmetry_cell_setting 'hexagonal'
loop_
_space_group_symop_operation_xyz
x,y,z
-y,x-y,z
-x+y,-x,z
-y,-x,1/2-z
-x+y,y,1/2-z
x,x-y,1/2-z
-x,-y,-z
y,-x+y,-z
x-y,x,-z
y,x,1/2+z
x-y,-y,1/2+z
-x,-x+y,1/2+z
loop_
_atom_site_type_symbol
_atom_site_label
_atom_site_fract_x
_atom_site_fract_y
_atom_site_fract_z
Si Si1 0.071244 0.363140 0.249996
Si Si2 0.413285 0.078440 0.249997
Si Si3 0.959876 0.174462 0.749994
Si Si4 0.478636 0.957271 0.750000
O O1 0.104781 0.399824 0.499853
O O2 0.059763 0.290613 0.249996
O O3 0.999205 0.356712 0.249996
O O4 0.104781 0.399824 0.000140
O O5 0.482660 0.082221 0.249999
O O6 0.895502 0.104499 0.750000
O O7 0.999999 0.184296 0.499991
O O8 0.500000 0.000000 0.500000
#
# Coordination Sequence:
#
# PCOD9577972 Si02
#       4
#    12  12  12   6
#     4  10  16  29  44  61  87 119 141 186 214 252
#     4  10  16  25  41  60  96 119 153 178 197 235
#     4  12  23  38  57  76  92 111 148 197 253 311
#     4  12  16  20  34  62  86 130 152 176 190 220
#
# _framework density 15.874907
#
# number of rings (size 3 to 8) (size 9 to 14) (size 15 to 20)
#    0.000    1.143   11.429    0.857    0.000    0.000 
#    0.000    0.000    0.000    5.714    0.000    0.000 
#    0.000    0.000    0.000    0.000    0.000    0.000 
#
# Total GULP energy -234031.484200 kJ/mol
# GULP energy per Si atom -5572.178195 kJ/mol
# Density = 1.583877 g / cm^3
# Si number density = 15.874907 Si / 1000 Ang^3
#
#
#
# Elastic Constant Matrix: (Units=GPa)
#
#
# Indices 1 2 3 4 5 6 
#
# 1 74.7559 48.6700 46.4722 0.0000 0.0002 0.0000
# 2 48.6700 74.7559 46.4722 0.0000 -0.0002 0.0000
# 3 46.4722 46.4722 202.8171 0.0000 0.0000 0.0000
# 4 0.0000 0.0000 0.0000 13.6097 0.0000 -0.0002
# 5 0.0002 -0.0002 0.0000 0.0000 13.6097 0.0000
# 6 0.0000 0.0000 0.0000 -0.0002 0.0000 13.0430
#
#
#
# Elastic Compliance Matrix: (Units=1/GPa)
#
#
# Indices 1 2 3 4 5 6 
#
# 1 0.024063 -0.014272 -0.002244 0.000000 -0.000001 0.000000
# 2 -0.014272 0.024063 -0.002244 0.000000 0.000001 0.000000
# 3 -0.002244 -0.002244 0.005959 0.000000 0.000000 0.000000
# 4 0.000000 0.000000 0.000000 0.073477 0.000000 0.000001
# 5 -0.000001 0.000001 0.000000 0.000000 0.073477 0.000000
# 6 0.000000 0.000000 0.000000 0.000001 0.000000 0.076670
#
#
# Mechanical properties :
#
#
# Convention : Reuss Voigt Hill
#
# Bulk Modulus (GPa) = 60.35924 70.61754 65.48839
# Shear Modulus (GPa) = 15.58853 22.10011 18.84432
#
# Velocity S-wave (km/s) = 3.13702 3.73519 3.44910
# Velocity P-wave (km/s) = 7.15720 7.94874 7.56333
#
# Compressibility (1/GPa) = 0.01656747
#
# Stress axis : x y z
#
# Youngs Moduli (GPa) = 41.55725 41.55725 167.82172
#
# Poissons Ratio (x) = 0.59309 0.37652
# Poissons Ratio (y) = 0.59309 0.37652
# Poissons Ratio (z) = 0.09324 0.09324
#
# Static dielectric constant tensor:
#      x y z
#    x 1.507240 0.000000 0.000000 
#    y 0.000000 1.507240 0.000000 
#    z 0.000000 0.000000 1.651990 
# 
# From -- ./inp_files/213.got.cif
#   From: 2010.05.17/outbox.cif.g08.bks.cpg/sg163_1_cif.got.tgz:213.got - 2010.05.20 10:56:03.
