data_PCOD9577933
_publ_section_title
;
Structure prediction by ZEFSAII (Michael W. Deem and Ramdas Pophale) SiO2 
 PCOD9577933
Probable space group: P -3 1 M 
;
_chemical_formula_sum "Si O2"
_cell_formula_units_Z 60
_cell_length_a 29.026153
_cell_length_b 29.026153
_cell_length_c 5.035105
_cell_angle_alpha 90.000000
_cell_angle_beta 90.000000
_cell_angle_gamma 120.000000
_cell_volume 3673.822110
_symmetry_space_group_name_H-M "P -3 1 M "
_symmetry_group_IT_number 162
_symmetry_cell_setting 'hexagonal'
loop_
_space_group_symop_operation_xyz
x,y,z
-y,x-y,z
-x+y,-x,z
-y,-x,-z
-x+y,y,-z
x,x-y,-z
-x,-y,-z
y,-x+y,-z
x-y,x,-z
y,x,z
x-y,-y,z
-x,-x+y,z
loop_
_atom_site_type_symbol
_atom_site_label
_atom_site_fract_x
_atom_site_fract_y
_atom_site_fract_z
Si Si1 0.519272 0.790701 0.759861
Si Si2 0.227041 0.356347 0.890137
Si Si3 0.488304 0.876023 0.889540
Si Si4 0.341720 0.061897 0.589371
Si Si5 0.061337 0.612125 0.403116
O O1 0.513698 0.756849 0.500000
O O2 0.582015 0.831667 0.808963
O O3 0.491188 0.826001 0.772903
O O4 0.499187 0.749594 0.000000
O O5 0.235295 0.329485 0.630779
O O6 0.168019 0.336037 0.000000
O O7 0.260819 0.351409 0.128514
O O8 0.509932 0.918027 0.647838
O O9 0.431361 0.862721 0.000000
O O10 0.526778 0.902389 0.142979
O O11 0.397221 0.064575 0.510317
O O12 0.298129 0.000000 0.604330
O O13 0.000000 0.571141 0.337695
#
# Coordination Sequence:
#
# PCOD9577933 Si02
#       5
#    12  12  12  12  12
#     4  11  21  36  56  75  98 123 157 209 264 305
#     4  11  20  33  54  78 102 132 178 220 253 298
#     4  12  24  38  55  78 104 129 171 207 248 316
#     4  11  20  34  52  75 109 142 170 208 266 315
#     4  11  22  37  53  74 109 144 170 197 243 310
#
# _framework density 16.331765999999998
#
# number of rings (size 3 to 8) (size 9 to 14) (size 15 to 20)
#    0.000    0.800    4.000    6.000    0.000    5.600 
#    0.000    0.000    0.000    0.400    0.000    2.800 
#    0.000    0.000    0.000    0.000    0.000    0.000 
#
# Total GULP energy -335206.815822 kJ/mol
# GULP energy per Si atom -5586.780264 kJ/mol
# Density = 1.629459 g / cm^3
# Si number density = 16.331766 Si / 1000 Ang^3
#
#
#
# Elastic Constant Matrix: (Units=GPa)
#
#
# Indices 1 2 3 4 5 6 
#
# 1 66.4972 38.1147 27.9996 -0.0002 0.1761 0.0000
# 2 38.1147 66.4972 27.9996 0.0002 -0.1761 0.0000
# 3 27.9996 27.9996 113.2945 0.0000 0.0000 0.0000
# 4 -0.0002 0.0002 0.0000 25.9238 0.0000 -0.1761
# 5 0.1761 -0.1761 0.0000 0.0000 25.9238 -0.0002
# 6 0.0000 0.0000 0.0000 -0.1761 -0.0002 14.1913
#
#
#
# Elastic Compliance Matrix: (Units=1/GPa)
#
#
# Indices 1 2 3 4 5 6 
#
# 1 0.023126 -0.012110 -0.002723 0.000000 -0.000239 0.000000
# 2 -0.012110 0.023126 -0.002723 0.000000 0.000239 0.000000
# 3 -0.002723 -0.002723 0.010172 0.000000 0.000000 0.000000
# 4 0.000000 0.000000 0.000000 0.038578 0.000000 0.000479
# 5 -0.000239 0.000239 0.000000 0.000000 0.038578 0.000001
# 6 0.000000 0.000000 0.000000 0.000479 0.000001 0.070472
#
#
# Mechanical properties :
#
#
# Convention : Reuss Voigt Hill
#
# Bulk Modulus (GPa) = 46.91549 48.27961 47.59755
# Shear Modulus (GPa) = 20.30317 23.35279 21.82798
#
# Velocity S-wave (km/s) = 3.52969 3.78550 3.65983
# Velocity P-wave (km/s) = 6.73799 6.98088 6.86051
#
# Compressibility (1/GPa) = 0.02131492
#
# Stress axis : x y z
#
# Youngs Moduli (GPa) = 43.24094 43.24094 98.30623
#
# Poissons Ratio (x) = 0.52363 0.26765
# Poissons Ratio (y) = 0.52363 0.26765
# Poissons Ratio (z) = 0.11773 0.11773
#
# Static dielectric constant tensor:
#      x y z
#    x 1.539470 0.000000 0.000000 
#    y 0.000000 1.539470 0.000000 
#    z 0.000000 0.000000 1.567230 
# 
# From -- ./inp_files/675.got.cif
#   From: 2010.05.17/outbox.cif.g08.bks.cpg/sg162_1_cif.got.tgz:675.got - 2010.05.20 10:53:12.
