data_PCOD9577232
_publ_section_title
;
Structure prediction by ZEFSAII (Michael W. Deem and Ramdas Pophale) SiO2 
 PCOD9577232
Probable space group: P 3 M 1
;
_chemical_formula_sum "Si O2"
_cell_formula_units_Z 48
_cell_length_a 12.850242
_cell_length_b 12.850242
_cell_length_c 21.014616
_cell_angle_alpha 90.000000
_cell_angle_beta 90.000000
_cell_angle_gamma 120.000000
_cell_volume 3005.209156
_symmetry_space_group_name_H-M "P 3 M 1"
_symmetry_group_IT_number 156
_symmetry_cell_setting 'hexagonal'
loop_
_space_group_symop_operation_xyz
x,y,z
-y,x-y,z
-x+y,-x,z
-x+y,y,z
x,x-y,z
-y,-x,z
loop_
_atom_site_type_symbol
_atom_site_label
_atom_site_fract_x
_atom_site_fract_y
_atom_site_fract_z
Si Si1 0.420060 0.086469 0.098270
Si Si2 0.580805 0.913577 0.836883
Si Si3 0.581238 0.914396 0.461227
Si Si4 0.000770 0.247578 0.340842
Si Si5 0.419072 0.086293 0.723565
Si Si6 0.913836 0.580150 0.579853
Si Si7 0.581020 0.914463 0.981219
Si Si8 0.085729 0.666521 0.219564
O O1 0.558447 0.116893 0.096464
O O2 0.412328 0.206164 0.104333
O O3 0.358999 0.996881 0.157589
O O4 0.357842 0.013304 0.034049
O O5 0.448622 0.897243 0.830567
O O6 0.572783 0.786392 0.831103
O O7 0.622449 0.958475 0.908959
O O8 0.659391 0.000422 0.780443
O O9 0.454880 0.909759 0.450618
O O10 0.561983 0.780992 0.465059
O O11 0.672298 0.980950 0.403223
O O12 0.638043 0.987801 0.526055
O O13 0.107870 0.215739 0.341669
O O14 0.024578 0.331612 0.279462
O O15 0.871903 0.128098 0.339227
O O16 0.551013 0.102025 0.729769
O O17 0.427704 0.213852 0.728818
O O18 0.376185 0.040271 0.651718
O O19 0.793473 0.586945 0.569692
O O20 0.883183 0.441592 0.576744
O O21 0.443620 0.887239 0.986489
O O22 0.584414 0.792207 0.991188
O O23 0.097455 0.548728 0.230794
O O24 0.216615 0.783386 0.210318
#
# Coordination Sequence:
#
# PCOD9577232 Si02
#       8
#     6   6   6   6   6   6   6   6
#     4  10  20  33  49  70  98 130 161 194 235 283
#     4   9  17  29  46  69  95 123 155 192 237 285
#     4  10  20  33  50  72  99 129 159 194 237 285
#     4  10  20  34  52  73  98 129 164 199 233 272
#     4   9  17  29  46  68  93 122 156 194 236 281
#     4   9  17  30  48  69  93 122 157 197 239 282
#     4   9  17  30  49  71  94 121 155 197 241 284
#     4  10  20  34  54  78 102 128 159 197 238 280
#
# _framework density 15.972265
#
# number of rings (size 3 to 8) (size 9 to 14) (size 15 to 20)
#    0.000    2.500    0.000    2.500    0.000    3.000 
#    0.000    2.500    0.000    9.750    0.000    0.000 
#    0.000    0.000    0.000    0.000    0.000    0.000 
#
# Total GULP energy -267599.045423 kJ/mol
# GULP energy per Si atom -5574.980113 kJ/mol
# Density = 1.593591 g / cm^3
# Si number density = 15.972265 Si / 1000 Ang^3
#
#
#
# Elastic Constant Matrix: (Units=GPa)
#
#
# Indices 1 2 3 4 5 6 
#
# 1 100.2398 61.8366 77.3722 0.9084 0.0000 0.0000
# 2 61.8366 100.2398 77.3722 -0.9084 0.0000 0.0000
# 3 77.3722 77.3722 144.3611 0.0000 0.0000 0.0000
# 4 0.9084 -0.9084 0.0000 23.9727 0.0000 0.0000
# 5 0.0000 0.0000 0.0000 0.0000 23.9727 0.9084
# 6 0.0000 0.0000 0.0000 0.0000 0.9084 19.2016
#
#
#
# Elastic Compliance Matrix: (Units=1/GPa)
#
#
# Indices 1 2 3 4 5 6 
#
# 1 0.019361 -0.006725 -0.006772 -0.000989 0.000000 0.000000
# 2 -0.006725 0.019361 -0.006772 0.000989 0.000000 0.000000
# 3 -0.006772 -0.006772 0.014187 0.000000 0.000000 0.000000
# 4 -0.000989 0.000989 0.000000 0.041789 0.000000 0.000000
# 5 0.000000 0.000000 0.000000 0.000000 0.041789 -0.001977
# 6 0.000000 0.000000 0.000000 0.000000 -0.001977 0.052173
#
#
# Mechanical properties :
#
#
# Convention : Reuss Voigt Hill
#
# Bulk Modulus (GPa) = 80.84800 86.44477 83.64638
# Shear Modulus (GPa) = 21.42959 21.98006 21.70482
#
# Velocity S-wave (km/s) = 3.66686 3.71366 3.69033
# Velocity P-wave (km/s) = 8.28586 8.52219 8.40485
#
# Compressibility (1/GPa) = 0.01236889
#
# Stress axis : x y z
#
# Youngs Moduli (GPa) = 51.64989 51.64989 70.48908
#
# Poissons Ratio (x) = 0.34735 0.47738
# Poissons Ratio (y) = 0.34735 0.47738
# Poissons Ratio (z) = 0.34979 0.34979
#
# Static dielectric constant tensor:
#      x y z
#    x 1.501600 0.000000 0.000000 
#    y 0.000000 1.501600 0.000000 
#    z 0.000000 0.000000 1.546750 
# 
# From -- ./inp_files/1073.got.cif
#   From: 2010.05.17/outbox.cif.g08.bks.cpg/sg156_cif.got.tgz:1073.got - 2010.05.20 10:49:08.
