data_PCOD9577329
_publ_section_title
;
Structure prediction by ZEFSAII (Michael W. Deem and Ramdas Pophale) SiO2 
 PCOD9577329
Probable space group: P 3 C 1
;
_chemical_formula_sum "Si O2"
_cell_formula_units_Z 30
_cell_length_a 8.464732
_cell_length_b 8.464732
_cell_length_c 24.368052
_cell_angle_alpha 90.000000
_cell_angle_beta 90.000000
_cell_angle_gamma 120.000000
_cell_volume 1512.090795
_symmetry_space_group_name_H-M "P 3 C 1"
_symmetry_group_IT_number 158
_symmetry_cell_setting 'hexagonal'
loop_
_space_group_symop_operation_xyz
x,y,z
-y,x-y,z
-x+y,-x,z
-x+y,y,1/2+z
x,x-y,1/2+z
-y,-x,1/2+z
loop_
_atom_site_type_symbol
_atom_site_label
_atom_site_fract_x
_atom_site_fract_y
_atom_site_fract_z
Si Si1 0.336047 0.460094 0.180860
Si Si2 0.650860 0.533194 0.575906
Si Si3 0.203153 0.212737 0.284086
Si Si4 0.324514 0.329966 0.406871
Si Si5 0.996519 0.657524 0.953868
O O1 0.504193 0.668829 0.181115
O O2 0.357817 0.365862 0.126799
O O3 0.316211 0.341590 0.234192
O O4 0.490077 0.319836 0.577881
O O5 0.642231 0.619000 0.518428
O O6 0.286712 0.300637 0.342391
O O7 0.991504 0.165786 0.281440
O O8 0.469949 0.533430 0.423769
O O9 0.396009 0.199509 0.429465
O O10 0.136520 0.272735 0.437892
#
# Coordination Sequence:
#
# PCOD9577329 Si02
#       5
#     6   6   6   6   6
#     4  10  26  40  66  94 130 172 232 274 326 386
#     4  10  23  44  67  92 133 173 221 271 339 400
#     4  10  23  44  67  92 133 173 221 271 339 400
#     4  12  24  44  69 103 137 178 225 284 346 414
#     4  12  24  44  69 103 137 178 225 284 346 414
#
# _framework density 19.840081000000001
#
# number of rings (size 3 to 8) (size 9 to 14) (size 15 to 20)
#    1.200    0.000    4.000    1.200    8.400    0.000 
#    0.000    0.000    0.000    0.000    0.000    0.000 
#    0.000    0.000    0.000    0.000    0.000    0.000 
#
# Total GULP energy -167360.821686 kJ/mol
# GULP energy per Si atom -5578.694056 kJ/mol
# Density = 1.979492 g / cm^3
# Si number density = 19.840081 Si / 1000 Ang^3
#
#
#
# Elastic Constant Matrix: (Units=GPa)
#
#
# Indices 1 2 3 4 5 6 
#
# 1 59.9619 10.9643 60.5477 -0.5411 0.0000 0.0000
# 2 10.9643 59.9619 60.5477 0.5411 0.0000 0.0000
# 3 60.5477 60.5477 241.3249 0.0000 0.0000 0.0000
# 4 -0.5411 0.5411 0.0000 -32.6981 0.0000 0.0000
# 5 0.0000 0.0000 0.0000 0.0000 -32.6981 -0.5411
# 6 0.0000 0.0000 0.0000 0.0000 -0.5411 24.4988
#
#
#
# Elastic Compliance Matrix: (Units=1/GPa)
#
#
# Indices 1 2 3 4 5 6 
#
# 1 0.022533 0.002131 -0.006188 -0.000338 0.000000 0.000000
# 2 0.002131 0.022533 -0.006188 0.000338 0.000000 0.000000
# 3 -0.006188 -0.006188 0.007249 0.000000 0.000000 0.000000
# 4 -0.000338 0.000338 0.000000 -0.030572 0.000000 0.000000
# 5 0.000000 0.000000 0.000000 0.000000 -0.030572 -0.000675
# 6 0.000000 0.000000 0.000000 0.000000 -0.000675 0.040803
#
#
# Mechanical properties :
#
#
# Convention : Reuss Voigt Hill
#
# Bulk Modulus (GPa) = 31.42161 69.48534 50.45347
# Shear Modulus (GPa) = 79.27181 7.09980 43.18581
#
# Velocity S-wave (km/s) = 6.32788 1.89375 4.67057
# Velocity P-wave (km/s) = 8.32234 6.31510 7.38721
#
# Compressibility (1/GPa) = 0.03182523
#
# Stress axis : x y z
#
# Youngs Moduli (GPa) = 44.37897 44.37897 137.94931
#
# Poissons Ratio (x) = -0.09459 0.85367
# Poissons Ratio (y) = -0.09459 0.85367
# Poissons Ratio (z) = 0.27463 0.27463
#
# Static dielectric constant tensor:
#      x y z
#    x 1.600110 0.000000 0.000000 
#    y 0.000000 1.600110 0.000000 
#    z 0.000000 0.000000 1.633670 
# 
# From -- ./inp_files/730.got.cif
#   From: 2010.05.17/outbox.cif.g08.bks.cpg/sg158_cif.got.tgz:730.got - 2010.05.20 10:49:59.
