data_PCOD9577209
_publ_section_title
;
Structure prediction by ZEFSAII (Michael W. Deem and Ramdas Pophale) SiO2 
 PCOD9577209
Probable space group: P 3 M 1
;
_chemical_formula_sum "Si O2"
_cell_formula_units_Z 42
_cell_length_a 13.091592
_cell_length_b 13.091592
_cell_length_c 17.964217
_cell_angle_alpha 90.000000
_cell_angle_beta 90.000000
_cell_angle_gamma 120.000000
_cell_volume 2666.391083
_symmetry_space_group_name_H-M "P 3 M 1"
_symmetry_group_IT_number 156
_symmetry_cell_setting 'hexagonal'
loop_
_space_group_symop_operation_xyz
x,y,z
-y,x-y,z
-x+y,-x,z
-x+y,y,z
x,x-y,z
-y,-x,z
loop_
_atom_site_type_symbol
_atom_site_label
_atom_site_fract_x
_atom_site_fract_y
_atom_site_fract_z
Si Si1 0.427172 0.093685 0.946980
Si Si2 0.000338 0.242681 0.645181
Si Si3 0.426594 0.333588 0.515737
Si Si4 0.666927 0.093775 0.343162
Si Si5 0.907325 0.573555 0.773577
Si Si6 0.757131 0.757456 0.076842
Si Si7 0.333114 0.423853 0.212673
O O1 0.540825 0.081649 0.964420
O O2 0.459984 0.229992 0.954447
O O3 0.395075 0.061108 0.860350
O O4 0.320178 0.020332 0.002903
O O5 0.122969 0.245938 0.644344
O O6 0.981992 0.304414 0.572909
O O7 0.984876 0.306153 0.717594
O O8 0.891328 0.108673 0.646026
O O9 0.456998 0.228499 0.523860
O O10 0.541803 0.458198 0.531828
O O11 0.392219 0.332086 0.429403
O O12 0.563565 0.127129 0.337387
O O13 0.792626 0.207375 0.325576
O O14 0.632699 0.987658 0.286391
O O15 0.772991 0.545981 0.764023
O O16 0.914369 0.457185 0.756878
O O17 0.775932 0.887966 0.068685
O O18 0.666622 0.695068 0.144731
O O19 0.881008 0.762016 0.090381
O O20 0.220904 0.441808 0.221226
O O21 0.451952 0.548049 0.198852
#
# Coordination Sequence:
#
# PCOD9577209 Si02
#       7
#     6   6   6   6   6   6   6
#     4   9  17  30  49  73  98 121 147 183 230 280
#     4  10  20  32  46  65  92 126 160 192 226 268
#     4   9  17  30  50  74  96 118 147 188 236 281
#     4   9  17  30  49  73  98 121 147 184 233 284
#     4   9  17  30  50  74  96 118 147 188 235 278
#     4  10  20  33  49  69  94 124 157 193 232 274
#     4  10  20  33  49  68  92 124 161 198 232 269
#
# _framework density 15.751628
#
# number of rings (size 3 to 8) (size 9 to 14) (size 15 to 20)
#    0.000    2.571    0.000    2.286    0.000    3.429 
#    0.000    1.429    0.000    9.143    0.000    0.000 
#    0.000    0.000    0.000    0.000    0.000    0.000 
#
# Total GULP energy -234177.781478 kJ/mol
# GULP energy per Si atom -5575.661464 kJ/mol
# Density = 1.571578 g / cm^3
# Si number density = 15.751628 Si / 1000 Ang^3
#
#
#
# Elastic Constant Matrix: (Units=GPa)
#
#
# Indices 1 2 3 4 5 6 
#
# 1 121.9465 81.0755 84.3929 0.8607 0.0001 0.0000
# 2 81.0755 121.9465 84.3929 -0.8607 -0.0001 0.0000
# 3 84.3929 84.3929 102.5897 0.0000 0.0000 0.0000
# 4 0.8607 -0.8607 0.0000 21.5617 0.0000 -0.0001
# 5 0.0001 -0.0001 0.0000 0.0000 21.5617 0.8607
# 6 0.0000 0.0000 0.0000 -0.0001 0.8607 20.4355
#
#
#
# Elastic Compliance Matrix: (Units=1/GPa)
#
#
# Indices 1 2 3 4 5 6 
#
# 1 0.020045 -0.004463 -0.012819 -0.000978 0.000000 0.000000
# 2 -0.004463 0.020045 -0.012819 0.000978 0.000000 0.000000
# 3 -0.012819 -0.012819 0.030837 0.000000 0.000000 0.000000
# 4 -0.000978 0.000978 0.000000 0.046457 0.000000 0.000000
# 5 0.000000 0.000000 0.000000 0.000000 0.046457 -0.001957
# 6 0.000000 0.000000 0.000000 0.000000 -0.001957 0.049017
#
#
# Mechanical properties :
#
#
# Convention : Reuss Voigt Hill
#
# Bulk Modulus (GPa) = 93.21337 94.02279 93.61808
# Shear Modulus (GPa) = 18.07439 19.15322 18.61380
#
# Velocity S-wave (km/s) = 3.39110 3.49083 3.44133
# Velocity P-wave (km/s) = 8.63934 8.72171 8.68062
#
# Compressibility (1/GPa) = 0.01072807
#
# Stress axis : x y z
#
# Youngs Moduli (GPa) = 49.88656 49.88656 32.42822
#
# Poissons Ratio (x) = 0.22264 0.41568
# Poissons Ratio (y) = 0.22264 0.41568
# Poissons Ratio (z) = 0.63947 0.63947
#
# Static dielectric constant tensor:
#      x y z
#    x 1.497240 0.000000 0.000000 
#    y 0.000000 1.497240 0.000000 
#    z 0.000000 0.000000 1.527570 
# 
# From -- ./inp_files/961.got.cif
#   From: 2010.05.17/outbox.cif.g08.bks.cpg/sg156_cif.got.tgz:961.got - 2010.05.20 10:49:08.
