data_PCOD9577599
_publ_section_title
;
Structure prediction by ZEFSAII (Michael W. Deem and Ramdas Pophale) SiO2 
 PCOD9577599
Probable space group: R 3 C
;
_chemical_formula_sum "Si O2"
_cell_formula_units_Z 54
_cell_length_a 16.802562
_cell_length_b 16.802562
_cell_length_c 9.866832
_cell_angle_alpha 90.000000
_cell_angle_beta 90.000000
_cell_angle_gamma 120.000000
_cell_volume 2412.455874
_symmetry_space_group_name_H-M "R 3 C"
_symmetry_group_IT_number 161
_symmetry_cell_setting 'hexagonal'
loop_
_space_group_symop_operation_xyz
x,y,z
-y,x-y,z
-x+y,-x,z
-x+y,y,1/2+z
x,x-y,1/2+z
-y,-x,1/2+z
2/3+x,1/3+y,1/3+z
2/3-y,1/3+x-y,1/3+z
2/3-x+y,1/3-x,1/3+z
2/3-x+y,1/3+y,5/6+z
2/3+x,1/3+x-y,5/6+z
2/3-y,1/3-x,5/6+z
1/3+x,2/3+y,2/3+z
1/3-y,2/3+x-y,2/3+z
1/3-x+y,2/3-x,2/3+z
1/3-x+y,2/3+y,1/6+z
1/3+x,2/3+x-y,1/6+z
1/3-y,2/3-x,1/6+z
loop_
_atom_site_type_symbol
_atom_site_label
_atom_site_fract_x
_atom_site_fract_y
_atom_site_fract_z
Si Si1 0.378797 0.245861 0.285949
Si Si2 0.049214 0.199028 0.158651
Si Si3 0.866204 0.379175 0.990750
O O1 0.403756 0.177286 0.366253
O O2 0.413349 0.262420 0.132294
O O3 0.233020 0.006265 0.534594
O O4 0.270191 0.204774 0.279387
O O5 0.097283 0.136345 0.180346
O O6 0.941693 0.137561 0.131064
#
# Coordination Sequence:
#
# PCOD9577599 Si02
#       3
#    18  18  18
#     4  10  26  43  76 111 153 205 254 327 374 467
#     4  10  25  43  78 105 152 201 256 313 382 459
#     4  10  25  48  72 116 151 204 260 314 390 454
#
# _framework density 22.383831000000001
#
# number of rings (size 3 to 8) (size 9 to 14) (size 15 to 20)
#    2.000    0.000    0.000    0.667    9.333    2.667 
#    0.000    0.000    0.000    0.000    0.000    0.000 
#    0.000    0.000    0.000    0.000    0.000    0.000 
#
# Total GULP energy -100313.341950 kJ/mol
# GULP energy per Si atom -5572.963442 kJ/mol
# Density = 2.233288 g / cm^3
# Si number density = 22.383831 Si / 1000 Ang^3
#
#
#
# Elastic Constant Matrix: (Units=GPa)
#
#
# Indices 1 2 3 4 5 6 
#
# 1 45.1947 79.4807 50.6038 22.5989 0.0000 0.0000
# 2 79.4807 45.1947 50.6038 -22.5989 0.0000 0.0000
# 3 50.6038 50.6038 99.4831 0.0000 0.0000 0.0000
# 4 22.5989 -22.5989 0.0000 34.4152 0.0000 0.0000
# 5 0.0000 0.0000 0.0000 0.0000 34.4152 22.5989
# 6 0.0000 0.0000 0.0000 0.0000 22.5989 -17.1430
#
#
#
# Elastic Compliance Matrix: (Units=1/GPa)
#
#
# Indices 1 2 3 4 5 6 
#
# 1 -0.000986 0.014648 -0.006950 0.010266 0.000000 0.000000
# 2 0.014648 -0.000986 -0.006950 -0.010266 0.000000 0.000000
# 3 -0.006950 -0.006950 0.017122 0.000000 0.000000 0.000000
# 4 0.010266 -0.010266 0.000000 0.015575 0.000000 0.000000
# 5 0.000000 0.000000 0.000000 0.000000 0.015575 0.020532
# 6 0.000000 0.000000 0.000000 0.000000 0.020532 -0.031267
#
#
# Mechanical properties :
#
#
# Convention : Reuss Voigt Hill
#
# Bulk Modulus (GPa) = 60.06619 61.24992 60.65805
# Shear Modulus (GPa) = 261.98283 10.94977 136.46630
#
# Velocity S-wave (km/s) = 10.83029 2.21415 7.81657
# Velocity P-wave (km/s) = 13.53833 5.82747 10.42223
#
# Compressibility (1/GPa) = 0.01664830
#
# Stress axis : x y z
#
# Youngs Moduli (GPa) = -1014.60148 -1014.60126 58.40443
#
# Poissons Ratio (x) = 14.86175 0.40588
# Poissons Ratio (y) = 14.86175 0.40588
# Poissons Ratio (z) = -7.05103 -7.05102
#
# Static dielectric constant tensor:
#      x y z
#    x 1.839990 0.000000 0.000000 
#    y 0.000000 1.839990 0.000000 
#    z 0.000000 0.000000 1.797080 
# 
# From -- ./inp_files/120.got.cif
#   From: 2010.05.17/outbox.cif.g08.bks.cpg/sg161_cif.got.tgz:120.got - 2010.05.20 10:52:32.
