data_PCOD9577914
_publ_section_title
;
Structure prediction by ZEFSAII (Michael W. Deem and Ramdas Pophale) SiO2 
 PCOD9577914
Probable space group: P -3 1 M 
;
_chemical_formula_sum "Si O2"
_cell_formula_units_Z 52
_cell_length_a 12.789979
_cell_length_b 12.789979
_cell_length_c 19.016318
_cell_angle_alpha 90.000000
_cell_angle_beta 90.000000
_cell_angle_gamma 120.000000
_cell_volume 2693.994630
_symmetry_space_group_name_H-M "P -3 1 M "
_symmetry_group_IT_number 162
_symmetry_cell_setting 'hexagonal'
loop_
_space_group_symop_operation_xyz
x,y,z
-y,x-y,z
-x+y,-x,z
-y,-x,-z
-x+y,y,-z
x,x-y,-z
-x,-y,-z
y,-x+y,-z
x-y,x,-z
y,x,z
x-y,-y,z
-x,-x+y,z
loop_
_atom_site_type_symbol
_atom_site_label
_atom_site_fract_x
_atom_site_fract_y
_atom_site_fract_z
Si Si1 0.534521 0.857463 0.954153
Si Si2 0.333334 0.666668 0.584682
Si Si3 0.400740 0.259520 0.574633
Si Si4 0.137220 0.274338 0.713083
Si Si5 0.231278 0.714451 0.795642
O O1 0.501264 0.793054 0.878808
O O2 0.616430 0.000000 0.943702
O O3 0.418348 0.836696 0.000000
O O4 0.596118 0.798059 0.000000
O O5 0.333334 0.666667 0.500000
O O6 0.315767 0.537082 0.604180
O O7 0.394637 0.197319 0.500000
O O8 0.358899 0.358899 0.566861
O O9 0.312981 0.162879 0.631422
O O10 0.170180 0.170180 0.724708
O O11 0.231773 0.391632 0.756370
O O12 0.000000 0.229511 0.732277
O O13 0.205271 0.579690 0.778092
#
# Coordination Sequence:
#
# PCOD9577914 Si02
#       5
#    12   4  12  12  12
#     4  11  20  36  61  90 125 159 199 252 306 366
#     4   9  21  36  54  87 126 153 190 254 325 384
#     4  10  22  40  63  90 121 162 211 262 318 375
#     4  11  25  42  63  89 124 168 212 259 314 378
#     4  10  22  40  61  90 126 157 207 258 314 370
#
# _framework density 19.302191000000001
#
# number of rings (size 3 to 8) (size 9 to 14) (size 15 to 20)
#    0.462    1.154    2.308    1.846    3.231    7.846 
#    0.000    0.000    0.000    3.923    0.000    0.000 
#    0.000    0.000    0.000    0.000    0.000    0.000 
#
# Total GULP energy -290094.186881 kJ/mol
# GULP energy per Si atom -5578.734363 kJ/mol
# Density = 1.925826 g / cm^3
# Si number density = 19.302191 Si / 1000 Ang^3
#
#
#
# Elastic Constant Matrix: (Units=GPa)
#
#
# Indices 1 2 3 4 5 6 
#
# 1 93.6090 42.5046 17.5053 0.0001 -4.5129 0.0000
# 2 42.5046 93.6090 17.5053 -0.0001 4.5130 0.0000
# 3 17.5053 17.5053 75.2130 0.0001 0.0000 0.0000
# 4 0.0001 -0.0001 0.0001 14.2417 0.0001 4.5130
# 5 -4.5129 4.5130 0.0000 0.0001 14.2416 0.0002
# 6 0.0000 0.0000 0.0000 4.5130 0.0002 25.5522
#
#
#
# Elastic Compliance Matrix: (Units=1/GPa)
#
#
# Indices 1 2 3 4 5 6 
#
# 1 0.014271 -0.006457 -0.001819 0.000000 0.006568 0.000000
# 2 -0.006457 0.014271 -0.001819 0.000000 -0.006568 0.000000
# 3 -0.001819 -0.001819 0.014142 0.000000 0.000000 0.000000
# 4 0.000000 0.000000 0.000000 0.074379 0.000000 -0.013137
# 5 0.006568 -0.006568 0.000000 0.000000 0.074380 0.000000
# 6 0.000000 0.000000 0.000000 -0.013137 0.000000 0.041456
#
#
# Mechanical properties :
#
#
# Convention : Reuss Voigt Hill
#
# Bulk Modulus (GPa) = 44.45183 46.38460 45.41822
# Shear Modulus (GPa) = 19.18751 23.13483 21.16117
#
# Velocity S-wave (km/s) = 3.15629 3.46578 3.31465
# Velocity P-wave (km/s) = 6.03012 6.33233 6.18307
#
# Compressibility (1/GPa) = 0.02249626
#
# Stress axis : x y z
#
# Youngs Moduli (GPa) = 70.07092 70.07092 70.71038
#
# Poissons Ratio (x) = 0.45242 0.12861
# Poissons Ratio (y) = 0.45242 0.12861
# Poissons Ratio (z) = 0.12745 0.12744
#
# Static dielectric constant tensor:
#      x y z
#    x 1.667100 0.000000 0.000000 
#    y 0.000000 1.667100 0.000000 
#    z 0.000000 0.000000 1.676570 
# 
# From -- ./inp_files/3758.got.cif
#   From: 2010.05.17/outbox.cif.g08.bks.cpg/sg162_2_cif.got.tgz:3758.got - 2010.05.20 10:53:12.
