data_PCOD9577283
_publ_section_title
;
Structure prediction by ZEFSAII (Michael W. Deem and Ramdas Pophale) SiO2 
 PCOD9577283
Probable space group: P 3 C 1
;
_chemical_formula_sum "Si O2"
_cell_formula_units_Z 42
_cell_length_a 19.895354
_cell_length_b 19.895354
_cell_length_c 5.593379
_cell_angle_alpha 90.000000
_cell_angle_beta 90.000000
_cell_angle_gamma 120.000000
_cell_volume 1917.380125
_symmetry_space_group_name_H-M "P 3 C 1"
_symmetry_group_IT_number 158
_symmetry_cell_setting 'hexagonal'
loop_
_space_group_symop_operation_xyz
x,y,z
-y,x-y,z
-x+y,-x,z
-x+y,y,1/2+z
x,x-y,1/2+z
-y,-x,1/2+z
loop_
_atom_site_type_symbol
_atom_site_label
_atom_site_fract_x
_atom_site_fract_y
_atom_site_fract_z
Si Si1 0.573850 0.798365 0.188180
Si Si2 0.351829 0.978071 0.688181
Si Si3 0.742021 0.551634 0.188179
Si Si4 0.090410 0.835016 0.688181
Si Si5 0.389994 0.359349 0.688181
Si Si6 0.258905 0.094266 0.188179
Si Si7 0.091562 0.539905 0.188183
O O1 0.531641 0.765820 0.438180
O O2 0.607990 0.890353 0.188180
O O3 0.649847 0.787963 0.188180
O O4 0.428562 0.969451 0.688182
O O5 0.351182 0.020723 0.448278
O O6 0.351181 0.020722 0.928085
O O7 0.763119 0.526238 0.438179
O O8 0.654378 0.536906 0.188180
O O9 0.789894 0.646603 0.188179
O O10 0.117291 0.882709 0.438180
O O11 0.998671 0.781738 0.688182
O O12 0.405978 0.447331 0.688183
O O13 0.235191 0.117596 0.438178
O O14 0.135539 0.567770 0.438183
#
# Coordination Sequence:
#
# PCOD9577283 Si02
#       7
#     6   6   6   6   6   6   6
#     4  10  21  32  45  75 104 134 169 215 274 325
#     4  10  19  31  51  74 106 143 176 214 258 328
#     4  10  21  33  47  73  99 135 173 214 261 319
#     4  10  21  33  51  71  92 116 166 214 267 317
#     4  10  19  31  53  71 104 143 177 213 255 318
#     4  10  21  36  51  66  92 123 166 209 265 323
#     4   8  16  30  46  74  99 136 179 199 246 310
#
# _framework density 21.904890000000002
#
# number of rings (size 3 to 8) (size 9 to 14) (size 15 to 20)
#    0.000    2.286    0.000    2.571    8.000    0.000 
#    0.000    0.000    0.000    5.714    0.000    0.000 
#    0.000    0.000    0.000  462.857    0.000    0.000 
#
# Total GULP energy -234168.244476 kJ/mol
# GULP energy per Si atom -5575.434392 kJ/mol
# Density = 2.185503 g / cm^3
# Si number density = 21.904890 Si / 1000 Ang^3
#
#
#
# Elastic Constant Matrix: (Units=GPa)
#
#
# Indices 1 2 3 4 5 6 
#
# 1 37.0209 6.0014 13.8153 0.0000 0.0000 0.0000
# 2 6.0014 37.0209 13.8153 0.0000 0.0000 0.0000
# 3 13.8153 13.8153 270.1096 0.0000 0.0000 0.0000
# 4 0.0000 0.0000 0.0000 15.7754 0.0000 0.0000
# 5 0.0000 0.0000 0.0000 0.0000 15.7754 0.0000
# 6 0.0000 0.0000 0.0000 0.0000 0.0000 15.5098
#
#
#
# Elastic Compliance Matrix: (Units=1/GPa)
#
#
# Indices 1 2 3 4 5 6 
#
# 1 0.028135 -0.004102 -0.001229 0.000000 0.000000 0.000000
# 2 -0.004102 0.028135 -0.001229 0.000000 0.000000 0.000000
# 3 -0.001229 -0.001229 0.003828 0.000000 0.000000 0.000000
# 4 0.000000 0.000000 0.000000 0.063390 0.000000 0.000000
# 5 0.000000 0.000000 0.000000 0.000000 0.063390 0.000000
# 6 0.000000 0.000000 0.000000 0.000000 0.000000 0.064475
#
#
# Mechanical properties :
#
#
# Convention : Reuss Voigt Hill
#
# Bulk Modulus (GPa) = 21.28678 45.71281 33.49980
# Shear Modulus (GPa) = 17.84856 30.11341 23.98098
#
# Velocity S-wave (km/s) = 2.85760 3.71176 3.31233
# Velocity P-wave (km/s) = 4.54167 6.26767 5.47314
#
# Compressibility (1/GPa) = 0.04697751
#
# Stress axis : x y z
#
# Youngs Moduli (GPa) = 35.54231 35.54231 261.23688
#
# Poissons Ratio (x) = 0.14580 0.32112
# Poissons Ratio (y) = 0.14580 0.32112
# Poissons Ratio (z) = 0.04369 0.04369
#
# Static dielectric constant tensor:
#      x y z
#    x 1.831920 0.000000 0.000000 
#    y 0.000000 1.831920 0.000000 
#    z 0.000000 0.000000 1.998770 
# 
# From -- ./inp_files/24.got.cif
#   From: 2010.05.17/outbox.cif.g08.bks.cpg/sg158_cif.got.tgz:24.got - 2010.05.20 10:49:59.
