data_PCOD9577404
_publ_section_title
;
Structure prediction by ZEFSAII (Michael W. Deem and Ramdas Pophale) SiO2 
 PCOD9577404
Probable space group: P 3 1 C
;
_chemical_formula_sum "Si O2"
_cell_formula_units_Z 48
_cell_length_a 17.243417
_cell_length_b 17.243417
_cell_length_c 9.185867
_cell_angle_alpha 90.000000
_cell_angle_beta 90.000000
_cell_angle_gamma 120.000000
_cell_volume 2365.361080
_symmetry_space_group_name_H-M "P 3 1 C"
_symmetry_group_IT_number 159
_symmetry_cell_setting 'hexagonal'
loop_
_space_group_symop_operation_xyz
x,y,z
-y,x-y,z
-x+y,-x,z
y,x,1/2+z
x-y,-y,1/2+z
-x,-x+y,1/2+z
loop_
_atom_site_type_symbol
_atom_site_label
_atom_site_fract_x
_atom_site_fract_y
_atom_site_fract_z
Si Si1 0.835489 0.390064 0.440890
Si Si2 0.252362 0.191021 0.041685
Si Si3 0.935744 0.334245 0.647865
Si Si4 0.909658 0.556010 0.064802
Si Si5 0.218343 0.732753 0.824302
Si Si6 0.161016 0.275400 0.870485
Si Si7 0.513533 0.984220 0.308834
Si Si8 0.244746 0.964230 0.414093
O O1 0.852062 0.334375 0.566698
O O2 0.808511 0.320995 0.307383
O O3 0.775698 0.437761 0.434647
O O4 0.930203 0.477313 0.412105
O O5 0.350269 0.274568 0.007294
O O6 0.248314 0.180614 0.214386
O O7 0.182302 0.219287 0.985716
O O8 0.250193 0.103205 0.977137
O O9 0.974420 0.426030 0.735055
O O10 0.920586 0.261550 0.770514
O O11 0.005096 0.331227 0.531608
O O12 0.823939 0.510653 0.170644
O O13 0.989084 0.574783 0.180032
O O14 0.908605 0.501711 0.922171
O O15 0.158773 0.775118 0.881087
O O16 0.059477 0.253962 0.875640
#
# Coordination Sequence:
#
# PCOD9577404 Si02
#       8
#     6   6   6   6   6   6   6   6
#     4  11  21  38  65  95 131 181 223 275 339 418
#     4  11  25  42  69  98 134 175 227 288 344 410
#     4  12  22  41  70  96 133 174 229 281 335 420
#     4  10  21  39  61  98 133 171 224 285 339 401
#     4  10  22  39  65  98 137 178 225 281 346 412
#     4  11  24  44  68  99 135 177 229 287 352 417
#     4  11  20  38  66  99 127 177 232 274 336 411
#     4  12  25  45  68 103 134 181 231 287 349 407
#
# _framework density 20.292884999999998
#
# number of rings (size 3 to 8) (size 9 to 14) (size 15 to 20)
#    0.000    1.000    5.000    2.500    3.500    0.000 
#    3.000    0.000    0.000    0.000    0.000    0.000 
#    0.000    0.000    0.000    0.000    0.000    0.000 
#
# Total GULP energy -267460.504694 kJ/mol
# GULP energy per Si atom -5572.093848 kJ/mol
# Density = 2.024670 g / cm^3
# Si number density = 20.292885 Si / 1000 Ang^3
#
#
#
# Elastic Constant Matrix: (Units=GPa)
#
#
# Indices 1 2 3 4 5 6 
#
# 1 77.3990 29.6414 22.4644 0.0000 2.2435 0.0000
# 2 29.6414 77.3990 22.4644 0.0000 -2.2435 0.0000
# 3 22.4644 22.4644 67.2816 0.0000 0.0000 0.0000
# 4 0.0000 0.0000 0.0000 26.7473 0.0000 -2.2435
# 5 2.2435 -2.2435 0.0000 0.0000 26.7473 0.0000
# 6 0.0000 0.0000 0.0000 -2.2435 0.0000 23.8788
#
#
#
# Elastic Compliance Matrix: (Units=1/GPa)
#
#
# Indices 1 2 3 4 5 6 
#
# 1 0.015985 -0.005120 -0.003628 0.000000 -0.001770 0.000000
# 2 -0.005120 0.015985 -0.003628 0.000000 0.001770 0.000000
# 3 -0.003628 -0.003628 0.017285 0.000000 0.000000 0.000000
# 4 0.000000 0.000000 0.000000 0.037684 0.000000 0.003541
# 5 -0.001770 0.001770 0.000000 0.000000 0.037684 0.000000
# 6 0.000000 0.000000 0.000000 0.003541 0.000000 0.042211
#
#
# Mechanical properties :
#
#
# Convention : Reuss Voigt Hill
#
# Bulk Modulus (GPa) = 40.80863 41.24664 41.02764
# Shear Modulus (GPa) = 25.03083 25.30864 25.16974
#
# Velocity S-wave (km/s) = 3.51590 3.53536 3.52564
# Velocity P-wave (km/s) = 6.05273 6.08562 6.06920
#
# Compressibility (1/GPa) = 0.02450462
#
# Stress axis : x y z
#
# Youngs Moduli (GPa) = 62.55797 62.55797 57.85246
#
# Poissons Ratio (x) = 0.32031 0.20987
# Poissons Ratio (y) = 0.32031 0.20987
# Poissons Ratio (z) = 0.22694 0.22694
#
# Static dielectric constant tensor:
#      x y z
#    x 1.753640 0.000000 0.000000 
#    y 0.000000 1.753640 0.000000 
#    z 0.000000 0.000000 1.770920 
# 
# From -- ./inp_files/499.got.cif
#   From: 2010.05.17/outbox.cif.g08.bks.cpg/sg159_cif.got.tgz:499.got - 2010.05.20 10:50:30.
