data_PCOD9577376
_publ_section_title
;
Structure prediction by ZEFSAII (Michael W. Deem and Ramdas Pophale) SiO2 
 PCOD9577376
Probable space group: P 3 1 C
;
_chemical_formula_sum "Si O2"
_cell_formula_units_Z 16
_cell_length_a 9.430138
_cell_length_b 9.430138
_cell_length_c 10.620074
_cell_angle_alpha 90.000000
_cell_angle_beta 90.000000
_cell_angle_gamma 120.000000
_cell_volume 817.888819
_symmetry_space_group_name_H-M "P 3 1 C"
_symmetry_group_IT_number 159
_symmetry_cell_setting 'hexagonal'
loop_
_space_group_symop_operation_xyz
x,y,z
-y,x-y,z
-x+y,-x,z
y,x,1/2+z
x-y,-y,1/2+z
-x,-x+y,1/2+z
loop_
_atom_site_type_symbol
_atom_site_label
_atom_site_fract_x
_atom_site_fract_y
_atom_site_fract_z
Si Si1 0.333334 0.666668 0.660077
Si Si2 0.591324 0.000001 0.261864
Si Si3 0.166315 0.705206 0.011865
Si Si4 0.666668 0.333336 0.863652
O O1 0.150449 0.574599 0.711618
O O2 0.333334 0.666667 0.511864
O O3 0.706829 0.074193 0.384984
O O4 0.632636 0.925807 0.138744
O O5 0.424150 0.849552 0.312110
O O6 0.168873 0.531178 0.011865
#
# Coordination Sequence:
#
# PCOD9577376 Si02
#       4
#     2   6   6   2
#     4  12  24  34  62  91 114 148 194 235 285 337
#     4  12  20  36  56  86 114 152 186 234 282 336
#     4  10  20  34  52  88 122 138 180 250 280 320
#     4  12  24  34  62  91 114 148 194 235 285 337
#
# _framework density 19.562560000000001
#
# number of rings (size 3 to 8) (size 9 to 14) (size 15 to 20)
#    0.750    0.000   11.250    0.000    0.000    0.000 
#    0.000    0.000    0.000    1.500    0.000    0.000 
#    0.000    0.000    0.000    0.000    0.000    0.000 
#
# Total GULP energy -89077.091175 kJ/mol
# GULP energy per Si atom -5567.318198 kJ/mol
# Density = 1.951803 g / cm^3
# Si number density = 19.562560 Si / 1000 Ang^3
#
#
#
# Elastic Constant Matrix: (Units=GPa)
#
#
# Indices 1 2 3 4 5 6 
#
# 1 40.3020 22.2633 11.2480 0.0001 0.0000 0.0009
# 2 22.2633 40.3045 11.2491 0.0000 0.0001 0.0013
# 3 11.2480 11.2491 189.6601 0.0000 0.0000 0.0009
# 4 0.0001 0.0000 0.0000 30.2859 -0.0001 0.0000
# 5 0.0000 0.0001 0.0000 -0.0001 30.2861 0.0000
# 6 0.0009 0.0013 0.0009 0.0000 0.0000 9.0202
#
#
#
# Elastic Compliance Matrix: (Units=1/GPa)
#
#
# Indices 1 2 3 4 5 6 
#
# 1 0.035883 -0.019551 -0.000969 0.000000 0.000000 -0.000001
# 2 -0.019551 0.035881 -0.000969 0.000000 0.000000 -0.000003
# 3 -0.000969 -0.000969 0.005387 0.000000 0.000000 0.000000
# 4 0.000000 0.000000 0.000000 0.033019 0.000000 0.000000
# 5 0.000000 0.000000 0.000000 0.000000 0.033018 0.000000
# 6 -0.000001 -0.000003 0.000000 0.000000 0.000000 0.110862
#
#
# Mechanical properties :
#
#
# Convention : Reuss Voigt Hill
#
# Bulk Modulus (GPa) = 29.26060 39.97636 34.61848
# Shear Modulus (GPa) = 16.21176 28.95219 22.58197
#
# Velocity S-wave (km/s) = 2.88186 3.85122 3.40125
# Velocity P-wave (km/s) = 5.10523 6.34471 5.75842
#
# Compressibility (1/GPa) = 0.03417565
#
# Stress axis : x y z
#
# Youngs Moduli (GPa) = 27.86839 27.87009 185.61542
#
# Poissons Ratio (x) = 0.54488 0.17977
# Poissons Ratio (y) = 0.54484 0.17980
# Poissons Ratio (z) = 0.02699 0.02700
#
# Static dielectric constant tensor:
#      x y z
#    x 1.684530 0.000000 0.000000 
#    y 0.000000 1.684530 0.000000 
#    z 0.000000 0.000000 1.780140 
# 
# From -- ./inp_files/557.got.cif
#   From: 2010.05.17/outbox.cif.g08.bks.cpg/sg159_cif.got.tgz:557.got - 2010.05.20 10:50:30.
