data_PCOD9577204
_publ_section_title
;
Structure prediction by ZEFSAII (Michael W. Deem and Ramdas Pophale) SiO2 
 PCOD9577204
Probable space group: P 3 M 1
;
_chemical_formula_sum "Si O2"
_cell_formula_units_Z 48
_cell_length_a 12.961032
_cell_length_b 12.961032
_cell_length_c 21.170281
_cell_angle_alpha 90.000000
_cell_angle_beta 90.000000
_cell_angle_gamma 120.000000
_cell_volume 3079.898612
_symmetry_space_group_name_H-M "P 3 M 1"
_symmetry_group_IT_number 156
_symmetry_cell_setting 'hexagonal'
loop_
_space_group_symop_operation_xyz
x,y,z
-y,x-y,z
-x+y,-x,z
-x+y,y,z
x,x-y,z
-y,-x,z
loop_
_atom_site_type_symbol
_atom_site_label
_atom_site_fract_x
_atom_site_fract_y
_atom_site_fract_z
Si Si1 0.333561 0.423879 0.091260
Si Si2 0.332612 0.419457 0.743030
Si Si3 0.332535 0.421943 0.604205
Si Si4 0.576951 0.910002 0.236666
Si Si5 0.911795 0.332947 0.349950
Si Si6 0.912258 0.332921 0.859527
Si Si7 0.755088 0.000262 0.977413
Si Si8 0.580812 0.667670 0.465428
O O1 0.228007 0.456013 0.087295
O O2 0.459760 0.540241 0.077624
O O3 0.334099 0.386769 0.163921
O O4 0.302047 0.320663 0.040934
O O5 0.210440 0.420880 0.754240
O O6 0.445062 0.554939 0.742759
O O7 0.324884 0.365234 0.672762
O O8 0.359403 0.351123 0.797561
O O9 0.225716 0.451432 0.604285
O O10 0.457279 0.542722 0.604016
O O11 0.324734 0.365061 0.535678
O O12 0.440215 0.880429 0.242321
O O13 0.584158 0.792079 0.249500
O O14 0.651329 0.012014 0.287026
O O15 0.887724 0.443862 0.351166
O O16 0.790431 0.209570 0.351093
O O17 0.993832 0.349157 0.410440
O O18 0.905789 0.452895 0.868304
O O19 0.781213 0.218788 0.852592
O O20 0.973678 0.308784 0.919406
O O21 0.759511 0.879756 0.966445
O O22 0.886816 0.113185 0.983243
O O23 0.576291 0.788146 0.454828
O O24 0.446410 0.553591 0.464829
#
# Coordination Sequence:
#
# PCOD9577204 Si02
#       8
#     6   6   6   6   6   6   6   6
#     4   9  17  30  49  73  98 121 144 174 218 270
#     4   9  16  27  45  69  95 119 143 175 219 271
#     4   8  13  22  39  65  94 118 139 169 216 271
#     4   9  17  30  50  74  96 116 141 179 226 271
#     4  10  20  32  45  61  86 121 157 189 219 257
#     4  10  20  33  48  65  88 119 154 191 228 267
#     4  10  20  33  49  68  91 120 154 191 227 263
#     4   9  16  27  46  71  94 114 140 180 229 274
#
# _framework density 15.584929000000001
#
# number of rings (size 3 to 8) (size 9 to 14) (size 15 to 20)
#    0.000    2.750    0.000    2.125    0.000    3.500 
#    0.000    1.875    0.000    6.500    0.000    1.750 
#    0.000    0.000    0.000    0.000    0.000    0.000 
#
# Total GULP energy -267291.914464 kJ/mol
# GULP energy per Si atom -5568.581551 kJ/mol
# Density = 1.554946 g / cm^3
# Si number density = 15.584929 Si / 1000 Ang^3
#
#
#
# Elastic Constant Matrix: (Units=GPa)
#
#
# Indices 1 2 3 4 5 6 
#
# 1 85.0490 53.9994 79.6473 0.3417 0.0001 0.0000
# 2 53.9994 85.0490 79.6473 -0.3417 -0.0001 0.0000
# 3 79.6473 79.6473 144.1500 0.0000 0.0000 0.0000
# 4 0.3417 -0.3417 0.0000 18.5462 0.0000 -0.0001
# 5 0.0001 -0.0001 0.0000 0.0000 18.5462 0.3417
# 6 0.0000 0.0000 0.0000 -0.0001 0.3417 15.5248
#
#
#
# Elastic Compliance Matrix: (Units=1/GPa)
#
#
# Indices 1 2 3 4 5 6 
#
# 1 0.025907 -0.006312 -0.010827 -0.000594 0.000000 0.000000
# 2 -0.006312 0.025907 -0.010827 0.000594 0.000000 0.000000
# 3 -0.010827 -0.010827 0.018902 0.000000 0.000000 0.000000
# 4 -0.000594 0.000594 0.000000 0.053941 0.000000 0.000000
# 5 0.000000 0.000000 0.000000 0.000000 0.053941 -0.001187
# 6 0.000000 0.000000 0.000000 0.000000 -0.001187 0.064439
#
#
# Mechanical properties :
#
#
# Convention : Reuss Voigt Hill
#
# Bulk Modulus (GPa) = 67.63974 82.31513 74.97744
# Shear Modulus (GPa) = 16.45289 17.25371 16.85330
#
# Velocity S-wave (km/s) = 3.25267 3.33089 3.29201
# Velocity P-wave (km/s) = 7.58956 8.22951 7.91601
#
# Compressibility (1/GPa) = 0.01478421
#
# Stress axis : x y z
#
# Youngs Moduli (GPa) = 38.59915 38.59915 52.90563
#
# Poissons Ratio (x) = 0.24365 0.57280
# Poissons Ratio (y) = 0.24365 0.57280
# Poissons Ratio (z) = 0.41791 0.41791
#
# Static dielectric constant tensor:
#      x y z
#    x 1.487030 0.000000 0.000000 
#    y 0.000000 1.487030 0.000000 
#    z 0.000000 0.000000 1.551640 
# 
# From -- ./inp_files/1122.got.cif
#   From: 2010.05.17/outbox.cif.g08.bks.cpg/sg156_cif.got.tgz:1122.got - 2010.05.20 10:49:08.
