data_PCOD9577210
_publ_section_title
;
Structure prediction by ZEFSAII (Michael W. Deem and Ramdas Pophale) SiO2 
 PCOD9577210
Probable space group: P 3 M 1
;
_chemical_formula_sum "Si O2"
_cell_formula_units_Z 48
_cell_length_a 12.959958
_cell_length_b 12.959958
_cell_length_c 20.753313
_cell_angle_alpha 90.000000
_cell_angle_beta 90.000000
_cell_angle_gamma 120.000000
_cell_volume 3018.736848
_symmetry_space_group_name_H-M "P 3 M 1"
_symmetry_group_IT_number 156
_symmetry_cell_setting 'hexagonal'
loop_
_space_group_symop_operation_xyz
x,y,z
-y,x-y,z
-x+y,-x,z
-x+y,y,z
x,x-y,z
-y,-x,z
loop_
_atom_site_type_symbol
_atom_site_label
_atom_site_fract_x
_atom_site_fract_y
_atom_site_fract_z
Si Si1 0.088079 0.421233 0.928840
Si Si2 0.332743 0.911174 0.549073
Si Si3 0.000415 0.244356 0.192975
Si Si4 0.000156 0.754810 0.428442
Si Si5 0.910226 0.333462 0.665418
Si Si6 0.999679 0.243312 0.044373
Si Si7 0.421893 0.088906 0.308029
Si Si8 0.422216 0.089114 0.813512
O O1 0.216977 0.433954 0.923924
O O2 0.098055 0.549028 0.932994
O O3 0.009837 0.355598 0.866024
O O4 0.025380 0.343885 0.992334
O O5 0.454709 0.909417 0.537241
O O6 0.221768 0.778233 0.555710
O O7 0.302861 0.972919 0.490282
O O8 0.351272 0.987266 0.613711
O O9 0.125355 0.250710 0.206717
O O10 0.000882 0.280642 0.118622
O O11 0.971857 0.320156 0.243092
O O12 0.892211 0.107790 0.198997
O O13 0.116658 0.883343 0.416788
O O14 0.883882 0.767764 0.438692
O O15 0.972687 0.667890 0.367644
O O16 0.878594 0.439297 0.660551
O O17 0.792891 0.207110 0.652767
O O18 0.949047 0.334192 0.739374
O O19 0.874685 0.125316 0.031892
O O20 0.107323 0.214645 0.038982
O O21 0.540187 0.080374 0.313783
O O22 0.452734 0.226367 0.306998
O O23 0.557282 0.114563 0.819695
O O24 0.418692 0.209346 0.824751
#
# Coordination Sequence:
#
# PCOD9577210 Si02
#       8
#     6   6   6   6   6   6   6   6
#     4  10  20  32  46  65  92 127 163 196 231 276
#     4  10  20  33  49  70  98 132 166 196 228 271
#     4   9  17  30  50  74  97 121 152 194 241 285
#     4  10  20  34  53  75  97 122 155 198 245 288
#     4   9  17  30  49  72  95 119 150 191 239 285
#     4   9  17  30  49  72  95 120 153 195 242 286
#     4  10  20  33  49  69  95 126 157 189 227 275
#     4   9  17  30  49  71  93 117 148 191 241 288
#
# _framework density 15.900690000000001
#
# number of rings (size 3 to 8) (size 9 to 14) (size 15 to 20)
#    0.000    2.500    0.000    2.500    0.000    3.000 
#    0.000    1.250    0.000    9.000    0.000    0.000 
#    0.000    0.000    0.000    0.000    0.000    0.000 
#
# Total GULP energy -267646.118698 kJ/mol
# GULP energy per Si atom -5575.960806 kJ/mol
# Density = 1.586450 g / cm^3
# Si number density = 15.900690 Si / 1000 Ang^3
#
#
#
# Elastic Constant Matrix: (Units=GPa)
#
#
# Indices 1 2 3 4 5 6 
#
# 1 108.8296 70.9175 81.6995 0.4202 0.0000 0.0000
# 2 70.9175 108.8296 81.6995 -0.4202 0.0000 0.0000
# 3 81.6995 81.6995 118.6850 0.0000 0.0000 0.0000
# 4 0.4202 -0.4202 0.0000 24.4062 0.0000 0.0000
# 5 0.0000 0.0000 0.0000 0.0000 24.4062 0.4202
# 6 0.0000 0.0000 0.0000 0.0000 0.4202 18.9560
#
#
#
# Elastic Compliance Matrix: (Units=1/GPa)
#
#
# Indices 1 2 3 4 5 6 
#
# 1 0.020626 -0.005760 -0.010233 -0.000454 0.000000 0.000000
# 2 -0.005760 0.020626 -0.010233 0.000454 0.000000 0.000000
# 3 -0.010233 -0.010233 0.022514 0.000000 0.000000 0.000000
# 4 -0.000454 0.000454 0.000000 0.040989 0.000000 0.000000
# 5 0.000000 0.000000 0.000000 0.000000 0.040989 -0.000909
# 6 0.000000 0.000000 0.000000 0.000000 -0.000909 0.052774
#
#
# Mechanical properties :
#
#
# Convention : Reuss Voigt Hill
#
# Bulk Modulus (GPa) = 88.39401 89.44190 88.91795
# Shear Modulus (GPa) = 19.62756 20.35554 19.99155
#
# Velocity S-wave (km/s) = 3.51719 3.58182 3.54966
# Velocity P-wave (km/s) = 8.49742 8.57195 8.53477
#
# Compressibility (1/GPa) = 0.01131298
#
# Stress axis : x y z
#
# Youngs Moduli (GPa) = 48.48145 48.48145 44.41612
#
# Poissons Ratio (x) = 0.27928 0.45452
# Poissons Ratio (y) = 0.27928 0.45452
# Poissons Ratio (z) = 0.49613 0.49613
#
# Static dielectric constant tensor:
#      x y z
#    x 1.501700 0.000000 0.000000 
#    y 0.000000 1.501700 0.000000 
#    z 0.000000 0.000000 1.530390 
# 
# From -- ./inp_files/1085.got.cif
#   From: 2010.05.17/outbox.cif.g08.bks.cpg/sg156_cif.got.tgz:1085.got - 2010.05.20 10:49:08.
