data_PCOD9577898
_publ_section_title
;
Structure prediction by ZEFSAII (Michael W. Deem and Ramdas Pophale) SiO2 
 PCOD9577898
Probable space group: P -3 1 M 
;
_chemical_formula_sum "Si O2"
_cell_formula_units_Z 44
_cell_length_a 13.513916
_cell_length_b 13.513916
_cell_length_c 15.600520
_cell_angle_alpha 90.000000
_cell_angle_beta 90.000000
_cell_angle_gamma 120.000000
_cell_volume 2467.357822
_symmetry_space_group_name_H-M "P -3 1 M "
_symmetry_group_IT_number 162
_symmetry_cell_setting 'hexagonal'
loop_
_space_group_symop_operation_xyz
x,y,z
-y,x-y,z
-x+y,-x,z
-y,-x,-z
-x+y,y,-z
x,x-y,-z
-x,-y,-z
y,-x+y,-z
x-y,x,-z
y,x,z
x-y,-y,z
-x,-x+y,z
loop_
_atom_site_type_symbol
_atom_site_label
_atom_site_fract_x
_atom_site_fract_y
_atom_site_fract_z
Si Si1 0.867063 0.575904 0.151886
Si Si2 0.666668 0.333334 0.602696
Si Si3 0.333335 0.666668 0.102697
Si Si4 0.575902 0.867063 0.348115
Si Si5 0.135838 0.271675 0.500000
Si Si6 0.728325 0.864162 0.000000
O O1 0.781692 0.443006 0.135212
O O2 0.853200 0.603497 0.250001
O O3 0.841867 0.648465 0.082720
O O4 0.000000 0.612999 0.140547
O O5 0.666668 0.333334 0.500000
O O6 0.556996 0.218309 0.635212
O O7 0.333334 0.666667 0.000000
O O8 0.648465 0.841870 0.417280
O O9 0.612995 0.000000 0.359453
O O10 0.194243 0.194243 0.510589
O O11 0.805757 0.805757 0.010587
#
# Coordination Sequence:
#
# PCOD9577898 Si02
#       6
#    12   4   4  12   6   6
#     4  10  22  39  58  84 118 153 192 237 284 340
#     4  12  22  38  64  88 116 154 193 233 289 346
#     4  12  22  38  64  88 116 154 193 233 289 346
#     4  10  22  39  58  84 118 153 192 237 284 340
#     4  10  21  38  60  86 117 152 194 240 288 340
#     4  10  21  38  60  86 117 152 194 240 288 340
#
# _framework density 17.832840000000001
#
# number of rings (size 3 to 8) (size 9 to 14) (size 15 to 20)
#    0.000    1.636    2.727    1.909    0.000    4.364 
#    0.000    0.000    0.000    3.273    0.000    0.000 
#    0.000    0.000    0.000    0.000    0.000    0.000 
#
# Total GULP energy -245686.310501 kJ/mol
# GULP energy per Si atom -5583.779784 kJ/mol
# Density = 1.779225 g / cm^3
# Si number density = 17.832840 Si / 1000 Ang^3
#
#
#
# Elastic Constant Matrix: (Units=GPa)
#
#
# Indices 1 2 3 4 5 6 
#
# 1 98.0776 63.4479 65.2661 -0.0003 0.0000 -0.0001
# 2 63.4479 98.0775 65.2661 0.0005 0.0002 0.0000
# 3 65.2661 65.2661 158.7818 -0.0002 0.0000 0.0000
# 4 -0.0003 0.0005 -0.0002 26.4976 0.0000 0.0004
# 5 0.0000 0.0002 0.0000 0.0000 26.4977 0.0004
# 6 -0.0001 0.0000 0.0000 0.0004 0.0004 17.3148
#
#
#
# Elastic Compliance Matrix: (Units=1/GPa)
#
#
# Indices 1 2 3 4 5 6 
#
# 1 0.019074 -0.009803 -0.003810 0.000000 0.000000 0.000000
# 2 -0.009803 0.019074 -0.003810 0.000000 0.000000 0.000000
# 3 -0.003810 -0.003810 0.009430 0.000000 0.000000 0.000000
# 4 0.000000 0.000000 0.000000 0.037739 0.000000 -0.000001
# 5 0.000000 0.000000 0.000000 0.000000 0.037739 -0.000001
# 6 0.000000 0.000000 0.000000 -0.000001 -0.000001 0.057754
#
#
# Mechanical properties :
#
#
# Convention : Reuss Voigt Hill
#
# Bulk Modulus (GPa) = 78.55982 82.54413 80.55197
# Shear Modulus (GPa) = 22.73743 24.79249 23.76496
#
# Velocity S-wave (km/s) = 3.57463 3.73268 3.65451
# Velocity P-wave (km/s) = 7.82217 8.06011 7.94203
#
# Compressibility (1/GPa) = 0.01272915
#
# Stress axis : x y z
#
# Youngs Moduli (GPa) = 52.42840 52.42833 106.03894
#
# Poissons Ratio (x) = 0.51397 0.40406
# Poissons Ratio (y) = 0.51397 0.40406
# Poissons Ratio (z) = 0.19978 0.19978
#
# Static dielectric constant tensor:
#      x y z
#    x 1.582110 0.000000 0.000000 
#    y 0.000000 1.582110 0.000000 
#    z 0.000000 0.000000 1.611050 
# 
# From -- ./inp_files/3403.got.cif
#   From: 2010.05.17/outbox.cif.g08.bks.cpg/sg162_2_cif.got.tgz:3403.got - 2010.05.20 10:53:12.
