data_PCOD9577819
_publ_section_title
;
Structure prediction by ZEFSAII (Michael W. Deem and Ramdas Pophale) SiO2 
 PCOD9577819
Probable space group: P -3 1 M 
;
_chemical_formula_sum "Si O2"
_cell_formula_units_Z 68
_cell_length_a 13.078818
_cell_length_b 13.078818
_cell_length_c 26.472528
_cell_angle_alpha 90.000000
_cell_angle_beta 90.000000
_cell_angle_gamma 120.000000
_cell_volume 3921.597714
_symmetry_space_group_name_H-M "P -3 1 M "
_symmetry_group_IT_number 162
_symmetry_cell_setting 'hexagonal'
loop_
_space_group_symop_operation_xyz
x,y,z
-y,x-y,z
-x+y,-x,z
-y,-x,-z
-x+y,y,-z
x,x-y,-z
-x,-y,-z
y,-x+y,-z
x-y,x,-z
y,x,z
x-y,-y,z
-x,-x+y,z
loop_
_atom_site_type_symbol
_atom_site_label
_atom_site_fract_x
_atom_site_fract_y
_atom_site_fract_z
Si Si1 0.333334 0.666667 0.795141
Si Si2 0.293470 0.431320 0.953933
Si Si3 0.863525 0.137995 0.139489
Si Si4 0.585371 0.724931 0.237038
Si Si5 0.333334 0.666667 0.916573
Si Si6 0.716625 0.858236 0.665429
Si Si7 0.717652 0.858918 0.554227
O O1 0.334159 0.551736 0.774974
O O2 0.333334 0.666667 0.856112
O O3 0.379330 0.379330 0.965039
O O4 0.213559 0.360605 0.905810
O O5 0.361318 0.568329 0.937988
O O6 0.207000 0.413999 0.000000
O O7 0.838853 0.183657 0.191850
O O8 0.000000 0.170885 0.140857
O O9 0.778322 0.000000 0.132332
O O10 0.631069 0.631069 0.236874
O O11 0.624342 0.794317 0.289860
O O12 0.788260 0.788260 0.671779
O O13 0.658358 0.830083 0.609376
O O14 0.807661 0.000000 0.667775
O O15 0.651295 0.825648 0.500000
O O16 0.799279 0.799279 0.554764
O O17 0.799742 0.000000 0.553423
#
# Coordination Sequence:
#
# PCOD9577819 Si02
#       7
#     4  12  12  12   4  12  12
#     4  12  24  43  61  81 106 139 171 220 275 316
#     4  11  24  42  62  88 117 146 181 219 263 316
#     4  10  20  35  56  82 112 145 180 217 260 310
#     4  10  22  38  55  78 105 136 178 222 269 324
#     4  12  25  43  63  87 111 142 181 226 272 319
#     4   9  16  27  45  73 108 145 183 223 267 317
#     4   8  12  18  32  59  98 141 180 217 260 311
#
# _framework density 17.339872
#
# number of rings (size 3 to 8) (size 9 to 14) (size 15 to 20)
#    0.000    2.118    1.765    2.118    0.000    5.647 
#    0.000    1.765    0.000    2.824    0.000    1.235 
#    0.000    7.059    0.000    0.000    0.000    0.000 
#
# Total GULP energy -379101.677876 kJ/mol
# GULP energy per Si atom -5575.024675 kJ/mol
# Density = 1.730041 g / cm^3
# Si number density = 17.339872 Si / 1000 Ang^3
#
#
#
# Elastic Constant Matrix: (Units=GPa)
#
#
# Indices 1 2 3 4 5 6 
#
# 1 56.6792 28.6964 29.4832 0.0001 -2.7823 0.0002
# 2 28.6964 56.6797 29.4833 0.0000 2.7824 0.0003
# 3 29.4832 29.4833 158.3978 0.0001 0.0001 0.0001
# 4 0.0001 0.0000 0.0001 18.8418 0.0000 2.7823
# 5 -2.7823 2.7824 0.0001 0.0000 18.8418 0.0000
# 6 0.0002 0.0003 0.0001 2.7823 0.0000 13.9916
#
#
#
# Elastic Compliance Matrix: (Units=1/GPa)
#
#
# Indices 1 2 3 4 5 6 
#
# 1 0.025129 -0.011688 -0.002502 0.000000 0.005437 0.000000
# 2 -0.011688 0.025129 -0.002502 0.000000 -0.005437 0.000000
# 3 -0.002502 -0.002502 0.007245 0.000000 0.000000 0.000000
# 4 0.000000 0.000000 0.000000 0.054679 0.000000 -0.010873
# 5 0.005437 -0.005437 0.000000 0.000000 0.054679 0.000000
# 6 0.000000 0.000000 0.000000 -0.010873 0.000000 0.073634
#
#
# Mechanical properties :
#
#
# Convention : Reuss Voigt Hill
#
# Bulk Modulus (GPa) = 41.46107 49.67585 45.56846
# Shear Modulus (GPa) = 17.73568 22.60796 20.17182
#
# Velocity S-wave (km/s) = 3.20164 3.61475 3.41445
# Velocity P-wave (km/s) = 6.13433 6.79209 6.47157
#
# Compressibility (1/GPa) = 0.02411901
#
# Stress axis : x y z
#
# Youngs Moduli (GPa) = 39.79458 39.79495 138.03459
#
# Poissons Ratio (x) = 0.46513 0.34534
# Poissons Ratio (y) = 0.46512 0.34533
# Poissons Ratio (z) = 0.09956 0.09956
#
# Static dielectric constant tensor:
#      x y z
#    x 1.565780 0.000000 0.000000 
#    y 0.000000 1.565780 0.000000 
#    z 0.000000 0.000000 1.633110 
# 
# From -- ./inp_files/4095.got.cif
#   From: 2010.05.17/outbox.cif.g08.bks.cpg/sg162_3_cif.got.tgz:4095.got - 2010.05.20 10:53:12.
