data_PCOD9577325
_publ_section_title
;
Structure prediction by ZEFSAII (Michael W. Deem and Ramdas Pophale) SiO2 
 PCOD9577325
Probable space group: P 3 C 1
;
_chemical_formula_sum "Si O2"
_cell_formula_units_Z 24
_cell_length_a 8.867697
_cell_length_b 8.867697
_cell_length_c 18.658798
_cell_angle_alpha 90.000000
_cell_angle_beta 90.000000
_cell_angle_gamma 120.000000
_cell_volume 1270.679389
_symmetry_space_group_name_H-M "P 3 C 1"
_symmetry_group_IT_number 158
_symmetry_cell_setting 'hexagonal'
loop_
_space_group_symop_operation_xyz
x,y,z
-y,x-y,z
-x+y,-x,z
-x+y,y,1/2+z
x,x-y,1/2+z
-y,-x,1/2+z
loop_
_atom_site_type_symbol
_atom_site_label
_atom_site_fract_x
_atom_site_fract_y
_atom_site_fract_z
Si Si1 0.869404 0.340483 0.555900
Si Si2 0.797265 0.992854 0.934672
Si Si3 0.993857 0.342662 0.716073
Si Si4 0.317862 0.327189 0.774498
O O1 0.825969 0.497493 0.550497
O O2 0.954299 0.354835 0.633012
O O3 0.984050 0.317385 0.495285
O O4 0.840696 0.835841 0.940076
O O5 0.712375 0.978506 0.857559
O O6 0.833328 0.166671 0.745285
O O7 0.004459 0.502731 0.760002
O O8 0.168386 0.337775 0.730570
#
# Coordination Sequence:
#
# PCOD9577325 Si02
#       4
#     6   6   6   6
#     4  10  23  41  63 101 132 179 226 272 350 405
#     4  10  23  41  63 101 132 179 226 272 350 405
#     4  12  24  44  68  99 139 183 234 287 338 413
#     4  12  24  44  68  99 139 183 234 287 338 413
#
# _framework density 18.887532
#
# number of rings (size 3 to 8) (size 9 to 14) (size 15 to 20)
#    1.000    0.000    5.000    1.500    7.000    0.000 
#    0.000    0.000    0.000    1.000    0.000    0.000 
#    0.000    0.000    0.000    0.000    0.000    0.000 
#
# Total GULP energy -133879.487848 kJ/mol
# GULP energy per Si atom -5578.311994 kJ/mol
# Density = 1.884454 g / cm^3
# Si number density = 18.887532 Si / 1000 Ang^3
#
#
#
# Elastic Constant Matrix: (Units=GPa)
#
#
# Indices 1 2 3 4 5 6 
#
# 1 110.0740 35.4337 20.0536 4.8375 0.0000 0.0000
# 2 35.4337 110.0740 20.0536 -4.8375 0.0000 0.0000
# 3 20.0536 20.0536 119.6066 0.0000 0.0000 0.0000
# 4 4.8375 -4.8375 0.0000 37.2632 0.0000 0.0000
# 5 0.0000 0.0000 0.0000 0.0000 37.2632 4.8375
# 6 0.0000 0.0000 0.0000 0.0000 4.8375 37.3202
#
#
#
# Elastic Compliance Matrix: (Units=1/GPa)
#
#
# Indices 1 2 3 4 5 6 
#
# 1 0.010416 -0.003211 -0.001208 -0.001769 0.000000 0.000000
# 2 -0.003211 0.010416 -0.001208 0.001769 0.000000 0.000000
# 3 -0.001208 -0.001208 0.008766 0.000000 0.000000 0.000000
# 4 -0.001769 0.001769 0.000000 0.027295 0.000000 0.000000
# 5 0.000000 0.000000 0.000000 0.000000 0.027295 -0.003538
# 6 0.000000 0.000000 0.000000 0.000000 -0.003538 0.027254
#
#
# Mechanical properties :
#
#
# Convention : Reuss Voigt Hill
#
# Bulk Modulus (GPa) = 54.51244 54.53739 54.52491
# Shear Modulus (GPa) = 38.81642 39.98357 39.39999
#
# Velocity S-wave (km/s) = 4.53828 4.60600 4.57226
# Velocity P-wave (km/s) = 7.50903 7.56469 7.53691
#
# Compressibility (1/GPa) = 0.01834444
#
# Stress axis : x y z
#
# Youngs Moduli (GPa) = 96.00442 96.00442 114.07907
#
# Poissons Ratio (x) = 0.30824 0.13782
# Poissons Ratio (y) = 0.30824 0.13782
# Poissons Ratio (z) = 0.11598 0.11598
#
# Static dielectric constant tensor:
#      x y z
#    x 1.030000 0.000000 0.000000 
#    y 0.000000 1.030000 0.000000 
#    z 0.000000 0.000000 1.628220 
# 
# From -- ./inp_files/584.got.cif
#   From: 2010.05.17/outbox.cif.g08.bks.cpg/sg158_cif.got.tgz:584.got - 2010.05.20 10:49:59.
