data_PCOD9577835
_publ_section_title
;
Structure prediction by ZEFSAII (Michael W. Deem and Ramdas Pophale) SiO2 
 PCOD9577835
Probable space group: P -3 1 M 
;
_chemical_formula_sum "Si O2"
_cell_formula_units_Z 48
_cell_length_a 13.961913
_cell_length_b 13.961913
_cell_length_c 13.048074
_cell_angle_alpha 90.000000
_cell_angle_beta 90.000000
_cell_angle_gamma 120.000000
_cell_volume 2202.758561
_symmetry_space_group_name_H-M "P -3 1 M "
_symmetry_group_IT_number 162
_symmetry_cell_setting 'hexagonal'
loop_
_space_group_symop_operation_xyz
x,y,z
-y,x-y,z
-x+y,-x,z
-y,-x,-z
-x+y,y,-z
x,x-y,-z
-x,-y,-z
y,-x+y,-z
x-y,x,-z
y,x,z
x-y,-y,z
-x,-x+y,z
loop_
_atom_site_type_symbol
_atom_site_label
_atom_site_fract_x
_atom_site_fract_y
_atom_site_fract_z
Si Si1 0.410817 0.288927 0.926051
Si Si2 0.288927 0.410817 0.573949
Si Si3 0.876467 0.127995 0.250001
Si Si4 0.433702 0.806115 0.750000
O O1 0.348110 0.348110 0.975567
O O2 0.323550 0.194801 0.848614
O O3 0.507506 0.376952 0.852648
O O4 0.451708 0.225854 0.000000
O O5 0.225855 0.451709 0.500000
O O6 0.348110 0.348110 0.524432
O O7 0.194802 0.323550 0.651384
O O8 0.376953 0.507506 0.647352
O O9 0.000000 0.146310 0.250001
O O10 0.786247 0.000000 0.250001
O O11 0.302739 0.751509 0.750000
#
# Coordination Sequence:
#
# PCOD9577835 Si02
#       4
#    12  12  12  12
#     4  10  20  36  57  84 114 146 185 233 284 341
#     4  10  20  36  57  84 114 146 185 233 284 341
#     4   9  17  30  49  75 110 148 184 222 270 330
#     4   9  21  40  59  75 109 150 185 232 286 326
#
# _framework density 21.790859000000001
#
# number of rings (size 3 to 8) (size 9 to 14) (size 15 to 20)
#    0.500    2.000    0.000    4.000    0.000    2.000 
#    0.000   17.500    0.000    8.000    0.000    0.000 
#    0.000    0.000    0.000    0.000    0.000    0.000 
#
# Total GULP energy -267788.348525 kJ/mol
# GULP energy per Si atom -5578.923928 kJ/mol
# Density = 2.174126 g / cm^3
# Si number density = 21.790859 Si / 1000 Ang^3
#
#
#
# Elastic Constant Matrix: (Units=GPa)
#
#
# Indices 1 2 3 4 5 6 
#
# 1 64.7349 -3.9341 -5.3493 -0.0002 0.0004 0.0000
# 2 -3.9341 64.7349 -5.3493 0.0002 -0.0004 0.0000
# 3 -5.3493 -5.3493 47.6350 0.0000 0.0000 0.0000
# 4 -0.0002 0.0002 0.0000 7.7578 0.0000 -0.0004
# 5 0.0004 -0.0004 0.0000 0.0000 7.7578 -0.0002
# 6 0.0000 0.0000 0.0000 -0.0004 -0.0002 34.3345
#
#
#
# Elastic Compliance Matrix: (Units=1/GPa)
#
#
# Indices 1 2 3 4 5 6 
#
# 1 0.015671 0.001108 0.001884 0.000000 -0.000001 0.000000
# 2 0.001108 0.015671 0.001884 0.000000 0.000001 0.000000
# 3 0.001884 0.001884 0.021416 0.000000 0.000000 0.000000
# 4 0.000000 0.000000 0.000000 0.128903 0.000000 0.000002
# 5 -0.000001 0.000001 0.000000 0.000000 0.128903 0.000001
# 6 0.000000 0.000000 0.000000 0.000002 0.000001 0.029125
#
#
# Mechanical properties :
#
#
# Convention : Reuss Voigt Hill
#
# Bulk Modulus (GPa) = 15.99733 16.42659 16.21196
# Shear Modulus (GPa) = 14.25428 22.75252 18.50340
#
# Velocity S-wave (km/s) = 2.56039 3.23481 2.91715
# Velocity P-wave (km/s) = 4.01224 4.63752 4.33617
#
# Compressibility (1/GPa) = 0.06251044
#
# Stress axis : x y z
#
# Youngs Moduli (GPa) = 63.81352 63.81352 46.69376
#
# Poissons Ratio (x) = -0.07071 -0.08798
# Poissons Ratio (y) = -0.07071 -0.08798
# Poissons Ratio (z) = -0.12024 -0.12024
#
# Static dielectric constant tensor:
#      x y z
#    x 1.763260 0.000000 0.000000 
#    y 0.000000 1.763260 0.000000 
#    z 0.000000 0.000000 1.806090 
# 
# From -- ./inp_files/2066.got.cif
#   From: 2010.05.17/outbox.cif.g08.bks.cpg/sg162_2_cif.got.tgz:2066.got - 2010.05.20 10:53:12.
