data_PCOD9577054
_publ_section_title
;
Structure prediction by ZEFSAII (Michael W. Deem and Ramdas Pophale) SiO2 
 PCOD9577054
Probable space group: R 3 2
;
_chemical_formula_sum "Si O2"
_cell_formula_units_Z 54
_cell_length_a 17.703547
_cell_length_b 17.703547
_cell_length_c 8.469634
_cell_angle_alpha 90.000000
_cell_angle_beta 90.000000
_cell_angle_gamma 120.000000
_cell_volume 2298.877617
_symmetry_space_group_name_H-M "R 3 2"
_symmetry_group_IT_number 155
_symmetry_cell_setting 'hexagonal'
loop_
_space_group_symop_operation_xyz
x,y,z
-y,x-y,z
-x+y,-x,z
x-y,-y,-z
-x,-x+y,-z
y,x,-z
2/3+x,1/3+y,1/3+z
2/3-y,1/3+x-y,1/3+z
2/3-x+y,1/3-x,1/3+z
2/3+x-y,1/3-y,1/3-z
2/3-x,1/3-x+y,1/3-z
2/3+y,1/3+x,1/3-z
1/3+x,2/3+y,2/3+z
1/3-y,2/3+x-y,2/3+z
1/3-x+y,2/3-x,2/3+z
1/3+x-y,2/3-y,2/3-z
1/3-x,2/3-x+y,2/3-z
1/3+y,2/3+x,2/3-z
loop_
_atom_site_type_symbol
_atom_site_label
_atom_site_fract_x
_atom_site_fract_y
_atom_site_fract_z
Si Si1 0.854023 0.238092 0.515936
Si Si2 0.941948 0.154682 0.342650
Si Si3 0.560651 0.886089 0.844960
O O1 0.913370 0.246703 0.666667
O O2 0.895536 0.212505 0.374109
O O3 0.851769 0.326627 0.527293
O O4 0.759531 0.157466 0.554676
O O5 0.860686 0.061671 0.296311
O O6 0.000000 0.163779 0.500000
O O7 0.525948 0.859282 0.666667
O O8 0.666667 0.945717 0.833334
#
# Coordination Sequence:
#
# PCOD9577054 Si02
#       3
#    18  18  18
#     4  10  23  44  71 104 145 193 247 314 381 459
#     4  10  24  44  70 106 146 197 252 319 382 463
#     4  12  24  44  74 107 148 199 259 317 387 470
#
# _framework density 23.489723000000001
#
# number of rings (size 3 to 8) (size 9 to 14) (size 15 to 20)
#    0.000    1.333    3.333    1.000    0.000   12.000 
#    2.000    0.000    0.000    0.000    0.000    0.000 
#    0.000    0.000    0.000    0.000    0.000    0.000 
#
# Total GULP energy -100433.832443 kJ/mol
# GULP energy per Si atom -5579.657358 kJ/mol
# Density = 2.343626 g / cm^3
# Si number density = 23.489723 Si / 1000 Ang^3
#
#
#
# Elastic Constant Matrix: (Units=GPa)
#
#
# Indices 1 2 3 4 5 6 
#
# 1 130.6750 65.0052 41.4437 -6.5103 0.0000 0.0000
# 2 65.0052 130.6749 41.4436 6.5103 0.0001 0.0000
# 3 41.4437 41.4436 97.2419 0.0002 0.0004 0.0002
# 4 -6.5103 6.5103 0.0002 37.3160 0.0001 0.0001
# 5 0.0000 0.0001 0.0004 0.0001 37.3161 -6.5103
# 6 0.0000 0.0000 0.0002 0.0001 -6.5103 32.8349
#
#
#
# Elastic Compliance Matrix: (Units=1/GPa)
#
#
# Indices 1 2 3 4 5 6 
#
# 1 0.011005 -0.004769 -0.002658 0.002752 0.000000 0.000000
# 2 -0.004769 0.011005 -0.002658 -0.002752 0.000000 0.000000
# 3 -0.002658 -0.002658 0.012549 0.000000 0.000000 0.000000
# 4 0.002752 -0.002752 0.000000 0.027758 0.000000 0.000000
# 5 0.000000 0.000000 0.000000 0.000000 0.027758 0.005504
# 6 0.000000 0.000000 0.000000 0.000000 0.005504 0.031547
#
#
# Mechanical properties :
#
#
# Convention : Reuss Voigt Hill
#
# Bulk Modulus (GPa) = 69.49151 72.70852 71.10002
# Shear Modulus (GPa) = 34.10942 35.54001 34.82472
#
# Velocity S-wave (km/s) = 3.81478 3.89395 3.85457
# Velocity P-wave (km/s) = 7.00367 7.15805 7.08128
#
# Compressibility (1/GPa) = 0.01439025
#
# Stress axis : x y z
#
# Youngs Moduli (GPa) = 90.86975 90.86981 79.68697
#
# Poissons Ratio (x) = 0.43332 0.21179
# Poissons Ratio (y) = 0.43332 0.21179
# Poissons Ratio (z) = 0.24152 0.24151
#
# Static dielectric constant tensor:
#      x y z
#    x 1.935640 0.000000 0.000000 
#    y 0.000000 1.935640 0.000000 
#    z 0.000000 0.000000 2.146460 
# 
# From -- ./inp_files/1650.got.cif
#   From: 2010.05.17/outbox.cif.g08.bks.cpg/sg155_1_cif.got.tgz:1650.got - 2010.05.20 10:44:35.
