data_PCOD9577783
_publ_section_title
;
Structure prediction by ZEFSAII (Michael W. Deem and Ramdas Pophale) SiO2 
 PCOD9577783
Probable space group: P -3 1 M 
;
_chemical_formula_sum "Si O2"
_cell_formula_units_Z 76
_cell_length_a 18.303477
_cell_length_b 18.303477
_cell_length_c 15.402525
_cell_angle_alpha 90.000000
_cell_angle_beta 90.000000
_cell_angle_gamma 120.000000
_cell_volume 4468.787975
_symmetry_space_group_name_H-M "P -3 1 M "
_symmetry_group_IT_number 162
_symmetry_cell_setting 'hexagonal'
loop_
_space_group_symop_operation_xyz
x,y,z
-y,x-y,z
-x+y,-x,z
-y,-x,-z
-x+y,y,-z
x,x-y,-z
-x,-y,-z
y,-x+y,-z
x-y,x,-z
y,x,z
x-y,-y,z
-x,-x+y,z
loop_
_atom_site_type_symbol
_atom_site_label
_atom_site_fract_x
_atom_site_fract_y
_atom_site_fract_z
Si Si1 0.100346 0.361448 0.004290
Si Si2 0.900597 0.640489 0.500056
Si Si3 0.333334 0.666667 0.103746
Si Si4 0.826793 0.494866 0.850840
Si Si5 0.535368 0.635456 0.335894
Si Si6 0.102069 0.631373 0.348946
Si Si7 0.528144 0.629289 0.847463
O O1 0.132631 0.426510 0.084681
O O2 0.000000 0.298050 0.009452
O O3 0.160356 0.320711 0.000000
O O4 0.119207 0.419962 0.919005
O O5 0.839696 0.679392 0.500000
O O6 0.890222 0.589127 0.588468
O O7 0.870925 0.572811 0.421586
O O8 0.000000 0.706582 0.489911
O O9 0.272042 0.571274 0.135594
O O10 0.333334 0.666667 0.000000
O O11 0.849582 0.525205 0.752086
O O12 0.867418 0.435742 0.871273
O O13 0.581993 0.581993 0.313517
O O14 0.441408 0.566470 0.367484
O O15 0.130069 0.662178 0.250591
O O16 0.000000 0.582961 0.351116
O O17 0.573450 0.573450 0.843226
#
# Coordination Sequence:
#
# PCOD9577783 Si02
#       7
#    12  12   4  12  12  12  12
#     4  11  22  35  52  73  97 125 161 206 251 296
#     4  10  20  33  51  73  97 127 165 210 255 300
#     4  12  24  33  45  69 106 149 184 207 234 279
#     4  11  20  33  49  71 105 139 169 202 239 277
#     4   9  18  32  51  74  97 126 166 205 246 297
#     4   8  15  30  50  71  95 124 158 197 240 285
#     4   9  17  30  51  75  98 130 169 201 236 288
#
# _framework density 17.006848000000002
#
# number of rings (size 3 to 8) (size 9 to 14) (size 15 to 20)
#    0.000    2.211    0.000    5.684    0.000    6.947 
#    0.000    0.000    0.000    2.842    0.000    0.000 
#    0.000    0.000    0.000   11.526    0.000    0.000 
#
# Total GULP energy -424092.212218 kJ/mol
# GULP energy per Si atom -5580.160687 kJ/mol
# Density = 1.696814 g / cm^3
# Si number density = 17.006848 Si / 1000 Ang^3
#
#
#
# Elastic Constant Matrix: (Units=GPa)
#
#
# Indices 1 2 3 4 5 6 
#
# 1 89.4021 41.6370 38.2863 -0.0001 0.0813 0.0001
# 2 41.6370 89.4021 38.2863 0.0000 -0.0813 0.0000
# 3 38.2863 38.2863 70.7684 0.0000 0.0000 0.0000
# 4 -0.0001 0.0000 0.0000 3.8098 0.0001 -0.0813
# 5 0.0813 -0.0813 0.0000 0.0001 3.8098 0.0001
# 6 0.0001 0.0000 0.0000 -0.0813 0.0001 23.8826
#
#
#
# Elastic Compliance Matrix: (Units=1/GPa)
#
#
# Indices 1 2 3 4 5 6 
#
# 1 0.016048 -0.004889 -0.006037 0.000001 -0.000447 0.000000
# 2 -0.004889 0.016048 -0.006037 0.000000 0.000447 0.000000
# 3 -0.006037 -0.006037 0.020663 0.000000 0.000000 0.000000
# 4 0.000001 0.000000 0.000000 0.262503 -0.000008 0.000893
# 5 -0.000447 0.000447 0.000000 -0.000008 0.262499 -0.000001
# 6 0.000000 0.000000 0.000000 0.000893 -0.000001 0.041875
#
#
# Mechanical properties :
#
#
# Convention : Reuss Voigt Hill
#
# Bulk Modulus (GPa) = 53.09979 53.99908 53.54944
# Shear Modulus (GPa) = 7.57759 15.05797 11.31778
#
# Velocity S-wave (km/s) = 2.11312 2.97881 2.58250
# Velocity P-wave (km/s) = 6.10279 6.60692 6.35985
#
# Compressibility (1/GPa) = 0.01883247
#
# Stress axis : x y z
#
# Youngs Moduli (GPa) = 62.31221 62.31224 48.39590
#
# Poissons Ratio (x) = 0.30465 0.29217
# Poissons Ratio (y) = 0.30465 0.29217
# Poissons Ratio (z) = 0.37619 0.37619
#
# Static dielectric constant tensor:
#      x y z
#    x 1.586160 0.000000 0.000000 
#    y 0.000000 1.586160 0.000000 
#    z 0.000000 0.000000 1.584580 
# 
# From -- ./inp_files/3123.got.cif
#   From: 2010.05.17/outbox.cif.g08.bks.cpg/sg162_2_cif.got.tgz:3123.got - 2010.05.20 10:53:12.
