data_PCOD9577714
_publ_section_title
;
Structure prediction by ZEFSAII (Michael W. Deem and Ramdas Pophale) SiO2 
 PCOD9577714
Probable space group: P -3 1 M 
;
_chemical_formula_sum "Si O2"
_cell_formula_units_Z 80
_cell_length_a 18.383308
_cell_length_b 18.383308
_cell_length_c 19.115909
_cell_angle_alpha 90.000000
_cell_angle_beta 90.000000
_cell_angle_gamma 120.000000
_cell_volume 5594.649883
_symmetry_space_group_name_H-M "P -3 1 M "
_symmetry_group_IT_number 162
_symmetry_cell_setting 'hexagonal'
loop_
_space_group_symop_operation_xyz
x,y,z
-y,x-y,z
-x+y,-x,z
-y,-x,-z
-x+y,y,-z
x,x-y,-z
-x,-y,-z
y,-x+y,-z
x-y,x,-z
y,x,z
x-y,-y,z
-x,-x+y,z
loop_
_atom_site_type_symbol
_atom_site_label
_atom_site_fract_x
_atom_site_fract_y
_atom_site_fract_z
Si Si1 0.523934 0.759504 0.420466
Si Si2 0.518437 0.613582 0.666258
Si Si3 0.666668 0.333334 0.224589
Si Si4 0.274449 0.478502 0.826521
Si Si5 0.664134 0.570137 0.826709
Si Si6 0.656644 0.099237 0.686755
Si Si7 0.575130 0.477513 0.077038
Si Si8 0.666668 0.333334 0.606250
O O1 0.553917 0.776959 0.500000
O O2 0.525863 0.838538 0.382334
O O3 0.570327 0.722972 0.373236
O O4 0.424974 0.690044 0.419824
O O5 0.575231 0.575231 0.639879
O O6 0.548077 0.647707 0.744558
O O7 0.424400 0.535280 0.674560
O O8 0.706325 0.428549 0.197443
O O9 0.666668 0.333334 0.308980
O O10 0.175874 0.423394 0.842650
O O11 0.303647 0.443796 0.761348
O O12 0.333496 0.489868 0.891740
O O13 0.646665 0.646665 0.840630
O O14 0.592997 0.491516 0.870301
O O15 0.621752 0.000000 0.685446
O O16 0.549905 0.549905 0.074031
O O17 0.561380 0.438621 0.000000
#
# Coordination Sequence:
#
# PCOD9577714 Si02
#       8
#    12  12   4  12  12  12  12   4
#     4  12  22  32  46  65  92 123 156 201 241 278
#     4  10  19  33  49  65  87 121 159 194 239 289
#     4  12  18  28  50  70  81 118 164 208 228 268
#     4  12  18  32  50  69  92 122 164 205 242 277
#     4  10  19  32  49  67  90 123 161 200 241 287
#     4  11  21  32  49  69  89 117 159 201 240 287
#     4  10  21  34  47  69 101 129 158 201 248 283
#     4  12  19  31  42  64  88 115 158 193 235 280
#
# _framework density 14.299376000000001
#
# number of rings (size 3 to 8) (size 9 to 14) (size 15 to 20)
#    0.000    1.050    7.500    0.900    0.000    1.200 
#    0.000    1.500    0.000    0.000    0.000    0.000 
#    0.000    0.000    0.000    8.100    0.000    4.650 
#
# Total GULP energy -446549.177812 kJ/mol
# GULP energy per Si atom -5581.864723 kJ/mol
# Density = 1.426683 g / cm^3
# Si number density = 14.299376 Si / 1000 Ang^3
#
#
#
# Elastic Constant Matrix: (Units=GPa)
#
#
# Indices 1 2 3 4 5 6 
#
# 1 80.3378 40.5856 33.7564 -0.0001 -0.1904 0.0001
# 2 40.5856 80.3380 33.7566 0.0000 0.1904 0.0001
# 3 33.7564 33.7566 83.2441 0.0002 0.0001 0.0001
# 4 -0.0001 0.0000 0.0002 12.1337 0.0001 0.1903
# 5 -0.1904 0.1904 0.0001 0.0001 12.1336 -0.0002
# 6 0.0001 0.0001 0.0001 0.1903 -0.0002 19.8762
#
#
#
# Elastic Compliance Matrix: (Units=1/GPa)
#
#
# Indices 1 2 3 4 5 6 
#
# 1 0.017925 -0.007235 -0.004335 0.000000 0.000395 0.000000
# 2 -0.007235 0.017925 -0.004335 0.000000 -0.000395 0.000000
# 3 -0.004335 -0.004335 0.015529 0.000000 0.000000 0.000000
# 4 0.000000 0.000000 0.000000 0.082427 -0.000001 -0.000789
# 5 0.000395 -0.000395 0.000000 -0.000001 0.082428 0.000001
# 6 0.000000 0.000000 0.000000 -0.000789 0.000001 0.050319
#
#
# Mechanical properties :
#
#
# Convention : Reuss Voigt Hill
#
# Bulk Modulus (GPa) = 51.10168 51.12412 51.11290
# Shear Modulus (GPa) = 16.39965 17.88346 17.14155
#
# Velocity S-wave (km/s) = 3.39023 3.54028 3.46607
# Velocity P-wave (km/s) = 7.15119 7.24857 7.20004
#
# Compressibility (1/GPa) = 0.01956883
#
# Stress axis : x y z
#
# Youngs Moduli (GPa) = 55.78885 55.78893 64.39744
#
# Poissons Ratio (x) = 0.40362 0.27915
# Poissons Ratio (y) = 0.40362 0.27916
# Poissons Ratio (z) = 0.24184 0.24184
#
# Static dielectric constant tensor:
#      x y z
#    x 1.472710 0.000000 0.000000 
#    y 0.000000 1.472710 0.000000 
#    z 0.000000 0.000000 1.483880 
# 
# From -- ./inp_files/3641.got.cif
#   From: 2010.05.17/outbox.cif.g08.bks.cpg/sg162_2_cif.got.tgz:3641.got - 2010.05.20 10:53:12.
