data_PCOD9577863
_publ_section_title
;
Structure prediction by ZEFSAII (Michael W. Deem and Ramdas Pophale) SiO2 
 PCOD9577863
Probable space group: P -3 1 M 
;
_chemical_formula_sum "Si O2"
_cell_formula_units_Z 42
_cell_length_a 19.747536
_cell_length_b 19.747536
_cell_length_c 5.522667
_cell_angle_alpha 90.000000
_cell_angle_beta 90.000000
_cell_angle_gamma 120.000000
_cell_volume 1865.113723
_symmetry_space_group_name_H-M "P -3 1 M "
_symmetry_group_IT_number 162
_symmetry_cell_setting 'hexagonal'
loop_
_space_group_symop_operation_xyz
x,y,z
-y,x-y,z
-x+y,-x,z
-y,-x,-z
-x+y,y,-z
x,x-y,-z
-x,-y,-z
y,-x+y,-z
x-y,x,-z
y,x,z
x-y,-y,z
-x,-x+y,z
loop_
_atom_site_type_symbol
_atom_site_label
_atom_site_fract_x
_atom_site_fract_y
_atom_site_fract_z
Si Si1 0.516618 0.905347 0.256705
Si Si2 0.161713 0.907869 0.250316
Si Si3 0.771407 0.385704 0.000000
Si Si4 0.093489 0.404661 0.247355
O O1 0.427707 0.834387 0.216591
O O2 0.547956 0.889102 0.503226
O O3 0.542062 0.000000 0.257118
O O4 0.555660 0.893944 0.014956
O O5 0.115397 0.884604 0.500000
O O6 0.219012 0.871794 0.251793
O O7 0.213692 0.000000 0.248913
O O8 0.115797 0.884203 0.000000
O O9 0.708417 0.416834 0.000000
O O10 0.000000 0.352439 0.259452
#
# Coordination Sequence:
#
# PCOD9577863 Si02
#       4
#    12  12   6  12
#     4  10  20  41  67  91 120 166 223 275 326 399
#     4  11  22  38  61  93 130 168 214 273 345 410
#     4  10  25  44  60  88 134 178 220 266 338 406
#     4   9  20  37  64  96 120 148 206 276 334 392
#
# _framework density 22.518733999999998
#
# number of rings (size 3 to 8) (size 9 to 14) (size 15 to 20)
#    0.286    1.714    0.000    3.000    0.000    9.143 
#    0.000    8.571    0.000    5.714    0.000    0.000 
#    0.000    0.000    0.000    0.000    0.000    0.000 
#
# Total GULP energy -233948.142603 kJ/mol
# GULP energy per Si atom -5570.193871 kJ/mol
# Density = 2.246748 g / cm^3
# Si number density = 22.518734 Si / 1000 Ang^3
#
#
#
# Elastic Constant Matrix: (Units=GPa)
#
#
# Indices 1 2 3 4 5 6 
#
# 1 97.0318 42.6411 66.6382 0.0005 -11.5643 0.0000
# 2 42.6411 97.0318 66.6382 -0.0005 11.5643 0.0000
# 3 66.6382 66.6382 237.5713 0.0000 0.0000 0.0000
# 4 0.0005 -0.0005 0.0000 30.4849 0.0000 11.5643
# 5 -11.5643 11.5643 0.0000 0.0000 30.4849 0.0005
# 6 0.0000 0.0000 0.0000 11.5643 0.0005 27.1953
#
#
#
# Elastic Compliance Matrix: (Units=1/GPa)
#
#
# Indices 1 2 3 4 5 6 
#
# 1 0.015849 -0.006073 -0.002742 0.000000 0.008316 0.000000
# 2 -0.006073 0.015849 -0.002742 0.000000 -0.008316 0.000000
# 3 -0.002742 -0.002742 0.005748 0.000000 0.000000 0.000000
# 4 0.000000 0.000000 0.000000 0.039112 0.000000 -0.016632
# 5 0.008316 -0.008316 0.000000 0.000000 0.039112 -0.000001
# 6 0.000000 0.000000 0.000000 -0.016632 -0.000001 0.043843
#
#
# Mechanical properties :
#
#
# Convention : Reuss Voigt Hill
#
# Bulk Modulus (GPa) = 69.77770 87.05221 78.41495
# Shear Modulus (GPa) = 26.68020 34.68085 30.68052
#
# Velocity S-wave (km/s) = 3.44583 3.92865 3.69513
# Velocity P-wave (km/s) = 6.84729 7.70199 7.28718
#
# Compressibility (1/GPa) = 0.01433123
#
# Stress axis : x y z
#
# Youngs Moduli (GPa) = 63.09567 63.09567 173.98489
#
# Poissons Ratio (x) = 0.38316 0.47710
# Poissons Ratio (y) = 0.38316 0.47710
# Poissons Ratio (z) = 0.17302 0.17302
#
# Static dielectric constant tensor:
#      x y z
#    x 1.898810 0.000000 0.000000 
#    y 0.000000 1.898810 0.000000 
#    z 0.000000 0.000000 1.815300 
# 
# From -- ./inp_files/362.got.cif
#   From: 2010.05.17/outbox.cif.g08.bks.cpg/sg162_1_cif.got.tgz:362.got - 2010.05.20 10:53:12.
