data_PCOD9577582
_publ_section_title
;
Structure prediction by ZEFSAII (Michael W. Deem and Ramdas Pophale) SiO2 
 PCOD9577582
Probable space group: R 3 C
;
_chemical_formula_sum "Si O2"
_cell_formula_units_Z 84
_cell_length_a 16.517455
_cell_length_b 16.517455
_cell_length_c 14.046371
_cell_angle_alpha 90.000000
_cell_angle_beta 90.000000
_cell_angle_gamma 120.000000
_cell_volume 3318.799617
_symmetry_space_group_name_H-M "R 3 C"
_symmetry_group_IT_number 161
_symmetry_cell_setting 'hexagonal'
loop_
_space_group_symop_operation_xyz
x,y,z
-y,x-y,z
-x+y,-x,z
-x+y,y,1/2+z
x,x-y,1/2+z
-y,-x,1/2+z
2/3+x,1/3+y,1/3+z
2/3-y,1/3+x-y,1/3+z
2/3-x+y,1/3-x,1/3+z
2/3-x+y,1/3+y,5/6+z
2/3+x,1/3+x-y,5/6+z
2/3-y,1/3-x,5/6+z
1/3+x,2/3+y,2/3+z
1/3-y,2/3+x-y,2/3+z
1/3-x+y,2/3-x,2/3+z
1/3-x+y,2/3+y,1/6+z
1/3+x,2/3+x-y,1/6+z
1/3-y,2/3-x,1/6+z
loop_
_atom_site_type_symbol
_atom_site_label
_atom_site_fract_x
_atom_site_fract_y
_atom_site_fract_z
Si Si1 0.053073 0.554080 0.322066
Si Si2 0.666668 0.333335 0.563465
Si Si3 0.276804 0.506565 0.257834
Si Si4 0.141222 0.303727 0.845446
Si Si5 0.006981 0.614457 0.685629
Si Si6 0.333334 0.666668 0.620638
O O1 0.136468 0.623498 0.253895
O O2 0.026800 0.452120 0.282568
O O3 0.095016 0.573828 0.429793
O O4 0.977497 0.589193 0.321116
O O5 0.625309 0.232375 0.513967
O O6 0.666668 0.333334 0.675383
O O7 0.208908 0.399961 0.284487
O O8 0.272819 0.562454 0.165844
O O9 0.204023 0.320184 0.936542
O O10 0.035175 0.276090 0.863988
#
# Coordination Sequence:
#
# PCOD9577582 Si02
#       6
#    18   6  18  18  18   6
#     4  11  26  48  73 105 150 192 249 313 371 453
#     4  10  23  43  70 101 142 190 236 298 376 449
#     4   9  24  44  66 105 144 182 246 303 368 436
#     4  11  26  48  73 105 150 192 249 313 371 453
#     4  11  28  46  80 109 148 204 254 305 390 448
#     4  10  23  43  70 101 142 190 236 298 376 449
#
# _framework density 25.310357
#
# number of rings (size 3 to 8) (size 9 to 14) (size 15 to 20)
#    0.000    1.714    0.000    1.286   24.000    3.429 
#    0.000    0.000    0.000    0.857    0.000    0.000 
#    0.000    0.000    0.000    0.000    0.000    0.000 
#
# Total GULP energy -156628.000155 kJ/mol
# GULP energy per Si atom -5593.857148 kJ/mol
# Density = 2.525275 g / cm^3
# Si number density = 25.310357 Si / 1000 Ang^3
#
#
#
# Elastic Constant Matrix: (Units=GPa)
#
#
# Indices 1 2 3 4 5 6 
#
# 1 89.8595 38.5325 31.7579 -3.5303 0.0000 0.0000
# 2 38.5325 89.8586 31.7579 3.5298 0.0000 0.0000
# 3 31.7579 31.7579 171.9417 -0.0001 0.0000 0.0000
# 4 -3.5303 3.5298 -0.0001 32.8430 0.0000 0.0000
# 5 0.0000 0.0000 0.0000 0.0000 32.8434 -3.5302
# 6 0.0000 0.0000 0.0000 0.0000 -3.5302 25.6635
#
#
#
# Elastic Compliance Matrix: (Units=1/GPa)
#
#
# Indices 1 2 3 4 5 6 
#
# 1 0.014174 -0.005602 -0.001583 0.002126 0.000000 0.000000
# 2 -0.005602 0.014174 -0.001583 -0.002125 0.000000 0.000000
# 3 -0.001583 -0.001583 0.006401 0.000000 0.000000 0.000000
# 4 0.002126 -0.002125 0.000000 0.030905 0.000000 0.000000
# 5 0.000000 0.000000 0.000000 0.000000 0.030904 0.004251
# 6 0.000000 0.000000 0.000000 0.000000 0.004251 0.039551
#
#
# Mechanical properties :
#
#
# Convention : Reuss Voigt Hill
#
# Bulk Modulus (GPa) = 58.10027 61.75072 59.92550
# Shear Modulus (GPa) = 31.37122 34.91074 33.14098
#
# Velocity S-wave (km/s) = 3.52442 3.71793 3.62247
# Velocity P-wave (km/s) = 6.29023 6.54836 6.42059
#
# Compressibility (1/GPa) = 0.01721162
#
# Stress axis : x y z
#
# Youngs Moduli (GPa) = 70.55366 70.55298 156.23092
#
# Poissons Ratio (x) = 0.39522 0.24735
# Poissons Ratio (y) = 0.39522 0.24735
# Poissons Ratio (z) = 0.11170 0.11170
#
# Static dielectric constant tensor:
#      x y z
#    x 2.100000 0.000000 0.000000 
#    y 0.000000 2.100000 0.000000 
#    z 0.000000 0.000000 2.012200 
# 
# From -- ./inp_files/851.got.cif
#   From: 2010.05.17/outbox.cif.g08.bks.cpg/sg161_cif.got.tgz:851.got - 2010.05.20 10:52:32.
