data_PCOD9577702
_publ_section_title
;
Structure prediction by ZEFSAII (Michael W. Deem and Ramdas Pophale) SiO2 
 PCOD9577702
Probable space group: P -3 1 M 
;
_chemical_formula_sum "Si O2"
_cell_formula_units_Z 96
_cell_length_a 14.935062
_cell_length_b 14.935062
_cell_length_c 28.053118
_cell_angle_alpha 90.000000
_cell_angle_beta 90.000000
_cell_angle_gamma 120.000000
_cell_volume 5419.083337
_symmetry_space_group_name_H-M "P -3 1 M "
_symmetry_group_IT_number 162
_symmetry_cell_setting 'hexagonal'
loop_
_space_group_symop_operation_xyz
x,y,z
-y,x-y,z
-x+y,-x,z
-y,-x,-z
-x+y,y,-z
x,x-y,-z
-x,-y,-z
y,-x+y,-z
x-y,x,-z
y,x,z
x-y,-y,z
-x,-x+y,z
loop_
_atom_site_type_symbol
_atom_site_label
_atom_site_fract_x
_atom_site_fract_y
_atom_site_fract_z
Si Si1 0.113418 0.515768 0.101698
Si Si2 0.881569 0.762671 0.814931
Si Si3 0.364394 0.568301 0.797721
Si Si4 0.464571 0.196668 0.948746
Si Si5 0.882687 0.765508 0.071091
Si Si6 0.125729 0.875382 0.657328
Si Si7 0.876668 0.123328 0.551072
Si Si8 0.386930 0.121754 0.262379
O O1 0.124747 0.526224 0.158622
O O2 0.132742 0.617645 0.072806
O O3 0.203745 0.495088 0.086564
O O4 0.000000 0.424165 0.088840
O O5 0.804938 0.804938 0.802004
O O6 0.877035 0.746962 0.871726
O O7 0.860623 0.662365 0.785782
O O8 0.000000 0.849238 0.803495
O O9 0.438785 0.691337 0.801671
O O10 0.347028 0.505869 0.749033
O O11 0.340576 0.133314 0.950412
O O12 0.503233 0.251617 0.000000
O O13 0.803372 0.803372 0.055435
O O14 0.000000 0.855409 0.062815
O O15 0.148517 0.852225 0.603479
O O16 0.161128 0.817845 0.695048
O O17 0.000000 0.825917 0.661867
O O18 0.183899 0.000000 0.664407
O O19 0.847270 0.152731 0.500000
O O20 0.000000 0.174436 0.550882
O O21 0.824274 0.000000 0.550617
O O22 0.331904 0.000000 0.270125
#
# Coordination Sequence:
#
# PCOD9577702 Si02
#       8
#    12  12  12  12  12  12  12  12
#     4  12  24  43  67  88 111 143 178 219 271 319
#     4   9  17  29  47  70 100 134 169 203 240 290
#     4  10  21  41  62  77 100 126 166 208 262 319
#     4  12  25  42  60  86 115 138 172 214 256 312
#     4  10  21  37  56  78 106 139 173 206 243 296
#     4   9  16  25  39  64 104 148 189 229 271 320
#     4   8  12  18  30  51  85 136 193 238 270 306
#     4  10  19  31  48  74 101 130 164 209 261 314
#
# _framework density 17.715171999999999
#
# number of rings (size 3 to 8) (size 9 to 14) (size 15 to 20)
#    0.250    1.750    1.250    3.375    0.000    6.000 
#    0.000    3.125    0.000    0.750    0.000    0.000 
#    0.000    1.000    0.000    8.000    0.000    0.250 
#
# Total GULP energy -534482.999135 kJ/mol
# GULP energy per Si atom -5567.531241 kJ/mol
# Density = 1.767485 g / cm^3
# Si number density = 17.715172 Si / 1000 Ang^3
#
#
#
# Elastic Constant Matrix: (Units=GPa)
#
#
# Indices 1 2 3 4 5 6 
#
# 1 28.8914 14.6981 13.1034 0.0002 -3.9354 0.0000
# 2 14.6981 28.8914 13.1034 -0.0002 3.9354 0.0000
# 3 13.1034 13.1034 88.3405 0.0000 0.0000 0.0000
# 4 0.0002 -0.0002 0.0000 15.0718 0.0000 3.9354
# 5 -3.9354 3.9354 0.0000 0.0000 15.0718 0.0002
# 6 0.0000 0.0000 0.0000 3.9354 0.0002 7.0966
#
#
#
# Elastic Compliance Matrix: (Units=1/GPa)
#
#
# Indices 1 2 3 4 5 6 
#
# 1 0.053786 -0.028599 -0.003736 -0.000001 0.021512 0.000000
# 2 -0.028599 0.053786 -0.003736 0.000001 -0.021512 0.000000
# 3 -0.003736 -0.003736 0.012428 0.000000 0.000000 0.000000
# 4 -0.000001 0.000001 0.000000 0.077583 0.000000 -0.043023
# 5 0.021512 -0.021512 0.000000 0.000000 0.077583 -0.000002
# 6 0.000000 0.000000 0.000000 -0.043023 -0.000002 0.164770
#
#
# Mechanical properties :
#
#
# Convention : Reuss Voigt Hill
#
# Bulk Modulus (GPa) = 20.89471 25.32592 23.11031
# Shear Modulus (GPa) = 9.46913 14.46261 11.96587
#
# Velocity S-wave (km/s) = 2.31448 2.86037 2.60178
# Velocity P-wave (km/s) = 4.35463 5.02356 4.70101
#
# Compressibility (1/GPa) = 0.04785900
#
# Stress axis : x y z
#
# Youngs Moduli (GPa) = 18.59209 18.59209 80.46252
#
# Poissons Ratio (x) = 0.53171 0.30061
# Poissons Ratio (y) = 0.53171 0.30061
# Poissons Ratio (z) = 0.06946 0.06946
#
# Static dielectric constant tensor:
#      x y z
#    x 1.617900 0.000000 0.000000 
#    y 0.000000 1.617900 0.000000 
#    z 0.000000 0.000000 1.688000 
# 
# From -- ./inp_files/4119.got.cif
#   From: 2010.05.17/outbox.cif.g08.bks.cpg/sg162_3_cif.got.tgz:4119.got - 2010.05.20 10:53:12.
