data_PCOD9577833
_publ_section_title
;
Structure prediction by ZEFSAII (Michael W. Deem and Ramdas Pophale) SiO2 
 PCOD9577833
Probable space group: P -3 1 M 
;
_chemical_formula_sum "Si O2"
_cell_formula_units_Z 60
_cell_length_a 17.594336
_cell_length_b 17.594336
_cell_length_c 12.270512
_cell_angle_alpha 90.000000
_cell_angle_beta 90.000000
_cell_angle_gamma 120.000000
_cell_volume 3289.569597
_symmetry_space_group_name_H-M "P -3 1 M "
_symmetry_group_IT_number 162
_symmetry_cell_setting 'hexagonal'
loop_
_space_group_symop_operation_xyz
x,y,z
-y,x-y,z
-x+y,-x,z
-y,-x,-z
-x+y,y,-z
x,x-y,-z
-x,-y,-z
y,-x+y,-z
x-y,x,-z
y,x,z
x-y,-y,z
-x,-x+y,z
loop_
_atom_site_type_symbol
_atom_site_label
_atom_site_fract_x
_atom_site_fract_y
_atom_site_fract_z
Si Si1 0.479731 0.162204 0.936983
Si Si2 0.733454 0.630058 0.726232
Si Si3 0.098788 0.597467 0.845929
Si Si4 0.900154 0.271906 0.324525
Si Si5 0.332865 0.840665 0.526107
O O1 0.402237 0.129205 0.850259
O O2 0.558671 0.162508 0.869336
O O3 0.501512 0.250756 0.000000
O O4 0.458889 0.096099 0.037045
O O5 0.695699 0.695699 0.716099
O O6 0.832697 0.663344 0.688102
O O7 0.677331 0.545951 0.647256
O O8 0.127750 0.672811 0.756197
O O9 0.000000 0.520751 0.817636
O O10 0.893333 0.304264 0.444274
O O11 0.000000 0.302221 0.297727
O O12 0.260689 0.739312 0.500000
O O13 0.429035 0.858070 0.500000
#
# Coordination Sequence:
#
# PCOD9577833 Si02
#       5
#    12  12  12  12  12
#     4  11  20  34  51  78 109 142 187 224 269 324
#     4  11  22  37  56  81 110 142 183 230 283 336
#     4  10  20  36  55  75 107 146 183 228 276 323
#     4  10  21  38  58  82 109 143 189 233 280 336
#     4  10  21  36  57  84 116 153 188 225 267 319
#
# _framework density 18.239469
#
# number of rings (size 3 to 8) (size 9 to 14) (size 15 to 20)
#    0.000    1.600    2.000    4.400    0.000    3.200 
#    4.800    0.000    0.000    0.400    0.000    0.000 
#    0.000    5.600    0.000    0.000    0.000    0.000 
#
# Total GULP energy -334710.297276 kJ/mol
# GULP energy per Si atom -5578.504955 kJ/mol
# Density = 1.819796 g / cm^3
# Si number density = 18.239469 Si / 1000 Ang^3
#
#
#
# Elastic Constant Matrix: (Units=GPa)
#
#
# Indices 1 2 3 4 5 6 
#
# 1 81.3674 73.1145 15.5113 0.0000 3.2659 0.0000
# 2 73.1145 81.3674 15.5113 0.0000 -3.2659 0.0000
# 3 15.5113 15.5113 86.8519 0.0000 0.0000 0.0000
# 4 0.0000 0.0000 0.0000 16.8259 0.0000 -3.2659
# 5 3.2659 -3.2659 0.0000 0.0000 16.8259 0.0000
# 6 0.0000 0.0000 0.0000 -3.2659 0.0000 4.1265
#
#
#
# Elastic Compliance Matrix: (Units=1/GPa)
#
#
# Indices 1 2 3 4 5 6 
#
# 1 0.074938 -0.068224 -0.001199 0.000000 -0.027788 0.000000
# 2 -0.068224 0.074938 -0.001199 0.000000 0.027788 0.000000
# 3 -0.001199 -0.001199 0.011942 0.000000 0.000000 0.000000
# 4 0.000000 0.000000 0.000000 0.070219 0.000000 0.055575
# 5 -0.027788 0.027788 0.000000 0.000000 0.070219 0.000001
# 6 0.000000 0.000000 0.000000 0.055575 0.000001 0.286323
#
#
# Mechanical properties :
#
#
# Convention : Reuss Voigt Hill
#
# Bulk Modulus (GPa) = 48.60535 50.87346 49.73941
# Shear Modulus (GPa) = 6.78719 17.25230 12.01975
#
# Velocity S-wave (km/s) = 1.93112 3.07885 2.56988
# Velocity P-wave (km/s) = 5.62838 6.37115 6.01125
#
# Compressibility (1/GPa) = 0.02057387
#
# Stress axis : x y z
#
# Youngs Moduli (GPa) = 13.34440 13.34440 83.73697
#
# Poissons Ratio (x) = 0.91041 0.10041
# Poissons Ratio (y) = 0.91041 0.10041
# Poissons Ratio (z) = 0.01600 0.01600
#
# Static dielectric constant tensor:
#      x y z
#    x 1.649530 0.000000 0.000000 
#    y 0.000000 1.649530 0.000000 
#    z 0.000000 0.000000 1.652290 
# 
# From -- ./inp_files/2329.got.cif
#   From: 2010.05.17/outbox.cif.g08.bks.cpg/sg162_2_cif.got.tgz:2329.got - 2010.05.20 10:53:12.
