data_PCOD9577768
_publ_section_title
;
Structure prediction by ZEFSAII (Michael W. Deem and Ramdas Pophale) SiO2 
 PCOD9577768
Probable space group: P -3 1 M 
;
_chemical_formula_sum "Si O2"
_cell_formula_units_Z 60
_cell_length_a 17.960206
_cell_length_b 17.960206
_cell_length_c 12.121438
_cell_angle_alpha 90.000000
_cell_angle_beta 90.000000
_cell_angle_gamma 120.000000
_cell_volume 3386.159440
_symmetry_space_group_name_H-M "P -3 1 M "
_symmetry_group_IT_number 162
_symmetry_cell_setting 'hexagonal'
loop_
_space_group_symop_operation_xyz
x,y,z
-y,x-y,z
-x+y,-x,z
-y,-x,-z
-x+y,y,-z
x,x-y,-z
-x,-y,-z
y,-x+y,-z
x-y,x,-z
y,x,z
x-y,-y,z
-x,-x+y,z
loop_
_atom_site_type_symbol
_atom_site_label
_atom_site_fract_x
_atom_site_fract_y
_atom_site_fract_z
Si Si1 0.900486 0.099514 0.365612
Si Si2 0.534950 0.636997 0.778135
Si Si3 0.100170 0.731012 0.000002
Si Si4 0.600264 0.800133 0.368233
Si Si5 0.534952 0.636998 0.221864
O O1 0.901264 0.098737 0.500000
O O2 0.850516 0.149481 0.332812
O O3 0.000000 0.149831 0.329433
O O4 0.850172 0.000000 0.329433
O O5 0.587487 0.587487 0.756271
O O6 0.572192 0.687990 0.892357
O O7 0.554850 0.705517 0.682927
O O8 0.435550 0.564448 0.787696
O O9 0.000000 0.703912 0.000003
O O10 0.168224 0.831777 0.000000
O O11 0.115797 0.687989 0.892359
O O12 0.597409 0.798705 0.500000
O O13 0.554852 0.705520 0.317070
O O14 0.587489 0.587489 0.243730
#
# Coordination Sequence:
#
# PCOD9577768 Si02
#       5
#    12  12  12  12  12
#     4   9  17  30  50  77 109 146 191 240 283 325
#     4  10  21  38  60  84 111 145 190 242 292 343
#     4  10  19  37  65  92 115 143 184 235 293 349
#     4  11  22  36  55  80 115 159 198 233 282 348
#     4  10  21  38  60  84 111 145 190 242 292 343
#
# _framework density 17.719189
#
# number of rings (size 3 to 8) (size 9 to 14) (size 15 to 20)
#    0.000    2.000    2.000    2.000    0.000    6.400 
#    1.200    2.000    0.000    0.200    0.000    0.000 
#    0.000    0.000    0.000    0.000    0.000    0.000 
#
# Total GULP energy -334912.998974 kJ/mol
# GULP energy per Si atom -5581.883316 kJ/mol
# Density = 1.767886 g / cm^3
# Si number density = 17.719189 Si / 1000 Ang^3
#
#
#
# Elastic Constant Matrix: (Units=GPa)
#
#
# Indices 1 2 3 4 5 6 
#
# 1 113.0195 84.4196 45.2052 0.0000 -0.0003 0.0000
# 2 84.4196 113.0195 45.2052 0.0000 0.0003 0.0000
# 3 45.2052 45.2052 86.7958 0.0000 0.0000 0.0000
# 4 0.0000 0.0000 0.0000 16.9620 0.0000 0.0003
# 5 -0.0003 0.0003 0.0000 0.0000 16.9620 0.0000
# 6 0.0000 0.0000 0.0000 0.0003 0.0000 14.3000
#
#
#
# Elastic Compliance Matrix: (Units=1/GPa)
#
#
# Indices 1 2 3 4 5 6 
#
# 1 0.020808 -0.014157 -0.003464 0.000000 0.000001 0.000000
# 2 -0.014157 0.020808 -0.003464 0.000000 -0.000001 0.000000
# 3 -0.003464 -0.003464 0.015130 0.000000 0.000000 0.000000
# 4 0.000000 0.000000 0.000000 0.058955 0.000000 -0.000001
# 5 0.000001 -0.000001 0.000000 0.000000 0.058955 0.000000
# 6 0.000000 0.000000 0.000000 -0.000001 0.000000 0.069930
#
#
# Mechanical properties :
#
#
# Convention : Reuss Voigt Hill
#
# Bulk Modulus (GPa) = 68.60768 73.61051 71.10910
# Shear Modulus (GPa) = 17.14589 18.84513 17.99551
#
# Velocity S-wave (km/s) = 3.11407 3.26474 3.19030
# Velocity P-wave (km/s) = 7.19260 7.47291 7.33409
#
# Compressibility (1/GPa) = 0.01457563
#
# Stress axis : x y z
#
# Youngs Moduli (GPa) = 48.05823 48.05823 66.09561
#
# Poissons Ratio (x) = 0.68036 0.22896
# Poissons Ratio (y) = 0.68036 0.22896
# Poissons Ratio (z) = 0.16648 0.16648
#
# Static dielectric constant tensor:
#      x y z
#    x 1.592460 0.000000 0.000000 
#    y 0.000000 1.592460 0.000000 
#    z 0.000000 0.000000 1.593100 
# 
# From -- ./inp_files/2290.got.cif
#   From: 2010.05.17/outbox.cif.g08.bks.cpg/sg162_2_cif.got.tgz:2290.got - 2010.05.20 10:53:12.
