data_PCOD9577767
_publ_section_title
;
Structure prediction by ZEFSAII (Michael W. Deem and Ramdas Pophale) SiO2 
 PCOD9577767
Probable space group: P -3 1 M 
;
_chemical_formula_sum "Si O2"
_cell_formula_units_Z 66
_cell_length_a 22.869675
_cell_length_b 22.869675
_cell_length_c 7.829400
_cell_angle_alpha 90.000000
_cell_angle_beta 90.000000
_cell_angle_gamma 120.000000
_cell_volume 3546.329617
_symmetry_space_group_name_H-M "P -3 1 M "
_symmetry_group_IT_number 162
_symmetry_cell_setting 'hexagonal'
loop_
_space_group_symop_operation_xyz
x,y,z
-y,x-y,z
-x+y,-x,z
-y,-x,-z
-x+y,y,-z
x,x-y,-z
-x,-y,-z
y,-x+y,-z
x-y,x,-z
y,x,z
x-y,-y,z
-x,-x+y,z
loop_
_atom_site_type_symbol
_atom_site_label
_atom_site_fract_x
_atom_site_fract_y
_atom_site_fract_z
Si Si1 0.716987 0.152530 0.523685
Si Si2 0.842120 0.551835 0.931534
Si Si3 0.928389 0.509898 0.346981
Si Si4 0.215977 0.922283 0.045324
Si Si5 0.880656 0.440328 0.000000
Si Si6 0.279798 0.203902 0.545278
O O1 0.769803 0.230197 0.500000
O O2 0.702158 0.145650 0.726260
O O3 0.655187 0.129541 0.396759
O O4 0.753797 0.110065 0.476844
O O5 0.897718 0.627430 0.997536
O O6 0.844546 0.485258 0.985241
O O7 0.772282 0.544563 0.000000
O O8 0.929136 0.464568 0.500000
O O9 0.000000 0.578319 0.345407
O O10 0.921301 0.470562 0.173696
O O11 0.212663 0.925671 0.250681
O O12 0.243912 0.000000 0.982716
O O13 0.140640 0.859361 0.000000
O O14 0.252866 0.126433 0.500000
O O15 0.233987 0.233987 0.482255
#
# Coordination Sequence:
#
# PCOD9577767 Si02
#       6
#    12  12  12  12   6  12
#     4  10  19  37  60  80 113 150 189 237 293 348
#     4  10  21  38  58  85 117 154 196 245 296 357
#     4  11  23  38  57  85 117 150 188 236 294 352
#     4   9  19  35  56  83 117 152 187 232 286 340
#     4  12  23  40  60  86 120 152 202 250 302 362
#     4   9  18  32  53  81 110 145 183 228 279 334
#
# _framework density 18.610792
#
# number of rings (size 3 to 8) (size 9 to 14) (size 15 to 20)
#    0.000    2.000    1.818    1.909    0.000    4.364 
#    0.545    0.000    0.000    0.727    0.000    0.000 
#    0.000    0.000    0.000    0.000    0.000    0.000 
#
# Total GULP energy -367524.653062 kJ/mol
# GULP energy per Si atom -5568.555349 kJ/mol
# Density = 1.856843 g / cm^3
# Si number density = 18.610792 Si / 1000 Ang^3
#
#
#
# Elastic Constant Matrix: (Units=GPa)
#
#
# Indices 1 2 3 4 5 6 
#
# 1 119.8248 69.9944 22.7360 -0.0002 -2.2894 0.0000
# 2 69.9944 119.8248 22.7360 0.0002 2.2894 0.0000
# 3 22.7360 22.7360 76.0051 0.0000 0.0000 0.0000
# 4 -0.0002 0.0002 0.0000 36.0287 0.0000 2.2894
# 5 -2.2894 2.2894 0.0000 0.0000 36.0287 -0.0002
# 6 0.0000 0.0000 0.0000 2.2894 -0.0002 24.9152
#
#
#
# Elastic Compliance Matrix: (Units=1/GPa)
#
#
# Indices 1 2 3 4 5 6 
#
# 1 0.012930 -0.007256 -0.001698 0.000000 0.001283 0.000000
# 2 -0.007256 0.012930 -0.001698 0.000000 -0.001283 0.000000
# 3 -0.001698 -0.001698 0.014173 0.000000 0.000000 0.000000
# 4 0.000000 0.000000 0.000000 0.027919 0.000000 -0.002565
# 5 0.001283 -0.001283 0.000000 0.000000 0.027919 0.000000
# 6 0.000000 0.000000 0.000000 -0.002565 0.000000 0.040372
#
#
# Mechanical properties :
#
#
# Convention : Reuss Voigt Hill
#
# Bulk Modulus (GPa) = 53.38446 60.73195 57.05820
# Shear Modulus (GPa) = 30.52731 32.74043 31.63387
#
# Velocity S-wave (km/s) = 4.05446 4.19885 4.12729
# Velocity P-wave (km/s) = 7.11794 7.49738 7.31012
#
# Compressibility (1/GPa) = 0.01873204
#
# Stress axis : x y z
#
# Youngs Moduli (GPa) = 77.33729 77.33729 70.55860
#
# Poissons Ratio (x) = 0.56112 0.11978
# Poissons Ratio (y) = 0.56112 0.11978
# Poissons Ratio (z) = 0.13128 0.13128
#
# Static dielectric constant tensor:
#      x y z
#    x 1.661610 0.000000 0.000000 
#    y 0.000000 1.661610 0.000000 
#    z 0.000000 0.000000 1.676110 
# 
# From -- ./inp_files/1567.got.cif
#   From: 2010.05.17/outbox.cif.g08.bks.cpg/sg162_1_cif.got.tgz:1567.got - 2010.05.20 10:53:12.
