data_PCOD9577112
_publ_section_title
;
Structure prediction by ZEFSAII (Michael W. Deem and Ramdas Pophale) SiO2 
 PCOD9577112
Probable space group: R 3 2
;
_chemical_formula_sum "Si O2"
_cell_formula_units_Z 72
_cell_length_a 30.167284
_cell_length_b 30.167284
_cell_length_c 4.952097
_cell_angle_alpha 90.000000
_cell_angle_beta 90.000000
_cell_angle_gamma 120.000000
_cell_volume 3902.942906
_symmetry_space_group_name_H-M "R 3 2"
_symmetry_group_IT_number 155
_symmetry_cell_setting 'hexagonal'
loop_
_space_group_symop_operation_xyz
x,y,z
-y,x-y,z
-x+y,-x,z
x-y,-y,-z
-x,-x+y,-z
y,x,-z
2/3+x,1/3+y,1/3+z
2/3-y,1/3+x-y,1/3+z
2/3-x+y,1/3-x,1/3+z
2/3+x-y,1/3-y,1/3-z
2/3-x,1/3-x+y,1/3-z
2/3+y,1/3+x,1/3-z
1/3+x,2/3+y,2/3+z
1/3-y,2/3+x-y,2/3+z
1/3-x+y,2/3-x,2/3+z
1/3+x-y,2/3-y,2/3-z
1/3-x,2/3-x+y,2/3-z
1/3+y,2/3+x,2/3-z
loop_
_atom_site_type_symbol
_atom_site_label
_atom_site_fract_x
_atom_site_fract_y
_atom_site_fract_z
Si Si1 0.443212 0.613658 0.578706
Si Si2 0.199013 0.368167 0.092664
Si Si3 0.052509 0.225262 0.413888
Si Si4 0.633189 0.137303 0.570119
O O1 0.446455 0.666667 0.666667
O O2 0.464455 0.616286 0.279167
O O3 0.391460 0.559827 0.574669
O O4 0.484597 0.611575 0.780831
O O5 0.200521 0.333334 0.333334
O O6 0.163663 0.391297 0.191456
O O7 0.175114 0.333334 0.833334
O O8 0.253131 0.416738 0.007175
O O9 0.000000 0.223440 0.500000
O O10 0.666667 0.131911 0.333334
O O11 0.666667 0.165067 0.833334
#
# Coordination Sequence:
#
# PCOD9577112 Si02
#       4
#    18  18  18  18
#     4   9  17  31  52  79 106 130 165 214 272 333
#     4  11  21  35  55  81 110 145 189 236 281 325
#     4   9  17  31  52  78 104 131 166 214 270 331
#     4  11  21  35  55  82 111 144 189 238 281 323
#
# _framework density 18.447616
#
# number of rings (size 3 to 8) (size 9 to 14) (size 15 to 20)
#    0.000    2.000    0.000    7.500    0.000    0.000 
#    0.000    0.000    0.000    9.500    0.000   14.000 
#    0.000    0.000    0.000    0.000    0.000    0.000 
#
# Total GULP energy -133700.599929 kJ/mol
# GULP energy per Si atom -5570.858330 kJ/mol
# Density = 1.840563 g / cm^3
# Si number density = 18.447616 Si / 1000 Ang^3
#
#
#
# Elastic Constant Matrix: (Units=GPa)
#
#
# Indices 1 2 3 4 5 6 
#
# 1 80.8491 59.4045 33.2594 -2.7807 0.3647 0.2826
# 2 59.4045 79.1751 31.9005 2.4445 -0.5020 -0.5835
# 3 33.2594 31.9005 92.7921 -0.9421 -0.3371 -0.4166
# 4 -2.7807 2.4445 -0.9421 30.1852 -0.1427 -0.0893
# 5 0.3647 -0.5020 -0.3371 -0.1427 30.1245 -3.1939
# 6 0.2826 -0.5835 -0.4166 -0.0893 -3.1939 10.1112
#
#
#
# Elastic Compliance Matrix: (Units=1/GPa)
#
#
# Indices 1 2 3 4 5 6 
#
# 1 0.029015 -0.020599 -0.003290 0.004227 -0.000966 -0.002403
# 2 -0.020599 0.029345 -0.002735 -0.004348 0.000943 0.002416
# 3 -0.003290 -0.002735 0.012903 0.000324 0.000196 0.000531
# 4 0.004227 -0.004348 0.000324 0.033880 0.000036 -0.000045
# 5 -0.000966 0.000943 0.000196 0.000036 0.034387 0.010952
# 6 -0.002403 0.002416 0.000531 -0.000045 0.010952 0.102588
#
#
# Mechanical properties :
#
#
# Convention : Reuss Voigt Hill
#
# Bulk Modulus (GPa) = 55.50662 55.77167 55.63915
# Shear Modulus (GPa) = 16.59083 22.63430 19.61257
#
# Velocity S-wave (km/s) = 3.00217 3.50658 3.26413
# Velocity P-wave (km/s) = 6.49395 6.83322 6.66575
#
# Compressibility (1/GPa) = 0.01801587
#
# Stress axis : x y z
#
# Youngs Moduli (GPa) = 34.46451 34.07683 77.50374
#
# Poissons Ratio (x) = 0.70194 0.25497
# Poissons Ratio (y) = 0.70993 0.21198
# Poissons Ratio (z) = 0.11338 0.09320
#
# Static dielectric constant tensor:
#      x y z
#    x 1.687520 -0.000320 -0.000120 
#    y -0.000320 1.687040 -0.000490 
#    z -0.000120 -0.000490 1.646550 
# 
# From -- ./inp_files/910.got.cif
#   From: 2010.05.17/outbox.cif.g08.bks.cpg/sg155_1_cif.got.tgz:910.got - 2010.05.20 10:44:35.
