data_PCOD9577247
_publ_section_title
;
Structure prediction by ZEFSAII (Michael W. Deem and Ramdas Pophale) SiO2 
 PCOD9577247
Probable space group: P 3 1 M
;
_chemical_formula_sum "Si O2"
_cell_formula_units_Z 24
_cell_length_a 15.046638
_cell_length_b 15.046638
_cell_length_c 5.394436
_cell_angle_alpha 90.000000
_cell_angle_beta 90.000000
_cell_angle_gamma 120.000000
_cell_volume 1057.683238
_symmetry_space_group_name_H-M "P 3 1 M"
_symmetry_group_IT_number 157
_symmetry_cell_setting 'hexagonal'
loop_
_space_group_symop_operation_xyz
x,y,z
-y,x-y,z
-x+y,-x,z
y,x,z
x-y,-y,z
-x,-x+y,z
loop_
_atom_site_type_symbol
_atom_site_label
_atom_site_fract_x
_atom_site_fract_y
_atom_site_fract_z
Si Si1 0.210221 0.560448 0.396520
Si Si2 0.248346 0.123718 0.396516
Si Si3 0.233092 0.357885 0.896516
Si Si4 0.440959 0.560865 0.896519
O O1 0.317597 0.563975 0.396521
O O2 0.151883 0.522914 0.651202
O O3 0.151885 0.522915 0.141836
O O4 0.172813 0.172813 0.396518
O O5 0.317991 0.166088 0.644849
O O6 0.182997 0.000000 0.396516
O O7 0.317990 0.166088 0.148183
O O8 0.298642 0.298642 0.896513
O O9 0.318655 0.478760 0.896518
O O10 0.492724 0.492724 0.896523
#
# Coordination Sequence:
#
# PCOD9577247 Si02
#       4
#     6   6   6   6
#     4  10  22  38  62  89 119 150 189 235 298 342
#     4  10  18  30  46  69 101 140 186 235 285 340
#     4   9  19  31  49  75 101 134 183 235 275 324
#     4  11  20  37  63  89 113 150 195 245 288 348
#
# _framework density 22.691103999999999
#
# number of rings (size 3 to 8) (size 9 to 14) (size 15 to 20)
#    0.500    1.500    0.000    4.750    0.000    4.000 
#    0.000    2.500    0.000   30.000    0.000    0.000 
#    0.000    0.000    0.000    0.000    0.000    0.000 
#
# Total GULP energy -134083.119421 kJ/mol
# GULP energy per Si atom -5586.796643 kJ/mol
# Density = 2.263946 g / cm^3
# Si number density = 22.691104 Si / 1000 Ang^3
#
#
#
# Elastic Constant Matrix: (Units=GPa)
#
#
# Indices 1 2 3 4 5 6 
#
# 1 85.7639 5.7489 34.5404 0.0000 -0.0009 0.0000
# 2 5.7489 85.7639 34.5404 0.0000 0.0009 0.0000
# 3 34.5404 34.5404 226.8184 0.0000 0.0000 0.0000
# 4 0.0000 0.0000 0.0000 13.1151 0.0000 0.0009
# 5 -0.0009 0.0009 0.0000 0.0000 13.1151 0.0000
# 6 0.0000 0.0000 0.0000 0.0009 0.0000 40.0075
#
#
#
# Elastic Compliance Matrix: (Units=1/GPa)
#
#
# Indices 1 2 3 4 5 6 
#
# 1 0.012422 -0.000075 -0.001880 0.000000 0.000001 0.000000
# 2 -0.000075 0.012422 -0.001880 0.000000 -0.000001 0.000000
# 3 -0.001880 -0.001880 0.004981 0.000000 0.000000 0.000000
# 4 0.000000 0.000000 0.000000 0.076248 0.000000 -0.000002
# 5 0.000001 -0.000001 0.000000 0.000000 0.076248 0.000000
# 6 0.000000 0.000000 0.000000 -0.000002 0.000000 0.024995
#
#
# Mechanical properties :
#
#
# Convention : Reuss Voigt Hill
#
# Bulk Modulus (GPa) = 45.13821 60.88953 53.01387
# Shear Modulus (GPa) = 22.48470 34.81532 28.65001
#
# Velocity S-wave (km/s) = 3.15128 3.92128 3.55718
# Velocity P-wave (km/s) = 5.75989 6.88435 6.34707
#
# Compressibility (1/GPa) = 0.02215418
#
# Stress axis : x y z
#
# Youngs Moduli (GPa) = 80.50107 80.50107 200.74463
#
# Poissons Ratio (x) = 0.00607 0.37744
# Poissons Ratio (y) = 0.00607 0.37744
# Poissons Ratio (z) = 0.15136 0.15136
#
# Static dielectric constant tensor:
#      x y z
#    x 1.834610 0.000000 0.000000 
#    y 0.000000 1.834610 0.000000 
#    z 0.000000 0.000000 1.951460 
# 
# From -- ./inp_files/67.got.cif
#   From: 2010.05.17/outbox.cif.g08.bks.cpg/sg157_cif.got.tgz:67.got - 2010.05.20 10:49:36.
