data_PCOD9577361
_publ_section_title
;
Structure prediction by ZEFSAII (Michael W. Deem and Ramdas Pophale) SiO2 
 PCOD9577361
Probable space group: P 3 1 C
;
_chemical_formula_sum "Si O2"
_cell_formula_units_Z 34
_cell_length_a 10.865514
_cell_length_b 10.865514
_cell_length_c 14.750202
_cell_angle_alpha 90.000000
_cell_angle_beta 90.000000
_cell_angle_gamma 120.000000
_cell_volume 1508.096566
_symmetry_space_group_name_H-M "P 3 1 C"
_symmetry_group_IT_number 159
_symmetry_cell_setting 'hexagonal'
loop_
_space_group_symop_operation_xyz
x,y,z
-y,x-y,z
-x+y,-x,z
y,x,1/2+z
x-y,-y,1/2+z
-x,-x+y,1/2+z
loop_
_atom_site_type_symbol
_atom_site_label
_atom_site_fract_x
_atom_site_fract_y
_atom_site_fract_z
Si Si1 0.224718 0.975886 0.268060
Si Si2 0.480686 0.980499 0.836170
Si Si3 0.333334 0.666668 0.852445
Si Si4 0.333335 0.666668 0.070093
Si Si5 0.820532 0.900780 0.960797
Si Si6 0.692616 0.955116 0.698790
Si Si7 0.577588 0.939694 0.029130
O O1 0.337009 0.930322 0.304877
O O2 0.190007 0.047163 0.354961
O O3 0.297278 0.111126 0.203731
O O4 0.090379 0.851028 0.216213
O O5 0.355500 0.816895 0.824729
O O6 0.603851 0.984252 0.775087
O O7 0.530920 0.993088 0.940932
O O8 0.333334 0.666667 0.960537
O O9 0.445843 0.827001 0.090184
O O10 0.931381 0.848350 0.987711
O O11 0.665392 0.861282 0.995130
O O12 0.622517 0.948217 0.602534
#
# Coordination Sequence:
#
# PCOD9577361 Si02
#       7
#     6   6   2   2   6   6   6
#     4  12  22  44  71  98 145 176 232 290 352 416
#     4  11  22  44  67  95 131 189 228 282 339 425
#     4   9  15  39  75  87 115 170 241 267 327 405
#     4   9  21  39  60  93 130 179 226 276 336 411
#     4  10  19  37  65  97 135 175 219 276 337 406
#     4  12  26  41  68 109 136 180 232 291 352 412
#     4  11  23  40  66  99 136 179 238 276 347 417
#
# _framework density 22.544972999999999
#
# number of rings (size 3 to 8) (size 9 to 14) (size 15 to 20)
#    0.353    0.706    5.294    2.471    4.941    0.000 
#    1.059    0.000    0.000    0.000    0.000    0.000 
#    0.000    0.000    0.000    0.000    0.000    0.000 
#
# Total GULP energy -189282.513059 kJ/mol
# GULP energy per Si atom -5567.132737 kJ/mol
# Density = 2.249366 g / cm^3
# Si number density = 22.544973 Si / 1000 Ang^3
#
#
#
# Elastic Constant Matrix: (Units=GPa)
#
#
# Indices 1 2 3 4 5 6 
#
# 1 59.3998 12.3097 16.2503 0.0001 -2.9418 -0.0003
# 2 12.3097 59.3995 16.2501 -0.0001 2.9418 0.0000
# 3 16.2503 16.2501 67.0541 -0.0001 -0.0001 -0.0002
# 4 0.0001 -0.0001 -0.0001 21.3917 -0.0004 2.9416
# 5 -2.9418 2.9418 -0.0001 -0.0004 21.3921 -0.0001
# 6 -0.0003 0.0000 -0.0002 2.9416 -0.0001 23.5451
#
#
#
# Elastic Compliance Matrix: (Units=1/GPa)
#
#
# Indices 1 2 3 4 5 6 
#
# 1 0.018636 -0.002971 -0.003797 0.000000 0.002971 0.000000
# 2 -0.002971 0.018637 -0.003797 0.000000 -0.002971 0.000000
# 3 -0.003797 -0.003797 0.016753 0.000000 0.000000 0.000000
# 4 0.000000 0.000000 0.000000 0.047564 0.000001 -0.005942
# 5 0.002971 -0.002971 0.000000 0.000001 0.047563 0.000000
# 6 0.000000 0.000000 0.000000 -0.005942 0.000000 0.043214
#
#
# Mechanical properties :
#
#
# Convention : Reuss Voigt Hill
#
# Bulk Modulus (GPa) = 30.39602 30.60818 30.50210
# Shear Modulus (GPa) = 22.27545 22.66865 22.47205
#
# Velocity S-wave (km/s) = 3.14673 3.17438 3.16058
# Velocity P-wave (km/s) = 5.16858 5.20015 5.18439
#
# Compressibility (1/GPa) = 0.03289905
#
# Stress axis : x y z
#
# Youngs Moduli (GPa) = 53.65815 53.65791 59.68913
#
# Poissons Ratio (x) = 0.15940 0.22661
# Poissons Ratio (y) = 0.15940 0.22661
# Poissons Ratio (z) = 0.20372 0.20371
#
# Static dielectric constant tensor:
#      x y z
#    x 1.909980 0.000000 0.000000 
#    y 0.000000 1.909980 0.000000 
#    z 0.000000 0.000000 1.882690 
# 
# From -- ./inp_files/896.got.cif
#   From: 2010.05.17/outbox.cif.g08.bks.cpg/sg159_cif.got.tgz:896.got - 2010.05.20 10:50:30.
