data_PCOD9577523
_publ_section_title
;
Structure prediction by ZEFSAII (Michael W. Deem and Ramdas Pophale) SiO2 
 PCOD9577523
Probable space group: R 3 C
;
_chemical_formula_sum "Si O2"
_cell_formula_units_Z 102
_cell_length_a 19.710446
_cell_length_b 19.710446
_cell_length_c 14.909502
_cell_angle_alpha 90.000000
_cell_angle_beta 90.000000
_cell_angle_gamma 120.000000
_cell_volume 5016.336622
_symmetry_space_group_name_H-M "R 3 C"
_symmetry_group_IT_number 161
_symmetry_cell_setting 'hexagonal'
loop_
_space_group_symop_operation_xyz
x,y,z
-y,x-y,z
-x+y,-x,z
-x+y,y,1/2+z
x,x-y,1/2+z
-y,-x,1/2+z
2/3+x,1/3+y,1/3+z
2/3-y,1/3+x-y,1/3+z
2/3-x+y,1/3-x,1/3+z
2/3-x+y,1/3+y,5/6+z
2/3+x,1/3+x-y,5/6+z
2/3-y,1/3-x,5/6+z
1/3+x,2/3+y,2/3+z
1/3-y,2/3+x-y,2/3+z
1/3-x+y,2/3-x,2/3+z
1/3-x+y,2/3+y,1/6+z
1/3+x,2/3+x-y,1/6+z
1/3-y,2/3-x,1/6+z
loop_
_atom_site_type_symbol
_atom_site_label
_atom_site_fract_x
_atom_site_fract_y
_atom_site_fract_z
Si Si1 0.649395 0.036040 0.213004
Si Si2 0.840158 0.417346 0.372711
Si Si3 0.419970 0.897447 0.700900
Si Si4 0.666667 0.333334 0.632070
Si Si5 0.666668 0.333334 0.423032
Si Si6 0.245599 0.250387 0.088565
Si Si7 0.472204 0.651040 0.047172
O O1 0.695622 0.998595 0.165161
O O2 0.667978 0.053913 0.320245
O O3 0.678354 0.120239 0.165595
O O4 0.557625 0.978962 0.196595
O O5 0.838051 0.336887 0.392447
O O6 0.751141 0.396698 0.389928
O O7 0.897651 0.495081 0.427111
O O8 0.847166 0.447135 0.270572
O O9 0.493066 0.908889 0.761346
O O10 0.437236 0.863348 0.610167
O O11 0.666668 0.333334 0.527312
O O12 0.733998 0.316186 0.664251
#
# Coordination Sequence:
#
# PCOD9577523 Si02
#       7
#    18  18  18   6   6  18  18
#     4  10  24  44  61  97 134 174 222 266 352 410
#     4  10  18  40  66  86 121 173 218 266 333 394
#     4  10  20  39  73  85 124 182 216 266 342 402
#     4  12  22  35  64 102 127 164 226 294 325 383
#     4  12  19  35  58 102 127 152 223 288 322 389
#     4  10  24  43  66  97 134 176 226 280 334 414
#     4  10  21  42  66  89 127 171 223 274 334 398
#
# _framework density 20.333563000000002
#
# number of rings (size 3 to 8) (size 9 to 14) (size 15 to 20)
#    0.000    2.118    5.294    0.000    4.941    1.412 
#   15.882    0.000    0.000    0.000    0.000    0.000 
#    0.000    0.000    0.000    0.000    0.000    0.000 
#
# Total GULP energy -189359.293353 kJ/mol
# GULP energy per Si atom -5569.390981 kJ/mol
# Density = 2.028728 g / cm^3
# Si number density = 20.333563 Si / 1000 Ang^3
#
#
#
# Elastic Constant Matrix: (Units=GPa)
#
#
# Indices 1 2 3 4 5 6 
#
# 1 121.0866 48.3242 20.1623 0.5880 0.0000 0.0000
# 2 48.3242 121.0869 20.1622 -0.5891 0.0000 0.0000
# 3 20.1623 20.1622 23.9171 0.0009 0.0000 0.0000
# 4 0.5880 -0.5891 0.0009 29.3796 0.0000 0.0000
# 5 0.0000 0.0000 0.0000 0.0000 29.3799 0.5872
# 6 0.0000 0.0000 0.0000 0.0000 0.5872 36.3817
#
#
#
# Elastic Compliance Matrix: (Units=1/GPa)
#
#
# Indices 1 2 3 4 5 6 
#
# 1 0.010566 -0.003182 -0.006225 -0.000275 0.000000 0.000000
# 2 -0.003182 0.010566 -0.006225 0.000276 0.000000 0.000000
# 3 -0.006225 -0.006225 0.052307 -0.000002 0.000000 0.000000
# 4 -0.000275 0.000276 -0.000002 0.034048 0.000000 0.000000
# 5 0.000000 0.000000 0.000000 0.000000 0.034048 -0.000550
# 6 0.000000 0.000000 0.000000 0.000000 -0.000550 0.027495
#
#
# Mechanical properties :
#
#
# Convention : Reuss Voigt Hill
#
# Bulk Modulus (GPa) = 23.71068 49.26533 36.48801
# Shear Modulus (GPa) = 23.32599 30.85769 27.09184
#
# Velocity S-wave (km/s) = 3.39066 3.89983 3.65413
# Velocity P-wave (km/s) = 5.19759 6.67528 5.98224
#
# Compressibility (1/GPa) = 0.04217508
#
# Stress axis : x y z
#
# Youngs Moduli (GPa) = 94.64134 94.64173 19.11796
#
# Poissons Ratio (x) = 0.30111 0.11901
# Poissons Ratio (y) = 0.30111 0.11901
# Poissons Ratio (z) = 0.58917 0.58916
#
# Static dielectric constant tensor:
#      x y z
#    x 1.662920 0.000000 0.000000 
#    y 0.000000 1.662920 0.000000 
#    z 0.000000 0.000000 1.750550 
# 
# From -- ./inp_files/992.got.cif
#   From: 2010.05.17/outbox.cif.g08.bks.cpg/sg161_cif.got.tgz:992.got - 2010.05.20 10:52:32.
