data_PCOD9577229
_publ_section_title
;
Structure prediction by ZEFSAII (Michael W. Deem and Ramdas Pophale) SiO2 
 PCOD9577229
Probable space group: P 3 M 1
;
_chemical_formula_sum "Si O2"
_cell_formula_units_Z 48
_cell_length_a 12.795284
_cell_length_b 12.795284
_cell_length_c 20.753063
_cell_angle_alpha 90.000000
_cell_angle_beta 90.000000
_cell_angle_gamma 120.000000
_cell_volume 2942.474418
_symmetry_space_group_name_H-M "P 3 M 1"
_symmetry_group_IT_number 156
_symmetry_cell_setting 'hexagonal'
loop_
_space_group_symop_operation_xyz
x,y,z
-y,x-y,z
-x+y,-x,z
-x+y,y,z
x,x-y,z
-y,-x,z
loop_
_atom_site_type_symbol
_atom_site_label
_atom_site_fract_x
_atom_site_fract_y
_atom_site_fract_z
Si Si1 0.333272 0.914767 0.220960
Si Si2 0.751833 0.752136 0.851522
Si Si3 0.247171 0.999847 0.467327
Si Si4 0.914631 0.581138 0.344548
Si Si5 0.751579 0.751798 0.097005
Si Si6 0.666566 0.580366 0.584642
Si Si7 0.914112 0.581411 0.973500
Si Si8 0.666672 0.086484 0.733580
O O1 0.452126 0.904252 0.209685
O O2 0.216390 0.783611 0.231145
O O3 0.305731 0.974089 0.159661
O O4 0.358694 0.998442 0.283434
O O5 0.747285 0.873643 0.858340
O O6 0.684389 0.660275 0.909972
O O7 0.694017 0.683925 0.784657
O O8 0.889750 0.779500 0.852962
O O9 0.126879 0.873122 0.460017
O O10 0.217937 0.108969 0.468767
O O11 0.337512 0.027482 0.407707
O O12 0.317021 0.008427 0.533327
O O13 0.785843 0.571685 0.333454
O O14 0.898821 0.449411 0.354012
O O15 0.763863 0.881931 0.085656
O O16 0.882504 0.765009 0.106582
O O17 0.691109 0.665178 0.035805
O O18 0.776401 0.552801 0.576979
O O19 0.540487 0.459514 0.572590
O O20 0.668507 0.616996 0.659132
O O21 0.774715 0.549430 0.972173
O O22 0.922872 0.461436 0.975525
O O23 0.539784 0.079567 0.746054
O O24 0.775379 0.224622 0.740803
#
# Coordination Sequence:
#
# PCOD9577229 Si02
#       8
#     6   6   6   6   6   6   6   6
#     4  10  20  34  52  74 102 136 171 204 239 284
#     4  10  20  33  50  72  99 131 165 201 241 287
#     4  10  20  33  49  70  97 129 163 198 239 288
#     4  10  20  34  53  76 100 126 159 202 251 297
#     4  10  20  34  53  76 102 132 166 204 245 289
#     4   9  17  30  50  75 100 126 158 199 246 292
#     4  10  20  34  53  76 100 126 158 199 247 295
#     4   9  17  30  50  75 100 126 158 199 246 292
#
# _framework density 16.312799999999999
#
# number of rings (size 3 to 8) (size 9 to 14) (size 15 to 20)
#    0.000    2.250    0.000    3.250    0.000    1.500 
#    0.000    3.750    0.000   17.500    0.000    0.000 
#    0.000    0.000    0.000    0.000    0.000    0.000 
#
# Total GULP energy -267850.139189 kJ/mol
# GULP energy per Si atom -5580.211233 kJ/mol
# Density = 1.627567 g / cm^3
# Si number density = 16.312800 Si / 1000 Ang^3
#
#
#
# Elastic Constant Matrix: (Units=GPa)
#
#
# Indices 1 2 3 4 5 6 
#
# 1 129.1253 90.4376 82.4908 2.0029 -0.0003 0.0000
# 2 90.4376 129.1253 82.4908 -2.0029 0.0003 0.0000
# 3 82.4908 82.4908 109.7821 0.0000 0.0000 0.0000
# 4 2.0029 -2.0029 0.0000 22.3596 0.0000 0.0003
# 5 -0.0003 0.0003 0.0000 0.0000 22.3596 2.0029
# 6 0.0000 0.0000 0.0000 0.0003 2.0029 19.3439
#
#
#
# Elastic Compliance Matrix: (Units=1/GPa)
#
#
# Indices 1 2 3 4 5 6 
#
# 1 0.018275 -0.007815 -0.007860 -0.002337 0.000000 0.000000
# 2 -0.007815 0.018275 -0.007860 0.002337 0.000000 0.000000
# 3 -0.007860 -0.007860 0.020921 0.000000 0.000000 0.000000
# 4 -0.002337 0.002337 0.000000 0.045142 0.000000 -0.000001
# 5 0.000000 0.000000 0.000000 0.000000 0.045142 -0.004674
# 6 0.000000 0.000000 0.000000 -0.000001 -0.004674 0.052180
#
#
# Mechanical properties :
#
#
# Convention : Reuss Voigt Hill
#
# Bulk Modulus (GPa) = 96.13630 97.65236 96.89433
# Shear Modulus (GPa) = 19.96212 20.32017 20.14114
#
# Velocity S-wave (km/s) = 3.50195 3.53322 3.51762
# Velocity P-wave (km/s) = 8.68404 8.75427 8.71922
#
# Compressibility (1/GPa) = 0.01040190
#
# Stress axis : x y z
#
# Youngs Moduli (GPa) = 54.71839 54.71839 47.79780
#
# Poissons Ratio (x) = 0.42760 0.37570
# Poissons Ratio (y) = 0.42760 0.37570
# Poissons Ratio (z) = 0.43010 0.43010
#
# Static dielectric constant tensor:
#      x y z
#    x 1.515130 0.000000 0.000000 
#    y 0.000000 1.515130 0.000000 
#    z 0.000000 0.000000 1.542560 
# 
# From -- ./inp_files/1081.got.cif
#   From: 2010.05.17/outbox.cif.g08.bks.cpg/sg156_cif.got.tgz:1081.got - 2010.05.20 10:49:08.
