data_PCOD9577086
_publ_section_title
;
Structure prediction by ZEFSAII (Michael W. Deem and Ramdas Pophale) SiO2 
 PCOD9577086
Probable space group: R 3 2
;
_chemical_formula_sum "Si O2"
_cell_formula_units_Z 63
_cell_length_a 13.381420
_cell_length_b 13.381420
_cell_length_c 17.130407
_cell_angle_alpha 90.000000
_cell_angle_beta 90.000000
_cell_angle_gamma 120.000000
_cell_volume 2656.456552
_symmetry_space_group_name_H-M "R 3 2"
_symmetry_group_IT_number 155
_symmetry_cell_setting 'hexagonal'
loop_
_space_group_symop_operation_xyz
x,y,z
-y,x-y,z
-x+y,-x,z
x-y,-y,-z
-x,-x+y,-z
y,x,-z
2/3+x,1/3+y,1/3+z
2/3-y,1/3+x-y,1/3+z
2/3-x+y,1/3-x,1/3+z
2/3+x-y,1/3-y,1/3-z
2/3-x,1/3-x+y,1/3-z
2/3+y,1/3+x,1/3-z
1/3+x,2/3+y,2/3+z
1/3-y,2/3+x-y,2/3+z
1/3-x+y,2/3-x,2/3+z
1/3+x-y,2/3-y,2/3-z
1/3-x,2/3-x+y,2/3-z
1/3+y,2/3+x,2/3-z
loop_
_atom_site_type_symbol
_atom_site_label
_atom_site_fract_x
_atom_site_fract_y
_atom_site_fract_z
Si Si1 0.792546 0.824367 0.308967
Si Si2 0.366213 0.461288 0.298109
Si Si3 0.333334 0.797176 0.666667
Si Si4 0.467663 0.041802 0.188480
O O1 0.666667 0.725363 0.333334
O O2 0.878770 0.775876 0.312005
O O3 0.778841 0.863238 0.222937
O O4 0.819113 0.926064 0.370675
O O5 0.312663 0.333334 0.333334
O O6 0.445317 0.480089 0.222774
O O7 0.224949 0.666667 0.666667
O O8 0.348928 0.868001 0.744700
O O9 0.333334 0.961494 0.166667
#
# Coordination Sequence:
#
# PCOD9577086 Si02
#       4
#    18  18   9  18
#     4  11  25  48  76 112 159 209 269 336 408 486
#     4  11  26  49  77 116 157 208 278 324 421 484
#     4  10  26  46  72 116 154 208 282 338 416 482
#     4  12  24  47  75 108 161 209 264 343 399 483
#
# _framework density 23.715802
#
# number of rings (size 3 to 8) (size 9 to 14) (size 15 to 20)
#    0.286    0.571    2.857    3.143    4.000    4.571 
#    5.143    0.000    0.000    0.571    0.000    0.000 
#    0.000    0.000    0.000    0.000    0.000    0.000 
#
# Total GULP energy -117416.524000 kJ/mol
# GULP energy per Si atom -5591.263048 kJ/mol
# Density = 2.366182 g / cm^3
# Si number density = 23.715802 Si / 1000 Ang^3
#
#
#
# Elastic Constant Matrix: (Units=GPa)
#
#
# Indices 1 2 3 4 5 6 
#
# 1 153.2627 52.2216 44.4502 -7.0730 -0.0001 0.0000
# 2 52.2216 153.2627 44.4502 7.0730 0.0001 0.0000
# 3 44.4502 44.4502 134.0681 0.0000 0.0000 0.0000
# 4 -7.0730 7.0730 0.0000 38.0066 0.0000 0.0001
# 5 -0.0001 0.0001 0.0000 0.0000 38.0066 -7.0730
# 6 0.0000 0.0000 0.0000 0.0001 -7.0730 50.5205
#
#
#
# Elastic Compliance Matrix: (Units=1/GPa)
#
#
# Indices 1 2 3 4 5 6 
#
# 1 0.007922 -0.002240 -0.001884 0.001891 0.000000 0.000000
# 2 -0.002240 0.007922 -0.001884 -0.001891 0.000000 0.000000
# 3 -0.001884 -0.001884 0.008708 0.000000 0.000000 0.000000
# 4 0.001891 -0.001891 0.000000 0.027015 0.000000 0.000000
# 5 0.000000 0.000000 0.000000 0.000000 0.027015 0.003782
# 6 0.000000 0.000000 0.000000 0.000000 0.003782 0.020323
#
#
# Mechanical properties :
#
#
# Convention : Reuss Voigt Hill
#
# Bulk Modulus (GPa) = 79.76902 80.31527 80.04214
# Shear Modulus (GPa) = 43.44100 45.27149 44.35624
#
# Velocity S-wave (km/s) = 4.28452 4.37386 4.32942
# Velocity P-wave (km/s) = 7.62788 7.71017 7.66913
#
# Compressibility (1/GPa) = 0.01253620
#
# Stress axis : x y z
#
# Youngs Moduli (GPa) = 126.23680 126.23680 114.83729
#
# Poissons Ratio (x) = 0.28278 0.21632
# Poissons Ratio (y) = 0.28278 0.21632
# Poissons Ratio (z) = 0.23779 0.23779
#
# Static dielectric constant tensor:
#      x y z
#    x 1.953600 0.000000 0.000000 
#    y 0.000000 1.953600 0.000000 
#    z 0.000000 0.000000 1.999880 
# 
# From -- ./inp_files/5828.got.cif
#   From: 2010.05.17/outbox.cif.g08.bks.cpg/sg155_3_cif.got.tgz:5828.got - 2010.05.20 10:44:35.
