data_PCOD9577348
_publ_section_title
;
Structure prediction by ZEFSAII (Michael W. Deem and Ramdas Pophale) SiO2 
 PCOD9577348
Probable space group: P 3 1 C
;
_chemical_formula_sum "Si O2"
_cell_formula_units_Z 36
_cell_length_a 16.709327
_cell_length_b 16.709327
_cell_length_c 8.711010
_cell_angle_alpha 90.000000
_cell_angle_beta 90.000000
_cell_angle_gamma 120.000000
_cell_volume 2106.284639
_symmetry_space_group_name_H-M "P 3 1 C"
_symmetry_group_IT_number 159
_symmetry_cell_setting 'hexagonal'
loop_
_space_group_symop_operation_xyz
x,y,z
-y,x-y,z
-x+y,-x,z
y,x,1/2+z
x-y,-y,1/2+z
-x,-x+y,1/2+z
loop_
_atom_site_type_symbol
_atom_site_label
_atom_site_fract_x
_atom_site_fract_y
_atom_site_fract_z
Si Si1 0.282267 0.384706 0.635050
Si Si2 0.384706 0.102439 0.135050
Si Si3 0.102439 0.384706 0.001650
Si Si4 0.895788 0.447894 0.634882
Si Si5 0.447894 0.895788 0.501818
Si Si6 0.384706 0.282267 0.501650
O O1 0.175854 0.351707 0.601304
O O2 0.345342 0.487362 0.565104
O O3 0.319420 0.319420 0.568350
O O4 0.295588 0.390417 0.818350
O O5 0.390417 0.094829 0.318350
O O6 0.487362 0.142020 0.065104
O O7 0.319420 1.000000 0.068350
O O8 0.142020 0.487362 0.071595
O O9 0.175854 0.351707 0.035396
O O10 0.857980 0.512638 0.571595
O O11 0.000000 0.500000 0.568350
O O12 0.896290 0.448145 0.818350
#
# Coordination Sequence:
#
# PCOD9577348 Si02
#       6
#     6   6   6   6   6   6
#     4  10  20  34  53  76 103 136 171 210 256 302
#     4  10  20  34  53  76 103 136 171 210 256 302
#     4  10  20  34  53  76 103 136 171 210 256 302
#     4  10  18  30  50  72  98 130 164 204 248 296
#     4  10  18  30  50  72  98 130 164 204 248 296
#     4  10  20  34  53  76 103 136 171 210 256 302
#
# _framework density 17.091705999999999
#
# number of rings (size 3 to 8) (size 9 to 14) (size 15 to 20)
#    0.000    2.000    0.000    9.000    0.000    5.333 
#    2.000    0.000    0.000    0.667    0.000    0.000 
#    0.000    0.000    0.000    0.000    0.000    0.000 
#
# Total GULP energy -200652.003142 kJ/mol
# GULP energy per Si atom -5573.666754 kJ/mol
# Density = 1.705280 g / cm^3
# Si number density = 17.091706 Si / 1000 Ang^3
#
#
#
# Elastic Constant Matrix: (Units=GPa)
#
#
# Indices 1 2 3 4 5 6 
#
# 1 103.5948 54.7769 52.4115 0.0000 0.0000 0.0000
# 2 54.7769 103.5948 52.4115 0.0000 0.0000 0.0000
# 3 52.4115 52.4115 113.0929 0.0000 0.0000 0.0000
# 4 0.0000 0.0000 0.0000 24.5898 0.0000 0.0000
# 5 0.0000 0.0000 0.0000 0.0000 24.5898 0.0000
# 6 0.0000 0.0000 0.0000 0.0000 0.0000 24.4090
#
#
#
# Elastic Compliance Matrix: (Units=1/GPa)
#
#
# Indices 1 2 3 4 5 6 
#
# 1 0.014796 -0.005688 -0.004221 0.000000 0.000000 0.000000
# 2 -0.005688 0.014796 -0.004221 0.000000 0.000000 0.000000
# 3 -0.004221 -0.004221 0.012755 0.000000 0.000000 0.000000
# 4 0.000000 0.000000 0.000000 0.040667 0.000000 0.000000
# 5 0.000000 0.000000 0.000000 0.000000 0.040667 0.000000
# 6 0.000000 0.000000 0.000000 0.000000 0.000000 0.040969
#
#
# Mechanical properties :
#
#
# Convention : Reuss Voigt Hill
#
# Bulk Modulus (GPa) = 70.98896 71.05359 71.02127
# Shear Modulus (GPa) = 25.30287 25.42988 25.36637
#
# Velocity S-wave (km/s) = 3.85179 3.86145 3.85662
# Velocity P-wave (km/s) = 7.83620 7.84495 7.84058
#
# Compressibility (1/GPa) = 0.01408670
#
# Stress axis : x y z
#
# Youngs Moduli (GPa) = 67.58504 67.58504 78.40282
#
# Poissons Ratio (x) = 0.38443 0.33094
# Poissons Ratio (y) = 0.38443 0.33094
# Poissons Ratio (z) = 0.28528 0.28528
#
# Static dielectric constant tensor:
#      x y z
#    x 1.540960 0.000000 0.000000 
#    y 0.000000 1.540960 0.000000 
#    z 0.000000 0.000000 1.570940 
# 
# From -- ./inp_files/424.got.cif
#   From: 2010.05.17/outbox.cif.g08.bks.cpg/sg159_cif.got.tgz:424.got - 2010.05.20 10:50:30.
