data_PCOD9577334
_publ_section_title
;
Structure prediction by ZEFSAII (Michael W. Deem and Ramdas Pophale) SiO2 
 PCOD9577334
Probable space group: P 3 C 1
;
_chemical_formula_sum "Si O2"
_cell_formula_units_Z 32
_cell_length_a 11.374399
_cell_length_b 11.374399
_cell_length_c 14.590949
_cell_angle_alpha 90.000000
_cell_angle_beta 90.000000
_cell_angle_gamma 120.000000
_cell_volume 1634.824316
_symmetry_space_group_name_H-M "P 3 C 1"
_symmetry_group_IT_number 158
_symmetry_cell_setting 'hexagonal'
loop_
_space_group_symop_operation_xyz
x,y,z
-y,x-y,z
-x+y,-x,z
-x+y,y,1/2+z
x,x-y,1/2+z
-y,-x,1/2+z
loop_
_atom_site_type_symbol
_atom_site_label
_atom_site_fract_x
_atom_site_fract_y
_atom_site_fract_z
Si Si1 0.000000 0.000000 0.115146
Si Si2 0.929901 0.698395 0.675929
Si Si3 0.561757 0.780870 0.755863
Si Si4 0.768499 0.070108 0.335802
Si Si5 0.333335 0.666668 0.616777
Si Si6 0.499485 0.304431 0.505867
Si Si7 0.333335 0.666668 0.394952
Si Si8 0.000000 0.000000 0.896584
O O1 0.893837 0.847416 0.148215
O O2 0.000000 0.000000 0.005865
O O3 0.820372 0.640724 0.755869
O O4 0.878392 0.594648 0.592397
O O5 0.069669 0.722922 0.717645
O O6 0.653256 0.722908 0.794078
O O7 0.471357 0.695534 0.668300
O O8 0.471363 0.775811 0.843430
O O9 0.716257 0.121610 0.419336
O O10 0.893835 0.046418 0.363517
O O11 0.333334 0.666667 0.505865
O O12 0.553641 0.196101 0.505867
#
# Coordination Sequence:
#
# PCOD9577334 Si02
#       8
#     2   6   6   6   2   6   2   2
#     4  12  22  41  73 115 131 181 241 305 379 406
#     4  12  23  45  74 102 150 179 241 308 352 432
#     4  10  24  44  70 112 132 188 236 298 366 412
#     4  12  23  45  74 102 150 179 241 308 352 432
#     4  10  26  49  70 104 148 187 251 277 355 449
#     4  10  28  48  64 110 140 198 242 270 366 438
#     4  10  26  49  70 104 148 187 251 277 355 449
#     4  12  22  41  73 115 131 181 241 305 379 406
#
# _framework density 19.573968000000001
#
# number of rings (size 3 to 8) (size 9 to 14) (size 15 to 20)
#    0.375    0.750    5.625    0.000    2.625    7.500 
#    3.375    0.000    0.000    0.000    0.000    0.000 
#    0.000    0.000    0.000    0.000    0.000    0.000 
#
# Total GULP energy -178609.498801 kJ/mol
# GULP energy per Si atom -5581.546838 kJ/mol
# Density = 1.952942 g / cm^3
# Si number density = 19.573968 Si / 1000 Ang^3
#
#
#
# Elastic Constant Matrix: (Units=GPa)
#
#
# Indices 1 2 3 4 5 6 
#
# 1 69.9710 88.2663 74.3036 0.0075 0.0000 0.0000
# 2 88.2663 69.9704 74.3036 -0.0075 0.0000 0.0000
# 3 74.3036 74.3036 223.4328 0.0001 0.0000 0.0000
# 4 0.0075 -0.0075 0.0001 20.1918 0.0000 0.0000
# 5 0.0000 0.0000 0.0000 0.0000 20.1921 0.0075
# 6 0.0000 0.0000 0.0000 0.0000 0.0075 -9.1423
#
#
#
# Elastic Compliance Matrix: (Units=1/GPa)
#
#
# Indices 1 2 3 4 5 6 
#
# 1 -0.022734 0.031924 -0.003056 0.000020 0.000000 0.000000
# 2 0.031924 -0.022734 -0.003056 -0.000020 0.000000 0.000000
# 3 -0.003056 -0.003056 0.006508 0.000000 0.000000 0.000000
# 4 0.000020 -0.000020 0.000000 0.049525 0.000000 0.000000
# 5 0.000000 0.000000 0.000000 0.000000 0.049524 0.000041
# 6 0.000000 0.000000 0.000000 0.000000 0.000041 -0.109381
#
#
# Mechanical properties :
#
#
# Convention : Reuss Voigt Hill
#
# Bulk Modulus (GPa) = 78.96790 93.01348 85.99069
# Shear Modulus (GPa) = -51.70942 14.68169 -18.51387
#
# Velocity S-wave (km/s) = -5.14537 2.74170 -3.07879
# Velocity P-wave (km/s) = 2.26521 7.59241 5.60249
#
# Compressibility (1/GPa) = 0.01266337
#
# Stress axis : x y z
#
# Youngs Moduli (GPa) = -43.98711 -43.98646 153.65104
#
# Poissons Ratio (x) = 1.40422 0.46958
# Poissons Ratio (y) = 1.40424 0.46956
# Poissons Ratio (z) = -0.13443 -0.13442
#
# Static dielectric constant tensor:
#      x y z
#    x 1.854680 0.000000 0.000000 
#    y 0.000000 1.854720 0.000000 
#    z 0.000000 0.000000 1.657360 
# 
# From -- ./inp_files/469.got.cif
#   From: 2010.05.17/outbox.cif.g08.bks.cpg/sg158_cif.got.tgz:469.got - 2010.05.20 10:49:59.
