data_PCOD9577303
_publ_section_title
;
Structure prediction by ZEFSAII (Michael W. Deem and Ramdas Pophale) SiO2 
 PCOD9577303
Probable space group: P 3 C 1
;
_chemical_formula_sum "Si O2"
_cell_formula_units_Z 36
_cell_length_a 17.542231
_cell_length_b 17.542231
_cell_length_c 5.529583
_cell_angle_alpha 90.000000
_cell_angle_beta 90.000000
_cell_angle_gamma 120.000000
_cell_volume 1473.644285
_symmetry_space_group_name_H-M "P 3 C 1"
_symmetry_group_IT_number 158
_symmetry_cell_setting 'hexagonal'
loop_
_space_group_symop_operation_xyz
x,y,z
-y,x-y,z
-x+y,-x,z
-x+y,y,1/2+z
x,x-y,1/2+z
-y,-x,1/2+z
loop_
_atom_site_type_symbol
_atom_site_label
_atom_site_fract_x
_atom_site_fract_y
_atom_site_fract_z
Si Si1 0.739403 0.226481 0.907060
Si Si2 0.226481 0.487078 0.176420
Si Si3 0.717916 0.897001 0.226983
Si Si4 0.820914 0.102999 0.356497
Si Si5 0.966144 0.396857 0.537305
Si Si6 0.569288 0.603143 0.046175
O O1 0.712147 0.241085 0.640633
O O2 0.827447 0.217037 0.870461
O O3 0.863191 0.341625 0.505040
O O4 0.241085 0.528938 0.442847
O O5 0.217037 0.389590 0.213019
O O6 0.136809 0.478434 0.078440
O O7 0.745995 0.859361 0.457064
O O8 0.761128 1.000000 0.291740
O O9 0.859361 0.113365 0.626416
O O10 0.000000 0.373858 0.291740
O O11 0.000000 0.500000 0.541740
O O12 0.000000 0.383687 0.791740
#
# Coordination Sequence:
#
# PCOD9577303 Si02
#       6
#     6   6   6   6   6   6
#     4  10  21  34  55  89 129 167 214 268 341 398
#     4  10  21  34  55  89 129 167 214 268 341 398
#     4  10  21  36  55  81 115 164 211 264 320 373
#     4  10  21  36  55  81 115 164 211 264 320 373
#     4  10  21  38  61  92 135 176 213 283 354 408
#     4  10  21  38  61  92 135 176 213 283 354 408
#
# _framework density 24.429234000000001
#
# number of rings (size 3 to 8) (size 9 to 14) (size 15 to 20)
#    0.000    2.000    0.000    3.000    0.000   16.000 
#    0.000    0.000    0.000    6.667    0.000    0.000 
#  266.667    0.000    0.000    0.000    0.000    0.000 
#
# Total GULP energy -200611.676115 kJ/mol
# GULP energy per Si atom -5572.546559 kJ/mol
# Density = 2.437363 g / cm^3
# Si number density = 24.429234 Si / 1000 Ang^3
#
#
#
# Elastic Constant Matrix: (Units=GPa)
#
#
# Indices 1 2 3 4 5 6 
#
# 1 90.1121 23.7302 17.8586 31.6856 0.0000 0.0000
# 2 23.7302 90.1121 17.8586 -31.6856 0.0000 0.0000
# 3 17.8586 17.8586 292.0115 0.0000 0.0000 0.0000
# 4 31.6856 -31.6856 0.0000 269.9030 0.0000 0.0000
# 5 0.0000 0.0000 0.0000 0.0000 269.9030 31.6856
# 6 0.0000 0.0000 0.0000 0.0000 31.6856 33.1910
#
#
#
# Elastic Compliance Matrix: (Units=1/GPa)
#
#
# Indices 1 2 3 4 5 6 
#
# 1 0.012961 -0.004005 -0.000548 -0.001992 0.000000 0.000000
# 2 -0.004005 0.012961 -0.000548 0.001992 0.000000 0.000000
# 3 -0.000548 -0.000548 0.003492 0.000000 0.000000 0.000000
# 4 -0.001992 0.001992 0.000000 0.004173 0.000000 0.000000
# 5 0.000000 0.000000 0.000000 0.000000 0.004173 -0.003983
# 6 0.000000 0.000000 0.000000 0.000000 -0.003983 0.033931
#
#
# Mechanical properties :
#
#
# Convention : Reuss Voigt Hill
#
# Bulk Modulus (GPa) = 52.04949 65.68116 58.86533
# Shear Modulus (GPa) = 56.62850 142.11861 99.37356
#
# Velocity S-wave (km/s) = 4.81985 7.63557 6.38486
# Velocity P-wave (km/s) = 7.23375 10.23135 8.86024
#
# Compressibility (1/GPa) = 0.01921248
#
# Stress axis : x y z
#
# Youngs Moduli (GPa) = 77.15562 77.15562 286.40845
#
# Poissons Ratio (x) = 0.30900 0.15687
# Poissons Ratio (y) = 0.30900 0.15687
# Poissons Ratio (z) = 0.04226 0.04226
#
# Static dielectric constant tensor:
#      x y z
#    x 1.975070 0.000000 0.000000 
#    y 0.000000 1.975070 0.000000 
#    z 0.000000 0.000000 2.244270 
# 
# From -- ./inp_files/23.got.cif
#   From: 2010.05.17/outbox.cif.g08.bks.cpg/sg158_cif.got.tgz:23.got - 2010.05.20 10:49:59.
