data_PCOD9577412
_publ_section_title
;
Structure prediction by ZEFSAII (Michael W. Deem and Ramdas Pophale) SiO2 
 PCOD9577412
Probable space group: P 3 1 C
;
_chemical_formula_sum "Si O2"
_cell_formula_units_Z 30
_cell_length_a 18.811298
_cell_length_b 18.811298
_cell_length_c 5.311130
_cell_angle_alpha 90.000000
_cell_angle_beta 90.000000
_cell_angle_gamma 120.000000
_cell_volume 1627.627767
_symmetry_space_group_name_H-M "P 3 1 C"
_symmetry_group_IT_number 159
_symmetry_cell_setting 'hexagonal'
loop_
_space_group_symop_operation_xyz
x,y,z
-y,x-y,z
-x+y,-x,z
y,x,1/2+z
x-y,-y,1/2+z
-x,-x+y,1/2+z
loop_
_atom_site_type_symbol
_atom_site_label
_atom_site_fract_x
_atom_site_fract_y
_atom_site_fract_z
Si Si1 0.639852 0.686732 0.783930
Si Si2 0.762517 0.049651 0.237544
Si Si3 0.543484 0.781890 0.806406
Si Si4 0.046638 0.186730 0.780240
Si Si5 0.561475 0.299613 0.805367
O O1 0.637090 0.641199 0.526798
O O2 0.571911 0.713820 0.801012
O O3 0.727863 0.771903 0.782293
O O4 0.757125 0.130906 0.284761
O O5 0.857924 0.074346 0.255929
O O6 0.715943 0.985971 0.461582
O O7 0.486855 0.768410 0.565473
O O8 0.496615 0.774226 0.065225
O O9 0.994532 0.136285 0.539589
O O10 0.607984 0.246468 0.795242
#
# Coordination Sequence:
#
# PCOD9577412 Si02
#       5
#     6   6   6   6   6
#     4   9  17  29  50  81 108 134 167 209 268 325
#     4  11  22  35  56  87 118 155 198 235 288 359
#     4  11  20  37  61  83 115 146 186 242 284 332
#     4   9  17  31  51  73 102 142 186 231 266 301
#     4  10  22  38  62  86 101 143 195 247 272 337
#
# _framework density 18.431730000000002
#
# number of rings (size 3 to 8) (size 9 to 14) (size 15 to 20)
#    0.400    1.600    0.000    4.800    0.000    6.400 
#    0.000    0.000    0.000   32.000    0.000    0.000 
#    0.000    0.000    0.000    0.000    0.000    0.000 
#
# Total GULP energy -167419.921044 kJ/mol
# GULP energy per Si atom -5580.664035 kJ/mol
# Density = 1.838978 g / cm^3
# Si number density = 18.431730 Si / 1000 Ang^3
#
#
#
# Elastic Constant Matrix: (Units=GPa)
#
#
# Indices 1 2 3 4 5 6 
#
# 1 41.5078 -3.9211 -6.1972 0.0000 6.1829 0.0000
# 2 -3.9211 41.5078 -6.1972 0.0000 -6.1829 0.0000
# 3 -6.1972 -6.1972 86.8122 0.0000 0.0000 0.0000
# 4 0.0000 0.0000 0.0000 24.3350 0.0000 -6.1829
# 5 6.1829 -6.1829 0.0000 0.0000 24.3350 0.0000
# 6 0.0000 0.0000 0.0000 -6.1829 0.0000 22.7145
#
#
#
# Elastic Compliance Matrix: (Units=1/GPa)
#
#
# Indices 1 2 3 4 5 6 
#
# 1 0.025447 0.001799 0.001945 0.000000 -0.006008 0.000000
# 2 0.001799 0.025447 0.001945 0.000000 0.006008 0.000000
# 3 0.001945 0.001945 0.011797 0.000000 0.000000 0.000000
# 4 0.000000 0.000000 0.000000 0.044146 0.000000 0.012017
# 5 -0.006008 0.006008 0.000000 0.000000 0.044146 0.000000
# 6 0.000000 0.000000 0.000000 0.012017 0.000000 0.047296
#
#
# Mechanical properties :
#
#
# Convention : Reuss Voigt Hill
#
# Bulk Modulus (GPa) = 13.50075 15.24410 14.37242
# Shear Modulus (GPa) = 23.63054 26.68646 25.15850
#
# Velocity S-wave (km/s) = 3.58447 3.80920 3.69854
# Velocity P-wave (km/s) = 4.94690 5.25692 5.10426
#
# Compressibility (1/GPa) = 0.07406997
#
# Stress axis : x y z
#
# Youngs Moduli (GPa) = 39.29706 39.29706 84.76866
#
# Poissons Ratio (x) = -0.07071 -0.16488
# Poissons Ratio (y) = -0.07071 -0.16488
# Poissons Ratio (z) = -0.07643 -0.07643
#
# Static dielectric constant tensor:
#      x y z
#    x 1.627460 0.000000 0.000000 
#    y 0.000000 1.627460 0.000000 
#    z 0.000000 0.000000 1.607340 
# 
# From -- ./inp_files/92.got.cif
#   From: 2010.05.17/outbox.cif.g08.bks.cpg/sg159_cif.got.tgz:92.got - 2010.05.20 10:50:30.
