data_PCOD9577055
_publ_section_title
;
Structure prediction by ZEFSAII (Michael W. Deem and Ramdas Pophale) SiO2 
 PCOD9577055
Probable space group: R 3 2
;
_chemical_formula_sum "Si O2"
_cell_formula_units_Z 54
_cell_length_a 9.849293
_cell_length_b 9.849293
_cell_length_c 26.260921
_cell_angle_alpha 90.000000
_cell_angle_beta 90.000000
_cell_angle_gamma 120.000000
_cell_volume 2206.229561
_symmetry_space_group_name_H-M "R 3 2"
_symmetry_group_IT_number 155
_symmetry_cell_setting 'hexagonal'
loop_
_space_group_symop_operation_xyz
x,y,z
-y,x-y,z
-x+y,-x,z
x-y,-y,-z
-x,-x+y,-z
y,x,-z
2/3+x,1/3+y,1/3+z
2/3-y,1/3+x-y,1/3+z
2/3-x+y,1/3-x,1/3+z
2/3+x-y,1/3-y,1/3-z
2/3-x,1/3-x+y,1/3-z
2/3+y,1/3+x,1/3-z
1/3+x,2/3+y,2/3+z
1/3-y,2/3+x-y,2/3+z
1/3-x+y,2/3-x,2/3+z
1/3+x-y,2/3-y,2/3-z
1/3-x,2/3-x+y,2/3-z
1/3+y,2/3+x,2/3-z
loop_
_atom_site_type_symbol
_atom_site_label
_atom_site_fract_x
_atom_site_fract_y
_atom_site_fract_z
Si Si1 0.353060 0.261317 0.281543
Si Si2 0.293320 0.071803 0.754875
Si Si3 0.291761 0.167519 0.859951
O O1 0.442869 0.333334 0.333334
O O2 0.229687 0.321851 0.271663
O O3 0.464080 0.318663 0.232000
O O4 0.258202 0.074743 0.280225
O O5 0.215064 0.060701 0.810431
O O6 0.439254 0.051783 0.772120
O O7 0.411270 0.333334 0.833334
#
# Coordination Sequence:
#
# PCOD9577055 Si02
#       3
#    18  18  18
#     4  11  25  43  71 106 141 190 236 293 372 411
#     4  10  23  45  68  99 143 184 241 292 347 436
#     4   9  22  44  68  98 134 185 243 286 352 419
#
# _framework density 24.476147000000001
#
# number of rings (size 3 to 8) (size 9 to 14) (size 15 to 20)
#    0.000    2.000    0.000    0.667   18.667    0.000 
#   54.000    0.000    0.000    0.000    0.000    0.000 
#    0.000    0.000    0.000    0.000    0.000    0.000 
#
# Total GULP energy -100622.210892 kJ/mol
# GULP energy per Si atom -5590.122827 kJ/mol
# Density = 2.442044 g / cm^3
# Si number density = 24.476147 Si / 1000 Ang^3
#
#
#
# Elastic Constant Matrix: (Units=GPa)
#
#
# Indices 1 2 3 4 5 6 
#
# 1 66.5141 2.8270 11.3838 -7.5545 0.0002 0.0000
# 2 2.8270 66.5141 11.3838 7.5545 -0.0002 0.0000
# 3 11.3838 11.3838 107.4594 0.0000 0.0000 0.0000
# 4 -7.5545 7.5545 0.0000 31.6566 0.0000 -0.0002
# 5 0.0002 -0.0002 0.0000 0.0000 31.6566 -7.5545
# 6 0.0000 0.0000 0.0000 -0.0002 -7.5545 31.8436
#
#
#
# Elastic Compliance Matrix: (Units=1/GPa)
#
#
# Indices 1 2 3 4 5 6 
#
# 1 0.015793 -0.000851 -0.001583 0.003972 0.000000 0.000000
# 2 -0.000851 0.015793 -0.001583 -0.003972 0.000000 0.000000
# 3 -0.001583 -0.001583 0.009641 0.000000 0.000000 0.000000
# 4 0.003972 -0.003972 0.000000 0.033485 0.000000 0.000000
# 5 0.000000 0.000000 0.000000 0.000000 0.033485 0.007944
# 6 0.000000 0.000000 0.000000 0.000000 0.007944 0.033288
#
#
# Mechanical properties :
#
#
# Convention : Reuss Voigt Hill
#
# Bulk Modulus (GPa) = 30.12748 32.40854 31.26801
# Shear Modulus (GPa) = 31.13674 33.35756 32.24715
#
# Velocity S-wave (km/s) = 3.57056 3.69570 3.63367
# Velocity P-wave (km/s) = 5.41610 5.61075 5.51428
#
# Compressibility (1/GPa) = 0.03319228
#
# Stress axis : x y z
#
# Youngs Moduli (GPa) = 63.32080 63.32080 103.72163
#
# Poissons Ratio (x) = 0.05391 0.16417
# Poissons Ratio (y) = 0.05391 0.16417
# Poissons Ratio (z) = 0.10022 0.10022
#
# Static dielectric constant tensor:
#      x y z
#    x 1.956420 0.000000 0.000000 
#    y 0.000000 1.956420 0.000000 
#    z 0.000000 0.000000 1.949420 
# 
# From -- ./inp_files/6610.got.cif
#   From: 2010.05.17/outbox.cif.g08.bks.cpg/sg155_4_cif.got.tgz:6610.got - 2010.05.20 10:44:35.
