data_PCOD9577428
_publ_section_title
;
Structure prediction by ZEFSAII (Michael W. Deem and Ramdas Pophale) SiO2 
 PCOD9577428
Probable space group: P 3 1 C
;
_chemical_formula_sum "Si O2"
_cell_formula_units_Z 42
_cell_length_a 8.635849
_cell_length_b 8.635849
_cell_length_c 32.550432
_cell_angle_alpha 90.000000
_cell_angle_beta 90.000000
_cell_angle_gamma 120.000000
_cell_volume 2102.313448
_symmetry_space_group_name_H-M "P 3 1 C"
_symmetry_group_IT_number 159
_symmetry_cell_setting 'hexagonal'
loop_
_space_group_symop_operation_xyz
x,y,z
-y,x-y,z
-x+y,-x,z
y,x,1/2+z
x-y,-y,1/2+z
-x,-x+y,1/2+z
loop_
_atom_site_type_symbol
_atom_site_label
_atom_site_fract_x
_atom_site_fract_y
_atom_site_fract_z
Si Si1 0.204120 0.203892 0.869850
Si Si2 0.544321 0.862123 0.945606
Si Si3 0.328351 0.341701 0.201755
Si Si4 0.016063 0.339136 0.571567
Si Si5 0.984377 0.321181 0.168108
Si Si6 0.682091 0.137826 0.793992
Si Si7 0.325189 0.339685 0.037918
O O1 0.298815 0.321423 0.909783
O O2 0.321769 0.298597 0.829932
O O3 0.000180 0.166322 0.869828
O O4 0.346597 0.839775 0.942510
O O5 0.624405 0.936939 0.990124
O O6 0.477350 0.525455 0.181495
O O7 0.380811 0.191739 0.193350
O O8 0.312271 0.374632 0.249576
O O9 0.140553 0.280605 0.179754
O O10 0.054720 0.351404 0.619836
O O11 0.140844 0.281272 0.547628
O O12 0.049385 0.526498 0.554333
O O13 0.812099 0.191702 0.562503
O O14 0.839771 0.346557 0.797026
#
# Coordination Sequence:
#
# PCOD9577428 Si02
#       7
#     6   6   6   6   6   6   6
#     4  10  26  40  72 104 136 172 222 288 340 414
#     4  10  23  46  70  98 135 177 225 271 349 416
#     4  12  25  45  68 100 137 185 233 290 351 416
#     4  12  24  42  67  99 138 182 234 291 350 413
#     4  12  24  42  67  99 138 182 234 291 350 413
#     4  10  23  46  70  98 135 177 225 271 349 416
#     4  12  25  45  68 100 137 185 233 290 351 416
#
# _framework density 19.977993000000001
#
# number of rings (size 3 to 8) (size 9 to 14) (size 15 to 20)
#    0.857    0.000    2.857    4.286    6.000    0.000 
#    0.000    0.000    0.000    0.000    0.000    0.000 
#    0.000    0.000    0.000    0.000    0.000    0.000 
#
# Total GULP energy -234609.133134 kJ/mol
# GULP energy per Si atom -5585.931741 kJ/mol
# Density = 1.993252 g / cm^3
# Si number density = 19.977993 Si / 1000 Ang^3
#
#
#
# Elastic Constant Matrix: (Units=GPa)
#
#
# Indices 1 2 3 4 5 6 
#
# 1 -28.8748 111.8104 55.4084 0.0000 -34.0965 0.0000
# 2 111.8104 -28.8748 55.4084 0.0000 34.0965 0.0000
# 3 55.4084 55.4084 170.7708 0.0000 0.0000 0.0000
# 4 0.0000 0.0000 0.0000 25.2527 0.0000 34.0965
# 5 -34.0965 34.0965 0.0000 0.0000 25.2527 0.0000
# 6 0.0000 0.0000 0.0000 34.0965 0.0000 -70.3426
#
#
#
# Elastic Compliance Matrix: (Units=1/GPa)
#
#
# Indices 1 2 3 4 5 6 
#
# 1 0.008495 0.012791 -0.006906 0.000000 -0.005801 0.000000
# 2 0.012791 0.008495 -0.006906 0.000000 0.005801 0.000000
# 3 -0.006906 -0.006906 0.010337 0.000000 0.000000 0.000000
# 4 0.000000 0.000000 0.000000 0.023935 0.000000 0.011602
# 5 -0.005801 0.005801 0.000000 0.000000 0.023935 0.000000
# 6 0.000000 0.000000 0.000000 0.011602 0.000000 -0.008593
#
#
# Mechanical properties :
#
#
# Convention : Reuss Voigt Hill
#
# Bulk Modulus (GPa) = 39.55162 62.03061 50.79112
# Shear Modulus (GPa) = 64.87137 -11.27452 26.79842
#
# Velocity S-wave (km/s) = 5.70455 -2.37818 3.66648
# Velocity P-wave (km/s) = 7.95172 4.85550 6.58808
#
# Compressibility (1/GPa) = 0.02528341
#
# Stress axis : x y z
#
# Youngs Moduli (GPa) = 117.72024 117.72024 96.73530
#
# Poissons Ratio (x) = -1.50576 0.66809
# Poissons Ratio (y) = -1.50576 0.66809
# Poissons Ratio (z) = 0.81302 0.81302
#
# Static dielectric constant tensor:
#      x y z
#    x 1.716940 0.000000 0.000000 
#    y 0.000000 1.716940 0.000000 
#    z 0.000000 0.000000 1.647610 
# 
# From -- ./inp_files/1306.got.cif
#   From: 2010.05.17/outbox.cif.g08.bks.cpg/sg159_cif.got.tgz:1306.got - 2010.05.20 10:50:30.
