data_PCOD9577032
_publ_section_title
;
Structure prediction by ZEFSAII (Michael W. Deem and Ramdas Pophale) SiO2 
 PCOD9577032
Probable space group: R 3 2
;
_chemical_formula_sum "Si O2"
_cell_formula_units_Z 72
_cell_length_a 14.663031
_cell_length_b 14.663031
_cell_length_c 16.614799
_cell_angle_alpha 90.000000
_cell_angle_beta 90.000000
_cell_angle_gamma 120.000000
_cell_volume 3093.664608
_symmetry_space_group_name_H-M "R 3 2"
_symmetry_group_IT_number 155
_symmetry_cell_setting 'hexagonal'
loop_
_space_group_symop_operation_xyz
x,y,z
-y,x-y,z
-x+y,-x,z
x-y,-y,-z
-x,-x+y,-z
y,x,-z
2/3+x,1/3+y,1/3+z
2/3-y,1/3+x-y,1/3+z
2/3-x+y,1/3-x,1/3+z
2/3+x-y,1/3-y,1/3-z
2/3-x,1/3-x+y,1/3-z
2/3+y,1/3+x,1/3-z
1/3+x,2/3+y,2/3+z
1/3-y,2/3+x-y,2/3+z
1/3-x+y,2/3-x,2/3+z
1/3+x-y,2/3-y,2/3-z
1/3-x,2/3-x+y,2/3-z
1/3+y,2/3+x,2/3-z
loop_
_atom_site_type_symbol
_atom_site_label
_atom_site_fract_x
_atom_site_fract_y
_atom_site_fract_z
Si Si1 0.857808 0.077843 0.129219
Si Si2 0.707410 0.737501 0.086978
Si Si3 0.239642 0.301950 0.583603
Si Si4 0.451050 0.783733 0.963503
O O1 0.822490 0.155823 0.166667
O O2 0.967820 0.163225 0.089967
O O3 0.866283 0.010752 0.202210
O O4 0.754843 0.003391 0.078202
O O5 0.665254 0.666667 0.166667
O O6 0.655246 0.809435 0.087954
O O7 0.680939 0.680939 0.000000
O O8 0.257964 0.257964 0.500000
O O9 0.206921 0.212422 0.652034
O O10 0.334733 0.765981 0.980431
#
# Coordination Sequence:
#
# PCOD9577032 Si02
#       4
#    18  18  18  18
#     4  10  22  44  67 101 139 193 256 305 373 451
#     4  11  25  44  71 102 151 190 253 320 391 458
#     4  11  25  43  73 105 144 195 257 316 386 476
#     4  10  24  43  72 103 156 193 248 311 399 463
#
# _framework density 23.273368999999999
#
# number of rings (size 3 to 8) (size 9 to 14) (size 15 to 20)
#    0.500    1.000    0.000    4.500    3.500    9.000 
#    1.500    0.000    0.000    0.000    0.000    0.000 
#    0.000    0.000    0.000    0.000    0.000    0.000 
#
# Total GULP energy -133850.412707 kJ/mol
# GULP energy per Si atom -5577.100529 kJ/mol
# Density = 2.322040 g / cm^3
# Si number density = 23.273369 Si / 1000 Ang^3
#
#
#
# Elastic Constant Matrix: (Units=GPa)
#
#
# Indices 1 2 3 4 5 6 
#
# 1 86.7146 13.9090 28.9728 3.1133 -0.0002 0.0000
# 2 13.9090 86.7146 28.9728 -3.1133 0.0002 0.0000
# 3 28.9728 28.9728 143.2370 0.0000 0.0000 0.0000
# 4 3.1133 -3.1133 0.0000 35.0455 0.0000 0.0002
# 5 -0.0002 0.0002 0.0000 0.0000 35.0455 3.1133
# 6 0.0000 0.0000 0.0000 0.0002 3.1133 36.4028
#
#
#
# Elastic Compliance Matrix: (Units=1/GPa)
#
#
# Indices 1 2 3 4 5 6 
#
# 1 0.012544 -0.001296 -0.002275 -0.001230 0.000000 0.000000
# 2 -0.001296 0.012544 -0.002275 0.001230 0.000000 0.000000
# 3 -0.002275 -0.002275 0.007902 0.000000 0.000000 0.000000
# 4 -0.001230 0.001230 0.000000 0.028753 0.000000 0.000000
# 5 0.000000 0.000000 0.000000 0.000000 0.028753 -0.002459
# 6 0.000000 0.000000 0.000000 0.000000 -0.002459 0.027681
#
#
# Mechanical properties :
#
#
# Convention : Reuss Voigt Hill
#
# Bulk Modulus (GPa) = 46.95385 51.15286 49.05335
# Shear Modulus (GPa) = 36.50465 37.61954 37.06210
#
# Velocity S-wave (km/s) = 3.96475 4.02483 3.99490
# Velocity P-wave (km/s) = 6.41698 6.60499 6.51167
#
# Compressibility (1/GPa) = 0.02129751
#
# Stress axis : x y z
#
# Youngs Moduli (GPa) = 79.71748 79.71748 126.55255
#
# Poissons Ratio (x) = 0.10332 0.28793
# Poissons Ratio (y) = 0.10332 0.28793
# Poissons Ratio (z) = 0.18137 0.18137
#
# Static dielectric constant tensor:
#      x y z
#    x 1.910170 0.000000 0.000000 
#    y 0.000000 1.910170 0.000000 
#    z 0.000000 0.000000 1.823530 
# 
# From -- ./inp_files/5865.got.cif
#   From: 2010.05.17/outbox.cif.g08.bks.cpg/sg155_3_cif.got.tgz:5865.got - 2010.05.20 10:44:35.
