data_PCOD9577165
_publ_section_title
;
Structure prediction by ZEFSAII (Michael W. Deem and Ramdas Pophale) SiO2 
 PCOD9577165
Probable space group: R 3 2
;
_chemical_formula_sum "Si O2"
_cell_formula_units_Z 54
_cell_length_a 15.035522
_cell_length_b 15.035522
_cell_length_c 13.412725
_cell_angle_alpha 90.000000
_cell_angle_beta 90.000000
_cell_angle_gamma 120.000000
_cell_volume 2625.939240
_symmetry_space_group_name_H-M "R 3 2"
_symmetry_group_IT_number 155
_symmetry_cell_setting 'hexagonal'
loop_
_space_group_symop_operation_xyz
x,y,z
-y,x-y,z
-x+y,-x,z
x-y,-y,-z
-x,-x+y,-z
y,x,-z
2/3+x,1/3+y,1/3+z
2/3-y,1/3+x-y,1/3+z
2/3-x+y,1/3-x,1/3+z
2/3+x-y,1/3-y,1/3-z
2/3-x,1/3-x+y,1/3-z
2/3+y,1/3+x,1/3-z
1/3+x,2/3+y,2/3+z
1/3-y,2/3+x-y,2/3+z
1/3-x+y,2/3-x,2/3+z
1/3+x-y,2/3-y,2/3-z
1/3-x,2/3-x+y,2/3-z
1/3+y,2/3+x,2/3-z
loop_
_atom_site_type_symbol
_atom_site_label
_atom_site_fract_x
_atom_site_fract_y
_atom_site_fract_z
Si Si1 0.074663 0.879642 0.595324
Si Si2 0.393921 0.109543 0.441757
Si Si3 0.119900 0.906165 0.301519
O O1 0.165692 0.857212 0.573664
O O2 0.000000 0.849459 0.500000
O O3 0.996474 0.814298 0.682761
O O4 0.136885 0.998344 0.628975
O O5 0.432630 0.099297 0.333334
O O6 0.470302 0.187983 0.523210
O O7 0.342483 0.000000 0.500000
O O8 0.195125 0.861792 0.333334
#
# Coordination Sequence:
#
# PCOD9577165 Si02
#       3
#    18  18  18
#     4  12  22  38  72 108 144 188 254 311 368 452
#     4  12  22  44  74 105 151 202 245 310 393 457
#     4  12  24  43  68 114 152 190 252 317 383 451
#
# _framework density 20.564069
#
# number of rings (size 3 to 8) (size 9 to 14) (size 15 to 20)
#    0.000    0.000   10.000    1.667    0.000    1.333 
#    0.000    8.333    0.000    0.000    0.000    0.000 
#    0.000    0.000    0.000    0.000    0.000    0.000 
#
# Total GULP energy -100484.404653 kJ/mol
# GULP energy per Si atom -5582.466925 kJ/mol
# Density = 2.051726 g / cm^3
# Si number density = 20.564069 Si / 1000 Ang^3
#
#
#
# Elastic Constant Matrix: (Units=GPa)
#
#
# Indices 1 2 3 4 5 6 
#
# 1 76.6206 15.4937 52.9495 -8.1776 -0.0002 0.0000
# 2 15.4937 76.6206 52.9495 8.1776 0.0002 0.0000
# 3 52.9495 52.9495 165.2108 0.0000 0.0000 0.0000
# 4 -8.1776 8.1776 0.0000 42.6416 0.0000 0.0002
# 5 -0.0002 0.0002 0.0000 0.0000 42.6416 -8.1776
# 6 0.0000 0.0000 0.0000 0.0002 -8.1776 30.5635
#
#
#
# Elastic Compliance Matrix: (Units=1/GPa)
#
#
# Indices 1 2 3 4 5 6 
#
# 1 0.017217 -0.000027 -0.005509 0.003307 0.000000 0.000000
# 2 -0.000027 0.017217 -0.005509 -0.003307 0.000000 0.000000
# 3 -0.005509 -0.005509 0.009584 0.000000 0.000000 0.000000
# 4 0.003307 -0.003307 0.000000 0.024720 0.000000 0.000000
# 5 0.000000 0.000000 0.000000 0.000000 0.024720 0.006614
# 6 0.000000 0.000000 0.000000 0.000000 0.006614 0.034488
#
#
# Mechanical properties :
#
#
# Convention : Reuss Voigt Hill
#
# Bulk Modulus (GPa) = 45.60631 62.35973 53.98302
# Shear Modulus (GPa) = 31.77697 36.30661 34.04179
#
# Velocity S-wave (km/s) = 3.93525 4.20639 4.07308
# Velocity P-wave (km/s) = 6.54783 7.34725 6.95903
#
# Compressibility (1/GPa) = 0.02192679
#
# Stress axis : x y z
#
# Youngs Moduli (GPa) = 58.08206 58.08206 104.33742
#
# Poissons Ratio (x) = 0.00158 0.57482
# Poissons Ratio (y) = 0.00158 0.57482
# Poissons Ratio (z) = 0.31999 0.31999
#
# Static dielectric constant tensor:
#      x y z
#    x 1.768210 0.000000 0.000000 
#    y 0.000000 1.768210 0.000000 
#    z 0.000000 0.000000 1.808290 
# 
# From -- ./inp_files/4625.got.cif
#   From: 2010.05.17/outbox.cif.g08.bks.cpg/sg155_3_cif.got.tgz:4625.got - 2010.05.20 10:44:35.
