data_PCOD9577960
_publ_section_title
;
Structure prediction by ZEFSAII (Michael W. Deem and Ramdas Pophale) SiO2 
 PCOD9577960
Probable space group: P -3 1 M 
;
_chemical_formula_sum "Si O2"
_cell_formula_units_Z 72
_cell_length_a 23.744225
_cell_length_b 23.744225
_cell_length_c 9.409625
_cell_angle_alpha 90.000000
_cell_angle_beta 90.000000
_cell_angle_gamma 120.000000
_cell_volume 4594.295717
_symmetry_space_group_name_H-M "P -3 1 M "
_symmetry_group_IT_number 162
_symmetry_cell_setting 'hexagonal'
loop_
_space_group_symop_operation_xyz
x,y,z
-y,x-y,z
-x+y,-x,z
-y,-x,-z
-x+y,y,-z
x,x-y,-z
-x,-y,-z
y,-x+y,-z
x-y,x,-z
y,x,z
x-y,-y,z
-x,-x+y,z
loop_
_atom_site_type_symbol
_atom_site_label
_atom_site_fract_x
_atom_site_fract_y
_atom_site_fract_z
Si Si1 0.724246 0.797207 0.830356
Si Si2 0.465626 0.799522 0.169006
Si Si3 0.724246 0.927039 0.830356
Si Si4 0.271384 0.865463 0.662704
Si Si5 0.666104 0.200478 0.830994
Si Si6 0.728616 0.594080 0.337296
O O1 0.780840 0.780840 0.799172
O O2 0.739468 0.869734 0.792607
O O3 0.659162 0.746409 0.748212
O O4 0.711724 0.789503 0.000000
O O5 0.528555 0.850215 0.256516
O O6 0.400913 0.801826 0.204483
O O7 0.454603 0.727301 0.196148
O O8 0.478027 0.811404 0.000000
O O9 0.659162 0.912753 0.748211
O O10 0.780840 0.000000 0.799172
O O11 0.203689 0.796311 0.661568
O O12 0.290005 0.885933 0.500000
O O13 0.678340 0.149785 0.743484
#
# Coordination Sequence:
#
# PCOD9577960 Si02
#       6
#    12  12  12  12  12  12
#     4   9  17  30  49  71  93 117 145 176 210 251
#     4   9  16  26  41  61  86 117 153 191 230 272
#     4   9  17  30  49  71  93 117 145 176 210 251
#     4   9  17  28  42  62  88 117 149 185 224 263
#     4   9  16  26  41  61  86 117 153 191 230 272
#     4   9  17  28  42  62  88 117 149 185 224 263
#
# _framework density 15.671607
#
# number of rings (size 3 to 8) (size 9 to 14) (size 15 to 20)
#    0.000    3.000    0.000    1.333    0.000    6.667 
#    0.000    0.000    0.000    3.333    0.000    9.333 
#    0.000    0.000    0.000    8.333    0.000    8.667 
#
# Total GULP energy -400934.913384 kJ/mol
# GULP energy per Si atom -5568.540464 kJ/mol
# Density = 1.563594 g / cm^3
# Si number density = 15.671607 Si / 1000 Ang^3
#
#
#
# Elastic Constant Matrix: (Units=GPa)
#
#
# Indices 1 2 3 4 5 6 
#
# 1 93.3460 55.0395 47.8172 0.0000 0.0000 0.0000
# 2 55.0395 93.3460 47.8172 0.0000 0.0000 0.0000
# 3 47.8172 47.8172 48.6224 0.0000 0.0000 0.0000
# 4 0.0000 0.0000 0.0000 12.1168 0.0000 0.0000
# 5 0.0000 0.0000 0.0000 0.0000 12.1168 0.0000
# 6 0.0000 0.0000 0.0000 0.0000 0.0000 19.1532
#
#
#
# Elastic Compliance Matrix: (Units=1/GPa)
#
#
# Indices 1 2 3 4 5 6 
#
# 1 0.022255 -0.003850 -0.018100 0.000000 0.000000 0.000000
# 2 -0.003850 0.022255 -0.018100 0.000000 0.000000 0.000000
# 3 -0.018100 -0.018100 0.056166 0.000000 0.000000 0.000000
# 4 0.000000 0.000000 0.000000 0.082530 0.000000 0.000000
# 5 0.000000 0.000000 0.000000 0.000000 0.082530 0.000000
# 6 0.000000 0.000000 0.000000 0.000000 0.000000 0.052210
#
#
# Mechanical properties :
#
#
# Convention : Reuss Voigt Hill
#
# Bulk Modulus (GPa) = 48.59851 59.62913 54.11382
# Shear Modulus (GPa) = 12.34857 14.32006 13.33431
#
# Velocity S-wave (km/s) = 2.81010 3.02612 2.92011
# Velocity P-wave (km/s) = 6.45033 7.09518 6.78043
#
# Compressibility (1/GPa) = 0.02057676
#
# Stress axis : x y z
#
# Youngs Moduli (GPa) = 44.93411 44.93411 17.80423
#
# Poissons Ratio (x) = 0.17302 0.32225
# Poissons Ratio (y) = 0.17302 0.32225
# Poissons Ratio (z) = 0.81329 0.81329
#
# Static dielectric constant tensor:
#      x y z
#    x 1.510140 0.000000 0.000000 
#    y 0.000000 1.510140 0.000000 
#    z 0.000000 0.000000 1.526850 
# 
# From -- ./inp_files/1688.got.cif
#   From: 2010.05.17/outbox.cif.g08.bks.cpg/sg162_1_cif.got.tgz:1688.got - 2010.05.20 10:53:12.
