data_PCOD9577882
_publ_section_title
;
Structure prediction by ZEFSAII (Michael W. Deem and Ramdas Pophale) SiO2 
 PCOD9577882
Probable space group: P -3 1 M 
;
_chemical_formula_sum "Si O2"
_cell_formula_units_Z 48
_cell_length_a 14.068094
_cell_length_b 14.068094
_cell_length_c 12.552275
_cell_angle_alpha 90.000000
_cell_angle_beta 90.000000
_cell_angle_gamma 120.000000
_cell_volume 2151.412067
_symmetry_space_group_name_H-M "P -3 1 M "
_symmetry_group_IT_number 162
_symmetry_cell_setting 'hexagonal'
loop_
_space_group_symop_operation_xyz
x,y,z
-y,x-y,z
-x+y,-x,z
-y,-x,-z
-x+y,y,-z
x,x-y,-z
-x,-y,-z
y,-x+y,-z
x-y,x,-z
y,x,z
x-y,-y,z
-x,-x+y,z
loop_
_atom_site_type_symbol
_atom_site_label
_atom_site_fract_x
_atom_site_fract_y
_atom_site_fract_z
Si Si1 0.250659 0.126219 0.738599
Si Si2 0.120693 0.547951 0.756457
Si Si3 0.446641 0.242470 0.877429
Si Si4 0.697360 0.571645 0.426345
O O1 0.152920 0.152920 0.743899
O O2 0.320288 0.162688 0.847543
O O3 0.337293 0.210468 0.652600
O O4 0.204974 0.000000 0.712252
O O5 0.205625 0.514482 0.800185
O O6 0.121863 0.634364 0.841472
O O7 0.140408 0.609376 0.643750
O O8 0.000000 0.442826 0.753257
O O9 0.469954 0.234977 0.000000
O O10 0.770416 0.540831 0.500000
O O11 0.631043 0.631043 0.471871
#
# Coordination Sequence:
#
# PCOD9577882 Si02
#       4
#    12  12  12  12
#     4  10  21  36  55  82 117 157 200 244 291 346
#     4  10  22  39  59  87 120 152 193 246 301 356
#     4  11  22  37  59  85 114 153 199 245 297 355
#     4   9  18  35  60  89 122 159 198 244 299 359
#
# _framework density 22.310925999999998
#
# number of rings (size 3 to 8) (size 9 to 14) (size 15 to 20)
#    0.000    2.000    0.000    5.250    0.000    5.000 
#    0.000    5.000    0.000   19.000    0.000    0.000 
#    0.000    1.000    0.000    0.000    0.000    0.000 
#
# Total GULP energy -268237.839444 kJ/mol
# GULP energy per Si atom -5588.288322 kJ/mol
# Density = 2.226015 g / cm^3
# Si number density = 22.310926 Si / 1000 Ang^3
#
#
#
# Elastic Constant Matrix: (Units=GPa)
#
#
# Indices 1 2 3 4 5 6 
#
# 1 99.4123 34.2032 22.2821 0.0001 2.2833 0.0000
# 2 34.2032 99.4123 22.2821 -0.0001 -2.2833 0.0000
# 3 22.2821 22.2821 66.6647 0.0000 0.0000 0.0000
# 4 0.0001 -0.0001 0.0000 14.0106 0.0000 -2.2833
# 5 2.2833 -2.2833 0.0000 0.0000 14.0106 0.0001
# 6 0.0000 0.0000 0.0000 -2.2833 0.0001 32.6046
#
#
#
# Elastic Compliance Matrix: (Units=1/GPa)
#
#
# Indices 1 2 3 4 5 6 
#
# 1 0.011968 -0.003545 -0.002815 0.000000 -0.002528 0.000000
# 2 -0.003545 0.011968 -0.002815 0.000000 0.002528 0.000000
# 3 -0.002815 -0.002815 0.016882 0.000000 0.000000 0.000000
# 4 0.000000 0.000000 0.000000 0.072198 0.000000 0.005056
# 5 -0.002528 0.002528 0.000000 0.000000 0.072198 0.000000
# 6 0.000000 0.000000 0.000000 0.005056 0.000000 0.031025
#
#
# Mechanical properties :
#
#
# Convention : Reuss Voigt Hill
#
# Bulk Modulus (GPa) = 44.50909 47.00267 45.75588
# Shear Modulus (GPa) = 20.65440 24.57328 22.61384
#
# Velocity S-wave (km/s) = 3.04592 3.32234 3.18713
# Velocity P-wave (km/s) = 5.68884 5.98582 5.83922
#
# Compressibility (1/GPa) = 0.02246732
#
# Stress axis : x y z
#
# Youngs Moduli (GPa) = 83.55797 83.55797 59.23301
#
# Poissons Ratio (x) = 0.29618 0.16676
# Poissons Ratio (y) = 0.29618 0.16676
# Poissons Ratio (z) = 0.23525 0.23525
#
# Static dielectric constant tensor:
#      x y z
#    x 1.814490 0.000000 0.000000 
#    y 0.000000 1.814490 0.000000 
#    z 0.000000 0.000000 1.845240 
# 
# From -- ./inp_files/2054.got.cif
#   From: 2010.05.17/outbox.cif.g08.bks.cpg/sg162_2_cif.got.tgz:2054.got - 2010.05.20 10:53:12.
