data_PCOD9577093
_publ_section_title
;
Structure prediction by ZEFSAII (Michael W. Deem and Ramdas Pophale) SiO2 
 PCOD9577093
Probable space group: R 3 2
;
_chemical_formula_sum "Si O2"
_cell_formula_units_Z 27
_cell_length_a 14.902106
_cell_length_b 14.902106
_cell_length_c 5.001606
_cell_angle_alpha 90.000000
_cell_angle_beta 90.000000
_cell_angle_gamma 120.000000
_cell_volume 961.912139
_symmetry_space_group_name_H-M "R 3 2"
_symmetry_group_IT_number 155
_symmetry_cell_setting 'hexagonal'
loop_
_space_group_symop_operation_xyz
x,y,z
-y,x-y,z
-x+y,-x,z
x-y,-y,-z
-x,-x+y,-z
y,x,-z
2/3+x,1/3+y,1/3+z
2/3-y,1/3+x-y,1/3+z
2/3-x+y,1/3-x,1/3+z
2/3+x-y,1/3-y,1/3-z
2/3-x,1/3-x+y,1/3-z
2/3+y,1/3+x,1/3-z
1/3+x,2/3+y,2/3+z
1/3-y,2/3+x-y,2/3+z
1/3-x+y,2/3-x,2/3+z
1/3+x-y,2/3-y,2/3-z
1/3-x,2/3-x+y,2/3-z
1/3+y,2/3+x,2/3-z
loop_
_atom_site_type_symbol
_atom_site_label
_atom_site_fract_x
_atom_site_fract_y
_atom_site_fract_z
Si Si1 0.809902 0.593761 0.423117
Si Si2 0.118768 0.000000 0.500000
O O1 0.879903 0.666667 0.666667
O O2 0.849725 0.516392 0.333334
O O3 0.700167 0.528064 0.581921
O O4 0.828133 0.666667 0.166667
O O5 0.000000 0.905844 0.500000
#
# Coordination Sequence:
#
# PCOD9577093 Si02
#       2
#    18   9
#     4  12  26  48  82 126 173 224 288 361 433 513
#     4  10  26  50  84 126 176 230 290 350 434 522
#
# _framework density 28.069092999999999
#
# number of rings (size 3 to 8) (size 9 to 14) (size 15 to 20)
#    0.667    0.000    0.000    8.000    0.000   10.667 
#    0.000    0.000   22.000    4.000    0.000    0.000 
#    0.000    0.000    0.000    0.000    0.000    0.000 
#
# Total GULP energy -50263.392996 kJ/mol
# GULP energy per Si atom -5584.821444 kJ/mol
# Density = 2.800521 g / cm^3
# Si number density = 28.069093 Si / 1000 Ang^3
#
#
#
# Elastic Constant Matrix: (Units=GPa)
#
#
# Indices 1 2 3 4 5 6 
#
# 1 106.5215 116.4550 107.9095 -35.3182 -0.0110 -0.0045
# 2 116.4550 106.5505 107.9699 35.3319 0.0208 0.0131
# 3 107.9095 107.9699 383.3735 0.0286 -0.0069 0.0071
# 4 -35.3182 35.3319 0.0286 40.5734 0.0238 0.0051
# 5 -0.0110 0.0208 -0.0069 0.0238 40.5681 -35.3132
# 6 -0.0045 0.0131 0.0071 0.0051 -35.3132 -4.9341
#
#
#
# Elastic Compliance Matrix: (Units=1/GPa)
#
#
# Indices 1 2 3 4 5 6 
#
# 1 -0.003917 0.010082 -0.001736 -0.012189 0.000002 0.000001
# 2 0.010082 -0.003917 -0.001736 0.012189 -0.000001 0.000001
# 3 -0.001736 -0.001736 0.003586 -0.000002 0.000000 -0.000001
# 4 -0.012189 0.012189 -0.000002 0.003423 0.000004 0.000018
# 5 0.000002 -0.000001 0.000000 0.000004 0.003409 -0.024401
# 6 0.000001 0.000001 -0.000001 0.000018 -0.024401 -0.028032
#
#
# Mechanical properties :
#
#
# Convention : Reuss Voigt Hill
#
# Bulk Modulus (GPa) = 111.45017 140.12379 125.78698
# Shear Modulus (GPa) = -140.13375 32.84889 -53.64243
#
# Velocity S-wave (km/s) = -7.07340 3.42466 -4.37634
# Velocity P-wave (km/s) = 5.18833 8.10352 4.40161
#
# Compressibility (1/GPa) = 0.00897262
#
# Stress axis : x y z
#
# Youngs Moduli (GPa) = -255.27209 -255.26812 278.87620
#
# Poissons Ratio (x) = 2.57368 0.48411
# Poissons Ratio (y) = 2.57372 0.48400
# Poissons Ratio (z) = -0.44314 -0.44303
#
# Static dielectric constant tensor:
#      x y z
#    x 2.469820 0.000010 0.000030 
#    y 0.000010 2.469840 0.000150 
#    z 0.000030 0.000150 2.573210 
# 
# From -- ./inp_files/175.got.cif
#   From: 2010.05.17/outbox.cif.g08.bks.cpg/sg155_1_cif.got.tgz:175.got - 2010.05.20 10:44:35.
