data_PCOD9577871
_publ_section_title
;
Structure prediction by ZEFSAII (Michael W. Deem and Ramdas Pophale) SiO2 
 PCOD9577871
Probable space group: P -3 1 M 
;
_chemical_formula_sum "Si O2"
_cell_formula_units_Z 64
_cell_length_a 14.986081
_cell_length_b 14.986081
_cell_length_c 17.408743
_cell_angle_alpha 90.000000
_cell_angle_beta 90.000000
_cell_angle_gamma 120.000000
_cell_volume 3385.900542
_symmetry_space_group_name_H-M "P -3 1 M "
_symmetry_group_IT_number 162
_symmetry_cell_setting 'hexagonal'
loop_
_space_group_symop_operation_xyz
x,y,z
-y,x-y,z
-x+y,-x,z
-y,-x,-z
-x+y,y,-z
x,x-y,-z
-x,-y,-z
y,-x+y,-z
x-y,x,-z
y,x,z
x-y,-y,z
-x,-x+y,z
loop_
_atom_site_type_symbol
_atom_site_label
_atom_site_fract_x
_atom_site_fract_y
_atom_site_fract_z
Si Si1 0.774392 0.240196 0.806135
Si Si2 0.875427 0.755506 0.244453
Si Si3 0.333334 0.666668 0.908815
Si Si4 0.651091 0.177492 0.443104
Si Si5 0.115490 0.815499 0.412541
Si Si6 0.444836 0.567201 0.289718
O O1 0.832843 0.175414 0.812513
O O2 0.729755 0.279275 0.875150
O O3 0.673204 0.167318 0.755944
O O4 0.851036 0.344178 0.760051
O O5 0.828276 0.828276 0.226433
O O6 0.837735 0.711593 0.332398
O O7 0.000000 0.818070 0.242765
O O8 0.333334 0.666667 0.000000
O O9 0.729812 0.270189 0.500000
O O10 0.556665 0.113330 0.500000
O O11 0.713404 0.124633 0.412352
O O12 0.597698 0.189052 0.367384
O O13 0.146821 0.853180 0.500000
O O14 0.000000 0.790393 0.407621
O O15 0.512946 0.512946 0.304782
#
# Coordination Sequence:
#
# PCOD9577871 Si02
#       6
#    12  12   4  12  12  12
#     4  10  21  38  62  92 124 155 193 234 293 354
#     4  11  22  39  61  86 118 162 216 269 312 350
#     4   9  21  42  72 105 136 161 181 210 273 363
#     4  11  22  33  46  68 105 149 201 255 312 369
#     4  10  21  35  48  69 102 146 202 265 320 364
#     4  11  21  36  56  81 113 155 199 248 306 363
#
# _framework density 18.901911999999999
#
# number of rings (size 3 to 8) (size 9 to 14) (size 15 to 20)
#    0.000    1.500    1.875    4.125    2.625    1.500 
#    0.000    0.000    0.000   23.250    0.000    0.000 
#    0.000    1.500    0.000    0.000    0.000    0.000 
#
# Total GULP energy -356387.912377 kJ/mol
# GULP energy per Si atom -5568.561131 kJ/mol
# Density = 1.885889 g / cm^3
# Si number density = 18.901912 Si / 1000 Ang^3
#
#
#
# Elastic Constant Matrix: (Units=GPa)
#
#
# Indices 1 2 3 4 5 6 
#
# 1 100.2773 49.0317 36.4496 -0.0002 -0.3119 -0.0001
# 2 49.0317 100.2773 36.4498 0.0001 0.3118 -0.0001
# 3 36.4496 36.4498 107.3246 -0.0003 -0.0002 -0.0001
# 4 -0.0002 0.0001 -0.0003 7.0232 0.0000 0.3119
# 5 -0.3119 0.3118 -0.0002 0.0000 7.0233 0.0000
# 6 -0.0001 -0.0001 -0.0001 0.3119 0.0000 25.6227
#
#
#
# Elastic Compliance Matrix: (Units=1/GPa)
#
#
# Indices 1 2 3 4 5 6 
#
# 1 0.013777 -0.005748 -0.002727 0.000000 0.000867 0.000000
# 2 -0.005748 0.013777 -0.002727 0.000000 -0.000867 0.000000
# 3 -0.002727 -0.002727 0.011170 0.000001 0.000000 0.000000
# 4 0.000000 0.000000 0.000001 0.142461 0.000000 -0.001734
# 5 0.000867 -0.000867 0.000000 0.000000 0.142460 0.000000
# 6 0.000000 0.000000 0.000000 -0.001734 0.000000 0.039049
#
#
# Mechanical properties :
#
#
# Convention : Reuss Voigt Hill
#
# Bulk Modulus (GPa) = 61.27338 61.30458 61.28898
# Shear Modulus (GPa) = 12.80290 20.33039 16.56665
#
# Velocity S-wave (km/s) = 2.60539 3.28315 2.96371
# Velocity P-wave (km/s) = 6.44497 6.84657 6.64880
#
# Compressibility (1/GPa) = 0.01632030
#
# Stress axis : x y z
#
# Youngs Moduli (GPa) = 72.58668 72.58663 89.52822
#
# Poissons Ratio (x) = 0.41721 0.24412
# Poissons Ratio (y) = 0.41721 0.24412
# Poissons Ratio (z) = 0.19793 0.19793
#
# Static dielectric constant tensor:
#      x y z
#    x 1.696490 0.000000 0.000000 
#    y 0.000000 1.696490 0.000000 
#    z 0.000000 0.000000 1.678960 
# 
# From -- ./inp_files/3473.got.cif
#   From: 2010.05.17/outbox.cif.g08.bks.cpg/sg162_2_cif.got.tgz:3473.got - 2010.05.20 10:53:12.
