data_PCOD9577147
_publ_section_title
;
Structure prediction by ZEFSAII (Michael W. Deem and Ramdas Pophale) SiO2 
 PCOD9577147
Probable space group: R 3 2
;
_chemical_formula_sum "Si O2"
_cell_formula_units_Z 51
_cell_length_a 16.791674
_cell_length_b 16.791674
_cell_length_c 7.302816
_cell_angle_alpha 90.000000
_cell_angle_beta 90.000000
_cell_angle_gamma 120.000000
_cell_volume 1783.236637
_symmetry_space_group_name_H-M "R 3 2"
_symmetry_group_IT_number 155
_symmetry_cell_setting 'hexagonal'
loop_
_space_group_symop_operation_xyz
x,y,z
-y,x-y,z
-x+y,-x,z
x-y,-y,-z
-x,-x+y,-z
y,x,-z
2/3+x,1/3+y,1/3+z
2/3-y,1/3+x-y,1/3+z
2/3-x+y,1/3-x,1/3+z
2/3+x-y,1/3-y,1/3-z
2/3-x,1/3-x+y,1/3-z
2/3+y,1/3+x,1/3-z
1/3+x,2/3+y,2/3+z
1/3-y,2/3+x-y,2/3+z
1/3-x+y,2/3-x,2/3+z
1/3+x-y,2/3-y,2/3-z
1/3-x,2/3-x+y,2/3-z
1/3+y,2/3+x,2/3-z
loop_
_atom_site_type_symbol
_atom_site_label
_atom_site_fract_x
_atom_site_fract_y
_atom_site_fract_z
Si Si1 0.666667 0.333335 0.610441
Si Si2 0.000000 0.511537 0.000000
Si Si3 0.210296 0.979739 0.797612
Si Si4 0.506866 0.853849 0.384970
O O1 0.676210 0.247441 0.553231
O O2 0.666668 0.333334 0.833334
O O3 0.083438 0.486298 0.999446
O O4 0.940340 0.544797 0.126029
O O5 0.290143 0.956810 0.833334
O O6 0.123451 0.883661 0.735900
O O7 0.187370 0.000000 0.000000
O O8 0.521111 0.854444 0.166667
#
# Coordination Sequence:
#
# PCOD9577147 Si02
#       4
#     6   9  18  18
#     4   9  18  39  67  98 133 192 265 314 388 480
#     4  12  26  46  76 112 156 216 272 344 432 498
#     4  12  26  46  79 114 159 217 284 343 424 516
#     4  11  24  44  74 110 153 209 273 339 426 506
#
# _framework density 28.599679999999999
#
# number of rings (size 3 to 8) (size 9 to 14) (size 15 to 20)
#    0.000    0.706    5.294    2.118    0.000    2.824 
#    0.000    0.000    0.000    0.000    0.000    0.000 
#    0.000    0.000    0.000    0.000    0.000    0.000 
#
# Total GULP energy -94655.628806 kJ/mol
# GULP energy per Si atom -5567.978165 kJ/mol
# Density = 2.853459 g / cm^3
# Si number density = 28.599680 Si / 1000 Ang^3
#
#
#
# Elastic Constant Matrix: (Units=GPa)
#
#
# Indices 1 2 3 4 5 6 
#
# 1 177.4032 42.7229 30.3070 7.0204 0.0001 0.0000
# 2 42.7229 177.3992 30.3066 -7.0204 0.0002 0.0001
# 3 30.3070 30.3066 112.9898 0.0003 0.0018 0.0003
# 4 7.0204 -7.0204 0.0003 38.7300 0.0002 0.0001
# 5 0.0001 0.0002 0.0018 0.0002 38.7309 7.0204
# 6 0.0000 0.0001 0.0003 0.0001 7.0204 67.3396
#
#
#
# Elastic Compliance Matrix: (Units=1/GPa)
#
#
# Indices 1 2 3 4 5 6 
#
# 1 0.006237 -0.001331 -0.001316 -0.001372 0.000000 0.000000
# 2 -0.001331 0.006237 -0.001316 0.001372 0.000000 0.000000
# 3 -0.001316 -0.001316 0.009556 0.000000 0.000000 0.000000
# 4 -0.001372 0.001372 0.000000 0.026317 0.000000 0.000000
# 5 0.000000 0.000000 0.000000 0.000000 0.026317 -0.002744
# 6 0.000000 0.000000 0.000000 0.000000 -0.002744 0.015136
#
#
# Mechanical properties :
#
#
# Convention : Reuss Voigt Hill
#
# Bulk Modulus (GPa) = 70.90318 74.94059 72.92189
# Shear Modulus (GPa) = 48.81563 53.25714 51.03639
#
# Velocity S-wave (km/s) = 4.13590 4.31996 4.22893
# Velocity P-wave (km/s) = 6.90311 7.15142 7.02836
#
# Compressibility (1/GPa) = 0.01410374
#
# Stress axis : x y z
#
# Youngs Moduli (GPa) = 160.34427 160.34056 104.64452
#
# Poissons Ratio (x) = 0.21349 0.13768
# Poissons Ratio (y) = 0.21349 0.13768
# Poissons Ratio (z) = 0.21096 0.21096
#
# Static dielectric constant tensor:
#      x y z
#    x 2.309480 0.000000 0.000000 
#    y 0.000000 2.309470 0.000000 
#    z 0.000000 0.000000 2.434770 
# 
# From -- ./inp_files/1699.got.cif
#   From: 2010.05.17/outbox.cif.g08.bks.cpg/sg155_1_cif.got.tgz:1699.got - 2010.05.20 10:44:35.
