data_PCOD9577695
_publ_section_title
;
Structure prediction by ZEFSAII (Michael W. Deem and Ramdas Pophale) SiO2 
 PCOD9577695
Probable space group: P -3 1 M 
;
_chemical_formula_sum "Si O2"
_cell_formula_units_Z 96
_cell_length_a 24.386963
_cell_length_b 24.386963
_cell_length_c 12.233671
_cell_angle_alpha 90.000000
_cell_angle_beta 90.000000
_cell_angle_gamma 120.000000
_cell_volume 6300.904065
_symmetry_space_group_name_H-M "P -3 1 M "
_symmetry_group_IT_number 162
_symmetry_cell_setting 'hexagonal'
loop_
_space_group_symop_operation_xyz
x,y,z
-y,x-y,z
-x+y,-x,z
-y,-x,-z
-x+y,y,-z
x,x-y,-z
-x,-y,-z
y,-x+y,-z
x-y,x,-z
y,x,z
x-y,-y,z
-x,-x+y,z
loop_
_atom_site_type_symbol
_atom_site_label
_atom_site_fract_x
_atom_site_fract_y
_atom_site_fract_z
Si Si1 0.682700 0.194348 1.000000
Si Si2 0.514482 0.149077 0.762062
Si Si3 0.882563 0.640567 1.000000
Si Si4 0.289584 0.927022 0.238436
Si Si5 0.289584 0.362562 0.238437
Si Si6 0.181416 0.818584 0.375341
Si Si7 0.149078 0.514483 0.237937
Si Si8 0.483681 0.741840 0.375467
O O1 0.725381 0.160928 0.999998
O O2 0.645155 0.171683 0.887802
O O3 0.730675 0.269325 0.000000
O O4 0.645156 0.171682 0.112198
O O5 0.438859 0.101941 0.751730
O O6 0.561188 0.122376 0.733941
O O7 0.533022 0.211204 0.689288
O O8 0.920589 0.654394 0.887294
O O9 0.833253 0.666506 0.000000
O O10 0.920588 0.654393 0.112706
O O11 0.227869 0.882418 0.310479
O O12 0.336918 0.898058 0.248268
O O13 0.325821 0.000000 0.271668
O O14 0.325820 0.325820 0.271668
O O15 0.227868 0.345451 0.310479
O O16 0.169957 0.830044 0.500000
O O17 0.219782 0.780218 0.377865
O O18 0.211204 0.533023 0.310712
O O19 0.460310 0.730155 0.500000
#
# Coordination Sequence:
#
# PCOD9577695 Si02
#       8
#    12  12  12  12  12  12  12  12
#     4   9  15  28  47  63  82 113 153 192 236 295
#     4  10  19  31  47  66  91 120 152 198 254 301
#     4   9  15  28  49  70  94 123 154 188 228 278
#     4  10  19  31  50  74  97 125 160 195 235 288
#     4  10  19  31  50  74  97 125 160 195 235 288
#     4   9  18  33  51  69  91 122 158 194 231 275
#     4  10  19  31  47  66  91 120 152 198 254 301
#     4   9  18  33  49  61  79 114 157 196 239 294
#
# _framework density 15.235908999999999
#
# number of rings (size 3 to 8) (size 9 to 14) (size 15 to 20)
#    0.000    2.500    2.500    0.750    0.000    1.500 
#    0.750    0.000    0.000    4.500    0.000    7.000 
#    0.000    0.000    0.000    0.375    0.000    3.250 
#
# Total GULP energy -534484.107400 kJ/mol
# GULP energy per Si atom -5567.542785 kJ/mol
# Density = 1.520123 g / cm^3
# Si number density = 15.235909 Si / 1000 Ang^3
#
#
#
# Elastic Constant Matrix: (Units=GPa)
#
#
# Indices 1 2 3 4 5 6 
#
# 1 73.5948 56.7703 37.4007 0.0000 -0.0002 0.0000
# 2 56.7703 73.5948 37.4007 0.0000 0.0002 0.0000
# 3 37.4007 37.4007 112.6392 0.0000 0.0000 0.0000
# 4 0.0000 0.0000 0.0000 19.7104 0.0000 0.0002
# 5 -0.0002 0.0002 0.0000 0.0000 19.7104 0.0000
# 6 0.0000 0.0000 0.0000 0.0002 0.0000 8.4123
#
#
#
# Elastic Compliance Matrix: (Units=1/GPa)
#
#
# Indices 1 2 3 4 5 6 
#
# 1 0.034457 -0.024980 -0.003146 0.000000 0.000001 0.000000
# 2 -0.024980 0.034457 -0.003146 0.000000 -0.000001 0.000000
# 3 -0.003146 -0.003146 0.010967 0.000000 0.000000 0.000000
# 4 0.000000 0.000000 0.000000 0.050735 0.000000 -0.000001
# 5 0.000001 -0.000001 0.000000 0.000000 0.050735 0.000000
# 6 0.000000 0.000000 0.000000 -0.000001 0.000000 0.118874
#
#
# Mechanical properties :
#
#
# Convention : Reuss Voigt Hill
#
# Bulk Modulus (GPa) = 57.69053 58.10803 57.89928
# Shear Modulus (GPa) = 13.56674 18.11707 15.84190
#
# Velocity S-wave (km/s) = 2.98727 3.45208 3.22805
# Velocity P-wave (km/s) = 7.06013 7.35600 7.20958
#
# Compressibility (1/GPa) = 0.01733387
#
# Stress axis : x y z
#
# Youngs Moduli (GPa) = 29.02206 29.02206 91.17924
#
# Poissons Ratio (x) = 0.72498 0.28689
# Poissons Ratio (y) = 0.72498 0.28689
# Poissons Ratio (z) = 0.09132 0.09132
#
# Static dielectric constant tensor:
#      x y z
#    x 1.496210 0.000000 0.000000 
#    y 0.000000 1.496210 0.000000 
#    z 0.000000 0.000000 1.524400 
# 
# From -- ./inp_files/2669.got.cif
#   From: 2010.05.17/outbox.cif.g08.bks.cpg/sg162_2_cif.got.tgz:2669.got - 2010.05.20 10:53:12.
