data_PCOD9577486
_publ_section_title
;
Structure prediction by ZEFSAII (Michael W. Deem and Ramdas Pophale) SiO2 
 PCOD9577486
Probable space group: R 3 M
;
_chemical_formula_sum "Si O2"
_cell_formula_units_Z 108
_cell_length_a 18.305731
_cell_length_b 18.305731
_cell_length_c 17.262719
_cell_angle_alpha 90.000000
_cell_angle_beta 90.000000
_cell_angle_gamma 120.000000
_cell_volume 5009.726137
_symmetry_space_group_name_H-M "R 3 M"
_symmetry_group_IT_number 160
_symmetry_cell_setting 'hexagonal'
loop_
_space_group_symop_operation_xyz
x,y,z
-y,x-y,z
-x+y,-x,z
-x+y,y,z
x,x-y,z
-y,-x,z
2/3+x,1/3+y,1/3+z
2/3-y,1/3+x-y,1/3+z
2/3-x+y,1/3-x,1/3+z
2/3-x+y,1/3+y,1/3+z
2/3+x,1/3+x-y,1/3+z
2/3-y,1/3-x,1/3+z
1/3+x,2/3+y,2/3+z
1/3-y,2/3+x-y,2/3+z
1/3-x+y,2/3-x,2/3+z
1/3-x+y,2/3+y,2/3+z
1/3+x,2/3+x-y,2/3+z
1/3-y,2/3-x,2/3+z
loop_
_atom_site_type_symbol
_atom_site_label
_atom_site_fract_x
_atom_site_fract_y
_atom_site_fract_z
Si Si1 0.076369 0.761537 0.916145
Si Si2 0.504305 0.837389 0.883880
Si Si3 0.232728 0.035481 0.039793
Si Si4 0.368818 0.899401 0.340029
Si Si5 0.428202 0.018499 0.130341
Si Si6 0.495696 0.162612 0.829277
O O1 0.159317 0.840684 0.880352
O O2 0.104674 0.692941 0.933535
O O3 0.045453 0.793864 0.987757
O O4 1.000000 0.722594 0.856577
O O5 0.424757 0.849514 0.897635
O O6 0.480114 0.740057 0.895531
O O7 0.537871 0.861273 0.795036
O O8 0.200229 0.100115 0.016979
O O9 0.333331 0.087261 0.023244
O O10 0.433451 0.866901 0.362846
O O11 0.287881 0.872807 0.392062
O O12 0.343270 0.871208 0.251453
O O13 0.507350 0.014699 0.166132
O O14 0.359605 0.921598 0.112953
O O15 0.575243 0.150486 0.815525
O O16 0.519888 0.259944 0.817624
#
# Coordination Sequence:
#
# PCOD9577486 Si02
#       6
#    18  18  18  18  18  18
#     4  11  21  35  56  82 113 146 182 228 279 332
#     4  10  21  37  59  84 113 148 188 234 281 333
#     4  10  19  36  57  81 111 144 187 233 278 327
#     4  10  19  36  57  81 111 144 187 233 278 327
#     4  11  21  35  56  82 113 146 182 228 279 332
#     4  10  21  37  59  84 113 148 188 234 281 333
#
# _framework density 21.558064999999999
#
# number of rings (size 3 to 8) (size 9 to 14) (size 15 to 20)
#    0.000    1.667    3.333    2.333    0.000    0.667 
#    0.000    0.000    0.000    8.000    0.000    0.000 
#    0.000    6.667    0.000    0.000    0.000    0.000 
#
# Total GULP energy -201007.688151 kJ/mol
# GULP energy per Si atom -5583.546893 kJ/mol
# Density = 2.150900 g / cm^3
# Si number density = 21.558065 Si / 1000 Ang^3
#
#
#
# Elastic Constant Matrix: (Units=GPa)
#
#
# Indices 1 2 3 4 5 6 
#
# 1 121.4119 82.1477 33.9025 -10.6293 0.0004 0.0000
# 2 82.1477 121.4119 33.9025 10.6293 -0.0004 0.0000
# 3 33.9025 33.9025 57.6112 0.0000 0.0000 0.0000
# 4 -10.6293 10.6293 0.0000 11.0861 0.0000 -0.0004
# 5 0.0004 -0.0004 0.0000 0.0000 11.0861 -10.6293
# 6 0.0000 0.0000 0.0000 -0.0004 -10.6293 19.6321
#
#
#
# Elastic Compliance Matrix: (Units=1/GPa)
#
#
# Indices 1 2 3 4 5 6 
#
# 1 0.029536 -0.023426 -0.003596 0.050780 -0.000002 0.000000
# 2 -0.023426 0.029536 -0.003596 -0.050780 0.000002 0.000000
# 3 -0.003596 -0.003596 0.021590 0.000000 0.000000 0.000000
# 4 0.050780 -0.050780 0.000000 0.187579 0.000000 0.000004
# 5 -0.000002 0.000002 0.000000 0.000000 0.187579 0.101560
# 6 0.000000 0.000000 0.000000 0.000004 0.101560 0.105924
#
#
# Mechanical properties :
#
#
# Convention : Reuss Voigt Hill
#
# Bulk Modulus (GPa) = 51.47380 66.70451 59.08916
# Shear Modulus (GPa) = 7.94338 18.39299 13.16818
#
# Velocity S-wave (km/s) = 1.92162 2.92410 2.47417
# Velocity P-wave (km/s) = 5.37142 6.51225 5.96915
#
# Compressibility (1/GPa) = 0.01942736
#
# Stress axis : x y z
#
# Youngs Moduli (GPa) = 33.85674 33.85674 46.31843
#
# Poissons Ratio (x) = 0.79313 0.16655
# Poissons Ratio (y) = 0.79313 0.16655
# Poissons Ratio (z) = 0.12174 0.12174
#
# Static dielectric constant tensor:
#      x y z
#    x 1.789180 0.000000 0.000000 
#    y 0.000000 1.789180 0.000000 
#    z 0.000000 0.000000 1.835670 
# 
# From -- ./inp_files/3337.got.cif
#   From: 2010.05.17/outbox.cif.g08.bks.cpg/sg160_2_cif.got.tgz:3337.got - 2010.05.20 10:51:19.
