data_PCOD9577546
_publ_section_title
;
Structure prediction by ZEFSAII (Michael W. Deem and Ramdas Pophale) SiO2 
 PCOD9577546
Probable space group: R 3 C
;
_chemical_formula_sum "Si O2"
_cell_formula_units_Z 120
_cell_length_a 21.412954
_cell_length_b 21.412954
_cell_length_c 14.181425
_cell_angle_alpha 90.000000
_cell_angle_beta 90.000000
_cell_angle_gamma 120.000000
_cell_volume 5631.235269
_symmetry_space_group_name_H-M "R 3 C"
_symmetry_group_IT_number 161
_symmetry_cell_setting 'hexagonal'
loop_
_space_group_symop_operation_xyz
x,y,z
-y,x-y,z
-x+y,-x,z
-x+y,y,1/2+z
x,x-y,1/2+z
-y,-x,1/2+z
2/3+x,1/3+y,1/3+z
2/3-y,1/3+x-y,1/3+z
2/3-x+y,1/3-x,1/3+z
2/3-x+y,1/3+y,5/6+z
2/3+x,1/3+x-y,5/6+z
2/3-y,1/3-x,5/6+z
1/3+x,2/3+y,2/3+z
1/3-y,2/3+x-y,2/3+z
1/3-x+y,2/3-x,2/3+z
1/3-x+y,2/3+y,1/6+z
1/3+x,2/3+x-y,1/6+z
1/3-y,2/3-x,1/6+z
loop_
_atom_site_type_symbol
_atom_site_label
_atom_site_fract_x
_atom_site_fract_y
_atom_site_fract_z
Si Si1 0.863288 0.231738 0.522158
Si Si2 0.133892 0.770196 0.896037
Si Si3 0.000000 0.000000 0.498004
Si Si4 0.612148 0.038102 0.055800
Si Si5 0.090984 0.675186 0.579209
Si Si6 0.000000 0.000000 0.224861
Si Si7 0.372410 0.577963 0.525584
Si Si8 0.096965 0.615747 0.924128
O O1 0.868963 0.214508 0.631260
O O2 0.895120 0.317352 0.509346
O O3 0.919563 0.214676 0.472070
O O4 0.778007 0.183930 0.508962
O O5 0.213728 0.830742 0.922566
O O6 0.131929 0.695580 0.884844
O O7 0.066309 0.761600 0.957661
O O8 0.920838 0.951870 0.450305
O O9 0.000000 0.000000 0.611573
O O10 0.576227 0.971021 0.986112
O O11 0.643687 0.030052 0.155088
O O12 0.155763 0.662446 0.547013
O O13 0.003246 0.070569 0.272824
O O14 0.454268 0.606363 0.492288
#
# Coordination Sequence:
#
# PCOD9577546 Si02
#       8
#    18  18   6  18  18   6  18  18
#     4  10  22  40  61  92 133 167 227 274 337 420
#     4  10  22  37  65  88 129 171 224 267 342 409
#     4  10  26  49  67 107 130 181 242 274 343 425
#     4  10  20  39  61  88 128 172 212 274 337 393
#     4  11  21  41  61  95 132 171 221 281 332 412
#     4  10  26  49  70  92 139 181 224 292 346 407
#     4  10  22  44  71  96 138 174 229 286 333 408
#     4  11  21  41  64  96 129 181 217 278 348 400
#
# _framework density 21.309712999999999
#
# number of rings (size 3 to 8) (size 9 to 14) (size 15 to 20)
#    0.000    1.800    6.000    0.000    4.200    2.400 
#    5.400    0.000    0.000    0.000    0.000    0.000 
#    0.000    0.000    0.000    0.000    0.000    0.000 
#
# Total GULP energy -222811.596217 kJ/mol
# GULP energy per Si atom -5570.289905 kJ/mol
# Density = 2.126121 g / cm^3
# Si number density = 21.309713 Si / 1000 Ang^3
#
#
#
# Elastic Constant Matrix: (Units=GPa)
#
#
# Indices 1 2 3 4 5 6 
#
# 1 122.8627 59.1309 22.5320 10.2003 0.0000 0.0000
# 2 59.1309 122.8627 22.5320 -10.2003 0.0000 0.0000
# 3 22.5320 22.5320 59.8766 0.0000 0.0000 0.0000
# 4 10.2003 -10.2003 0.0000 21.6252 0.0000 0.0000
# 5 0.0000 0.0000 0.0000 0.0000 21.6252 10.2003
# 6 0.0000 0.0000 0.0000 0.0000 10.2003 31.8659
#
#
#
# Elastic Compliance Matrix: (Units=1/GPa)
#
#
# Indices 1 2 3 4 5 6 
#
# 1 0.012270 -0.006211 -0.002280 -0.008717 0.000000 0.000000
# 2 -0.006211 0.012270 -0.002280 0.008717 0.000000 0.000000
# 3 -0.002280 -0.002280 0.018417 0.000000 0.000000 0.000000
# 4 -0.008717 0.008717 0.000000 0.054466 0.000000 0.000000
# 5 0.000000 0.000000 0.000000 0.000000 0.054466 -0.017435
# 6 0.000000 0.000000 0.000000 0.000000 -0.017435 0.036962
#
#
# Mechanical properties :
#
#
# Convention : Reuss Voigt Hill
#
# Bulk Modulus (GPa) = 46.69611 57.11021 51.90316
# Shear Modulus (GPa) = 22.98506 28.45042 25.71774
#
# Velocity S-wave (km/s) = 3.28780 3.65785 3.47775
# Velocity P-wave (km/s) = 6.03104 6.68567 6.36677
#
# Compressibility (1/GPa) = 0.02141506
#
# Stress axis : x y z
#
# Youngs Moduli (GPa) = 81.49809 81.49809 54.29737
#
# Poissons Ratio (x) = 0.50618 0.12381
# Poissons Ratio (y) = 0.50618 0.12381
# Poissons Ratio (z) = 0.18583 0.18583
#
# Static dielectric constant tensor:
#      x y z
#    x 1.828520 0.000000 0.000000 
#    y 0.000000 1.828520 0.000000 
#    z 0.000000 0.000000 1.804490 
# 
# From -- ./inp_files/1469.got.cif
#   From: 2010.05.17/outbox.cif.g08.bks.cpg/sg161_cif.got.tgz:1469.got - 2010.05.20 10:52:32.
