data_PCOD9577219
_publ_section_title
;
Structure prediction by ZEFSAII (Michael W. Deem and Ramdas Pophale) SiO2 
 PCOD9577219
Probable space group: P 3 M 1
;
_chemical_formula_sum "Si O2"
_cell_formula_units_Z 48
_cell_length_a 12.846590
_cell_length_b 12.846590
_cell_length_c 21.377601
_cell_angle_alpha 90.000000
_cell_angle_beta 90.000000
_cell_angle_gamma 120.000000
_cell_volume 3055.380667
_symmetry_space_group_name_H-M "P 3 M 1"
_symmetry_group_IT_number 156
_symmetry_cell_setting 'hexagonal'
loop_
_space_group_symop_operation_xyz
x,y,z
-y,x-y,z
-x+y,-x,z
-x+y,y,z
x,x-y,z
-y,-x,z
loop_
_atom_site_type_symbol
_atom_site_label
_atom_site_fract_x
_atom_site_fract_y
_atom_site_fract_z
Si Si1 0.419495 0.085828 0.680060
Si Si2 0.752507 0.000003 0.795615
Si Si3 0.084241 0.666595 0.150839
Si Si4 0.999668 0.247765 0.032940
Si Si5 0.085159 0.418887 0.288155
Si Si6 0.084685 0.417702 0.424369
Si Si7 0.913430 0.580684 0.537986
Si Si8 0.418903 0.086157 0.913874
O O1 0.541024 0.082047 0.692022
O O2 0.447259 0.223630 0.683418
O O3 0.319027 0.013154 0.731590
O O4 0.377911 0.042634 0.608982
O O5 0.890252 0.109749 0.797042
O O6 0.686118 0.023560 0.853112
O O7 0.747270 0.873635 0.800690
O O8 0.082537 0.541269 0.141556
O O9 0.221834 0.778167 0.150449
O O10 0.016692 0.692985 0.095779
O O11 0.031077 0.664845 0.220136
O O12 0.121493 0.242986 0.022933
O O13 0.885664 0.114336 0.038033
O O14 0.974149 0.311627 0.974964
O O15 0.212517 0.425033 0.290015
O O16 0.105776 0.552888 0.286652
O O17 0.026854 0.366322 0.355691
O O18 0.211435 0.422869 0.427663
O O19 0.103849 0.551925 0.427664
O O20 0.003533 0.346759 0.483053
O O21 0.788903 0.577805 0.530177
O O22 0.892797 0.446399 0.533246
O O23 0.539280 0.078559 0.914196
O O24 0.449547 0.224774 0.912746
#
# Coordination Sequence:
#
# PCOD9577219 Si02
#       8
#     6   6   6   6   6   6   6   6
#     4   9  17  30  49  70  90 114 148 191 233 269
#     4  10  20  33  50  71  96 125 154 183 215 257
#     4   9  16  27  45  68  92 116 145 185 232 277
#     4  10  20  33  49  68  92 123 156 187 218 259
#     4   8  13  22  38  61  87 114 145 182 225 270
#     4   9  16  26  42  64  89 116 147 185 228 273
#     4   9  17  29  45  65  88 116 150 187 227 269
#     4  10  20  34  53  75  96 118 147 186 228 264
#
# _framework density 15.709989999999999
#
# number of rings (size 3 to 8) (size 9 to 14) (size 15 to 20)
#    0.000    2.750    0.000    2.125    0.000    3.500 
#    0.000    3.125    0.000    5.750    0.000    0.000 
#    0.000    0.000    0.000    0.000    0.000    0.000 
#
# Total GULP energy -267258.993610 kJ/mol
# GULP energy per Si atom -5567.895700 kJ/mol
# Density = 1.567423 g / cm^3
# Si number density = 15.709990 Si / 1000 Ang^3
#
#
#
# Elastic Constant Matrix: (Units=GPa)
#
#
# Indices 1 2 3 4 5 6 
#
# 1 76.5057 49.4820 71.1419 -0.0050 -0.0001 0.0000
# 2 49.4820 76.5057 71.1419 0.0050 0.0001 0.0000
# 3 71.1419 71.1419 163.7806 0.0000 0.0000 0.0000
# 4 -0.0050 0.0050 0.0000 22.8316 0.0000 0.0001
# 5 -0.0001 0.0001 0.0000 0.0000 22.8316 -0.0050
# 6 0.0000 0.0000 0.0000 0.0001 -0.0050 13.5119
#
#
#
# Elastic Compliance Matrix: (Units=1/GPa)
#
#
# Indices 1 2 3 4 5 6 
#
# 1 0.026292 -0.010712 -0.006768 0.000008 0.000000 0.000000
# 2 -0.010712 0.026292 -0.006768 -0.000008 0.000000 0.000000
# 3 -0.006768 -0.006768 0.011985 0.000000 0.000000 0.000000
# 4 0.000008 -0.000008 0.000000 0.043799 0.000000 0.000000
# 5 0.000000 0.000000 0.000000 0.000000 0.043799 0.000016
# 6 0.000000 0.000000 0.000000 0.000000 0.000016 0.074009
#
#
# Mechanical properties :
#
#
# Convention : Reuss Voigt Hill
#
# Bulk Modulus (GPa) = 62.20807 77.81373 70.01090
# Shear Modulus (GPa) = 17.85523 20.17011 19.01267
#
# Velocity S-wave (km/s) = 3.37494 3.58705 3.48261
# Velocity P-wave (km/s) = 7.40747 8.17281 7.79953
#
# Compressibility (1/GPa) = 0.01607508
#
# Stress axis : x y z
#
# Youngs Moduli (GPa) = 38.03377 38.03377 83.43670
#
# Poissons Ratio (x) = 0.40742 0.56467
# Poissons Ratio (y) = 0.40742 0.56467
# Poissons Ratio (z) = 0.25740 0.25740
#
# Static dielectric constant tensor:
#      x y z
#    x 1.492200 0.000000 0.000000 
#    y 0.000000 1.492200 0.000000 
#    z 0.000000 0.000000 1.566050 
# 
# From -- ./inp_files/1135.got.cif
#   From: 2010.05.17/outbox.cif.g08.bks.cpg/sg156_cif.got.tgz:1135.got - 2010.05.20 10:49:08.
