data_PCOD9577947
_publ_section_title
;
Structure prediction by ZEFSAII (Michael W. Deem and Ramdas Pophale) SiO2 
 PCOD9577947
Probable space group: P -3 1 M 
;
_chemical_formula_sum "Si O2"
_cell_formula_units_Z 48
_cell_length_a 25.887607
_cell_length_b 25.887607
_cell_length_c 5.357002
_cell_angle_alpha 90.000000
_cell_angle_beta 90.000000
_cell_angle_gamma 120.000000
_cell_volume 3109.111192
_symmetry_space_group_name_H-M "P -3 1 M "
_symmetry_group_IT_number 162
_symmetry_cell_setting 'hexagonal'
loop_
_space_group_symop_operation_xyz
x,y,z
-y,x-y,z
-x+y,-x,z
-y,-x,-z
-x+y,y,-z
x,x-y,-z
-x,-y,-z
y,-x+y,-z
x-y,x,-z
y,x,z
x-y,-y,z
-x,-x+y,z
loop_
_atom_site_type_symbol
_atom_site_label
_atom_site_fract_x
_atom_site_fract_y
_atom_site_fract_z
Si Si1 0.493468 0.566150 0.750000
Si Si2 0.071417 0.207023 0.250000
Si Si3 0.314160 0.387001 0.249998
Si Si4 0.927367 0.255448 0.250002
O O1 0.454178 0.545823 0.500000
O O2 0.529675 0.529675 0.750000
O O3 0.543976 0.635214 0.750000
O O4 0.454178 0.545823 0.000000
O O5 0.097368 0.194736 0.500000
O O6 0.089292 0.276441 0.250000
O O7 0.000000 0.168435 0.250000
O O8 0.097368 0.194736 0.000000
O O9 0.350084 0.350084 0.249998
O O10 0.274785 0.367140 0.499601
O O11 0.274785 0.367141 0.000394
O O12 0.000000 0.293206 0.250002
#
# Coordination Sequence:
#
# PCOD9577947 Si02
#       4
#    12  12  12  12
#     4   9  15  21  30  47  73 107 144 177 207 230
#     4  11  22  37  56  75  93 111 134 169 221 288
#     4   9  15  24  37  54  79 108 139 174 207 237
#     4   9  17  28  43  62  81 104 133 166 209 255
#
# _framework density 15.438496000000001
#
# number of rings (size 3 to 8) (size 9 to 14) (size 15 to 20)
#    0.000    2.500    0.000    3.750    0.000   10.000 
#    0.000    0.000    0.000    5.000    0.000    0.000 
#    0.000    0.000    0.000    0.000    0.000    0.000 
#
# Total GULP energy -267611.478603 kJ/mol
# GULP energy per Si atom -5575.239138 kJ/mol
# Density = 1.540336 g / cm^3
# Si number density = 15.438496 Si / 1000 Ang^3
#
#
#
# Elastic Constant Matrix: (Units=GPa)
#
#
# Indices 1 2 3 4 5 6 
#
# 1 71.9111 27.6629 57.5531 0.0000 -0.0002 0.0000
# 2 27.6629 71.9111 57.5531 0.0000 0.0002 0.0000
# 3 57.5531 57.5531 185.1813 0.0000 0.0000 0.0000
# 4 0.0000 0.0000 0.0000 11.8760 0.0000 0.0002
# 5 -0.0002 0.0002 0.0000 0.0000 11.8760 0.0000
# 6 0.0000 0.0000 0.0000 0.0002 0.0000 22.1241
#
#
#
# Elastic Compliance Matrix: (Units=1/GPa)
#
#
# Indices 1 2 3 4 5 6 
#
# 1 0.019137 -0.003463 -0.004871 0.000000 0.000000 0.000000
# 2 -0.003463 0.019137 -0.004871 0.000000 0.000000 0.000000
# 3 -0.004871 -0.004871 0.008428 0.000000 0.000000 0.000000
# 4 0.000000 0.000000 0.000000 0.084203 0.000000 -0.000001
# 5 0.000000 0.000000 0.000000 0.000000 0.084203 0.000000
# 6 0.000000 0.000000 0.000000 -0.000001 0.000000 0.045200
#
#
# Mechanical properties :
#
#
# Convention : Reuss Voigt Hill
#
# Bulk Modulus (GPa) = 49.28379 68.28239 58.78309
# Shear Modulus (GPa) = 17.03675 21.59085 19.31380
#
# Velocity S-wave (km/s) = 3.32554 3.74372 3.54081
# Velocity P-wave (km/s) = 6.83649 7.93800 7.40775
#
# Compressibility (1/GPa) = 0.02029065
#
# Stress axis : x y z
#
# Youngs Moduli (GPa) = 52.25501 52.25501 118.65078
#
# Poissons Ratio (x) = 0.18095 0.57799
# Poissons Ratio (y) = 0.18095 0.57799
# Poissons Ratio (z) = 0.25455 0.25455
#
# Static dielectric constant tensor:
#      x y z
#    x 1.493460 0.000000 0.000000 
#    y 0.000000 1.493460 0.000000 
#    z 0.000000 0.000000 1.517900 
# 
# From -- ./inp_files/461.got.cif
#   From: 2010.05.17/outbox.cif.g08.bks.cpg/sg162_1_cif.got.tgz:461.got - 2010.05.20 10:53:12.
