data_PCOD9577846
_publ_section_title
;
Structure prediction by ZEFSAII (Michael W. Deem and Ramdas Pophale) SiO2 
 PCOD9577846
Probable space group: P -3 1 M 
;
_chemical_formula_sum "Si O2"
_cell_formula_units_Z 52
_cell_length_a 12.516329
_cell_length_b 12.516329
_cell_length_c 21.324578
_cell_angle_alpha 90.000000
_cell_angle_beta 90.000000
_cell_angle_gamma 120.000000
_cell_volume 2893.110476
_symmetry_space_group_name_H-M "P -3 1 M "
_symmetry_group_IT_number 162
_symmetry_cell_setting 'hexagonal'
loop_
_space_group_symop_operation_xyz
x,y,z
-y,x-y,z
-x+y,-x,z
-y,-x,-z
-x+y,y,-z
x,x-y,-z
-x,-y,-z
y,-x+y,-z
x-y,x,-z
y,x,z
x-y,-y,z
-x,-x+y,z
loop_
_atom_site_type_symbol
_atom_site_label
_atom_site_fract_x
_atom_site_fract_y
_atom_site_fract_z
Si Si1 0.146228 0.715568 0.876966
Si Si2 0.702285 0.851245 0.361511
Si Si3 0.292307 0.146154 0.000000
Si Si4 0.146564 0.293128 0.500000
Si Si5 0.503900 0.253800 0.255038
Si Si6 0.666666 0.333334 0.925968
O O1 0.177034 0.804888 0.936684
O O2 0.211264 0.775809 0.811570
O O3 0.200261 0.628316 0.898214
O O4 0.000000 0.641997 0.868357
O O5 0.784933 0.784933 0.354960
O O6 0.643522 0.821899 0.431934
O O7 0.595239 0.799973 0.309990
O O8 0.788172 0.000000 0.355868
O O9 0.209511 0.209511 0.003159
O O10 0.207531 0.207531 0.500228
O O11 0.599199 0.200344 0.258236
O O12 0.666668 0.333334 0.000000
#
# Coordination Sequence:
#
# PCOD9577846 Si02
#       6
#    12  12   6   6  12   4
#     4  11  22  38  59  83 111 147 193 238 284 339
#     4  10  20  36  60  89 119 152 194 245 299 352
#     4  10  23  40  60  86 117 154 190 236 296 354
#     4   8  15  30  54  84 116 150 191 240 292 346
#     4  10  22  41  57  83 115 160 198 238 289 344
#     4  12  21  39  57  87 117 139 179 235 297 330
#
# _framework density 17.973732999999999
#
# number of rings (size 3 to 8) (size 9 to 14) (size 15 to 20)
#    0.462    1.385    3.462    1.154    0.000    6.000 
#    0.000    1.154    0.000    6.923    0.000    0.000 
#    0.000    0.000    0.000    0.000    0.000    0.000 
#
# Total GULP energy -289614.535405 kJ/mol
# GULP energy per Si atom -5569.510296 kJ/mol
# Density = 1.793282 g / cm^3
# Si number density = 17.973733 Si / 1000 Ang^3
#
#
#
# Elastic Constant Matrix: (Units=GPa)
#
#
# Indices 1 2 3 4 5 6 
#
# 1 73.6109 30.5676 64.7328 0.0002 -6.8319 0.0000
# 2 30.5676 73.6108 64.7327 0.0001 6.8319 0.0001
# 3 64.7328 64.7327 208.6371 -0.0001 0.0000 -0.0001
# 4 0.0002 0.0001 -0.0001 31.2398 -0.0001 6.8317
# 5 -6.8319 6.8319 0.0000 -0.0001 31.2400 0.0000
# 6 0.0000 0.0001 -0.0001 6.8317 0.0000 21.5216
#
#
#
# Elastic Compliance Matrix: (Units=1/GPa)
#
#
# Indices 1 2 3 4 5 6 
#
# 1 0.020294 -0.004672 -0.004847 0.000000 0.005460 0.000000
# 2 -0.004672 0.020294 -0.004847 0.000000 -0.005460 0.000000
# 3 -0.004847 -0.004847 0.007801 0.000000 0.000000 0.000000
# 4 0.000000 0.000000 0.000000 0.034398 0.000000 -0.010919
# 5 0.005460 -0.005460 0.000000 0.000000 0.034398 0.000000
# 6 0.000000 0.000000 0.000000 -0.010919 0.000000 0.049931
#
#
# Mechanical properties :
#
#
# Convention : Reuss Voigt Hill
#
# Bulk Modulus (GPa) = 50.87138 75.10277 62.98708
# Shear Modulus (GPa) = 24.70345 29.85531 27.27938
#
# Velocity S-wave (km/s) = 3.71134 4.08002 3.90004
# Velocity P-wave (km/s) = 6.83593 8.00443 7.44315
#
# Compressibility (1/GPa) = 0.01965742
#
# Stress axis : x y z
#
# Youngs Moduli (GPa) = 49.27543 49.27541 128.19204
#
# Poissons Ratio (x) = 0.23019 0.62136
# Poissons Ratio (y) = 0.23019 0.62136
# Poissons Ratio (z) = 0.23884 0.23884
#
# Static dielectric constant tensor:
#      x y z
#    x 1.616420 0.000000 0.000000 
#    y 0.000000 1.616420 0.000000 
#    z 0.000000 0.000000 1.646670 
# 
# From -- ./inp_files/3764.got.cif
#   From: 2010.05.17/outbox.cif.g08.bks.cpg/sg162_2_cif.got.tgz:3764.got - 2010.05.20 10:53:12.
