data_PCOD9577336
_publ_section_title
;
Structure prediction by ZEFSAII (Michael W. Deem and Ramdas Pophale) SiO2 
 PCOD9577336
Probable space group: P 3 C 1
;
_chemical_formula_sum "Si O2"
_cell_formula_units_Z 30
_cell_length_a 14.943675
_cell_length_b 14.943675
_cell_length_c 7.737610
_cell_angle_alpha 90.000000
_cell_angle_beta 90.000000
_cell_angle_gamma 120.000000
_cell_volume 1496.415836
_symmetry_space_group_name_H-M "P 3 C 1"
_symmetry_group_IT_number 158
_symmetry_cell_setting 'hexagonal'
loop_
_space_group_symop_operation_xyz
x,y,z
-y,x-y,z
-x+y,-x,z
-x+y,y,1/2+z
x,x-y,1/2+z
-y,-x,1/2+z
loop_
_atom_site_type_symbol
_atom_site_label
_atom_site_fract_x
_atom_site_fract_y
_atom_site_fract_z
Si Si1 0.239949 0.288130 0.547790
Si Si2 0.665897 0.541112 0.461584
Si Si3 0.048181 0.760051 0.967949
Si Si4 0.665897 0.541112 0.054156
Si Si5 0.999506 0.118504 0.757870
O O1 0.241869 0.281668 0.757869
O O2 0.358524 0.337833 0.487808
O O3 0.093244 0.092758 0.757870
O O4 0.180563 0.185421 0.424418
O O5 0.662168 0.641476 0.527932
O O6 0.665610 0.547177 0.257870
O O7 0.773940 0.547880 0.507870
O O8 0.567807 0.432194 0.507870
O O9 0.170558 0.829442 0.007869
O O10 0.004857 0.819437 0.091321
#
# Coordination Sequence:
#
# PCOD9577336 Si02
#       5
#     6   6   6   6   6
#     4  11  25  42  64  94 132 174 213 259 319 378
#     4  11  26  43  67  93 126 167 214 266 321 376
#     4  11  25  42  64  94 132 174 213 259 319 378
#     4  11  26  43  67  93 126 167 214 266 321 376
#     4  10  26  40  58  90 138 178 218 250 308 378
#
# _framework density 20.047903999999999
#
# number of rings (size 3 to 8) (size 9 to 14) (size 15 to 20)
#    0.400    0.800    2.000    1.600   11.200    1.600 
#    0.000    0.000    0.000    0.800    0.000    0.000 
#    0.000    0.000    0.000    0.000    0.000    0.000 
#
# Total GULP energy -167043.313033 kJ/mol
# GULP energy per Si atom -5568.110434 kJ/mol
# Density = 2.000227 g / cm^3
# Si number density = 20.047904 Si / 1000 Ang^3
#
#
#
# Elastic Constant Matrix: (Units=GPa)
#
#
# Indices 1 2 3 4 5 6 
#
# 1 121.6469 53.4788 15.7012 -0.0003 0.0000 0.0000
# 2 53.4788 121.6469 15.7012 0.0003 0.0000 0.0000
# 3 15.7012 15.7012 121.6189 0.0000 0.0000 0.0000
# 4 -0.0003 0.0003 0.0000 14.8121 0.0000 0.0000
# 5 0.0000 0.0000 0.0000 0.0000 14.8121 -0.0003
# 6 0.0000 0.0000 0.0000 0.0000 -0.0003 34.0840
#
#
#
# Elastic Compliance Matrix: (Units=1/GPa)
#
#
# Indices 1 2 3 4 5 6 
#
# 1 0.010258 -0.004412 -0.000755 0.000000 0.000000 0.000000
# 2 -0.004412 0.010258 -0.000755 0.000000 0.000000 0.000000
# 3 -0.000755 -0.000755 0.008417 0.000000 0.000000 0.000000
# 4 0.000000 0.000000 0.000000 0.067512 0.000000 0.000000
# 5 0.000000 0.000000 0.000000 0.000000 0.067512 0.000001
# 6 0.000000 0.000000 0.000000 0.000000 0.000001 0.029339
#
#
# Mechanical properties :
#
#
# Convention : Reuss Voigt Hill
#
# Bulk Modulus (GPa) = 58.51506 59.40835 58.96171
# Shear Modulus (GPa) = 23.71517 31.41042 27.56280
#
# Velocity S-wave (km/s) = 3.44310 3.96254 3.71192
# Velocity P-wave (km/s) = 6.71249 7.11570 6.91703
#
# Compressibility (1/GPa) = 0.01708962
#
# Stress axis : x y z
#
# Youngs Moduli (GPa) = 97.48902 97.48902 118.80347
#
# Poissons Ratio (x) = 0.43013 0.08966
# Poissons Ratio (y) = 0.43013 0.08966
# Poissons Ratio (z) = 0.07357 0.07357
#
# Static dielectric constant tensor:
#      x y z
#    x 1.653560 0.000000 0.000000 
#    y 0.000000 1.653560 0.000000 
#    z 0.000000 0.000000 1.768440 
# 
# From -- ./inp_files/165.got.cif
#   From: 2010.05.17/outbox.cif.g08.bks.cpg/sg158_cif.got.tgz:165.got - 2010.05.20 10:49:59.
