data_PCOD9577021
_publ_section_title
;
Structure prediction by ZEFSAII (Michael W. Deem and Ramdas Pophale) SiO2 
 PCOD9577021
Probable space group: R 3 2
;
_chemical_formula_sum "Si O2"
_cell_formula_units_Z 57
_cell_length_a 13.101450
_cell_length_b 13.101450
_cell_length_c 18.914364
_cell_angle_alpha 90.000000
_cell_angle_beta 90.000000
_cell_angle_gamma 120.000000
_cell_volume 2811.648990
_symmetry_space_group_name_H-M "R 3 2"
_symmetry_group_IT_number 155
_symmetry_cell_setting 'hexagonal'
loop_
_space_group_symop_operation_xyz
x,y,z
-y,x-y,z
-x+y,-x,z
x-y,-y,-z
-x,-x+y,-z
y,x,-z
2/3+x,1/3+y,1/3+z
2/3-y,1/3+x-y,1/3+z
2/3-x+y,1/3-x,1/3+z
2/3+x-y,1/3-y,1/3-z
2/3-x,1/3-x+y,1/3-z
2/3+y,1/3+x,1/3-z
1/3+x,2/3+y,2/3+z
1/3-y,2/3+x-y,2/3+z
1/3-x+y,2/3-x,2/3+z
1/3+x-y,2/3-y,2/3-z
1/3-x,2/3-x+y,2/3-z
1/3+y,2/3+x,2/3-z
loop_
_atom_site_type_symbol
_atom_site_label
_atom_site_fract_x
_atom_site_fract_y
_atom_site_fract_z
Si Si1 0.666667 0.333334 0.426623
Si Si2 0.873493 0.507662 0.977356
Si Si3 0.000000 0.000000 0.260338
Si Si4 0.848605 0.333334 0.333334
Si Si5 0.249529 0.047534 0.422785
O O1 0.666668 0.333334 0.509854
O O2 0.796474 0.384704 0.392470
O O3 0.893894 0.403292 0.951123
O O4 0.804426 0.532965 0.915531
O O5 0.779437 0.450368 0.041406
O O6 0.000000 0.615228 0.000000
O O7 0.883111 0.252541 0.378900
O O8 0.255367 0.000000 0.500000
#
# Coordination Sequence:
#
# PCOD9577021 Si02
#       5
#     6  18   6   9  18
#     4  10  25  45  63  94 130 181 224 289 328 391
#     4  10  22  40  64 102 132 166 225 274 332 426
#     4   9  22  43  67  88 138 172 215 277 342 394
#     4  10  24  42  64  92 132 166 238 268 324 410
#     4  11  23  41  67  94 132 176 214 281 342 400
#
# _framework density 20.272801000000001
#
# number of rings (size 3 to 8) (size 9 to 14) (size 15 to 20)
#    0.000    1.895    1.579    1.579    8.842    0.000 
#    0.000    0.000    0.000    0.000    0.000    0.000 
#    0.000    0.000    0.000    0.000    0.000    0.000 
#
# Total GULP energy -105855.724693 kJ/mol
# GULP energy per Si atom -5571.353931 kJ/mol
# Density = 2.022666 g / cm^3
# Si number density = 20.272801 Si / 1000 Ang^3
#
#
#
# Elastic Constant Matrix: (Units=GPa)
#
#
# Indices 1 2 3 4 5 6 
#
# 1 94.5745 22.4940 42.2247 -4.3778 0.0000 0.0000
# 2 22.4940 94.5734 42.2245 4.3771 0.0000 0.0000
# 3 42.2247 42.2245 156.7395 -0.0002 0.0000 0.0000
# 4 -4.3778 4.3771 -0.0002 20.0822 0.0000 0.0000
# 5 0.0000 0.0000 0.0000 0.0000 20.0821 -4.3777
# 6 0.0000 0.0000 0.0000 0.0000 -4.3777 36.0401
#
#
#
# Elastic Compliance Matrix: (Units=1/GPa)
#
#
# Indices 1 2 3 4 5 6 
#
# 1 0.012427 -0.001824 -0.002856 0.003106 0.000000 0.000000
# 2 -0.001824 0.012427 -0.002856 -0.003106 0.000000 0.000000
# 3 -0.002856 -0.002856 0.007919 0.000000 0.000000 0.000000
# 4 0.003106 -0.003106 0.000000 0.051150 0.000000 0.000000
# 5 0.000000 0.000000 0.000000 0.000000 0.051150 0.006213
# 6 0.000000 0.000000 0.000000 0.000000 0.006213 0.028502
#
#
# Mechanical properties :
#
#
# Convention : Reuss Voigt Hill
#
# Bulk Modulus (GPa) = 56.50075 62.19709 59.34892
# Shear Modulus (GPa) = 27.09348 31.17048 29.13198
#
# Velocity S-wave (km/s) = 3.65971 3.92542 3.79489
# Velocity P-wave (km/s) = 6.76673 7.16183 6.96708
#
# Compressibility (1/GPa) = 0.01769888
#
# Stress axis : x y z
#
# Youngs Moduli (GPa) = 80.47281 80.47205 126.27999
#
# Poissons Ratio (x) = 0.14679 0.36068
# Poissons Ratio (y) = 0.14680 0.36069
# Poissons Ratio (z) = 0.22985 0.22985
#
# Static dielectric constant tensor:
#      x y z
#    x 1.761730 0.000000 0.000000 
#    y 0.000000 1.761740 0.000000 
#    z 0.000000 0.000000 1.748170 
# 
# From -- ./inp_files/5735.got.cif
#   From: 2010.05.17/outbox.cif.g08.bks.cpg/sg155_3_cif.got.tgz:5735.got - 2010.05.20 10:44:35.
