data_PCOD9577169
_publ_section_title
;
Structure prediction by ZEFSAII (Michael W. Deem and Ramdas Pophale) SiO2 
 PCOD9577169
Probable space group: R 3 2
;
_chemical_formula_sum "Si O2"
_cell_formula_units_Z 45
_cell_length_a 20.419854
_cell_length_b 20.419854
_cell_length_c 5.628327
_cell_angle_alpha 90.000000
_cell_angle_beta 90.000000
_cell_angle_gamma 120.000000
_cell_volume 2032.428230
_symmetry_space_group_name_H-M "R 3 2"
_symmetry_group_IT_number 155
_symmetry_cell_setting 'hexagonal'
loop_
_space_group_symop_operation_xyz
x,y,z
-y,x-y,z
-x+y,-x,z
x-y,-y,-z
-x,-x+y,-z
y,x,-z
2/3+x,1/3+y,1/3+z
2/3-y,1/3+x-y,1/3+z
2/3-x+y,1/3-x,1/3+z
2/3+x-y,1/3-y,1/3-z
2/3-x,1/3-x+y,1/3-z
2/3+y,1/3+x,1/3-z
1/3+x,2/3+y,2/3+z
1/3-y,2/3+x-y,2/3+z
1/3-x+y,2/3-x,2/3+z
1/3+x-y,2/3-y,2/3-z
1/3-x,2/3-x+y,2/3-z
1/3+y,2/3+x,2/3-z
loop_
_atom_site_type_symbol
_atom_site_label
_atom_site_fract_x
_atom_site_fract_y
_atom_site_fract_z
Si Si1 0.123725 0.442490 0.911233
Si Si2 0.791208 0.913737 0.042421
Si Si3 0.405208 0.405208 0.000000
O O1 0.076370 0.409704 0.666667
O O2 0.148717 0.531314 0.875403
O O3 0.197292 0.434658 0.866500
O O4 0.087810 0.421143 0.166667
O O5 0.720363 0.912279 0.166341
O O6 0.853576 0.000000 0.000000
O O7 0.333334 0.383708 0.166667
#
# Coordination Sequence:
#
# PCOD9577169 Si02
#       3
#    18  18   9
#     4   8  20  37  60  75 113 172 222 285 310 369
#     4   9  21  37  57  89 133 173 225 270 338 406
#     4  12  24  34  58 100 152 190 212 264 350 438
#
# _framework density 22.141002
#
# number of rings (size 3 to 8) (size 9 to 14) (size 15 to 20)
#    2.400    0.000    2.000    0.000    5.600    0.000 
#    9.600    0.000    0.000    0.000    0.000    5.600 
#    0.000    0.000    0.000    0.000    0.000    0.000 
#
# Total GULP energy -83526.098864 kJ/mol
# GULP energy per Si atom -5568.406591 kJ/mol
# Density = 2.209061 g / cm^3
# Si number density = 22.141002 Si / 1000 Ang^3
#
#
#
# Elastic Constant Matrix: (Units=GPa)
#
#
# Indices 1 2 3 4 5 6 
#
# 1 120.5513 69.8423 50.3423 6.0534 0.6306 0.0353
# 2 69.8423 119.8566 49.9833 -5.7629 -0.0048 0.0111
# 3 50.3423 49.9833 193.2830 0.1512 0.3167 0.0172
# 4 6.0534 -5.7629 0.1512 28.4011 0.2790 0.0927
# 5 0.6306 -0.0048 0.3167 0.2790 28.6340 5.8691
# 6 0.0353 0.0111 0.0172 0.0927 5.8691 25.0141
#
#
#
# Elastic Compliance Matrix: (Units=1/GPa)
#
#
# Indices 1 2 3 4 5 6 
#
# 1 0.013461 -0.007390 -0.001591 -0.004358 -0.000250 0.000060
# 2 -0.007390 0.013514 -0.001573 0.004324 0.000150 -0.000046
# 3 -0.001591 -0.001573 0.005995 -0.000012 -0.000033 0.000007
# 4 -0.004358 0.004324 -0.000012 0.037019 -0.000249 -0.000075
# 5 -0.000250 0.000150 -0.000033 -0.000249 0.036696 -0.008609
# 6 0.000060 -0.000046 0.000007 -0.000075 -0.008609 0.041998
#
#
# Mechanical properties :
#
#
# Convention : Reuss Voigt Hill
#
# Bulk Modulus (GPa) = 84.31241 86.00296 85.15768
# Shear Modulus (GPa) = 28.77755 33.97803 31.37779
#
# Velocity S-wave (km/s) = 3.60910 3.92167 3.76863
# Velocity P-wave (km/s) = 7.45184 7.70932 7.58167
#
# Compressibility (1/GPa) = 0.01186065
#
# Stress axis : x y z
#
# Youngs Moduli (GPa) = 74.28670 73.99872 166.80070
#
# Poissons Ratio (x) = 0.54686 0.26542
# Poissons Ratio (y) = 0.54899 0.26246
# Poissons Ratio (z) = 0.11821 0.11644
#
# Static dielectric constant tensor:
#      x y z
#    x 1.793360 -0.000020 -0.000470 
#    y -0.000020 1.793480 -0.000450 
#    z -0.000470 -0.000450 1.964720 
# 
# From -- ./inp_files/395.got.cif
#   From: 2010.05.17/outbox.cif.g08.bks.cpg/sg155_1_cif.got.tgz:395.got - 2010.05.20 10:44:35.
