data_PCOD9577978
_publ_section_title
;
Structure prediction by ZEFSAII (Michael W. Deem and Ramdas Pophale) SiO2 
 PCOD9577978
Probable space group: P -3 1 C
;
_chemical_formula_sum "Si O2"
_cell_formula_units_Z 96
_cell_length_a 17.807394
_cell_length_b 17.807394
_cell_length_c 22.961176
_cell_angle_alpha 90.000000
_cell_angle_beta 90.000000
_cell_angle_gamma 120.000000
_cell_volume 6305.586604
_symmetry_space_group_name_H-M "P -3 1 C"
_symmetry_group_IT_number 163
_symmetry_cell_setting 'hexagonal'
loop_
_space_group_symop_operation_xyz
x,y,z
-y,x-y,z
-x+y,-x,z
-y,-x,1/2-z
-x+y,y,1/2-z
x,x-y,1/2-z
-x,-y,-z
y,-x+y,-z
x-y,x,-z
y,x,1/2+z
x-y,-y,1/2+z
-x,-x+y,1/2+z
loop_
_atom_site_type_symbol
_atom_site_label
_atom_site_fract_x
_atom_site_fract_y
_atom_site_fract_z
Si Si1 0.169444 0.997584 0.126786
Si Si2 0.723741 0.949990 0.255672
Si Si3 0.540340 0.628407 0.250280
Si Si4 0.739888 0.675111 0.948656
Si Si5 0.162480 0.488945 0.120270
Si Si6 0.168748 0.000665 0.357856
Si Si7 0.322911 0.087637 0.537043
Si Si8 0.658544 0.160021 0.620967
O O1 0.190111 0.094938 0.124160
O O2 0.215717 0.980781 0.181296
O O3 0.067358 0.933387 0.137604
O O4 0.197009 0.965568 0.070278
O O5 0.693595 0.846798 0.250000
O O6 0.644268 0.966790 0.245635
O O7 0.797130 0.996552 0.207057
O O8 0.476173 0.523827 0.250000
O O9 0.526365 0.664789 0.189050
O O10 0.512578 0.656306 0.309521
O O11 0.786143 0.749316 0.899933
O O12 0.819495 0.668963 0.979760
O O13 0.683050 0.585335 0.914545
O O14 0.684205 0.704299 0.987994
O O15 0.110903 0.401214 0.082545
O O16 0.145525 0.565887 0.102234
O O17 0.263236 0.520202 0.111790
#
# Coordination Sequence:
#
# PCOD9577978 Si02
#       8
#    12  12  12  12  12  12  12  12
#     4  10  19  30  46  66  91 122 158 197 233 271
#     4  10  17  29  46  66  93 122 150 183 231 279
#     4  10  18  29  48  72  97 122 146 177 223 275
#     4  10  20  33  48  65  90 124 160 195 232 270
#     4  10  19  31  49  71  95 121 149 184 226 278
#     4  10  19  30  46  66  91 122 158 197 233 271
#     4  10  20  33  48  65  90 124 160 195 232 270
#     4  10  19  31  49  71  95 121 149 184 226 278
#
# _framework density 15.224594
#
# number of rings (size 3 to 8) (size 9 to 14) (size 15 to 20)
#    0.000    2.000    2.500    2.750    0.000    0.500 
#    0.000    2.500    0.000    4.250    0.000    0.000 
#    0.000    0.000    0.000    8.000    0.000    0.000 
#
# Total GULP energy -534663.828625 kJ/mol
# GULP energy per Si atom -5569.414882 kJ/mol
# Density = 1.518994 g / cm^3
# Si number density = 15.224594 Si / 1000 Ang^3
#
#
#
# Elastic Constant Matrix: (Units=GPa)
#
#
# Indices 1 2 3 4 5 6 
#
# 1 59.9511 19.8298 2.9012 0.0000 2.9600 0.0000
# 2 19.8298 59.9511 2.9012 0.0000 -2.9600 0.0000
# 3 2.9012 2.9012 32.4063 0.0000 0.0000 0.0000
# 4 0.0000 0.0000 0.0000 15.8995 0.0000 -2.9600
# 5 2.9600 -2.9600 0.0000 0.0000 15.8995 0.0000
# 6 0.0000 0.0000 0.0000 -2.9600 0.0000 20.0607
#
#
#
# Elastic Compliance Matrix: (Units=1/GPa)
#
#
# Indices 1 2 3 4 5 6 
#
# 1 0.019122 -0.006506 -0.001129 0.000000 -0.004771 0.000000
# 2 -0.006506 0.019122 -0.001129 0.000000 0.004771 0.000000
# 3 -0.001129 -0.001129 0.031060 0.000000 0.000000 0.000000
# 4 0.000000 0.000000 0.000000 0.064672 0.000000 0.009542
# 5 -0.004771 0.004771 0.000000 0.000000 0.064672 0.000000
# 6 0.000000 0.000000 0.000000 0.009542 0.000000 0.051257
#
#
# Mechanical properties :
#
#
# Convention : Reuss Voigt Hill
#
# Bulk Modulus (GPa) = 19.31416 22.61919 20.96668
# Shear Modulus (GPa) = 17.56274 18.81703 18.18989
#
# Velocity S-wave (km/s) = 3.40012 3.51944 3.46029
# Velocity P-wave (km/s) = 5.30359 5.60398 5.45585
#
# Compressibility (1/GPa) = 0.05177547
#
# Stress axis : x y z
#
# Youngs Moduli (GPa) = 52.29457 52.29457 32.19526
#
# Poissons Ratio (x) = 0.34023 0.03636
# Poissons Ratio (y) = 0.34023 0.03636
# Poissons Ratio (z) = 0.05907 0.05907
#
# Static dielectric constant tensor:
#      x y z
#    x 1.506530 0.000000 0.000000 
#    y 0.000000 1.506530 0.000000 
#    z 0.000000 0.000000 1.509280 
# 
# From -- ./inp_files/3698.got.cif
#   From: 2010.05.17/outbox.cif.g08.bks.cpg/sg163_2_cif.got.tgz:3698.got - 2010.05.20 10:56:03.
