data_PCOD9577485
_publ_section_title
;
Structure prediction by ZEFSAII (Michael W. Deem and Ramdas Pophale) SiO2 
 PCOD9577485
Probable space group: R 3 M
;
_chemical_formula_sum "Si O2"
_cell_formula_units_Z 126
_cell_length_a 21.716435
_cell_length_b 21.716435
_cell_length_c 17.878457
_cell_angle_alpha 90.000000
_cell_angle_beta 90.000000
_cell_angle_gamma 120.000000
_cell_volume 7301.931101
_symmetry_space_group_name_H-M "R 3 M"
_symmetry_group_IT_number 160
_symmetry_cell_setting 'hexagonal'
loop_
_space_group_symop_operation_xyz
x,y,z
-y,x-y,z
-x+y,-x,z
-x+y,y,z
x,x-y,z
-y,-x,z
2/3+x,1/3+y,1/3+z
2/3-y,1/3+x-y,1/3+z
2/3-x+y,1/3-x,1/3+z
2/3-x+y,1/3+y,1/3+z
2/3+x,1/3+x-y,1/3+z
2/3-y,1/3-x,1/3+z
1/3+x,2/3+y,2/3+z
1/3-y,2/3+x-y,2/3+z
1/3-x+y,2/3-x,2/3+z
1/3-x+y,2/3+y,2/3+z
1/3+x,2/3+x-y,2/3+z
1/3-y,2/3-x,2/3+z
loop_
_atom_site_type_symbol
_atom_site_label
_atom_site_fract_x
_atom_site_fract_y
_atom_site_fract_z
Si Si1 0.468694 0.083936 0.822616
Si Si2 0.946352 0.743470 0.931622
Si Si3 0.746451 0.800421 0.359636
Si Si4 0.384755 0.916056 0.296524
Si Si5 0.852233 0.852233 0.059565
Si Si6 0.946033 0.746456 0.759502
Si Si7 0.386977 0.923188 0.854183
O O1 0.544023 0.088045 0.831088
O O2 0.463018 0.119843 0.747080
O O3 0.453590 0.120251 0.892906
O O4 0.408356 0.000756 0.823467
O O5 0.872299 0.744598 0.930198
O O6 0.924972 0.665903 0.962341
O O7 0.969112 0.749481 0.845364
O O8 0.996882 0.806405 0.986952
O O9 0.763911 0.881956 0.362167
O O10 0.666662 0.754648 0.392897
O O11 0.749489 0.780374 0.273775
O O12 0.455973 0.911945 0.288041
O O13 0.343180 0.880151 0.372064
O O14 0.929388 0.858776 0.060622
O O15 0.806412 0.809528 0.132184
O O16 0.858774 0.929387 0.058505
O O17 0.881959 0.763917 0.756975
O O18 0.461031 0.922061 0.855607
#
# Coordination Sequence:
#
# PCOD9577485 Si02
#       7
#    18  18  18  18  18  18  18
#     4  11  21  34  55  83 113 147 185 231 288 344
#     4   9  20  35  53  79 108 142 183 227 274 333
#     4  10  19  35  57  79 107 148 192 232 280 338
#     4  11  21  34  55  83 113 147 185 231 288 344
#     4  10  21  38  58  80 111 148 188 234 290 348
#     4  10  19  35  57  79 107 148 192 232 280 338
#     4   9  20  35  53  79 108 142 183 227 274 333
#
# _framework density 17.255710000000001
#
# number of rings (size 3 to 8) (size 9 to 14) (size 15 to 20)
#    0.000    2.000    2.857    1.000    2.000    1.143 
#    0.000    0.000    0.000   11.143    0.000    0.000 
#    0.000    0.000    0.000    0.000    0.000    0.000 
#
# Total GULP energy -234332.656941 kJ/mol
# GULP energy per Si atom -5579.348975 kJ/mol
# Density = 1.721643 g / cm^3
# Si number density = 17.255710 Si / 1000 Ang^3
#
#
#
# Elastic Constant Matrix: (Units=GPa)
#
#
# Indices 1 2 3 4 5 6 
#
# 1 82.9938 41.8181 50.4613 -5.3972 0.0000 0.0000
# 2 41.8181 82.9938 50.4613 5.3972 0.0000 0.0000
# 3 50.4613 50.4613 147.5993 0.0000 0.0000 0.0000
# 4 -5.3972 5.3972 0.0000 29.9631 0.0000 0.0000
# 5 0.0000 0.0000 0.0000 0.0000 29.9631 -5.3972
# 6 0.0000 0.0000 0.0000 0.0000 -5.3972 20.5878
#
#
#
# Elastic Compliance Matrix: (Units=1/GPa)
#
#
# Indices 1 2 3 4 5 6 
#
# 1 0.018281 -0.007208 -0.003786 0.004591 0.000000 0.000000
# 2 -0.007208 0.018281 -0.003786 -0.004591 0.000000 0.000000
# 3 -0.003786 -0.003786 0.009364 0.000000 0.000000 0.000000
# 4 0.004591 -0.004591 0.000000 0.035028 0.000000 0.000000
# 5 0.000000 0.000000 0.000000 0.000000 0.035028 0.009183
# 6 0.000000 0.000000 0.000000 0.000000 0.009183 0.050980
#
#
# Mechanical properties :
#
#
# Convention : Reuss Voigt Hill
#
# Bulk Modulus (GPa) = 61.09800 66.56314 63.83057
# Shear Modulus (GPa) = 24.75513 27.49256 26.12385
#
# Velocity S-wave (km/s) = 3.79173 3.99588 3.89514
# Velocity P-wave (km/s) = 7.39283 7.74259 7.56973
#
# Compressibility (1/GPa) = 0.01636715
#
# Stress axis : x y z
#
# Youngs Moduli (GPa) = 54.70012 54.70012 106.79646
#
# Poissons Ratio (x) = 0.39430 0.40430
# Poissons Ratio (y) = 0.39430 0.40430
# Poissons Ratio (z) = 0.20708 0.20708
#
# Static dielectric constant tensor:
#      x y z
#    x 1.575990 0.000000 0.000000 
#    y 0.000000 1.575990 0.000000 
#    z 0.000000 0.000000 1.589640 
# 
# From -- ./inp_files/2905.got.cif
#   From: 2010.05.17/outbox.cif.g08.bks.cpg/sg160_2_cif.got.tgz:2905.got - 2010.05.20 10:51:19.
