data_PCOD9577681
_publ_section_title
;
Structure prediction by ZEFSAII (Michael W. Deem and Ramdas Pophale) SiO2 
 PCOD9577681
Probable space group: P -3 1 M 
;
_chemical_formula_sum "Si O2"
_cell_formula_units_Z 60
_cell_length_a 18.963794
_cell_length_b 18.963794
_cell_length_c 12.594647
_cell_angle_alpha 90.000000
_cell_angle_beta 90.000000
_cell_angle_gamma 120.000000
_cell_volume 3922.537367
_symmetry_space_group_name_H-M "P -3 1 M "
_symmetry_group_IT_number 162
_symmetry_cell_setting 'hexagonal'
loop_
_space_group_symop_operation_xyz
x,y,z
-y,x-y,z
-x+y,-x,z
-y,-x,-z
-x+y,y,-z
x,x-y,-z
-x,-y,-z
y,-x+y,-z
x-y,x,-z
y,x,z
x-y,-y,z
-x,-x+y,z
loop_
_atom_site_type_symbol
_atom_site_label
_atom_site_fract_x
_atom_site_fract_y
_atom_site_fract_z
Si Si1 0.745868 0.092574 0.626723
Si Si2 0.499329 0.831355 0.226219
Si Si3 0.368079 0.461176 1.000000
Si Si4 0.500671 0.168645 0.226220
Si Si5 0.092574 0.745868 0.373277
O O1 0.688162 0.117914 0.689450
O O2 0.838481 0.161519 0.652767
O O3 0.735535 0.096574 0.500000
O O4 0.719943 0.000000 0.653263
O O5 0.535631 0.861550 0.108365
O O6 0.421120 0.842240 0.239494
O O7 0.474669 0.737334 0.237336
O O8 0.570248 0.882086 0.310549
O O9 0.388920 0.388920 0.000000
O O10 0.454714 0.545287 0.000000
O O11 0.325920 0.464369 0.891635
O O12 0.000000 0.719943 0.346736
#
# Coordination Sequence:
#
# PCOD9577681 Si02
#       5
#    12  12  12  12  12
#     4   9  18  32  49  68  89 114 144 179 221 267
#     4  10  19  30  44  63  89 121 155 188 221 258
#     4   9  17  28  42  60  82 111 149 191 229 262
#     4  10  19  30  44  63  89 121 155 188 221 258
#     4   9  18  32  49  68  89 114 144 179 221 267
#
# _framework density 15.296220999999999
#
# number of rings (size 3 to 8) (size 9 to 14) (size 15 to 20)
#    0.000    2.600    0.000    2.200    0.000    3.200 
#    0.000    4.000    0.000    2.800    0.000    2.800 
#    0.000    0.000    0.000    0.000    0.000   41.600 
#
# Total GULP energy -334255.631272 kJ/mol
# GULP energy per Si atom -5570.927188 kJ/mol
# Density = 1.526141 g / cm^3
# Si number density = 15.296221 Si / 1000 Ang^3
#
#
#
# Elastic Constant Matrix: (Units=GPa)
#
#
# Indices 1 2 3 4 5 6 
#
# 1 90.7963 69.6613 40.7500 0.0000 0.0000 0.0000
# 2 69.6613 90.7963 40.7500 0.0000 0.0000 0.0000
# 3 40.7500 40.7500 44.3446 0.0000 0.0000 0.0000
# 4 0.0000 0.0000 0.0000 21.3027 0.0000 0.0000
# 5 0.0000 0.0000 0.0000 0.0000 21.3027 0.0000
# 6 0.0000 0.0000 0.0000 0.0000 0.0000 10.5675
#
#
#
# Elastic Compliance Matrix: (Units=1/GPa)
#
#
# Indices 1 2 3 4 5 6 
#
# 1 0.029501 -0.017814 -0.010740 0.000000 0.000000 0.000000
# 2 -0.017814 0.029501 -0.010740 0.000000 0.000000 0.000000
# 3 -0.010740 -0.010740 0.042289 0.000000 0.000000 0.000000
# 4 0.000000 0.000000 0.000000 0.046942 0.000000 0.000000
# 5 0.000000 0.000000 0.000000 0.000000 0.046942 0.000000
# 6 0.000000 0.000000 0.000000 0.000000 0.000000 0.094630
#
#
# Mechanical properties :
#
#
# Convention : Reuss Voigt Hill
#
# Bulk Modulus (GPa) = 44.04465 58.69553 51.37009
# Shear Modulus (GPa) = 13.29929 15.61967 14.45948
#
# Velocity S-wave (km/s) = 2.95184 3.19900 3.07790
# Velocity P-wave (km/s) = 6.36198 7.21808 6.80351
#
# Compressibility (1/GPa) = 0.02270423
#
# Stress axis : x y z
#
# Youngs Moduli (GPa) = 33.89718 33.89718 23.64684
#
# Poissons Ratio (x) = 0.60384 0.25396
# Poissons Ratio (y) = 0.60384 0.25396
# Poissons Ratio (z) = 0.36405 0.36405
#
# Static dielectric constant tensor:
#      x y z
#    x 1.502320 0.000000 0.000000 
#    y 0.000000 1.502320 0.000000 
#    z 0.000000 0.000000 1.506510 
# 
# From -- ./inp_files/2284.got.cif
#   From: 2010.05.17/outbox.cif.g08.bks.cpg/sg162_2_cif.got.tgz:2284.got - 2010.05.20 10:53:12.
