data_PCOD9577670
_publ_section_title
;
Structure prediction by ZEFSAII (Michael W. Deem and Ramdas Pophale) SiO2 
 PCOD9577670
Probable space group: P -3 1 M 
;
_chemical_formula_sum "Si O2"
_cell_formula_units_Z 60
_cell_length_a 17.630276
_cell_length_b 17.630276
_cell_length_c 10.979390
_cell_angle_alpha 90.000000
_cell_angle_beta 90.000000
_cell_angle_gamma 120.000000
_cell_volume 2955.473475
_symmetry_space_group_name_H-M "P -3 1 M "
_symmetry_group_IT_number 162
_symmetry_cell_setting 'hexagonal'
loop_
_space_group_symop_operation_xyz
x,y,z
-y,x-y,z
-x+y,-x,z
-y,-x,-z
-x+y,y,-z
x,x-y,-z
-x,-y,-z
y,-x+y,-z
x-y,x,-z
y,x,z
x-y,-y,z
-x,-x+y,z
loop_
_atom_site_type_symbol
_atom_site_label
_atom_site_fract_x
_atom_site_fract_y
_atom_site_fract_z
Si Si1 0.098431 0.449894 0.240374
Si Si2 0.103440 0.205998 0.144654
Si Si3 0.837018 0.231424 0.745575
Si Si4 0.507871 0.103554 0.616510
Si Si5 0.102102 0.466937 0.963915
O O1 0.167672 0.428997 0.296394
O O2 0.122326 0.548927 0.269298
O O3 0.000000 0.389457 0.286895
O O4 0.098470 0.428705 0.097899
O O5 0.133624 0.133624 0.160097
O O6 0.170401 0.292052 0.221388
O O7 0.000000 0.165158 0.174036
O O8 0.114639 0.229278 0.000000
O O9 0.874222 0.306891 0.644465
O O10 0.846780 0.287535 0.868831
O O11 0.571246 0.142491 0.500000
O O12 0.456000 0.000000 0.601927
O O13 0.000000 0.423463 0.920842
O O14 0.135222 0.567611 0.000000
#
# Coordination Sequence:
#
# PCOD9577670 Si02
#       5
#    12  12  12  12  12
#     4  10  21  37  56  83 117 150 190 246 302 351
#     4  10  20  34  55  88 130 170 208 252 308 378
#     4  12  21  34  59  86 116 160 203 246 296 374
#     4  10  22  41  61  79 106 151 201 248 297 350
#     4  10  18  32  55  81 112 149 192 238 288 351
#
# _framework density 20.301316
#
# number of rings (size 3 to 8) (size 9 to 14) (size 15 to 20)
#    0.000    1.600    2.000    4.400    0.000    4.800 
#    1.200    0.000    0.000    0.000    0.000    0.000 
#    0.000    0.000    0.000   15.200    0.000    5.600 
#
# Total GULP energy -334415.869544 kJ/mol
# GULP energy per Si atom -5573.597826 kJ/mol
# Density = 2.025511 g / cm^3
# Si number density = 20.301316 Si / 1000 Ang^3
#
#
#
# Elastic Constant Matrix: (Units=GPa)
#
#
# Indices 1 2 3 4 5 6 
#
# 1 110.9696 57.4362 27.7822 0.0000 -6.6147 0.0000
# 2 57.4362 110.9696 27.7822 0.0000 6.6147 0.0000
# 3 27.7822 27.7822 63.0977 0.0000 0.0000 0.0000
# 4 0.0000 0.0000 0.0000 18.3941 0.0000 6.6147
# 5 -6.6147 6.6147 0.0000 0.0000 18.3941 0.0000
# 6 0.0000 0.0000 0.0000 6.6147 0.0000 26.7667
#
#
#
# Elastic Compliance Matrix: (Units=1/GPa)
#
#
# Indices 1 2 3 4 5 6 
#
# 1 0.013725 -0.006777 -0.003059 0.000000 0.007373 0.000000
# 2 -0.006777 0.013725 -0.003059 0.000000 -0.007373 0.000000
# 3 -0.003059 -0.003059 0.018542 0.000000 0.000000 0.000000
# 4 0.000000 0.000000 0.000000 0.059668 0.000000 -0.014745
# 5 0.007373 -0.007373 0.000000 0.000000 0.059668 0.000000
# 6 0.000000 0.000000 0.000000 -0.014745 0.000000 0.041004
#
#
# Mechanical properties :
#
#
# Convention : Reuss Voigt Hill
#
# Bulk Modulus (GPa) = 49.50240 56.78205 53.14222
# Shear Modulus (GPa) = 20.93323 24.18008 22.55666
#
# Velocity S-wave (km/s) = 3.21460 3.45492 3.33692
# Velocity P-wave (km/s) = 6.18183 6.62915 6.40939
#
# Compressibility (1/GPa) = 0.02020104
#
# Stress axis : x y z
#
# Youngs Moduli (GPa) = 72.86183 72.86183 53.93115
#
# Poissons Ratio (x) = 0.49381 0.16497
# Poissons Ratio (y) = 0.49381 0.16497
# Poissons Ratio (z) = 0.22288 0.22288
#
# Static dielectric constant tensor:
#      x y z
#    x 1.744510 0.000000 0.000000 
#    y 0.000000 1.744510 0.000000 
#    z 0.000000 0.000000 1.808830 
# 
# From -- ./inp_files/2302.got.cif
#   From: 2010.05.17/outbox.cif.g08.bks.cpg/sg162_2_cif.got.tgz:2302.got - 2010.05.20 10:53:12.
