data_PCOD9577408
_publ_section_title
;
Structure prediction by ZEFSAII (Michael W. Deem and Ramdas Pophale) SiO2 
 PCOD9577408
Probable space group: P 3 1 C
;
_chemical_formula_sum "Si O2"
_cell_formula_units_Z 42
_cell_length_a 8.678481
_cell_length_b 8.678481
_cell_length_c 32.681669
_cell_angle_alpha 90.000000
_cell_angle_beta 90.000000
_cell_angle_gamma 120.000000
_cell_volume 2131.681386
_symmetry_space_group_name_H-M "P 3 1 C"
_symmetry_group_IT_number 159
_symmetry_cell_setting 'hexagonal'
loop_
_space_group_symop_operation_xyz
x,y,z
-y,x-y,z
-x+y,-x,z
y,x,1/2+z
x-y,-y,1/2+z
-x,-x+y,1/2+z
loop_
_atom_site_type_symbol
_atom_site_label
_atom_site_fract_x
_atom_site_fract_y
_atom_site_fract_z
Si Si1 0.653646 0.654018 0.231300
Si Si2 0.984971 0.790025 0.606246
Si Si3 0.675797 0.999040 0.861464
Si Si4 0.984971 0.790025 0.452963
Si Si5 0.862433 0.542970 0.529604
Si Si6 0.000372 0.346354 0.827909
Si Si7 0.675797 0.999040 0.197745
O O1 0.624527 0.624527 0.279604
O O2 0.854147 0.711977 0.218749
O O3 0.522867 0.475336 0.207113
O O4 0.616481 0.809462 0.217911
O O5 0.985943 0.708780 0.649954
O O6 0.828044 0.840985 0.603662
O O7 0.958109 0.658691 0.569448
O O8 0.857830 0.145853 0.840460
O O9 0.708780 0.985943 0.909255
O O10 0.616480 0.809462 0.841298
O O11 0.524664 0.047530 0.852096
O O12 0.958109 0.658691 0.489761
O O13 0.828044 0.840985 0.455546
O O14 0.653874 0.492169 0.529604
#
# Coordination Sequence:
#
# PCOD9577408 Si02
#       7
#     6   6   6   6   6   6   6
#     4  12  24  42  64  95 136 179 235 295 352 413
#     4  10  21  44  68  96 132 183 220 272 344 411
#     4  12  25  43  67  99 133 186 235 288 354 415
#     4  10  21  44  68  96 132 183 220 272 344 411
#     4  10  24  36  68 106 130 166 222 274 330 410
#     4  12  24  42  64  95 136 179 235 295 352 413
#     4  12  25  43  67  99 133 186 235 288 354 415
#
# _framework density 19.702756999999998
#
# number of rings (size 3 to 8) (size 9 to 14) (size 15 to 20)
#    0.857    0.000    2.857    5.143    4.000    0.000 
#    0.000    0.000    0.000    4.571    0.000    0.000 
#    0.000    0.000    0.000    0.000    0.000    0.000 
#
# Total GULP energy -234611.635528 kJ/mol
# GULP energy per Si atom -5585.991322 kJ/mol
# Density = 1.965791 g / cm^3
# Si number density = 19.702757 Si / 1000 Ang^3
#
#
#
# Elastic Constant Matrix: (Units=GPa)
#
#
# Indices 1 2 3 4 5 6 
#
# 1 61.2541 -10.0301 30.8901 0.0000 0.0001 0.0000
# 2 -10.0301 61.2541 30.8901 0.0000 -0.0001 0.0000
# 3 30.8901 30.8901 126.9743 0.0000 0.0000 0.0000
# 4 0.0000 0.0000 0.0000 28.4635 0.0000 -0.0001
# 5 0.0001 -0.0001 0.0000 0.0000 28.4635 0.0000
# 6 0.0000 0.0000 0.0000 -0.0001 0.0000 35.6421
#
#
#
# Elastic Compliance Matrix: (Units=1/GPa)
#
#
# Indices 1 2 3 4 5 6 
#
# 1 0.020829 0.006800 -0.006721 0.000000 0.000000 0.000000
# 2 0.006800 0.020829 -0.006721 0.000000 0.000000 0.000000
# 3 -0.006721 -0.006721 0.011146 0.000000 0.000000 0.000000
# 4 0.000000 0.000000 0.000000 0.035133 0.000000 0.000000
# 5 0.000000 0.000000 0.000000 0.000000 0.035133 0.000000
# 6 0.000000 0.000000 0.000000 0.000000 0.000000 0.028057
#
#
# Mechanical properties :
#
#
# Convention : Reuss Voigt Hill
#
# Bulk Modulus (GPa) = 25.30519 39.22030 32.26274
# Shear Modulus (GPa) = 28.15581 31.69598 29.92590
#
# Velocity S-wave (km/s) = 3.78435 4.01522 3.90149
# Velocity P-wave (km/s) = 5.65389 6.43780 6.05853
#
# Compressibility (1/GPa) = 0.03951759
#
# Stress axis : x y z
#
# Youngs Moduli (GPa) = 48.01099 48.01099 89.71832
#
# Poissons Ratio (x) = -0.32648 0.60304
# Poissons Ratio (y) = -0.32648 0.60304
# Poissons Ratio (z) = 0.32271 0.32271
#
# Static dielectric constant tensor:
#      x y z
#    x 1.683620 0.000000 0.000000 
#    y 0.000000 1.683620 0.000000 
#    z 0.000000 0.000000 1.644370 
# 
# From -- ./inp_files/1310.got.cif
#   From: 2010.05.17/outbox.cif.g08.bks.cpg/sg159_cif.got.tgz:1310.got - 2010.05.20 10:50:30.
