data_PCOD9577068
_publ_section_title
;
Structure prediction by ZEFSAII (Michael W. Deem and Ramdas Pophale) SiO2 
 PCOD9577068
Probable space group: R 3 2
;
_chemical_formula_sum "Si O2"
_cell_formula_units_Z 69
_cell_length_a 10.965597
_cell_length_b 10.965597
_cell_length_c 30.994702
_cell_angle_alpha 90.000000
_cell_angle_beta 90.000000
_cell_angle_gamma 120.000000
_cell_volume 3227.621939
_symmetry_space_group_name_H-M "R 3 2"
_symmetry_group_IT_number 155
_symmetry_cell_setting 'hexagonal'
loop_
_space_group_symop_operation_xyz
x,y,z
-y,x-y,z
-x+y,-x,z
x-y,-y,-z
-x,-x+y,-z
y,x,-z
2/3+x,1/3+y,1/3+z
2/3-y,1/3+x-y,1/3+z
2/3-x+y,1/3-x,1/3+z
2/3+x-y,1/3-y,1/3-z
2/3-x,1/3-x+y,1/3-z
2/3+y,1/3+x,1/3-z
1/3+x,2/3+y,2/3+z
1/3-y,2/3+x-y,2/3+z
1/3-x+y,2/3-x,2/3+z
1/3+x-y,2/3-y,2/3-z
1/3-x,2/3-x+y,2/3-z
1/3+y,2/3+x,2/3-z
loop_
_atom_site_type_symbol
_atom_site_label
_atom_site_fract_x
_atom_site_fract_y
_atom_site_fract_z
Si Si1 0.281464 0.037031 0.714490
Si Si2 0.248705 0.915371 0.833334
Si Si3 0.375265 0.452752 0.420947
Si Si4 0.333334 0.666667 0.615230
Si Si5 0.163353 0.863825 0.097913
O O1 0.333334 0.090523 0.666667
O O2 0.211461 0.116937 0.738142
O O3 0.162756 0.871089 0.717897
O O4 0.419307 0.062346 0.740434
O O5 0.126800 0.864704 0.797469
O O6 0.390730 0.938026 0.810518
O O7 0.325125 0.289231 0.429680
O O8 0.333334 0.666668 0.666667
O O9 0.487735 0.731733 0.595361
#
# Coordination Sequence:
#
# PCOD9577068 Si02
#       5
#    18   9  18   6  18
#     4  11  26  44  70 103 141 190 237 284 360 418
#     4  10  24  44  72 106 136 180 246 280 360 410
#     4  11  26  45  71 102 144 186 230 302 343 420
#     4  12  21  39  72 105 132 171 240 297 339 393
#     4  11  24  43  71 103 135 187 228 301 342 411
#
# _framework density 21.377967000000002
#
# number of rings (size 3 to 8) (size 9 to 14) (size 15 to 20)
#    0.000    1.043    5.217    1.304   10.957    0.000 
#    1.565    0.000    0.000    1.565    0.000    0.000 
#    0.000    0.000    0.000    0.000    0.000    0.000 
#
# Total GULP energy -128374.171407 kJ/mol
# GULP energy per Si atom -5581.485713 kJ/mol
# Density = 2.132931 g / cm^3
# Si number density = 21.377967 Si / 1000 Ang^3
#
#
#
# Elastic Constant Matrix: (Units=GPa)
#
#
# Indices 1 2 3 4 5 6 
#
# 1 85.6128 3.5542 18.7866 -5.0645 0.0005 0.0001
# 2 3.5542 85.6124 18.7867 5.0648 -0.0001 0.0001
# 3 18.7866 18.7867 87.5341 -0.0003 0.0000 0.0000
# 4 -5.0645 5.0648 -0.0003 6.8248 -0.0002 -0.0003
# 5 0.0005 -0.0001 0.0000 -0.0002 6.8269 -5.0644
# 6 0.0001 0.0001 0.0000 -0.0003 -5.0644 41.0293
#
#
#
# Elastic Compliance Matrix: (Units=1/GPa)
#
#
# Indices 1 2 3 4 5 6 
#
# 1 0.012873 -0.000543 -0.002646 0.009955 -0.000001 0.000000
# 2 -0.000543 0.012873 -0.002646 -0.009956 0.000000 0.000000
# 3 -0.002646 -0.002646 0.012560 0.000001 0.000000 0.000000
# 4 0.009955 -0.009956 0.000001 0.161300 0.000006 0.000002
# 5 -0.000001 0.000000 0.000000 0.000006 0.161244 0.019903
# 6 0.000000 0.000000 0.000000 0.000002 0.019903 0.026830
#
#
# Mechanical properties :
#
#
# Convention : Reuss Voigt Hill
#
# Bulk Modulus (GPa) = 37.54467 37.89049 37.71758
# Shear Modulus (GPa) = 12.24809 25.44500 18.84654
#
# Velocity S-wave (km/s) = 2.39619 3.45373 2.97237
# Velocity P-wave (km/s) = 5.02555 5.80232 5.42785
#
# Compressibility (1/GPa) = 0.02663494
#
# Stress axis : x y z
#
# Youngs Moduli (GPa) = 77.68442 77.68327 79.61771
#
# Poissons Ratio (x) = 0.04216 0.21069
# Poissons Ratio (y) = 0.04216 0.21070
# Poissons Ratio (z) = 0.20557 0.20558
#
# Static dielectric constant tensor:
#      x y z
#    x 1.834790 0.000000 0.000000 
#    y 0.000000 1.834790 0.000000 
#    z 0.000000 0.000000 1.582190 
# 
# From -- ./inp_files/8265.got.cif
#   From: 2010.05.17/outbox.cif.g08.bks.cpg/sg155_5_cif.got.tgz:8265.got - 2010.05.20 10:44:35.
