data_PCOD9577333
_publ_section_title
;
Structure prediction by ZEFSAII (Michael W. Deem and Ramdas Pophale) SiO2 
 PCOD9577333
Probable space group: P 3 C 1
;
_chemical_formula_sum "Si O2"
_cell_formula_units_Z 18
_cell_length_a 9.880781
_cell_length_b 9.880781
_cell_length_c 9.220814
_cell_angle_alpha 90.000000
_cell_angle_beta 90.000000
_cell_angle_gamma 120.000000
_cell_volume 779.619046
_symmetry_space_group_name_H-M "P 3 C 1"
_symmetry_group_IT_number 158
_symmetry_cell_setting 'hexagonal'
loop_
_space_group_symop_operation_xyz
x,y,z
-y,x-y,z
-x+y,-x,z
-x+y,y,1/2+z
x,x-y,1/2+z
-y,-x,1/2+z
loop_
_atom_site_type_symbol
_atom_site_label
_atom_site_fract_x
_atom_site_fract_y
_atom_site_fract_z
Si Si1 0.423312 0.025052 0.614230
Si Si2 0.243355 0.308281 0.614230
Si Si3 0.333333 0.166666 0.364230
O O1 0.433888 0.123837 0.472297
O O2 0.433887 0.123838 0.756162
O O3 0.546452 0.966464 0.614230
O O4 0.246654 0.879785 0.614230
O O5 0.232779 0.209496 0.472297
O O6 0.232779 0.209496 0.756163
#
# Coordination Sequence:
#
# PCOD9577333 Si02
#       3
#     6   6   6
#     4  11  23  46  70 100 131 177 230 280 332 395
#     4  11  23  46  70 100 131 177 230 280 332 395
#     4  10  24  42  58 106 136 170 216 262 356 394
#
# _framework density 23.088201000000002
#
# number of rings (size 3 to 8) (size 9 to 14) (size 15 to 20)
#    0.000    1.333    0.000    4.667    0.000    0.000 
#   80.000    6.667    0.000    0.000    0.000    0.000 
#    0.000    0.000    0.000    0.000    0.000    0.000 
#
# Total GULP energy -100872.808426 kJ/mol
# GULP energy per Si atom -5604.044913 kJ/mol
# Density = 2.303565 g / cm^3
# Si number density = 23.088201 Si / 1000 Ang^3
#
#
#
# Elastic Constant Matrix: (Units=GPa)
#
#
# Indices 1 2 3 4 5 6 
#
# 1 129.6924 92.3044 75.9508 -0.0002 0.0000 0.0000
# 2 92.3044 129.6924 75.9508 0.0002 0.0000 0.0000
# 3 75.9508 75.9508 207.9103 0.0000 0.0000 0.0000
# 4 -0.0002 0.0002 0.0000 52.6282 0.0000 0.0000
# 5 0.0000 0.0000 0.0000 0.0000 52.6282 -0.0002
# 6 0.0000 0.0000 0.0000 0.0000 -0.0002 18.6940
#
#
#
# Elastic Compliance Matrix: (Units=1/GPa)
#
#
# Indices 1 2 3 4 5 6 
#
# 1 0.016376 -0.010370 -0.002194 0.000000 0.000000 0.000000
# 2 -0.010370 0.016376 -0.002194 0.000000 0.000000 0.000000
# 3 -0.002194 -0.002194 0.006413 0.000000 0.000000 0.000000
# 4 0.000000 0.000000 0.000000 0.019001 0.000000 0.000000
# 5 0.000000 0.000000 0.000000 0.000000 0.019001 0.000000
# 6 0.000000 0.000000 0.000000 0.000000 0.000000 0.053493
#
#
# Mechanical properties :
#
#
# Convention : Reuss Voigt Hill
#
# Bulk Modulus (GPa) = 103.64342 106.18967 104.91655
# Shear Modulus (GPa) = 30.60099 39.66266 35.13183
#
# Velocity S-wave (km/s) = 3.64455 4.14922 3.90505
# Velocity P-wave (km/s) = 7.91820 8.30949 8.11621
#
# Compressibility (1/GPa) = 0.00964847
#
# Stress axis : x y z
#
# Youngs Moduli (GPa) = 61.06430 61.06430 155.94090
#
# Poissons Ratio (x) = 0.63326 0.34213
# Poissons Ratio (y) = 0.63326 0.34213
# Poissons Ratio (z) = 0.13397 0.13397
#
# Static dielectric constant tensor:
#      x y z
#    x 1.828670 0.000000 0.000000 
#    y 0.000000 1.828670 0.000000 
#    z 0.000000 0.000000 1.855250 
# 
# From -- ./inp_files/304.got.cif
#   From: 2010.05.17/outbox.cif.g08.bks.cpg/sg158_cif.got.tgz:304.got - 2010.05.20 10:49:59.
