data_PCOD9577849
_publ_section_title
;
Structure prediction by ZEFSAII (Michael W. Deem and Ramdas Pophale) SiO2 
 PCOD9577849
Probable space group: P -3 1 M 
;
_chemical_formula_sum "Si O2"
_cell_formula_units_Z 48
_cell_length_a 17.214346
_cell_length_b 17.214346
_cell_length_c 10.097573
_cell_angle_alpha 90.000000
_cell_angle_beta 90.000000
_cell_angle_gamma 120.000000
_cell_volume 2591.365598
_symmetry_space_group_name_H-M "P -3 1 M "
_symmetry_group_IT_number 162
_symmetry_cell_setting 'hexagonal'
loop_
_space_group_symop_operation_xyz
x,y,z
-y,x-y,z
-x+y,-x,z
-y,-x,-z
-x+y,y,-z
x,x-y,-z
-x,-y,-z
y,-x+y,-z
x-y,x,-z
y,x,z
x-y,-y,z
-x,-x+y,z
loop_
_atom_site_type_symbol
_atom_site_label
_atom_site_fract_x
_atom_site_fract_y
_atom_site_fract_z
Si Si1 0.804947 0.609893 0.500000
Si Si2 0.892748 0.661752 0.221630
Si Si3 0.389377 0.898590 0.379783
Si Si4 0.401972 0.890264 0.865680
Si Si5 0.783857 0.891929 0.000000
O O1 0.867790 0.661307 0.375230
O O2 0.839833 0.550133 0.570636
O O3 0.859776 0.561350 0.165374
O O4 0.863704 0.717996 0.127281
O O5 0.000000 0.712293 0.213056
O O6 0.452264 0.904527 0.500000
O O7 0.419014 0.863388 0.254684
O O8 0.412129 0.000000 0.349415
O O9 0.454136 0.000000 0.866436
O O10 0.430963 0.861926 0.000000
O O11 0.844932 0.844932 0.003747
#
# Coordination Sequence:
#
# PCOD9577849 Si02
#       5
#     6  12  12  12   6
#     4  12  22  34  58  90 121 158 199 248 290 358
#     4  10  22  39  59  89 120 152 201 252 298 359
#     4  10  20  37  56  79 114 157 193 231 289 351
#     4   9  18  35  59  84 113 149 191 239 290 345
#     4  10  23  42  64  90 124 162 204 256 317 376
#
# _framework density 18.523053000000001
#
# number of rings (size 3 to 8) (size 9 to 14) (size 15 to 20)
#    0.000    2.000    2.500    0.875    3.500    2.000 
#    0.750    0.000    0.000    0.000    3.250    4.375 
#    0.000    0.000    0.000    0.000    0.000    0.000 
#
# Total GULP energy -267605.882828 kJ/mol
# GULP energy per Si atom -5575.122559 kJ/mol
# Density = 1.848089 g / cm^3
# Si number density = 18.523053 Si / 1000 Ang^3
#
#
#
# Elastic Constant Matrix: (Units=GPa)
#
#
# Indices 1 2 3 4 5 6 
#
# 1 46.0657 51.3862 36.1752 -0.0002 -4.2812 0.0000
# 2 51.3862 46.0657 36.1752 0.0002 4.2812 0.0000
# 3 36.1752 36.1752 159.8640 0.0000 0.0000 0.0000
# 4 -0.0002 0.0002 0.0000 29.6571 0.0000 4.2812
# 5 -4.2812 4.2812 0.0000 0.0000 29.6571 -0.0002
# 6 0.0000 0.0000 0.0000 4.2812 -0.0002 -2.6603
#
#
#
# Elastic Compliance Matrix: (Units=1/GPa)
#
#
# Indices 1 2 3 4 5 6 
#
# 1 -0.070092 0.082426 -0.002791 -0.000001 -0.022017 0.000000
# 2 0.082426 -0.070092 -0.002791 0.000001 0.022017 0.000000
# 3 -0.002791 -0.002791 0.007518 0.000000 0.000000 0.000000
# 4 -0.000001 0.000001 0.000000 0.027362 0.000000 0.044034
# 5 -0.022017 0.022017 0.000000 0.000000 0.027362 -0.000002
# 6 0.000000 0.000000 0.000000 0.044034 -0.000002 -0.305036
#
#
# Mechanical properties :
#
#
# Convention : Reuss Voigt Hill
#
# Bulk Modulus (GPa) = 47.56974 55.49652 51.53313
# Shear Modulus (GPa) = -9.44004 19.88137 5.22066
#
# Velocity S-wave (km/s) = -2.25996 3.27973 1.68065
# Velocity P-wave (km/s) = 4.35054 6.66093 5.62562
#
# Compressibility (1/GPa) = 0.02102177
#
# Stress axis : x y z
#
# Youngs Moduli (GPa) = -14.26690 -14.26690 133.00675
#
# Poissons Ratio (x) = 1.17596 0.37121
# Poissons Ratio (y) = 1.17596 0.37121
# Poissons Ratio (z) = -0.03982 -0.03982
#
# Static dielectric constant tensor:
#      x y z
#    x 1.658970 0.000000 0.000000 
#    y 0.000000 1.658970 0.000000 
#    z 0.000000 0.000000 1.645280 
# 
# From -- ./inp_files/1279.got.cif
#   From: 2010.05.17/outbox.cif.g08.bks.cpg/sg162_1_cif.got.tgz:1279.got - 2010.05.20 10:53:12.
