data_PCOD9577343
_publ_section_title
;
Structure prediction by ZEFSAII (Michael W. Deem and Ramdas Pophale) SiO2 
 PCOD9577343
Probable space group: P 3 1 C
;
_chemical_formula_sum "Si O2"
_cell_formula_units_Z 30
_cell_length_a 16.214764
_cell_length_b 16.214764
_cell_length_c 5.596476
_cell_angle_alpha 90.000000
_cell_angle_beta 90.000000
_cell_angle_gamma 120.000000
_cell_volume 1274.284914
_symmetry_space_group_name_H-M "P 3 1 C"
_symmetry_group_IT_number 159
_symmetry_cell_setting 'hexagonal'
loop_
_space_group_symop_operation_xyz
x,y,z
-y,x-y,z
-x+y,-x,z
y,x,1/2+z
x-y,-y,1/2+z
-x,-x+y,1/2+z
loop_
_atom_site_type_symbol
_atom_site_label
_atom_site_fract_x
_atom_site_fract_y
_atom_site_fract_z
Si Si1 0.552573 0.433346 0.600430
Si Si2 0.156538 0.147201 0.100431
Si Si3 0.054299 0.701496 0.100431
Si Si4 0.718359 0.775458 0.600432
Si Si5 0.496194 0.104124 0.100430
O O1 0.461960 0.327149 0.600430
O O2 0.604813 0.452379 0.347649
O O3 0.518804 0.514618 0.600430
O O4 0.604814 0.452380 0.853210
O O5 0.107010 0.107011 0.350431
O O6 0.194105 0.260338 0.100431
O O7 0.249449 0.135592 0.100431
O O8 0.000001 0.657810 0.350432
O O9 0.757515 0.757515 0.350432
O O10 0.606986 0.701298 0.600431
#
# Coordination Sequence:
#
# PCOD9577343 Si02
#       5
#     6   6   6   6   6
#     4  10  14  25  43  74 107 125 154 187 252 300
#     4  10  23  38  52  74 105 140 181 219 278 333
#     4  10  16  27  47  68 101 138 153 194 237 307
#     4  12  21  35  56  77 104 138 171 235 289 314
#     4  10  16  25  44  77 103 125 155 193 254 310
#
# _framework density 23.542615000000001
#
# number of rings (size 3 to 8) (size 9 to 14) (size 15 to 20)
#    0.000    1.600    8.000    1.200    0.000    0.000 
#    0.000    0.000    0.000    8.000    0.000    0.000 
#    2.000    0.000    2.400    0.000    0.000    0.000 
#
# Total GULP energy -167234.326821 kJ/mol
# GULP energy per Si atom -5574.477561 kJ/mol
# Density = 2.348903 g / cm^3
# Si number density = 23.542615 Si / 1000 Ang^3
#
#
#
# Elastic Constant Matrix: (Units=GPa)
#
#
# Indices 1 2 3 4 5 6 
#
# 1 64.8526 34.2699 30.1057 0.0000 -0.0002 0.0000
# 2 34.2699 64.8526 30.1057 0.0000 0.0002 0.0000
# 3 30.1057 30.1057 303.4346 0.0000 0.0000 0.0000
# 4 0.0000 0.0000 0.0000 -3.1753 0.0000 0.0002
# 5 -0.0002 0.0002 0.0000 0.0000 -3.1753 0.0000
# 6 0.0000 0.0000 0.0000 0.0002 0.0000 15.2914
#
#
#
# Elastic Compliance Matrix: (Units=1/GPa)
#
#
# Indices 1 2 3 4 5 6 
#
# 1 0.021717 -0.010981 -0.001065 0.000000 -0.000002 0.000000
# 2 -0.010981 0.021717 -0.001065 0.000000 0.000002 0.000000
# 3 -0.001065 -0.001065 0.003507 0.000000 0.000000 0.000000
# 4 0.000000 0.000000 0.000000 -0.314935 0.000000 0.000004
# 5 -0.000002 0.000002 0.000000 0.000000 -0.314935 0.000000
# 6 0.000000 0.000000 0.000000 0.000004 0.000000 0.065396
#
#
# Mechanical properties :
#
#
# Convention : Reuss Voigt Hill
#
# Bulk Modulus (GPa) = 48.26843 69.12249 58.69546
# Shear Modulus (GPa) = -10.32195 24.36541 7.02173
#
# Velocity S-wave (km/s) = -2.09616 3.22055 1.72888
# Velocity P-wave (km/s) = 3.83257 6.57675 5.38248
#
# Compressibility (1/GPa) = 0.02071748
#
# Stress axis : x y z
#
# Youngs Moduli (GPa) = 46.04720 46.04720 285.14705
#
# Poissons Ratio (x) = 0.50566 0.30372
# Poissons Ratio (y) = 0.50566 0.30372
# Poissons Ratio (z) = 0.04905 0.04905
#
# Static dielectric constant tensor:
#      x y z
#    x 1.891510 0.000000 0.000000 
#    y 0.000000 1.891510 0.000000 
#    z 0.000000 0.000000 1.943520 
# 
# From -- ./inp_files/93.got.cif
#   From: 2010.05.17/outbox.cif.g08.bks.cpg/sg159_cif.got.tgz:93.got - 2010.05.20 10:50:30.
