data_PCOD9577076
_publ_section_title
;
Structure prediction by ZEFSAII (Michael W. Deem and Ramdas Pophale) SiO2 
 PCOD9577076
Probable space group: R 3 2
;
_chemical_formula_sum "Si O2"
_cell_formula_units_Z 45
_cell_length_a 10.811695
_cell_length_b 10.811695
_cell_length_c 20.688960
_cell_angle_alpha 90.000000
_cell_angle_beta 90.000000
_cell_angle_gamma 120.000000
_cell_volume 2094.386660
_symmetry_space_group_name_H-M "R 3 2"
_symmetry_group_IT_number 155
_symmetry_cell_setting 'hexagonal'
loop_
_space_group_symop_operation_xyz
x,y,z
-y,x-y,z
-x+y,-x,z
x-y,-y,-z
-x,-x+y,-z
y,x,-z
2/3+x,1/3+y,1/3+z
2/3-y,1/3+x-y,1/3+z
2/3-x+y,1/3-x,1/3+z
2/3+x-y,1/3-y,1/3-z
2/3-x,1/3-x+y,1/3-z
2/3+y,1/3+x,1/3-z
1/3+x,2/3+y,2/3+z
1/3-y,2/3+x-y,2/3+z
1/3-x+y,2/3-x,2/3+z
1/3+x-y,2/3-y,2/3-z
1/3-x,2/3-x+y,2/3-z
1/3+y,2/3+x,2/3-z
loop_
_atom_site_type_symbol
_atom_site_label
_atom_site_fract_x
_atom_site_fract_y
_atom_site_fract_z
Si Si1 0.243244 0.483710 0.797131
Si Si2 0.151006 0.168275 0.573908
Si Si3 0.570534 0.903867 0.666667
O O1 0.412151 0.591618 0.812986
O O2 0.166037 0.333334 0.833334
O O3 0.244145 0.461634 0.719924
O O4 0.201196 0.201196 0.500000
O O5 0.241039 0.291913 0.622598
O O6 0.985452 0.125362 0.583239
#
# Coordination Sequence:
#
# PCOD9577076 Si02
#       3
#    18  18   9
#     4  10  25  49  73 106 148 194 247 308 374 448
#     4   8  19  41  60  95 145 193 243 296 370 441
#     4  12  20  40  70 102 136 184 248 312 368 436
#
# _framework density 21.486006
#
# number of rings (size 3 to 8) (size 9 to 14) (size 15 to 20)
#    1.600    0.800    0.000    2.400    0.000    3.200 
#   21.600    0.000    0.000    0.800    0.000    0.000 
#    0.000    0.000    0.000    0.000    0.000    0.000 
#
# Total GULP energy -83548.219532 kJ/mol
# GULP energy per Si atom -5569.881302 kJ/mol
# Density = 2.143710 g / cm^3
# Si number density = 21.486006 Si / 1000 Ang^3
#
#
#
# Elastic Constant Matrix: (Units=GPa)
#
#
# Indices 1 2 3 4 5 6 
#
# 1 119.0337 64.7638 60.5317 3.6092 0.0002 0.0000
# 2 64.7638 119.0337 60.5317 -3.6092 -0.0002 0.0000
# 3 60.5317 60.5317 91.1169 0.0000 0.0000 0.0000
# 4 3.6092 -3.6092 0.0000 43.7137 0.0000 -0.0002
# 5 0.0002 -0.0002 0.0000 0.0000 43.7137 3.6092
# 6 0.0000 0.0000 0.0000 -0.0002 3.6092 27.1350
#
#
#
# Elastic Compliance Matrix: (Units=1/GPa)
#
#
# Indices 1 2 3 4 5 6 
#
# 1 0.014152 -0.004479 -0.006427 -0.001538 0.000000 0.000000
# 2 -0.004479 0.014152 -0.006427 0.001538 0.000000 0.000000
# 3 -0.006427 -0.006427 0.019514 0.000000 0.000000 0.000000
# 4 -0.001538 0.001538 0.000000 0.023130 0.000000 0.000000
# 5 0.000000 0.000000 0.000000 0.000000 0.023130 -0.003077
# 6 0.000000 0.000000 0.000000 0.000000 -0.003077 0.037262
#
#
# Mechanical properties :
#
#
# Convention : Reuss Voigt Hill
#
# Bulk Modulus (GPa) = 76.01728 77.87095 76.94412
# Shear Modulus (GPa) = 29.34451 32.46960 30.90705
#
# Velocity S-wave (km/s) = 3.69961 3.89163 3.79684
# Velocity P-wave (km/s) = 7.32845 7.51760 7.42363
#
# Compressibility (1/GPa) = 0.01315490
#
# Stress axis : x y z
#
# Youngs Moduli (GPa) = 70.65922 70.65922 51.24595
#
# Poissons Ratio (x) = 0.31645 0.32934
# Poissons Ratio (y) = 0.31645 0.32934
# Poissons Ratio (z) = 0.45410 0.45410
#
# Static dielectric constant tensor:
#      x y z
#    x 1.837670 0.000000 0.000000 
#    y 0.000000 1.837670 0.000000 
#    z 0.000000 0.000000 1.738100 
# 
# From -- ./inp_files/5644.got.cif
#   From: 2010.05.17/outbox.cif.g08.bks.cpg/sg155_3_cif.got.tgz:5644.got - 2010.05.20 10:44:35.
