data_PCOD9577105
_publ_section_title
;
Structure prediction by ZEFSAII (Michael W. Deem and Ramdas Pophale) SiO2 
 PCOD9577105
Probable space group: R 3 2
;
_chemical_formula_sum "Si O2"
_cell_formula_units_Z 144
_cell_length_a 22.691820
_cell_length_b 22.691820
_cell_length_c 19.051074
_cell_angle_alpha 90.000000
_cell_angle_beta 90.000000
_cell_angle_gamma 120.000000
_cell_volume 8495.496308
_symmetry_space_group_name_H-M "R 3 2"
_symmetry_group_IT_number 155
_symmetry_cell_setting 'hexagonal'
loop_
_space_group_symop_operation_xyz
x,y,z
-y,x-y,z
-x+y,-x,z
x-y,-y,-z
-x,-x+y,-z
y,x,-z
2/3+x,1/3+y,1/3+z
2/3-y,1/3+x-y,1/3+z
2/3-x+y,1/3-x,1/3+z
2/3+x-y,1/3-y,1/3-z
2/3-x,1/3-x+y,1/3-z
2/3+y,1/3+x,1/3-z
1/3+x,2/3+y,2/3+z
1/3-y,2/3+x-y,2/3+z
1/3-x+y,2/3-x,2/3+z
1/3+x-y,2/3-y,2/3-z
1/3-x,2/3-x+y,2/3-z
1/3+y,2/3+x,2/3-z
loop_
_atom_site_type_symbol
_atom_site_label
_atom_site_fract_x
_atom_site_fract_y
_atom_site_fract_z
Si Si1 0.185925 0.952526 0.689423
Si Si2 0.360772 0.410190 0.856972
Si Si3 0.256477 0.972563 0.190304
Si Si4 0.872757 0.611918 0.368723
Si Si5 0.147409 0.714141 0.977245
Si Si6 0.810068 0.051579 0.565345
Si Si7 0.260839 0.872756 0.631278
Si Si8 0.574846 0.718246 0.232013
O O1 0.108586 0.891415 0.692572
O O2 0.230310 0.918991 0.660795
O O3 0.216684 0.987761 0.763627
O O4 0.200347 0.010840 0.633495
O O5 0.307670 0.333334 0.833334
O O6 0.395438 0.449919 0.785688
O O7 0.321095 0.437743 0.903041
O O8 0.418213 0.405732 0.903001
O O9 0.216749 0.937896 0.119020
O O10 0.260935 0.915122 0.236334
O O11 0.333334 0.025666 0.166667
O O12 0.898324 0.564991 0.333334
O O13 0.918992 0.688683 0.339209
O O14 0.795475 0.590949 0.352855
O O15 0.132989 0.655827 0.033173
O O16 0.881480 0.118521 0.552595
O O17 0.787917 0.000000 0.500000
O O18 0.333334 0.898321 0.666667
O O19 0.545418 0.666667 0.166667
#
# Coordination Sequence:
#
# PCOD9577105 Si02
#       8
#    18  18  18  18  18  18  18  18
#     4  11  22  36  55  81 114 147 183 227 277 332
#     4  11  20  33  54  83 115 145 179 222 281 338
#     4  11  20  33  54  83 115 145 179 222 281 338
#     4  11  21  36  56  83 115 148 184 229 278 331
#     4  11  22  36  55  81 114 147 183 227 277 332
#     4  11  21  35  57  83 113 147 183 226 274 327
#     4  11  21  36  56  83 115 148 184 229 278 331
#     4  11  21  35  57  83 113 147 183 226 274 327
#
# _framework density 16.950157000000001
#
# number of rings (size 3 to 8) (size 9 to 14) (size 15 to 20)
#    0.000    1.000    7.500    2.250    0.000    4.500 
#    0.000    0.000    0.000    4.750    0.000    1.750 
#    0.000    0.000    0.000    0.000    0.000    0.000 
#
# Total GULP energy -268108.778498 kJ/mol
# GULP energy per Si atom -5585.599552 kJ/mol
# Density = 1.691158 g / cm^3
# Si number density = 16.950157 Si / 1000 Ang^3
#
#
#
# Elastic Constant Matrix: (Units=GPa)
#
#
# Indices 1 2 3 4 5 6 
#
# 1 52.8489 23.5232 10.7114 4.2350 0.0003 0.0000
# 2 23.5232 52.8489 10.7114 -4.2350 -0.0003 0.0000
# 3 10.7114 10.7114 42.6476 0.0000 0.0000 0.0000
# 4 4.2350 -4.2350 0.0000 10.2945 0.0000 -0.0003
# 5 0.0003 -0.0003 0.0000 0.0000 10.2945 4.2350
# 6 0.0000 0.0000 0.0000 -0.0003 4.2350 14.6628
#
#
#
# Elastic Compliance Matrix: (Units=1/GPa)
#
#
# Indices 1 2 3 4 5 6 
#
# 1 0.026392 -0.012306 -0.003538 -0.015919 -0.000001 0.000000
# 2 -0.012306 0.026392 -0.003538 0.015919 0.000001 0.000000
# 3 -0.003538 -0.003538 0.025225 0.000000 0.000000 0.000000
# 4 -0.015919 0.015919 0.000000 0.110237 0.000000 0.000003
# 5 -0.000001 0.000001 0.000000 0.000000 0.110237 -0.031839
# 6 0.000000 0.000000 0.000000 0.000003 -0.031839 0.077395
#
#
# Mechanical properties :
#
#
# Convention : Reuss Voigt Hill
#
# Bulk Modulus (GPa) = 25.48035 26.47082 25.97558
# Shear Modulus (GPa) = 11.68978 13.94365 12.81672
#
# Velocity S-wave (km/s) = 2.62898 2.87126 2.75279
# Velocity P-wave (km/s) = 4.92753 5.16168 5.04596
#
# Compressibility (1/GPa) = 0.03924593
#
# Stress axis : x y z
#
# Youngs Moduli (GPa) = 37.89036 37.89036 39.64295
#
# Poissons Ratio (x) = 0.46627 0.14025
# Poissons Ratio (y) = 0.46627 0.14025
# Poissons Ratio (z) = 0.13405 0.13405
#
# Static dielectric constant tensor:
#      x y z
#    x 1.555820 0.000000 0.000000 
#    y 0.000000 1.555820 0.000000 
#    z 0.000000 0.000000 1.599410 
# 
# From -- ./inp_files/7048.got.cif
#   From: 2010.05.17/outbox.cif.g08.bks.cpg/sg155_4_cif.got.tgz:7048.got - 2010.05.20 10:44:35.
