data_PCOD9577954
_publ_section_title
;
Structure prediction by ZEFSAII (Michael W. Deem and Ramdas Pophale) SiO2 
 PCOD9577954
Probable space group: P -3 1 M 
;
_chemical_formula_sum "Si O2"
_cell_formula_units_Z 60
_cell_length_a 15.819857
_cell_length_b 15.819857
_cell_length_c 16.137891
_cell_angle_alpha 90.000000
_cell_angle_beta 90.000000
_cell_angle_gamma 120.000000
_cell_volume 3497.699673
_symmetry_space_group_name_H-M "P -3 1 M "
_symmetry_group_IT_number 162
_symmetry_cell_setting 'hexagonal'
loop_
_space_group_symop_operation_xyz
x,y,z
-y,x-y,z
-x+y,-x,z
-y,-x,-z
-x+y,y,-z
x,x-y,-z
-x,-y,-z
y,-x+y,-z
x-y,x,-z
y,x,z
x-y,-y,z
-x,-x+y,z
loop_
_atom_site_type_symbol
_atom_site_label
_atom_site_fract_x
_atom_site_fract_y
_atom_site_fract_z
Si Si1 0.888004 0.111996 0.600845
Si Si2 0.416989 0.300532 1.000000
Si Si3 0.225070 0.450137 0.599681
Si Si4 0.440569 0.559434 0.676049
Si Si5 0.441334 0.558666 0.132643
O O1 0.889049 0.110952 0.500000
O O2 0.831649 0.168345 0.625276
O O3 0.000000 0.168396 0.628711
O O4 0.831609 0.000000 0.628711
O O5 0.343497 0.343497 0.999999
O O6 0.488800 0.346079 0.079096
O O7 0.369793 0.184897 0.000000
O O8 0.488801 0.346078 0.920904
O O9 0.227920 0.455839 0.500000
O O10 0.334912 0.500619 0.633641
O O11 0.165708 0.500616 0.633642
O O12 0.500002 0.500002 0.669490
O O13 0.425182 0.574819 0.772788
O O14 0.500000 0.500000 0.134886
#
# Coordination Sequence:
#
# PCOD9577954 Si02
#       5
#    12  12  12  12  12
#     4   9  17  31  52  76  98 122 163 221 279 327
#     4   9  17  33  57  84 116 144 173 211 261 317
#     4  11  23  36  52  76 103 140 189 227 269 333
#     4  11  23  39  57  75 109 148 182 229 277 321
#     4   8  18  35  52  78 109 137 175 219 256 314
#
# _framework density 17.154129999999999
#
# number of rings (size 3 to 8) (size 9 to 14) (size 15 to 20)
#    0.000    2.400    0.000    3.600    2.800    4.000 
#    4.800    0.000    0.000    0.200    0.000    0.000 
#    0.000    0.000    0.000    0.000    0.000    0.000 
#
# Total GULP energy -334549.234057 kJ/mol
# GULP energy per Si atom -5575.820568 kJ/mol
# Density = 1.711509 g / cm^3
# Si number density = 17.154130 Si / 1000 Ang^3
#
#
#
# Elastic Constant Matrix: (Units=GPa)
#
#
# Indices 1 2 3 4 5 6 
#
# 1 152.4111 87.9180 45.8348 0.0000 -0.0002 0.0000
# 2 87.9180 152.4111 45.8348 0.0000 0.0002 0.0000
# 3 45.8348 45.8348 99.0046 0.0000 0.0000 0.0000
# 4 0.0000 0.0000 0.0000 12.3350 0.0000 0.0002
# 5 -0.0002 0.0002 0.0000 0.0000 12.3350 0.0000
# 6 0.0000 0.0000 0.0000 0.0002 0.0000 32.2465
#
#
#
# Elastic Compliance Matrix: (Units=1/GPa)
#
#
# Indices 1 2 3 4 5 6 
#
# 1 0.010279 -0.005226 -0.002339 0.000000 0.000000 0.000000
# 2 -0.005226 0.010279 -0.002339 0.000000 0.000000 0.000000
# 3 -0.002339 -0.002339 0.012267 0.000000 0.000000 0.000000
# 4 0.000000 0.000000 0.000000 0.081070 0.000000 0.000000
# 5 0.000000 0.000000 0.000000 0.000000 0.081070 0.000000
# 6 0.000000 0.000000 0.000000 0.000000 0.000000 0.031011
#
#
# Mechanical properties :
#
#
# Convention : Reuss Voigt Hill
#
# Bulk Modulus (GPa) = 76.83174 84.77799 80.80486
# Shear Modulus (GPa) = 19.99000 26.33260 23.16130
#
# Velocity S-wave (km/s) = 3.41738 3.92223 3.67848
# Velocity P-wave (km/s) = 7.77545 8.36902 8.07769
#
# Compressibility (1/GPa) = 0.01301545
#
# Stress axis : x y z
#
# Youngs Moduli (GPa) = 97.28173 97.28173 81.52171
#
# Poissons Ratio (x) = 0.50841 0.19072
# Poissons Ratio (y) = 0.50841 0.19072
# Poissons Ratio (z) = 0.22759 0.22759
#
# Static dielectric constant tensor:
#      x y z
#    x 1.572970 0.000000 0.000000 
#    y 0.000000 1.572970 0.000000 
#    z 0.000000 0.000000 1.588030 
# 
# From -- ./inp_files/2927.got.cif
#   From: 2010.05.17/outbox.cif.g08.bks.cpg/sg162_2_cif.got.tgz:2927.got - 2010.05.20 10:53:12.
