data_PCOD9577117
_publ_section_title
;
Structure prediction by ZEFSAII (Michael W. Deem and Ramdas Pophale) SiO2 
 PCOD9577117
Probable space group: R 3 2
;
_chemical_formula_sum "Si O2"
_cell_formula_units_Z 72
_cell_length_a 22.680773
_cell_length_b 22.680773
_cell_length_c 8.846850
_cell_angle_alpha 90.000000
_cell_angle_beta 90.000000
_cell_angle_gamma 120.000000
_cell_volume 3941.259217
_symmetry_space_group_name_H-M "R 3 2"
_symmetry_group_IT_number 155
_symmetry_cell_setting 'hexagonal'
loop_
_space_group_symop_operation_xyz
x,y,z
-y,x-y,z
-x+y,-x,z
x-y,-y,-z
-x,-x+y,-z
y,x,-z
2/3+x,1/3+y,1/3+z
2/3-y,1/3+x-y,1/3+z
2/3-x+y,1/3-x,1/3+z
2/3+x-y,1/3-y,1/3-z
2/3-x,1/3-x+y,1/3-z
2/3+y,1/3+x,1/3-z
1/3+x,2/3+y,2/3+z
1/3-y,2/3+x-y,2/3+z
1/3-x+y,2/3-x,2/3+z
1/3+x-y,2/3-y,2/3-z
1/3-x,2/3-x+y,2/3-z
1/3+y,2/3+x,2/3-z
loop_
_atom_site_type_symbol
_atom_site_label
_atom_site_fract_x
_atom_site_fract_y
_atom_site_fract_z
Si Si1 0.592566 0.405869 0.273453
Si Si2 0.538042 0.612145 0.556446
Si Si3 0.408126 0.123349 0.712172
Si Si4 0.403292 0.593998 0.090140
O O1 0.535413 0.333334 0.333334
O O2 0.666667 0.423116 0.333334
O O3 0.585413 0.467698 0.349871
O O4 0.592939 0.399536 0.091980
O O5 0.556121 0.556121 0.500000
O O6 0.596461 0.666667 0.666667
O O7 0.545324 0.662088 0.418261
O O8 0.333334 0.104831 0.666667
O O9 0.402212 0.068879 0.833334
O O10 0.450148 0.197815 0.784851
O O11 0.423425 0.666667 0.166667
O O12 0.333334 0.539245 0.166667
#
# Coordination Sequence:
#
# PCOD9577117 Si02
#       4
#    18  18  18  18
#     4  11  22  39  59  86 122 161 206 252 306 362
#     4  11  21  38  59  91 127 162 199 247 306 370
#     4  11  22  36  60  90 126 161 198 244 306 369
#     4  11  23  39  58  86 123 162 206 252 307 361
#
# _framework density 18.268274000000002
#
# number of rings (size 3 to 8) (size 9 to 14) (size 15 to 20)
#    0.000    1.000    5.000    5.000    3.500    0.000 
#    0.000    0.000    0.000    0.000    0.000    5.250 
#    0.000    0.000    0.000    0.000    0.000    0.000 
#
# Total GULP energy -133742.546933 kJ/mol
# GULP energy per Si atom -5572.606122 kJ/mol
# Density = 1.822669 g / cm^3
# Si number density = 18.268274 Si / 1000 Ang^3
#
#
#
# Elastic Constant Matrix: (Units=GPa)
#
#
# Indices 1 2 3 4 5 6 
#
# 1 121.6696 61.1642 46.8619 -2.1265 0.0033 0.0005
# 2 61.1642 121.6677 46.8598 2.1272 -0.0003 -0.0010
# 3 46.8619 46.8598 126.5291 0.0048 0.0100 -0.0004
# 4 -2.1265 2.1272 0.0048 30.3805 0.0037 -0.0010
# 5 0.0033 -0.0003 0.0100 0.0037 30.3855 -2.1271
# 6 0.0005 -0.0010 -0.0004 -0.0010 -2.1271 30.2515
#
#
#
# Elastic Compliance Matrix: (Units=1/GPa)
#
#
# Indices 1 2 3 4 5 6 
#
# 1 0.011680 -0.004929 -0.002501 0.001163 -0.000001 0.000000
# 2 -0.004929 0.011680 -0.002500 -0.001162 0.000002 0.000001
# 3 -0.002501 -0.002500 0.009755 -0.000002 -0.000003 0.000000
# 4 0.001163 -0.001162 -0.000002 0.033079 -0.000004 0.000001
# 5 -0.000001 0.000002 -0.000003 -0.000004 0.033073 0.002325
# 6 0.000000 0.000001 0.000000 0.000001 0.002325 0.033220
#
#
# Mechanical properties :
#
#
# Convention : Reuss Voigt Hill
#
# Bulk Modulus (GPa) = 75.43561 75.51537 75.47549
# Shear Modulus (GPa) = 31.89467 32.53553 32.21510
#
# Velocity S-wave (km/s) = 4.18294 4.22475 4.20390
# Velocity P-wave (km/s) = 8.04439 8.07618 8.06030
#
# Compressibility (1/GPa) = 0.01325634
#
# Stress axis : x y z
#
# Youngs Moduli (GPa) = 85.61410 85.61408 102.50787
#
# Poissons Ratio (x) = 0.42200 0.25632
# Poissons Ratio (y) = 0.42200 0.25629
# Poissons Ratio (z) = 0.21408 0.21405
#
# Static dielectric constant tensor:
#      x y z
#    x 1.646650 0.000000 0.000000 
#    y 0.000000 1.646650 0.000000 
#    z 0.000000 0.000000 1.766220 
# 
# From -- ./inp_files/2409.got.cif
#   From: 2010.05.17/outbox.cif.g08.bks.cpg/sg155_2_cif.got.tgz:2409.got - 2010.05.20 10:44:35.
