data_PCOD9577992
_publ_section_title
;
Structure prediction by ZEFSAII (Michael W. Deem and Ramdas Pophale) SiO2 
 PCOD9577992
Probable space group: P -3 1 C
;
_chemical_formula_sum "Si O2"
_cell_formula_units_Z 54
_cell_length_a 13.505761
_cell_length_b 13.505761
_cell_length_c 19.731484
_cell_angle_alpha 90.000000
_cell_angle_beta 90.000000
_cell_angle_gamma 120.000000
_cell_volume 3116.940425
_symmetry_space_group_name_H-M "P -3 1 C"
_symmetry_group_IT_number 163
_symmetry_cell_setting 'hexagonal'
loop_
_space_group_symop_operation_xyz
x,y,z
-y,x-y,z
-x+y,-x,z
-y,-x,1/2-z
-x+y,y,1/2-z
x,x-y,1/2-z
-x,-y,-z
y,-x+y,-z
x-y,x,-z
y,x,1/2+z
x-y,-y,1/2+z
-x,-x+y,1/2+z
loop_
_atom_site_type_symbol
_atom_site_label
_atom_site_fract_x
_atom_site_fract_y
_atom_site_fract_z
Si Si1 0.869955 0.540225 0.878907
Si Si2 0.470150 0.529851 0.250000
Si Si3 0.440807 0.131703 0.102161
Si Si4 0.544815 0.665798 0.444083
Si Si5 0.646381 0.548979 0.359359
O O1 0.865232 0.490133 0.804634
O O2 0.769821 0.564039 0.896622
O O3 0.860969 0.442314 0.930415
O O4 0.998433 0.646712 0.883908
O O5 0.586152 0.564267 0.292400
O O6 0.421000 0.223738 0.141443
O O7 0.564002 0.148614 0.122876
O O8 0.441337 0.145998 0.021331
O O9 0.627579 0.619427 0.419299
#
# Coordination Sequence:
#
# PCOD9577992 Si02
#       5
#    12   6  12  12  12
#     4  10  20  31  51  70 102 133 163 210 247 305
#     4   8  20  36  46  76 100 134 172 194 256 302
#     4  10  18  31  48  73  96 128 166 206 253 295
#     4  10  18  31  48  73  96 128 166 206 253 295
#     4  10  20  31  51  70 102 133 163 210 247 305
#
# _framework density 17.324681000000002
#
# number of rings (size 3 to 8) (size 9 to 14) (size 15 to 20)
#    0.000    2.667    0.000    6.222    0.000    7.111 
#    0.000    0.000    0.000    0.889    0.000    3.111 
#    0.000   14.222    0.000    0.000    0.000    0.000 
#
# Total GULP energy -301160.163685 kJ/mol
# GULP energy per Si atom -5577.040068 kJ/mol
# Density = 1.728525 g / cm^3
# Si number density = 17.324681 Si / 1000 Ang^3
#
#
#
# Elastic Constant Matrix: (Units=GPa)
#
#
# Indices 1 2 3 4 5 6 
#
# 1 35.8787 26.2575 -23.3206 0.0001 -4.5824 0.0000
# 2 26.2575 35.8787 -23.3206 -0.0001 4.5824 0.0000
# 3 -23.3206 -23.3206 52.3774 0.0000 0.0000 0.0000
# 4 0.0001 -0.0001 0.0000 12.3117 0.0000 4.5824
# 5 -4.5824 4.5824 0.0000 0.0000 12.3117 0.0001
# 6 0.0000 0.0000 0.0000 4.5824 0.0001 4.8106
#
#
#
# Elastic Compliance Matrix: (Units=1/GPa)
#
#
# Indices 1 2 3 4 5 6 
#
# 1 0.092601 -0.068428 0.010763 -0.000001 0.059935 0.000000
# 2 -0.068428 0.092601 0.010763 0.000001 -0.059935 0.000000
# 3 0.010763 0.010763 0.028676 0.000000 0.000000 0.000000
# 4 -0.000001 0.000001 0.000000 0.125840 0.000000 -0.119871
# 5 0.059935 -0.059935 0.000000 0.000000 0.125840 -0.000002
# 6 0.000000 0.000000 0.000000 -0.119871 -0.000002 0.322059
#
#
# Mechanical properties :
#
#
# Convention : Reuss Voigt Hill
#
# Bulk Modulus (GPa) = 8.32841 9.26304 8.79572
# Shear Modulus (GPa) = 5.42625 15.52136 10.47381
#
# Velocity S-wave (km/s) = 1.77169 2.99642 2.46145
# Velocity P-wave (km/s) = 3.00048 4.16290 3.62854
#
# Compressibility (1/GPa) = 0.12007092
#
# Stress axis : x y z
#
# Youngs Moduli (GPa) = 10.79904 10.79904 34.87230
#
# Poissons Ratio (x) = 0.73896 -0.37531
# Poissons Ratio (y) = 0.73896 -0.37531
# Poissons Ratio (z) = -0.11623 -0.11623
#
# Static dielectric constant tensor:
#      x y z
#    x 1.583500 0.000000 0.000000 
#    y 0.000000 1.583500 0.000000 
#    z 0.000000 0.000000 1.626500 
# 
# From -- ./inp_files/3024.got.cif
#   From: 2010.05.17/outbox.cif.g08.bks.cpg/sg163_2_cif.got.tgz:3024.got - 2010.05.20 10:56:03.
