data_PCOD9577347
_publ_section_title
;
Structure prediction by ZEFSAII (Michael W. Deem and Ramdas Pophale) SiO2 
 PCOD9577347
Probable space group: P 3 1 C
;
_chemical_formula_sum "Si O2"
_cell_formula_units_Z 42
_cell_length_a 20.905560
_cell_length_b 20.905560
_cell_length_c 5.571251
_cell_angle_alpha 90.000000
_cell_angle_beta 90.000000
_cell_angle_gamma 120.000000
_cell_volume 2108.661981
_symmetry_space_group_name_H-M "P 3 1 C"
_symmetry_group_IT_number 159
_symmetry_cell_setting 'hexagonal'
loop_
_space_group_symop_operation_xyz
x,y,z
-y,x-y,z
-x+y,-x,z
y,x,1/2+z
x-y,-y,1/2+z
-x,-x+y,1/2+z
loop_
_atom_site_type_symbol
_atom_site_label
_atom_site_fract_x
_atom_site_fract_y
_atom_site_fract_z
Si Si1 0.921671 0.271452 0.551200
Si Si2 0.649643 0.003903 0.551203
Si Si3 0.975935 0.170712 0.051201
Si Si4 0.472194 0.317238 0.051203
Si Si5 0.515224 0.364344 0.551203
Si Si6 0.524977 0.563204 0.051204
Si Si7 0.850083 0.198919 0.051200
O O1 0.959416 0.358978 0.551204
O O2 0.876512 0.243313 0.302764
O O3 0.978220 0.239864 0.551200
O O4 0.876511 0.243312 0.799634
O O5 0.565668 0.934734 0.551203
O O6 0.684804 0.000000 0.301203
O O7 0.648394 0.079921 0.551204
O O8 0.890533 0.150004 0.051201
O O9 0.000000 0.150984 0.301200
O O10 0.517667 0.330239 0.295866
O O11 0.399260 0.237290 0.051202
O O12 0.517667 0.330240 0.806540
O O13 0.570116 0.451835 0.551203
O O14 0.524620 0.524621 0.301205
#
# Coordination Sequence:
#
# PCOD9577347 Si02
#       7
#     6   6   6   6   6   6   6
#     4  10  19  30  43  64  89 112 134 169 216 261
#     4   8  14  25  38  54  78 106 129 154 196 238
#     4   8  14  25  38  54  78 106 129 154 196 238
#     4  10  18  29  43  60  85 111 138 167 203 247
#     4  10  19  30  43  64  89 112 134 169 216 261
#     4  12  20  30  48  68  92 118 138 170 226 290
#     4  10  18  29  43  60  85 111 138 167 203 247
#
# _framework density 19.917843000000001
#
# number of rings (size 3 to 8) (size 9 to 14) (size 15 to 20)
#    0.000    2.286    0.000    7.714    0.000    0.000 
#    0.000    0.000    0.000    0.000    0.000    0.000 
#   28.571    0.000    0.000    0.000    0.000    0.000 
#
# Total GULP energy -233816.585668 kJ/mol
# GULP energy per Si atom -5567.061564 kJ/mol
# Density = 1.987251 g / cm^3
# Si number density = 19.917843 Si / 1000 Ang^3
#
#
#
# Elastic Constant Matrix: (Units=GPa)
#
#
# Indices 1 2 3 4 5 6 
#
# 1 15.2444 -9.3465 5.8097 0.0000 0.0001 0.0000
# 2 -9.3465 15.2444 5.8097 0.0000 -0.0001 0.0000
# 3 5.8097 5.8097 235.7146 0.0000 0.0000 0.0000
# 4 0.0000 0.0000 0.0000 15.3273 0.0000 -0.0001
# 5 0.0001 -0.0001 0.0000 0.0000 15.3273 0.0000
# 6 0.0000 0.0000 0.0000 -0.0001 0.0000 12.2954
#
#
#
# Elastic Compliance Matrix: (Units=1/GPa)
#
#
# Indices 1 2 3 4 5 6 
#
# 1 0.109436 0.068771 -0.004392 0.000000 0.000000 0.000000
# 2 0.068771 0.109436 -0.004392 0.000000 0.000000 0.000000
# 3 -0.004392 -0.004392 0.004459 0.000000 0.000000 0.000000
# 4 0.000000 0.000000 0.000000 0.065243 0.000000 0.000001
# 5 0.000000 0.000000 0.000000 0.000000 0.065243 0.000000
# 6 0.000000 0.000000 0.000000 0.000001 0.000000 0.081331
#
#
# Mechanical properties :
#
#
# Convention : Reuss Voigt Hill
#
# Bulk Modulus (GPa) = 2.91288 30.08325 16.49807
# Shear Modulus (GPa) = 11.63843 26.18535 18.91189
#
# Velocity S-wave (km/s) = 2.41990 3.62977 3.08473
# Velocity P-wave (km/s) = 3.04524 5.71869 4.58132
#
# Compressibility (1/GPa) = 0.34330307
#
# Stress axis : x y z
#
# Youngs Moduli (GPa) = 9.13775 9.13775 224.26868
#
# Poissons Ratio (x) = -0.62841 0.98506
# Poissons Ratio (y) = -0.62841 0.98506
# Poissons Ratio (z) = 0.04014 0.04014
#
# Static dielectric constant tensor:
#      x y z
#    x 1.711290 0.000000 0.000000 
#    y 0.000000 1.711290 0.000000 
#    z 0.000000 0.000000 1.840090 
# 
# From -- ./inp_files/119.got.cif
#   From: 2010.05.17/outbox.cif.g08.bks.cpg/sg159_cif.got.tgz:119.got - 2010.05.20 10:50:30.
