data_PCOD9577010
_publ_section_title
;
Structure prediction by ZEFSAII (Michael W. Deem and Ramdas Pophale) SiO2 
 PCOD9577010
Probable space group: R 3 2
;
_chemical_formula_sum "Si O2"
_cell_formula_units_Z 57
_cell_length_a 10.716940
_cell_length_b 10.716940
_cell_length_c 22.730916
_cell_angle_alpha 90.000000
_cell_angle_beta 90.000000
_cell_angle_gamma 120.000000
_cell_volume 2260.940677
_symmetry_space_group_name_H-M "R 3 2"
_symmetry_group_IT_number 155
_symmetry_cell_setting 'hexagonal'
loop_
_space_group_symop_operation_xyz
x,y,z
-y,x-y,z
-x+y,-x,z
x-y,-y,-z
-x,-x+y,-z
y,x,-z
2/3+x,1/3+y,1/3+z
2/3-y,1/3+x-y,1/3+z
2/3-x+y,1/3-x,1/3+z
2/3+x-y,1/3-y,1/3-z
2/3-x,1/3-x+y,1/3-z
2/3+y,1/3+x,1/3-z
1/3+x,2/3+y,2/3+z
1/3-y,2/3+x-y,2/3+z
1/3-x+y,2/3-x,2/3+z
1/3+x-y,2/3-y,2/3-z
1/3-x,2/3-x+y,2/3-z
1/3+y,2/3+x,2/3-z
loop_
_atom_site_type_symbol
_atom_site_label
_atom_site_fract_x
_atom_site_fract_y
_atom_site_fract_z
Si Si1 0.333335 0.666667 0.468845
Si Si2 0.333334 0.666668 0.003005
Si Si3 0.928935 0.369767 0.211337
Si Si4 0.492498 0.492498 0.000000
Si Si5 0.063305 0.707597 0.763224
O O1 0.333334 0.666667 0.400511
O O2 0.473139 0.676387 0.497127
O O3 0.457537 0.622470 0.018883
O O4 0.053907 0.387241 0.166667
O O5 0.942813 0.499800 0.249566
O O6 0.848304 0.219963 0.247293
O O7 0.388984 0.431318 0.943626
O O8 0.033462 0.700129 0.833334
#
# Coordination Sequence:
#
# PCOD9577010 Si02
#       5
#     6   6  18   9  18
#     4   9  18  36  63  89 122 174 228 268 329 406
#     4  12  27  48  70 100 139 187 234 286 347 418
#     4   9  17  34  62  91 127 174 223 277 336 403
#     4  12  28  46  70 100 136 180 232 286 352 416
#     4  10  22  38  61  96 132 177 229 284 342 407
#
# _framework density 25.210744999999999
#
# number of rings (size 3 to 8) (size 9 to 14) (size 15 to 20)
#    0.000    1.895    0.000    6.316    0.000    8.842 
#    0.000    0.000    0.000    1.263    0.000    0.000 
#    0.000    0.000    0.000    0.000    0.000    0.000 
#
# Total GULP energy -105847.653489 kJ/mol
# GULP energy per Si atom -5570.929131 kJ/mol
# Density = 2.515336 g / cm^3
# Si number density = 25.210745 Si / 1000 Ang^3
#
#
#
# Elastic Constant Matrix: (Units=GPa)
#
#
# Indices 1 2 3 4 5 6 
#
# 1 82.6460 41.7433 -11.3736 -0.7675 -0.0001 0.0000
# 2 41.7433 82.6460 -11.3738 0.7680 0.0001 0.0000
# 3 -11.3736 -11.3738 46.6787 0.0003 0.0000 0.0000
# 4 -0.7675 0.7680 0.0003 28.0217 0.0000 0.0001
# 5 -0.0001 0.0001 0.0000 0.0000 28.0222 -0.7674
# 6 0.0000 0.0000 0.0000 0.0001 -0.7674 20.4518
#
#
#
# Elastic Compliance Matrix: (Units=1/GPa)
#
#
# Indices 1 2 3 4 5 6 
#
# 1 0.016444 -0.008030 0.002050 0.000670 0.000000 0.000000
# 2 -0.008030 0.016444 0.002050 -0.000671 0.000000 0.000000
# 3 0.002050 0.002050 0.022422 0.000000 0.000000 0.000000
# 4 0.000670 -0.000671 0.000000 0.035723 0.000000 0.000000
# 5 0.000000 0.000000 0.000000 0.000000 0.035723 0.001340
# 6 0.000000 0.000000 0.000000 0.000000 0.001340 0.048946
#
#
# Mechanical properties :
#
#
# Convention : Reuss Voigt Hill
#
# Bulk Modulus (GPa) = 21.07424 27.77362 24.42393
# Shear Modulus (GPa) = 25.07811 28.16413 26.62112
#
# Velocity S-wave (km/s) = 3.15737 3.34600 3.25305
# Velocity P-wave (km/s) = 4.65504 5.09589 4.88045
#
# Compressibility (1/GPa) = 0.04745130
#
# Stress axis : x y z
#
# Youngs Moduli (GPa) = 60.81318 60.81311 44.59879
#
# Poissons Ratio (x) = 0.48831 -0.09143
# Poissons Ratio (y) = 0.48831 -0.09144
# Poissons Ratio (z) = -0.12468 -0.12468
#
# Static dielectric constant tensor:
#      x y z
#    x 2.195050 0.000000 0.000000 
#    y 0.000000 2.195050 0.000000 
#    z 0.000000 0.000000 1.921240 
# 
# From -- ./inp_files/7259.got.cif
#   From: 2010.05.17/outbox.cif.g08.bks.cpg/sg155_4_cif.got.tgz:7259.got - 2010.05.20 10:44:35.
