data_PCOD9577340
_publ_section_title
;
Structure prediction by ZEFSAII (Michael W. Deem and Ramdas Pophale) SiO2 
 PCOD9577340
Probable space group: P 3 C 1
;
_chemical_formula_sum "Si O2"
_cell_formula_units_Z 48
_cell_length_a 13.946201
_cell_length_b 13.946201
_cell_length_c 12.515603
_cell_angle_alpha 90.000000
_cell_angle_beta 90.000000
_cell_angle_gamma 120.000000
_cell_volume 2108.114769
_symmetry_space_group_name_H-M "P 3 C 1"
_symmetry_group_IT_number 158
_symmetry_cell_setting 'hexagonal'
loop_
_space_group_symop_operation_xyz
x,y,z
-y,x-y,z
-x+y,-x,z
-x+y,y,1/2+z
x,x-y,1/2+z
-y,-x,1/2+z
loop_
_atom_site_type_symbol
_atom_site_label
_atom_site_fract_x
_atom_site_fract_y
_atom_site_fract_z
Si Si1 0.553262 0.754075 0.259950
Si Si2 0.869798 0.414945 0.141388
Si Si3 0.754075 0.200812 0.021259
Si Si4 0.946355 0.196829 0.645990
Si Si5 0.108270 0.437768 0.957653
Si Si6 0.130202 0.585055 0.139821
Si Si7 0.053645 0.250474 0.135219
Si Si8 0.437768 0.108270 0.823556
O O1 0.556415 0.803624 0.373649
O O2 0.451312 0.634180 0.235053
O O3 0.542258 0.832110 0.168286
O O4 0.665094 0.752804 0.234749
O O5 0.832110 0.289852 0.112923
O O6 0.817132 0.451312 0.046156
O O7 0.839541 0.451103 0.252295
O O8 0.000000 0.500000 0.140604
O O9 0.752804 0.087710 0.046460
O O10 0.803624 0.247209 0.907560
O O11 0.932361 0.262205 0.747080
O O12 0.067103 0.212163 0.634382
O O13 0.854940 0.067103 0.646827
O O14 0.000000 0.416447 0.890604
O O15 0.160459 0.548897 0.028914
O O16 0.067639 0.329844 0.034129
#
# Coordination Sequence:
#
# PCOD9577340 Si02
#       8
#     6   6   6   6   6   6   6   6
#     4  11  23  43  67  99 136 174 223 279 334 401
#     4  11  23  42  68  98 137 176 222 280 336 397
#     4  11  23  43  67  99 136 174 223 279 334 401
#     4  11  23  42  67  96 135 177 225 281 330 393
#     4  11  22  44  68  95 135 175 222 276 338 401
#     4  11  23  42  68  98 137 176 222 280 336 397
#     4  11  23  42  67  96 135 177 225 281 330 393
#     4  11  22  44  68  95 135 175 222 276 338 401
#
# _framework density 22.769158999999998
#
# number of rings (size 3 to 8) (size 9 to 14) (size 15 to 20)
#    0.000    1.000    5.000    2.250    0.000    5.000 
#    0.000    0.000    0.000    0.000    0.000    0.000 
#    0.000    0.000    0.000    0.000    0.000    0.000 
#
# Total GULP energy -268460.513459 kJ/mol
# GULP energy per Si atom -5592.927364 kJ/mol
# Density = 2.271733 g / cm^3
# Si number density = 22.769159 Si / 1000 Ang^3
#
#
#
# Elastic Constant Matrix: (Units=GPa)
#
#
# Indices 1 2 3 4 5 6 
#
# 1 89.9675 7.9249 11.1642 -4.8944 0.0000 0.0000
# 2 7.9249 89.9675 11.1642 4.8944 0.0000 0.0000
# 3 11.1642 11.1642 112.7593 0.0000 0.0000 0.0000
# 4 -4.8944 4.8944 0.0000 30.9032 0.0000 0.0000
# 5 0.0000 0.0000 0.0000 0.0000 30.9032 -4.8944
# 6 0.0000 0.0000 0.0000 0.0000 -4.8944 41.0213
#
#
#
# Elastic Compliance Matrix: (Units=1/GPa)
#
#
# Indices 1 2 3 4 5 6 
#
# 1 0.011437 -0.000986 -0.001035 0.001968 0.000000 0.000000
# 2 -0.000986 0.011437 -0.001035 -0.001968 0.000000 0.000000
# 3 -0.001035 -0.001035 0.009073 0.000000 0.000000 0.000000
# 4 0.001968 -0.001968 0.000000 0.032982 0.000000 0.000000
# 5 0.000000 0.000000 0.000000 0.000000 0.032982 0.003935
# 6 0.000000 0.000000 0.000000 0.000000 0.003935 0.024847
#
#
# Mechanical properties :
#
#
# Convention : Reuss Voigt Hill
#
# Bulk Modulus (GPa) = 38.70435 39.24455 38.97445
# Shear Modulus (GPa) = 36.36793 38.06160 37.21476
#
# Velocity S-wave (km/s) = 4.00089 4.09299 4.04720
# Velocity P-wave (km/s) = 6.19502 6.29365 6.24453
#
# Compressibility (1/GPa) = 0.02583689
#
# Stress axis : x y z
#
# Youngs Moduli (GPa) = 87.43218 87.43218 110.21287
#
# Poissons Ratio (x) = 0.08622 0.11405
# Poissons Ratio (y) = 0.08622 0.11405
# Poissons Ratio (z) = 0.09047 0.09047
#
# Static dielectric constant tensor:
#      x y z
#    x 1.876320 0.000000 0.000000 
#    y 0.000000 1.876320 0.000000 
#    z 0.000000 0.000000 1.870300 
# 
# From -- ./inp_files/368.got.cif
#   From: 2010.05.17/outbox.cif.g08.bks.cpg/sg158_cif.got.tgz:368.got - 2010.05.20 10:49:59.
