data_PCOD9577175
_publ_section_title
;
Structure prediction by ZEFSAII (Michael W. Deem and Ramdas Pophale) SiO2 
 PCOD9577175
Probable space group: R 3 2
;
_chemical_formula_sum "Si O2"
_cell_formula_units_Z 54
_cell_length_a 16.349422
_cell_length_b 16.349422
_cell_length_c 10.197200
_cell_angle_alpha 90.000000
_cell_angle_beta 90.000000
_cell_angle_gamma 120.000000
_cell_volume 2360.567244
_symmetry_space_group_name_H-M "R 3 2"
_symmetry_group_IT_number 155
_symmetry_cell_setting 'hexagonal'
loop_
_space_group_symop_operation_xyz
x,y,z
-y,x-y,z
-x+y,-x,z
x-y,-y,-z
-x,-x+y,-z
y,x,-z
2/3+x,1/3+y,1/3+z
2/3-y,1/3+x-y,1/3+z
2/3-x+y,1/3-x,1/3+z
2/3+x-y,1/3-y,1/3-z
2/3-x,1/3-x+y,1/3-z
2/3+y,1/3+x,1/3-z
1/3+x,2/3+y,2/3+z
1/3-y,2/3+x-y,2/3+z
1/3-x+y,2/3-x,2/3+z
1/3+x-y,2/3-y,2/3-z
1/3-x,2/3-x+y,2/3-z
1/3+y,2/3+x,2/3-z
loop_
_atom_site_type_symbol
_atom_site_label
_atom_site_fract_x
_atom_site_fract_y
_atom_site_fract_z
Si Si1 0.603698 0.494629 0.713260
Si Si2 0.442388 0.172027 0.453412
Si Si3 0.093432 0.666665 0.916665
O O1 0.666667 0.495212 0.833334
O O2 0.666670 0.531249 0.583338
O O3 0.564055 0.564045 0.750012
O O4 0.512881 0.394843 0.679508
O O5 0.504763 0.171429 0.333334
O O6 0.451364 0.271818 0.487151
O O7 0.068609 0.735275 0.833334
O O8 0.000000 0.598057 0.000000
#
# Coordination Sequence:
#
# PCOD9577175 Si02
#       3
#    18  18  18
#     4  12  26  46  76 115 157 203 261 327 394 469
#     4  12  26  46  76 115 157 203 261 327 394 469
#     4  12  26  48  82 116 162 212 270 318 398 484
#
# _framework density 22.875858000000001
#
# number of rings (size 3 to 8) (size 9 to 14) (size 15 to 20)
#    0.000    0.000    3.333    8.000    0.000    0.000 
#    2.000    0.000   14.667    0.000    0.000    0.000 
#    0.000    0.000    0.000    0.000    0.000    0.000 
#
# Total GULP energy -101051.722853 kJ/mol
# GULP energy per Si atom -5613.984603 kJ/mol
# Density = 2.282379 g / cm^3
# Si number density = 22.875858 Si / 1000 Ang^3
#
#
#
# Elastic Constant Matrix: (Units=GPa)
#
#
# Indices 1 2 3 4 5 6 
#
# 1 141.5630 80.0115 88.9805 3.6251 0.0012 0.0000
# 2 80.0115 141.5630 88.9805 -3.6251 -0.0012 0.0000
# 3 88.9805 88.9805 206.6038 0.0000 0.0000 0.0000
# 4 3.6251 -3.6251 0.0000 9.7851 0.0000 -0.0012
# 5 0.0012 -0.0012 0.0000 0.0000 9.7851 3.6251
# 6 0.0000 0.0000 0.0000 -0.0012 3.6251 30.7757
#
#
#
# Elastic Compliance Matrix: (Units=1/GPa)
#
#
# Indices 1 2 3 4 5 6 
#
# 1 0.011944 -0.005044 -0.002972 -0.006294 -0.000002 0.000000
# 2 -0.005044 0.011944 -0.002972 0.006294 0.000002 0.000000
# 3 -0.002972 -0.002972 0.007400 0.000000 0.000000 0.000000
# 4 -0.006294 0.006294 0.000000 0.106859 0.000000 0.000004
# 5 -0.000002 0.000002 0.000000 0.000000 0.106859 -0.012587
# 6 0.000000 0.000000 0.000000 0.000004 -0.012587 0.033976
#
#
# Mechanical properties :
#
#
# Convention : Reuss Voigt Hill
#
# Bulk Modulus (GPa) = 107.37672 111.74167 109.55919
# Shear Modulus (GPa) = 16.44406 25.51966 20.98186
#
# Velocity S-wave (km/s) = 2.68403 3.34364 3.03183
# Velocity P-wave (km/s) = 7.52636 7.99122 7.76227
#
# Compressibility (1/GPa) = 0.00931301
#
# Stress axis : x y z
#
# Youngs Moduli (GPa) = 83.72481 83.72480 135.13764
#
# Poissons Ratio (x) = 0.42231 0.40158
# Poissons Ratio (y) = 0.42231 0.40158
# Poissons Ratio (z) = 0.24880 0.24880
#
# Static dielectric constant tensor:
#      x y z
#    x 1.824630 0.000000 0.000000 
#    y 0.000000 1.824630 0.000000 
#    z 0.000000 0.000000 1.838970 
# 
# From -- ./inp_files/1649.got.cif
#   From: 2010.05.17/outbox.cif.g08.bks.cpg/sg155_1_cif.got.tgz:1649.got - 2010.05.20 10:44:35.
