data_PCOD9577886
_publ_section_title
;
Structure prediction by ZEFSAII (Michael W. Deem and Ramdas Pophale) SiO2 
 PCOD9577886
Probable space group: P -3 1 M 
;
_chemical_formula_sum "Si O2"
_cell_formula_units_Z 76
_cell_length_a 17.790365
_cell_length_b 17.790365
_cell_length_c 12.734218
_cell_angle_alpha 90.000000
_cell_angle_beta 90.000000
_cell_angle_gamma 120.000000
_cell_volume 3490.379337
_symmetry_space_group_name_H-M "P -3 1 M "
_symmetry_group_IT_number 162
_symmetry_cell_setting 'hexagonal'
loop_
_space_group_symop_operation_xyz
x,y,z
-y,x-y,z
-x+y,-x,z
-y,-x,-z
-x+y,y,-z
x,x-y,-z
-x,-y,-z
y,-x+y,-z
x-y,x,-z
y,x,z
x-y,-y,z
-x,-x+y,z
loop_
_atom_site_type_symbol
_atom_site_label
_atom_site_fract_x
_atom_site_fract_y
_atom_site_fract_z
Si Si1 0.783341 0.175699 0.607117
Si Si2 0.545144 0.000000 0.335654
Si Si3 0.419744 0.592425 0.780595
Si Si4 0.333334 0.666668 0.373417
Si Si5 0.773561 0.237709 0.167179
Si Si6 0.172044 0.271513 0.106666
Si Si7 0.100433 0.898721 0.334526
Si Si8 0.384358 0.384358 0.554023
O O1 0.780060 0.219941 0.500000
O O2 0.784492 0.225304 0.709936
O O3 0.864713 0.159805 0.611731
O O4 0.698724 0.082511 0.600691
O O5 0.582851 0.084095 0.262681
O O6 0.609085 0.000000 0.426513
O O7 0.467471 0.000000 0.399729
O O8 0.376461 0.614253 0.680583
O O9 0.341862 0.507690 0.836327
O O10 0.460499 0.676139 0.856085
O O11 0.333334 0.666667 0.500000
O O12 0.800499 0.173356 0.113823
O O13 0.251246 0.251246 0.106889
O O14 0.116004 0.224415 0.210155
O O15 0.118094 0.236187 0.000000
O O16 0.000000 0.862177 0.359738
O O17 0.158563 0.000000 0.360962
#
# Coordination Sequence:
#
# PCOD9577886 Si02
#       8
#    12   6  12   4  12  12  12   6
#     4  11  22  37  54  79 120 167 208 251 307 360
#     4  11  22  32  54  82 116 153 210 266 293 345
#     4  10  21  37  54  84 116 158 200 252 301 354
#     4   9  21  33  54  72 115 164 211 243 303 348
#     4  10  22  40  62  86 122 162 203 247 308 364
#     4  10  22  42  68  97 122 154 193 248 312 378
#     4  10  21  37  60  86 118 157 205 255 311 372
#     4  11  22  34  50  80 114 154 213 257 306 351
#
# _framework density 21.774138000000001
#
# number of rings (size 3 to 8) (size 9 to 14) (size 15 to 20)
#    0.000    1.737    2.368    1.895    4.421    2.526 
#    1.421    0.789    0.000    4.421    0.000    0.000 
#    0.000    0.000    0.000    0.000    0.000    0.000 
#
# Total GULP energy -424435.754458 kJ/mol
# GULP energy per Si atom -5584.680980 kJ/mol
# Density = 2.172458 g / cm^3
# Si number density = 21.774138 Si / 1000 Ang^3
#
#
#
# Elastic Constant Matrix: (Units=GPa)
#
#
# Indices 1 2 3 4 5 6 
#
# 1 85.3074 23.1236 -5.2318 0.0001 1.1494 0.0001
# 2 23.1236 85.3074 -5.2318 -0.0001 -1.1495 0.0001
# 3 -5.2318 -5.2318 59.6385 -0.0001 -0.0001 0.0001
# 4 0.0001 -0.0001 -0.0001 7.8415 0.0000 -1.1495
# 5 1.1494 -1.1495 -0.0001 0.0000 7.8414 0.0001
# 6 0.0001 0.0001 0.0001 -1.1495 0.0001 31.0920
#
#
#
# Elastic Compliance Matrix: (Units=1/GPa)
#
#
# Indices 1 2 3 4 5 6 
#
# 1 0.012735 -0.003434 0.000816 0.000000 -0.002370 0.000000
# 2 -0.003434 0.012735 0.000816 0.000000 0.002370 0.000000
# 3 0.000816 0.000816 0.016911 0.000000 0.000000 0.000000
# 4 0.000000 0.000000 0.000000 0.128222 0.000001 0.004740
# 5 -0.002370 0.002370 0.000000 0.000001 0.128223 0.000000
# 6 0.000000 0.000000 0.000000 0.004740 0.000000 0.032338
#
#
# Mechanical properties :
#
#
# Convention : Reuss Voigt Hill
#
# Bulk Modulus (GPa) = 25.78846 28.39703 27.09275
# Shear Modulus (GPa) = 14.38046 23.86120 19.12083
#
# Velocity S-wave (km/s) = 2.57269 3.31395 2.96656
# Velocity P-wave (km/s) = 4.54910 5.26431 4.91972
#
# Compressibility (1/GPa) = 0.03877704
#
# Stress axis : x y z
#
# Youngs Moduli (GPa) = 78.52328 78.52325 59.13363
#
# Poissons Ratio (x) = 0.26964 -0.04825
# Poissons Ratio (y) = 0.26964 -0.04825
# Poissons Ratio (z) = -0.06407 -0.06407
#
# Static dielectric constant tensor:
#      x y z
#    x 1.775480 0.000000 0.000000 
#    y 0.000000 1.775480 0.000000 
#    z 0.000000 0.000000 1.797600 
# 
# From -- ./inp_files/3150.got.cif
#   From: 2010.05.17/outbox.cif.g08.bks.cpg/sg162_2_cif.got.tgz:3150.got - 2010.05.20 10:53:12.
