data_PCOD9577527
_publ_section_title
;
Structure prediction by ZEFSAII (Michael W. Deem and Ramdas Pophale) SiO2 
 PCOD9577527
Probable space group: R 3 C
;
_chemical_formula_sum "Si O2"
_cell_formula_units_Z 108
_cell_length_a 16.346164
_cell_length_b 16.346164
_cell_length_c 16.856899
_cell_angle_alpha 90.000000
_cell_angle_beta 90.000000
_cell_angle_gamma 120.000000
_cell_volume 3900.677274
_symmetry_space_group_name_H-M "R 3 C"
_symmetry_group_IT_number 161
_symmetry_cell_setting 'hexagonal'
loop_
_space_group_symop_operation_xyz
x,y,z
-y,x-y,z
-x+y,-x,z
-x+y,y,1/2+z
x,x-y,1/2+z
-y,-x,1/2+z
2/3+x,1/3+y,1/3+z
2/3-y,1/3+x-y,1/3+z
2/3-x+y,1/3-x,1/3+z
2/3-x+y,1/3+y,5/6+z
2/3+x,1/3+x-y,5/6+z
2/3-y,1/3-x,5/6+z
1/3+x,2/3+y,2/3+z
1/3-y,2/3+x-y,2/3+z
1/3-x+y,2/3-x,2/3+z
1/3-x+y,2/3+y,1/6+z
1/3+x,2/3+x-y,1/6+z
1/3-y,2/3-x,1/6+z
loop_
_atom_site_type_symbol
_atom_site_label
_atom_site_fract_x
_atom_site_fract_y
_atom_site_fract_z
Si Si1 0.392641 0.830485 0.045784
Si Si2 0.055750 0.468039 0.408405
Si Si3 0.885743 0.965855 0.541514
Si Si4 0.373077 0.294628 0.000463
Si Si5 0.562885 0.428259 0.091772
Si Si6 0.044974 0.576859 0.684795
O O1 0.476845 0.910720 0.993356
O O2 0.426418 0.783670 0.112589
O O3 0.312682 0.764509 0.984162
O O4 0.365178 0.887750 0.109042
O O5 0.014238 0.521205 0.356849
O O6 0.157495 0.481326 0.383591
O O7 0.980636 0.359405 0.424705
O O8 0.777269 0.900958 0.562478
O O9 0.932778 0.901752 0.565960
O O10 0.479081 0.360240 0.034413
O O11 0.296235 0.308174 0.054993
O O12 0.534654 0.488486 0.149964
#
# Coordination Sequence:
#
# PCOD9577527 Si02
#       6
#    18  18  18  18  18  18
#     4   9  17  31  56  87 114 152 200 256 304 359
#     4  10  20  36  60  92 121 163 206 267 312 381
#     4   8  15  28  51  79 112 143 188 252 299 349
#     4  10  20  39  60  88 129 164 207 264 315 390
#     4  10  19  34  58  89 120 154 212 255 315 367
#     4   9  19  34  55  89 118 158 199 254 315 378
#
# _framework density 27.6875
#
# number of rings (size 3 to 8) (size 9 to 14) (size 15 to 20)
#    1.333    1.333    1.667    1.000    0.000    0.000 
#    8.000    6.667    0.000    0.000    0.000    0.000 
#    0.000    0.000    0.000    0.000    0.000    0.000 
#
# Total GULP energy -200562.745507 kJ/mol
# GULP energy per Si atom -5571.187375 kJ/mol
# Density = 2.762448 g / cm^3
# Si number density = 27.687500 Si / 1000 Ang^3
#
#
#
# Elastic Constant Matrix: (Units=GPa)
#
#
# Indices 1 2 3 4 5 6 
#
# 1 118.4732 29.2218 11.4438 -5.9688 0.0000 0.0000
# 2 29.2218 118.4732 11.4438 5.9688 0.0000 0.0000
# 3 11.4438 11.4438 76.5039 0.0000 0.0000 0.0000
# 4 -5.9688 5.9688 0.0000 22.0707 0.0000 0.0000
# 5 0.0000 0.0000 0.0000 0.0000 22.0707 -5.9688
# 6 0.0000 0.0000 0.0000 0.0000 -5.9688 44.6257
#
#
#
# Elastic Compliance Matrix: (Units=1/GPa)
#
#
# Indices 1 2 3 4 5 6 
#
# 1 0.009278 -0.002347 -0.001037 0.003144 0.000000 0.000000
# 2 -0.002347 0.009278 -0.001037 -0.003144 0.000000 0.000000
# 3 -0.001037 -0.001037 0.013381 0.000000 0.000000 0.000000
# 4 0.003144 -0.003144 0.000000 0.047009 0.000000 0.000000
# 5 0.000000 0.000000 0.000000 0.000000 0.047009 0.006288
# 6 0.000000 0.000000 0.000000 0.000000 0.006288 0.023250
#
#
# Mechanical properties :
#
#
# Convention : Reuss Voigt Hill
#
# Bulk Modulus (GPa) = 43.29590 46.40766 44.85178
# Shear Modulus (GPa) = 30.16669 35.17614 32.67141
#
# Velocity S-wave (km/s) = 3.30440 3.56823 3.43885
# Velocity P-wave (km/s) = 5.49819 5.81154 5.65703
#
# Compressibility (1/GPa) = 0.02309687
#
# Stress axis : x y z
#
# Youngs Moduli (GPa) = 107.78080 107.78080 74.73055
#
# Poissons Ratio (x) = 0.25293 0.07748
# Poissons Ratio (y) = 0.25293 0.07748
# Poissons Ratio (z) = 0.11175 0.11175
#
# Static dielectric constant tensor:
#      x y z
#    x 2.202270 0.000000 0.000000 
#    y 0.000000 2.202270 0.000000 
#    z 0.000000 0.000000 2.273040 
# 
# From -- ./inp_files/1680.got.cif
#   From: 2010.05.17/outbox.cif.g08.bks.cpg/sg161_cif.got.tgz:1680.got - 2010.05.20 10:52:32.
