data_PCOD9577622
_publ_section_title
;
Structure prediction by ZEFSAII (Michael W. Deem and Ramdas Pophale) SiO2 
 PCOD9577622
Probable space group: R 3 C
;
_chemical_formula_sum "Si O2"
_cell_formula_units_Z 84
_cell_length_a 15.117597
_cell_length_b 15.117597
_cell_length_c 18.166614
_cell_angle_alpha 90.000000
_cell_angle_beta 90.000000
_cell_angle_gamma 120.000000
_cell_volume 3595.589868
_symmetry_space_group_name_H-M "R 3 C"
_symmetry_group_IT_number 161
_symmetry_cell_setting 'hexagonal'
loop_
_space_group_symop_operation_xyz
x,y,z
-y,x-y,z
-x+y,-x,z
-x+y,y,1/2+z
x,x-y,1/2+z
-y,-x,1/2+z
2/3+x,1/3+y,1/3+z
2/3-y,1/3+x-y,1/3+z
2/3-x+y,1/3-x,1/3+z
2/3-x+y,1/3+y,5/6+z
2/3+x,1/3+x-y,5/6+z
2/3-y,1/3-x,5/6+z
1/3+x,2/3+y,2/3+z
1/3-y,2/3+x-y,2/3+z
1/3-x+y,2/3-x,2/3+z
1/3-x+y,2/3+y,1/6+z
1/3+x,2/3+x-y,1/6+z
1/3-y,2/3-x,1/6+z
loop_
_atom_site_type_symbol
_atom_site_label
_atom_site_fract_x
_atom_site_fract_y
_atom_site_fract_z
Si Si1 0.169926 0.472423 0.402070
Si Si2 0.122304 0.641519 0.180857
Si Si3 0.333334 0.666668 0.980602
Si Si4 0.666668 0.333334 0.824736
Si Si5 0.365081 0.204525 0.995962
Si Si6 0.410352 0.994373 0.530316
O O1 0.268790 0.553122 0.447691
O O2 0.130961 0.528695 0.347347
O O3 0.196046 0.396101 0.358242
O O4 0.035244 0.629601 0.375699
O O5 0.220177 0.628619 0.185654
O O6 0.043602 0.577086 0.245293
O O7 0.160344 0.762130 0.180320
O O8 0.071518 0.604797 0.102026
O O9 0.333334 0.666667 0.068695
O O10 0.346507 0.425900 0.963182
#
# Coordination Sequence:
#
# PCOD9577622 Si02
#       6
#    18  18   6   6  18  18
#     4  12  27  48  80 110 156 205 264 323 391 477
#     4  12  30  48  79 112 163 203 264 327 401 474
#     4  12  24  49  74 109 147 208 257 313 393 472
#     4  12  30  46  77 112 156 199 257 322 399 475
#     4  12  29  48  78 117 152 209 260 326 396 477
#     4  12  28  51  78 114 160 208 264 327 402 477
#
# _framework density 23.361953
#
# number of rings (size 3 to 8) (size 9 to 14) (size 15 to 20)
#    0.000    0.000    6.429    1.286   12.000    0.000 
#    0.000    0.000    0.000    0.000    0.000    0.000 
#    0.000    0.000    0.000    0.000    0.000    0.000 
#
# Total GULP energy -156790.880039 kJ/mol
# GULP energy per Si atom -5599.674287 kJ/mol
# Density = 2.330878 g / cm^3
# Si number density = 23.361953 Si / 1000 Ang^3
#
#
#
# Elastic Constant Matrix: (Units=GPa)
#
#
# Indices 1 2 3 4 5 6 
#
# 1 67.7220 0.3456 4.5798 -4.2910 0.0000 0.0000
# 2 0.3456 67.7219 4.5798 4.2906 0.0000 0.0000
# 3 4.5798 4.5798 70.3560 0.0000 0.0000 0.0000
# 4 -4.2910 4.2906 0.0000 35.5189 0.0000 0.0000
# 5 0.0000 0.0000 0.0000 0.0000 35.5195 -4.2908
# 6 0.0000 0.0000 0.0000 0.0000 -4.2908 33.6882
#
#
#
# Elastic Compliance Matrix: (Units=1/GPa)
#
#
# Indices 1 2 3 4 5 6 
#
# 1 0.014948 -0.000126 -0.000965 0.001821 0.000000 0.000000
# 2 -0.000126 0.014948 -0.000965 -0.001821 0.000000 0.000000
# 3 -0.000965 -0.000965 0.014339 0.000000 0.000000 0.000000
# 4 0.001821 -0.001821 0.000000 0.028594 0.000000 0.000000
# 5 0.000000 0.000000 0.000000 0.000000 0.028594 0.003642
# 6 0.000000 0.000000 0.000000 0.000000 0.003642 0.030148
#
#
# Mechanical properties :
#
#
# Convention : Reuss Voigt Hill
#
# Bulk Modulus (GPa) = 24.92386 24.97890 24.95138
# Shear Modulus (GPa) = 33.54458 34.03163 33.78810
#
# Velocity S-wave (km/s) = 3.79339 3.82083 3.80713
# Velocity P-wave (km/s) = 5.46609 5.49366 5.47989
#
# Compressibility (1/GPa) = 0.04012220
#
# Stress axis : x y z
#
# Youngs Moduli (GPa) = 66.90069 66.90066 69.73974
#
# Poissons Ratio (x) = 0.00846 0.06728
# Poissons Ratio (y) = 0.00846 0.06728
# Poissons Ratio (z) = 0.06454 0.06454
#
# Static dielectric constant tensor:
#      x y z
#    x 1.866340 0.000000 0.000000 
#    y 0.000000 1.866350 0.000000 
#    z 0.000000 0.000000 1.892260 
# 
# From -- ./inp_files/1864.got.cif
#   From: 2010.05.17/outbox.cif.g08.bks.cpg/sg161_cif.got.tgz:1864.got - 2010.05.20 10:52:32.
