data_PCOD9577741
_publ_section_title
;
Structure prediction by ZEFSAII (Michael W. Deem and Ramdas Pophale) SiO2 
 PCOD9577741
Probable space group: P -3 1 M 
;
_chemical_formula_sum "Si O2"
_cell_formula_units_Z 72
_cell_length_a 13.966307
_cell_length_b 13.966307
_cell_length_c 19.622452
_cell_angle_alpha 90.000000
_cell_angle_beta 90.000000
_cell_angle_gamma 120.000000
_cell_volume 3314.721732
_symmetry_space_group_name_H-M "P -3 1 M "
_symmetry_group_IT_number 162
_symmetry_cell_setting 'hexagonal'
loop_
_space_group_symop_operation_xyz
x,y,z
-y,x-y,z
-x+y,-x,z
-y,-x,-z
-x+y,y,-z
x,x-y,-z
-x,-y,-z
y,-x+y,-z
x-y,x,-z
y,x,z
x-y,-y,z
-x,-x+y,z
loop_
_atom_site_type_symbol
_atom_site_label
_atom_site_fract_x
_atom_site_fract_y
_atom_site_fract_z
Si Si1 0.878408 0.657645 0.731836
Si Si2 0.117553 0.883315 0.398577
Si Si3 0.471585 0.339445 0.192022
Si Si4 0.332018 0.463308 0.036707
Si Si5 0.132518 0.453111 0.544080
Si Si6 0.580127 0.130937 0.673663
O O1 0.881139 0.749369 0.682409
O O2 0.783587 0.618143 0.786157
O O3 0.855255 0.555680 0.681557
O O4 0.000000 0.701250 0.761613
O O5 0.121455 0.778972 0.424742
O O6 0.000000 0.867477 0.416332
O O7 0.215089 0.000000 0.424187
O O8 0.417995 0.417995 0.191014
O O9 0.502408 0.333504 0.114638
O O10 0.557963 0.382766 0.255104
O O11 0.367596 0.367596 0.036337
O O12 0.431490 0.568511 0.000000
O O13 0.216375 0.432750 0.000000
O O14 0.245433 0.490865 0.500000
O O15 0.162530 0.545744 0.602819
O O16 0.000000 0.405338 0.520477
O O17 0.495333 0.000000 0.674970
#
# Coordination Sequence:
#
# PCOD9577741 Si02
#       6
#    12  12  12  12  12  12
#     4  10  20  34  57  87 117 156 202 248 305 365
#     4  10  19  33  54  83 116 150 192 241 300 365
#     4  10  20  38  62  88 121 159 201 251 304 359
#     4  10  23  41  63  94 134 173 211 259 318 381
#     4  10  19  34  56  81 116 159 199 249 311 368
#     4   9  19  36  55  80 115 155 201 249 300 359
#
# _framework density 21.721281000000001
#
# number of rings (size 3 to 8) (size 9 to 14) (size 15 to 20)
#    0.000    2.167    1.667    1.333    2.333    0.667 
#    1.000    0.833    0.000    7.167    0.000    0.000 
#    0.000    1.333    0.000    0.000    0.000    0.000 
#
# Total GULP energy -401187.050883 kJ/mol
# GULP energy per Si atom -5572.042373 kJ/mol
# Density = 2.167184 g / cm^3
# Si number density = 21.721281 Si / 1000 Ang^3
#
#
#
# Elastic Constant Matrix: (Units=GPa)
#
#
# Indices 1 2 3 4 5 6 
#
# 1 53.3743 12.5890 28.9688 -0.0016 -15.4954 0.0000
# 2 12.5890 53.3743 28.9688 0.0016 15.4954 0.0000
# 3 28.9688 28.9688 122.3480 0.0000 0.0000 0.0000
# 4 -0.0016 0.0016 0.0000 123.9371 0.0000 15.4954
# 5 -15.4954 15.4954 0.0000 0.0000 123.9371 -0.0016
# 6 0.0000 0.0000 0.0000 15.4954 -0.0016 20.3926
#
#
#
# Elastic Compliance Matrix: (Units=1/GPa)
#
#
# Indices 1 2 3 4 5 6 
#
# 1 0.023116 -0.003976 -0.004532 0.000000 0.003387 0.000000
# 2 -0.003976 0.023116 -0.004532 0.000000 -0.003387 0.000000
# 3 -0.004532 -0.004532 0.010320 0.000000 0.000000 0.000000
# 4 0.000000 0.000000 0.000000 0.008916 0.000000 -0.006775
# 5 0.003387 -0.003387 0.000000 0.000000 0.008916 0.000001
# 6 0.000000 0.000000 0.000000 -0.006775 0.000001 0.054185
#
#
# Mechanical properties :
#
#
# Convention : Reuss Voigt Hill
#
# Bulk Modulus (GPa) = 32.81634 41.12777 36.97205
# Shear Modulus (GPa) = 30.33871 64.22469 47.28170
#
# Velocity S-wave (km/s) = 3.74134 5.44351 4.67062
# Velocity P-wave (km/s) = 5.81414 7.64752 6.79296
#
# Compressibility (1/GPa) = 0.03047263
#
# Stress axis : x y z
#
# Youngs Moduli (GPa) = 43.25919 43.25919 96.90381
#
# Poissons Ratio (x) = 0.17200 0.43917
# Poissons Ratio (y) = 0.17200 0.43917
# Poissons Ratio (z) = 0.19605 0.19605
#
# Static dielectric constant tensor:
#      x y z
#    x 1.834050 0.000000 0.000000 
#    y 0.000000 1.834050 0.000000 
#    z 0.000000 0.000000 1.817570 
# 
# From -- ./inp_files/3498.got.cif
#   From: 2010.05.17/outbox.cif.g08.bks.cpg/sg162_2_cif.got.tgz:3498.got - 2010.05.20 10:53:12.
