data_PCOD9577766
_publ_section_title
;
Structure prediction by ZEFSAII (Michael W. Deem and Ramdas Pophale) SiO2 
 PCOD9577766
Probable space group: P -3 1 M 
;
_chemical_formula_sum "Si O2"
_cell_formula_units_Z 84
_cell_length_a 17.782779
_cell_length_b 17.782779
_cell_length_c 16.245370
_cell_angle_alpha 90.000000
_cell_angle_beta 90.000000
_cell_angle_gamma 120.000000
_cell_volume 4448.970246
_symmetry_space_group_name_H-M "P -3 1 M "
_symmetry_group_IT_number 162
_symmetry_cell_setting 'hexagonal'
loop_
_space_group_symop_operation_xyz
x,y,z
-y,x-y,z
-x+y,-x,z
-y,-x,-z
-x+y,y,-z
x,x-y,-z
-x,-y,-z
y,-x+y,-z
x-y,x,-z
y,x,z
x-y,-y,z
-x,-x+y,z
loop_
_atom_site_type_symbol
_atom_site_label
_atom_site_fract_x
_atom_site_fract_y
_atom_site_fract_z
Si Si1 0.899265 0.797639 0.901780
Si Si2 0.493031 0.596631 0.078636
Si Si3 0.392840 0.229520 0.842925
Si Si4 0.097714 0.726732 0.508161
Si Si5 0.848331 0.350203 0.641195
Si Si6 0.521071 0.834744 0.668908
Si Si7 0.642261 0.096724 0.182246
O O1 0.835873 0.835873 0.880011
O O2 0.880453 0.710429 0.853865
O O3 0.000000 0.870140 0.889054
O O4 0.888822 0.777644 0.000000
O O5 0.549800 0.549800 0.072282
O O6 0.560576 0.696639 0.089029
O O7 0.429043 0.551866 0.156169
O O8 0.431087 0.568914 0.000000
O O9 0.428422 0.282195 0.756317
O O10 0.429753 0.164489 0.851853
O O11 0.173361 0.826640 0.500000
O O12 0.116900 0.668811 0.442983
O O13 0.109998 0.700511 0.599294
O O14 0.000000 0.705224 0.494550
O O15 0.850623 0.440789 0.653058
O O16 0.751909 0.267750 0.652147
O O17 0.901315 0.346972 0.719845
O O18 0.607062 0.000000 0.149559
#
# Coordination Sequence:
#
# PCOD9577766 Si02
#       7
#    12  12  12  12  12  12  12
#     4  10  22  40  64  90 118 151 197 258 321 379
#     4  10  22  38  55  77 110 151 193 240 289 340
#     4  11  22  38  59  87 115 156 196 243 293 351
#     4  10  22  38  59  86 116 150 191 238 292 350
#     4  10  19  36  56  84 120 161 193 235 285 338
#     4  10  21  35  57  87 120 155 198 238 283 340
#     4  10  21  36  56  81 115 155 196 242 289 341
#
# _framework density 18.880773999999999
#
# number of rings (size 3 to 8) (size 9 to 14) (size 15 to 20)
#    0.000    1.857    1.429    2.143    2.000    3.429 
#    0.857    2.143    0.000    0.143    0.000    0.000 
#    0.000    0.000    0.000    0.000    0.000    0.714 
#
# Total GULP energy -468428.867060 kJ/mol
# GULP energy per Si atom -5576.534132 kJ/mol
# Density = 1.883780 g / cm^3
# Si number density = 18.880774 Si / 1000 Ang^3
#
#
#
# Elastic Constant Matrix: (Units=GPa)
#
#
# Indices 1 2 3 4 5 6 
#
# 1 96.9848 68.7531 38.4554 -0.0001 -7.9150 0.0000
# 2 68.7531 96.9848 38.4554 0.0001 7.9150 0.0000
# 3 38.4554 38.4554 74.0650 0.0000 0.0000 0.0000
# 4 -0.0001 0.0001 0.0000 11.4774 0.0000 7.9150
# 5 -7.9150 7.9150 0.0000 0.0000 11.4774 -0.0001
# 6 0.0000 0.0000 0.0000 7.9150 -0.0001 14.1159
#
#
#
# Elastic Compliance Matrix: (Units=1/GPa)
#
#
# Indices 1 2 3 4 5 6 
#
# 1 0.032851 -0.024902 -0.004127 0.000000 0.039827 0.000000
# 2 -0.024902 0.032851 -0.004127 0.000000 -0.039827 0.000000
# 3 -0.004127 -0.004127 0.017787 0.000000 0.000000 0.000000
# 4 0.000000 0.000000 0.000000 0.142058 0.000000 -0.079654
# 5 0.039827 -0.039827 0.000000 0.000000 0.142058 0.000001
# 6 0.000000 0.000000 0.000000 -0.079654 0.000001 0.115505
#
#
# Mechanical properties :
#
#
# Convention : Reuss Voigt Hill
#
# Bulk Modulus (GPa) = 58.21906 62.15139 60.18523
# Shear Modulus (GPa) = 9.00662 15.57218 12.28940
#
# Velocity S-wave (km/s) = 2.18646 2.87499 2.55403
# Velocity P-wave (km/s) = 6.10542 6.63400 6.37519
#
# Compressibility (1/GPa) = 0.01717651
#
# Stress axis : x y z
#
# Youngs Moduli (GPa) = 30.44077 30.44077 56.21975
#
# Poissons Ratio (x) = 0.75803 0.23203
# Poissons Ratio (y) = 0.75803 0.23203
# Poissons Ratio (z) = 0.12563 0.12563
#
# Static dielectric constant tensor:
#      x y z
#    x 1.656860 0.000000 0.000000 
#    y 0.000000 1.656860 0.000000 
#    z 0.000000 0.000000 1.688590 
# 
# From -- ./inp_files/3214.got.cif
#   From: 2010.05.17/outbox.cif.g08.bks.cpg/sg162_2_cif.got.tgz:3214.got - 2010.05.20 10:53:12.
