data_PCOD9577316
_publ_section_title
;
Structure prediction by ZEFSAII (Michael W. Deem and Ramdas Pophale) SiO2 
 PCOD9577316
Probable space group: P 3 C 1
;
_chemical_formula_sum "Si O2"
_cell_formula_units_Z 40
_cell_length_a 11.406698
_cell_length_b 11.406698
_cell_length_c 17.601348
_cell_angle_alpha 90.000000
_cell_angle_beta 90.000000
_cell_angle_gamma 120.000000
_cell_volume 1983.336700
_symmetry_space_group_name_H-M "P 3 C 1"
_symmetry_group_IT_number 158
_symmetry_cell_setting 'hexagonal'
loop_
_space_group_symop_operation_xyz
x,y,z
-y,x-y,z
-x+y,-x,z
-x+y,y,1/2+z
x,x-y,1/2+z
-y,-x,1/2+z
loop_
_atom_site_type_symbol
_atom_site_label
_atom_site_fract_x
_atom_site_fract_y
_atom_site_fract_z
Si Si1 0.682186 0.069326 0.222830
Si Si2 0.000000 0.000000 0.575816
Si Si3 0.411041 0.055466 0.254450
Si Si4 0.000000 0.000000 0.755336
Si Si5 0.205218 0.494511 0.162481
Si Si6 0.016365 0.233839 0.856497
Si Si7 0.073005 0.771045 0.069001
Si Si8 0.978468 0.273668 0.414603
O O1 0.555323 0.093156 0.219302
O O2 0.823749 0.208315 0.232313
O O3 0.655594 0.990005 0.303666
O O4 0.700438 0.996927 0.149110
O O5 0.049995 0.153227 0.552186
O O6 0.000000 0.000000 0.666561
O O7 0.396862 0.043824 0.345838
O O8 0.300478 0.909108 0.219978
O O9 0.123897 0.993621 0.791298
O O10 0.368739 0.564846 0.170401
O O11 0.180872 0.411631 0.084213
O O12 0.156059 0.275658 0.897693
O O13 0.881660 0.146339 0.907164
O O14 0.000835 0.668903 0.999327
#
# Coordination Sequence:
#
# PCOD9577316 Si02
#       8
#     6   2   6   2   6   6   6   6
#     4  11  21  39  63  86 121 163 219 254 309 385
#     4  12  21  31  68 100 129 157 203 271 342 370
#     4  11  23  41  64  90 121 173 216 263 313 389
#     4   9  15  28  53  88 108 148 191 235 303 367
#     4  10  22  42  63  84 126 168 214 262 306 388
#     4   9  18  36  57  86 122 156 197 256 307 382
#     4  12  22  39  60 100 127 162 208 271 324 382
#     4  10  22  36  60  94 130 157 204 264 334 371
#
# _framework density 20.168033000000001
#
# number of rings (size 3 to 8) (size 9 to 14) (size 15 to 20)
#    0.300    1.200    3.000    3.300    2.100    0.000 
#    2.700    3.000    0.000    0.000    0.000    0.000 
#    0.000    0.000    0.000    0.000    0.000    0.000 
#
# Total GULP energy -222757.460768 kJ/mol
# GULP energy per Si atom -5568.936519 kJ/mol
# Density = 2.012213 g / cm^3
# Si number density = 20.168033 Si / 1000 Ang^3
#
#
#
# Elastic Constant Matrix: (Units=GPa)
#
#
# Indices 1 2 3 4 5 6 
#
# 1 74.5717 24.5806 21.3296 -1.9884 0.0000 0.0000
# 2 24.5806 74.5717 21.3296 1.9884 0.0000 0.0000
# 3 21.3296 21.3296 98.0348 0.0000 0.0000 0.0000
# 4 -1.9884 1.9884 0.0000 7.9956 0.0000 0.0000
# 5 0.0000 0.0000 0.0000 0.0000 7.9956 -1.9884
# 6 0.0000 0.0000 0.0000 0.0000 -1.9884 24.9956
#
#
#
# Elastic Compliance Matrix: (Units=1/GPa)
#
#
# Indices 1 2 3 4 5 6 
#
# 1 0.015767 -0.004640 -0.002421 0.005075 0.000000 0.000000
# 2 -0.004640 0.015767 -0.002421 -0.005075 0.000000 0.000000
# 3 -0.002421 -0.002421 0.011254 0.000000 0.000000 0.000000
# 4 0.005075 -0.005075 0.000000 0.127594 0.000000 0.000000
# 5 0.000000 0.000000 0.000000 0.000000 0.127594 0.010150
# 6 0.000000 0.000000 0.000000 0.000000 0.010150 0.040814
#
#
# Mechanical properties :
#
#
# Convention : Reuss Voigt Hill
#
# Bulk Modulus (GPa) = 41.97391 42.40642 42.19017
# Shear Modulus (GPa) = 13.67258 20.19324 16.93291
#
# Velocity S-wave (km/s) = 2.60654 3.16769 2.90071
# Velocity P-wave (km/s) = 5.46955 5.86951 5.67306
#
# Compressibility (1/GPa) = 0.02382432
#
# Stress axis : x y z
#
# Youngs Moduli (GPa) = 63.42299 63.42299 88.85798
#
# Poissons Ratio (x) = 0.29429 0.21512
# Poissons Ratio (y) = 0.29429 0.21512
# Poissons Ratio (z) = 0.15354 0.15354
#
# Static dielectric constant tensor:
#      x y z
#    x 1.784880 0.000000 0.000000 
#    y 0.000000 1.784880 0.000000 
#    z 0.000000 0.000000 1.755090 
# 
# From -- ./inp_files/670.got.cif
#   From: 2010.05.17/outbox.cif.g08.bks.cpg/sg158_cif.got.tgz:670.got - 2010.05.20 10:49:59.
