data_PCOD9577258
_publ_section_title
;
Structure prediction by ZEFSAII (Michael W. Deem and Ramdas Pophale) SiO2 
 PCOD9577258
Probable space group: P 3 1 M
;
_chemical_formula_sum "Si O2"
_cell_formula_units_Z 42
_cell_length_a 13.611074
_cell_length_b 13.611074
_cell_length_c 12.701213
_cell_angle_alpha 90.000000
_cell_angle_beta 90.000000
_cell_angle_gamma 120.000000
_cell_volume 2037.795605
_symmetry_space_group_name_H-M "P 3 1 M"
_symmetry_group_IT_number 157
_symmetry_cell_setting 'hexagonal'
loop_
_space_group_symop_operation_xyz
x,y,z
-y,x-y,z
-x+y,-x,z
y,x,z
x-y,-y,z
-x,-x+y,z
loop_
_atom_site_type_symbol
_atom_site_label
_atom_site_fract_x
_atom_site_fract_y
_atom_site_fract_z
Si Si1 0.259936 0.133055 0.471410
Si Si2 0.866341 0.544882 0.072683
Si Si3 0.340426 0.867816 0.190422
Si Si4 0.460667 0.332139 0.836501
Si Si5 0.861727 0.346374 0.425872
Si Si6 0.811048 0.687571 0.708991
Si Si7 0.870653 0.415307 0.644334
O O1 0.208455 0.208455 0.430761
O O2 0.387487 0.172389 0.436844
O O3 0.265719 0.139195 0.598548
O O4 0.181187 0.000000 0.443519
O O5 0.861128 0.431758 0.116216
O O6 0.783993 0.569379 0.144662
O O7 0.000000 0.642294 0.073887
O O8 0.821016 0.518768 0.952561
O O9 0.360078 0.833412 0.307276
O O10 0.374187 0.000000 0.196266
O O11 0.435283 0.435283 0.851911
O O12 0.350618 0.223550 0.790291
O O13 0.551264 0.369969 0.741699
O O14 0.821602 0.389635 0.526207
O O15 0.000000 0.416120 0.436148
O O16 0.774654 0.774654 0.752663
O O17 0.694916 0.572746 0.677057
O O18 0.000000 0.520241 0.635123
#
# Coordination Sequence:
#
# PCOD9577258 Si02
#       7
#     6   6   6   6   6   6   6
#     4   9  16  28  49  80 115 151 188 228 276 336
#     4  10  23  39  59  89 117 150 204 252 290 356
#     4  10  21  41  64  84 116 160 197 246 306 349
#     4  10  20  34  53  80 112 141 183 234 276 332
#     4   8  16  33  55  77 108 148 189 230 279 342
#     4   9  18  32  51  76 109 146 181 220 276 339
#     4   8  16  33  52  74 106 138 174 224 274 326
#
# _framework density 20.610506000000001
#
# number of rings (size 3 to 8) (size 9 to 14) (size 15 to 20)
#    0.000    2.857    0.000    2.571    2.000    1.143 
#    6.000    0.000    0.000    0.571    0.000    0.000 
#    0.000    0.000    0.000    0.000    0.000    0.000 
#
# Total GULP energy -234172.626361 kJ/mol
# GULP energy per Si atom -5575.538723 kJ/mol
# Density = 2.056360 g / cm^3
# Si number density = 20.610506 Si / 1000 Ang^3
#
#
#
# Elastic Constant Matrix: (Units=GPa)
#
#
# Indices 1 2 3 4 5 6 
#
# 1 57.7492 12.4067 15.4814 0.0000 1.1462 0.0000
# 2 12.4067 57.7492 15.4814 0.0000 -1.1462 0.0000
# 3 15.4814 15.4814 126.6011 0.0000 0.0000 0.0000
# 4 0.0000 0.0000 0.0000 13.2492 0.0000 -1.1462
# 5 1.1462 -1.1462 0.0000 0.0000 13.2492 0.0000
# 6 0.0000 0.0000 0.0000 -1.1462 0.0000 22.6713
#
#
#
# Elastic Compliance Matrix: (Units=1/GPa)
#
#
# Indices 1 2 3 4 5 6 
#
# 1 0.018609 -0.003542 -0.001842 0.000000 -0.001916 0.000000
# 2 -0.003542 0.018609 -0.001842 0.000000 0.001916 0.000000
# 3 -0.001842 -0.001842 0.008349 0.000000 0.000000 0.000000
# 4 0.000000 0.000000 0.000000 0.075808 0.000000 0.003832
# 5 -0.001916 0.001916 0.000000 0.000000 0.075808 0.000000
# 6 0.000000 0.000000 0.000000 0.003832 0.000000 0.044302
#
#
# Mechanical properties :
#
#
# Convention : Reuss Voigt Hill
#
# Bulk Modulus (GPa) = 32.14009 36.53761 34.33885
# Shear Modulus (GPa) = 18.77506 23.08262 20.92884
#
# Velocity S-wave (km/s) = 3.02146 3.35019 3.19006
# Velocity P-wave (km/s) = 5.27259 5.72111 5.50143
#
# Compressibility (1/GPa) = 0.03111379
#
# Stress axis : x y z
#
# Youngs Moduli (GPa) = 53.73690 53.73690 119.76850
#
# Poissons Ratio (x) = 0.19034 0.22067
# Poissons Ratio (y) = 0.19034 0.22067
# Poissons Ratio (z) = 0.09901 0.09901
#
# Static dielectric constant tensor:
#      x y z
#    x 1.769550 0.000000 0.000000 
#    y 0.000000 1.769550 0.000000 
#    z 0.000000 0.000000 1.752660 
# 
# From -- ./inp_files/579.got.cif
#   From: 2010.05.17/outbox.cif.g08.bks.cpg/sg157_cif.got.tgz:579.got - 2010.05.20 10:49:36.
