data_PCOD9577422
_publ_section_title
;
Structure prediction by ZEFSAII (Michael W. Deem and Ramdas Pophale) SiO2 
 PCOD9577422
Probable space group: P 3 1 C
;
_chemical_formula_sum "Si O2"
_cell_formula_units_Z 42
_cell_length_a 10.859836
_cell_length_b 10.859836
_cell_length_c 19.124013
_cell_angle_alpha 90.000000
_cell_angle_beta 90.000000
_cell_angle_gamma 120.000000
_cell_volume 1953.242636
_symmetry_space_group_name_H-M "P 3 1 C"
_symmetry_group_IT_number 159
_symmetry_cell_setting 'hexagonal'
loop_
_space_group_symop_operation_xyz
x,y,z
-y,x-y,z
-x+y,-x,z
y,x,1/2+z
x-y,-y,1/2+z
-x,-x+y,1/2+z
loop_
_atom_site_type_symbol
_atom_site_label
_atom_site_fract_x
_atom_site_fract_y
_atom_site_fract_z
Si Si1 0.029407 0.409009 0.625000
Si Si2 0.612965 0.016785 0.314925
Si Si3 0.653511 0.718272 0.816184
Si Si4 0.029540 0.646442 0.970348
Si Si5 0.319181 0.163366 0.710748
Si Si6 0.084769 0.721283 0.618713
Si Si7 0.621354 0.683479 0.972708
O O1 0.046036 0.561150 0.635905
O O2 0.169714 0.407746 0.649459
O O3 0.886595 0.292769 0.662277
O O4 0.023430 0.359108 0.544707
O O5 0.601675 0.900336 0.260595
O O6 0.770096 0.158263 0.311947
O O7 0.486718 0.051362 0.301674
O O8 0.612091 0.961282 0.393656
O O9 0.784980 0.754409 0.764653
O O10 0.689355 0.696039 0.896380
O O11 0.163634 0.800892 0.979790
O O12 0.094453 0.540768 0.970882
O O13 0.928704 0.632744 0.034434
O O14 0.241183 0.214297 0.655114
#
# Coordination Sequence:
#
# PCOD9577422 Si02
#       7
#     6   6   6   6   6   6   6
#     4  11  24  44  68  95 129 173 221 271 325 391
#     4  10  22  43  69  97 130 173 220 267 320 389
#     4  10  22  43  69  97 130 173 220 267 320 389
#     4   9  18  37  66  98 131 168 215 265 322 386
#     4  12  24  40  60  98 132 164 208 274 334 374
#     4  11  24  44  68  95 129 173 221 271 325 391
#     4   9  18  37  66  98 131 168 215 265 322 386
#
# _framework density 21.502704000000001
#
# number of rings (size 3 to 8) (size 9 to 14) (size 15 to 20)
#    0.000    1.714    1.429    2.571    2.000    2.286 
#   13.714    2.857    0.000    0.000    0.000    0.000 
#    0.000    0.000    0.000    0.000    0.000    0.000 
#
# Total GULP energy -233911.582520 kJ/mol
# GULP energy per Si atom -5569.323393 kJ/mol
# Density = 2.145376 g / cm^3
# Si number density = 21.502704 Si / 1000 Ang^3
#
#
#
# Elastic Constant Matrix: (Units=GPa)
#
#
# Indices 1 2 3 4 5 6 
#
# 1 45.6269 58.8555 31.2833 0.0000 7.8035 0.0000
# 2 58.8555 45.6269 31.2833 0.0000 -7.8035 0.0000
# 3 31.2833 31.2833 133.1861 0.0000 0.0000 0.0000
# 4 0.0000 0.0000 0.0000 28.5379 0.0000 -7.8035
# 5 7.8035 -7.8035 0.0000 0.0000 28.5379 0.0000
# 6 0.0000 0.0000 0.0000 -7.8035 0.0000 -6.6143
#
#
#
# Elastic Compliance Matrix: (Units=1/GPa)
#
#
# Indices 1 2 3 4 5 6 
#
# 1 -0.023009 0.034146 -0.002616 0.000000 0.015629 0.000000
# 2 0.034146 -0.023009 -0.002616 0.000000 -0.015629 0.000000
# 3 -0.002616 -0.002616 0.008737 0.000000 0.000000 0.000000
# 4 0.000000 0.000000 0.000000 0.026494 0.000000 -0.031257
# 5 0.015629 -0.015629 0.000000 0.000000 0.026494 0.000000
# 6 0.000000 0.000000 0.000000 -0.031257 0.000000 -0.114310
#
#
# Mechanical properties :
#
#
# Convention : Reuss Voigt Hill
#
# Bulk Modulus (GPa) = 48.66615 51.92046 50.29331
# Shear Modulus (GPa) = -33.42655 16.96015 -8.23320
#
# Velocity S-wave (km/s) = -3.94703 2.81151 -1.95888
# Velocity P-wave (km/s) = 1.38191 5.89388 4.28063
#
# Compressibility (1/GPa) = 0.02054816
#
# Stress axis : x y z
#
# Youngs Moduli (GPa) = -43.46163 -43.46163 114.45292
#
# Poissons Ratio (x) = 1.48406 0.29941
# Poissons Ratio (y) = 1.48406 0.29941
# Poissons Ratio (z) = -0.11370 -0.11370
#
# Static dielectric constant tensor:
#      x y z
#    x 1.788840 0.000000 0.000000 
#    y 0.000000 1.788840 0.000000 
#    z 0.000000 0.000000 1.936690 
# 
# From -- ./inp_files/1194.got.cif
#   From: 2010.05.17/outbox.cif.g08.bks.cpg/sg159_cif.got.tgz:1194.got - 2010.05.20 10:50:30.
