data_PCOD9577381
_publ_section_title
;
Structure prediction by ZEFSAII (Michael W. Deem and Ramdas Pophale) SiO2 
 PCOD9577381
Probable space group: P 3 1 C
;
_chemical_formula_sum "Si O2"
_cell_formula_units_Z 34
_cell_length_a 13.765420
_cell_length_b 13.765420
_cell_length_c 8.930434
_cell_angle_alpha 90.000000
_cell_angle_beta 90.000000
_cell_angle_gamma 120.000000
_cell_volume 1465.487541
_symmetry_space_group_name_H-M "P 3 1 C"
_symmetry_group_IT_number 159
_symmetry_cell_setting 'hexagonal'
loop_
_space_group_symop_operation_xyz
x,y,z
-y,x-y,z
-x+y,-x,z
y,x,1/2+z
x-y,-y,1/2+z
-x,-x+y,1/2+z
loop_
_atom_site_type_symbol
_atom_site_label
_atom_site_fract_x
_atom_site_fract_y
_atom_site_fract_z
Si Si1 0.849162 0.663232 0.848410
Si Si2 0.666668 0.333335 0.804061
Si Si3 0.933231 0.158248 0.319451
Si Si4 0.364780 0.886163 0.793622
Si Si5 0.764390 0.984245 0.086843
Si Si6 0.333335 0.666667 0.947556
Si Si7 0.112455 0.514558 0.444036
O O1 0.848313 0.781340 0.829916
O O2 0.905413 0.660142 0.693155
O O3 0.722264 0.577152 0.886294
O O4 0.932169 0.677325 0.982045
O O5 0.666668 0.333334 0.626486
O O6 0.626759 0.210028 0.870058
O O7 0.905378 0.258058 0.292101
O O8 0.878995 0.096343 0.475119
O O9 0.871026 0.067576 0.188695
O O10 0.330066 0.773038 0.881642
O O11 0.399485 0.881869 0.622967
O O12 0.467075 0.988582 0.880558
#
# Coordination Sequence:
#
# PCOD9577381 Si02
#       7
#     6   2   6   6   6   2   6
#     4  10  21  38  60  88 136 182 234 283 360 402
#     4  12  28  50  76 117 139 176 235 282 346 434
#     4  10  21  38  60  88 136 182 234 283 360 402
#     4  11  24  47  76 101 142 184 227 291 354 415
#     4  10  20  36  54  94 126 182 234 294 332 432
#     4  12  28  50  76 117 139 176 235 282 346 434
#     4  11  24  47  76 101 142 184 227 291 354 415
#
# _framework density 23.200471
#
# number of rings (size 3 to 8) (size 9 to 14) (size 15 to 20)
#    0.000    1.412    1.765    3.176    9.882    0.000 
#   27.529    0.000    0.000    0.000    0.000    0.000 
#    0.000    0.000    0.000    0.000    0.000    0.000 
#
# Total GULP energy -190297.120916 kJ/mol
# GULP energy per Si atom -5596.974145 kJ/mol
# Density = 2.314767 g / cm^3
# Si number density = 23.200471 Si / 1000 Ang^3
#
#
#
# Elastic Constant Matrix: (Units=GPa)
#
#
# Indices 1 2 3 4 5 6 
#
# 1 58.3011 2.5157 24.8409 -0.0001 0.0616 0.0008
# 2 2.5157 58.3019 24.8414 0.0000 -0.0616 0.0000
# 3 24.8409 24.8414 175.5124 0.0003 0.0001 0.0005
# 4 -0.0001 0.0000 0.0003 26.1637 0.0004 -0.0615
# 5 0.0616 -0.0616 0.0001 0.0004 26.1633 0.0000
# 6 0.0008 0.0000 0.0005 -0.0615 0.0000 27.8924
#
#
#
# Elastic Compliance Matrix: (Units=1/GPa)
#
#
# Indices 1 2 3 4 5 6 
#
# 1 0.018259 0.000333 -0.002631 0.000000 -0.000042 0.000000
# 2 0.000333 0.018259 -0.002631 0.000000 0.000042 0.000000
# 3 -0.002631 -0.002631 0.006442 0.000000 0.000000 0.000000
# 4 0.000000 0.000000 0.000000 0.038221 -0.000001 0.000084
# 5 -0.000042 0.000042 0.000000 -0.000001 0.038222 0.000000
# 6 0.000000 0.000000 0.000000 0.000084 0.000000 0.035852
#
#
# Mechanical properties :
#
#
# Convention : Reuss Voigt Hill
#
# Bulk Modulus (GPa) = 30.21023 44.05683 37.13353
# Shear Modulus (GPa) = 28.38510 32.03838 30.21174
#
# Velocity S-wave (km/s) = 3.50161 3.72013 3.61252
# Velocity P-wave (km/s) = 5.42199 6.12236 5.78279
#
# Compressibility (1/GPa) = 0.03310137
#
# Stress axis : x y z
#
# Youngs Moduli (GPa) = 54.76690 54.76758 155.21938
#
# Poissons Ratio (x) = -0.01825 0.40845
# Poissons Ratio (y) = -0.01825 0.40846
# Poissons Ratio (z) = 0.14412 0.14412
#
# Static dielectric constant tensor:
#      x y z
#    x 1.899110 0.000000 0.000000 
#    y 0.000000 1.899110 0.000000 
#    z 0.000000 0.000000 1.848760 
# 
# From -- ./inp_files/396.got.cif
#   From: 2010.05.17/outbox.cif.g08.bks.cpg/sg159_cif.got.tgz:396.got - 2010.05.20 10:50:30.
