data_PCOD9577162
_publ_section_title
;
Structure prediction by ZEFSAII (Michael W. Deem and Ramdas Pophale) SiO2 
 PCOD9577162
Probable space group: R 3 2
;
_chemical_formula_sum "Si O2"
_cell_formula_units_Z 69
_cell_length_a 20.258409
_cell_length_b 20.258409
_cell_length_c 9.029770
_cell_angle_alpha 90.000000
_cell_angle_beta 90.000000
_cell_angle_gamma 120.000000
_cell_volume 3209.356708
_symmetry_space_group_name_H-M "R 3 2"
_symmetry_group_IT_number 155
_symmetry_cell_setting 'hexagonal'
loop_
_space_group_symop_operation_xyz
x,y,z
-y,x-y,z
-x+y,-x,z
x-y,-y,-z
-x,-x+y,-z
y,x,-z
2/3+x,1/3+y,1/3+z
2/3-y,1/3+x-y,1/3+z
2/3-x+y,1/3-x,1/3+z
2/3+x-y,1/3-y,1/3-z
2/3-x,1/3-x+y,1/3-z
2/3+y,1/3+x,1/3-z
1/3+x,2/3+y,2/3+z
1/3-y,2/3+x-y,2/3+z
1/3-x+y,2/3-x,2/3+z
1/3+x-y,2/3-y,2/3-z
1/3-x,2/3-x+y,2/3-z
1/3+y,2/3+x,2/3-z
loop_
_atom_site_type_symbol
_atom_site_label
_atom_site_fract_x
_atom_site_fract_y
_atom_site_fract_z
Si Si1 0.216791 0.713851 0.451387
Si Si2 0.511187 0.580729 0.105671
Si Si3 0.871416 0.125196 0.231386
Si Si4 0.333334 0.666667 0.995062
Si Si5 0.666667 0.504092 0.333334
O O1 0.213446 0.771059 0.333878
O O2 0.141912 0.630865 0.454212
O O3 0.280889 0.697659 0.392515
O O4 0.260148 0.763222 0.596602
O O5 0.545533 0.666667 0.166667
O O6 0.482661 0.539981 0.263930
O O7 0.570274 0.570274 0.000000
O O8 0.809424 0.142757 0.166667
O O9 0.953530 0.178076 0.143226
O O10 0.333334 0.666668 0.166667
#
# Coordination Sequence:
#
# PCOD9577162 Si02
#       5
#    18  18  18   6   9
#     4  12  24  46  74 115 155 204 262 326 409 474
#     4  12  26  50  74 106 152 211 265 330 400 487
#     4  12  27  46  75 112 158 203 262 327 408 486
#     4  12  21  37  74 109 153 196 257 328 393 460
#     4  12  24  44  74 114 162 200 260 328 392 482
#
# _framework density 21.499637
#
# number of rings (size 3 to 8) (size 9 to 14) (size 15 to 20)
#    0.000    0.000    5.217    5.478    0.000    1.043 
#    2.348    5.217    0.000    0.000    0.000    0.000 
#    0.000    0.000    0.000    0.000    0.000    0.000 
#
# Total GULP energy -128093.274906 kJ/mol
# GULP energy per Si atom -5569.272822 kJ/mol
# Density = 2.145070 g / cm^3
# Si number density = 21.499637 Si / 1000 Ang^3
#
#
#
# Elastic Constant Matrix: (Units=GPa)
#
#
# Indices 1 2 3 4 5 6 
#
# 1 340.2225 279.8802 55.1806 1.3581 -0.0006 -0.0003
# 2 279.8802 340.2297 55.1812 -1.3576 0.0008 -0.0007
# 3 55.1806 55.1812 178.4507 -0.0004 -0.0006 -0.0005
# 4 1.3581 -1.3576 -0.0004 27.1197 -0.0003 0.0006
# 5 -0.0006 0.0008 -0.0006 -0.0003 27.1189 1.3582
# 6 -0.0003 -0.0007 -0.0005 0.0006 1.3582 30.1724
#
#
#
# Elastic Compliance Matrix: (Units=1/GPa)
#
#
# Indices 1 2 3 4 5 6 
#
# 1 0.009158 -0.007451 -0.000528 -0.000832 0.000000 0.000000
# 2 -0.007451 0.009157 -0.000528 0.000832 0.000000 0.000000
# 3 -0.000528 -0.000528 0.005930 0.000000 0.000000 0.000000
# 4 -0.000832 0.000832 0.000000 0.036957 0.000000 -0.000001
# 5 0.000000 0.000000 0.000000 0.000000 0.036958 -0.001664
# 6 0.000000 0.000000 0.000000 -0.000001 -0.001664 0.033218
#
#
# Mechanical properties :
#
#
# Convention : Reuss Voigt Hill
#
# Bulk Modulus (GPa) = 138.26620 182.15410 160.21015
# Shear Modulus (GPa) = 33.15619 48.12626 40.64122
#
# Velocity S-wave (km/s) = 3.93131 4.73638 4.35250
# Velocity P-wave (km/s) = 9.22266 10.71537 9.99692
#
# Compressibility (1/GPa) = 0.00723243
#
# Stress axis : x y z
#
# Youngs Moduli (GPa) = 109.19835 109.20066 168.63000
#
# Poissons Ratio (x) = 0.81365 0.08899
# Poissons Ratio (y) = 0.81364 0.08899
# Poissons Ratio (z) = 0.05762 0.05763
#
# Static dielectric constant tensor:
#      x y z
#    x 1.817330 0.000000 0.000000 
#    y 0.000000 1.817330 0.000000 
#    z 0.000000 0.000000 1.818130 
# 
# From -- ./inp_files/2182.got.cif
#   From: 2010.05.17/outbox.cif.g08.bks.cpg/sg155_2_cif.got.tgz:2182.got - 2010.05.20 10:44:35.
