data_PCOD9577648
_publ_section_title
;
Structure prediction by ZEFSAII (Michael W. Deem and Ramdas Pophale) SiO2 
 PCOD9577648
Probable space group: P -3 1 M 
;
_chemical_formula_sum "Si O2"
_cell_formula_units_Z 96
_cell_length_a 18.036751
_cell_length_b 18.036751
_cell_length_c 21.304291
_cell_angle_alpha 90.000000
_cell_angle_beta 90.000000
_cell_angle_gamma 120.000000
_cell_volume 6002.253547
_symmetry_space_group_name_H-M "P -3 1 M "
_symmetry_group_IT_number 162
_symmetry_cell_setting 'hexagonal'
loop_
_space_group_symop_operation_xyz
x,y,z
-y,x-y,z
-x+y,-x,z
-y,-x,-z
-x+y,y,-z
x,x-y,-z
-x,-y,-z
y,-x+y,-z
x-y,x,-z
y,x,z
x-y,-y,z
-x,-x+y,z
loop_
_atom_site_type_symbol
_atom_site_label
_atom_site_fract_x
_atom_site_fract_y
_atom_site_fract_z
Si Si1 0.498182 0.330630 0.500000
Si Si2 0.897387 0.268061 1.000000
Si Si3 0.369105 0.102329 0.244829
Si Si4 0.369105 0.102329 0.755171
Si Si5 0.532505 0.635736 0.123069
Si Si6 0.533726 0.897592 0.632767
Si Si7 0.467495 0.364263 0.123070
Si Si8 0.466273 0.102408 0.632766
O O1 0.570331 0.429670 0.500000
O O2 0.537731 0.268866 0.500000
O O3 0.450629 0.317069 0.565934
O O4 0.450628 0.317068 0.434066
O O5 0.876431 0.307098 0.061122
O O6 0.000000 0.303056 1.000000
O O7 0.833998 0.166003 0.000000
O O8 0.876431 0.307098 0.938877
O O9 0.329899 0.164949 0.242408
O O10 0.432710 0.124442 0.185700
O O11 0.425407 0.122422 0.307888
O O12 0.302114 0.000000 0.243163
O O13 0.432710 0.124442 0.814300
O O14 0.425406 0.122422 0.692111
O O15 0.302113 0.000000 0.756837
O O16 0.578160 0.578160 0.123313
O O17 0.431168 0.568831 0.122270
O O18 0.432312 0.864625 0.640775
O O19 0.580378 0.000000 0.629892
O O20 0.421840 0.421840 0.123313
O O21 0.419621 0.000000 0.629892
#
# Coordination Sequence:
#
# PCOD9577648 Si02
#       8
#    12  12  12  12  12  12  12  12
#     4  10  18  27  39  57  84 115 145 175 211 258
#     4  10  19  31  49  72  97 127 164 202 237 275
#     4  10  19  31  48  69  92 119 153 191 229 270
#     4  10  19  31  48  69  92 119 153 191 229 270
#     4   9  17  30  49  70  90 115 148 185 225 271
#     4   9  17  29  45  63  83 111 147 185 224 267
#     4   9  17  30  49  70  90 115 148 185 225 271
#     4   9  17  29  45  63  83 111 147 185 224 267
#
# _framework density 15.993992
#
# number of rings (size 3 to 8) (size 9 to 14) (size 15 to 20)
#    0.000    2.500    0.000    3.125    0.000    6.000 
#    0.000    0.000    0.000   13.875    0.000    0.000 
#    0.000    6.000    0.000    0.000    0.000   26.500 
#
# Total GULP energy -534439.569760 kJ/mol
# GULP energy per Si atom -5567.078852 kJ/mol
# Density = 1.595759 g / cm^3
# Si number density = 15.993992 Si / 1000 Ang^3
#
#
#
# Elastic Constant Matrix: (Units=GPa)
#
#
# Indices 1 2 3 4 5 6 
#
# 1 67.7110 39.3892 37.7632 0.0000 0.0003 0.0000
# 2 39.3892 67.7110 37.7632 0.0000 -0.0003 0.0000
# 3 37.7632 37.7632 149.4233 0.0000 0.0000 0.0000
# 4 0.0000 0.0000 0.0000 -8.2974 0.0000 -0.0003
# 5 0.0003 -0.0003 0.0000 0.0000 -8.2974 0.0000
# 6 0.0000 0.0000 0.0000 -0.0003 0.0000 14.1609
#
#
#
# Elastic Compliance Matrix: (Units=1/GPa)
#
#
# Indices 1 2 3 4 5 6 
#
# 1 0.023335 -0.011973 -0.002871 0.000000 0.000001 0.000000
# 2 -0.011973 0.023335 -0.002871 0.000000 -0.000001 0.000000
# 3 -0.002871 -0.002871 0.008144 0.000000 0.000000 0.000000
# 4 0.000000 0.000000 0.000000 -0.120520 0.000000 -0.000002
# 5 0.000001 -0.000001 0.000000 0.000000 -0.120520 0.000000
# 6 0.000000 0.000000 0.000000 -0.000002 0.000000 0.070617
#
#
# Mechanical properties :
#
#
# Convention : Reuss Voigt Hill
#
# Bulk Modulus (GPa) = 51.59456 57.18627 54.39042
# Shear Modulus (GPa) = -67.82741 10.84189 -28.49276
#
# Velocity S-wave (km/s) = -6.51921 2.60642 -4.22532
# Velocity P-wave (km/s) = 4.93336 6.70003 3.20564
#
# Compressibility (1/GPa) = 0.01938189
#
# Stress axis : x y z
#
# Youngs Moduli (GPa) = 42.85363 42.85363 122.79292
#
# Poissons Ratio (x) = 0.51310 0.35260
# Poissons Ratio (y) = 0.51310 0.35260
# Poissons Ratio (z) = 0.12305 0.12305
#
# Static dielectric constant tensor:
#      x y z
#    x 1.534490 0.000000 0.000000 
#    y 0.000000 1.534490 0.000000 
#    z 0.000000 0.000000 1.556040 
# 
# From -- ./inp_files/3890.got.cif
#   From: 2010.05.17/outbox.cif.g08.bks.cpg/sg162_2_cif.got.tgz:3890.got - 2010.05.20 10:53:12.
