data_PCOD9577595
_publ_section_title
;
Structure prediction by ZEFSAII (Michael W. Deem and Ramdas Pophale) SiO2 
 PCOD9577595
Probable space group: R 3 C
;
_chemical_formula_sum "Si O2"
_cell_formula_units_Z 66
_cell_length_a 13.398955
_cell_length_b 13.398955
_cell_length_c 15.498843
_cell_angle_alpha 90.000000
_cell_angle_beta 90.000000
_cell_angle_gamma 120.000000
_cell_volume 2409.748773
_symmetry_space_group_name_H-M "R 3 C"
_symmetry_group_IT_number 161
_symmetry_cell_setting 'hexagonal'
loop_
_space_group_symop_operation_xyz
x,y,z
-y,x-y,z
-x+y,-x,z
-x+y,y,1/2+z
x,x-y,1/2+z
-y,-x,1/2+z
2/3+x,1/3+y,1/3+z
2/3-y,1/3+x-y,1/3+z
2/3-x+y,1/3-x,1/3+z
2/3-x+y,1/3+y,5/6+z
2/3+x,1/3+x-y,5/6+z
2/3-y,1/3-x,5/6+z
1/3+x,2/3+y,2/3+z
1/3-y,2/3+x-y,2/3+z
1/3-x+y,2/3-x,2/3+z
1/3-x+y,2/3+y,1/6+z
1/3+x,2/3+x-y,1/6+z
1/3-y,2/3-x,1/6+z
loop_
_atom_site_type_symbol
_atom_site_label
_atom_site_fract_x
_atom_site_fract_y
_atom_site_fract_z
Si Si1 0.769079 0.565796 0.322279
Si Si2 0.003527 0.493829 0.336408
Si Si3 0.333334 0.666668 0.111982
Si Si4 0.266958 0.074770 0.181879
Si Si5 0.333334 0.666668 0.320505
O O1 0.631794 0.523311 0.328119
O O2 0.822601 0.584410 0.418326
O O3 0.762646 0.464645 0.261617
O O4 0.821240 0.683402 0.271251
O O5 0.018753 0.487598 0.439344
O O6 0.021625 0.621968 0.333373
O O7 0.333334 0.666667 0.216891
O O8 0.132551 0.042832 0.179917
#
# Coordination Sequence:
#
# PCOD9577595 Si02
#       5
#    18  18   6  18   6
#     4  11  27  49  82 115 165 214 273 333 412 483
#     4  10  24  48  76 116 158 212 268 328 400 484
#     4  12  24  54  78 115 171 213 265 342 408 481
#     4  11  27  49  82 115 165 214 273 333 412 483
#     4  12  24  54  78 115 171 213 265 342 408 481
#
# _framework density 27.388748
#
# number of rings (size 3 to 8) (size 9 to 14) (size 15 to 20)
#    0.000    1.091    5.455    0.000    7.636    4.364 
#    0.000    8.182    0.000    0.000    0.000    0.000 
#    0.000    0.000    0.000    0.000    0.000    0.000 
#
# Total GULP energy -122517.469453 kJ/mol
# GULP energy per Si atom -5568.975884 kJ/mol
# Density = 2.732641 g / cm^3
# Si number density = 27.388748 Si / 1000 Ang^3
#
#
#
# Elastic Constant Matrix: (Units=GPa)
#
#
# Indices 1 2 3 4 5 6 
#
# 1 131.2624 45.0178 51.0476 20.6882 0.0000 0.0000
# 2 45.0178 131.2622 51.0478 -20.6874 0.0000 0.0000
# 3 51.0476 51.0478 97.9932 0.0002 0.0000 0.0000
# 4 20.6882 -20.6874 0.0002 47.9478 0.0000 0.0000
# 5 0.0000 0.0000 0.0000 0.0000 47.9482 20.6879
# 6 0.0000 0.0000 0.0000 0.0000 20.6879 43.1224
#
#
#
# Elastic Compliance Matrix: (Units=1/GPa)
#
#
# Indices 1 2 3 4 5 6 
#
# 1 0.011373 -0.003249 -0.004232 -0.006309 0.000000 0.000000
# 2 -0.003249 0.011373 -0.004232 0.006309 0.000000 0.000000
# 3 -0.004232 -0.004232 0.014614 0.000000 0.000000 0.000000
# 4 -0.006309 0.006309 0.000000 0.026300 0.000000 0.000000
# 5 0.000000 0.000000 0.000000 0.000000 0.026300 -0.012617
# 6 0.000000 0.000000 0.000000 0.000000 -0.012617 0.029243
#
#
# Mechanical properties :
#
#
# Convention : Reuss Voigt Hill
#
# Bulk Modulus (GPa) = 71.76834 72.74935 72.25885
# Shear Modulus (GPa) = 33.95085 42.03065 37.99075
#
# Velocity S-wave (km/s) = 3.52460 3.92164 3.72841
# Velocity P-wave (km/s) = 6.54402 6.86477 6.70632
#
# Compressibility (1/GPa) = 0.01393372
#
# Stress axis : x y z
#
# Youngs Moduli (GPa) = 87.93029 87.93041 68.42808
#
# Poissons Ratio (x) = 0.28567 0.28958
# Poissons Ratio (y) = 0.28567 0.28958
# Poissons Ratio (z) = 0.37211 0.37212
#
# Static dielectric constant tensor:
#      x y z
#    x 2.231600 0.000000 0.000000 
#    y 0.000000 2.231600 0.000000 
#    z 0.000000 0.000000 2.087050 
# 
# From -- ./inp_files/1229.got.cif
#   From: 2010.05.17/outbox.cif.g08.bks.cpg/sg161_cif.got.tgz:1229.got - 2010.05.20 10:52:32.
