data_PCOD9577589
_publ_section_title
;
Structure prediction by ZEFSAII (Michael W. Deem and Ramdas Pophale) SiO2 
 PCOD9577589
Probable space group: R 3 C
;
_chemical_formula_sum "Si O2"
_cell_formula_units_Z 102
_cell_length_a 17.857714
_cell_length_b 17.857714
_cell_length_c 15.343812
_cell_angle_alpha 90.000000
_cell_angle_beta 90.000000
_cell_angle_gamma 120.000000
_cell_volume 4237.557721
_symmetry_space_group_name_H-M "R 3 C"
_symmetry_group_IT_number 161
_symmetry_cell_setting 'hexagonal'
loop_
_space_group_symop_operation_xyz
x,y,z
-y,x-y,z
-x+y,-x,z
-x+y,y,1/2+z
x,x-y,1/2+z
-y,-x,1/2+z
2/3+x,1/3+y,1/3+z
2/3-y,1/3+x-y,1/3+z
2/3-x+y,1/3-x,1/3+z
2/3-x+y,1/3+y,5/6+z
2/3+x,1/3+x-y,5/6+z
2/3-y,1/3-x,5/6+z
1/3+x,2/3+y,2/3+z
1/3-y,2/3+x-y,2/3+z
1/3-x+y,2/3-x,2/3+z
1/3-x+y,2/3+y,1/6+z
1/3+x,2/3+x-y,1/6+z
1/3-y,2/3-x,1/6+z
loop_
_atom_site_type_symbol
_atom_site_label
_atom_site_fract_x
_atom_site_fract_y
_atom_site_fract_z
Si Si1 0.927771 0.127052 0.048461
Si Si2 0.249317 0.096056 0.730423
Si Si3 0.891848 0.269855 0.278665
Si Si4 0.000000 0.000000 0.061058
Si Si5 0.766000 0.517649 0.630653
Si Si6 0.589440 0.590177 0.903228
Si Si7 0.333334 0.666667 0.439553
O O1 0.916366 0.132842 0.152007
O O2 0.826436 0.084918 0.020341
O O3 0.964087 0.062512 0.031696
O O4 0.993929 0.222052 0.012683
O O5 0.298408 0.173391 0.799844
O O6 0.309510 0.069936 0.673503
O O7 0.171106 0.006788 0.760269
O O8 0.808204 0.243907 0.220030
O O9 0.980686 0.315449 0.222079
O O10 0.000000 0.000000 0.167530
O O11 0.753041 0.581404 0.567535
O O12 0.682419 0.424853 0.639942
#
# Coordination Sequence:
#
# PCOD9577589 Si02
#       7
#    18  18  18   6  18  18   6
#     4  10  24  42  68 102 137 183 238 288 363 434
#     4   9  21  42  65  95 134 181 230 282 352 433
#     4  11  23  42  65 103 139 181 232 306 348 423
#     4  12  24  43  74  94 138 187 236 289 363 439
#     4  11  22  40  68 100 133 181 241 276 361 429
#     4   9  21  41  66  92 137 180 227 282 350 429
#     4  12  21  40  68  94 132 193 218 289 351 439
#
# _framework density 24.070468000000002
#
# number of rings (size 3 to 8) (size 9 to 14) (size 15 to 20)
#    1.059    0.706    1.765    2.118    0.000    2.824 
#    3.176    1.765    0.000    0.000    0.000    0.000 
#    0.000    0.000    0.000    0.000    0.000    0.000 
#
# Total GULP energy -189614.387638 kJ/mol
# GULP energy per Si atom -5576.893754 kJ/mol
# Density = 2.401568 g / cm^3
# Si number density = 24.070468 Si / 1000 Ang^3
#
#
#
# Elastic Constant Matrix: (Units=GPa)
#
#
# Indices 1 2 3 4 5 6 
#
# 1 134.8217 46.3403 0.0341 10.4000 0.0000 0.0000
# 2 46.3403 134.8237 0.0342 -10.4002 0.0000 0.0000
# 3 0.0341 0.0342 20.8753 -0.0004 0.0000 0.0000
# 4 10.4000 -10.4002 -0.0004 3.7747 0.0000 0.0000
# 5 0.0000 0.0000 0.0000 0.0000 3.7704 10.4002
# 6 0.0000 0.0000 0.0000 0.0000 10.4002 44.2409
#
#
#
# Elastic Compliance Matrix: (Units=1/GPa)
#
#
# Indices 1 2 3 4 5 6 
#
# 1 0.018799 -0.013279 -0.000011 -0.088383 0.000000 0.000000
# 2 -0.013279 0.018799 -0.000007 0.088382 0.000000 0.000000
# 3 -0.000011 -0.000007 0.047904 0.000014 0.000000 0.000000
# 4 -0.088383 0.088382 0.000014 0.751946 0.000000 0.000000
# 5 0.000000 0.000000 0.000000 0.000000 0.754454 -0.177359
# 6 0.000000 0.000000 0.000000 0.000000 -0.177359 0.064297
#
#
# Mechanical properties :
#
#
# Convention : Reuss Voigt Hill
#
# Bulk Modulus (GPa) = 16.97586 42.59309 29.78447
# Shear Modulus (GPa) = 2.93698 26.63133 14.78416
#
# Velocity S-wave (km/s) = 1.10581 3.32985 2.48100
# Velocity P-wave (km/s) = 2.94929 5.70241 4.53959
#
# Compressibility (1/GPa) = 0.05890719
#
# Stress axis : x y z
#
# Youngs Moduli (GPa) = 53.19373 53.19421 20.87529
#
# Poissons Ratio (x) = 0.70638 0.00022
# Poissons Ratio (y) = 0.70637 0.00016
# Poissons Ratio (z) = 0.00057 0.00040
#
# Static dielectric constant tensor:
#      x y z
#    x 2.011190 0.000000 0.000000 
#    y 0.000000 2.011170 0.000000 
#    z 0.000000 0.000000 1.950800 
# 
# From -- ./inp_files/1711.got.cif
#   From: 2010.05.17/outbox.cif.g08.bks.cpg/sg161_cif.got.tgz:1711.got - 2010.05.20 10:52:32.
