data_PCOD9577687
_publ_section_title
;
Structure prediction by ZEFSAII (Michael W. Deem and Ramdas Pophale) SiO2 
 PCOD9577687
Probable space group: P -3 1 M 
;
_chemical_formula_sum "Si O2"
_cell_formula_units_Z 84
_cell_length_a 14.785015
_cell_length_b 14.785015
_cell_length_c 25.806103
_cell_angle_alpha 90.000000
_cell_angle_beta 90.000000
_cell_angle_gamma 120.000000
_cell_volume 4885.360279
_symmetry_space_group_name_H-M "P -3 1 M "
_symmetry_group_IT_number 162
_symmetry_cell_setting 'hexagonal'
loop_
_space_group_symop_operation_xyz
x,y,z
-y,x-y,z
-x+y,-x,z
-y,-x,-z
-x+y,y,-z
x,x-y,-z
-x,-y,-z
y,-x+y,-z
x-y,x,-z
y,x,z
x-y,-y,z
-x,-x+y,z
loop_
_atom_site_type_symbol
_atom_site_label
_atom_site_fract_x
_atom_site_fract_y
_atom_site_fract_z
Si Si1 0.723365 0.603029 0.457849
Si Si2 0.348436 0.226164 0.375173
Si Si3 0.469904 0.591626 0.278594
Si Si4 0.124617 0.875113 0.055503
Si Si5 0.566257 0.441536 0.605746
Si Si6 0.758498 0.174434 0.256509
Si Si7 0.878279 0.124160 0.830475
O O1 0.804094 0.608188 0.500000
O O2 0.657129 0.657129 0.475957
O O3 0.793184 0.664900 0.407609
O O4 0.642846 0.484621 0.439273
O O5 0.263715 0.263715 0.382575
O O6 0.458978 0.319583 0.397408
O O7 0.364548 0.218171 0.314024
O O8 0.556338 0.556338 0.280083
O O9 0.443202 0.608038 0.337718
O O10 0.514529 0.701055 0.250827
O O11 0.365293 0.495558 0.255406
O O12 0.149143 0.848828 0.112467
O O13 0.000000 0.822302 0.053726
O O14 0.177217 0.000000 0.056423
O O15 0.154489 0.845512 0.000000
O O16 0.490984 0.490984 0.608090
O O17 0.806576 0.133680 0.213486
O O18 0.000000 0.155986 0.831982
O O19 0.805861 0.000000 0.820993
#
# Coordination Sequence:
#
# PCOD9577687 Si02
#       7
#    12  12  12  12  12  12  12
#     4  11  22  37  56  78 103 132 165 199 241 293
#     4  10  20  36  57  77 102 131 161 200 253 309
#     4  10  19  33  51  74 101 131 166 206 253 306
#     4   8  13  22  38  62  95 135 176 215 254 296
#     4   8  17  34  53  74  97 122 155 199 244 291
#     4  11  20  33  53  76 102 133 169 211 263 310
#     4  10  19  30  46  73 108 144 178 211 250 302
#
# _framework density 17.194227999999999
#
# number of rings (size 3 to 8) (size 9 to 14) (size 15 to 20)
#    0.000    2.286    1.429    3.571    0.000    2.857 
#    0.857    2.143    0.000    2.571    0.000    1.000 
#    0.000    5.714    0.000    0.000    0.000    0.000 
#
# Total GULP energy -468020.731350 kJ/mol
# GULP energy per Si atom -5571.675373 kJ/mol
# Density = 1.715509 g / cm^3
# Si number density = 17.194228 Si / 1000 Ang^3
#
#
#
# Elastic Constant Matrix: (Units=GPa)
#
#
# Indices 1 2 3 4 5 6 
#
# 1 46.8384 12.5926 30.7670 -0.0001 -4.9940 0.0000
# 2 12.5926 46.8384 30.7670 0.0001 4.9940 0.0000
# 3 30.7670 30.7670 103.6167 0.0000 0.0000 0.0000
# 4 -0.0001 0.0001 0.0000 13.4846 0.0000 4.9940
# 5 -4.9940 4.9940 0.0000 0.0000 13.4846 -0.0001
# 6 0.0000 0.0000 0.0000 4.9940 -0.0001 17.1229
#
#
#
# Elastic Compliance Matrix: (Units=1/GPa)
#
#
# Indices 1 2 3 4 5 6 
#
# 1 0.028516 -0.004221 -0.007214 0.000000 0.012124 0.000000
# 2 -0.004221 0.028516 -0.007214 0.000000 -0.012124 0.000000
# 3 -0.007214 -0.007214 0.013935 0.000000 0.000000 0.000000
# 4 0.000000 0.000000 0.000000 0.083139 0.000000 -0.024248
# 5 0.012124 -0.012124 0.000000 0.000000 0.083139 0.000000
# 6 0.000000 0.000000 0.000000 -0.024248 0.000000 0.065473
#
#
# Mechanical properties :
#
#
# Convention : Reuss Voigt Hill
#
# Bulk Modulus (GPa) = 29.70012 38.39410 34.04711
# Shear Modulus (GPa) = 14.23531 17.02955 15.63243
#
# Velocity S-wave (km/s) = 2.88047 3.15051 3.01851
# Velocity P-wave (km/s) = 5.32669 5.96761 5.65624
#
# Compressibility (1/GPa) = 0.03366989
#
# Stress axis : x y z
#
# Youngs Moduli (GPa) = 35.06782 35.06782 71.76091
#
# Poissons Ratio (x) = 0.14800 0.51769
# Poissons Ratio (y) = 0.14800 0.51769
# Poissons Ratio (z) = 0.25298 0.25298
#
# Static dielectric constant tensor:
#      x y z
#    x 1.593290 0.000000 0.000000 
#    y 0.000000 1.593290 0.000000 
#    z 0.000000 0.000000 1.638670 
# 
# From -- ./inp_files/3971.got.cif
#   From: 2010.05.17/outbox.cif.g08.bks.cpg/sg162_2_cif.got.tgz:3971.got - 2010.05.20 10:53:12.
