data_PCOD9577537
_publ_section_title
;
Structure prediction by ZEFSAII (Michael W. Deem and Ramdas Pophale) SiO2 
 PCOD9577537
Probable space group: R 3 C
;
_chemical_formula_sum "Si O2"
_cell_formula_units_Z 144
_cell_length_a 23.619438
_cell_length_b 23.619438
_cell_length_c 18.217310
_cell_angle_alpha 90.000000
_cell_angle_beta 90.000000
_cell_angle_gamma 120.000000
_cell_volume 8801.445417
_symmetry_space_group_name_H-M "R 3 C"
_symmetry_group_IT_number 161
_symmetry_cell_setting 'hexagonal'
loop_
_space_group_symop_operation_xyz
x,y,z
-y,x-y,z
-x+y,-x,z
-x+y,y,1/2+z
x,x-y,1/2+z
-y,-x,1/2+z
2/3+x,1/3+y,1/3+z
2/3-y,1/3+x-y,1/3+z
2/3-x+y,1/3-x,1/3+z
2/3-x+y,1/3+y,5/6+z
2/3+x,1/3+x-y,5/6+z
2/3-y,1/3-x,5/6+z
1/3+x,2/3+y,2/3+z
1/3-y,2/3+x-y,2/3+z
1/3-x+y,2/3-x,2/3+z
1/3-x+y,2/3+y,1/6+z
1/3+x,2/3+x-y,1/6+z
1/3-y,2/3-x,1/6+z
loop_
_atom_site_type_symbol
_atom_site_label
_atom_site_fract_x
_atom_site_fract_y
_atom_site_fract_z
Si Si1 0.528210 0.461181 0.605257
Si Si2 0.794489 0.599621 0.865936
Si Si3 0.253723 0.252614 0.307943
Si Si4 0.590975 0.905073 0.500947
Si Si5 0.919288 0.587054 0.329949
Si Si6 0.409064 0.314115 0.803625
Si Si7 0.559298 0.545698 0.953965
Si Si8 0.440698 0.454309 0.850584
O O1 0.498943 0.498955 0.652259
O O2 0.490406 0.387964 0.635665
O O3 0.605302 0.507489 0.618019
O O4 0.499751 0.449257 0.523375
O O5 0.721276 0.564203 0.835513
O O6 0.840797 0.568831 0.853209
O O7 0.782540 0.616168 0.947804
O O8 0.333334 0.294112 0.318952
O O9 0.222754 0.257797 0.384133
O O10 0.236713 0.279904 0.235454
O O11 0.591180 0.889433 0.587101
O O12 0.666685 0.955212 0.485612
O O13 0.556394 0.947393 0.483291
O O14 0.946559 0.570041 0.402450
O O15 0.443642 0.391012 0.821305
O O16 0.500001 0.500035 0.902256
#
# Coordination Sequence:
#
# PCOD9577537 Si02
#       8
#    18  18  18  18  18  18  18  18
#     4  10  20  33  50  73 102 146 188 221 266 338
#     4  10  20  33  50  73 102 146 188 221 266 338
#     4  11  20  34  52  73 106 147 185 225 276 331
#     4  11  20  34  51  72 109 145 180 225 273 330
#     4  11  20  34  52  73 106 147 185 225 276 331
#     4  11  20  34  51  72 109 145 180 225 273 330
#     4  12  22  32  52  78 109 148 187 227 288 340
#     4  12  22  32  52  78 109 148 187 227 288 340
#
# _framework density 16.360948
#
# number of rings (size 3 to 8) (size 9 to 14) (size 15 to 20)
#    0.000    1.000    7.500    3.750    0.000    0.000 
#    0.000    0.000    0.000    0.000    0.000    0.000 
#    2.500    2.000    3.000    0.000    0.000    0.000 
#
# Total GULP energy -267267.177078 kJ/mol
# GULP energy per Si atom -5568.066189 kJ/mol
# Density = 1.632371 g / cm^3
# Si number density = 16.360948 Si / 1000 Ang^3
#
#
#
# Elastic Constant Matrix: (Units=GPa)
#
#
# Indices 1 2 3 4 5 6 
#
# 1 41.6146 27.3715 30.3916 -3.5059 0.0000 0.0000
# 2 27.3715 41.6146 30.3916 3.5059 0.0000 0.0000
# 3 30.3916 30.3916 122.5073 0.0000 0.0000 0.0000
# 4 -3.5059 3.5059 0.0000 27.8001 0.0000 0.0000
# 5 0.0000 0.0000 0.0000 0.0000 27.8001 -3.5059
# 6 0.0000 0.0000 0.0000 0.0000 -3.5059 7.1216
#
#
#
# Elastic Compliance Matrix: (Units=1/GPa)
#
#
# Indices 1 2 3 4 5 6 
#
# 1 0.046704 -0.028153 -0.004602 0.009440 0.000000 0.000000
# 2 -0.028153 0.046704 -0.004602 -0.009440 0.000000 0.000000
# 3 -0.004602 -0.004602 0.010446 0.000000 0.000000 0.000000
# 4 0.009440 -0.009440 0.000000 0.038352 0.000000 0.000000
# 5 0.000000 0.000000 0.000000 0.000000 0.038352 0.018880
# 6 0.000000 0.000000 0.000000 0.000000 0.018880 0.149713
#
#
# Mechanical properties :
#
#
# Convention : Reuss Voigt Hill
#
# Bulk Modulus (GPa) = 34.31822 42.44956 38.38389
# Shear Modulus (GPa) = 12.05698 20.38314 16.22006
#
# Velocity S-wave (km/s) = 2.71760 3.53348 3.15205
# Velocity P-wave (km/s) = 5.55593 6.53064 6.06291
#
# Compressibility (1/GPa) = 0.02913904
#
# Stress axis : x y z
#
# Youngs Moduli (GPa) = 21.41166 21.41166 95.72936
#
# Poissons Ratio (x) = 0.60280 0.44055
# Poissons Ratio (y) = 0.60280 0.44055
# Poissons Ratio (z) = 0.09854 0.09854
#
# Static dielectric constant tensor:
#      x y z
#    x 1.588450 0.000000 0.000000 
#    y 0.000000 1.588450 0.000000 
#    z 0.000000 0.000000 1.838630 
# 
# From -- ./inp_files/1541.got.cif
#   From: 2010.05.17/outbox.cif.g08.bks.cpg/sg161_cif.got.tgz:1541.got - 2010.05.20 10:52:32.
