data_PCOD9577122
_publ_section_title
;
Structure prediction by ZEFSAII (Michael W. Deem and Ramdas Pophale) SiO2 
 PCOD9577122
Probable space group: R 3 2
;
_chemical_formula_sum "Si O2"
_cell_formula_units_Z 69
_cell_length_a 22.171019
_cell_length_b 22.171019
_cell_length_c 9.339413
_cell_angle_alpha 90.000000
_cell_angle_beta 90.000000
_cell_angle_gamma 120.000000
_cell_volume 3975.772458
_symmetry_space_group_name_H-M "R 3 2"
_symmetry_group_IT_number 155
_symmetry_cell_setting 'hexagonal'
loop_
_space_group_symop_operation_xyz
x,y,z
-y,x-y,z
-x+y,-x,z
x-y,-y,-z
-x,-x+y,-z
y,x,-z
2/3+x,1/3+y,1/3+z
2/3-y,1/3+x-y,1/3+z
2/3-x+y,1/3-x,1/3+z
2/3+x-y,1/3-y,1/3-z
2/3-x,1/3-x+y,1/3-z
2/3+y,1/3+x,1/3-z
1/3+x,2/3+y,2/3+z
1/3-y,2/3+x-y,2/3+z
1/3-x+y,2/3-x,2/3+z
1/3+x-y,2/3-y,2/3-z
1/3-x,2/3-x+y,2/3-z
1/3+y,2/3+x,2/3-z
loop_
_atom_site_type_symbol
_atom_site_label
_atom_site_fract_x
_atom_site_fract_y
_atom_site_fract_z
Si Si1 0.333334 0.666667 0.832528
Si Si2 0.110478 0.443811 0.666667
Si Si3 0.004692 0.135361 0.266907
Si Si4 0.548769 0.415436 0.828399
Si Si5 0.691445 0.774531 0.497254
O O1 0.333334 0.666668 0.666667
O O2 0.352205 0.742494 0.879824
O O3 0.159825 0.481213 0.805001
O O4 0.096919 0.369136 0.609977
O O5 0.939245 0.096135 0.373536
O O6 0.074100 0.184443 0.357364
O O7 0.492070 0.333334 0.833334
O O8 0.532583 0.477492 0.799011
O O9 0.749260 0.749260 0.500000
O O10 0.666667 0.761726 0.333334
#
# Coordination Sequence:
#
# PCOD9577122 Si02
#       5
#     6   9  18  18  18
#     4  12  21  34  56  88 120 154 194 250 306 373
#     4  12  24  38  56  94 130 160 202 262 328 388
#     4  11  22  34  57  87 121 157 194 254 314 369
#     4  11  22  37  57  87 118 160 207 247 308 375
#     4  12  22  36  61  91 125 159 200 260 325 379
#
# _framework density 17.355118999999998
#
# number of rings (size 3 to 8) (size 9 to 14) (size 15 to 20)
#    0.000    0.522   10.435    0.000    0.000    0.000 
#    0.000    0.000    0.000    0.000   13.565    0.000 
#    0.000    0.000    0.000    0.000    0.000    0.000 
#
# Total GULP energy -128089.358695 kJ/mol
# GULP energy per Si atom -5569.102552 kJ/mol
# Density = 1.731562 g / cm^3
# Si number density = 17.355119 Si / 1000 Ang^3
#
#
#
# Elastic Constant Matrix: (Units=GPa)
#
#
# Indices 1 2 3 4 5 6 
#
# 1 104.0779 44.4654 30.1068 -6.4054 -0.0062 -0.0023
# 2 44.4654 104.0818 30.1160 6.4033 0.0030 0.0012
# 3 30.1068 30.1160 87.0157 -0.0072 -0.0068 -0.0027
# 4 -6.4054 6.4033 -0.0072 23.9218 -0.0068 -0.0023
# 5 -0.0062 0.0030 -0.0068 -0.0068 23.9223 -6.4026
# 6 -0.0023 0.0012 -0.0027 -0.0023 -6.4026 29.8084
#
#
#
# Elastic Compliance Matrix: (Units=1/GPa)
#
#
# Indices 1 2 3 4 5 6 
#
# 1 0.012814 -0.004984 -0.002708 0.004764 0.000005 0.000002
# 2 -0.004984 0.012815 -0.002711 -0.004766 -0.000006 -0.000003
# 3 -0.002708 -0.002711 0.013368 0.000005 0.000004 0.000002
# 4 0.004764 -0.004766 0.000005 0.044354 0.000017 0.000007
# 5 0.000005 -0.000006 0.000004 0.000017 0.044352 0.009526
# 6 0.000002 -0.000003 0.000002 0.000007 0.009526 0.035594
#
#
# Mechanical properties :
#
#
# Convention : Reuss Voigt Hill
#
# Bulk Modulus (GPa) = 54.97611 56.06133 55.51872
# Shear Modulus (GPa) = 26.29284 28.22965 27.26124
#
# Velocity S-wave (km/s) = 3.89651 4.03748 3.96762
# Velocity P-wave (km/s) = 7.21039 7.35578 7.28345
#
# Compressibility (1/GPa) = 0.01818972
#
# Stress axis : x y z
#
# Youngs Moduli (GPa) = 78.03898 78.03559 74.80803
#
# Poissons Ratio (x) = 0.38892 0.20260
# Poissons Ratio (y) = 0.38894 0.20282
# Poissons Ratio (z) = 0.21135 0.21157
#
# Static dielectric constant tensor:
#      x y z
#    x 1.600590 0.000000 0.000000 
#    y 0.000000 1.600590 -0.000010 
#    z 0.000000 -0.000010 1.707240 
# 
# From -- ./inp_files/2216.got.cif
#   From: 2010.05.17/outbox.cif.g08.bks.cpg/sg155_2_cif.got.tgz:2216.got - 2010.05.20 10:44:35.
