data_PCOD9577850
_publ_section_title
;
Structure prediction by ZEFSAII (Michael W. Deem and Ramdas Pophale) SiO2 
 PCOD9577850
Probable space group: P -3 1 M 
;
_chemical_formula_sum "Si O2"
_cell_formula_units_Z 66
_cell_length_a 20.550379
_cell_length_b 20.550379
_cell_length_c 9.540133
_cell_angle_alpha 90.000000
_cell_angle_beta 90.000000
_cell_angle_gamma 120.000000
_cell_volume 3489.190911
_symmetry_space_group_name_H-M "P -3 1 M "
_symmetry_group_IT_number 162
_symmetry_cell_setting 'hexagonal'
loop_
_space_group_symop_operation_xyz
x,y,z
-y,x-y,z
-x+y,-x,z
-y,-x,-z
-x+y,y,-z
x,x-y,-z
-x,-y,-z
y,-x+y,-z
x-y,x,-z
y,x,z
x-y,-y,z
-x,-x+y,z
loop_
_atom_site_type_symbol
_atom_site_label
_atom_site_fract_x
_atom_site_fract_y
_atom_site_fract_z
Si Si1 0.292572 0.845013 0.500809
Si Si2 0.090362 0.590642 0.726709
Si Si3 0.353781 0.914786 0.780042
Si Si4 0.818611 0.909306 0.500000
Si Si5 0.089992 0.301034 0.304678
Si Si6 0.414237 0.140757 0.063706
O O1 0.244701 0.755300 0.500000
O O2 0.373323 0.880708 0.426618
O O3 0.295446 0.866925 0.661551
O O4 0.247714 0.877302 0.413436
O O5 0.107309 0.526201 0.777532
O O6 0.129425 0.661443 0.830169
O O7 0.000000 0.554333 0.731939
O O8 0.394540 0.000000 0.729636
O O9 0.316504 0.908818 0.929168
O O10 0.869429 0.869429 0.516035
O O11 0.762625 0.868693 0.367303
O O12 0.120212 0.339244 0.152779
O O13 0.000000 0.263486 0.301306
O O14 0.446408 0.223204 0.000000
#
# Coordination Sequence:
#
# PCOD9577850 Si02
#       6
#    12  12  12   6  12  12
#     4  11  20  34  54  84 116 147 184 235 294 342
#     4  10  21  38  57  80 111 148 189 240 289 336
#     4  11  21  35  60  84 106 144 193 234 280 344
#     4  10  21  38  62  88 120 160 202 238 280 346
#     4  10  20  37  57  83 119 149 181 235 292 337
#     4  11  22  36  54  83 118 149 183 231 291 345
#
# _framework density 18.915559999999999
#
# number of rings (size 3 to 8) (size 9 to 14) (size 15 to 20)
#    0.000    1.455    0.909    7.727    0.000    2.909 
#    0.000    1.818    0.000   14.545    0.000    0.000 
#    0.000    3.636    0.000    0.000    0.000    0.000 
#
# Total GULP energy -368142.033489 kJ/mol
# GULP energy per Si atom -5577.909598 kJ/mol
# Density = 1.887251 g / cm^3
# Si number density = 18.915560 Si / 1000 Ang^3
#
#
#
# Elastic Constant Matrix: (Units=GPa)
#
#
# Indices 1 2 3 4 5 6 
#
# 1 73.8503 44.8533 27.5887 -0.0010 -3.7970 0.0000
# 2 44.8533 73.8503 27.5887 0.0010 3.7970 0.0000
# 3 27.5887 27.5887 101.8021 0.0000 0.0000 0.0000
# 4 -0.0010 0.0010 0.0000 30.2933 0.0000 3.7970
# 5 -3.7970 3.7970 0.0000 0.0000 30.2933 -0.0010
# 6 0.0000 0.0000 0.0000 3.7970 -0.0010 14.4985
#
#
#
# Elastic Compliance Matrix: (Units=1/GPa)
#
#
# Indices 1 2 3 4 5 6 
#
# 1 0.022648 -0.013009 -0.002612 0.000001 0.004469 0.000000
# 2 -0.013009 0.022648 -0.002612 -0.000001 -0.004469 0.000000
# 3 -0.002612 -0.002612 0.011239 0.000000 0.000000 0.000000
# 4 0.000001 -0.000001 0.000000 0.034131 0.000000 -0.008939
# 5 0.004469 -0.004469 0.000000 0.000000 0.034131 0.000002
# 6 0.000000 0.000000 0.000000 -0.008939 0.000002 0.071314
#
#
# Mechanical properties :
#
#
# Convention : Reuss Voigt Hill
#
# Bulk Modulus (GPa) = 49.83182 49.95157 49.89169
# Shear Modulus (GPa) = 20.89731 24.98182 22.93957
#
# Velocity S-wave (km/s) = 3.32741 3.63809 3.48621
# Velocity P-wave (km/s) = 6.41590 6.64173 6.52979
#
# Compressibility (1/GPa) = 0.02006750
#
# Stress axis : x y z
#
# Youngs Moduli (GPa) = 44.15471 44.15471 88.97793
#
# Poissons Ratio (x) = 0.57441 0.23242
# Poissons Ratio (y) = 0.57441 0.23242
# Poissons Ratio (z) = 0.11534 0.11534
#
# Static dielectric constant tensor:
#      x y z
#    x 1.682330 0.000000 0.000000 
#    y 0.000000 1.682330 0.000000 
#    z 0.000000 0.000000 1.671000 
# 
# From -- ./inp_files/1564.got.cif
#   From: 2010.05.17/outbox.cif.g08.bks.cpg/sg162_1_cif.got.tgz:1564.got - 2010.05.20 10:53:12.
