data_PCOD9577742
_publ_section_title
;
Structure prediction by ZEFSAII (Michael W. Deem and Ramdas Pophale) SiO2 
 PCOD9577742
Probable space group: P -3 1 M 
;
_chemical_formula_sum "Si O2"
_cell_formula_units_Z 84
_cell_length_a 13.706830
_cell_length_b 13.706830
_cell_length_c 25.502170
_cell_angle_alpha 90.000000
_cell_angle_beta 90.000000
_cell_angle_gamma 120.000000
_cell_volume 4149.366736
_symmetry_space_group_name_H-M "P -3 1 M "
_symmetry_group_IT_number 162
_symmetry_cell_setting 'hexagonal'
loop_
_space_group_symop_operation_xyz
x,y,z
-y,x-y,z
-x+y,-x,z
-y,-x,-z
-x+y,y,-z
x,x-y,-z
-x,-y,-z
y,-x+y,-z
x-y,x,-z
y,x,z
x-y,-y,z
-x,-x+y,z
loop_
_atom_site_type_symbol
_atom_site_label
_atom_site_fract_x
_atom_site_fract_y
_atom_site_fract_z
Si Si1 0.869119 0.338888 0.147684
Si Si2 0.873989 0.749103 0.321190
Si Si3 0.655865 0.134897 0.647971
Si Si4 0.876008 0.675231 0.209711
Si Si5 0.584205 0.132775 0.248287
Si Si6 0.463666 0.331275 0.529873
Si Si7 0.670185 0.536561 0.029436
O O1 0.858021 0.223296 0.168661
O O2 0.820284 0.378573 0.195376
O O3 0.823227 0.322038 0.089172
O O4 0.000000 0.433574 0.142690
O O5 0.837848 0.837848 0.340235
O O6 0.777432 0.626646 0.338348
O O7 0.871075 0.746732 0.257895
O O8 0.000000 0.784364 0.337507
O O9 0.611614 0.178125 0.696429
O O10 0.667301 0.176023 0.588670
O O11 0.569125 0.000000 0.645099
O O12 0.863815 0.564489 0.238884
O O13 0.000000 0.739682 0.185171
O O14 0.488864 0.000000 0.249245
O O15 0.567331 0.432670 0.500000
O O16 0.430089 0.215045 0.500000
O O17 0.364746 0.364746 0.532206
O O18 0.630226 0.630226 0.030191
O O19 0.571561 0.428440 0.000000
O O20 0.786983 0.573966 0.000000
#
# Coordination Sequence:
#
# PCOD9577742 Si02
#       7
#    12  12  12  12  12  12  12
#     4  10  20  37  58  80 115 153 186 234 294 349
#     4  10  19  33  54  83 118 155 192 232 286 351
#     4   9  18  35  56  78 112 150 187 238 292 342
#     4  10  20  32  53  84 114 151 192 231 284 351
#     4   9  18  34  52  74 108 146 181 225 285 344
#     4  10  22  40  62  87 116 157 204 251 300 354
#     4  10  23  41  62  88 118 157 203 251 300 352
#
# _framework density 20.244053000000001
#
# number of rings (size 3 to 8) (size 9 to 14) (size 15 to 20)
#    0.000    2.286    1.429    0.857    2.000    2.286 
#    0.857    2.857    0.000    0.571    0.000    0.000 
#    0.000    0.000    0.000    0.000    0.000    0.000 
#
# Total GULP energy -468484.901464 kJ/mol
# GULP energy per Si atom -5577.201208 kJ/mol
# Density = 2.019798 g / cm^3
# Si number density = 20.244053 Si / 1000 Ang^3
#
#
#
# Elastic Constant Matrix: (Units=GPa)
#
#
# Indices 1 2 3 4 5 6 
#
# 1 52.9977 17.6977 21.1433 -0.0001 -5.9964 0.0000
# 2 17.6977 52.9977 21.1433 0.0001 5.9964 0.0000
# 3 21.1433 21.1433 150.3853 0.0000 0.0000 0.0000
# 4 -0.0001 0.0001 0.0000 0.9432 0.0000 5.9964
# 5 -5.9964 5.9964 0.0000 0.0000 0.9432 -0.0001
# 6 0.0000 0.0000 0.0000 5.9964 -0.0001 17.6500
#
#
#
# Elastic Compliance Matrix: (Units=1/GPa)
#
#
# Indices 1 2 3 4 5 6 
#
# 1 -0.004489 0.019933 -0.002171 -0.000002 -0.155268 0.000000
# 2 0.019933 -0.004489 -0.002171 0.000002 0.155268 0.000000
# 3 -0.002171 -0.002171 0.007260 0.000000 0.000000 0.000000
# 4 -0.000002 0.000002 0.000000 -0.914040 0.000000 0.310536
# 5 -0.155268 0.155268 0.000000 0.000000 -0.914040 -0.000004
# 6 0.000000 0.000000 0.000000 0.310536 -0.000004 -0.048844
#
#
# Mechanical properties :
#
#
# Convention : Reuss Voigt Hill
#
# Bulk Modulus (GPa) = 33.94114 41.81658 37.87886
# Shear Modulus (GPa) = -2.63158 17.00035 7.18439
#
# Velocity S-wave (km/s) = -1.14138 2.90102 1.88589
# Velocity P-wave (km/s) = 3.88141 5.64998 4.84705
#
# Compressibility (1/GPa) = 0.02946277
#
# Stress axis : x y z
#
# Youngs Moduli (GPa) = -222.76073 -222.76074 137.73835
#
# Poissons Ratio (x) = 4.44031 0.29908
# Poissons Ratio (y) = 4.44031 0.29908
# Poissons Ratio (z) = -0.48369 -0.48369
#
# Static dielectric constant tensor:
#      x y z
#    x 1.853790 0.000000 0.000000 
#    y 0.000000 1.853790 0.000000 
#    z 0.000000 0.000000 1.728170 
# 
# From -- ./inp_files/3951.got.cif
#   From: 2010.05.17/outbox.cif.g08.bks.cpg/sg162_2_cif.got.tgz:3951.got - 2010.05.20 10:53:12.
