data_PCOD9577929
_publ_section_title
;
Structure prediction by ZEFSAII (Michael W. Deem and Ramdas Pophale) SiO2 
 PCOD9577929
Probable space group: P -3 1 M 
;
_chemical_formula_sum "Si O2"
_cell_formula_units_Z 48
_cell_length_a 25.403069
_cell_length_b 25.403069
_cell_length_c 5.022884
_cell_angle_alpha 90.000000
_cell_angle_beta 90.000000
_cell_angle_gamma 120.000000
_cell_volume 2807.088829
_symmetry_space_group_name_H-M "P -3 1 M "
_symmetry_group_IT_number 162
_symmetry_cell_setting 'hexagonal'
loop_
_space_group_symop_operation_xyz
x,y,z
-y,x-y,z
-x+y,-x,z
-y,-x,-z
-x+y,y,-z
x,x-y,-z
-x,-y,-z
y,-x+y,-z
x-y,x,-z
y,x,z
x-y,-y,z
-x,-x+y,z
loop_
_atom_site_type_symbol
_atom_site_label
_atom_site_fract_x
_atom_site_fract_y
_atom_site_fract_z
Si Si1 0.234856 0.885601 0.052831
Si Si2 0.429749 0.929937 0.763624
Si Si3 0.682835 0.072317 0.449196
Si Si4 0.785966 0.929291 0.756921
O O1 0.283682 0.895464 0.278884
O O2 0.197951 0.917661 0.158879
O O3 0.184293 0.815708 0.000000
O O4 0.267921 0.915621 0.777393
O O5 0.465657 0.931314 0.500000
O O6 0.360608 0.904589 0.676293
O O7 0.453369 0.000000 0.849488
O O8 0.451064 0.902128 0.000000
O O9 0.641902 0.000000 0.503618
O O10 0.778889 0.889445 0.500000
O O11 0.829894 0.000000 0.706130
O O12 0.808001 0.904001 0.000000
#
# Coordination Sequence:
#
# PCOD9577929 Si02
#       4
#    12  12  12  12
#     4  11  22  34  48  72 101 131 167 207 250 297
#     4   9  17  29  45  68  96 126 161 196 228 265
#     4  11  20  32  51  71  97 134 170 203 241 290
#     4  11  22  37  56  75  97 125 162 210 261 318
#
# _framework density 17.099567
#
# number of rings (size 3 to 8) (size 9 to 14) (size 15 to 20)
#    0.000    1.500    0.000    8.250    0.000    4.000 
#    0.000    0.000    0.000    5.000    0.000    0.000 
#    0.000    0.000    0.000   63.000    0.000    0.250 
#
# Total GULP energy -267988.640642 kJ/mol
# GULP energy per Si atom -5583.096680 kJ/mol
# Density = 1.706065 g / cm^3
# Si number density = 17.099567 Si / 1000 Ang^3
#
#
#
# Elastic Constant Matrix: (Units=GPa)
#
#
# Indices 1 2 3 4 5 6 
#
# 1 49.4395 32.8115 13.7068 -0.0008 2.4198 0.0000
# 2 32.8115 49.4395 13.7068 0.0008 -2.4198 0.0000
# 3 13.7068 13.7068 86.1919 0.0000 0.0000 0.0000
# 4 -0.0008 0.0008 0.0000 27.9062 0.0000 -2.4198
# 5 2.4198 -2.4198 0.0000 0.0000 27.9062 -0.0008
# 6 0.0000 0.0000 0.0000 -2.4198 -0.0008 8.3140
#
#
#
# Elastic Compliance Matrix: (Units=1/GPa)
#
#
# Indices 1 2 3 4 5 6 
#
# 1 0.037267 -0.024429 -0.002042 0.000002 -0.005350 0.000000
# 2 -0.024429 0.037267 -0.002042 -0.000002 0.005350 0.000000
# 3 -0.002042 -0.002042 0.012251 0.000000 0.000000 0.000000
# 4 0.000002 -0.000002 0.000000 0.036762 0.000000 0.010700
# 5 -0.005350 0.005350 0.000000 0.000000 0.036762 0.000003
# 6 0.000000 0.000000 0.000000 0.010700 0.000003 0.123393
#
#
# Mechanical properties :
#
#
# Convention : Reuss Voigt Hill
#
# Bulk Modulus (GPa) = 33.60042 33.94679 33.77360
# Shear Modulus (GPa) = 14.25929 21.14833 17.70381
#
# Velocity S-wave (km/s) = 2.89086 3.52060 3.22116
# Velocity P-wave (km/s) = 5.55295 6.03504 5.79901
#
# Compressibility (1/GPa) = 0.02976154
#
# Stress axis : x y z
#
# Youngs Moduli (GPa) = 26.83310 26.83310 81.62352
#
# Poissons Ratio (x) = 0.65551 0.16665
# Poissons Ratio (y) = 0.65551 0.16665
# Poissons Ratio (z) = 0.05478 0.05478
#
# Static dielectric constant tensor:
#      x y z
#    x 1.575030 0.000000 0.000000 
#    y 0.000000 1.575030 0.000000 
#    z 0.000000 0.000000 1.599260 
# 
# From -- ./inp_files/470.got.cif
#   From: 2010.05.17/outbox.cif.g08.bks.cpg/sg162_1_cif.got.tgz:470.got - 2010.05.20 10:53:12.
