data_PCOD9577824
_publ_section_title
;
Structure prediction by ZEFSAII (Michael W. Deem and Ramdas Pophale) SiO2 
 PCOD9577824
Probable space group: P -3 1 M 
;
_chemical_formula_sum "Si O2"
_cell_formula_units_Z 58
_cell_length_a 14.460555
_cell_length_b 14.460555
_cell_length_c 16.910938
_cell_angle_alpha 90.000000
_cell_angle_beta 90.000000
_cell_angle_gamma 120.000000
_cell_volume 3062.444679
_symmetry_space_group_name_H-M "P -3 1 M "
_symmetry_group_IT_number 162
_symmetry_cell_setting 'hexagonal'
loop_
_space_group_symop_operation_xyz
x,y,z
-y,x-y,z
-x+y,-x,z
-y,-x,-z
-x+y,y,-z
x,x-y,-z
-x,-y,-z
y,-x+y,-z
x-y,x,-z
y,x,z
x-y,-y,z
-x,-x+y,z
loop_
_atom_site_type_symbol
_atom_site_label
_atom_site_fract_x
_atom_site_fract_y
_atom_site_fract_z
Si Si1 0.125091 0.563840 0.792459
Si Si2 0.225660 0.349250 0.242009
Si Si3 0.666667 0.333335 0.097927
Si Si4 0.126382 0.254276 0.085750
Si Si5 0.878270 0.296079 0.352674
Si Si6 0.736462 0.263539 0.500000
O O1 0.133494 0.464692 0.756943
O O2 0.214272 0.617697 0.861617
O O3 0.144333 0.640906 0.717442
O O4 0.000000 0.514500 0.818268
O O5 0.264212 0.264212 0.250163
O O6 0.175123 0.336715 0.155946
O O7 0.139115 0.331368 0.306596
O O8 0.666668 0.333334 0.000000
O O9 0.177373 0.177373 0.087847
O O10 0.000000 0.184457 0.094071
O O11 0.153978 0.307955 0.000000
O O12 0.791743 0.251966 0.422302
O O13 0.000000 0.370498 0.380376
O O14 0.781968 0.390984 0.500000
#
# Coordination Sequence:
#
# PCOD9577824 Si02
#       6
#    12  12   4  12  12   6
#     4  10  22  40  62  86 121 161 206 252 299 363
#     4  10  20  35  57  82 113 152 191 240 294 351
#     4  12  24  39  66  91 125 172 210 255 312 360
#     4   9  17  30  50  77 109 146 190 239 287 334
#     4  11  22  39  63  88 116 155 196 243 303 364
#     4  10  24  38  61  88 117 146 186 246 294 358
#
# _framework density 18.939118000000001
#
# number of rings (size 3 to 8) (size 9 to 14) (size 15 to 20)
#    0.207    1.655    2.069    2.069    0.000    3.310 
#    0.000    0.000    0.000    0.414    0.000    0.724 
#    0.000    0.000    0.000    0.000    0.000    0.207 
#
# Total GULP energy -323108.492115 kJ/mol
# GULP energy per Si atom -5570.836071 kJ/mol
# Density = 1.889601 g / cm^3
# Si number density = 18.939118 Si / 1000 Ang^3
#
#
#
# Elastic Constant Matrix: (Units=GPa)
#
#
# Indices 1 2 3 4 5 6 
#
# 1 58.2096 26.6708 55.5919 0.0001 3.9603 -0.0001
# 2 26.6708 58.2094 55.5920 0.0001 -3.9602 0.0000
# 3 55.5919 55.5920 116.8434 0.0000 0.0000 0.0002
# 4 0.0001 0.0001 0.0000 7.7553 -0.0001 -3.9603
# 5 3.9603 -3.9602 0.0000 -0.0001 7.7554 -0.0001
# 6 -0.0001 0.0000 0.0002 -3.9603 -0.0001 15.7694
#
#
#
# Elastic Compliance Matrix: (Units=1/GPa)
#
#
# Indices 1 2 3 4 5 6 
#
# 1 0.033820 -0.002551 -0.014877 0.000000 -0.018573 0.000000
# 2 -0.002551 0.033820 -0.014877 0.000000 0.018573 0.000000
# 3 -0.014877 -0.014877 0.022715 0.000000 0.000000 0.000000
# 4 0.000000 0.000000 0.000000 0.147913 0.000002 0.037146
# 5 -0.018573 0.018573 0.000000 0.000002 0.147910 0.000001
# 6 0.000000 0.000000 0.000000 0.037146 0.000001 0.072743
#
#
# Mechanical properties :
#
#
# Convention : Reuss Voigt Hill
#
# Bulk Modulus (GPa) = 38.84410 56.55241 47.69826
# Shear Modulus (GPa) = 9.39651 12.61654 11.00653
#
# Velocity S-wave (km/s) = 2.22984 2.58381 2.41333
# Velocity P-wave (km/s) = 5.21384 6.23108 5.74502
#
# Compressibility (1/GPa) = 0.02574394
#
# Stress axis : x y z
#
# Youngs Moduli (GPa) = 29.56849 29.56818 44.02405
#
# Poissons Ratio (x) = 0.07544 0.65494
# Poissons Ratio (y) = 0.07544 0.65495
# Poissons Ratio (z) = 0.43989 0.43989
#
# Static dielectric constant tensor:
#      x y z
#    x 1.691940 0.000000 0.000000 
#    y 0.000000 1.691940 0.000000 
#    z 0.000000 0.000000 1.721930 
# 
# From -- ./inp_files/2968.got.cif
#   From: 2010.05.17/outbox.cif.g08.bks.cpg/sg162_2_cif.got.tgz:2968.got - 2010.05.20 10:53:12.
