data_PCOD9577044
_publ_section_title
;
Structure prediction by ZEFSAII (Michael W. Deem and Ramdas Pophale) SiO2 
 PCOD9577044
Probable space group: R 3 2
;
_chemical_formula_sum "Si O2"
_cell_formula_units_Z 108
_cell_length_a 19.220199
_cell_length_b 19.220199
_cell_length_c 15.082052
_cell_angle_alpha 90.000000
_cell_angle_beta 90.000000
_cell_angle_gamma 120.000000
_cell_volume 4825.105631
_symmetry_space_group_name_H-M "R 3 2"
_symmetry_group_IT_number 155
_symmetry_cell_setting 'hexagonal'
loop_
_space_group_symop_operation_xyz
x,y,z
-y,x-y,z
-x+y,-x,z
x-y,-y,-z
-x,-x+y,-z
y,x,-z
2/3+x,1/3+y,1/3+z
2/3-y,1/3+x-y,1/3+z
2/3-x+y,1/3-x,1/3+z
2/3+x-y,1/3-y,1/3-z
2/3-x,1/3-x+y,1/3-z
2/3+y,1/3+x,1/3-z
1/3+x,2/3+y,2/3+z
1/3-y,2/3+x-y,2/3+z
1/3-x+y,2/3-x,2/3+z
1/3+x-y,2/3-y,2/3-z
1/3-x,2/3-x+y,2/3-z
1/3+y,2/3+x,2/3-z
loop_
_atom_site_type_symbol
_atom_site_label
_atom_site_fract_x
_atom_site_fract_y
_atom_site_fract_z
Si Si1 0.679440 0.211173 0.616920
Si Si2 0.913291 0.310856 0.032718
Si Si3 0.603744 0.971028 0.404735
Si Si4 0.834305 0.860168 0.144937
Si Si5 0.332190 0.795282 0.064893
Si Si6 0.886922 0.137080 0.032054
O O1 0.644422 0.117936 0.594756
O O2 0.542578 0.277273 0.530912
O O3 0.612827 0.223822 0.667215
O O4 0.749898 0.245119 0.691100
O O5 0.882498 0.341176 0.114880
O O6 0.852942 0.295495 0.951200
O O7 0.913069 0.229228 0.054232
O O8 0.000000 0.375800 0.000000
O O9 0.644570 0.000000 0.500000
O O10 0.666667 0.975617 0.333334
O O11 0.577533 0.036450 0.379375
O O12 0.779449 0.865577 0.067919
O O13 0.886077 0.826269 0.095402
O O14 0.333334 0.774675 0.166667
#
# Coordination Sequence:
#
# PCOD9577044 Si02
#       6
#    18  18  18  18  18  18
#     4  11  25  47  69 104 146 195 245 310 370 450
#     4  11  22  36  66 103 141 182 236 311 371 434
#     4  12  27  47  74 106 149 200 253 316 392 463
#     4  10  23  41  70 106 143 188 248 307 374 447
#     4  11  25  43  71 103 146 196 240 298 374 452
#     4  11  22  42  71 100 143 192 245 313 374 447
#
# _framework density 22.382930000000002
#
# number of rings (size 3 to 8) (size 9 to 14) (size 15 to 20)
#    0.000    1.000    3.333    3.333    4.667    4.000 
#    0.000    0.000    0.000    0.000    4.333    0.000 
#    0.000    0.000    0.000    0.000    0.000    0.000 
#
# Total GULP energy -201230.993415 kJ/mol
# GULP energy per Si atom -5589.749817 kJ/mol
# Density = 2.233199 g / cm^3
# Si number density = 22.382930 Si / 1000 Ang^3
#
#
#
# Elastic Constant Matrix: (Units=GPa)
#
#
# Indices 1 2 3 4 5 6 
#
# 1 90.6328 29.7278 53.0764 -5.5473 0.0002 0.0000
# 2 29.7278 90.6328 53.0764 5.5473 -0.0002 0.0000
# 3 53.0764 53.0764 163.3212 0.0000 0.0000 0.0000
# 4 -5.5473 5.5473 0.0000 35.4496 0.0000 -0.0002
# 5 0.0002 -0.0002 0.0000 0.0000 35.4496 -5.5473
# 6 0.0000 0.0000 0.0000 -0.0002 -5.5473 30.4525
#
#
#
# Elastic Compliance Matrix: (Units=1/GPa)
#
#
# Indices 1 2 3 4 5 6 
#
# 1 0.014274 -0.002627 -0.003785 0.002645 0.000000 0.000000
# 2 -0.002627 0.014274 -0.003785 -0.002645 0.000000 0.000000
# 3 -0.003785 -0.003785 0.008583 0.000000 0.000000 0.000000
# 4 0.002645 -0.002645 0.000000 0.029037 0.000000 0.000000
# 5 0.000000 0.000000 0.000000 0.000000 0.029037 0.005289
# 6 0.000000 0.000000 0.000000 0.000000 0.005289 0.033802
#
#
# Mechanical properties :
#
#
# Convention : Reuss Voigt Hill
#
# Bulk Modulus (GPa) = 59.75026 68.48310 64.11668
# Shear Modulus (GPa) = 32.26267 34.18409 33.22338
#
# Velocity S-wave (km/s) = 3.80069 3.91223 3.85686
# Velocity P-wave (km/s) = 6.78328 7.14632 6.96717
#
# Compressibility (1/GPa) = 0.01673633
#
# Stress axis : x y z
#
# Youngs Moduli (GPa) = 70.05935 70.05935 116.51024
#
# Poissons Ratio (x) = 0.18406 0.44098
# Poissons Ratio (y) = 0.18406 0.44098
# Poissons Ratio (z) = 0.26517 0.26517
#
# Static dielectric constant tensor:
#      x y z
#    x 1.846940 0.000000 0.000000 
#    y 0.000000 1.846940 0.000000 
#    z 0.000000 0.000000 1.844170 
# 
# From -- ./inp_files/5151.got.cif
#   From: 2010.05.17/outbox.cif.g08.bks.cpg/sg155_3_cif.got.tgz:5151.got - 2010.05.20 10:44:35.
