data_PCOD9577375
_publ_section_title
;
Structure prediction by ZEFSAII (Michael W. Deem and Ramdas Pophale) SiO2 
 PCOD9577375
Probable space group: P 3 1 C
;
_chemical_formula_sum "Si O2"
_cell_formula_units_Z 34
_cell_length_a 14.204861
_cell_length_b 14.204861
_cell_length_c 9.012636
_cell_angle_alpha 90.000000
_cell_angle_beta 90.000000
_cell_angle_gamma 120.000000
_cell_volume 1574.912535
_symmetry_space_group_name_H-M "P 3 1 C"
_symmetry_group_IT_number 159
_symmetry_cell_setting 'hexagonal'
loop_
_space_group_symop_operation_xyz
x,y,z
-y,x-y,z
-x+y,-x,z
y,x,1/2+z
x-y,-y,1/2+z
-x,-x+y,1/2+z
loop_
_atom_site_type_symbol
_atom_site_label
_atom_site_fract_x
_atom_site_fract_y
_atom_site_fract_z
Si Si1 0.846330 0.779737 0.817110
Si Si2 0.666668 0.333335 0.845892
Si Si3 0.818609 0.146602 0.307349
Si Si4 0.387737 0.891173 0.716532
Si Si5 0.777723 0.994797 0.060764
Si Si6 0.333335 0.666668 0.704390
Si Si7 0.108595 0.463283 0.362401
O O1 0.783909 0.847222 0.813225
O O2 0.916296 0.796602 0.669628
O O3 0.751920 0.653261 0.830301
O O4 0.926828 0.805512 0.955674
O O5 0.559736 0.222335 0.803138
O O6 0.666668 0.333334 0.025876
O O7 0.850686 0.269836 0.289698
O O8 0.759351 0.081589 0.454292
O O9 0.757644 0.074774 0.164821
O O10 0.408012 0.791891 0.749268
O O11 0.374245 0.898717 0.539764
O O12 0.465386 0.008153 0.784387
#
# Coordination Sequence:
#
# PCOD9577375 Si02
#       7
#     6   2   6   6   6   2   6
#     4  10  20  36  54  78 122 160 209 248 323 354
#     4   9  21  45  67 101 121 159 211 248 304 384
#     4  10  20  36  54  78 122 160 209 248 323 354
#     4  10  21  41  68  88 125 164 199 256 316 369
#     4  10  20  34  50  84 110 164 206 266 290 382
#     4   9  21  45  67 101 121 159 211 248 304 384
#     4  10  21  41  68  88 125 164 199 256 316 369
#
# _framework density 21.5885
#
# number of rings (size 3 to 8) (size 9 to 14) (size 15 to 20)
#    0.000    2.118    1.765    1.059    7.412    0.000 
#   27.529    1.765    0.000    0.000    0.000    0.000 
#    0.000    0.000    0.000    0.000    0.000    0.000 
#
# Total GULP energy -189920.465043 kJ/mol
# GULP energy per Si atom -5585.896031 kJ/mol
# Density = 2.153936 g / cm^3
# Si number density = 21.588500 Si / 1000 Ang^3
#
#
#
# Elastic Constant Matrix: (Units=GPa)
#
#
# Indices 1 2 3 4 5 6 
#
# 1 91.3274 42.1668 17.2441 0.0000 5.4731 0.0007
# 2 42.1668 91.3272 17.2443 -0.0003 -5.4733 -0.0008
# 3 17.2441 17.2443 79.3131 0.0001 0.0000 0.0002
# 4 0.0000 -0.0003 0.0001 13.7050 0.0005 -5.4734
# 5 5.4731 -5.4733 0.0000 0.0005 13.7045 -0.0001
# 6 0.0007 -0.0008 0.0002 -5.4734 -0.0001 24.5794
#
#
#
# Elastic Compliance Matrix: (Units=1/GPa)
#
#
# Indices 1 2 3 4 5 6 
#
# 1 0.015132 -0.007195 -0.001726 0.000000 -0.008917 -0.000001
# 2 -0.007195 0.015132 -0.001726 0.000000 0.008917 0.000001
# 3 -0.001726 -0.001726 0.013359 0.000000 0.000000 0.000000
# 4 0.000000 0.000000 0.000000 0.080088 -0.000002 0.017834
# 5 -0.008917 0.008917 0.000000 -0.000002 0.080091 0.000000
# 6 -0.000001 0.000001 0.000000 0.017834 0.000000 0.044656
#
#
# Mechanical properties :
#
#
# Convention : Reuss Voigt Hill
#
# Bulk Modulus (GPa) = 44.78331 46.14201 45.46266
# Shear Modulus (GPa) = 18.03792 22.75194 20.39493
#
# Velocity S-wave (km/s) = 2.89370 3.24989 3.07695
# Velocity P-wave (km/s) = 5.65276 5.95837 5.80758
#
# Compressibility (1/GPa) = 0.02232975
#
# Stress axis : x y z
#
# Youngs Moduli (GPa) = 66.08565 66.08531 74.85798
#
# Poissons Ratio (x) = 0.47549 0.12917
# Poissons Ratio (y) = 0.47550 0.12918
# Poissons Ratio (z) = 0.11404 0.11404
#
# Static dielectric constant tensor:
#      x y z
#    x 1.790190 0.000000 0.000000 
#    y 0.000000 1.790190 0.000000 
#    z 0.000000 0.000000 1.787070 
# 
# From -- ./inp_files/395.got.cif
#   From: 2010.05.17/outbox.cif.g08.bks.cpg/sg159_cif.got.tgz:395.got - 2010.05.20 10:50:30.
