data_PCOD9577999
_publ_section_title
;
Structure prediction by ZEFSAII (Michael W. Deem and Ramdas Pophale) SiO2 
 PCOD9577999
Probable space group: P -3 1 C
;
_chemical_formula_sum "Si O2"
_cell_formula_units_Z 76
_cell_length_a 18.842956
_cell_length_b 18.842956
_cell_length_c 13.199787
_cell_angle_alpha 90.000000
_cell_angle_beta 90.000000
_cell_angle_gamma 120.000000
_cell_volume 4058.781040
_symmetry_space_group_name_H-M "P -3 1 C"
_symmetry_group_IT_number 163
_symmetry_cell_setting 'hexagonal'
loop_
_space_group_symop_operation_xyz
x,y,z
-y,x-y,z
-x+y,-x,z
-y,-x,1/2-z
-x+y,y,1/2-z
x,x-y,1/2-z
-x,-y,-z
y,-x+y,-z
x-y,x,-z
y,x,1/2+z
x-y,-y,1/2+z
-x,-x+y,1/2+z
loop_
_atom_site_type_symbol
_atom_site_label
_atom_site_fract_x
_atom_site_fract_y
_atom_site_fract_z
Si Si1 0.930316 0.119205 0.355064
Si Si2 0.741193 0.697062 0.817555
Si Si3 0.856426 0.181238 0.994737
Si Si4 0.659228 0.030211 0.369331
Si Si5 0.170420 0.663742 0.730551
Si Si6 0.000000 0.000000 0.381719
Si Si7 0.411829 0.078869 0.454419
O O1 0.883846 0.116155 0.250000
O O2 0.883252 0.118591 0.457291
O O3 0.009439 0.207366 0.341376
O O4 0.951468 0.047065 0.353294
O O5 0.706741 0.679977 0.703862
O O6 0.658539 0.670119 0.881583
O O7 0.790212 0.661361 0.877690
O O8 0.760915 0.138874 0.015318
O O9 0.912110 0.261291 0.062664
O O10 0.587530 0.970215 0.446379
O O11 0.644513 0.093263 0.303104
O O12 0.242853 0.757148 0.750000
O O13 0.202510 0.601255 0.750000
O O14 0.133548 0.645428 0.616953
O O15 0.000000 0.000000 0.500000
#
# Coordination Sequence:
#
# PCOD9577999 Si02
#       7
#    12  12  12  12  12   4  12
#     4  11  20  33  46  61  96 146 200 253 307 343
#     4   9  19  31  52  76 103 145 195 236 288 341
#     4  10  18  34  54  77 105 150 194 239 289 349
#     4  10  19  36  57  83 119 149 185 239 288 341
#     4  11  22  39  65  91 123 153 186 232 286 351
#     4  12  25  35  37  54  94 140 202 271 308 337
#     4   9  20  34  57  85 113 152 187 230 292 339
#
# _framework density 18.724833
#
# number of rings (size 3 to 8) (size 9 to 14) (size 15 to 20)
#    0.000    1.895    3.158    1.579    0.000    3.789 
#    2.842    0.000    0.000    0.000    0.000    0.000 
#    0.000    0.000    0.000    0.000    0.000    0.000 
#
# Total GULP energy -423086.986581 kJ/mol
# GULP energy per Si atom -5566.934034 kJ/mol
# Density = 1.868221 g / cm^3
# Si number density = 18.724833 Si / 1000 Ang^3
#
#
#
# Elastic Constant Matrix: (Units=GPa)
#
#
# Indices 1 2 3 4 5 6 
#
# 1 22.1439 30.4689 19.9577 0.0004 9.5151 0.0000
# 2 30.4689 22.1439 19.9577 -0.0004 -9.5151 0.0000
# 3 19.9577 19.9577 97.1182 0.0000 0.0000 0.0000
# 4 0.0004 -0.0004 0.0000 13.5294 0.0000 -9.5151
# 5 9.5151 -9.5151 0.0000 0.0000 13.5294 0.0004
# 6 0.0000 0.0000 0.0000 -9.5151 0.0004 -4.1625
#
#
#
# Elastic Compliance Matrix: (Units=1/GPa)
#
#
# Indices 1 2 3 4 5 6 
#
# 1 -0.011774 0.034291 -0.004627 0.000001 0.032397 0.000000
# 2 0.034291 -0.011774 -0.004627 -0.000001 -0.032397 0.000000
# 3 -0.004627 -0.004627 0.012199 0.000000 0.000000 0.000000
# 4 0.000001 -0.000001 0.000000 0.028345 0.000000 -0.064793
# 5 0.032397 -0.032397 0.000000 0.000000 0.028345 0.000002
# 6 0.000000 0.000000 0.000000 -0.064793 0.000002 -0.092129
#
#
# Mechanical properties :
#
#
# Convention : Reuss Voigt Hill
#
# Bulk Modulus (GPa) = 25.82373 31.35274 28.58824
# Shear Modulus (GPa) = -59.55736 9.31403 -25.12166
#
# Velocity S-wave (km/s) = -5.64585 2.23270 -3.66679
# Velocity P-wave (km/s) = 5.35535 4.84013 1.62063
#
# Compressibility (1/GPa) = 0.03872407
#
# Stress axis : x y z
#
# Youngs Moduli (GPa) = -84.93643 -84.93643 81.97694
#
# Poissons Ratio (x) = 2.91255 0.37933
# Poissons Ratio (y) = 2.91255 0.37933
# Poissons Ratio (z) = -0.39303 -0.39303
#
# Static dielectric constant tensor:
#      x y z
#    x 1.656360 0.000000 0.000000 
#    y 0.000000 1.656360 0.000000 
#    z 0.000000 0.000000 1.720050 
# 
# From -- ./inp_files/2618.got.cif
#   From: 2010.05.17/outbox.cif.g08.bks.cpg/sg163_2_cif.got.tgz:2618.got - 2010.05.20 10:56:03.
