data_PCOD9577271
_publ_section_title
;
Structure prediction by ZEFSAII (Michael W. Deem and Ramdas Pophale) SiO2 
 PCOD9577271
Probable space group: P 3 1 M
;
_chemical_formula_sum "Si O2"
_cell_formula_units_Z 24
_cell_length_a 15.973467
_cell_length_b 15.973467
_cell_length_c 4.794817
_cell_angle_alpha 90.000000
_cell_angle_beta 90.000000
_cell_angle_gamma 120.000000
_cell_volume 1059.500207
_symmetry_space_group_name_H-M "P 3 1 M"
_symmetry_group_IT_number 157
_symmetry_cell_setting 'hexagonal'
loop_
_space_group_symop_operation_xyz
x,y,z
-y,x-y,z
-x+y,-x,z
y,x,z
x-y,-y,z
-x,-x+y,z
loop_
_atom_site_type_symbol
_atom_site_label
_atom_site_fract_x
_atom_site_fract_y
_atom_site_fract_z
Si Si1 0.819057 0.637145 0.543110
Si Si2 0.392096 0.890633 0.763768
Si Si3 0.491311 0.382775 0.231139
Si Si4 0.776358 0.888061 0.043625
O O1 0.719379 0.565624 0.697993
O O2 0.848757 0.568781 0.376148
O O3 0.883761 0.707243 0.791527
O O4 0.824435 0.709160 0.299990
O O5 0.442785 0.896461 0.473063
O O6 0.587135 0.000000 0.136089
O O7 0.434179 0.842448 0.976700
O O8 0.568654 0.568654 0.871420
O O9 0.841688 0.841688 0.953188
O O10 0.842415 0.000000 0.130588
#
# Coordination Sequence:
#
# PCOD9577271 Si02
#       4
#     6   6   6   6
#     4  12  24  42  69 100 130 184 235 284 338 424
#     4  10  21  39  63  92 128 171 218 275 340 403
#     4  10  21  39  63  92 128 171 218 275 340 403
#     4  12  25  42  66 100 144 188 236 288 339 402
#
# _framework density 22.652190000000001
#
# number of rings (size 3 to 8) (size 9 to 14) (size 15 to 20)
#    0.000    1.000    0.000    7.750    0.000    4.000 
#    1.500    2.500    5.500    0.000    0.000    0.000 
#    0.000    0.000    0.000    0.000    0.000    0.000 
#
# Total GULP energy -134038.067682 kJ/mol
# GULP energy per Si atom -5584.919487 kJ/mol
# Density = 2.260063 g / cm^3
# Si number density = 22.652190 Si / 1000 Ang^3
#
#
#
# Elastic Constant Matrix: (Units=GPa)
#
#
# Indices 1 2 3 4 5 6 
#
# 1 78.4629 46.0940 7.2090 0.0000 -13.8511 0.0000
# 2 46.0940 78.4629 7.2090 0.0000 13.8511 0.0000
# 3 7.2090 7.2090 109.2417 0.0000 0.0000 0.0000
# 4 0.0000 0.0000 0.0000 25.0590 0.0000 13.8511
# 5 -13.8511 13.8511 0.0000 0.0000 25.0590 0.0000
# 6 0.0000 0.0000 0.0000 13.8511 0.0000 16.1845
#
#
#
# Elastic Compliance Matrix: (Units=1/GPa)
#
#
# Indices 1 2 3 4 5 6 
#
# 1 0.033359 -0.025269 -0.000534 0.000000 0.032406 0.000000
# 2 -0.025269 0.033359 -0.000534 0.000000 -0.032406 0.000000
# 3 -0.000534 -0.000534 0.009224 0.000000 0.000000 0.000000
# 4 0.000000 0.000000 0.000000 0.075730 0.000000 -0.064812
# 5 0.032406 -0.032406 0.000000 0.000000 0.075730 0.000000
# 6 0.000000 0.000000 0.000000 -0.064812 0.000000 0.117256
#
#
# Mechanical properties :
#
#
# Convention : Reuss Voigt Hill
#
# Bulk Modulus (GPa) = 42.97480 43.02127 42.99803
# Shear Modulus (GPa) = 12.34298 26.97087 19.65692
#
# Velocity S-wave (km/s) = 2.33682 3.45433 2.94899
# Velocity P-wave (km/s) = 5.12774 5.91127 5.53339
#
# Compressibility (1/GPa) = 0.02326945
#
# Stress axis : x y z
#
# Youngs Moduli (GPa) = 29.97684 29.97684 108.40727
#
# Poissons Ratio (x) = 0.75748 0.05788
# Poissons Ratio (y) = 0.75748 0.05788
# Poissons Ratio (z) = 0.01600 0.01600
#
# Static dielectric constant tensor:
#      x y z
#    x 1.883670 0.000000 0.000000 
#    y 0.000000 1.883670 0.000000 
#    z 0.000000 0.000000 1.853720 
# 
# From -- ./inp_files/74.got.cif
#   From: 2010.05.17/outbox.cif.g08.bks.cpg/sg157_cif.got.tgz:74.got - 2010.05.20 10:49:36.
