data_PCOD9577331
_publ_section_title
;
Structure prediction by ZEFSAII (Michael W. Deem and Ramdas Pophale) SiO2 
 PCOD9577331
Probable space group: P 3 C 1
;
_chemical_formula_sum "Si O2"
_cell_formula_units_Z 42
_cell_length_a 11.797626
_cell_length_b 11.797626
_cell_length_c 17.747820
_cell_angle_alpha 90.000000
_cell_angle_beta 90.000000
_cell_angle_gamma 120.000000
_cell_volume 2139.266527
_symmetry_space_group_name_H-M "P 3 C 1"
_symmetry_group_IT_number 158
_symmetry_cell_setting 'hexagonal'
loop_
_space_group_symop_operation_xyz
x,y,z
-y,x-y,z
-x+y,-x,z
-x+y,y,1/2+z
x,x-y,1/2+z
-y,-x,1/2+z
loop_
_atom_site_type_symbol
_atom_site_label
_atom_site_fract_x
_atom_site_fract_y
_atom_site_fract_z
Si Si1 0.049944 0.765955 0.670220
Si Si2 0.198272 0.505315 0.046782
Si Si3 0.665259 0.597990 0.312519
Si Si4 0.269458 0.042600 0.633274
Si Si5 0.932731 0.597990 0.281044
Si Si6 0.049944 0.765955 0.423343
Si Si7 0.957400 0.730542 0.960289
O O1 0.125721 0.711995 0.618689
O O2 0.030407 0.711222 0.755070
O O3 0.904944 0.722997 0.640722
O O4 0.130830 0.922449 0.660330
O O5 0.355129 0.557873 0.046782
O O6 0.125721 0.413726 0.974875
O O7 0.790611 0.581221 0.296782
O O8 0.533106 0.466894 0.296782
O O9 0.670543 0.633090 0.399957
O O10 0.366910 0.037453 0.693606
O O11 0.289589 0.021884 0.546782
O O12 0.030407 0.711222 0.338493
O O13 0.904944 0.722997 0.452841
O O14 0.130830 0.922449 0.433233
#
# Coordination Sequence:
#
# PCOD9577331 Si02
#       7
#     6   6   6   6   6   6   6
#     4  11  22  41  65  97 129 172 217 272 334 379
#     4  10  24  38  62 100 136 170 206 268 320 396
#     4  10  24  41  63  88 127 170 215 268 331 398
#     4  11  21  39  66  95 125 163 220 274 324 382
#     4  10  24  41  63  88 127 170 215 268 331 398
#     4  11  22  41  65  97 129 172 217 272 334 379
#     4  11  21  39  66  95 125 163 220 274 324 382
#
# _framework density 19.632897
#
# number of rings (size 3 to 8) (size 9 to 14) (size 15 to 20)
#    0.286    1.143    2.857    1.714    4.000    0.000 
#    0.000    2.857    0.000    0.000    0.000    0.000 
#    0.000    0.000    0.000    0.000    0.000    0.000 
#
# Total GULP energy -234354.001553 kJ/mol
# GULP energy per Si atom -5579.857180 kJ/mol
# Density = 1.958821 g / cm^3
# Si number density = 19.632897 Si / 1000 Ang^3
#
#
#
# Elastic Constant Matrix: (Units=GPa)
#
#
# Indices 1 2 3 4 5 6 
#
# 1 95.2830 51.4354 62.2249 0.0000 0.0000 0.0000
# 2 51.4354 95.2830 62.2249 0.0000 0.0000 0.0000
# 3 62.2249 62.2249 141.6093 0.0000 0.0000 0.0000
# 4 0.0000 0.0000 0.0000 3.6701 0.0000 0.0000
# 5 0.0000 0.0000 0.0000 0.0000 3.6701 0.0000
# 6 0.0000 0.0000 0.0000 0.0000 0.0000 21.9238
#
#
#
# Elastic Compliance Matrix: (Units=1/GPa)
#
#
# Indices 1 2 3 4 5 6 
#
# 1 0.016836 -0.005970 -0.004774 0.000000 0.000000 0.000000
# 2 -0.005970 0.016836 -0.004774 0.000000 0.000000 0.000000
# 3 -0.004774 -0.004774 0.011258 0.000000 0.000000 0.000000
# 4 0.000000 0.000000 0.000000 0.272472 0.000000 0.000000
# 5 0.000000 0.000000 0.000000 0.000000 0.272472 0.000000
# 6 0.000000 0.000000 0.000000 0.000000 0.000000 0.045613
#
#
# Mechanical properties :
#
#
# Convention : Reuss Voigt Hill
#
# Bulk Modulus (GPa) = 71.98960 75.99394 73.99177
# Shear Modulus (GPa) = 7.44985 16.27214 11.86100
#
# Velocity S-wave (km/s) = 1.95008 2.88205 2.46059
# Velocity P-wave (km/s) = 6.46667 7.06161 6.77068
#
# Compressibility (1/GPa) = 0.01389090
#
# Stress axis : x y z
#
# Youngs Moduli (GPa) = 59.39674 59.39674 88.82876
#
# Poissons Ratio (x) = 0.35462 0.42411
# Poissons Ratio (y) = 0.35462 0.42411
# Poissons Ratio (z) = 0.28359 0.28359
#
# Static dielectric constant tensor:
#      x y z
#    x 1.682470 0.000000 0.000000 
#    y 0.000000 1.682470 0.000000 
#    z 0.000000 0.000000 1.697140 
# 
# From -- ./inp_files/660.got.cif
#   From: 2010.05.17/outbox.cif.g08.bks.cpg/sg158_cif.got.tgz:660.got - 2010.05.20 10:49:59.
