data_PCOD9577944
_publ_section_title
;
Structure prediction by ZEFSAII (Michael W. Deem and Ramdas Pophale) SiO2 
 PCOD9577944
Probable space group: P -3 1 M 
;
_chemical_formula_sum "Si O2"
_cell_formula_units_Z 60
_cell_length_a 18.199455
_cell_length_b 18.199455
_cell_length_c 12.543720
_cell_angle_alpha 90.000000
_cell_angle_beta 90.000000
_cell_angle_gamma 120.000000
_cell_volume 3598.104302
_symmetry_space_group_name_H-M "P -3 1 M "
_symmetry_group_IT_number 162
_symmetry_cell_setting 'hexagonal'
loop_
_space_group_symop_operation_xyz
x,y,z
-y,x-y,z
-x+y,-x,z
-y,-x,-z
-x+y,y,-z
x,x-y,-z
-x,-y,-z
y,-x+y,-z
x-y,x,-z
y,x,z
x-y,-y,z
-x,-x+y,z
loop_
_atom_site_type_symbol
_atom_site_label
_atom_site_fract_x
_atom_site_fract_y
_atom_site_fract_z
Si Si1 0.902387 0.804774 0.870386
Si Si2 0.897440 0.362063 0.265109
Si Si3 0.540069 0.901804 0.499999
Si Si4 0.637935 0.535375 0.734893
Si Si5 0.393371 0.196686 0.127683
O O1 0.852940 0.852940 0.834241
O O2 0.853054 0.706111 0.840969
O O3 0.000000 0.852937 0.834241
O O4 0.903792 0.807585 0.000000
O O5 0.866939 0.323395 0.384256
O O6 0.879006 0.439502 0.251181
O O7 0.853356 0.290125 0.177547
O O8 0.000000 0.405598 0.261282
O O9 0.451131 0.902261 0.500000
O O10 0.543543 0.866939 0.384254
O O11 0.613042 0.000000 0.499999
O O12 0.594399 0.594399 0.738719
O O13 0.709872 0.563229 0.822455
O O14 0.398900 0.199450 0.000000
#
# Coordination Sequence:
#
# PCOD9577944 Si02
#       5
#    12  12  12  12  12
#     4   9  17  30  48  69  95 128 167 211 254 291
#     4   9  18  34  54  73  96 128 164 204 254 302
#     4   7  12  27  52  76  93 115 155 207 256 300
#     4   9  18  34  54  73  96 128 164 204 254 302
#     4  11  22  32  45  72 105 137 171 206 238 290
#
# _framework density 16.675446999999998
#
# number of rings (size 3 to 8) (size 9 to 14) (size 15 to 20)
#    0.000    3.000    0.000    3.800    0.000    4.800 
#    1.200    2.000    0.000    0.000    0.000    0.000 
#    0.000    0.000    0.000   15.200    0.000    4.800 
#
# Total GULP energy -334009.782458 kJ/mol
# GULP energy per Si atom -5566.829708 kJ/mol
# Density = 1.663749 g / cm^3
# Si number density = 16.675447 Si / 1000 Ang^3
#
#
#
# Elastic Constant Matrix: (Units=GPa)
#
#
# Indices 1 2 3 4 5 6 
#
# 1 82.7358 68.0862 53.9246 0.0000 0.0002 0.0000
# 2 68.0862 82.7358 53.9246 0.0000 -0.0002 0.0000
# 3 53.9246 53.9246 105.1080 0.0000 0.0000 0.0000
# 4 0.0000 0.0000 0.0000 21.9993 0.0000 -0.0002
# 5 0.0002 -0.0002 0.0000 0.0000 21.9993 0.0000
# 6 0.0000 0.0000 0.0000 -0.0002 0.0000 7.3248
#
#
#
# Elastic Compliance Matrix: (Units=1/GPa)
#
#
# Indices 1 2 3 4 5 6 
#
# 1 0.039367 -0.028894 -0.005373 0.000000 -0.000001 0.000000
# 2 -0.028894 0.039367 -0.005373 0.000000 0.000001 0.000000
# 3 -0.005373 -0.005373 0.015027 0.000000 0.000000 0.000000
# 4 0.000000 0.000000 0.000000 0.045456 0.000000 0.000001
# 5 -0.000001 0.000001 0.000000 0.000000 0.045456 0.000000
# 6 0.000000 0.000000 0.000000 0.000001 0.000000 0.136522
#
#
# Mechanical properties :
#
#
# Convention : Reuss Voigt Hill
#
# Bulk Modulus (GPa) = 69.05809 69.16117 69.10963
# Shear Modulus (GPa) = 12.33653 16.57430 14.45541
#
# Velocity S-wave (km/s) = 2.72288 3.15609 2.94746
# Velocity P-wave (km/s) = 7.16857 7.40582 7.28816
#
# Compressibility (1/GPa) = 0.01448056
#
# Stress axis : x y z
#
# Youngs Moduli (GPa) = 25.40223 25.40223 66.54775
#
# Poissons Ratio (x) = 0.73398 0.35754
# Poissons Ratio (y) = 0.73398 0.35754
# Poissons Ratio (z) = 0.13648 0.13648
#
# Static dielectric constant tensor:
#      x y z
#    x 1.554560 0.000000 0.000000 
#    y 0.000000 1.554560 0.000000 
#    z 0.000000 0.000000 1.582160 
# 
# From -- ./inp_files/2325.got.cif
#   From: 2010.05.17/outbox.cif.g08.bks.cpg/sg162_2_cif.got.tgz:2325.got - 2010.05.20 10:53:12.
