data_PCOD9577574
_publ_section_title
;
Structure prediction by ZEFSAII (Michael W. Deem and Ramdas Pophale) SiO2 
 PCOD9577574
Probable space group: R 3 C
;
_chemical_formula_sum "Si O2"
_cell_formula_units_Z 108
_cell_length_a 16.036627
_cell_length_b 16.036627
_cell_length_c 21.469574
_cell_angle_alpha 90.000000
_cell_angle_beta 90.000000
_cell_angle_gamma 120.000000
_cell_volume 4781.675662
_symmetry_space_group_name_H-M "R 3 C"
_symmetry_group_IT_number 161
_symmetry_cell_setting 'hexagonal'
loop_
_space_group_symop_operation_xyz
x,y,z
-y,x-y,z
-x+y,-x,z
-x+y,y,1/2+z
x,x-y,1/2+z
-y,-x,1/2+z
2/3+x,1/3+y,1/3+z
2/3-y,1/3+x-y,1/3+z
2/3-x+y,1/3-x,1/3+z
2/3-x+y,1/3+y,5/6+z
2/3+x,1/3+x-y,5/6+z
2/3-y,1/3-x,5/6+z
1/3+x,2/3+y,2/3+z
1/3-y,2/3+x-y,2/3+z
1/3-x+y,2/3-x,2/3+z
1/3-x+y,2/3+y,1/6+z
1/3+x,2/3+x-y,1/6+z
1/3-y,2/3-x,1/6+z
loop_
_atom_site_type_symbol
_atom_site_label
_atom_site_fract_x
_atom_site_fract_y
_atom_site_fract_z
Si Si1 0.362974 0.328043 0.830238
Si Si2 0.103024 0.587973 0.646474
Si Si3 0.888885 0.895795 0.598971
Si Si4 0.474223 0.910004 0.877430
Si Si5 0.988913 0.314550 0.191074
Si Si6 0.769933 0.197134 0.178103
O O1 0.392335 0.246692 0.836761
O O2 0.421579 0.418931 0.874787
O O3 0.377013 0.359895 0.757606
O O4 0.248907 0.280768 0.837501
O O5 0.174945 0.655250 0.699603
O O6 0.022082 0.619634 0.643000
O O7 0.146762 0.591964 0.578153
O O8 0.825324 0.851096 0.659679
O O9 0.993076 0.906403 0.601422
O O10 0.440296 0.860851 0.945229
O O11 0.399263 0.945304 0.859101
O O12 0.881428 0.225553 0.184429
#
# Coordination Sequence:
#
# PCOD9577574 Si02
#       6
#    18  18  18  18  18  18
#     4  10  23  40  67  95 132 176 224 266 330 391
#     4  11  23  43  62 100 133 171 225 266 330 394
#     4  10  26  44  68  94 128 172 221 269 316 399
#     4  11  23  40  69  94 131 178 216 274 332 379
#     4  10  23  40  66  96 132 176 222 270 328 391
#     4  10  24  41  62  99 132 173 214 279 322 396
#
# _framework density 22.586224000000001
#
# number of rings (size 3 to 8) (size 9 to 14) (size 15 to 20)
#    0.333    1.333    1.667    1.000    9.333    0.000 
#    6.000    0.000    0.000    0.667    0.000    0.000 
#    0.000    0.000    0.000    0.000    0.000    0.000 
#
# Total GULP energy -200860.033162 kJ/mol
# GULP energy per Si atom -5579.445366 kJ/mol
# Density = 2.253482 g / cm^3
# Si number density = 22.586224 Si / 1000 Ang^3
#
#
#
# Elastic Constant Matrix: (Units=GPa)
#
#
# Indices 1 2 3 4 5 6 
#
# 1 39.1756 -13.4902 -2.4342 0.4099 0.0000 0.0000
# 2 -13.4902 39.1756 -2.4342 -0.4099 0.0000 0.0000
# 3 -2.4342 -2.4342 136.5442 0.0000 0.0000 0.0000
# 4 0.4099 -0.4099 0.0000 20.0396 0.0000 0.0000
# 5 0.0000 0.0000 0.0000 0.0000 20.0396 0.4099
# 6 0.0000 0.0000 0.0000 0.0000 0.4099 26.3329
#
#
#
# Elastic Compliance Matrix: (Units=1/GPa)
#
#
# Indices 1 2 3 4 5 6 
#
# 1 0.029029 0.010035 0.000696 -0.000389 0.000000 0.000000
# 2 0.010035 0.029029 0.000696 0.000389 0.000000 0.000000
# 3 0.000696 0.000696 0.007348 0.000000 0.000000 0.000000
# 4 -0.000389 0.000389 0.000000 0.049917 0.000000 0.000000
# 5 0.000000 0.000000 0.000000 0.000000 0.049917 -0.000777
# 6 0.000000 0.000000 0.000000 0.000000 -0.000777 0.037987
#
#
# Mechanical properties :
#
#
# Convention : Reuss Voigt Hill
#
# Bulk Modulus (GPa) = 11.32971 19.79758 15.56365
# Shear Modulus (GPa) = 23.83300 28.83267 26.33283
#
# Velocity S-wave (km/s) = 3.25191 3.57677 3.41820
# Velocity P-wave (km/s) = 4.37344 5.08351 4.74179
#
# Compressibility (1/GPa) = 0.08826349
#
# Stress axis : x y z
#
# Youngs Moduli (GPa) = 34.44807 34.44807 136.08285
#
# Poissons Ratio (x) = -0.34570 -0.09477
# Poissons Ratio (y) = -0.34570 -0.09477
# Poissons Ratio (z) = -0.02399 -0.02399
#
# Static dielectric constant tensor:
#      x y z
#    x 1.804760 0.000000 0.000000 
#    y 0.000000 1.804760 0.000000 
#    z 0.000000 0.000000 1.951300 
# 
# From -- ./inp_files/1695.got.cif
#   From: 2010.05.17/outbox.cif.g08.bks.cpg/sg161_cif.got.tgz:1695.got - 2010.05.20 10:52:32.
