data_PCOD9577575
_publ_section_title
;
Structure prediction by ZEFSAII (Michael W. Deem and Ramdas Pophale) SiO2 
 PCOD9577575
Probable space group: R 3 C
;
_chemical_formula_sum "Si O2"
_cell_formula_units_Z 102
_cell_length_a 15.239600
_cell_length_b 15.239600
_cell_length_c 19.564443
_cell_angle_alpha 90.000000
_cell_angle_beta 90.000000
_cell_angle_gamma 120.000000
_cell_volume 3935.004704
_symmetry_space_group_name_H-M "R 3 C"
_symmetry_group_IT_number 161
_symmetry_cell_setting 'hexagonal'
loop_
_space_group_symop_operation_xyz
x,y,z
-y,x-y,z
-x+y,-x,z
-x+y,y,1/2+z
x,x-y,1/2+z
-y,-x,1/2+z
2/3+x,1/3+y,1/3+z
2/3-y,1/3+x-y,1/3+z
2/3-x+y,1/3-x,1/3+z
2/3-x+y,1/3+y,5/6+z
2/3+x,1/3+x-y,5/6+z
2/3-y,1/3-x,5/6+z
1/3+x,2/3+y,2/3+z
1/3-y,2/3+x-y,2/3+z
1/3-x+y,2/3-x,2/3+z
1/3-x+y,2/3+y,1/6+z
1/3+x,2/3+x-y,1/6+z
1/3-y,2/3-x,1/6+z
loop_
_atom_site_type_symbol
_atom_site_label
_atom_site_fract_x
_atom_site_fract_y
_atom_site_fract_z
Si Si1 0.666667 0.333334 0.470947
Si Si2 0.333334 0.666668 0.969763
Si Si3 0.469066 0.293825 0.896859
Si Si4 0.550769 0.583761 0.323221
Si Si5 0.024010 0.194540 0.783368
Si Si6 0.750705 0.999449 0.803193
Si Si7 0.870466 0.628807 0.287894
O O1 0.666668 0.333334 0.553348
O O2 0.764874 0.336074 0.438902
O O3 0.442547 0.755922 0.989948
O O4 0.382765 0.212693 0.948488
O O5 0.456970 0.385834 0.866765
O O6 0.457571 0.215795 0.835305
O O7 0.525257 0.656531 0.369344
O O8 0.639989 0.668216 0.278070
O O9 0.980677 0.262338 0.813538
O O10 0.141350 0.227331 0.777115
O O11 0.746188 0.973533 0.885245
O O12 0.820483 0.116912 0.781439
#
# Coordination Sequence:
#
# PCOD9577575 Si02
#       7
#     6   6  18  18  18  18  18
#     4  12  27  45  76 107 151 195 258 307 389 457
#     4  12  21  42  67 110 136 183 246 310 359 445
#     4  11  26  47  71 111 150 197 251 320 383 464
#     4  10  25  44  69 104 147 188 243 309 380 445
#     4  11  22  40  73  97 140 187 245 304 366 451
#     4  10  23  42  65 102 137 190 241 304 369 454
#     4  10  24  44  65 103 143 188 244 304 380 446
#
# _framework density 25.921188000000001
#
# number of rings (size 3 to 8) (size 9 to 14) (size 15 to 20)
#    0.000    1.412    3.529    0.000    7.412    5.647 
#    0.000    0.000    0.000    0.000    0.000    0.000 
#    0.000    0.000    0.000    0.000    0.000    0.000 
#
# Total GULP energy -189312.125950 kJ/mol
# GULP energy per Si atom -5568.003704 kJ/mol
# Density = 2.586219 g / cm^3
# Si number density = 25.921188 Si / 1000 Ang^3
#
#
#
# Elastic Constant Matrix: (Units=GPa)
#
#
# Indices 1 2 3 4 5 6 
#
# 1 84.9316 37.4799 28.1236 11.8307 0.0000 0.0000
# 2 37.4799 84.9307 28.1231 -11.8311 0.0000 0.0000
# 3 28.1236 28.1231 99.5762 -0.0003 0.0000 0.0000
# 4 11.8307 -11.8311 -0.0003 26.7835 0.0000 0.0000
# 5 0.0000 0.0000 0.0000 0.0000 26.7843 11.8309
# 6 0.0000 0.0000 0.0000 0.0000 11.8309 23.7253
#
#
#
# Elastic Compliance Matrix: (Units=1/GPa)
#
#
# Indices 1 2 3 4 5 6 
#
# 1 0.018207 -0.008820 -0.002651 -0.011939 0.000000 0.000000
# 2 -0.008820 0.018208 -0.002651 0.011939 0.000000 0.000000
# 3 -0.002651 -0.002651 0.011540 0.000000 0.000000 0.000000
# 4 -0.011939 0.011939 0.000000 0.047884 0.000000 0.000000
# 5 0.000000 0.000000 0.000000 0.000000 0.047882 -0.023877
# 6 0.000000 0.000000 0.000000 0.000000 -0.023877 0.054056
#
#
# Mechanical properties :
#
#
# Convention : Reuss Voigt Hill
#
# Bulk Modulus (GPa) = 50.73600 50.76573 50.75086
# Shear Modulus (GPa) = 21.49687 27.17274 24.33481
#
# Velocity S-wave (km/s) = 2.88291 3.24123 3.06731
# Velocity P-wave (km/s) = 5.54051 5.79954 5.67150
#
# Compressibility (1/GPa) = 0.01970987
#
# Stress axis : x y z
#
# Youngs Moduli (GPa) = 54.92270 54.92211 86.65386
#
# Poissons Ratio (x) = 0.48442 0.22975
# Poissons Ratio (y) = 0.48442 0.22974
# Poissons Ratio (z) = 0.14562 0.14561
#
# Static dielectric constant tensor:
#      x y z
#    x 2.176270 0.000000 0.000000 
#    y 0.000000 2.176270 0.000000 
#    z 0.000000 0.000000 2.134320 
# 
# From -- ./inp_files/1739.got.cif
#   From: 2010.05.17/outbox.cif.g08.bks.cpg/sg161_cif.got.tgz:1739.got - 2010.05.20 10:52:32.
