data_PCOD9577632
_publ_section_title
;
Structure prediction by ZEFSAII (Michael W. Deem and Ramdas Pophale) SiO2 
 PCOD9577632
Probable space group: P -3 1 M 
;
_chemical_formula_sum "Si O2"
_cell_formula_units_Z 60
_cell_length_a 30.856929
_cell_length_b 30.856929
_cell_length_c 5.388421
_cell_angle_alpha 90.000000
_cell_angle_beta 90.000000
_cell_angle_gamma 120.000000
_cell_volume 4443.217308
_symmetry_space_group_name_H-M "P -3 1 M "
_symmetry_group_IT_number 162
_symmetry_cell_setting 'hexagonal'
loop_
_space_group_symop_operation_xyz
x,y,z
-y,x-y,z
-x+y,-x,z
-y,-x,-z
-x+y,y,-z
x,x-y,-z
-x,-y,-z
y,-x+y,-z
x-y,x,-z
y,x,z
x-y,-y,z
-x,-x+y,z
loop_
_atom_site_type_symbol
_atom_site_label
_atom_site_fract_x
_atom_site_fract_y
_atom_site_fract_z
Si Si1 0.502889 0.059829 0.250000
Si Si2 0.699109 0.058693 0.250000
Si Si3 0.851842 0.192694 0.750000
Si Si4 0.672146 0.097021 0.750000
Si Si5 0.241370 0.787569 0.250000
O O1 0.535323 0.070646 0.500000
O O2 0.471849 0.088480 0.250000
O O3 0.463672 0.000000 0.250001
O O4 0.535323 0.070646 0.000000
O O5 0.759042 0.093755 0.250000
O O6 0.679798 0.072748 0.499961
O O7 0.679153 0.000000 0.250000
O O8 0.679798 0.072748 0.000040
O O9 0.839350 0.160651 0.500000
O O10 0.811923 0.212923 0.750000
O O11 0.839350 0.160651 0.000000
O O12 0.714601 0.155327 0.750000
O O13 0.240283 0.759718 0.500000
O O14 0.240283 0.759718 0.000000
#
# Coordination Sequence:
#
# PCOD9577632 Si02
#       5
#    12  12  12  12  12
#     4  10  21  35  45  57  82 114 146 172 208 252
#     4  12  21  28  43  68  88 108 148 187 210 246
#     4  10  16  30  43  57  86 115 135 168 225 258
#     4  12  20  32  48  63  83 115 147 180 206 254
#     4  10  16  29  46  63  83 108 136 169 219 258
#
# _framework density 13.503728000000001
#
# number of rings (size 3 to 8) (size 9 to 14) (size 15 to 20)
#    0.000    1.200    8.000    3.000    0.000    1.600 
#    0.000    0.000    0.000    0.000    0.000    0.000 
#    0.000    0.000    0.000   12.000    0.000    0.000 
#
# Total GULP energy -334535.916331 kJ/mol
# GULP energy per Si atom -5575.598606 kJ/mol
# Density = 1.347299 g / cm^3
# Si number density = 13.503728 Si / 1000 Ang^3
#
#
#
# Elastic Constant Matrix: (Units=GPa)
#
#
# Indices 1 2 3 4 5 6 
#
# 1 73.9119 55.3306 42.5325 0.0000 0.0000 0.0000
# 2 55.3306 73.9119 42.5325 0.0000 0.0000 0.0000
# 3 42.5325 42.5325 155.2445 0.0000 0.0000 0.0000
# 4 0.0000 0.0000 0.0000 11.5635 0.0000 0.0000
# 5 0.0000 0.0000 0.0000 0.0000 11.5635 0.0000
# 6 0.0000 0.0000 0.0000 0.0000 0.0000 9.2907
#
#
#
# Elastic Compliance Matrix: (Units=1/GPa)
#
#
# Indices 1 2 3 4 5 6 
#
# 1 0.031629 -0.022189 -0.002586 0.000000 0.000000 0.000000
# 2 -0.022189 0.031629 -0.002586 0.000000 0.000000 0.000000
# 3 -0.002586 -0.002586 0.007859 0.000000 0.000000 0.000000
# 4 0.000000 0.000000 0.000000 0.086479 0.000000 0.000000
# 5 0.000000 0.000000 0.000000 0.000000 0.086479 0.000000
# 6 0.000000 0.000000 0.000000 0.000000 0.000000 0.107635
#
#
# Mechanical properties :
#
#
# Convention : Reuss Voigt Hill
#
# Bulk Modulus (GPa) = 61.00171 64.87326 62.93748
# Shear Modulus (GPa) = 12.13899 17.32838 14.73368
#
# Velocity S-wave (km/s) = 3.00148 3.58610 3.30674
# Velocity P-wave (km/s) = 7.56861 8.08036 7.82867
#
# Compressibility (1/GPa) = 0.01639298
#
# Stress axis : x y z
#
# Youngs Moduli (GPa) = 31.61704 31.61704 127.25048
#
# Poissons Ratio (x) = 0.70155 0.32909
# Poissons Ratio (y) = 0.70155 0.32909
# Poissons Ratio (z) = 0.08177 0.08177
#
# Static dielectric constant tensor:
#      x y z
#    x 1.415080 0.000000 0.000000 
#    y 0.000000 1.415080 0.000000 
#    z 0.000000 0.000000 1.535030 
# 
# From -- ./inp_files/680.got.cif
#   From: 2010.05.17/outbox.cif.g08.bks.cpg/sg162_1_cif.got.tgz:680.got - 2010.05.20 10:53:12.
