data_PCOD9577653
_publ_section_title
;
Structure prediction by ZEFSAII (Michael W. Deem and Ramdas Pophale) SiO2 
 PCOD9577653
Probable space group: P -3 1 M 
;
_chemical_formula_sum "Si O2"
_cell_formula_units_Z 84
_cell_length_a 33.826914
_cell_length_b 33.826914
_cell_length_c 5.508902
_cell_angle_alpha 90.000000
_cell_angle_beta 90.000000
_cell_angle_gamma 120.000000
_cell_volume 5459.092296
_symmetry_space_group_name_H-M "P -3 1 M "
_symmetry_group_IT_number 162
_symmetry_cell_setting 'hexagonal'
loop_
_space_group_symop_operation_xyz
x,y,z
-y,x-y,z
-x+y,-x,z
-y,-x,-z
-x+y,y,-z
x,x-y,-z
-x,-y,-z
y,-x+y,-z
x-y,x,-z
y,x,z
x-y,-y,z
-x,-x+y,z
loop_
_atom_site_type_symbol
_atom_site_label
_atom_site_fract_x
_atom_site_fract_y
_atom_site_fract_z
Si Si1 0.281110 0.523745 0.251353
Si Si2 0.584704 0.072621 0.162872
Si Si3 0.612063 0.435467 0.756822
Si Si4 0.945634 0.329302 0.825648
Si Si5 0.692159 0.591835 0.322214
Si Si6 0.222837 0.420425 0.747217
Si Si7 0.461648 0.412786 0.662852
O O1 0.270836 0.541671 0.500000
O O2 0.333401 0.537692 0.258244
O O3 0.245311 0.469065 0.252010
O O4 0.270401 0.540801 0.000000
O O5 0.598103 0.124520 0.193527
O O6 0.628271 0.064039 0.159074
O O7 0.563949 0.049455 0.415739
O O8 0.564118 0.054812 0.899542
O O9 0.590033 0.409968 0.500000
O O10 0.595891 0.404110 0.000000
O O11 0.918847 0.302117 0.582095
O O12 0.000000 0.350279 0.802936
O O13 0.926271 0.304818 0.084628
O O14 0.726984 0.573451 0.275025
O O15 0.639664 0.550361 0.335873
O O16 0.197895 0.395790 0.500000
O O17 0.198942 0.397884 0.000000
O O18 0.415400 0.415400 0.679717
#
# Coordination Sequence:
#
# PCOD9577653 Si02
#       7
#    12  12  12  12  12  12  12
#     4  10  23  38  64  83 106 116 146 180 229 270
#     4  10  20  32  56  71 102 125 162 189 222 245
#     4  12  26  43  61  83 109 128 158 185 230 278
#     4  10  19  31  51  76 103 133 163 185 220 258
#     4  10  18  28  47  70 106 132 155 189 221 264
#     4  10  21  31  48  77 108 123 151 187 236 273
#     4  10  19  31  53  78 105 135 167 189 222 258
#
# _framework density 15.387174
#
# number of rings (size 3 to 8) (size 9 to 14) (size 15 to 20)
#    0.000    1.714    0.000    6.857   16.000    0.000 
#    0.000    0.000    0.000   20.286    0.000    0.000 
#    0.000    0.000    0.000    0.000    0.000    0.000 
#
# Total GULP energy -468333.637803 kJ/mol
# GULP energy per Si atom -5575.400450 kJ/mol
# Density = 1.535215 g / cm^3
# Si number density = 15.387174 Si / 1000 Ang^3
#
#
#
# Elastic Constant Matrix: (Units=GPa)
#
#
# Indices 1 2 3 4 5 6 
#
# 1 35.0531 17.7621 18.9482 0.0001 -1.2933 0.0000
# 2 17.7621 35.0531 18.9482 -0.0001 1.2933 0.0000
# 3 18.9482 18.9482 179.2897 0.0000 0.0000 0.0000
# 4 0.0001 -0.0001 0.0000 17.9782 0.0000 1.2933
# 5 -1.2933 1.2933 0.0000 0.0000 17.9782 0.0001
# 6 0.0000 0.0000 0.0000 1.2933 0.0001 8.6455
#
#
#
# Elastic Compliance Matrix: (Units=1/GPa)
#
#
# Indices 1 2 3 4 5 6 
#
# 1 0.039475 -0.018988 -0.002165 0.000000 0.004206 0.000000
# 2 -0.018988 0.039475 -0.002165 0.000000 -0.004206 0.000000
# 3 -0.002165 -0.002165 0.006035 0.000000 0.000000 0.000000
# 4 0.000000 0.000000 0.000000 0.056228 0.000000 -0.008411
# 5 0.004206 -0.004206 0.000000 0.000000 0.056228 -0.000001
# 6 0.000000 0.000000 0.000000 -0.008411 -0.000001 0.116925
#
#
# Mechanical properties :
#
#
# Convention : Reuss Voigt Hill
#
# Bulk Modulus (GPa) = 26.07601 40.07921 33.07761
# Shear Modulus (GPa) = 13.37665 21.83621 17.60643
#
# Velocity S-wave (km/s) = 2.95165 3.77120 3.38631
# Velocity P-wave (km/s) = 5.34787 6.71315 6.06902
#
# Compressibility (1/GPa) = 0.03834942
#
# Stress axis : x y z
#
# Youngs Moduli (GPa) = 25.33244 25.33244 165.69380
#
# Poissons Ratio (x) = 0.48100 0.35876
# Poissons Ratio (y) = 0.48100 0.35876
# Poissons Ratio (z) = 0.05485 0.05485
#
# Static dielectric constant tensor:
#      x y z
#    x 1.519220 0.000000 0.000000 
#    y 0.000000 1.519220 0.000000 
#    z 0.000000 0.000000 1.671380 
# 
# From -- ./inp_files/777.got.cif
#   From: 2010.05.17/outbox.cif.g08.bks.cpg/sg162_1_cif.got.tgz:777.got - 2010.05.20 10:53:12.
