data_PCOD9577337
_publ_section_title
;
Structure prediction by ZEFSAII (Michael W. Deem and Ramdas Pophale) SiO2 
 PCOD9577337
Probable space group: P 3 C 1
;
_chemical_formula_sum "Si O2"
_cell_formula_units_Z 48
_cell_length_a 24.919415
_cell_length_b 24.919415
_cell_length_c 5.287446
_cell_angle_alpha 90.000000
_cell_angle_beta 90.000000
_cell_angle_gamma 120.000000
_cell_volume 2843.493647
_symmetry_space_group_name_H-M "P 3 C 1"
_symmetry_group_IT_number 158
_symmetry_cell_setting 'hexagonal'
loop_
_space_group_symop_operation_xyz
x,y,z
-y,x-y,z
-x+y,-x,z
-x+y,y,1/2+z
x,x-y,1/2+z
-y,-x,1/2+z
loop_
_atom_site_type_symbol
_atom_site_label
_atom_site_fract_x
_atom_site_fract_y
_atom_site_fract_z
Si Si1 0.754769 0.453583 0.807960
Si Si2 0.855981 0.896420 0.973995
Si Si3 0.848411 0.081684 0.487954
Si Si4 0.397358 0.220996 0.793950
Si Si5 0.523384 0.414346 0.856664
Si Si6 0.669288 0.048821 0.967199
Si Si7 0.705131 0.822728 0.969723
Si Si8 0.998154 0.696407 0.471940
O O1 0.721461 0.428382 0.540152
O O2 0.782091 0.528028 0.784097
O O3 0.816906 0.451463 0.864145
O O4 0.877341 0.939861 0.220735
O O5 0.780506 0.861059 0.971653
O O6 0.870163 0.840246 0.983128
O O7 0.875017 0.121675 0.743079
O O8 0.773567 0.043219 0.481518
O O9 0.376433 0.208603 0.504080
O O10 0.379204 0.266703 0.925426
O O11 0.535058 0.439334 0.571303
O O12 0.451341 0.381307 0.929375
O O13 0.669725 0.007033 0.737209
O O14 0.671652 0.023293 0.240825
O O15 0.684702 0.834873 0.239571
O O16 0.684520 0.751826 0.927720
#
# Coordination Sequence:
#
# PCOD9577337 Si02
#       8
#     6   6   6   6   6   6   6   6
#     4   9  17  31  50  69  87 109 146 195 239 282
#     4   9  17  31  50  65  82 115 154 187 223 272
#     4  11  22  34  49  72 100 126 155 196 248 308
#     4   9  17  28  43  62  85 117 149 176 220 286
#     4  11  22  37  56  75  97 129 166 199 241 304
#     4  11  22  34  49  72 100 126 155 196 242 288
#     4   9  17  31  50  69  87 114 152 187 223 272
#     4  11  22  34  49  72 100 126 155 196 248 294
#
# _framework density 16.880641000000001
#
# number of rings (size 3 to 8) (size 9 to 14) (size 15 to 20)
#    0.000    2.000    0.000    4.500    0.000   11.000 
#    0.000    0.000    0.000   10.000    0.000    0.000 
#    0.000    0.000    0.000    0.000    0.000    0.000 
#
# Total GULP energy -268015.182972 kJ/mol
# GULP energy per Si atom -5583.649645 kJ/mol
# Density = 1.684222 g / cm^3
# Si number density = 16.880641 Si / 1000 Ang^3
#
#
#
# Elastic Constant Matrix: (Units=GPa)
#
#
# Indices 1 2 3 4 5 6 
#
# 1 41.4833 7.6795 7.7525 -2.7172 0.0000 0.0000
# 2 7.6795 41.4833 7.7525 2.7172 0.0000 0.0000
# 3 7.7525 7.7525 97.0878 0.0000 0.0000 0.0000
# 4 -2.7172 2.7172 0.0000 21.3734 0.0000 0.0000
# 5 0.0000 0.0000 0.0000 0.0000 21.3734 -2.7172
# 6 0.0000 0.0000 0.0000 0.0000 -2.7172 16.9019
#
#
#
# Elastic Compliance Matrix: (Units=1/GPa)
#
#
# Indices 1 2 3 4 5 6 
#
# 1 0.025533 -0.004667 -0.001666 0.003839 0.000000 0.000000
# 2 -0.004667 0.025533 -0.001666 -0.003839 0.000000 0.000000
# 3 -0.001666 -0.001666 0.010566 0.000000 0.000000 0.000000
# 4 0.003839 -0.003839 0.000000 0.047763 0.000000 0.000000
# 5 0.000000 0.000000 0.000000 0.000000 0.047763 0.007678
# 6 0.000000 0.000000 0.000000 0.000000 0.007678 0.060399
#
#
# Mechanical properties :
#
#
# Convention : Reuss Voigt Hill
#
# Bulk Modulus (GPa) = 21.91371 25.15814 23.53593
# Shear Modulus (GPa) = 20.09913 22.38774 21.24344
#
# Velocity S-wave (km/s) = 3.45434 3.64571 3.55131
# Velocity P-wave (km/s) = 5.37770 5.71467 5.54875
#
# Compressibility (1/GPa) = 0.04563352
#
# Stress axis : x y z
#
# Youngs Moduli (GPa) = 39.16525 39.16525 94.64285
#
# Poissons Ratio (x) = 0.18278 0.15769
# Poissons Ratio (y) = 0.18278 0.15769
# Poissons Ratio (z) = 0.06526 0.06526
#
# Static dielectric constant tensor:
#      x y z
#    x 1.583860 0.000000 0.000000 
#    y 0.000000 1.583860 0.000000 
#    z 0.000000 0.000000 1.616630 
# 
# From -- ./inp_files/50.got.cif
#   From: 2010.05.17/outbox.cif.g08.bks.cpg/sg158_cif.got.tgz:50.got - 2010.05.20 10:49:59.
