data_PCOD9577070
_publ_section_title
;
Structure prediction by ZEFSAII (Michael W. Deem and Ramdas Pophale) SiO2 
 PCOD9577070
Probable space group: R 3 2
;
_chemical_formula_sum "Si O2"
_cell_formula_units_Z 42
_cell_length_a 9.706347
_cell_length_b 9.706347
_cell_length_c 21.038370
_cell_angle_alpha 90.000000
_cell_angle_beta 90.000000
_cell_angle_gamma 120.000000
_cell_volume 1716.541655
_symmetry_space_group_name_H-M "R 3 2"
_symmetry_group_IT_number 155
_symmetry_cell_setting 'hexagonal'
loop_
_space_group_symop_operation_xyz
x,y,z
-y,x-y,z
-x+y,-x,z
x-y,-y,-z
-x,-x+y,-z
y,x,-z
2/3+x,1/3+y,1/3+z
2/3-y,1/3+x-y,1/3+z
2/3-x+y,1/3-x,1/3+z
2/3+x-y,1/3-y,1/3-z
2/3-x,1/3-x+y,1/3-z
2/3+y,1/3+x,1/3-z
1/3+x,2/3+y,2/3+z
1/3-y,2/3+x-y,2/3+z
1/3-x+y,2/3-x,2/3+z
1/3+x-y,2/3-y,2/3-z
1/3-x,2/3-x+y,2/3-z
1/3+y,2/3+x,2/3-z
loop_
_atom_site_type_symbol
_atom_site_label
_atom_site_fract_x
_atom_site_fract_y
_atom_site_fract_z
Si Si1 0.000000 0.000000 0.924503
Si Si2 0.493945 0.845306 0.966479
Si Si3 0.812250 0.179161 0.496382
O O1 0.928213 0.822688 0.895124
O O2 0.000000 0.000000 0.000000
O O3 0.315498 0.805975 0.985810
O O4 0.491538 0.869088 0.891518
O O5 0.623612 0.000000 0.000000
O O6 0.000000 0.302194 0.500000
O O7 0.781346 0.000000 0.500000
#
# Coordination Sequence:
#
# PCOD9577070 Si02
#       3
#     6  18  18
#     4  12  27  51  84 114 153 210 256 323 391 441
#     4  10  24  45  74 110 155 194 251 314 386 463
#     4  12  27  50  77 111 158 201 255 323 380 462
#
# _framework density 24.467801999999999
#
# number of rings (size 3 to 8) (size 9 to 14) (size 15 to 20)
#    0.857    0.000    4.286    1.714    6.000    3.429 
#    0.000    0.000    0.000    0.857    0.000    0.000 
#    0.000    0.000    0.000    0.000    0.000    0.000 
#
# Total GULP energy -78254.961105 kJ/mol
# GULP energy per Si atom -5589.640079 kJ/mol
# Density = 2.441211 g / cm^3
# Si number density = 24.467802 Si / 1000 Ang^3
#
#
#
# Elastic Constant Matrix: (Units=GPa)
#
#
# Indices 1 2 3 4 5 6 
#
# 1 107.6134 21.8628 40.1133 -7.3859 0.0000 0.0000
# 2 21.8628 107.6134 40.1133 7.3859 0.0000 0.0000
# 3 40.1133 40.1133 142.3797 0.0000 0.0000 0.0000
# 4 -7.3859 7.3859 0.0000 20.8154 0.0000 0.0000
# 5 0.0000 0.0000 0.0000 0.0000 20.8154 -7.3859
# 6 0.0000 0.0000 0.0000 0.0000 -7.3859 42.8753
#
#
#
# Elastic Compliance Matrix: (Units=1/GPa)
#
#
# Indices 1 2 3 4 5 6 
#
# 1 0.010889 -0.001532 -0.002636 0.004407 0.000000 0.000000
# 2 -0.001532 0.010889 -0.002636 -0.004407 0.000000 0.000000
# 3 -0.002636 -0.002636 0.008509 0.000000 0.000000 0.000000
# 4 0.004407 -0.004407 0.000000 0.051169 0.000000 0.000000
# 5 0.000000 0.000000 0.000000 0.000000 0.051169 0.008815
# 6 0.000000 0.000000 0.000000 0.000000 0.008815 0.024842
#
#
# Mechanical properties :
#
#
# Convention : Reuss Voigt Hill
#
# Bulk Modulus (GPa) = 59.95936 62.42058 61.18997
# Shear Modulus (GPa) = 28.30706 33.93572 31.12139
#
# Velocity S-wave (km/s) = 3.40503 3.72822 3.57029
# Velocity P-wave (km/s) = 6.32594 6.64075 6.48526
#
# Compressibility (1/GPa) = 0.01667796
#
# Stress axis : x y z
#
# Youngs Moduli (GPa) = 91.83669 91.83669 117.52459
#
# Poissons Ratio (x) = 0.14070 0.30981
# Poissons Ratio (y) = 0.14070 0.30981
# Poissons Ratio (z) = 0.24209 0.24209
#
# Static dielectric constant tensor:
#      x y z
#    x 1.940820 0.000000 0.000000 
#    y 0.000000 1.940820 0.000000 
#    z 0.000000 0.000000 1.941380 
# 
# From -- ./inp_files/6491.got.cif
#   From: 2010.05.17/outbox.cif.g08.bks.cpg/sg155_4_cif.got.tgz:6491.got - 2010.05.20 10:44:35.
