data_PCOD9577922
_publ_section_title
;
Structure prediction by ZEFSAII (Michael W. Deem and Ramdas Pophale) SiO2 
 PCOD9577922
Probable space group: P -3 1 M 
;
_chemical_formula_sum "Si O2"
_cell_formula_units_Z 48
_cell_length_a 17.168447
_cell_length_b 17.168447
_cell_length_c 8.986963
_cell_angle_alpha 90.000000
_cell_angle_beta 90.000000
_cell_angle_gamma 120.000000
_cell_volume 2294.064422
_symmetry_space_group_name_H-M "P -3 1 M "
_symmetry_group_IT_number 162
_symmetry_cell_setting 'hexagonal'
loop_
_space_group_symop_operation_xyz
x,y,z
-y,x-y,z
-x+y,-x,z
-y,-x,-z
-x+y,y,-z
x,x-y,-z
-x,-y,-z
y,-x+y,-z
x-y,x,-z
y,x,z
x-y,-y,z
-x,-x+y,z
loop_
_atom_site_type_symbol
_atom_site_label
_atom_site_fract_x
_atom_site_fract_y
_atom_site_fract_z
Si Si1 0.100476 0.308409 0.621522
Si Si2 0.494890 0.830188 0.425285
Si Si3 0.323437 0.103935 0.109633
Si Si4 0.105683 0.476119 0.902789
O O1 0.130217 0.260434 0.500000
O O2 0.109224 0.398132 0.547464
O O3 0.175873 0.342157 0.748386
O O4 0.000000 0.247308 0.678835
O O5 0.431395 0.862790 0.500000
O O6 0.468583 0.734292 0.500000
O O7 0.489326 0.834354 0.245846
O O8 0.268993 0.000000 0.151040
O O9 0.269915 0.134958 0.000000
O O10 0.409492 0.119409 0.012609
O O11 0.000000 0.419632 0.854880
O O12 0.118650 0.559325 0.000000
#
# Coordination Sequence:
#
# PCOD9577922 Si02
#       4
#    12  12  12  12
#     4  11  24  43  69  98 130 174 224 273 334 397
#     4  11  25  43  64  94 137 176 218 265 323 392
#     4  11  22  41  68  98 134 171 220 277 327 396
#     4  10  23  41  67 101 131 169 222 277 327 381
#
# _framework density 20.923562
#
# number of rings (size 3 to 8) (size 9 to 14) (size 15 to 20)
#    0.000    1.250    2.500    2.500    7.000    2.000 
#    0.000    0.000    0.000   10.000    0.000    0.000 
#    0.000    0.000    0.000    0.000    0.000    0.000 
#
# Total GULP energy -267815.341921 kJ/mol
# GULP energy per Si atom -5579.486290 kJ/mol
# Density = 2.087594 g / cm^3
# Si number density = 20.923562 Si / 1000 Ang^3
#
#
#
# Elastic Constant Matrix: (Units=GPa)
#
#
# Indices 1 2 3 4 5 6 
#
# 1 103.4387 62.6680 59.0636 0.0000 1.0761 0.0000
# 2 62.6680 103.4387 59.0636 0.0000 -1.0761 0.0000
# 3 59.0636 59.0636 139.8825 0.0000 0.0000 0.0000
# 4 0.0000 0.0000 0.0000 32.4679 0.0000 -1.0761
# 5 1.0761 -1.0761 0.0000 0.0000 32.4679 0.0000
# 6 0.0000 0.0000 0.0000 -1.0761 0.0000 20.3853
#
#
#
# Elastic Compliance Matrix: (Units=1/GPa)
#
#
# Indices 1 2 3 4 5 6 
#
# 1 0.016587 -0.007983 -0.003633 0.000000 -0.000814 0.000000
# 2 -0.007983 0.016587 -0.003633 0.000000 0.000814 0.000000
# 3 -0.003633 -0.003633 0.010217 0.000000 0.000000 0.000000
# 4 0.000000 0.000000 0.000000 0.030854 0.000000 0.001629
# 5 -0.000814 0.000814 0.000000 0.000000 0.030854 0.000000
# 6 0.000000 0.000000 0.000000 0.001629 0.000000 0.049141
#
#
# Mechanical properties :
#
#
# Convention : Reuss Voigt Hill
#
# Bulk Modulus (GPa) = 77.56230 78.70558 78.13394
# Shear Modulus (GPa) = 26.45020 28.12854 27.28937
#
# Velocity S-wave (km/s) = 3.55932 3.67051 3.61535
# Velocity P-wave (km/s) = 7.35130 7.46063 7.40616
#
# Compressibility (1/GPa) = 0.01289286
#
# Stress axis : x y z
#
# Youngs Moduli (GPa) = 60.28794 60.28794 97.87928
#
# Poissons Ratio (x) = 0.48130 0.35558
# Poissons Ratio (y) = 0.48130 0.35558
# Poissons Ratio (z) = 0.21901 0.21901
#
# Static dielectric constant tensor:
#      x y z
#    x 1.768510 0.000000 0.000000 
#    y 0.000000 1.768510 0.000000 
#    z 0.000000 0.000000 1.817120 
# 
# From -- ./inp_files/1187.got.cif
#   From: 2010.05.17/outbox.cif.g08.bks.cpg/sg162_1_cif.got.tgz:1187.got - 2010.05.20 10:53:12.
