data_PCOD9577215
_publ_section_title
;
Structure prediction by ZEFSAII (Michael W. Deem and Ramdas Pophale) SiO2 
 PCOD9577215
Probable space group: P 3 M 1
;
_chemical_formula_sum "Si O2"
_cell_formula_units_Z 42
_cell_length_a 12.715731
_cell_length_b 12.715731
_cell_length_c 18.723451
_cell_angle_alpha 90.000000
_cell_angle_beta 90.000000
_cell_angle_gamma 120.000000
_cell_volume 2621.797795
_symmetry_space_group_name_H-M "P 3 M 1"
_symmetry_group_IT_number 156
_symmetry_cell_setting 'hexagonal'
loop_
_space_group_symop_operation_xyz
x,y,z
-y,x-y,z
-x+y,-x,z
-x+y,y,z
x,x-y,z
-y,-x,z
loop_
_atom_site_type_symbol
_atom_site_label
_atom_site_fract_x
_atom_site_fract_y
_atom_site_fract_z
Si Si1 0.083086 0.416425 0.415600
Si Si2 0.666562 0.585237 0.003407
Si Si3 0.416193 0.333401 0.846814
Si Si4 0.000614 0.750168 0.553994
Si Si5 0.417208 0.333756 0.277290
Si Si6 0.333128 0.916756 0.139739
Si Si7 0.666672 0.081512 0.690545
O O1 0.212952 0.425904 0.404869
O O2 0.098406 0.549203 0.423436
O O3 0.023501 0.337072 0.486329
O O4 0.997346 0.354020 0.347460
O O5 0.792854 0.585707 0.011799
O O6 0.553410 0.446591 0.006183
O O7 0.645053 0.655339 0.067250
O O8 0.663332 0.636473 0.924357
O O9 0.428726 0.214363 0.849287
O O10 0.548849 0.451152 0.844291
O O11 0.360217 0.331340 0.769431
O O12 0.115023 0.884978 0.559172
O O13 0.876681 0.753361 0.544810
O O14 0.987620 0.675520 0.626005
O O15 0.410376 0.205188 0.277890
O O16 0.556884 0.443117 0.276067
O O17 0.354492 0.351282 0.207276
O O18 0.445229 0.890458 0.140009
O O19 0.206714 0.793287 0.144570
O O20 0.540630 0.081259 0.682189
O O21 0.780162 0.219839 0.688959
#
# Coordination Sequence:
#
# PCOD9577215 Si02
#       7
#     6   6   6   6   6   6   6
#     4  10  20  34  53  75  98 124 154 189 228 271
#     4   9  16  27  46  71  96 120 148 187 236 286
#     4   8  13  22  39  65  94 120 146 181 230 285
#     4  10  20  33  48  66  91 125 163 199 233 271
#     4  10  20  34  53  76 100 123 148 183 228 275
#     4  10  20  33  49  68  92 124 160 196 231 269
#     4   9  16  27  45  69  95 120 149 189 238 287
#
# _framework density 16.019542999999999
#
# number of rings (size 3 to 8) (size 9 to 14) (size 15 to 20)
#    0.000    2.571    0.000    2.714    0.000    2.286 
#    0.000    3.571    0.000   10.857    0.000    0.000 
#    0.000    0.000    0.000    0.000    0.000    0.000 
#
# Total GULP energy -233969.806551 kJ/mol
# GULP energy per Si atom -5570.709680 kJ/mol
# Density = 1.598308 g / cm^3
# Si number density = 16.019543 Si / 1000 Ang^3
#
#
#
# Elastic Constant Matrix: (Units=GPa)
#
#
# Indices 1 2 3 4 5 6 
#
# 1 92.0921 55.4900 78.8953 -0.1117 0.0002 0.0000
# 2 55.4900 92.0921 78.8953 0.1117 -0.0002 0.0000
# 3 78.8953 78.8953 183.1677 0.0000 0.0000 0.0000
# 4 -0.1117 0.1117 0.0000 19.1860 0.0000 -0.0002
# 5 0.0002 -0.0002 0.0000 0.0000 19.1860 -0.1117
# 6 0.0000 0.0000 0.0000 -0.0002 -0.1117 18.3010
#
#
#
# Elastic Compliance Matrix: (Units=1/GPa)
#
#
# Indices 1 2 3 4 5 6 
#
# 1 0.019941 -0.007381 -0.005410 0.000159 0.000000 0.000000
# 2 -0.007381 0.019941 -0.005410 -0.000159 0.000000 0.000000
# 3 -0.005410 -0.005410 0.010120 0.000000 0.000000 0.000000
# 4 0.000159 -0.000159 0.000000 0.052123 0.000000 0.000001
# 5 0.000000 0.000000 0.000000 0.000000 0.052123 0.000318
# 6 0.000000 0.000000 0.000000 0.000001 0.000318 0.054644
#
#
# Mechanical properties :
#
#
# Convention : Reuss Voigt Hill
#
# Bulk Modulus (GPa) = 73.52834 88.21258 80.87046
# Shear Modulus (GPa) = 20.01387 21.60603 20.80995
#
# Velocity S-wave (km/s) = 3.53844 3.67649 3.60812
# Velocity P-wave (km/s) = 7.91788 8.55612 8.24318
#
# Compressibility (1/GPa) = 0.01360020
#
# Stress axis : x y z
#
# Youngs Moduli (GPa) = 50.14806 50.14806 98.81510
#
# Poissons Ratio (x) = 0.37014 0.53459
# Poissons Ratio (y) = 0.37014 0.53459
# Poissons Ratio (z) = 0.27130 0.27130
#
# Static dielectric constant tensor:
#      x y z
#    x 1.500150 0.000000 0.000000 
#    y 0.000000 1.500150 0.000000 
#    z 0.000000 0.000000 1.569910 
# 
# From -- ./inp_files/938.got.cif
#   From: 2010.05.17/outbox.cif.g08.bks.cpg/sg156_cif.got.tgz:938.got - 2010.05.20 10:49:08.
