data_PCOD9577035
_publ_section_title
;
Structure prediction by ZEFSAII (Michael W. Deem and Ramdas Pophale) SiO2 
 PCOD9577035
Probable space group: R 3 2
;
_chemical_formula_sum "Si O2"
_cell_formula_units_Z 66
_cell_length_a 13.066965
_cell_length_b 13.066965
_cell_length_c 19.579983
_cell_angle_alpha 90.000000
_cell_angle_beta 90.000000
_cell_angle_gamma 120.000000
_cell_volume 2895.292183
_symmetry_space_group_name_H-M "R 3 2"
_symmetry_group_IT_number 155
_symmetry_cell_setting 'hexagonal'
loop_
_space_group_symop_operation_xyz
x,y,z
-y,x-y,z
-x+y,-x,z
x-y,-y,-z
-x,-x+y,-z
y,x,-z
2/3+x,1/3+y,1/3+z
2/3-y,1/3+x-y,1/3+z
2/3-x+y,1/3-x,1/3+z
2/3+x-y,1/3-y,1/3-z
2/3-x,1/3-x+y,1/3-z
2/3+y,1/3+x,1/3-z
1/3+x,2/3+y,2/3+z
1/3-y,2/3+x-y,2/3+z
1/3-x+y,2/3-x,2/3+z
1/3+x-y,2/3-y,2/3-z
1/3-x,2/3-x+y,2/3-z
1/3+y,2/3+x,2/3-z
loop_
_atom_site_type_symbol
_atom_site_label
_atom_site_fract_x
_atom_site_fract_y
_atom_site_fract_z
Si Si1 0.535018 0.871708 0.538100
Si Si2 0.216919 0.816035 0.046415
Si Si3 0.666667 0.333334 0.120783
Si Si4 0.000000 0.000000 0.378008
Si Si5 0.592059 0.573621 0.420089
O O1 0.462685 0.764602 0.484732
O O2 0.430676 0.870871 0.583904
O O3 0.606390 0.000000 0.500000
O O4 0.633174 0.869190 0.585936
O O5 0.257466 0.725525 0.069456
O O6 0.224867 0.822288 0.963844
O O7 0.303642 0.952292 0.065367
O O8 0.666668 0.333334 0.038583
O O9 0.589175 0.589175 0.500000
#
# Coordination Sequence:
#
# PCOD9577035 Si02
#       5
#    18  18   6   6  18
#     4  11  23  45  76 107 141 194 259 317 373 442
#     4  11  25  44  72 109 150 195 253 314 373 458
#     4  12  24  48  79 101 154 204 256 302 382 459
#     4  12  27  48  67 119 160 204 235 308 400 462
#     4  10  22  45  69 101 142 197 252 304 367 439
#
# _framework density 22.795625999999999
#
# number of rings (size 3 to 8) (size 9 to 14) (size 15 to 20)
#    0.000    1.091    2.727    4.091    0.000    2.182 
#   14.727    1.364    0.000    0.000    0.000    0.000 
#    0.000    0.000    0.000    0.000    0.000    0.000 
#
# Total GULP energy -122477.857625 kJ/mol
# GULP energy per Si atom -5567.175347 kJ/mol
# Density = 2.274374 g / cm^3
# Si number density = 22.795626 Si / 1000 Ang^3
#
#
#
# Elastic Constant Matrix: (Units=GPa)
#
#
# Indices 1 2 3 4 5 6 
#
# 1 106.9902 37.7000 40.3338 4.1033 0.0000 0.0000
# 2 37.7000 106.9901 40.3338 -4.1029 0.0000 0.0000
# 3 40.3338 40.3338 96.3321 0.0002 0.0000 0.0000
# 4 4.1033 -4.1029 0.0002 30.6787 0.0000 0.0000
# 5 0.0000 0.0000 0.0000 0.0000 30.6787 4.1032
# 6 0.0000 0.0000 0.0000 0.0000 4.1032 34.6449
#
#
#
# Elastic Compliance Matrix: (Units=1/GPa)
#
#
# Indices 1 2 3 4 5 6 
#
# 1 0.011840 -0.002824 -0.003775 -0.001961 0.000000 0.000000
# 2 -0.002824 0.011840 -0.003775 0.001961 0.000000 0.000000
# 3 -0.003775 -0.003775 0.013542 0.000000 0.000000 0.000000
# 4 -0.001961 0.001961 0.000000 0.033121 0.000000 0.000000
# 5 0.000000 0.000000 0.000000 0.000000 0.033121 -0.003923
# 6 0.000000 0.000000 0.000000 0.000000 -0.003923 0.029329
#
#
# Mechanical properties :
#
#
# Convention : Reuss Voigt Hill
#
# Bulk Modulus (GPa) = 60.70179 60.78308 60.74243
# Shear Modulus (GPa) = 31.44031 31.99677 31.71854
#
# Velocity S-wave (km/s) = 3.71782 3.75058 3.73424
# Velocity P-wave (km/s) = 6.71685 6.74374 6.73031
#
# Compressibility (1/GPa) = 0.01647398
#
# Stress axis : x y z
#
# Youngs Moduli (GPa) = 84.45854 84.45854 73.84517
#
# Poissons Ratio (x) = 0.23853 0.27876
# Poissons Ratio (y) = 0.23853 0.27876
# Poissons Ratio (z) = 0.31882 0.31883
#
# Static dielectric constant tensor:
#      x y z
#    x 1.992350 0.000000 0.000000 
#    y 0.000000 1.992350 0.000000 
#    z 0.000000 0.000000 2.010350 
# 
# From -- ./inp_files/6758.got.cif
#   From: 2010.05.17/outbox.cif.g08.bks.cpg/sg155_4_cif.got.tgz:6758.got - 2010.05.20 10:44:35.
