data_PCOD9577017
_publ_section_title
;
Structure prediction by ZEFSAII (Michael W. Deem and Ramdas Pophale) SiO2 
 PCOD9577017
Probable space group: R 3 2
;
_chemical_formula_sum "Si O2"
_cell_formula_units_Z 75
_cell_length_a 15.218853
_cell_length_b 15.218853
_cell_length_c 16.356225
_cell_angle_alpha 90.000000
_cell_angle_beta 90.000000
_cell_angle_gamma 120.000000
_cell_volume 3280.783350
_symmetry_space_group_name_H-M "R 3 2"
_symmetry_group_IT_number 155
_symmetry_cell_setting 'hexagonal'
loop_
_space_group_symop_operation_xyz
x,y,z
-y,x-y,z
-x+y,-x,z
x-y,-y,-z
-x,-x+y,-z
y,x,-z
2/3+x,1/3+y,1/3+z
2/3-y,1/3+x-y,1/3+z
2/3-x+y,1/3-x,1/3+z
2/3+x-y,1/3-y,1/3-z
2/3-x,1/3-x+y,1/3-z
2/3+y,1/3+x,1/3-z
1/3+x,2/3+y,2/3+z
1/3-y,2/3+x-y,2/3+z
1/3-x+y,2/3-x,2/3+z
1/3+x-y,2/3-y,2/3-z
1/3-x,2/3-x+y,2/3-z
1/3+y,2/3+x,2/3-z
loop_
_atom_site_type_symbol
_atom_site_label
_atom_site_fract_x
_atom_site_fract_y
_atom_site_fract_z
Si Si1 0.666668 0.333334 0.529293
Si Si2 0.666667 0.333334 0.727010
Si Si3 0.447425 0.555147 0.476555
Si Si4 0.142213 0.225398 0.622127
Si Si5 0.333334 0.202818 0.666667
Si Si6 0.908811 0.216848 0.833576
O O1 0.666668 0.333334 0.627744
O O2 0.779008 0.425125 0.505558
O O3 0.608057 0.215336 0.749732
O O4 0.456706 0.456706 0.500000
O O5 0.463048 0.563430 0.378656
O O6 0.540353 0.652617 0.519116
O O7 0.240940 0.216407 0.637657
O O8 0.167278 0.321211 0.566659
O O9 0.299635 0.128986 0.744199
O O10 0.937156 0.333334 0.833334
#
# Coordination Sequence:
#
# PCOD9577017 Si02
#       6
#     6   6  18  18   9  18
#     4   9  18  39  66  92 128 175 218 268 336 396
#     4   9  18  39  64  91 124 161 209 268 339 403
#     4  10  22  39  65  93 128 172 221 272 325 391
#     4  11  23  39  63  91 126 170 214 267 331 394
#     4  12  24  38  60  94 128 160 212 272 332 400
#     4  11  22  39  63  91 123 163 211 268 334 397
#
# _framework density 22.860395
#
# number of rings (size 3 to 8) (size 9 to 14) (size 15 to 20)
#    0.000    1.440    0.000    7.920    0.000    6.720 
#    0.000    2.400    0.000    7.200    0.000    0.000 
#    0.000    0.000    0.000    0.000    0.000    0.000 
#
# Total GULP energy -139724.127817 kJ/mol
# GULP energy per Si atom -5588.965113 kJ/mol
# Density = 2.280836 g / cm^3
# Si number density = 22.860395 Si / 1000 Ang^3
#
#
#
# Elastic Constant Matrix: (Units=GPa)
#
#
# Indices 1 2 3 4 5 6 
#
# 1 70.3015 3.7930 -3.5640 -8.1705 0.0000 0.0000
# 2 3.7930 70.3003 -3.5636 8.1704 0.0000 0.0000
# 3 -3.5640 -3.5636 38.9264 -0.0001 0.0000 0.0000
# 4 -8.1705 8.1704 -0.0001 38.4139 0.0000 0.0000
# 5 0.0000 0.0000 0.0000 0.0000 38.4137 -8.1706
# 6 0.0000 0.0000 0.0000 0.0000 -8.1706 33.2545
#
#
#
# Elastic Compliance Matrix: (Units=1/GPa)
#
#
# Indices 1 2 3 4 5 6 
#
# 1 0.014740 -0.001124 0.001247 0.003374 0.000000 0.000000
# 2 -0.001124 0.014741 0.001247 -0.003374 0.000000 0.000000
# 3 0.001247 0.001247 0.025918 0.000000 0.000000 0.000000
# 4 0.003374 -0.003374 0.000000 0.027468 0.000000 0.000000
# 5 0.000000 0.000000 0.000000 0.000000 0.027468 0.006749
# 6 0.000000 0.000000 0.000000 0.000000 0.006749 0.031729
#
#
# Mechanical properties :
#
#
# Convention : Reuss Voigt Hill
#
# Bulk Modulus (GPa) = 17.20083 19.20657 18.20370
# Shear Modulus (GPa) = 31.50502 34.20728 32.85615
#
# Velocity S-wave (km/s) = 3.71637 3.87247 3.79522
# Velocity P-wave (km/s) = 5.09469 5.33054 5.21395
#
# Compressibility (1/GPa) = 0.05813672
#
# Stress axis : x y z
#
# Youngs Moduli (GPa) = 67.84037 67.83936 38.58361
#
# Poissons Ratio (x) = 0.07627 -0.04810
# Poissons Ratio (y) = 0.07627 -0.04809
# Poissons Ratio (z) = -0.08457 -0.08456
#
# Static dielectric constant tensor:
#      x y z
#    x 1.925680 0.000000 0.000000 
#    y 0.000000 1.925680 0.000000 
#    z 0.000000 0.000000 1.839670 
# 
# From -- ./inp_files/6815.got.cif
#   From: 2010.05.17/outbox.cif.g08.bks.cpg/sg155_4_cif.got.tgz:6815.got - 2010.05.20 10:44:35.
