data_PCOD9577033
_publ_section_title
;
Structure prediction by ZEFSAII (Michael W. Deem and Ramdas Pophale) SiO2 
 PCOD9577033
Probable space group: R 3 2
;
_chemical_formula_sum "Si O2"
_cell_formula_units_Z 51
_cell_length_a 17.852963
_cell_length_b 17.852963
_cell_length_c 7.459852
_cell_angle_alpha 90.000000
_cell_angle_beta 90.000000
_cell_angle_gamma 120.000000
_cell_volume 2059.119033
_symmetry_space_group_name_H-M "R 3 2"
_symmetry_group_IT_number 155
_symmetry_cell_setting 'hexagonal'
loop_
_space_group_symop_operation_xyz
x,y,z
-y,x-y,z
-x+y,-x,z
x-y,-y,-z
-x,-x+y,-z
y,x,-z
2/3+x,1/3+y,1/3+z
2/3-y,1/3+x-y,1/3+z
2/3-x+y,1/3-x,1/3+z
2/3+x-y,1/3-y,1/3-z
2/3-x,1/3-x+y,1/3-z
2/3+y,1/3+x,1/3-z
1/3+x,2/3+y,2/3+z
1/3-y,2/3+x-y,2/3+z
1/3-x+y,2/3-x,2/3+z
1/3+x-y,2/3-y,2/3-z
1/3-x,2/3-x+y,2/3-z
1/3+y,2/3+x,2/3-z
loop_
_atom_site_type_symbol
_atom_site_label
_atom_site_fract_x
_atom_site_fract_y
_atom_site_fract_z
Si Si1 0.333334 0.666668 0.948760
Si Si2 0.132132 0.302622 0.134318
Si Si3 0.153411 0.966475 0.704689
Si Si4 0.000000 0.732660 0.000000
O O1 0.333334 0.666668 0.166667
O O2 0.433930 0.700463 0.895823
O O3 0.169790 0.333334 0.333334
O O4 0.166757 0.385598 0.005069
O O5 0.032280 0.236842 0.178819
O O6 0.174780 0.251321 0.054695
O O7 0.162816 0.000000 0.500000
O O8 0.026206 0.692873 0.833334
#
# Coordination Sequence:
#
# PCOD9577033 Si02
#       4
#     6  18  18   9
#     4   9  18  33  69 103 143 202 256 320 403 466
#     4  10  22  44  74 108 153 207 262 320 394 467
#     4   9  20  39  72 104 151 200 258 315 391 465
#     4  12  26  44  76 114 160 200 262 324 396 470
#
# _framework density 24.767873999999999
#
# number of rings (size 3 to 8) (size 9 to 14) (size 15 to 20)
#    0.000    2.118    1.765    0.000    4.941    1.412 
#    0.000   14.118    0.000    0.000    0.000    0.000 
#    0.000    0.000    0.000    0.000    0.000    0.000 
#
# Total GULP energy -94897.195394 kJ/mol
# GULP energy per Si atom -5582.187964 kJ/mol
# Density = 2.471150 g / cm^3
# Si number density = 24.767874 Si / 1000 Ang^3
#
#
#
# Elastic Constant Matrix: (Units=GPa)
#
#
# Indices 1 2 3 4 5 6 
#
# 1 41.1099 178.2759 40.5337 -53.5982 -0.0833 -0.1245
# 2 178.2759 41.1317 40.5817 53.5920 0.0901 0.1354
# 3 40.5337 40.5817 124.0147 -0.0092 0.0325 0.0475
# 4 -53.5982 53.5920 -0.0092 -15.7790 -0.0374 -0.0577
# 5 -0.0833 0.0901 0.0325 -0.0374 -15.7445 -53.5593
# 6 -0.1245 0.1354 0.0475 -0.0577 -53.5593 -68.5627
#
#
#
# Elastic Compliance Matrix: (Units=1/GPa)
#
#
# Indices 1 2 3 4 5 6 
#
# 1 0.004796 0.000389 -0.001696 -0.014967 0.000002 0.000002
# 2 0.000389 0.004796 -0.001695 0.014968 -0.000002 -0.000003
# 3 -0.001696 -0.001695 0.009173 -0.000003 0.000002 0.000005
# 4 -0.014967 0.014968 -0.000003 0.038304 0.000006 0.000020
# 5 0.000002 -0.000002 0.000002 0.000006 0.038322 -0.029936
# 6 0.000002 -0.000003 0.000005 0.000020 -0.029936 0.008800
#
#
# Mechanical properties :
#
#
# Convention : Reuss Voigt Hill
#
# Bulk Modulus (GPa) = 78.37133 80.55987 79.46560
# Shear Modulus (GPa) = 43.68785 -23.55960 10.06412
#
# Velocity S-wave (km/s) = 4.20443 -3.08752 2.01797
# Velocity P-wave (km/s) = 7.43510 4.45939 6.13053
#
# Compressibility (1/GPa) = 0.01275977
#
# Stress axis : x y z
#
# Youngs Moduli (GPa) = 208.52135 208.51122 109.01970
#
# Poissons Ratio (x) = -0.08113 0.18488
# Poissons Ratio (y) = -0.08113 0.18484
# Poissons Ratio (z) = 0.35363 0.35352
#
# Static dielectric constant tensor:
#      x y z
#    x 1.969050 -0.000040 0.000000 
#    y -0.000040 1.969070 0.000010 
#    z 0.000000 0.000010 2.016410 
# 
# From -- ./inp_files/1705.got.cif
#   From: 2010.05.17/outbox.cif.g08.bks.cpg/sg155_1_cif.got.tgz:1705.got - 2010.05.20 10:44:35.
