data_PCOD9577604
_publ_section_title
;
Structure prediction by ZEFSAII (Michael W. Deem and Ramdas Pophale) SiO2 
 PCOD9577604
Probable space group: R 3 C
;
_chemical_formula_sum "Si O2"
_cell_formula_units_Z 54
_cell_length_a 13.259326
_cell_length_b 13.259326
_cell_length_c 13.844085
_cell_angle_alpha 90.000000
_cell_angle_beta 90.000000
_cell_angle_gamma 120.000000
_cell_volume 2107.840699
_symmetry_space_group_name_H-M "R 3 C"
_symmetry_group_IT_number 161
_symmetry_cell_setting 'hexagonal'
loop_
_space_group_symop_operation_xyz
x,y,z
-y,x-y,z
-x+y,-x,z
-x+y,y,1/2+z
x,x-y,1/2+z
-y,-x,1/2+z
2/3+x,1/3+y,1/3+z
2/3-y,1/3+x-y,1/3+z
2/3-x+y,1/3-x,1/3+z
2/3-x+y,1/3+y,5/6+z
2/3+x,1/3+x-y,5/6+z
2/3-y,1/3-x,5/6+z
1/3+x,2/3+y,2/3+z
1/3-y,2/3+x-y,2/3+z
1/3-x+y,2/3-x,2/3+z
1/3-x+y,2/3+y,1/6+z
1/3+x,2/3+x-y,1/6+z
1/3-y,2/3-x,1/6+z
loop_
_atom_site_type_symbol
_atom_site_label
_atom_site_fract_x
_atom_site_fract_y
_atom_site_fract_z
Si Si1 0.309267 0.233614 0.533821
Si Si2 0.067318 0.151711 0.833293
Si Si3 0.008636 0.236380 0.499578
O O1 0.419016 0.233786 0.586509
O O2 0.212321 0.098183 0.536181
O O3 0.347855 0.273048 0.424601
O O4 0.294694 0.328577 0.593789
O O5 0.125088 0.069107 0.824476
O O6 0.117031 0.213813 0.936054
#
# Coordination Sequence:
#
# PCOD9577604 Si02
#       3
#    18  18  18
#     4  12  28  47  77 108 158 191 262 306 386 450
#     4  10  26  48  75 110 149 196 253 306 384 449
#     4  12  28  47  76 112 149 205 251 318 378 457
#
# _framework density 25.618632999999999
#
# number of rings (size 3 to 8) (size 9 to 14) (size 15 to 20)
#    0.667    0.000    3.333    2.000   14.000    0.000 
#    0.000    0.000    0.000    0.000    0.000    0.000 
#    0.000    0.000    0.000    0.000    0.000    0.000 
#
# Total GULP energy -100798.823344 kJ/mol
# GULP energy per Si atom -5599.934630 kJ/mol
# Density = 2.556032 g / cm^3
# Si number density = 25.618633 Si / 1000 Ang^3
#
#
#
# Elastic Constant Matrix: (Units=GPa)
#
#
# Indices 1 2 3 4 5 6 
#
# 1 96.4799 5.9494 24.9657 -8.5841 0.0000 0.0000
# 2 5.9494 96.4799 24.9657 8.5841 0.0000 0.0000
# 3 24.9657 24.9657 131.5824 0.0000 0.0000 0.0000
# 4 -8.5841 8.5841 0.0000 43.1246 0.0000 0.0000
# 5 0.0000 0.0000 0.0000 0.0000 43.1246 -8.5841
# 6 0.0000 0.0000 0.0000 0.0000 -8.5841 45.2653
#
#
#
# Elastic Compliance Matrix: (Units=1/GPa)
#
#
# Indices 1 2 3 4 5 6 
#
# 1 0.011119 -0.000361 -0.002041 0.002285 0.000000 0.000000
# 2 -0.000361 0.011119 -0.002041 -0.002285 0.000000 0.000000
# 3 -0.002041 -0.002041 0.008374 0.000000 0.000000 0.000000
# 4 0.002285 -0.002285 0.000000 0.024098 0.000000 0.000000
# 5 0.000000 0.000000 0.000000 0.000000 0.024098 0.004570
# 6 0.000000 0.000000 0.000000 0.000000 0.004570 0.022959
#
#
# Mechanical properties :
#
#
# Convention : Reuss Voigt Hill
#
# Bulk Modulus (GPa) = 46.02888 48.47817 47.25352
# Shear Modulus (GPa) = 42.41075 44.21363 43.31219
#
# Velocity S-wave (km/s) = 4.07315 4.15883 4.11621
# Velocity P-wave (km/s) = 6.33457 6.48269 6.40906
#
# Compressibility (1/GPa) = 0.02172549
#
# Stress axis : x y z
#
# Youngs Moduli (GPa) = 89.93957 89.93957 119.41232
#
# Poissons Ratio (x) = 0.03245 0.24374
# Poissons Ratio (y) = 0.03245 0.24374
# Poissons Ratio (z) = 0.18358 0.18358
#
# Static dielectric constant tensor:
#      x y z
#    x 2.037780 0.000000 0.000000 
#    y 0.000000 2.037780 0.000000 
#    z 0.000000 0.000000 1.956180 
# 
# From -- ./inp_files/507.got.cif
#   From: 2010.05.17/outbox.cif.g08.bks.cpg/sg161_cif.got.tgz:507.got - 2010.05.20 10:52:32.
