data_PCOD9577159
_publ_section_title
;
Structure prediction by ZEFSAII (Michael W. Deem and Ramdas Pophale) SiO2 
 PCOD9577159
Probable space group: R 3 2
;
_chemical_formula_sum "Si O2"
_cell_formula_units_Z 69
_cell_length_a 20.561588
_cell_length_b 20.561588
_cell_length_c 8.760704
_cell_angle_alpha 90.000000
_cell_angle_beta 90.000000
_cell_angle_gamma 120.000000
_cell_volume 3207.620233
_symmetry_space_group_name_H-M "R 3 2"
_symmetry_group_IT_number 155
_symmetry_cell_setting 'hexagonal'
loop_
_space_group_symop_operation_xyz
x,y,z
-y,x-y,z
-x+y,-x,z
x-y,-y,-z
-x,-x+y,-z
y,x,-z
2/3+x,1/3+y,1/3+z
2/3-y,1/3+x-y,1/3+z
2/3-x+y,1/3-x,1/3+z
2/3+x-y,1/3-y,1/3-z
2/3-x,1/3-x+y,1/3-z
2/3+y,1/3+x,1/3-z
1/3+x,2/3+y,2/3+z
1/3-y,2/3+x-y,2/3+z
1/3-x+y,2/3-x,2/3+z
1/3+x-y,2/3-y,2/3-z
1/3-x,2/3-x+y,2/3-z
1/3+y,2/3+x,2/3-z
loop_
_atom_site_type_symbol
_atom_site_label
_atom_site_fract_x
_atom_site_fract_y
_atom_site_fract_z
Si Si1 0.218522 0.703711 0.439706
Si Si2 0.507524 0.581780 0.108018
Si Si3 0.865937 0.117733 0.222902
Si Si4 0.333334 0.666668 0.853372
Si Si5 0.666667 0.493980 0.333334
O O1 0.234660 0.767088 0.317550
O O2 0.134264 0.638688 0.465224
O O3 0.255749 0.652130 0.409569
O O4 0.268930 0.754009 0.580852
O O5 0.562173 0.666667 0.166667
O O6 0.473516 0.541166 0.267093
O O7 0.549989 0.549989 0.000000
O O8 0.809293 0.142627 0.166667
O O9 0.946639 0.166553 0.130721
O O10 0.333334 0.666668 0.666667
#
# Coordination Sequence:
#
# PCOD9577159 Si02
#       5
#    18  18  18   6   9
#     4  12  23  45  76 116 156 202 262 326 404 474
#     4  12  27  50  72 107 155 211 265 334 399 480
#     4  12  27  46  76 113 156 205 263 326 407 485
#     4  12  18  36  76 113 154 196 254 322 393 466
#     4  12  22  44  78 112 160 202 260 326 392 484
#
# _framework density 21.511275999999999
#
# number of rings (size 3 to 8) (size 9 to 14) (size 15 to 20)
#    0.000    0.000    6.522    3.130    0.000    1.043 
#    2.348    5.217    0.000    0.000    0.000    0.000 
#    0.000    0.000    0.000    0.000    0.000    0.000 
#
# Total GULP energy -128161.506372 kJ/mol
# GULP energy per Si atom -5572.239407 kJ/mol
# Density = 2.146232 g / cm^3
# Si number density = 21.511276 Si / 1000 Ang^3
#
#
#
# Elastic Constant Matrix: (Units=GPa)
#
#
# Indices 1 2 3 4 5 6 
#
# 1 144.1455 69.1680 73.9862 5.5810 0.0028 0.0007
# 2 69.1680 144.1427 73.9824 -5.5795 -0.0020 0.0004
# 3 73.9862 73.9824 168.7693 0.0025 0.0017 0.0019
# 4 5.5810 -5.5795 0.0025 12.5637 -0.0018 -0.0003
# 5 0.0028 -0.0020 0.0017 -0.0018 12.5632 5.5801
# 6 0.0007 0.0004 0.0019 -0.0003 5.5801 37.4879
#
#
#
# Elastic Compliance Matrix: (Units=1/GPa)
#
#
# Indices 1 2 3 4 5 6 
#
# 1 0.010509 -0.003773 -0.002953 -0.006343 -0.000004 0.000000
# 2 -0.003773 0.010509 -0.002953 0.006344 0.000004 0.000000
# 3 -0.002953 -0.002953 0.008514 -0.000001 -0.000001 0.000000
# 4 -0.006343 0.006344 -0.000001 0.085229 0.000015 -0.000002
# 5 -0.000004 0.000004 -0.000001 0.000015 0.085232 -0.012687
# 6 0.000000 0.000000 0.000000 -0.000002 -0.012687 0.028564
#
#
# Mechanical properties :
#
#
# Convention : Reuss Voigt Hill
#
# Bulk Modulus (GPa) = 98.28111 99.03675 98.65893
# Shear Modulus (GPa) = 19.89597 28.51769 24.20683
#
# Velocity S-wave (km/s) = 3.04453 3.64498 3.35820
# Velocity P-wave (km/s) = 7.62537 7.99086 7.81025
#
# Compressibility (1/GPa) = 0.01017489
#
# Stress axis : x y z
#
# Youngs Moduli (GPa) = 95.15544 95.15528 117.44849
#
# Poissons Ratio (x) = 0.35899 0.34684
# Poissons Ratio (y) = 0.35899 0.34683
# Poissons Ratio (z) = 0.28101 0.28100
#
# Static dielectric constant tensor:
#      x y z
#    x 1.875720 0.000000 0.000000 
#    y 0.000000 1.875720 0.000080 
#    z 0.000000 0.000080 4.007490 
# 
# From -- ./inp_files/2188.got.cif
#   From: 2010.05.17/outbox.cif.g08.bks.cpg/sg155_2_cif.got.tgz:2188.got - 2010.05.20 10:44:35.
