data_PCOD9577890
_publ_section_title
;
Structure prediction by ZEFSAII (Michael W. Deem and Ramdas Pophale) SiO2 
 PCOD9577890
Probable space group: P -3 1 M 
;
_chemical_formula_sum "Si O2"
_cell_formula_units_Z 36
_cell_length_a 12.853787
_cell_length_b 12.853787
_cell_length_c 14.172542
_cell_angle_alpha 90.000000
_cell_angle_beta 90.000000
_cell_angle_gamma 120.000000
_cell_volume 2027.872203
_symmetry_space_group_name_H-M "P -3 1 M "
_symmetry_group_IT_number 162
_symmetry_cell_setting 'hexagonal'
loop_
_space_group_symop_operation_xyz
x,y,z
-y,x-y,z
-x+y,-x,z
-y,-x,-z
-x+y,y,-z
x,x-y,-z
-x,-y,-z
y,-x+y,-z
x-y,x,-z
y,x,z
x-y,-y,z
-x,-x+y,z
loop_
_atom_site_type_symbol
_atom_site_label
_atom_site_fract_x
_atom_site_fract_y
_atom_site_fract_z
Si Si1 0.861277 0.723172 0.611903
Si Si2 0.483398 0.767246 0.273488
Si Si3 0.857852 0.534765 0.060876
O O1 0.848014 0.696028 0.500000
O O2 0.824602 0.824602 0.627141
O O3 0.770462 0.605392 0.669633
O O4 0.000000 0.773948 0.638509
O O5 0.375695 0.794523 0.295462
O O6 0.504157 0.794568 0.162407
O O7 0.000000 0.615861 0.073617
O O8 0.797807 0.595614 0.000000
O O9 0.836059 0.418030 0.000000
#
# Coordination Sequence:
#
# PCOD9577890 Si02
#       3
#    12  12  12
#     4  10  22  40  61  84 113 153 199 246 297 354
#     4  10  21  37  57  84 120 150 192 236 295 357
#     4  11  20  35  57  82 114 151 193 237 286 348
#
# _framework density 17.752599
#
# number of rings (size 3 to 8) (size 9 to 14) (size 15 to 20)
#    0.667    1.000    3.333    1.667    0.000    6.667 
#    0.000    3.333    0.000    0.333    0.000    0.000 
#    0.000    0.000    0.000    0.000    0.000    0.000 
#
# Total GULP energy -200573.385637 kJ/mol
# GULP energy per Si atom -5571.482934 kJ/mol
# Density = 1.771219 g / cm^3
# Si number density = 17.752599 Si / 1000 Ang^3
#
#
#
# Elastic Constant Matrix: (Units=GPa)
#
#
# Indices 1 2 3 4 5 6 
#
# 1 87.4337 30.1119 38.4245 0.0002 5.6395 0.0000
# 2 30.1119 87.4337 38.4245 -0.0002 -5.6395 0.0000
# 3 38.4245 38.4245 54.8659 0.0000 0.0000 0.0000
# 4 0.0002 -0.0002 0.0000 13.3201 0.0000 -5.6395
# 5 5.6395 -5.6395 0.0000 0.0000 13.3201 0.0002
# 6 0.0000 0.0000 0.0000 -5.6395 0.0002 28.6609
#
#
#
# Elastic Compliance Matrix: (Units=1/GPa)
#
#
# Indices 1 2 3 4 5 6 
#
# 1 0.017362 -0.001669 -0.010990 0.000000 -0.008057 0.000000
# 2 -0.001669 0.017362 -0.010990 0.000000 0.008057 0.000000
# 3 -0.010990 -0.010990 0.033619 0.000000 0.000000 0.000000
# 4 0.000000 0.000000 0.000000 0.081897 0.000000 0.016115
# 5 -0.008057 0.008057 0.000000 0.000000 0.081897 0.000000
# 6 0.000000 0.000000 0.000000 0.016115 0.000000 0.038062
#
#
# Mechanical properties :
#
#
# Convention : Reuss Voigt Hill
#
# Bulk Modulus (GPa) = 47.51821 49.29502 48.40661
# Shear Modulus (GPa) = 15.40779 19.24505 17.32642
#
# Velocity S-wave (km/s) = 2.94924 3.29609 3.12748
# Velocity P-wave (km/s) = 6.19858 6.50490 6.35358
#
# Compressibility (1/GPa) = 0.02104456
#
# Stress axis : x y z
#
# Youngs Moduli (GPa) = 57.59861 57.59861 29.74478
#
# Poissons Ratio (x) = 0.09615 0.32689
# Poissons Ratio (y) = 0.09615 0.32689
# Poissons Ratio (z) = 0.63300 0.63300
#
# Static dielectric constant tensor:
#      x y z
#    x 1.611670 0.000000 0.000000 
#    y 0.000000 1.611670 0.000000 
#    z 0.000000 0.000000 1.585840 
# 
# From -- ./inp_files/2718.got.cif
#   From: 2010.05.17/outbox.cif.g08.bks.cpg/sg162_2_cif.got.tgz:2718.got - 2010.05.20 10:53:12.
