data_PCOD9577753
_publ_section_title
;
Structure prediction by ZEFSAII (Michael W. Deem and Ramdas Pophale) SiO2 
 PCOD9577753
Probable space group: P -3 1 M 
;
_chemical_formula_sum "Si O2"
_cell_formula_units_Z 84
_cell_length_a 18.024897
_cell_length_b 18.024897
_cell_length_c 16.240766
_cell_angle_alpha 90.000000
_cell_angle_beta 90.000000
_cell_angle_gamma 120.000000
_cell_volume 4569.647752
_symmetry_space_group_name_H-M "P -3 1 M "
_symmetry_group_IT_number 162
_symmetry_cell_setting 'hexagonal'
loop_
_space_group_symop_operation_xyz
x,y,z
-y,x-y,z
-x+y,-x,z
-y,-x,-z
-x+y,y,-z
x,x-y,-z
-x,-y,-z
y,-x+y,-z
x-y,x,-z
y,x,z
x-y,-y,z
-x,-x+y,z
loop_
_atom_site_type_symbol
_atom_site_label
_atom_site_fract_x
_atom_site_fract_y
_atom_site_fract_z
Si Si1 0.210908 0.311957 0.577941
Si Si2 0.901756 0.259639 0.662625
Si Si3 0.102693 0.468699 0.993620
Si Si4 0.894995 0.406906 0.584709
Si Si5 0.268817 0.370352 0.843818
Si Si6 0.545788 0.898845 0.680073
Si Si7 0.257520 0.356205 0.148254
O O1 0.155393 0.310785 0.500000
O O2 0.243113 0.243113 0.573954
O O3 0.148424 0.306022 0.651745
O O4 0.295292 0.402077 0.601094
O O5 0.866669 0.309172 0.605790
O O6 0.900912 0.284178 0.757186
O O7 0.000000 0.296224 0.637600
O O8 0.130146 0.434798 0.914813
O O9 0.000000 0.424584 0.982771
O O10 0.139238 0.569619 0.000000
O O11 0.115293 0.429440 0.077241
O O12 0.870019 0.435010 0.500000
O O13 0.865009 0.448515 0.655931
O O14 0.000000 0.456688 0.584863
O O15 0.304889 0.304889 0.835205
O O16 0.296311 0.429836 0.761924
O O17 0.167367 0.324834 0.856172
O O18 0.586508 0.000000 0.695632
O O19 0.286821 0.286821 0.128290
#
# Coordination Sequence:
#
# PCOD9577753 Si02
#       7
#    12  12  12  12  12  12  12
#     4  11  21  35  55  81 114 152 198 248 297 346
#     4  10  20  33  53  80 111 147 191 245 292 337
#     4   9  19  33  54  83 111 137 171 224 285 348
#     4   9  17  30  49  74 102 130 172 231 290 342
#     4  10  19  34  56  82 114 152 193 239 292 343
#     4   9  18  31  51  79 108 141 183 231 284 350
#     4  10  20  34  53  83 117 151 195 242 287 339
#
# _framework density 18.382161
#
# number of rings (size 3 to 8) (size 9 to 14) (size 15 to 20)
#    0.000    2.286    1.429    1.714    2.000    2.286 
#    0.000    0.000    0.000    5.714    3.714    2.000 
#    0.000    3.429    0.000    0.000    0.000    0.000 
#
# Total GULP energy -467608.688072 kJ/mol
# GULP energy per Si atom -5566.770096 kJ/mol
# Density = 1.834032 g / cm^3
# Si number density = 18.382161 Si / 1000 Ang^3
#
#
#
# Elastic Constant Matrix: (Units=GPa)
#
#
# Indices 1 2 3 4 5 6 
#
# 1 80.8342 40.4738 26.4323 0.0000 3.3490 0.0000
# 2 40.4738 80.8342 26.4323 0.0000 -3.3490 0.0000
# 3 26.4323 26.4323 87.8107 0.0000 0.0000 0.0000
# 4 0.0000 0.0000 0.0000 14.8758 0.0000 -3.3490
# 5 3.3490 -3.3490 0.0000 0.0000 14.8758 0.0000
# 6 0.0000 0.0000 0.0000 -3.3490 0.0000 20.1802
#
#
#
# Elastic Compliance Matrix: (Units=1/GPa)
#
#
# Indices 1 2 3 4 5 6 
#
# 1 0.017613 -0.008125 -0.002856 0.000000 -0.005794 0.000000
# 2 -0.008125 0.017613 -0.002856 0.000000 0.005794 0.000000
# 3 -0.002856 -0.002856 0.013108 0.000000 0.000000 0.000000
# 4 0.000000 0.000000 0.000000 0.069832 0.000000 0.011589
# 5 -0.005794 0.005794 0.000000 0.000000 0.069832 0.000000
# 6 0.000000 0.000000 0.000000 0.011589 0.000000 0.051477
#
#
# Mechanical properties :
#
#
# Convention : Reuss Voigt Hill
#
# Bulk Modulus (GPa) = 48.40376 48.46177 48.43277
# Shear Modulus (GPa) = 18.24573 20.39572 19.32072
#
# Velocity S-wave (km/s) = 3.15394 3.33459 3.24552
# Velocity P-wave (km/s) = 6.29700 6.42236 6.35999
#
# Compressibility (1/GPa) = 0.02065955
#
# Stress axis : x y z
#
# Youngs Moduli (GPa) = 56.77538 56.77538 76.29186
#
# Poissons Ratio (x) = 0.46131 0.21789
# Poissons Ratio (y) = 0.46131 0.21789
# Poissons Ratio (z) = 0.16215 0.16215
#
# Static dielectric constant tensor:
#      x y z
#    x 1.653980 0.000000 0.000000 
#    y 0.000000 1.653980 0.000000 
#    z 0.000000 0.000000 1.698720 
# 
# From -- ./inp_files/3176.got.cif
#   From: 2010.05.17/outbox.cif.g08.bks.cpg/sg162_2_cif.got.tgz:3176.got - 2010.05.20 10:53:12.
