data_PCOD9577034
_publ_section_title
;
Structure prediction by ZEFSAII (Michael W. Deem and Ramdas Pophale) SiO2 
 PCOD9577034
Probable space group: R 3 2
;
_chemical_formula_sum "Si O2"
_cell_formula_units_Z 54
_cell_length_a 14.374140
_cell_length_b 14.374140
_cell_length_c 15.657337
_cell_angle_alpha 90.000000
_cell_angle_beta 90.000000
_cell_angle_gamma 120.000000
_cell_volume 2801.639629
_symmetry_space_group_name_H-M "R 3 2"
_symmetry_group_IT_number 155
_symmetry_cell_setting 'hexagonal'
loop_
_space_group_symop_operation_xyz
x,y,z
-y,x-y,z
-x+y,-x,z
x-y,-y,-z
-x,-x+y,-z
y,x,-z
2/3+x,1/3+y,1/3+z
2/3-y,1/3+x-y,1/3+z
2/3-x+y,1/3-x,1/3+z
2/3+x-y,1/3-y,1/3-z
2/3-x,1/3-x+y,1/3-z
2/3+y,1/3+x,1/3-z
1/3+x,2/3+y,2/3+z
1/3-y,2/3+x-y,2/3+z
1/3-x+y,2/3-x,2/3+z
1/3+x-y,2/3-y,2/3-z
1/3-x,2/3-x+y,2/3-z
1/3+y,2/3+x,2/3-z
loop_
_atom_site_type_symbol
_atom_site_label
_atom_site_fract_x
_atom_site_fract_y
_atom_site_fract_z
Si Si1 0.881794 0.283654 0.463328
Si Si2 0.294131 0.244405 0.763628
Si Si3 0.389679 0.213524 0.295408
O O1 0.789384 0.204112 0.527400
O O2 0.864483 0.217252 0.376435
O O3 0.878624 0.389016 0.432333
O O4 0.000000 0.326636 0.500000
O O5 0.333334 0.244930 0.666667
O O6 0.377129 0.333334 0.833334
O O7 0.212138 0.288544 0.748232
O O8 0.463119 0.333334 0.333334
#
# Coordination Sequence:
#
# PCOD9577034 Si02
#       3
#    18  18  18
#     4  11  24  40  66 107 138 176 238 292 347 425
#     4  11  21  43  70  97 133 191 224 280 364 415
#     4  10  22  45  68  97 137 188 234 289 360 414
#
# _framework density 19.274428
#
# number of rings (size 3 to 8) (size 9 to 14) (size 15 to 20)
#    0.000    1.333    6.667    1.000    4.667    0.000 
#    8.000    0.000    0.000    0.667   26.000    0.000 
#    0.000    0.000    0.000    0.000    0.000    0.000 
#
# Total GULP energy -100266.925048 kJ/mol
# GULP energy per Si atom -5570.384725 kJ/mol
# Density = 1.923056 g / cm^3
# Si number density = 19.274428 Si / 1000 Ang^3
#
#
#
# Elastic Constant Matrix: (Units=GPa)
#
#
# Indices 1 2 3 4 5 6 
#
# 1 122.5386 60.1630 64.0596 4.9714 -0.0001 0.0000
# 2 60.1630 122.5386 64.0596 -4.9714 0.0001 0.0000
# 3 64.0596 64.0596 160.6555 0.0000 0.0000 0.0000
# 4 4.9714 -4.9714 0.0000 52.0045 0.0000 0.0001
# 5 -0.0001 0.0001 0.0000 0.0000 52.0045 4.9714
# 6 0.0000 0.0000 0.0000 0.0001 4.9714 31.1878
#
#
#
# Elastic Compliance Matrix: (Units=1/GPa)
#
#
# Indices 1 2 3 4 5 6 
#
# 1 0.011939 -0.004341 -0.003030 -0.001556 0.000000 0.000000
# 2 -0.004341 0.011939 -0.003030 0.001556 0.000000 0.000000
# 3 -0.003030 -0.003030 0.008641 0.000000 0.000000 0.000000
# 4 -0.001556 0.001556 0.000000 0.019527 0.000000 0.000000
# 5 0.000000 0.000000 0.000000 0.000000 0.019527 -0.003113
# 6 0.000000 0.000000 0.000000 0.000000 -0.003113 0.032560
#
#
# Mechanical properties :
#
#
# Convention : Reuss Voigt Hill
#
# Bulk Modulus (GPa) = 85.33879 86.92191 86.13035
# Shear Modulus (GPa) = 38.80839 41.53606 40.17222
#
# Velocity S-wave (km/s) = 4.49203 4.64722 4.57028
# Velocity P-wave (km/s) = 8.44253 8.60177 8.52252
#
# Compressibility (1/GPa) = 0.01171800
#
# Stress axis : x y z
#
# Youngs Moduli (GPa) = 83.75949 83.75949 115.73370
#
# Poissons Ratio (x) = 0.36360 0.35062
# Poissons Ratio (y) = 0.36360 0.35062
# Poissons Ratio (z) = 0.25376 0.25376
#
# Static dielectric constant tensor:
#      x y z
#    x 1.675560 0.000000 0.000000 
#    y 0.000000 1.675560 0.000000 
#    z 0.000000 0.000000 1.769730 
# 
# From -- ./inp_files/4642.got.cif
#   From: 2010.05.17/outbox.cif.g08.bks.cpg/sg155_3_cif.got.tgz:4642.got - 2010.05.20 10:44:35.
