data_PCOD9577649
_publ_section_title
;
Structure prediction by ZEFSAII (Michael W. Deem and Ramdas Pophale) SiO2 
 PCOD9577649
Probable space group: P -3 1 M 
;
_chemical_formula_sum "Si O2"
_cell_formula_units_Z 52
_cell_length_a 14.015646
_cell_length_b 14.015646
_cell_length_c 14.554080
_cell_angle_alpha 90.000000
_cell_angle_beta 90.000000
_cell_angle_gamma 120.000000
_cell_volume 2475.948625
_symmetry_space_group_name_H-M "P -3 1 M "
_symmetry_group_IT_number 162
_symmetry_cell_setting 'hexagonal'
loop_
_space_group_symop_operation_xyz
x,y,z
-y,x-y,z
-x+y,-x,z
-y,-x,-z
-x+y,y,-z
x,x-y,-z
-x,-y,-z
y,-x+y,-z
x-y,x,-z
y,x,z
x-y,-y,z
-x,-x+y,z
loop_
_atom_site_type_symbol
_atom_site_label
_atom_site_fract_x
_atom_site_fract_y
_atom_site_fract_z
Si Si1 0.557276 0.431235 0.602103
Si Si2 0.745138 0.873824 0.776973
Si Si3 0.352459 0.123209 0.591496
Si Si4 0.474115 0.341590 0.792391
Si Si5 0.666668 0.333334 0.108876
O O1 0.588418 0.411583 0.500000
O O2 0.460484 0.460484 0.587175
O O3 0.665364 0.541953 0.635010
O O4 0.514006 0.346815 0.685996
O O5 0.791240 0.791240 0.798546
O O6 0.715080 0.860177 0.668405
O O7 0.628703 0.850552 0.818334
O O8 0.835223 0.000000 0.797238
O O9 0.387046 0.193523 0.500000
O O10 0.272891 0.000000 0.557743
O O11 0.427234 0.427234 0.798461
O O12 0.578780 0.366307 0.852833
O O13 0.666668 0.333334 0.000000
#
# Coordination Sequence:
#
# PCOD9577649 Si02
#       5
#    12  12  12  12   4
#     4   9  17  30  51  80 115 157 200 241 294 362
#     4  10  20  35  57  84 116 155 198 246 302 368
#     4  10  18  27  42  68 107 154 201 249 296 346
#     4  10  22  41  63  90 125 162 203 254 312 371
#     4  12  27  45  67  95 124 159 210 264 313 371
#
# _framework density 21.002051999999999
#
# number of rings (size 3 to 8) (size 9 to 14) (size 15 to 20)
#    0.000    2.077    0.000    3.692    0.000    6.923 
#    0.000    0.000    0.000    5.538    0.000    0.000 
#    0.000    4.615    0.000    0.000    0.000    0.000 
#
# Total GULP energy -289983.672561 kJ/mol
# GULP energy per Si atom -5576.609088 kJ/mol
# Density = 2.095425 g / cm^3
# Si number density = 21.002052 Si / 1000 Ang^3
#
#
#
# Elastic Constant Matrix: (Units=GPa)
#
#
# Indices 1 2 3 4 5 6 
#
# 1 82.6191 24.7116 25.9903 0.0002 0.8885 0.0002
# 2 24.7116 82.6195 25.9900 0.0002 -0.8887 0.0002
# 3 25.9903 25.9900 75.2955 0.0005 0.0003 -0.0002
# 4 0.0002 0.0002 0.0005 12.3959 0.0000 -0.8887
# 5 0.8885 -0.8887 0.0003 0.0000 12.3961 0.0000
# 6 0.0002 0.0002 -0.0002 -0.8887 0.0000 28.9538
#
#
#
# Elastic Compliance Matrix: (Units=1/GPa)
#
#
# Indices 1 2 3 4 5 6 
#
# 1 0.014247 -0.003060 -0.003862 0.000000 -0.001240 0.000000
# 2 -0.003060 0.014247 -0.003861 0.000000 0.001241 0.000000
# 3 -0.003862 -0.003861 0.015947 -0.000001 0.000000 0.000000
# 4 0.000000 0.000000 -0.000001 0.080850 0.000000 0.002482
# 5 -0.001240 0.001241 0.000000 0.000000 0.080849 0.000000
# 6 0.000000 0.000000 0.000000 0.002482 0.000000 0.034614
#
#
# Mechanical properties :
#
#
# Convention : Reuss Voigt Hill
#
# Bulk Modulus (GPa) = 43.71589 43.76864 43.74226
# Shear Modulus (GPa) = 18.52236 21.67197 20.09716
#
# Velocity S-wave (km/s) = 2.97295 3.21580 3.09676
# Velocity P-wave (km/s) = 5.71357 5.88846 5.80167
#
# Compressibility (1/GPa) = 0.02287498
#
# Stress axis : x y z
#
# Youngs Moduli (GPa) = 70.18980 70.19032 62.70845
#
# Poissons Ratio (x) = 0.21478 0.24215
# Poissons Ratio (y) = 0.21478 0.24215
# Poissons Ratio (z) = 0.27104 0.27104
#
# Static dielectric constant tensor:
#      x y z
#    x 1.815520 0.000000 0.000000 
#    y 0.000000 1.815520 0.000000 
#    z 0.000000 0.000000 1.750460 
# 
# From -- ./inp_files/2889.got.cif
#   From: 2010.05.17/outbox.cif.g08.bks.cpg/sg162_2_cif.got.tgz:2889.got - 2010.05.20 10:53:12.
