data_PCOD9577252
_publ_section_title
;
Structure prediction by ZEFSAII (Michael W. Deem and Ramdas Pophale) SiO2 
 PCOD9577252
Probable space group: P 3 1 M
;
_chemical_formula_sum "Si O2"
_cell_formula_units_Z 42
_cell_length_a 14.173440
_cell_length_b 14.173440
_cell_length_c 11.876259
_cell_angle_alpha 90.000000
_cell_angle_beta 90.000000
_cell_angle_gamma 120.000000
_cell_volume 2066.145164
_symmetry_space_group_name_H-M "P 3 1 M"
_symmetry_group_IT_number 157
_symmetry_cell_setting 'hexagonal'
loop_
_space_group_symop_operation_xyz
x,y,z
-y,x-y,z
-x+y,-x,z
y,x,z
x-y,-y,z
-x,-x+y,z
loop_
_atom_site_type_symbol
_atom_site_label
_atom_site_fract_x
_atom_site_fract_y
_atom_site_fract_z
Si Si1 0.459489 0.328894 0.945080
Si Si2 0.530978 0.718182 0.582802
Si Si3 0.398818 0.522745 0.440853
Si Si4 0.868150 0.541690 0.203024
Si Si5 0.663560 0.532755 0.828408
Si Si6 0.249576 0.124085 0.281658
Si Si7 0.883528 0.764444 0.551873
O O1 0.364760 0.364760 0.940025
O O2 0.566065 0.429034 0.890496
O O3 0.433444 0.214447 0.886176
O O4 0.491952 0.326797 0.075523
O O5 0.503354 0.628319 0.487903
O O6 0.494141 0.797911 0.526509
O O7 0.487944 0.665824 0.703442
O O8 0.658327 0.789143 0.605920
O O9 0.422407 0.422407 0.445513
O O10 0.371064 0.535752 0.312228
O O11 0.836519 0.632633 0.233511
O O12 0.000000 0.601965 0.201922
O O13 0.624032 0.624032 0.825704
O O14 0.169968 0.169968 0.247674
O O15 0.255817 0.131098 0.417454
O O16 0.199849 0.000000 0.247850
O O17 0.865205 0.865205 0.570250
O O18 0.000000 0.790129 0.592532
#
# Coordination Sequence:
#
# PCOD9577252 Si02
#       7
#     6   6   6   6   6   6   6
#     4  10  23  44  68  91 122 165 210 265 322 365
#     4  12  23  38  60  88 120 159 204 247 303 366
#     4  11  23  40  61  89 125 157 193 248 309 368
#     4   9  19  38  60  86 120 157 199 246 304 372
#     4  11  24  42  65  94 122 162 219 264 307 373
#     4   9  16  29  52  85 124 162 197 234 287 360
#     4  10  19  33  54  85 123 162 197 236 290 358
#
# _framework density 20.32771
#
# number of rings (size 3 to 8) (size 9 to 14) (size 15 to 20)
#    0.000    1.714    1.429    3.429    0.000    5.143 
#    0.000    0.000    0.000    0.286    0.000    0.000 
#    0.000    0.000    0.000    0.000    0.000    0.000 
#
# Total GULP energy -234233.837886 kJ/mol
# GULP energy per Si atom -5576.996140 kJ/mol
# Density = 2.028144 g / cm^3
# Si number density = 20.327710 Si / 1000 Ang^3
#
#
#
# Elastic Constant Matrix: (Units=GPa)
#
#
# Indices 1 2 3 4 5 6 
#
# 1 67.1434 8.9642 16.2115 0.0000 4.6261 0.0000
# 2 8.9642 67.1434 16.2115 0.0000 -4.6261 0.0000
# 3 16.2115 16.2115 93.6373 0.0000 0.0000 0.0000
# 4 0.0000 0.0000 0.0000 18.9294 0.0000 -4.6261
# 5 4.6261 -4.6261 0.0000 0.0000 18.9294 0.0000
# 6 0.0000 0.0000 0.0000 -4.6261 0.0000 29.0896
#
#
#
# Elastic Compliance Matrix: (Units=1/GPa)
#
#
# Indices 1 2 3 4 5 6 
#
# 1 0.016034 -0.001849 -0.002456 0.000000 -0.004370 0.000000
# 2 -0.001849 0.016034 -0.002456 0.000000 0.004370 0.000000
# 3 -0.002456 -0.002456 0.011530 0.000000 0.000000 0.000000
# 4 0.000000 0.000000 0.000000 0.054964 0.000000 0.008741
# 5 -0.004370 0.004370 0.000000 0.000000 0.054964 0.000000
# 6 0.000000 0.000000 0.000000 0.008741 0.000000 0.035767
#
#
# Mechanical properties :
#
#
# Convention : Reuss Voigt Hill
#
# Bulk Modulus (GPa) = 33.24773 34.52203 33.88488
# Shear Modulus (GPa) = 23.49174 25.82548 24.65861
#
# Velocity S-wave (km/s) = 3.40317 3.56821 3.48667
# Velocity P-wave (km/s) = 5.64212 5.83059 5.73713
#
# Compressibility (1/GPa) = 0.03007724
#
# Stress axis : x y z
#
# Youngs Moduli (GPa) = 62.36574 62.36574 86.73094
#
# Poissons Ratio (x) = 0.11531 0.21301
# Poissons Ratio (y) = 0.11531 0.21301
# Poissons Ratio (z) = 0.15317 0.15317
#
# Static dielectric constant tensor:
#      x y z
#    x 1.756730 0.000000 0.000000 
#    y 0.000000 1.756730 0.000000 
#    z 0.000000 0.000000 1.732890 
# 
# From -- ./inp_files/570.got.cif
#   From: 2010.05.17/outbox.cif.g08.bks.cpg/sg157_cif.got.tgz:570.got - 2010.05.20 10:49:36.
