data_PCOD9577617
_publ_section_title
;
Structure prediction by ZEFSAII (Michael W. Deem and Ramdas Pophale) SiO2 
 PCOD9577617
Probable space group: R 3 C
;
_chemical_formula_sum "Si O2"
_cell_formula_units_Z 84
_cell_length_a 15.204491
_cell_length_b 15.204491
_cell_length_c 18.258734
_cell_angle_alpha 90.000000
_cell_angle_beta 90.000000
_cell_angle_gamma 120.000000
_cell_volume 3655.485496
_symmetry_space_group_name_H-M "R 3 C"
_symmetry_group_IT_number 161
_symmetry_cell_setting 'hexagonal'
loop_
_space_group_symop_operation_xyz
x,y,z
-y,x-y,z
-x+y,-x,z
-x+y,y,1/2+z
x,x-y,1/2+z
-y,-x,1/2+z
2/3+x,1/3+y,1/3+z
2/3-y,1/3+x-y,1/3+z
2/3-x+y,1/3-x,1/3+z
2/3-x+y,1/3+y,5/6+z
2/3+x,1/3+x-y,5/6+z
2/3-y,1/3-x,5/6+z
1/3+x,2/3+y,2/3+z
1/3-y,2/3+x-y,2/3+z
1/3-x+y,2/3-x,2/3+z
1/3-x+y,2/3+y,1/6+z
1/3+x,2/3+x-y,1/6+z
1/3-y,2/3-x,1/6+z
loop_
_atom_site_type_symbol
_atom_site_label
_atom_site_fract_x
_atom_site_fract_y
_atom_site_fract_z
Si Si1 0.163434 0.455191 0.110367
Si Si2 0.333334 0.666667 0.846132
Si Si3 0.455193 0.291784 0.572839
Si Si4 0.666668 0.333334 0.337069
Si Si5 0.947314 0.699598 0.376988
Si Si6 0.032959 0.613989 0.472886
O O1 0.261033 0.554425 0.139735
O O2 0.072670 0.426126 0.167433
O O3 0.196546 0.371803 0.093036
O O4 0.120760 0.469053 0.033039
O O5 0.221101 0.626773 0.876800
O O6 0.333334 0.666667 0.758267
O O7 0.469046 0.348316 0.650167
O O8 0.426111 0.353472 0.515777
O O9 0.371826 0.175278 0.590176
O O10 0.039781 0.706438 0.424930
#
# Coordination Sequence:
#
# PCOD9577617 Si02
#       6
#    18   6  18   6  18  18
#     4  11  26  45  75 108 144 197 247 308 374 456
#     4  12  27  49  77 106 150 190 251 307 375 444
#     4  11  26  45  75 108 144 197 247 308 374 456
#     4  12  27  49  77 106 150 190 251 307 375 444
#     4  11  25  46  72 105 150 191 248 308 377 446
#     4  11  25  46  72 105 150 191 248 308 377 446
#
# _framework density 22.979164999999998
#
# number of rings (size 3 to 8) (size 9 to 14) (size 15 to 20)
#    0.000    0.857    0.000    5.143   12.000    1.714 
#    0.000    0.000    0.000    0.000    0.000    0.000 
#    0.000    0.000    0.000    0.000    0.000    0.000 
#
# Total GULP energy -156743.436443 kJ/mol
# GULP energy per Si atom -5597.979873 kJ/mol
# Density = 2.292686 g / cm^3
# Si number density = 22.979165 Si / 1000 Ang^3
#
#
#
# Elastic Constant Matrix: (Units=GPa)
#
#
# Indices 1 2 3 4 5 6 
#
# 1 109.4231 34.1170 58.5947 -3.5290 0.0000 0.0000
# 2 34.1170 109.4209 58.5941 3.5293 0.0000 0.0000
# 3 58.5947 58.5941 143.3512 0.0003 0.0000 0.0000
# 4 -3.5290 3.5293 0.0003 38.1503 0.0000 0.0000
# 5 0.0000 0.0000 0.0000 0.0000 38.1501 -3.5292
# 6 0.0000 0.0000 0.0000 0.0000 -3.5292 37.6525
#
#
#
# Elastic Compliance Matrix: (Units=1/GPa)
#
#
# Indices 1 2 3 4 5 6 
#
# 1 0.011926 -0.001470 -0.004274 0.001239 0.000000 0.000000
# 2 -0.001470 0.011926 -0.004274 -0.001239 0.000000 0.000000
# 3 -0.004274 -0.004274 0.010470 0.000000 0.000000 0.000000
# 4 0.001239 -0.001239 0.000000 0.026441 0.000000 0.000000
# 5 0.000000 0.000000 0.000000 0.000000 0.026442 0.002478
# 6 0.000000 0.000000 0.000000 0.000000 0.002478 0.026791
#
#
# Mechanical properties :
#
#
# Convention : Reuss Voigt Hill
#
# Bulk Modulus (GPa) = 69.99702 73.86743 71.93222
# Shear Modulus (GPa) = 36.02508 36.84987 36.43747
#
# Velocity S-wave (km/s) = 3.96375 4.00887 3.98637
# Velocity P-wave (km/s) = 7.17465 7.32415 7.24979
#
# Compressibility (1/GPa) = 0.01428632
#
# Stress axis : x y z
#
# Youngs Moduli (GPa) = 83.85295 83.85115 95.51322
#
# Poissons Ratio (x) = 0.12324 0.40821
# Poissons Ratio (y) = 0.12324 0.40821
# Poissons Ratio (z) = 0.35838 0.35837
#
# Static dielectric constant tensor:
#      x y z
#    x 1.831800 0.000000 0.000000 
#    y 0.000000 1.831800 0.000000 
#    z 0.000000 0.000000 1.895020 
# 
# From -- ./inp_files/1340.got.cif
#   From: 2010.05.17/outbox.cif.g08.bks.cpg/sg161_cif.got.tgz:1340.got - 2010.05.20 10:52:32.
