data_PCOD9577362
_publ_section_title
;
Structure prediction by ZEFSAII (Michael W. Deem and Ramdas Pophale) SiO2 
 PCOD9577362
Probable space group: P 3 1 C
;
_chemical_formula_sum "Si O2"
_cell_formula_units_Z 48
_cell_length_a 16.089490
_cell_length_b 16.089490
_cell_length_c 8.821727
_cell_angle_alpha 90.000000
_cell_angle_beta 90.000000
_cell_angle_gamma 120.000000
_cell_volume 1977.738199
_symmetry_space_group_name_H-M "P 3 1 C"
_symmetry_group_IT_number 159
_symmetry_cell_setting 'hexagonal'
loop_
_space_group_symop_operation_xyz
x,y,z
-y,x-y,z
-x+y,-x,z
y,x,1/2+z
x-y,-y,1/2+z
-x,-x+y,1/2+z
loop_
_atom_site_type_symbol
_atom_site_label
_atom_site_fract_x
_atom_site_fract_y
_atom_site_fract_z
Si Si1 0.517735 0.095411 0.493670
Si Si2 0.952721 0.531658 0.797671
Si Si3 0.791733 0.546387 0.986665
Si Si4 0.910645 0.768561 0.035043
Si Si5 0.878303 0.684330 0.521425
Si Si6 0.485386 0.318274 0.298676
Si Si7 0.199913 0.016265 0.322174
Si Si8 0.119854 0.393163 0.236800
O O1 0.577990 0.088323 0.634281
O O2 0.598074 0.176360 0.385284
O O3 0.438729 0.105090 0.585581
O O4 0.477380 0.999935 0.390543
O O5 0.875757 0.535994 0.905429
O O6 0.052246 0.628565 0.759738
O O7 0.709686 0.528014 0.864489
O O8 0.829314 0.657143 0.029134
O O9 0.771612 0.494070 0.147728
O O10 0.887589 0.809570 0.186925
O O11 0.895478 0.821215 0.890377
O O12 0.008769 0.766066 0.027749
O O13 0.832747 0.592193 0.412007
O O14 0.839001 0.752273 0.462836
O O15 0.837285 0.646107 0.686776
O O16 0.271319 0.975829 0.279590
#
# Coordination Sequence:
#
# PCOD9577362 Si02
#       8
#     6   6   6   6   6   6   6   6
#     4  10  22  38  65  99 143 170 224 311 374 450
#     4  10  19  38  67 101 131 166 228 299 365 422
#     4  11  21  38  68 104 136 177 243 298 361 448
#     4  11  24  42  61  94 140 188 246 313 355 431
#     4  12  24  42  69  93 138 187 252 304 364 441
#     4  10  20  39  68 104 126 173 243 312 359 432
#     4  11  25  41  60  93 138 193 246 299 381 422
#     4  11  27  42  62 102 148 194 232 306 391 450
#
# _framework density 24.270147000000001
#
# number of rings (size 3 to 8) (size 9 to 14) (size 15 to 20)
#    0.750    0.500    5.000    0.750    7.000    0.000 
#    0.750    1.250    0.000    4.000    0.000    0.000 
#    0.000    0.000    0.000    0.000    0.000    0.000 
#
# Total GULP energy -267790.125076 kJ/mol
# GULP energy per Si atom -5578.960939 kJ/mol
# Density = 2.421491 g / cm^3
# Si number density = 24.270147 Si / 1000 Ang^3
#
#
#
# Elastic Constant Matrix: (Units=GPa)
#
#
# Indices 1 2 3 4 5 6 
#
# 1 29.4600 -12.6123 2.9034 0.0000 -2.4800 0.0000
# 2 -12.6123 29.4600 2.9034 0.0000 2.4800 0.0000
# 3 2.9034 2.9034 115.4199 0.0000 0.0000 0.0000
# 4 0.0000 0.0000 0.0000 30.3982 0.0000 2.4800
# 5 -2.4800 2.4800 0.0000 0.0000 30.3982 0.0000
# 6 0.0000 0.0000 0.0000 2.4800 0.0000 21.0362
#
#
#
# Elastic Compliance Matrix: (Units=1/GPa)
#
#
# Indices 1 2 3 4 5 6 
#
# 1 0.041937 0.017937 -0.001506 0.000000 0.001958 0.000000
# 2 0.017937 0.041937 -0.001506 0.000000 -0.001958 0.000000
# 3 -0.001506 -0.001506 0.008740 0.000000 0.000000 0.000000
# 4 0.000000 0.000000 0.000000 0.033216 0.000000 -0.003916
# 5 0.001958 -0.001958 0.000000 0.000000 0.033216 0.000000
# 6 0.000000 0.000000 0.000000 -0.003916 0.000000 0.047999
#
#
# Mechanical properties :
#
#
# Convention : Reuss Voigt Hill
#
# Bulk Modulus (GPa) = 8.16568 17.85877 13.01223
# Shear Modulus (GPa) = 22.93413 28.44288 25.68851
#
# Velocity S-wave (km/s) = 3.07734 3.42706 3.25690
# Velocity P-wave (km/s) = 3.99981 4.79937 4.41772
#
# Compressibility (1/GPa) = 0.12246380
#
# Stress axis : x y z
#
# Youngs Moduli (GPa) = 23.84537 23.84537 114.41924
#
# Poissons Ratio (x) = -0.42772 0.17233
# Poissons Ratio (y) = -0.42772 0.17233
# Poissons Ratio (z) = 0.03591 0.03591
#
# Static dielectric constant tensor:
#      x y z
#    x 1.988430 0.000000 0.000000 
#    y 0.000000 1.988430 0.000000 
#    z 0.000000 0.000000 1.980910 
# 
# From -- ./inp_files/502.got.cif
#   From: 2010.05.17/outbox.cif.g08.bks.cpg/sg159_cif.got.tgz:502.got - 2010.05.20 10:50:30.
