data_PCOD9577402
_publ_section_title
;
Structure prediction by ZEFSAII (Michael W. Deem and Ramdas Pophale) SiO2 
 PCOD9577402
Probable space group: P 3 1 C
;
_chemical_formula_sum "Si O2"
_cell_formula_units_Z 48
_cell_length_a 25.426050
_cell_length_b 25.426050
_cell_length_c 5.151303
_cell_angle_alpha 90.000000
_cell_angle_beta 90.000000
_cell_angle_gamma 120.000000
_cell_volume 2884.068166
_symmetry_space_group_name_H-M "P 3 1 C"
_symmetry_group_IT_number 159
_symmetry_cell_setting 'hexagonal'
loop_
_space_group_symop_operation_xyz
x,y,z
-y,x-y,z
-x+y,-x,z
y,x,1/2+z
x-y,-y,1/2+z
-x,-x+y,1/2+z
loop_
_atom_site_type_symbol
_atom_site_label
_atom_site_fract_x
_atom_site_fract_y
_atom_site_fract_z
Si Si1 0.324529 0.362121 0.994890
Si Si2 0.431467 0.284803 0.814085
Si Si3 0.041014 0.374483 0.489970
Si Si4 0.473264 0.383495 0.193638
Si Si5 0.823263 0.269263 0.980014
Si Si6 0.541214 0.508386 0.906027
Si Si7 0.216853 0.532961 0.980657
Si Si8 0.206506 0.652227 0.009995
O O1 0.323416 0.325922 0.738717
O O2 0.383817 0.429798 0.924532
O O3 0.278216 0.386680 0.076619
O O4 0.422994 0.225288 0.954485
O O5 0.502566 0.321824 0.731747
O O6 0.426183 0.331023 0.006215
O O7 0.109369 0.387911 0.490803
O O8 0.054018 0.443935 0.475854
O O9 0.999028 0.341515 0.242456
O O10 0.513947 0.443163 0.030395
O O11 0.517830 0.360945 0.292569
O O12 0.811083 0.297472 0.720725
O O13 0.810507 0.301744 0.223635
O O14 0.507853 0.534837 0.095065
O O15 0.206274 0.589361 0.035854
O O16 0.289805 0.561896 0.956063
#
# Coordination Sequence:
#
# PCOD9577402 Si02
#       8
#     6   6   6   6   6   6   6   6
#     4  11  21  34  53  75 101 130 154 192 239 291
#     4  10  23  37  54  76 102 129 167 198 252 313
#     4  10  21  38  54  76  97 122 162 205 256 308
#     4  11  20  34  50  72  98 122 160 194 240 306
#     4  11  23  40  57  75  99 133 162 208 259 305
#     4  10  22  31  47  71  95 119 149 192 245 296
#     4  11  23  37  54  71  95 129 161 208 256 302
#     4  10  23  35  51  72  93 122 167 203 247 309
#
# _framework density 16.643156000000001
#
# number of rings (size 3 to 8) (size 9 to 14) (size 15 to 20)
#    0.000    1.500    2.500    2.500    7.000    1.000 
#    0.000    0.000    0.000    0.000    0.000    0.000 
#    0.000    0.000    0.000    0.000    0.000    0.000 
#
# Total GULP energy -267266.171980 kJ/mol
# GULP energy per Si atom -5568.045250 kJ/mol
# Density = 1.660528 g / cm^3
# Si number density = 16.643156 Si / 1000 Ang^3
#
#
#
# Elastic Constant Matrix: (Units=GPa)
#
#
# Indices 1 2 3 4 5 6 
#
# 1 46.8135 13.9933 26.8087 0.0000 -1.7374 0.0000
# 2 13.9933 46.8135 26.8087 0.0000 1.7374 0.0000
# 3 26.8087 26.8087 88.7335 0.0000 0.0000 0.0000
# 4 0.0000 0.0000 0.0000 15.7778 0.0000 1.7374
# 5 -1.7374 1.7374 0.0000 0.0000 15.7778 0.0000
# 6 0.0000 0.0000 0.0000 1.7374 0.0000 16.4101
#
#
#
# Elastic Compliance Matrix: (Units=1/GPa)
#
#
# Indices 1 2 3 4 5 6 
#
# 1 0.026623 -0.004205 -0.006773 0.000000 0.003395 0.000000
# 2 -0.004205 0.026623 -0.006773 0.000000 -0.003395 0.000000
# 3 -0.006773 -0.006773 0.015362 0.000000 0.000000 0.000000
# 4 0.000000 0.000000 0.000000 0.064128 0.000000 -0.006789
# 5 0.003395 -0.003395 0.000000 0.000000 0.064128 0.000000
# 6 0.000000 0.000000 0.000000 -0.006789 0.000000 0.061657
#
#
# Mechanical properties :
#
#
# Convention : Reuss Voigt Hill
#
# Bulk Modulus (GPa) = 30.20622 35.28691 32.74656
# Shear Modulus (GPa) = 16.39030 17.24315 16.81672
#
# Velocity S-wave (km/s) = 3.14157 3.22227 3.18217
# Velocity P-wave (km/s) = 5.59893 5.92386 5.76368
#
# Compressibility (1/GPa) = 0.03310577
#
# Stress axis : x y z
#
# Youngs Moduli (GPa) = 37.56142 37.56142 65.09451
#
# Poissons Ratio (x) = 0.15796 0.44088
# Poissons Ratio (y) = 0.15796 0.44088
# Poissons Ratio (z) = 0.25440 0.25440
#
# Static dielectric constant tensor:
#      x y z
#    x 1.605130 0.000000 0.000000 
#    y 0.000000 1.605130 0.000000 
#    z 0.000000 0.000000 1.698560 
# 
# From -- ./inp_files/137.got.cif
#   From: 2010.05.17/outbox.cif.g08.bks.cpg/sg159_cif.got.tgz:137.got - 2010.05.20 10:50:30.
