data_PCOD9577926
_publ_section_title
;
Structure prediction by ZEFSAII (Michael W. Deem and Ramdas Pophale) SiO2 
 PCOD9577926
Probable space group: P -3 1 M 
;
_chemical_formula_sum "Si O2"
_cell_formula_units_Z 60
_cell_length_a 17.731358
_cell_length_b 17.731358
_cell_length_c 10.598327
_cell_angle_alpha 90.000000
_cell_angle_beta 90.000000
_cell_angle_gamma 120.000000
_cell_volume 2885.705077
_symmetry_space_group_name_H-M "P -3 1 M "
_symmetry_group_IT_number 162
_symmetry_cell_setting 'hexagonal'
loop_
_space_group_symop_operation_xyz
x,y,z
-y,x-y,z
-x+y,-x,z
-y,-x,-z
-x+y,y,-z
x,x-y,-z
-x,-y,-z
y,-x+y,-z
x-y,x,-z
y,x,z
x-y,-y,z
-x,-x+y,z
loop_
_atom_site_type_symbol
_atom_site_label
_atom_site_fract_x
_atom_site_fract_y
_atom_site_fract_z
Si Si1 0.161062 0.000000 0.939572
Si Si2 0.333661 0.838496 0.038703
Si Si3 0.332722 0.332722 0.090128
Si Si4 0.459520 0.313255 0.456424
Si Si5 0.000000 0.900096 0.346693
Si Si6 0.000000 0.274525 0.619564
Si Si7 0.899916 0.473208 0.702801
O O1 0.249504 0.000000 0.968788
O O2 0.127373 0.000000 0.798250
O O3 0.085389 0.914612 0.000000
O O4 0.354658 0.859427 0.187345
O O5 0.243428 0.756573 0.000000
O O6 0.411307 0.822613 0.000000
O O7 0.338948 0.918248 0.959928
O O8 0.306451 0.306451 0.236012
O O9 0.484398 0.242199 0.500000
O O10 0.356833 0.269773 0.433664
O O11 0.481711 0.378244 0.573645
O O12 0.515815 0.371257 0.336500
O O13 0.000000 0.815645 0.404684
O O14 0.919318 0.919318 0.369230
O O15 0.000000 0.506349 0.738166
#
# Coordination Sequence:
#
# PCOD9577926 Si02
#       7
#     6  12   6  12   6   6  12
#     4  11  18  35  63  94 137 181 235 281 334 406
#     4  12  27  46  69 106 145 185 226 287 360 433
#     4  11  25  41  69 103 139 187 231 289 349 429
#     4  11  24  45  72 103 132 177 241 294 339 410
#     4   9  19  38  59  95 137 188 224 275 345 405
#     4  11  22  42  72  98 141 183 236 287 343 411
#     4  11  23  48  75  97 136 188 228 284 356 425
#
# _framework density 20.792144
#
# number of rings (size 3 to 8) (size 9 to 14) (size 15 to 20)
#    0.200    0.800    4.000    3.000    5.600    0.000 
#    6.600    0.000    0.000    0.600    0.000    0.000 
#    0.000    0.000    0.000    0.000    0.000    0.000 
#
# Total GULP energy -334774.916236 kJ/mol
# GULP energy per Si atom -5579.581937 kJ/mol
# Density = 2.074482 g / cm^3
# Si number density = 20.792144 Si / 1000 Ang^3
#
#
#
# Elastic Constant Matrix: (Units=GPa)
#
#
# Indices 1 2 3 4 5 6 
#
# 1 136.8132 67.1373 38.0732 0.0003 -11.1464 0.0000
# 2 67.1373 136.8132 38.0732 -0.0003 11.1464 0.0000
# 3 38.0732 38.0732 100.8739 0.0000 0.0000 0.0000
# 4 0.0003 -0.0003 0.0000 34.8622 0.0000 11.1464
# 5 -11.1464 11.1464 0.0000 0.0000 34.8622 0.0003
# 6 0.0000 0.0000 0.0000 11.1464 0.0003 34.8379
#
#
#
# Elastic Compliance Matrix: (Units=1/GPa)
#
#
# Indices 1 2 3 4 5 6 
#
# 1 0.010848 -0.005140 -0.002154 0.000000 0.005112 0.000000
# 2 -0.005140 0.010848 -0.002154 0.000000 -0.005112 0.000000
# 3 -0.002154 -0.002154 0.011539 0.000000 0.000000 0.000000
# 4 0.000000 0.000000 0.000000 0.031953 0.000000 -0.010223
# 5 0.005112 -0.005112 0.000000 0.000000 0.031953 0.000000
# 6 0.000000 0.000000 0.000000 -0.010223 0.000000 0.031975
#
#
# Mechanical properties :
#
#
# Convention : Reuss Voigt Hill
#
# Bulk Modulus (GPa) = 69.74650 73.45196 71.59923
# Shear Modulus (GPa) = 32.72417 36.32689 34.52553
#
# Velocity S-wave (km/s) = 3.97151 4.18442 4.07935
# Velocity P-wave (km/s) = 7.39243 7.66481 7.52985
#
# Compressibility (1/GPa) = 0.01433764
#
# Stress axis : x y z
#
# Youngs Moduli (GPa) = 92.18674 92.18674 86.65899
#
# Poissons Ratio (x) = 0.47385 0.18668
# Poissons Ratio (y) = 0.47385 0.18668
# Poissons Ratio (z) = 0.19859 0.19859
#
# Static dielectric constant tensor:
#      x y z
#    x 1.689700 0.000000 0.000000 
#    y 0.000000 1.689700 0.000000 
#    z 0.000000 0.000000 1.822380 
# 
# From -- ./inp_files/2406.got.cif
#   From: 2010.05.17/outbox.cif.g08.bks.cpg/sg162_2_cif.got.tgz:2406.got - 2010.05.20 10:53:12.
