data_PCOD9577480
_publ_section_title
;
Structure prediction by ZEFSAII (Michael W. Deem and Ramdas Pophale) SiO2 
 PCOD9577480
Probable space group: R 3 M
;
_chemical_formula_sum "Si O2"
_cell_formula_units_Z 126
_cell_length_a 16.613279
_cell_length_b 16.613279
_cell_length_c 26.897808
_cell_angle_alpha 90.000000
_cell_angle_beta 90.000000
_cell_angle_gamma 120.000000
_cell_volume 6429.219275
_symmetry_space_group_name_H-M "R 3 M"
_symmetry_group_IT_number 160
_symmetry_cell_setting 'hexagonal'
loop_
_space_group_symop_operation_xyz
x,y,z
-y,x-y,z
-x+y,-x,z
-x+y,y,z
x,x-y,z
-y,-x,z
2/3+x,1/3+y,1/3+z
2/3-y,1/3+x-y,1/3+z
2/3-x+y,1/3-x,1/3+z
2/3-x+y,1/3+y,1/3+z
2/3+x,1/3+x-y,1/3+z
2/3-y,1/3-x,1/3+z
1/3+x,2/3+y,2/3+z
1/3-y,2/3+x-y,2/3+z
1/3-x+y,2/3-x,2/3+z
1/3-x+y,2/3+y,2/3+z
1/3+x,2/3+x-y,2/3+z
1/3-y,2/3-x,2/3+z
loop_
_atom_site_type_symbol
_atom_site_label
_atom_site_fract_x
_atom_site_fract_y
_atom_site_fract_z
Si Si1 0.188422 0.000261 0.236891
Si Si2 0.518328 0.853988 0.304913
Si Si3 0.854039 0.334019 0.270866
Si Si4 0.767107 0.041734 0.535944
Si Si5 0.813485 0.000040 0.820770
Si Si6 0.570469 0.954116 0.100290
Si Si7 0.322373 0.369068 0.998917
O O1 0.083662 0.916339 0.229052
O O2 0.257967 0.975540 0.207181
O O3 0.199676 0.099838 0.225010
O O4 0.217990 0.999589 0.294255
O O5 0.430484 0.860968 0.322699
O O6 0.495392 0.747696 0.304253
O O7 0.548630 0.899224 0.249765
O O8 0.613969 0.915718 0.334003
O O9 0.866871 0.433436 0.284673
O O10 0.746527 0.253474 0.273191
O O11 0.881191 0.338863 0.212503
O O12 0.911820 0.304670 0.306938
O O13 0.862711 0.137290 0.541708
O O14 0.765304 0.994847 0.484574
O O15 0.921641 0.078360 0.815349
O O16 0.756793 0.029460 0.784383
O O17 0.797715 0.898858 0.810900
O O18 0.471329 0.942657 0.085959
O O19 0.611358 0.921787 0.055602
#
# Coordination Sequence:
#
# PCOD9577480 Si02
#       7
#    18  18  18  18  18  18  18
#     4  10  20  37  59  83 109 142 184 232 279 329
#     4  10  19  34  54  77 103 135 174 219 267 320
#     4  10  20  36  58  84 109 139 180 231 284 337
#     4   9  20  36  56  79 104 132 171 221 271 320
#     4   9  18  32  53  79 107 136 171 214 264 317
#     4  11  22  36  53  76 107 143 177 215 261 315
#     4  11  22  35  52  78 111 145 183 222 267 324
#
# _framework density 19.598026000000001
#
# number of rings (size 3 to 8) (size 9 to 14) (size 15 to 20)
#    0.000    2.000    0.000    5.714    0.000    6.286 
#    0.000    0.000    0.000    2.000    0.000    2.000 
#    0.000    0.000    0.000    0.000    0.000    0.000 
#
# Total GULP energy -234466.300212 kJ/mol
# GULP energy per Si atom -5582.530957 kJ/mol
# Density = 1.955342 g / cm^3
# Si number density = 19.598026 Si / 1000 Ang^3
#
#
#
# Elastic Constant Matrix: (Units=GPa)
#
#
# Indices 1 2 3 4 5 6 
#
# 1 54.4621 18.1540 -13.6619 4.0932 0.0004 0.0000
# 2 18.1540 54.4621 -13.6619 -4.0932 -0.0004 0.0000
# 3 -13.6619 -13.6619 63.5404 0.0000 0.0000 0.0000
# 4 4.0932 -4.0932 0.0000 8.7084 0.0000 -0.0004
# 5 0.0004 -0.0004 0.0000 0.0000 8.7084 4.0932
# 6 0.0000 0.0000 0.0000 -0.0004 4.0932 18.1541
#
#
#
# Elastic Compliance Matrix: (Units=1/GPa)
#
#
# Indices 1 2 3 4 5 6 
#
# 1 0.022895 -0.007912 0.003222 -0.014480 -0.000002 0.000000
# 2 -0.007912 0.022895 0.003222 0.014480 0.000002 0.000000
# 3 0.003222 0.003222 0.017123 0.000000 0.000000 0.000000
# 4 -0.014480 0.014480 0.000000 0.128444 0.000000 0.000003
# 5 -0.000002 0.000002 0.000000 0.000000 0.128444 -0.028961
# 6 0.000000 0.000000 0.000000 0.000003 -0.028961 0.061614
#
#
# Mechanical properties :
#
#
# Convention : Reuss Voigt Hill
#
# Bulk Modulus (GPa) = 16.67329 17.12499 16.89914
# Shear Modulus (GPa) = 12.36569 19.22315 15.79442
#
# Velocity S-wave (km/s) = 2.51463 3.13529 2.84195
# Velocity P-wave (km/s) = 4.11792 4.67587 4.40574
#
# Compressibility (1/GPa) = 0.05997617
#
# Stress axis : x y z
#
# Youngs Moduli (GPa) = 43.67751 43.67751 58.39970
#
# Poissons Ratio (x) = 0.34557 -0.18814
# Poissons Ratio (y) = 0.34557 -0.18814
# Poissons Ratio (z) = -0.14071 -0.14071
#
# Static dielectric constant tensor:
#      x y z
#    x 1.691270 0.000000 0.000000 
#    y 0.000000 1.691270 0.000000 
#    z 0.000000 0.000000 1.684670 
# 
# From -- ./inp_files/4150.got.cif
#   From: 2010.05.17/outbox.cif.g08.bks.cpg/sg160_3_cif.got.tgz:4150.got - 2010.05.20 10:51:19.
