data_PCOD9577782
_publ_section_title
;
Structure prediction by ZEFSAII (Michael W. Deem and Ramdas Pophale) SiO2 
 PCOD9577782
Probable space group: P -3 1 M 
;
_chemical_formula_sum "Si O2"
_cell_formula_units_Z 84
_cell_length_a 17.764538
_cell_length_b 17.764538
_cell_length_c 15.485992
_cell_angle_alpha 90.000000
_cell_angle_beta 90.000000
_cell_angle_gamma 120.000000
_cell_volume 4232.310257
_symmetry_space_group_name_H-M "P -3 1 M "
_symmetry_group_IT_number 162
_symmetry_cell_setting 'hexagonal'
loop_
_space_group_symop_operation_xyz
x,y,z
-y,x-y,z
-x+y,-x,z
-y,-x,-z
-x+y,y,-z
x,x-y,-z
-x,-y,-z
y,-x+y,-z
x-y,x,-z
y,x,z
x-y,-y,z
-x,-x+y,z
loop_
_atom_site_type_symbol
_atom_site_label
_atom_site_fract_x
_atom_site_fract_y
_atom_site_fract_z
Si Si1 0.898465 0.331156 0.602147
Si Si2 0.551038 0.106494 0.267195
Si Si3 0.100237 0.662346 0.585688
Si Si4 0.855126 0.136698 0.596994
Si Si5 0.220642 0.895822 0.077282
Si Si6 0.100570 0.900542 0.219408
Si Si7 0.604111 0.498021 0.080406
O O1 0.864156 0.358467 0.684467
O O2 0.859228 0.332816 0.508579
O O3 0.893017 0.239206 0.609194
O O4 0.000000 0.401656 0.597779
O O5 0.499270 0.135860 0.332007
O O6 0.553306 0.136582 0.170340
O O7 0.496804 0.000000 0.261673
O O8 0.100643 0.752047 0.598495
O O9 0.000000 0.587816 0.580395
O O10 0.878532 0.121469 0.500000
O O11 0.884849 0.103724 0.678233
O O12 0.165135 0.878634 0.165333
O O13 0.295563 0.869848 0.079448
O O14 0.270097 0.000000 0.063164
O O15 0.154999 0.845002 0.000000
O O16 0.000000 0.836278 0.198365
O O17 0.129756 0.000000 0.197285
O O18 0.550204 0.550204 0.079200
O O19 0.567586 0.432415 0.000000
#
# Coordination Sequence:
#
# PCOD9577782 Si02
#       7
#    12  12  12  12  12  12  12
#     4   9  17  28  45  71  99 129 169 217 268 320
#     4   9  16  28  47  70  97 126 156 197 249 308
#     4   9  16  28  47  70  97 132 174 217 264 320
#     4  10  20  33  50  75 109 147 189 240 292 340
#     4  10  21  38  60  85 112 145 188 241 299 353
#     4  11  23  38  56  79 110 151 199 249 301 356
#     4   9  18  32  51  77 106 133 164 208 270 343
#
# _framework density 19.847317
#
# number of rings (size 3 to 8) (size 9 to 14) (size 15 to 20)
#    0.000    2.429    0.000    2.714    0.000    6.857 
#    0.000    2.857    0.000    4.000    0.000    4.000 
#    0.000    0.000    0.000    0.000    0.000    0.000 
#
# Total GULP energy -468182.612622 kJ/mol
# GULP energy per Si atom -5573.602531 kJ/mol
# Density = 1.980214 g / cm^3
# Si number density = 19.847317 Si / 1000 Ang^3
#
#
#
# Elastic Constant Matrix: (Units=GPa)
#
#
# Indices 1 2 3 4 5 6 
#
# 1 59.1710 20.0825 42.6039 0.0002 1.0372 0.0000
# 2 20.0825 59.1710 42.6039 -0.0002 -1.0372 0.0000
# 3 42.6039 42.6039 157.0957 0.0000 0.0000 0.0000
# 4 0.0002 -0.0002 0.0000 22.2572 0.0000 -1.0372
# 5 1.0372 -1.0372 0.0000 0.0000 22.2572 0.0002
# 6 0.0000 0.0000 0.0000 -1.0372 0.0002 19.5443
#
#
#
# Elastic Compliance Matrix: (Units=1/GPa)
#
#
# Indices 1 2 3 4 5 6 
#
# 1 0.021729 -0.003918 -0.004830 0.000000 -0.001195 0.000000
# 2 -0.003918 0.021729 -0.004830 0.000000 0.001195 0.000000
# 3 -0.004830 -0.004830 0.008985 0.000000 0.000000 0.000000
# 4 0.000000 0.000000 0.000000 0.045041 0.000000 0.002390
# 5 -0.001195 0.001195 0.000000 0.000000 0.045041 0.000000
# 6 0.000000 0.000000 0.000000 0.002390 0.000000 0.051293
#
#
# Mechanical properties :
#
#
# Convention : Reuss Voigt Hill
#
# Bulk Modulus (GPa) = 39.54726 54.00205 46.77465
# Shear Modulus (GPa) = 21.79579 24.15490 22.97534
#
# Velocity S-wave (km/s) = 3.31746 3.49239 3.40605
# Velocity P-wave (km/s) = 5.88584 6.59774 6.25193
#
# Compressibility (1/GPa) = 0.02528620
#
# Stress axis : x y z
#
# Youngs Moduli (GPa) = 46.02222 46.02222 111.29088
#
# Poissons Ratio (x) = 0.18030 0.53757
# Poissons Ratio (y) = 0.18030 0.53757
# Poissons Ratio (z) = 0.22230 0.22230
#
# Static dielectric constant tensor:
#      x y z
#    x 1.730460 0.000000 0.000000 
#    y 0.000000 1.730460 0.000000 
#    z 0.000000 0.000000 1.716720 
# 
# From -- ./inp_files/3193.got.cif
#   From: 2010.05.17/outbox.cif.g08.bks.cpg/sg162_2_cif.got.tgz:3193.got - 2010.05.20 10:53:12.
