data_PCOD9577576
_publ_section_title
;
Structure prediction by ZEFSAII (Michael W. Deem and Ramdas Pophale) SiO2 
 PCOD9577576
Probable space group: R 3 C
;
_chemical_formula_sum "Si O2"
_cell_formula_units_Z 54
_cell_length_a 10.965835
_cell_length_b 10.965835
_cell_length_c 20.492621
_cell_angle_alpha 90.000000
_cell_angle_beta 90.000000
_cell_angle_gamma 120.000000
_cell_volume 2134.084215
_symmetry_space_group_name_H-M "R 3 C"
_symmetry_group_IT_number 161
_symmetry_cell_setting 'hexagonal'
loop_
_space_group_symop_operation_xyz
x,y,z
-y,x-y,z
-x+y,-x,z
-x+y,y,1/2+z
x,x-y,1/2+z
-y,-x,1/2+z
2/3+x,1/3+y,1/3+z
2/3-y,1/3+x-y,1/3+z
2/3-x+y,1/3-x,1/3+z
2/3-x+y,1/3+y,5/6+z
2/3+x,1/3+x-y,5/6+z
2/3-y,1/3-x,5/6+z
1/3+x,2/3+y,2/3+z
1/3-y,2/3+x-y,2/3+z
1/3-x+y,2/3-x,2/3+z
1/3-x+y,2/3+y,1/6+z
1/3+x,2/3+x-y,1/6+z
1/3-y,2/3-x,1/6+z
loop_
_atom_site_type_symbol
_atom_site_label
_atom_site_fract_x
_atom_site_fract_y
_atom_site_fract_z
Si Si1 0.082583 0.266092 0.399642
Si Si2 0.479996 0.458449 0.931382
Si Si3 0.831958 0.214334 0.883382
O O1 0.075783 0.411940 0.392401
O O2 0.129167 0.260892 0.472914
O O3 0.918028 0.145209 0.397252
O O4 0.164581 0.278925 0.334214
O O5 0.627775 0.574834 0.902177
O O6 0.832347 0.522662 0.925766
#
# Coordination Sequence:
#
# PCOD9577576 Si02
#       3
#    18  18  18
#     4  10  24  38  72  98 134 178 226 272 342 398
#     4  10  23  42  67  96 136 172 228 275 336 396
#     4  10  23  42  67  96 136 172 228 275 336 396
#
# _framework density 25.303591000000001
#
# number of rings (size 3 to 8) (size 9 to 14) (size 15 to 20)
#    2.000    0.000    0.000    2.667    4.667    0.000 
#    0.000    0.000    0.000    5.333    0.000    0.000 
#    0.000    0.000    0.000    0.000    0.000    0.000 
#
# Total GULP energy -100291.922370 kJ/mol
# GULP energy per Si atom -5571.773465 kJ/mol
# Density = 2.524600 g / cm^3
# Si number density = 25.303591 Si / 1000 Ang^3
#
#
#
# Elastic Constant Matrix: (Units=GPa)
#
#
# Indices 1 2 3 4 5 6 
#
# 1 57.8233 11.9414 26.4771 -1.5458 0.0000 0.0000
# 2 11.9414 57.8233 26.4771 1.5458 0.0000 0.0000
# 3 26.4771 26.4771 113.5146 0.0000 0.0000 0.0000
# 4 -1.5458 1.5458 0.0000 49.0088 0.0000 0.0000
# 5 0.0000 0.0000 0.0000 0.0000 49.0088 -1.5458
# 6 0.0000 0.0000 0.0000 0.0000 -1.5458 22.9409
#
#
#
# Elastic Compliance Matrix: (Units=1/GPa)
#
#
# Indices 1 2 3 4 5 6 
#
# 1 0.019630 -0.002212 -0.004063 0.000689 0.000000 0.000000
# 2 -0.002212 0.019630 -0.004063 -0.000689 0.000000 0.000000
# 3 -0.004063 -0.004063 0.010705 0.000000 0.000000 0.000000
# 4 0.000689 -0.000689 0.000000 0.020448 0.000000 0.000000
# 5 0.000000 0.000000 0.000000 0.000000 0.020448 0.001378
# 6 0.000000 0.000000 0.000000 0.000000 0.001378 0.043683
#
#
# Mechanical properties :
#
#
# Convention : Reuss Voigt Hill
#
# Bulk Modulus (GPa) = 34.14213 39.88360 37.01286
# Shear Modulus (GPa) = 30.30664 35.14273 32.72468
#
# Velocity S-wave (km/s) = 3.46456 3.73076 3.60012
# Velocity P-wave (km/s) = 5.43384 5.86126 5.65159
#
# Compressibility (1/GPa) = 0.02928933
#
# Stress axis : x y z
#
# Youngs Moduli (GPa) = 50.94355 50.94355 93.41743
#
# Poissons Ratio (x) = 0.11269 0.37952
# Poissons Ratio (y) = 0.11269 0.37952
# Poissons Ratio (z) = 0.20696 0.20696
#
# Static dielectric constant tensor:
#      x y z
#    x 2.123380 0.000000 0.000000 
#    y 0.000000 2.123380 0.000000 
#    z 0.000000 0.000000 1.903820 
# 
# From -- ./inp_files/2030.got.cif
#   From: 2010.05.17/outbox.cif.g08.bks.cpg/sg161_cif.got.tgz:2030.got - 2010.05.20 10:52:32.
