data_PCOD9577821
_publ_section_title
;
Structure prediction by ZEFSAII (Michael W. Deem and Ramdas Pophale) SiO2 
 PCOD9577821
Probable space group: P -3 1 M 
;
_chemical_formula_sum "Si O2"
_cell_formula_units_Z 52
_cell_length_a 13.858689
_cell_length_b 13.858689
_cell_length_c 15.299709
_cell_angle_alpha 90.000000
_cell_angle_beta 90.000000
_cell_angle_gamma 120.000000
_cell_volume 2544.826041
_symmetry_space_group_name_H-M "P -3 1 M "
_symmetry_group_IT_number 162
_symmetry_cell_setting 'hexagonal'
loop_
_space_group_symop_operation_xyz
x,y,z
-y,x-y,z
-x+y,-x,z
-y,-x,-z
-x+y,y,-z
x,x-y,-z
-x,-y,-z
y,-x+y,-z
x-y,x,-z
y,x,z
x-y,-y,z
-x,-x+y,z
loop_
_atom_site_type_symbol
_atom_site_label
_atom_site_fract_x
_atom_site_fract_y
_atom_site_fract_z
Si Si1 0.133061 0.866940 0.500000
Si Si2 0.135800 0.864201 0.000000
Si Si3 0.660547 0.874663 0.310351
Si Si4 0.431882 0.559595 0.718082
Si Si5 0.333334 0.666668 0.397556
Si Si6 0.599576 0.723934 0.156995
O O1 0.151846 0.814328 0.412242
O O2 0.000000 0.810046 0.512542
O O3 0.173800 0.818256 0.916861
O O4 0.000000 0.806273 0.001261
O O5 0.548477 0.874349 0.280873
O O6 0.664109 0.788129 0.244812
O O7 0.761445 0.000000 0.297908
O O8 0.465147 0.465147 0.701251
O O9 0.362932 0.577103 0.642268
O O10 0.357377 0.525030 0.806244
O O11 0.333334 0.666667 0.500000
O O12 0.640465 0.640465 0.125057
#
# Coordination Sequence:
#
# PCOD9577821 Si02
#       6
#     6   6  12  12   4  12
#     4  10  21  36  56  84 118 160 205 252 308 372
#     4  10  21  38  64  96 126 156 197 250 316 388
#     4  10  20  35  56  82 115 155 199 248 300 357
#     4  10  22  39  59  83 119 159 202 256 308 363
#     4  12  24  39  63  91 122 163 216 270 318 370
#     4  10  20  37  60  85 117 156 196 248 309 371
#
# _framework density 20.433615
#
# number of rings (size 3 to 8) (size 9 to 14) (size 15 to 20)
#    0.000    1.846    2.308    1.615    1.615    0.462 
#    0.000    1.154    0.000   12.923    0.000    0.000 
#    0.000    0.000    0.000    0.000    0.000    0.000 
#
# Total GULP energy -289571.140891 kJ/mol
# GULP energy per Si atom -5568.675786 kJ/mol
# Density = 2.038711 g / cm^3
# Si number density = 20.433615 Si / 1000 Ang^3
#
#
#
# Elastic Constant Matrix: (Units=GPa)
#
#
# Indices 1 2 3 4 5 6 
#
# 1 85.0794 47.3587 44.4549 -0.0003 -0.9116 -0.0007
# 2 47.3587 85.0791 44.4555 0.0000 0.9115 0.0002
# 3 44.4549 44.4555 120.0506 -0.0002 -0.0001 0.0003
# 4 -0.0003 0.0000 -0.0002 28.5292 -0.0001 0.9117
# 5 -0.9116 0.9115 -0.0001 -0.0001 28.5292 -0.0001
# 6 -0.0007 0.0002 0.0003 0.9117 -0.0001 18.8606
#
#
#
# Elastic Compliance Matrix: (Units=1/GPa)
#
#
# Indices 1 2 3 4 5 6 
#
# 1 0.018300 -0.008251 -0.003721 0.000000 0.000848 0.000001
# 2 -0.008251 0.018300 -0.003721 0.000000 -0.000848 0.000000
# 3 -0.003721 -0.003721 0.011086 0.000000 0.000000 0.000000
# 4 0.000000 0.000000 0.000000 0.035106 0.000000 -0.001697
# 5 0.000848 -0.000848 0.000000 0.000000 0.035106 0.000000
# 6 0.000001 0.000000 0.000000 -0.001697 0.000000 0.053103
#
#
# Mechanical properties :
#
#
# Convention : Reuss Voigt Hill
#
# Bulk Modulus (GPa) = 61.35389 62.52749 61.94069
# Shear Modulus (GPa) = 24.05912 25.44645 24.75279
#
# Velocity S-wave (km/s) = 3.43509 3.53274 3.48426
# Velocity P-wave (km/s) = 6.76936 6.87802 6.82391
#
# Compressibility (1/GPa) = 0.01629889
#
# Stress axis : x y z
#
# Youngs Moduli (GPa) = 54.64424 54.64357 90.20619
#
# Poissons Ratio (x) = 0.45089 0.33566
# Poissons Ratio (y) = 0.45090 0.33568
# Poissons Ratio (z) = 0.20333 0.20334
#
# Static dielectric constant tensor:
#      x y z
#    x 1.797430 0.000000 0.000000 
#    y 0.000000 1.797430 0.000000 
#    z 0.000000 0.000000 1.705860 
# 
# From -- ./inp_files/2903.got.cif
#   From: 2010.05.17/outbox.cif.g08.bks.cpg/sg162_2_cif.got.tgz:2903.got - 2010.05.20 10:53:12.
