data_PCOD9577587
_publ_section_title
;
Structure prediction by ZEFSAII (Michael W. Deem and Ramdas Pophale) SiO2 
 PCOD9577587
Probable space group: R 3 C
;
_chemical_formula_sum "Si O2"
_cell_formula_units_Z 72
_cell_length_a 15.320992
_cell_length_b 15.320992
_cell_length_c 14.789552
_cell_angle_alpha 90.000000
_cell_angle_beta 90.000000
_cell_angle_gamma 120.000000
_cell_volume 3006.487635
_symmetry_space_group_name_H-M "R 3 C"
_symmetry_group_IT_number 161
_symmetry_cell_setting 'hexagonal'
loop_
_space_group_symop_operation_xyz
x,y,z
-y,x-y,z
-x+y,-x,z
-x+y,y,1/2+z
x,x-y,1/2+z
-y,-x,1/2+z
2/3+x,1/3+y,1/3+z
2/3-y,1/3+x-y,1/3+z
2/3-x+y,1/3-x,1/3+z
2/3-x+y,1/3+y,5/6+z
2/3+x,1/3+x-y,5/6+z
2/3-y,1/3-x,5/6+z
1/3+x,2/3+y,2/3+z
1/3-y,2/3+x-y,2/3+z
1/3-x+y,2/3-x,2/3+z
1/3-x+y,2/3+y,1/6+z
1/3+x,2/3+x-y,1/6+z
1/3-y,2/3-x,1/6+z
loop_
_atom_site_type_symbol
_atom_site_label
_atom_site_fract_x
_atom_site_fract_y
_atom_site_fract_z
Si Si1 0.034630 0.389192 0.511657
Si Si2 0.840715 0.326056 0.868080
Si Si3 0.338620 0.784165 0.404079
Si Si4 0.214561 0.202122 0.521592
O O1 0.050454 0.294108 0.502378
O O2 0.133247 0.488690 0.477061
O O3 0.263222 0.295922 0.452868
O O4 0.938570 0.364866 0.450551
O O5 0.889373 0.437967 0.827812
O O6 0.727004 0.239060 0.851504
O O7 0.834820 0.335894 0.976512
O O8 0.242511 0.671149 0.409656
#
# Coordination Sequence:
#
# PCOD9577587 Si02
#       4
#    18  18  18  18
#     4  12  28  47  76 119 152 198 256 326 372 452
#     4  12  25  50  75 111 155 201 254 313 379 458
#     4  10  23  48  80 107 156 205 250 306 389 461
#     4  12  28  49  79 111 157 204 256 311 388 451
#
# _framework density 23.948211000000001
#
# number of rings (size 3 to 8) (size 9 to 14) (size 15 to 20)
#    0.500    0.000    5.000    2.000    7.000    0.000 
#    0.000    0.000    0.000    0.000    0.000    0.000 
#    0.000    0.000    0.000    0.000    0.000    0.000 
#
# Total GULP energy -133966.680647 kJ/mol
# GULP energy per Si atom -5581.945027 kJ/mol
# Density = 2.389370 g / cm^3
# Si number density = 23.948211 Si / 1000 Ang^3
#
#
#
# Elastic Constant Matrix: (Units=GPa)
#
#
# Indices 1 2 3 4 5 6 
#
# 1 72.6169 44.4111 24.5513 -0.6288 0.0000 0.0000
# 2 44.4111 72.6169 24.5513 0.6288 0.0000 0.0000
# 3 24.5513 24.5513 85.2247 0.0000 0.0000 0.0000
# 4 -0.6288 0.6288 0.0000 33.6675 0.0000 0.0000
# 5 0.0000 0.0000 0.0000 0.0000 33.6675 -0.6288
# 6 0.0000 0.0000 0.0000 0.0000 -0.6288 14.1029
#
#
#
# Elastic Compliance Matrix: (Units=1/GPa)
#
#
# Indices 1 2 3 4 5 6 
#
# 1 0.022601 -0.012882 -0.002800 0.000663 0.000000 0.000000
# 2 -0.012882 0.022601 -0.002800 -0.000663 0.000000 0.000000
# 3 -0.002800 -0.002800 0.013347 0.000000 0.000000 0.000000
# 4 0.000663 -0.000663 0.000000 0.029727 0.000000 0.000000
# 5 0.000000 0.000000 0.000000 0.000000 0.029727 0.001325
# 6 0.000000 0.000000 0.000000 0.000000 0.001325 0.070966
#
#
# Mechanical properties :
#
#
# Convention : Reuss Voigt Hill
#
# Bulk Modulus (GPa) = 46.32557 46.38732 46.35644
# Shear Modulus (GPa) = 21.44733 25.41726 23.43229
#
# Velocity S-wave (km/s) = 2.99586 3.26136 3.13142
# Velocity P-wave (km/s) = 5.59937 5.79602 5.69854
#
# Compressibility (1/GPa) = 0.02158635
#
# Stress axis : x y z
#
# Youngs Moduli (GPa) = 44.24488 44.24488 74.92346
#
# Poissons Ratio (x) = 0.56995 0.20979
# Poissons Ratio (y) = 0.56995 0.20979
# Poissons Ratio (z) = 0.12389 0.12389
#
# Static dielectric constant tensor:
#      x y z
#    x 1.906770 0.000000 0.000000 
#    y 0.000000 1.906770 0.000000 
#    z 0.000000 0.000000 2.004270 
# 
# From -- ./inp_files/1275.got.cif
#   From: 2010.05.17/outbox.cif.g08.bks.cpg/sg161_cif.got.tgz:1275.got - 2010.05.20 10:52:32.
