data_PCOD9577183
_publ_section_title
;
Structure prediction by ZEFSAII (Michael W. Deem and Ramdas Pophale) SiO2 
 PCOD9577183
Probable space group: R 3 2
;
_chemical_formula_sum "Si O2"
_cell_formula_units_Z 41
_cell_length_a 21.000000
_cell_length_b 21.000000
_cell_length_c 18.000000
_cell_angle_alpha 90.000000
_cell_angle_beta 90.000000
_cell_angle_gamma 120.000000
_cell_volume 6874.509655
_symmetry_space_group_name_H-M "R 3 2"
_symmetry_group_IT_number 155
_symmetry_cell_setting 'hexagonal'
loop_
_space_group_symop_operation_xyz
x,y,z
-y,x-y,z
-x+y,-x,z
x-y,-y,-z
-x,-x+y,-z
y,x,-z
2/3+x,1/3+y,1/3+z
2/3-y,1/3+x-y,1/3+z
2/3-x+y,1/3-x,1/3+z
2/3+x-y,1/3-y,1/3-z
2/3-x,1/3-x+y,1/3-z
2/3+y,1/3+x,1/3-z
1/3+x,2/3+y,2/3+z
1/3-y,2/3+x-y,2/3+z
1/3-x+y,2/3-x,2/3+z
1/3+x-y,2/3-y,2/3-z
1/3-x,2/3-x+y,2/3-z
1/3+y,2/3+x,2/3-z
loop_
_atom_site_type_symbol
_atom_site_label
_atom_site_fract_x
_atom_site_fract_y
_atom_site_fract_z
Si Si1 0.553263 0.553263 0.500000
Si Si2 0.120935 0.244565 0.335133
Si Si3 0.138469 0.438624 0.084316
Si Si4 0.427547 0.589499 0.840518
Si Si5 0.097633 0.172533 0.805060
Si Si6 0.432065 0.067641 0.258662
Si Si7 0.873168 0.031419 0.366625
Si Si8 0.000000 0.000000 0.411457
O O1 0.547833 0.472915 0.512464
O O2 0.588169 0.621323 0.558146
O O3 0.167202 0.333334 0.333334
O O4 0.106293 0.212945 0.251962
O O5 0.163149 0.206187 0.375592
O O6 0.039027 0.215265 0.368266
O O7 0.118724 0.452058 0.166667
O O8 0.087106 0.352643 0.064559
O O9 0.225029 0.462959 0.078221
O O10 0.340191 0.535184 0.822613
O O11 0.452637 0.676246 0.849613
O O12 0.491854 0.594984 0.786891
O O13 0.116452 0.173356 0.718551
O O14 0.447158 0.113824 0.333334
O O15 0.929952 0.003137 0.383201
O O16 0.000000 0.000000 0.500000
#
# Coordination Sequence:
#
# PCOD9577183 Si02
#       8
#     9  18  18  18  18  18  18   6
#     4  10  22  40  62  92 116 156 200 258 314 356
#     4  11  23  36  57  86 124 160 207 251 300 363
#     4  12  22  35  59  88 126 164 203 247 301 358
#     4  10  21  40  61  89 114 152 206 252 315 363
#     4  10  19  38  63  86 113 153 206 252 304 367
#     4  11  23  38  60  91 122 153 203 258 312 368
#     4  11  21  36  57  84 118 165 203 242 294 357
#     4  12  21  36  51  87 126 159 196 245 286 351
#
# _framework density 5.9640620000000002
#
# number of rings (size 3 to 8) (size 9 to 14) (size 15 to 20)
#    0.000    1.171    3.659    3.805    4.098    0.000 
#    0.000    5.854    0.000    0.000    0.000    0.000 
#    0.000    0.000    0.000    0.000    0.000    0.000 
#
# Total GULP energy -228332.403605 kJ/mol
# GULP energy per Si atom -5569.083015 kJ/mol
# Density = 0.595049 g / cm^3
# Si number density = 5.964062 Si / 1000 Ang^3
#
#
#
# Elastic Constant Matrix: (Units=GPa)
#
#
# Indices 1 2 3 4 5 6 
#
# 1 138.6031 59.0012 10.4543 -1.1257 0.0004 0.0000
# 2 59.0012 138.6031 10.4543 1.1257 -0.0004 0.0000
# 3 10.4543 10.4543 27.8179 0.0000 0.0000 0.0000
# 4 -1.1257 1.1257 0.0000 23.8330 0.0000 -0.0004
# 5 0.0004 -0.0004 0.0000 0.0000 23.8330 -1.1257
# 6 0.0000 0.0000 0.0000 -0.0004 -1.1257 39.8010
#
#
#
# Elastic Compliance Matrix: (Units=1/GPa)
#
#
# Indices 1 2 3 4 5 6 
#
# 1 0.008925 -0.003655 -0.001981 0.000594 0.000000 0.000000
# 2 -0.003655 0.008925 -0.001981 -0.000594 0.000000 0.000000
# 3 -0.001981 -0.001981 0.037437 0.000000 0.000000 0.000000
# 4 0.000594 -0.000594 0.000000 0.042015 0.000000 0.000000
# 5 0.000000 0.000000 0.000000 0.000000 0.042015 0.001188
# 6 0.000000 0.000000 0.000000 0.000000 0.001188 0.025159
#
#
# Mechanical properties :
#
#
# Convention : Reuss Voigt Hill
#
# Bulk Modulus (GPa) = 24.96586 51.64929 38.30757
# Shear Modulus (GPa) = 25.89904 32.50103 29.20003
#
# Velocity S-wave (km/s) = 3.80874 4.26666 4.04418
# Velocity P-wave (km/s) = 5.77285 7.29398 6.57753
#
# Compressibility (1/GPa) = 0.04005470
#
# Stress axis : x y z
#
# Youngs Moduli (GPa) = 112.04799 112.04799 26.71175
#
# Poissons Ratio (x) = 0.40949 0.05291
# Poissons Ratio (y) = 0.40949 0.05291
# Poissons Ratio (z) = 0.22192 0.22192
#
# Static dielectric constant tensor:
#      x y z
#    x 1.614660 0.000000 0.000000 
#    y 0.000000 1.614660 0.000000 
#    z 0.000000 0.000000 1.734150 
# 
# From -- ./inp_files/6306.got.cif
#   From: 2010.05.17/outbox.ucp.g08.bks.cvg/sg155_4_cif.got.tgz:6306.got - 2010.06.11 15:13:48.
