data_PCOD9577848
_publ_section_title
;
Structure prediction by ZEFSAII (Michael W. Deem and Ramdas Pophale) SiO2 
 PCOD9577848
Probable space group: P -3 1 M 
;
_chemical_formula_sum "Si O2"
_cell_formula_units_Z 60
_cell_length_a 13.814803
_cell_length_b 13.814803
_cell_length_c 17.661097
_cell_angle_alpha 90.000000
_cell_angle_beta 90.000000
_cell_angle_gamma 120.000000
_cell_volume 2919.024230
_symmetry_space_group_name_H-M "P -3 1 M "
_symmetry_group_IT_number 162
_symmetry_cell_setting 'hexagonal'
loop_
_space_group_symop_operation_xyz
x,y,z
-y,x-y,z
-x+y,-x,z
-y,-x,-z
-x+y,y,-z
x,x-y,-z
-x,-y,-z
y,-x+y,-z
x-y,x,-z
y,x,z
x-y,-y,z
-x,-x+y,z
loop_
_atom_site_type_symbol
_atom_site_label
_atom_site_fract_x
_atom_site_fract_y
_atom_site_fract_z
Si Si1 0.175181 0.400263 0.230374
Si Si2 0.586860 0.460908 0.714509
Si Si3 0.872090 0.742404 0.915227
Si Si4 0.870624 0.132827 0.616402
Si Si5 0.163179 0.499704 0.552825
O O1 0.308502 0.481942 0.230430
O O2 0.129028 0.481856 0.252571
O O3 0.136634 0.340336 0.150563
O O4 0.142846 0.310643 0.298355
O O5 0.551777 0.551777 0.695326
O O6 0.626054 0.441366 0.633777
O O7 0.790545 0.790545 0.897045
O O8 0.000000 0.842319 0.918586
O O9 0.846226 0.692451 0.000000
O O10 0.870079 0.239219 0.573955
O O11 0.000000 0.164422 0.614478
O O12 0.788595 0.000000 0.592367
O O13 0.265489 0.530978 0.500000
O O14 0.103748 0.551874 0.500000
#
# Coordination Sequence:
#
# PCOD9577848 Si02
#       5
#    12  12  12  12  12
#     4  11  22  40  62  89 122 162 211 261 315 371
#     4  11  23  39  61  86 115 154 202 259 311 363
#     4  10  20  36  62  97 134 168 203 247 302 370
#     4  11  24  41  63  92 129 173 217 265 325 396
#     4  11  23  40  64  91 120 156 208 268 328 386
#
# _framework density 20.554812999999999
#
# number of rings (size 3 to 8) (size 9 to 14) (size 15 to 20)
#    0.000    1.200    0.000    8.800    0.000    5.600 
#    0.000    3.000    0.000    6.600    0.000    0.000 
#    0.000    0.000    0.000    0.000    0.000    0.000 
#
# Total GULP energy -334232.874272 kJ/mol
# GULP energy per Si atom -5570.547905 kJ/mol
# Density = 2.050803 g / cm^3
# Si number density = 20.554813 Si / 1000 Ang^3
#
#
#
# Elastic Constant Matrix: (Units=GPa)
#
#
# Indices 1 2 3 4 5 6 
#
# 1 112.3276 55.3962 46.8832 -0.0001 0.1568 0.0000
# 2 55.3962 112.3276 46.8832 0.0001 -0.1568 0.0000
# 3 46.8832 46.8832 115.2092 0.0000 0.0000 0.0000
# 4 -0.0001 0.0001 0.0000 32.9561 0.0000 -0.1568
# 5 0.1568 -0.1568 0.0000 0.0000 32.9561 -0.0001
# 6 0.0000 0.0000 0.0000 -0.1568 -0.0001 28.4657
#
#
#
# Elastic Compliance Matrix: (Units=1/GPa)
#
#
# Indices 1 2 3 4 5 6 
#
# 1 0.012642 -0.004924 -0.003141 0.000000 -0.000084 0.000000
# 2 -0.004924 0.012642 -0.003141 0.000000 0.000084 0.000000
# 3 -0.003141 -0.003141 0.011236 0.000000 0.000000 0.000000
# 4 0.000000 0.000000 0.000000 0.030344 0.000000 0.000167
# 5 -0.000084 0.000084 0.000000 0.000000 0.030344 0.000000
# 6 0.000000 0.000000 0.000000 0.000167 0.000000 0.035131
#
#
# Mechanical properties :
#
#
# Convention : Reuss Voigt Hill
#
# Bulk Modulus (GPa) = 70.87652 70.90998 70.89325
# Shear Modulus (GPa) = 31.35730 31.58902 31.47316
#
# Velocity S-wave (km/s) = 3.91006 3.92448 3.91728
# Velocity P-wave (km/s) = 7.41224 7.42350 7.41787
#
# Compressibility (1/GPa) = 0.01410904
#
# Stress axis : x y z
#
# Youngs Moduli (GPa) = 79.10295 79.10295 88.99896
#
# Poissons Ratio (x) = 0.38948 0.27953
# Poissons Ratio (y) = 0.38948 0.27953
# Poissons Ratio (z) = 0.24845 0.24845
#
# Static dielectric constant tensor:
#      x y z
#    x 1.810390 0.000000 0.000000 
#    y 0.000000 1.810390 0.000000 
#    z 0.000000 0.000000 1.982540 
# 
# From -- ./inp_files/2934.got.cif
#   From: 2010.05.17/outbox.cif.g08.bks.cpg/sg162_2_cif.got.tgz:2934.got - 2010.05.20 10:53:12.
