data_PCOD9577548
_publ_section_title
;
Structure prediction by ZEFSAII (Michael W. Deem and Ramdas Pophale) SiO2 
 PCOD9577548
Probable space group: R 3 C
;
_chemical_formula_sum "Si O2"
_cell_formula_units_Z 126
_cell_length_a 21.307701
_cell_length_b 21.307701
_cell_length_c 13.918916
_cell_angle_alpha 90.000000
_cell_angle_beta 90.000000
_cell_angle_gamma 120.000000
_cell_volume 5472.795665
_symmetry_space_group_name_H-M "R 3 C"
_symmetry_group_IT_number 161
_symmetry_cell_setting 'hexagonal'
loop_
_space_group_symop_operation_xyz
x,y,z
-y,x-y,z
-x+y,-x,z
-x+y,y,1/2+z
x,x-y,1/2+z
-y,-x,1/2+z
2/3+x,1/3+y,1/3+z
2/3-y,1/3+x-y,1/3+z
2/3-x+y,1/3-x,1/3+z
2/3-x+y,1/3+y,5/6+z
2/3+x,1/3+x-y,5/6+z
2/3-y,1/3-x,5/6+z
1/3+x,2/3+y,2/3+z
1/3-y,2/3+x-y,2/3+z
1/3-x+y,2/3-x,2/3+z
1/3-x+y,2/3+y,1/6+z
1/3+x,2/3+x-y,1/6+z
1/3-y,2/3-x,1/6+z
loop_
_atom_site_type_symbol
_atom_site_label
_atom_site_fract_x
_atom_site_fract_y
_atom_site_fract_z
Si Si1 0.212232 0.461017 0.139108
Si Si2 0.554130 0.179580 0.023429
Si Si3 0.040518 0.166640 0.181864
Si Si4 0.454459 0.967978 0.338610
Si Si5 0.691678 0.536839 0.296402
Si Si6 0.396874 0.480195 0.625893
Si Si7 0.325567 0.398633 0.958997
O O1 0.214013 0.483471 0.249178
O O2 0.186323 0.375929 0.139274
O O3 0.294355 0.504737 0.100995
O O4 0.152100 0.474680 0.094074
O O5 0.629355 0.186189 0.058475
O O6 0.547233 0.251683 0.013522
O O7 0.484985 0.122810 0.083407
O O8 0.102770 0.245078 0.220339
O O9 0.026463 0.193029 0.077643
O O10 0.408895 0.928369 0.242319
O O11 0.402780 0.979933 0.411100
O O12 0.773561 0.566548 0.263580
O O13 0.668658 0.588674 0.240342
O O14 0.395001 0.406867 0.596593
#
# Coordination Sequence:
#
# PCOD9577548 Si02
#       7
#    18  18  18  18  18  18  18
#     4  11  21  43  65  89 127 173 216 257 331 393
#     4  10  20  39  64  91 123 173 215 264 332 389
#     4   9  19  40  63  85 125 169 213 260 327 391
#     4  10  22  42  61  92 130 168 221 265 319 394
#     4  10  22  40  64  90 125 162 213 265 311 390
#     4  11  23  45  65  94 133 173 211 268 329 390
#     4  11  23  41  64  95 133 160 223 279 313 387
#
# _framework density 23.022966
#
# number of rings (size 3 to 8) (size 9 to 14) (size 15 to 20)
#    0.000    1.714    5.714    0.286    2.000    3.429 
#    6.000    0.000    0.000    0.000    0.000    0.000 
#    0.000    0.000    0.000    0.000    0.000    0.000 
#
# Total GULP energy -234079.290817 kJ/mol
# GULP energy per Si atom -5573.316448 kJ/mol
# Density = 2.297057 g / cm^3
# Si number density = 23.022966 Si / 1000 Ang^3
#
#
#
# Elastic Constant Matrix: (Units=GPa)
#
#
# Indices 1 2 3 4 5 6 
#
# 1 95.4202 18.1567 -8.1170 1.9975 0.0000 0.0000
# 2 18.1567 95.4202 -8.1170 -1.9975 0.0000 0.0000
# 3 -8.1170 -8.1170 55.8140 0.0000 0.0000 0.0000
# 4 1.9975 -1.9975 0.0000 17.1650 0.0000 0.0000
# 5 0.0000 0.0000 0.0000 0.0000 17.1650 1.9975
# 6 0.0000 0.0000 0.0000 0.0000 1.9975 38.6318
#
#
#
# Elastic Compliance Matrix: (Units=1/GPa)
#
#
# Indices 1 2 3 4 5 6 
#
# 1 0.011006 -0.002015 0.001308 -0.001515 0.000000 0.000000
# 2 -0.002015 0.011006 0.001308 0.001515 0.000000 0.000000
# 3 0.001308 0.001308 0.018297 0.000000 0.000000 0.000000
# 4 -0.001515 0.001515 0.000000 0.058611 0.000000 0.000000
# 5 0.000000 0.000000 0.000000 0.000000 0.058611 -0.003030
# 6 0.000000 0.000000 0.000000 0.000000 -0.003030 0.026042
#
#
# Mechanical properties :
#
#
# Convention : Reuss Voigt Hill
#
# Bulk Modulus (GPa) = 24.09027 27.83330 25.96179
# Shear Modulus (GPa) = 25.48306 30.90781 28.19544
#
# Velocity S-wave (km/s) = 3.33055 3.66796 3.50332
# Velocity P-wave (km/s) = 5.02756 5.48217 5.25978
#
# Compressibility (1/GPa) = 0.04151054
#
# Stress axis : x y z
#
# Youngs Moduli (GPa) = 90.85713 90.85713 54.65379
#
# Poissons Ratio (x) = 0.18306 -0.07147
# Poissons Ratio (y) = 0.18306 -0.07147
# Poissons Ratio (z) = -0.11881 -0.11881
#
# Static dielectric constant tensor:
#      x y z
#    x 1.886430 0.000000 0.000000 
#    y 0.000000 1.886430 0.000000 
#    z 0.000000 0.000000 1.941600 
# 
# From -- ./inp_files/1441.got.cif
#   From: 2010.05.17/outbox.cif.g08.bks.cpg/sg161_cif.got.tgz:1441.got - 2010.05.20 10:52:32.
