data_PCOD9577781
_publ_section_title
;
Structure prediction by ZEFSAII (Michael W. Deem and Ramdas Pophale) SiO2 
 PCOD9577781
Probable space group: P -3 1 M 
;
_chemical_formula_sum "Si O2"
_cell_formula_units_Z 60
_cell_length_a 18.031465
_cell_length_b 18.031465
_cell_length_c 12.897479
_cell_angle_alpha 90.000000
_cell_angle_beta 90.000000
_cell_angle_gamma 120.000000
_cell_volume 3631.595653
_symmetry_space_group_name_H-M "P -3 1 M "
_symmetry_group_IT_number 162
_symmetry_cell_setting 'hexagonal'
loop_
_space_group_symop_operation_xyz
x,y,z
-y,x-y,z
-x+y,-x,z
-y,-x,-z
-x+y,y,-z
x,x-y,-z
-x,-y,-z
y,-x+y,-z
x-y,x,-z
y,x,z
x-y,-y,z
-x,-x+y,z
loop_
_atom_site_type_symbol
_atom_site_label
_atom_site_fract_x
_atom_site_fract_y
_atom_site_fract_z
Si Si1 0.731271 0.634789 0.306489
Si Si2 0.840937 0.332607 0.500000
Si Si3 0.666403 0.506868 0.120211
Si Si4 0.159535 0.666403 0.120210
Si Si5 0.731271 0.634789 0.693512
O O1 0.710671 0.710671 0.316494
O O2 0.684615 0.567079 0.399207
O O3 0.692274 0.583603 0.199627
O O4 0.830583 0.661167 0.310772
O O5 0.740876 0.259124 0.500000
O O6 0.851448 0.425724 0.500000
O O7 0.882464 0.315385 0.600794
O O8 0.575002 0.424998 0.145320
O O9 0.741019 0.482038 0.129531
O O10 0.665023 0.530439 0.000000
O O11 0.108671 0.692274 0.199627
O O12 0.710671 0.710671 0.683505
#
# Coordination Sequence:
#
# PCOD9577781 Si02
#       5
#    12  12  12  12  12
#     4  10  21  35  50  69  93 122 156 196 242 285
#     4  10  20  33  50  73 102 134 163 188 216 257
#     4   9  17  29  46  69  98 131 163 192 223 264
#     4   9  17  29  46  69  98 131 163 192 223 264
#     4  10  21  35  50  69  93 122 156 196 242 285
#
# _framework density 16.521661999999999
#
# number of rings (size 3 to 8) (size 9 to 14) (size 15 to 20)
#    0.000    2.400    0.000    2.400    0.000    6.400 
#    0.000    6.000    0.000    0.400    0.000    0.000 
#    0.000    4.800    0.000   10.000    0.000    0.000 
#
# Total GULP energy -334840.835842 kJ/mol
# GULP energy per Si atom -5580.680597 kJ/mol
# Density = 1.648406 g / cm^3
# Si number density = 16.521662 Si / 1000 Ang^3
#
#
#
# Elastic Constant Matrix: (Units=GPa)
#
#
# Indices 1 2 3 4 5 6 
#
# 1 91.4710 83.6924 42.9641 0.0000 0.0000 0.0000
# 2 83.6924 91.4710 42.9641 0.0000 0.0000 0.0000
# 3 42.9641 42.9641 66.1748 0.0000 0.0000 0.0000
# 4 0.0000 0.0000 0.0000 8.8548 0.0000 0.0000
# 5 0.0000 0.0000 0.0000 0.0000 8.8548 0.0000
# 6 0.0000 0.0000 0.0000 0.0000 0.0000 3.8893
#
#
#
# Elastic Compliance Matrix: (Units=1/GPa)
#
#
# Indices 1 2 3 4 5 6 
#
# 1 0.068468 -0.060091 -0.005439 0.000000 0.000000 0.000000
# 2 -0.060091 0.068468 -0.005439 0.000000 0.000000 0.000000
# 3 -0.005439 -0.005439 0.022174 0.000000 0.000000 0.000000
# 4 0.000000 0.000000 0.000000 0.112933 0.000000 0.000000
# 5 0.000000 0.000000 0.000000 0.000000 0.112933 0.000000
# 6 0.000000 0.000000 0.000000 0.000000 0.000000 0.257118
#
#
# Mechanical properties :
#
#
# Convention : Reuss Voigt Hill
#
# Bulk Modulus (GPa) = 58.23216 65.37311 61.80263
# Shear Modulus (GPa) = 6.33109 9.61953 7.97531
#
# Velocity S-wave (km/s) = 1.95967 2.41558 2.19947
# Velocity P-wave (km/s) = 6.35947 6.88724 6.62861
#
# Compressibility (1/GPa) = 0.01717264
#
# Stress axis : x y z
#
# Youngs Moduli (GPa) = 14.60537 14.60537 45.09836
#
# Poissons Ratio (x) = 0.87765 0.24528
# Poissons Ratio (y) = 0.87765 0.24528
# Poissons Ratio (z) = 0.07944 0.07944
#
# Static dielectric constant tensor:
#      x y z
#    x 1.536190 0.000000 0.000000 
#    y 0.000000 1.536190 0.000000 
#    z 0.000000 0.000000 1.571210 
# 
# From -- ./inp_files/2298.got.cif
#   From: 2010.05.17/outbox.cif.g08.bks.cpg/sg162_2_cif.got.tgz:2298.got - 2010.05.20 10:53:12.
