data_PCOD9577227
_publ_section_title
;
Structure prediction by ZEFSAII (Michael W. Deem and Ramdas Pophale) SiO2 
 PCOD9577227
Probable space group: P 3 M 1
;
_chemical_formula_sum "Si O2"
_cell_formula_units_Z 36
_cell_length_a 12.859085
_cell_length_b 12.859085
_cell_length_c 15.545628
_cell_angle_alpha 90.000000
_cell_angle_beta 90.000000
_cell_angle_gamma 120.000000
_cell_volume 2226.173644
_symmetry_space_group_name_H-M "P 3 M 1"
_symmetry_group_IT_number 156
_symmetry_cell_setting 'hexagonal'
loop_
_space_group_symop_operation_xyz
x,y,z
-y,x-y,z
-x+y,-x,z
-x+y,y,z
x,x-y,z
-y,-x,z
loop_
_atom_site_type_symbol
_atom_site_label
_atom_site_fract_x
_atom_site_fract_y
_atom_site_fract_z
Si Si1 0.752817 0.753041 0.318640
Si Si2 0.333197 0.913405 0.154977
Si Si3 0.578426 0.911791 0.638299
Si Si4 0.912950 0.579607 0.992167
Si Si5 0.333231 0.912820 0.836703
Si Si6 0.667211 0.087029 0.481298
O O1 0.880867 0.761734 0.304159
O O2 0.665958 0.693522 0.237073
O O3 0.693758 0.670779 0.402350
O O4 0.768447 0.884224 0.331255
O O5 0.451048 0.902095 0.169395
O O6 0.216862 0.783139 0.140909
O O7 0.358629 0.997295 0.072004
O O8 0.440311 0.880621 0.630944
O O9 0.587138 0.793569 0.621585
O O10 0.615002 0.949664 0.737372
O O11 0.651955 0.014101 0.568923
O O12 0.793224 0.586447 0.001207
O O13 0.883381 0.441691 0.989867
O O14 0.984435 0.641584 0.904825
O O15 0.442884 0.885768 0.846738
O O16 0.207790 0.792211 0.852849
O O17 0.544216 0.088431 0.466829
O O18 0.778999 0.221002 0.487660
#
# Coordination Sequence:
#
# PCOD9577227 Si02
#       6
#     6   6   6   6   6   6
#     4  10  20  34  52  73  98 129 164 200 237 281
#     4  10  20  34  53  76 100 125 155 195 242 289
#     4   9  17  30  49  73  98 124 156 196 243 291
#     4  10  20  33  49  70  97 129 163 197 234 279
#     4   9  17  30  50  74  98 124 156 197 243 289
#     4  10  20  33  49  70  97 129 164 201 241 285
#
# _framework density 16.171244999999999
#
# number of rings (size 3 to 8) (size 9 to 14) (size 15 to 20)
#    0.000    2.333    0.000    3.000    0.000    2.000 
#    0.000    1.667    0.000   16.667    0.000    0.000 
#    0.000    0.000    0.000    0.000    0.000    0.000 
#
# Total GULP energy -200827.285262 kJ/mol
# GULP energy per Si atom -5578.535702 kJ/mol
# Density = 1.613444 g / cm^3
# Si number density = 16.171245 Si / 1000 Ang^3
#
#
#
# Elastic Constant Matrix: (Units=GPa)
#
#
# Indices 1 2 3 4 5 6 
#
# 1 123.2697 82.5861 84.3756 -3.4879 -0.0003 0.0000
# 2 82.5861 123.2697 84.3756 3.4879 0.0003 0.0000
# 3 84.3756 84.3756 112.1835 0.0000 0.0000 0.0000
# 4 -3.4879 3.4879 0.0000 24.5957 0.0000 0.0003
# 5 -0.0003 0.0003 0.0000 0.0000 24.5957 -3.4879
# 6 0.0000 0.0000 0.0000 0.0003 -3.4879 20.3418
#
#
#
# Elastic Compliance Matrix: (Units=1/GPa)
#
#
# Indices 1 2 3 4 5 6 
#
# 1 0.018931 -0.006262 -0.009528 0.003573 0.000000 0.000000
# 2 -0.006262 0.018931 -0.009528 -0.003573 0.000000 0.000000
# 3 -0.009528 -0.009528 0.023247 0.000000 0.000000 0.000000
# 4 0.003573 -0.003573 0.000000 0.041671 0.000000 -0.000001
# 5 0.000000 0.000000 0.000000 0.000000 0.041671 0.007145
# 6 0.000000 0.000000 0.000000 -0.000001 0.007145 0.050385
#
#
# Mechanical properties :
#
#
# Convention : Reuss Voigt Hill
#
# Bulk Modulus (GPa) = 95.50369 95.71083 95.60726
# Shear Modulus (GPa) = 20.08334 21.06568 20.57451
#
# Velocity S-wave (km/s) = 3.52791 3.61316 3.57079
# Velocity P-wave (km/s) = 8.70522 8.75904 8.73217
#
# Compressibility (1/GPa) = 0.01047080
#
# Stress axis : x y z
#
# Youngs Moduli (GPa) = 52.82448 52.82448 43.01622
#
# Poissons Ratio (x) = 0.33078 0.40988
# Poissons Ratio (y) = 0.33078 0.40988
# Poissons Ratio (z) = 0.50333 0.50333
#
# Static dielectric constant tensor:
#      x y z
#    x 1.511320 0.000000 0.000000 
#    y 0.000000 1.511320 0.000000 
#    z 0.000000 0.000000 1.534020 
# 
# From -- ./inp_files/782.got.cif
#   From: 2010.05.17/outbox.cif.g08.bks.cpg/sg156_cif.got.tgz:782.got - 2010.05.20 10:49:08.
