data_PCOD9577934
_publ_section_title
;
Structure prediction by ZEFSAII (Michael W. Deem and Ramdas Pophale) SiO2 
 PCOD9577934
Probable space group: P -3 1 M 
;
_chemical_formula_sum "Si O2"
_cell_formula_units_Z 48
_cell_length_a 16.990065
_cell_length_b 16.990065
_cell_length_c 9.583881
_cell_angle_alpha 90.000000
_cell_angle_beta 90.000000
_cell_angle_gamma 120.000000
_cell_volume 2395.863797
_symmetry_space_group_name_H-M "P -3 1 M "
_symmetry_group_IT_number 162
_symmetry_cell_setting 'hexagonal'
loop_
_space_group_symop_operation_xyz
x,y,z
-y,x-y,z
-x+y,-x,z
-y,-x,-z
-x+y,y,-z
x,x-y,-z
-x,-y,-z
y,-x+y,-z
x-y,x,-z
y,x,z
x-y,-y,z
-x,-x+y,z
loop_
_atom_site_type_symbol
_atom_site_label
_atom_site_fract_x
_atom_site_fract_y
_atom_site_fract_z
Si Si1 0.889387 0.383115 0.204613
Si Si2 0.102732 0.757208 0.609466
Si Si3 0.344287 0.453062 0.107886
Si Si4 0.105240 0.836205 0.156891
O O1 0.864500 0.309063 0.323746
O O2 0.858934 0.459036 0.205449
O O3 0.000000 0.435812 0.206765
O O4 0.858308 0.337602 0.051584
O O5 0.174430 0.825571 0.500000
O O6 0.099136 0.820449 0.732918
O O7 0.000000 0.696039 0.552103
O O8 0.409799 0.409799 0.097932
O O9 0.250364 0.370935 0.157490
O O10 0.000000 0.800129 0.192594
O O11 0.124876 0.875125 0.000000
#
# Coordination Sequence:
#
# PCOD9577934 Si02
#       4
#    12  12  12  12
#     4   8  14  28  51  79 109 138 174 225 286 352
#     4  11  22  37  55  79 113 157 203 249 297 346
#     4   8  14  27  51  82 109 133 171 229 292 352
#     4  11  20  33  55  84 113 146 196 253 300 342
#
# _framework density 20.034528000000002
#
# number of rings (size 3 to 8) (size 9 to 14) (size 15 to 20)
#    0.000    2.500    2.500    3.000    0.000    0.000 
#    0.000    1.250    0.000   17.000    6.500    0.000 
#    0.000    0.000    0.000    0.000    0.000    0.000 
#
# Total GULP energy -267511.191489 kJ/mol
# GULP energy per Si atom -5573.149823 kJ/mol
# Density = 1.998893 g / cm^3
# Si number density = 20.034528 Si / 1000 Ang^3
#
#
#
# Elastic Constant Matrix: (Units=GPa)
#
#
# Indices 1 2 3 4 5 6 
#
# 1 70.1165 20.8149 24.0724 -0.0002 -8.4127 0.0000
# 2 20.8149 70.1165 24.0724 0.0002 8.4127 0.0000
# 3 24.0724 24.0724 65.3729 0.0000 0.0000 0.0000
# 4 -0.0002 0.0002 0.0000 23.2828 0.0000 8.4127
# 5 -8.4127 8.4127 0.0000 0.0000 23.2828 -0.0002
# 6 0.0000 0.0000 0.0000 8.4127 -0.0002 24.6508
#
#
#
# Elastic Compliance Matrix: (Units=1/GPa)
#
#
# Indices 1 2 3 4 5 6 
#
# 1 0.018398 -0.004738 -0.005030 0.000000 0.008360 0.000000
# 2 -0.004738 0.018398 -0.005030 0.000000 -0.008360 0.000000
# 3 -0.005030 -0.005030 0.019002 0.000000 0.000000 0.000000
# 4 0.000000 0.000000 0.000000 0.048991 0.000000 -0.016720
# 5 0.008360 -0.008360 0.000000 0.000000 0.048991 0.000000
# 6 0.000000 0.000000 0.000000 -0.016720 0.000000 0.046273
#
#
# Mechanical properties :
#
#
# Convention : Reuss Voigt Hill
#
# Bulk Modulus (GPa) = 38.16556 38.16948 38.16752
# Shear Modulus (GPa) = 20.97451 23.35303 22.16377
#
# Velocity S-wave (km/s) = 3.23912 3.41785 3.32968
# Velocity P-wave (km/s) = 5.75156 5.88802 5.82019
#
# Compressibility (1/GPa) = 0.02620163
#
# Stress axis : x y z
#
# Youngs Moduli (GPa) = 54.35230 54.35230 52.62736
#
# Poissons Ratio (x) = 0.25751 0.26473
# Poissons Ratio (y) = 0.25751 0.26473
# Poissons Ratio (z) = 0.27341 0.27341
#
# Static dielectric constant tensor:
#      x y z
#    x 1.733320 0.000000 0.000000 
#    y 0.000000 1.733320 0.000000 
#    z 0.000000 0.000000 1.729110 
# 
# From -- ./inp_files/1186.got.cif
#   From: 2010.05.17/outbox.cif.g08.bks.cpg/sg162_1_cif.got.tgz:1186.got - 2010.05.20 10:53:12.
