data_PCOD9577814
_publ_section_title
;
Structure prediction by ZEFSAII (Michael W. Deem and Ramdas Pophale) SiO2 
 PCOD9577814
Probable space group: P -3 1 M 
;
_chemical_formula_sum "Si O2"
_cell_formula_units_Z 60
_cell_length_a 13.773920
_cell_length_b 13.773920
_cell_length_c 17.298858
_cell_angle_alpha 90.000000
_cell_angle_beta 90.000000
_cell_angle_gamma 120.000000
_cell_volume 2842.255908
_symmetry_space_group_name_H-M "P -3 1 M "
_symmetry_group_IT_number 162
_symmetry_cell_setting 'hexagonal'
loop_
_space_group_symop_operation_xyz
x,y,z
-y,x-y,z
-x+y,-x,z
-y,-x,-z
-x+y,y,-z
x,x-y,-z
-x,-y,-z
y,-x+y,-z
x-y,x,-z
y,x,z
x-y,-y,z
-x,-x+y,z
loop_
_atom_site_type_symbol
_atom_site_label
_atom_site_fract_x
_atom_site_fract_y
_atom_site_fract_z
Si Si1 0.230733 0.444277 0.180380
Si Si2 0.446138 0.134070 0.647718
Si Si3 0.253479 0.128140 0.917624
Si Si4 0.433402 0.560861 0.911960
Si Si5 0.509651 0.640744 0.428050
O O1 0.262470 0.439653 0.267726
O O2 0.128471 0.327749 0.152920
O O3 0.332028 0.462017 0.125067
O O4 0.198707 0.534252 0.149245
O O5 0.446488 0.228404 0.589568
O O6 0.566699 0.140953 0.640694
O O7 0.355030 0.000000 0.634868
O O8 0.155206 0.155206 0.931284
O O9 0.204111 0.000000 0.899526
O O10 0.317872 0.158936 0.000000
O O11 0.459724 0.459724 0.916021
O O12 0.414753 0.585248 0.000000
O O13 0.423280 0.576721 0.500000
O O14 0.606387 0.606387 0.435216
#
# Coordination Sequence:
#
# PCOD9577814 Si02
#       5
#    12  12  12  12  12
#     4  12  23  37  55  81 118 155 195 249 315 380
#     4  11  23  39  63  96 131 167 209 262 328 402
#     4  10  20  35  55  78 107 149 203 259 310 361
#     4  11  23  38  56  78 108 154 212 266 315 371
#     4  10  22  42  68  96 128 168 214 264 319 386
#
# _framework density 21.109992999999999
#
# number of rings (size 3 to 8) (size 9 to 14) (size 15 to 20)
#    0.000    1.200    0.000    7.000    0.000    7.200 
#    0.000    0.000    0.000    0.400    0.000    0.000 
#    0.000    4.800    0.000    0.000    0.000    0.000 
#
# Total GULP energy -334547.382177 kJ/mol
# GULP energy per Si atom -5575.789703 kJ/mol
# Density = 2.106195 g / cm^3
# Si number density = 21.109993 Si / 1000 Ang^3
#
#
#
# Elastic Constant Matrix: (Units=GPa)
#
#
# Indices 1 2 3 4 5 6 
#
# 1 118.7350 53.8672 43.7560 0.0000 -5.4313 0.0000
# 2 53.8672 118.7350 43.7560 0.0000 5.4313 0.0000
# 3 43.7560 43.7560 124.6050 0.0000 0.0000 0.0000
# 4 0.0000 0.0000 0.0000 22.4630 0.0000 5.4313
# 5 -5.4313 5.4313 0.0000 0.0000 22.4630 0.0000
# 6 0.0000 0.0000 0.0000 5.4313 0.0000 32.4339
#
#
#
# Elastic Compliance Matrix: (Units=1/GPa)
#
#
# Indices 1 2 3 4 5 6 
#
# 1 0.011558 -0.004509 -0.002475 0.000000 0.003885 0.000000
# 2 -0.004509 0.011558 -0.002475 0.000000 -0.003885 0.000000
# 3 -0.002475 -0.002475 0.009764 0.000000 0.000000 0.000000
# 4 0.000000 0.000000 0.000000 0.046396 0.000000 -0.007769
# 5 0.003885 -0.003885 0.000000 0.000000 0.046396 0.000000
# 6 0.000000 0.000000 0.000000 -0.007769 0.000000 0.032133
#
#
# Mechanical properties :
#
#
# Convention : Reuss Voigt Hill
#
# Bulk Modulus (GPa) = 71.63198 71.64818 71.64008
# Shear Modulus (GPa) = 27.56700 30.18502 28.87601
#
# Velocity S-wave (km/s) = 3.61761 3.78549 3.70250
# Velocity P-wave (km/s) = 7.17327 7.28840 7.23106
#
# Compressibility (1/GPa) = 0.01396024
#
# Stress axis : x y z
#
# Youngs Moduli (GPa) = 86.52352 86.52352 102.41999
#
# Poissons Ratio (x) = 0.39013 0.25351
# Poissons Ratio (y) = 0.39013 0.25351
# Poissons Ratio (z) = 0.21416 0.21416
#
# Static dielectric constant tensor:
#      x y z
#    x 1.800750 0.000000 0.000000 
#    y 0.000000 1.800750 0.000000 
#    z 0.000000 0.000000 1.854810 
# 
# From -- ./inp_files/2941.got.cif
#   From: 2010.05.17/outbox.cif.g08.bks.cpg/sg162_2_cif.got.tgz:2941.got - 2010.05.20 10:53:12.
