data_PCOD9577611
_publ_section_title
;
Structure prediction by ZEFSAII (Michael W. Deem and Ramdas Pophale) SiO2 
 PCOD9577611
Probable space group: R 3 C
;
_chemical_formula_sum "Si O2"
_cell_formula_units_Z 102
_cell_length_a 18.945316
_cell_length_b 18.945316
_cell_length_c 13.744293
_cell_angle_alpha 90.000000
_cell_angle_beta 90.000000
_cell_angle_gamma 120.000000
_cell_volume 4272.250838
_symmetry_space_group_name_H-M "R 3 C"
_symmetry_group_IT_number 161
_symmetry_cell_setting 'hexagonal'
loop_
_space_group_symop_operation_xyz
x,y,z
-y,x-y,z
-x+y,-x,z
-x+y,y,1/2+z
x,x-y,1/2+z
-y,-x,1/2+z
2/3+x,1/3+y,1/3+z
2/3-y,1/3+x-y,1/3+z
2/3-x+y,1/3-x,1/3+z
2/3-x+y,1/3+y,5/6+z
2/3+x,1/3+x-y,5/6+z
2/3-y,1/3-x,5/6+z
1/3+x,2/3+y,2/3+z
1/3-y,2/3+x-y,2/3+z
1/3-x+y,2/3-x,2/3+z
1/3-x+y,2/3+y,1/6+z
1/3+x,2/3+x-y,1/6+z
1/3-y,2/3-x,1/6+z
loop_
_atom_site_type_symbol
_atom_site_label
_atom_site_fract_x
_atom_site_fract_y
_atom_site_fract_z
Si Si1 0.000000 0.000000 0.118422
Si Si2 0.340827 0.253101 0.582703
Si Si3 0.141094 0.896640 0.565810
Si Si4 0.184265 0.503915 0.063168
Si Si5 0.000000 0.000000 0.845112
Si Si6 0.081637 0.347802 0.968337
Si Si7 0.837677 0.383228 0.381086
O O1 0.962261 0.906762 0.084380
O O2 0.000000 0.000000 0.231510
O O3 0.403896 0.251026 0.506119
O O4 0.311616 0.311128 0.531988
O O5 0.359646 0.275995 0.695415
O O6 0.261114 0.162161 0.591246
O O7 0.142676 0.819866 0.518511
O O8 0.044343 0.861106 0.566743
O O9 0.179000 0.969041 0.486797
O O10 0.241731 0.599714 0.042653
O O11 0.251709 0.483361 0.104279
O O12 0.130683 0.446366 0.975302
#
# Coordination Sequence:
#
# PCOD9577611 Si02
#       7
#     6  18  18  18   6  18  18
#     4  12  22  41  67 114 142 188 233 317 373 442
#     4  11  25  49  69 111 146 199 259 301 384 457
#     4  11  24  44  76 101 145 195 245 315 367 453
#     4  12  22  48  71 108 148 199 248 312 387 452
#     4  12  25  38  76 114 148 191 257 314 388 451
#     4  11  26  46  74 105 152 199 249 312 377 460
#     4  11  22  44  71  99 147 185 247 303 370 447
#
# _framework density 23.875003
#
# number of rings (size 3 to 8) (size 9 to 14) (size 15 to 20)
#    0.000    0.706    5.294    2.118    0.000    4.235 
#    6.353    0.000    0.000    0.000    0.000    0.000 
#    0.000    0.000    0.000    0.000    0.000    0.000 
#
# Total GULP energy -189759.243268 kJ/mol
# GULP energy per Si atom -5581.154214 kJ/mol
# Density = 2.382066 g / cm^3
# Si number density = 23.875003 Si / 1000 Ang^3
#
#
#
# Elastic Constant Matrix: (Units=GPa)
#
#
# Indices 1 2 3 4 5 6 
#
# 1 79.8663 27.3521 31.5624 -7.7136 0.0000 0.0000
# 2 27.3521 79.8663 31.5624 7.7136 0.0000 0.0000
# 3 31.5624 31.5624 160.5343 0.0000 0.0000 0.0000
# 4 -7.7136 7.7136 0.0000 33.9759 0.0000 0.0000
# 5 0.0000 0.0000 0.0000 0.0000 33.9759 -7.7136
# 6 0.0000 0.0000 0.0000 0.0000 -7.7136 26.2571
#
#
#
# Elastic Compliance Matrix: (Units=1/GPa)
#
#
# Indices 1 2 3 4 5 6 
#
# 1 0.015475 -0.004928 -0.002074 0.004632 0.000000 0.000000
# 2 -0.004928 0.015475 -0.002074 -0.004632 0.000000 0.000000
# 3 -0.002074 -0.002074 0.007045 0.000000 0.000000 0.000000
# 4 0.004632 -0.004632 0.000000 0.031536 0.000000 0.000000
# 5 0.000000 0.000000 0.000000 0.000000 0.031536 0.009264
# 6 0.000000 0.000000 0.000000 0.000000 0.009264 0.040807
#
#
# Mechanical properties :
#
#
# Convention : Reuss Voigt Hill
#
# Bulk Modulus (GPa) = 50.39067 55.69120 53.04093
# Shear Modulus (GPa) = 30.00484 34.16110 32.08297
#
# Velocity S-wave (km/s) = 3.54891 3.78674 3.66975
# Velocity P-wave (km/s) = 6.15994 6.51889 6.34196
#
# Compressibility (1/GPa) = 0.01984494
#
# Stress axis : x y z
#
# Youngs Moduli (GPa) = 64.61831 64.61831 141.95190
#
# Poissons Ratio (x) = 0.31843 0.29437
# Poissons Ratio (y) = 0.31843 0.29437
# Poissons Ratio (z) = 0.13400 0.13400
#
# Static dielectric constant tensor:
#      x y z
#    x 1.998190 0.000000 0.000000 
#    y 0.000000 1.998190 0.000000 
#    z 0.000000 0.000000 1.916070 
# 
# From -- ./inp_files/982.got.cif
#   From: 2010.05.17/outbox.cif.g08.bks.cpg/sg161_cif.got.tgz:982.got - 2010.05.20 10:52:32.
