data_PCOD9577047
_publ_section_title
;
Structure prediction by ZEFSAII (Michael W. Deem and Ramdas Pophale) SiO2 
 PCOD9577047
Probable space group: R 3 2
;
_chemical_formula_sum "Si O2"
_cell_formula_units_Z 54
_cell_length_a 16.172885
_cell_length_b 16.172885
_cell_length_c 12.239352
_cell_angle_alpha 90.000000
_cell_angle_beta 90.000000
_cell_angle_gamma 120.000000
_cell_volume 2772.452114
_symmetry_space_group_name_H-M "R 3 2"
_symmetry_group_IT_number 155
_symmetry_cell_setting 'hexagonal'
loop_
_space_group_symop_operation_xyz
x,y,z
-y,x-y,z
-x+y,-x,z
x-y,-y,-z
-x,-x+y,-z
y,x,-z
2/3+x,1/3+y,1/3+z
2/3-y,1/3+x-y,1/3+z
2/3-x+y,1/3-x,1/3+z
2/3+x-y,1/3-y,1/3-z
2/3-x,1/3-x+y,1/3-z
2/3+y,1/3+x,1/3-z
1/3+x,2/3+y,2/3+z
1/3-y,2/3+x-y,2/3+z
1/3-x+y,2/3-x,2/3+z
1/3+x-y,2/3-y,2/3-z
1/3-x,2/3-x+y,2/3-z
1/3+y,2/3+x,2/3-z
loop_
_atom_site_type_symbol
_atom_site_label
_atom_site_fract_x
_atom_site_fract_y
_atom_site_fract_z
Si Si1 0.450491 0.762591 0.363733
Si Si2 0.297489 0.405718 0.545114
Si Si3 0.896570 0.167579 0.555681
O O1 0.351723 0.763159 0.360346
O O2 0.506132 0.822022 0.468677
O O3 0.525484 0.796060 0.266003
O O4 0.353210 0.353210 0.500000
O O5 0.333334 0.437956 0.666667
O O6 0.184454 0.335109 0.531378
O O7 0.884104 0.217437 0.666667
O O8 0.000000 0.224433 0.500000
#
# Coordination Sequence:
#
# PCOD9577047 Si02
#       3
#    18  18  18
#     4   9  22  42  66  98 123 174 226 278 336 394
#     4  11  24  42  66  97 137 176 226 278 342 416
#     4  10  23  43  65  98 133 176 227 279 338 403
#
# _framework density 19.477343000000001
#
# number of rings (size 3 to 8) (size 9 to 14) (size 15 to 20)
#    0.667    1.333    0.000    3.000    9.333    1.333 
#   12.000    0.000    0.000    0.000    0.000    0.000 
#    0.000    0.000    0.000    0.000    0.000    0.000 
#
# Total GULP energy -100318.864759 kJ/mol
# GULP energy per Si atom -5573.270264 kJ/mol
# Density = 1.943301 g / cm^3
# Si number density = 19.477343 Si / 1000 Ang^3
#
#
#
# Elastic Constant Matrix: (Units=GPa)
#
#
# Indices 1 2 3 4 5 6 
#
# 1 82.2094 34.5596 68.7858 -4.3842 0.0015 0.0000
# 2 34.5596 82.2094 68.7858 4.3842 -0.0015 0.0000
# 3 68.7858 68.7858 155.6779 0.0000 0.0000 0.0000
# 4 -4.3842 4.3842 0.0000 21.7814 0.0000 -0.0015
# 5 0.0015 -0.0015 0.0000 0.0000 21.7814 -4.3842
# 6 0.0000 0.0000 0.0000 -0.0015 -4.3842 23.8249
#
#
#
# Elastic Compliance Matrix: (Units=1/GPa)
#
#
# Indices 1 2 3 4 5 6 
#
# 1 0.019828 -0.001966 -0.007892 0.004387 -0.000001 0.000000
# 2 -0.001966 0.019828 -0.007892 -0.004387 0.000001 0.000000
# 3 -0.007892 -0.007892 0.013398 0.000000 0.000000 0.000000
# 4 0.004387 -0.004387 0.000000 0.047677 0.000000 0.000003
# 5 -0.000001 0.000001 0.000000 0.000000 0.047677 0.008773
# 6 0.000000 0.000000 0.000000 0.000003 0.008773 0.043587
#
#
# Mechanical properties :
#
#
# Convention : Reuss Voigt Hill
#
# Bulk Modulus (GPa) = 56.97014 73.81767 65.39391
# Shear Modulus (GPa) = 21.42733 23.34190 22.38462
#
# Velocity S-wave (km/s) = 3.32040 3.46557 3.39376
# Velocity P-wave (km/s) = 6.63423 7.34813 7.00029
#
# Compressibility (1/GPa) = 0.01755305
#
# Stress axis : x y z
#
# Youngs Moduli (GPa) = 50.43365 50.43365 74.63784
#
# Poissons Ratio (x) = 0.09913 0.58908
# Poissons Ratio (y) = 0.09913 0.58908
# Poissons Ratio (z) = 0.39805 0.39805
#
# Static dielectric constant tensor:
#      x y z
#    x 1.704100 0.000000 0.000000 
#    y 0.000000 1.704100 0.000000 
#    z 0.000000 0.000000 1.619650 
# 
# From -- ./inp_files/3448.got.cif
#   From: 2010.05.17/outbox.cif.g08.bks.cpg/sg155_2_cif.got.tgz:3448.got - 2010.05.20 10:44:35.
