data_PCOD9577171
_publ_section_title
;
Structure prediction by ZEFSAII (Michael W. Deem and Ramdas Pophale) SiO2 
 PCOD9577171
Probable space group: R 3 2
;
_chemical_formula_sum "Si O2"
_cell_formula_units_Z 66
_cell_length_a 13.645740
_cell_length_b 13.645740
_cell_length_c 18.103833
_cell_angle_alpha 90.000000
_cell_angle_beta 90.000000
_cell_angle_gamma 120.000000
_cell_volume 2919.411744
_symmetry_space_group_name_H-M "R 3 2"
_symmetry_group_IT_number 155
_symmetry_cell_setting 'hexagonal'
loop_
_space_group_symop_operation_xyz
x,y,z
-y,x-y,z
-x+y,-x,z
x-y,-y,-z
-x,-x+y,-z
y,x,-z
2/3+x,1/3+y,1/3+z
2/3-y,1/3+x-y,1/3+z
2/3-x+y,1/3-x,1/3+z
2/3+x-y,1/3-y,1/3-z
2/3-x,1/3-x+y,1/3-z
2/3+y,1/3+x,1/3-z
1/3+x,2/3+y,2/3+z
1/3-y,2/3+x-y,2/3+z
1/3-x+y,2/3-x,2/3+z
1/3+x-y,2/3-y,2/3-z
1/3-x,2/3-x+y,2/3-z
1/3+y,2/3+x,2/3-z
loop_
_atom_site_type_symbol
_atom_site_label
_atom_site_fract_x
_atom_site_fract_y
_atom_site_fract_z
Si Si1 0.075659 0.872202 0.068536
Si Si2 0.351846 0.018513 0.333334
Si Si3 0.308828 0.308828 0.500000
Si Si4 0.666668 0.333334 0.171442
Si Si5 0.592971 0.486719 0.906505
Si Si6 0.000000 0.000000 0.662595
O O1 0.014865 0.755818 0.114344
O O2 0.193378 0.901449 0.029202
O O3 0.088249 0.966948 0.126447
O O4 0.000000 0.866135 0.000000
O O5 0.276180 0.940160 0.266131
O O6 0.203054 0.275194 0.446601
O O7 0.666668 0.333334 0.084098
O O8 0.666667 0.506725 0.833334
O O9 0.634476 0.425011 0.964381
#
# Coordination Sequence:
#
# PCOD9577171 Si02
#       6
#    18   9   9   6  18   6
#     4  12  26  53  78 106 157 204 259 331 399 469
#     4  12  26  44  80 110 144 206 260 312 392 488
#     4  12  28  48  76 114 150 206 258 326 396 476
#     4  12  28  50  79 108 151 209 271 333 400 470
#     4  12  24  47  75 106 158 203 252 320 402 466
#     4  12  25  44  73 111 151 209 256 327 391 479
#
# _framework density 22.607295000000001
#
# number of rings (size 3 to 8) (size 9 to 14) (size 15 to 20)
#    0.000    0.000    8.182    0.000    5.727    2.182 
#    2.455    0.000    0.000    0.000    0.000    0.000 
#    0.000    0.000    0.000    0.000    0.000    0.000 
#
# Total GULP energy -122842.626401 kJ/mol
# GULP energy per Si atom -5583.755745 kJ/mol
# Density = 2.255584 g / cm^3
# Si number density = 22.607295 Si / 1000 Ang^3
#
#
#
# Elastic Constant Matrix: (Units=GPa)
#
#
# Indices 1 2 3 4 5 6 
#
# 1 73.4424 20.2613 53.2711 -8.8369 0.0002 0.0000
# 2 20.2613 73.4424 53.2705 8.8367 -0.0002 0.0000
# 3 53.2711 53.2705 181.7988 -0.0004 0.0000 0.0000
# 4 -8.8369 8.8367 -0.0004 42.3818 0.0000 -0.0002
# 5 0.0002 -0.0002 0.0000 0.0000 42.3825 -8.8368
# 6 0.0000 0.0000 0.0000 -0.0002 -8.8368 26.5904
#
#
#
# Elastic Compliance Matrix: (Units=1/GPa)
#
#
# Indices 1 2 3 4 5 6 
#
# 1 0.018104 -0.002100 -0.004690 0.004213 0.000000 0.000000
# 2 -0.002100 0.018104 -0.004689 -0.004213 0.000000 0.000000
# 3 -0.004690 -0.004689 0.008249 0.000000 0.000000 0.000000
# 4 0.004213 -0.004213 0.000000 0.025352 0.000000 0.000000
# 5 0.000000 0.000000 0.000000 0.000000 0.025351 0.008425
# 6 0.000000 0.000000 0.000000 0.000000 0.008425 0.040408
#
#
# Mechanical properties :
#
#
# Convention : Reuss Voigt Hill
#
# Bulk Modulus (GPa) = 46.51444 64.69883 55.60664
# Shear Modulus (GPa) = 30.17673 35.72966 32.95320
#
# Velocity S-wave (km/s) = 3.65749 3.97980 3.82204
# Velocity P-wave (km/s) = 6.20128 7.05685 6.64285
#
# Compressibility (1/GPa) = 0.02149870
#
# Stress axis : x y z
#
# Youngs Moduli (GPa) = 55.23703 55.23738 121.22970
#
# Poissons Ratio (x) = 0.11599 0.56851
# Poissons Ratio (y) = 0.11599 0.56850
# Poissons Ratio (z) = 0.25903 0.25903
#
# Static dielectric constant tensor:
#      x y z
#    x 1.930070 0.000000 0.000000 
#    y 0.000000 1.930070 0.000000 
#    z 0.000000 0.000000 1.863290 
# 
# From -- ./inp_files/5855.got.cif
#   From: 2010.05.17/outbox.cif.g08.bks.cpg/sg155_3_cif.got.tgz:5855.got - 2010.05.20 10:44:35.
