data_PCOD9577924
_publ_section_title
;
Structure prediction by ZEFSAII (Michael W. Deem and Ramdas Pophale) SiO2 
 PCOD9577924
Probable space group: P -3 1 M 
;
_chemical_formula_sum "Si O2"
_cell_formula_units_Z 66
_cell_length_a 21.267013
_cell_length_b 21.267013
_cell_length_c 7.933844
_cell_angle_alpha 90.000000
_cell_angle_beta 90.000000
_cell_angle_gamma 120.000000
_cell_volume 3107.615519
_symmetry_space_group_name_H-M "P -3 1 M "
_symmetry_group_IT_number 162
_symmetry_cell_setting 'hexagonal'
loop_
_space_group_symop_operation_xyz
x,y,z
-y,x-y,z
-x+y,-x,z
-y,-x,-z
-x+y,y,-z
x,x-y,-z
-x,-y,-z
y,-x+y,-z
x-y,x,-z
y,x,z
x-y,-y,z
-x,-x+y,z
loop_
_atom_site_type_symbol
_atom_site_label
_atom_site_fract_x
_atom_site_fract_y
_atom_site_fract_z
Si Si1 0.857409 0.714818 0.500000
Si Si2 0.790706 0.444089 0.854655
Si Si3 0.084787 0.819349 0.849012
Si Si4 0.683050 0.084075 0.948870
Si Si5 0.916072 0.302552 0.648084
Si Si6 0.539543 0.219874 0.643593
O O1 0.856288 0.756385 0.333062
O O2 0.774774 0.666865 0.564855
O O3 0.864466 0.515050 0.908232
O O4 0.798975 0.399292 0.700221
O O5 0.734924 0.470850 0.799643
O O6 0.767016 0.383508 0.000000
O O7 0.107981 0.757255 0.847275
O O8 0.000000 0.776646 0.887188
O O9 0.126935 0.873066 0.000000
O O10 0.627016 0.000000 0.908829
O O11 0.702013 0.087590 0.147552
O O12 0.854225 0.321339 0.598506
O O13 0.000000 0.359196 0.603105
O O14 0.559249 0.279625 0.500000
#
# Coordination Sequence:
#
# PCOD9577924 Si02
#       6
#     6  12  12  12  12  12
#     4  12  22  40  70 104 149 184 238 294 365 442
#     4  12  25  42  67  92 122 178 242 291 353 425
#     4  11  24  42  70 105 144 189 237 292 361 441
#     4  10  23  43  67 100 137 174 229 299 366 429
#     4  11  23  41  70 104 138 182 231 295 374 438
#     4  12  26  45  64  93 137 181 235 298 356 430
#
# _framework density 21.238149
#
# number of rings (size 3 to 8) (size 9 to 14) (size 15 to 20)
#    0.000    0.727    4.545    3.091    0.000    1.818 
#    0.000    0.000    0.000    2.364    0.000    0.636 
#    0.000    0.000    0.000    0.000    0.000    0.000 
#
# Total GULP energy -368939.292023 kJ/mol
# GULP energy per Si atom -5589.989273 kJ/mol
# Density = 2.118981 g / cm^3
# Si number density = 21.238149 Si / 1000 Ang^3
#
#
#
# Elastic Constant Matrix: (Units=GPa)
#
#
# Indices 1 2 3 4 5 6 
#
# 1 104.4087 48.5042 32.3644 -0.0002 -7.6185 0.0000
# 2 48.5042 104.4087 32.3644 0.0002 7.6185 0.0000
# 3 32.3644 32.3644 93.9762 0.0000 0.0000 0.0000
# 4 -0.0002 0.0002 0.0000 25.2094 0.0000 7.6185
# 5 -7.6185 7.6185 0.0000 0.0000 25.2094 -0.0002
# 6 0.0000 0.0000 0.0000 7.6185 -0.0002 27.9523
#
#
#
# Elastic Compliance Matrix: (Units=1/GPa)
#
#
# Indices 1 2 3 4 5 6 
#
# 1 0.013575 -0.005919 -0.002637 0.000000 0.005891 0.000000
# 2 -0.005919 0.013575 -0.002637 0.000000 -0.005891 0.000000
# 3 -0.002637 -0.002637 0.012457 0.000000 0.000000 0.000000
# 4 0.000000 0.000000 0.000000 0.043229 0.000000 -0.011782
# 5 0.005891 -0.005891 0.000000 0.000000 0.043229 0.000000
# 6 0.000000 0.000000 0.000000 -0.011782 0.000000 0.038987
#
#
# Mechanical properties :
#
#
# Convention : Reuss Voigt Hill
#
# Bulk Modulus (GPa) = 58.06442 58.80662 58.43552
# Shear Modulus (GPa) = 25.88338 28.31156 27.09747
#
# Velocity S-wave (km/s) = 3.49481 3.65506 3.57583
# Velocity P-wave (km/s) = 6.60938 6.74995 6.68004
#
# Compressibility (1/GPa) = 0.01722225
#
# Stress axis : x y z
#
# Youngs Moduli (GPa) = 73.66745 73.66745 80.27611
#
# Poissons Ratio (x) = 0.43602 0.21165
# Poissons Ratio (y) = 0.43602 0.21165
# Poissons Ratio (z) = 0.19423 0.19423
#
# Static dielectric constant tensor:
#      x y z
#    x 1.736840 0.000000 0.000000 
#    y 0.000000 1.736840 0.000000 
#    z 0.000000 0.000000 1.913190 
# 
# From -- ./inp_files/1592.got.cif
#   From: 2010.05.17/outbox.cif.g08.bks.cpg/sg162_1_cif.got.tgz:1592.got - 2010.05.20 10:53:12.
