data_PCOD9577697
_publ_section_title
;
Structure prediction by ZEFSAII (Michael W. Deem and Ramdas Pophale) SiO2 
 PCOD9577697
Probable space group: P -3 1 M 
;
_chemical_formula_sum "Si O2"
_cell_formula_units_Z 72
_cell_length_a 24.106707
_cell_length_b 24.106707
_cell_length_c 8.951602
_cell_angle_alpha 90.000000
_cell_angle_beta 90.000000
_cell_angle_gamma 120.000000
_cell_volume 4505.128419
_symmetry_space_group_name_H-M "P -3 1 M "
_symmetry_group_IT_number 162
_symmetry_cell_setting 'hexagonal'
loop_
_space_group_symop_operation_xyz
x,y,z
-y,x-y,z
-x+y,-x,z
-y,-x,-z
-x+y,y,-z
x,x-y,-z
-x,-y,-z
y,-x+y,-z
x-y,x,-z
y,x,z
x-y,-y,z
-x,-x+y,z
loop_
_atom_site_type_symbol
_atom_site_label
_atom_site_fract_x
_atom_site_fract_y
_atom_site_fract_z
Si Si1 0.625524 0.702042 0.120284
Si Si2 0.737218 0.599337 0.439662
Si Si3 0.926189 0.189333 0.576669
Si Si4 0.076735 0.478294 0.575575
Si Si5 0.261558 0.073552 0.928564
Si Si6 0.517676 0.922506 0.075874
O O1 0.659420 0.659420 0.164006
O O2 0.608466 0.731253 0.262770
O O3 0.675766 0.758390 0.013863
O O4 0.562636 0.656680 0.023605
O O5 0.792257 0.584514 0.500000
O O6 0.758729 0.668920 0.508980
O O7 0.666394 0.549322 0.495602
O O8 0.877524 0.122476 0.500000
O O9 0.913445 0.186788 0.753005
O O10 0.000000 0.211897 0.551647
O O11 0.086534 0.543267 0.500000
O O12 0.095198 0.487992 0.750341
O O13 0.000000 0.427799 0.564001
O O14 0.208504 0.000000 0.947321
O O15 0.241296 0.120648 0.000000
O O16 0.554238 0.000000 0.075519
O O17 0.449273 0.898545 0.000000
#
# Coordination Sequence:
#
# PCOD9577697 Si02
#       6
#    12  12  12  12  12  12
#     4  10  19  31  48  69  98 133 166 201 241 289
#     4  11  21  32  48  72 102 133 165 201 243 292
#     4  10  20  33  50  72  99 130 164 203 246 294
#     4  10  19  32  52  75 100 129 162 202 245 291
#     4  10  20  33  49  70  95 126 163 202 247 297
#     4   9  17  29  46  71 100 129 161 198 243 290
#
# _framework density 15.981787000000001
#
# number of rings (size 3 to 8) (size 9 to 14) (size 15 to 20)
#    0.000    2.000    0.000    5.500    0.000    7.333 
#    0.000    0.000    0.000    0.667    0.000    0.000 
#    0.000    0.000    0.000    0.500    0.000    0.333 
#
# Total GULP energy -401606.719829 kJ/mol
# GULP energy per Si atom -5577.871109 kJ/mol
# Density = 1.594541 g / cm^3
# Si number density = 15.981787 Si / 1000 Ang^3
#
#
#
# Elastic Constant Matrix: (Units=GPa)
#
#
# Indices 1 2 3 4 5 6 
#
# 1 73.9138 58.0027 75.1001 -0.0002 -0.8561 0.0000
# 2 58.0027 73.9138 75.1001 0.0002 0.8561 0.0000
# 3 75.1001 75.1001 127.3873 0.0000 0.0000 0.0000
# 4 -0.0002 0.0002 0.0000 26.8497 0.0000 0.8561
# 5 -0.8561 0.8561 0.0000 0.0000 26.8497 -0.0002
# 6 0.0000 0.0000 0.0000 0.8561 -0.0002 7.9556
#
#
#
# Elastic Compliance Matrix: (Units=1/GPa)
#
#
# Indices 1 2 3 4 5 6 
#
# 1 0.043062 -0.020003 -0.013594 0.000001 0.002011 0.000000
# 2 -0.020003 0.043062 -0.013594 -0.000001 -0.002011 0.000000
# 3 -0.013594 -0.013594 0.023879 0.000000 0.000000 0.000000
# 4 0.000001 -0.000001 0.000000 0.037373 0.000000 -0.004022
# 5 0.002011 -0.002011 0.000000 0.000000 0.037373 0.000001
# 6 0.000000 0.000000 0.000000 -0.004022 0.000001 0.126131
#
#
# Mechanical properties :
#
#
# Convention : Reuss Voigt Hill
#
# Bulk Modulus (GPa) = 64.02121 76.84675 70.43398
# Shear Modulus (GPa) = 12.18118 16.79847 14.48983
#
# Velocity S-wave (km/s) = 2.76378 3.24559 3.01432
# Velocity P-wave (km/s) = 7.09439 7.88882 7.50213
#
# Compressibility (1/GPa) = 0.01561982
#
# Stress axis : x y z
#
# Youngs Moduli (GPa) = 23.22222 23.22222 41.87819
#
# Poissons Ratio (x) = 0.46452 0.56930
# Poissons Ratio (y) = 0.46452 0.56930
# Poissons Ratio (z) = 0.31569 0.31569
#
# Static dielectric constant tensor:
#      x y z
#    x 1.439730 0.000000 0.000000 
#    y 0.000000 1.439730 0.000000 
#    z 0.000000 0.000000 1.554060 
# 
# From -- ./inp_files/1691.got.cif
#   From: 2010.05.17/outbox.cif.g08.bks.cpg/sg162_1_cif.got.tgz:1691.got - 2010.05.20 10:53:12.
