data_PCOD9577666
_publ_section_title
;
Structure prediction by ZEFSAII (Michael W. Deem and Ramdas Pophale) SiO2 
 PCOD9577666
Probable space group: P -3 1 M 
;
_chemical_formula_sum "Si O2"
_cell_formula_units_Z 90
_cell_length_a 18.412554
_cell_length_b 18.412554
_cell_length_c 13.954580
_cell_angle_alpha 90.000000
_cell_angle_beta 90.000000
_cell_angle_gamma 120.000000
_cell_volume 4097.089665
_symmetry_space_group_name_H-M "P -3 1 M "
_symmetry_group_IT_number 162
_symmetry_cell_setting 'hexagonal'
loop_
_space_group_symop_operation_xyz
x,y,z
-y,x-y,z
-x+y,-x,z
-y,-x,-z
-x+y,y,-z
x,x-y,-z
-x,-y,-z
y,-x+y,-z
x-y,x,-z
y,x,z
x-y,-y,z
-x,-x+y,z
loop_
_atom_site_type_symbol
_atom_site_label
_atom_site_fract_x
_atom_site_fract_y
_atom_site_fract_z
Si Si1 0.789022 0.152166 0.874563
Si Si2 0.899152 0.798304 0.000000
Si Si3 0.214849 0.845464 0.355856
Si Si4 0.899151 0.503485 0.866076
Si Si5 0.602726 0.100682 0.644446
Si Si6 0.904446 0.347171 0.637351
Si Si7 0.904178 0.557093 0.129156
Si Si8 0.909583 0.820166 0.387725
O O1 0.839607 0.108959 0.918082
O O2 0.781338 0.142749 0.759596
O O3 0.694241 0.123569 0.908308
O O4 0.846154 0.250706 0.894758
O O5 0.856021 0.856021 0.978119
O O6 0.306981 0.874833 0.396234
O O7 0.156034 0.749058 0.383738
O O8 0.166971 0.893611 0.384998
O O9 0.869415 0.489855 0.755189
O O10 0.872483 0.410595 0.903316
O O11 0.000000 0.549902 0.865653
O O12 0.537733 0.127192 0.604246
O O13 0.548716 0.000000 0.645213
O O14 0.907673 0.352425 0.754140
O O15 0.000000 0.383127 0.603603
O O16 0.000000 0.616059 0.095979
O O17 0.919358 0.838716 0.500000
O O18 0.882167 0.882167 0.340054
O O19 0.000000 0.838128 0.350050
#
# Coordination Sequence:
#
# PCOD9577666 Si02
#       8
#    12   6  12  12  12  12  12  12
#     4  10  20  35  55  79 104 138 180 219 257 311
#     4  12  27  44  58  74 102 138 178 228 283 330
#     4  10  18  31  55  81 102 136 183 220 250 308
#     4   8  14  27  47  71  99 129 162 203 252 300
#     4   8  14  25  42  68 102 133 161 202 252 293
#     4   8  14  25  42  68 102 133 161 202 252 293
#     4   8  14  27  47  71  99 129 162 203 252 300
#     4  10  21  36  54  78 108 138 170 219 284 341
#
# _framework density 21.966813999999999
#
# number of rings (size 3 to 8) (size 9 to 14) (size 15 to 20)
#    0.000    2.933    0.000    3.400    0.000    3.733 
#    1.600    0.667    0.000    4.800    0.000    3.733 
#    0.000    0.000    0.000    0.000    0.000    0.000 
#
# Total GULP energy -501745.920381 kJ/mol
# GULP energy per Si atom -5574.954671 kJ/mol
# Density = 2.191682 g / cm^3
# Si number density = 21.966814 Si / 1000 Ang^3
#
#
#
# Elastic Constant Matrix: (Units=GPa)
#
#
# Indices 1 2 3 4 5 6 
#
# 1 120.7144 56.9342 -11.0974 0.0000 -3.4126 0.0000
# 2 56.9342 120.7144 -11.0974 0.0000 3.4126 0.0000
# 3 -11.0974 -11.0974 33.7606 0.0000 0.0000 0.0000
# 4 0.0000 0.0000 0.0000 8.7730 0.0000 3.4126
# 5 -3.4126 3.4126 0.0000 0.0000 8.7730 0.0000
# 6 0.0000 0.0000 0.0000 3.4126 0.0000 31.8901
#
#
#
# Elastic Compliance Matrix: (Units=1/GPa)
#
#
# Indices 1 2 3 4 5 6 
#
# 1 0.011115 -0.005245 0.001930 0.000000 0.006364 0.000000
# 2 -0.005245 0.011115 0.001930 0.000000 -0.006364 0.000000
# 3 0.001930 0.001930 0.030889 0.000000 0.000000 0.000000
# 4 0.000000 0.000000 0.000000 0.118938 0.000000 -0.012728
# 5 0.006364 -0.006364 0.000000 0.000000 0.118938 0.000000
# 6 0.000000 0.000000 0.000000 -0.012728 0.000000 0.032720
#
#
# Mechanical properties :
#
#
# Convention : Reuss Voigt Hill
#
# Bulk Modulus (GPa) = 19.86198 38.29650 29.07924
# Shear Modulus (GPa) = 14.56589 25.91720 20.24155
#
# Velocity S-wave (km/s) = 2.57784 3.43860 3.03885
# Velocity P-wave (km/s) = 4.23341 5.76515 5.05760
#
# Compressibility (1/GPa) = 0.05034745
#
# Stress axis : x y z
#
# Youngs Moduli (GPa) = 89.96843 89.96843 32.37412
#
# Poissons Ratio (x) = 0.47187 -0.06247
# Poissons Ratio (y) = 0.47187 -0.06247
# Poissons Ratio (z) = -0.17360 -0.17360
#
# Static dielectric constant tensor:
#      x y z
#    x 1.800410 0.000000 0.000000 
#    y 0.000000 1.800410 0.000000 
#    z 0.000000 0.000000 1.938820 
# 
# From -- ./inp_files/3662.got.cif
#   From: 2010.05.17/outbox.cif.g08.bks.cpg/sg162_2_cif.got.tgz:3662.got - 2010.05.20 10:53:12.
