data_PCOD9577161
_publ_section_title
;
Structure prediction by ZEFSAII (Michael W. Deem and Ramdas Pophale) SiO2 
 PCOD9577161
Probable space group: R 3 2
;
_chemical_formula_sum "Si O2"
_cell_formula_units_Z 81
_cell_length_a 15.146109
_cell_length_b 15.146109
_cell_length_c 20.341284
_cell_angle_alpha 90.000000
_cell_angle_beta 90.000000
_cell_angle_gamma 120.000000
_cell_volume 4041.207506
_symmetry_space_group_name_H-M "R 3 2"
_symmetry_group_IT_number 155
_symmetry_cell_setting 'hexagonal'
loop_
_space_group_symop_operation_xyz
x,y,z
-y,x-y,z
-x+y,-x,z
x-y,-y,-z
-x,-x+y,-z
y,x,-z
2/3+x,1/3+y,1/3+z
2/3-y,1/3+x-y,1/3+z
2/3-x+y,1/3-x,1/3+z
2/3+x-y,1/3-y,1/3-z
2/3-x,1/3-x+y,1/3-z
2/3+y,1/3+x,1/3-z
1/3+x,2/3+y,2/3+z
1/3-y,2/3+x-y,2/3+z
1/3-x+y,2/3-x,2/3+z
1/3+x-y,2/3-y,2/3-z
1/3-x,2/3-x+y,2/3-z
1/3+y,2/3+x,2/3-z
loop_
_atom_site_type_symbol
_atom_site_label
_atom_site_fract_x
_atom_site_fract_y
_atom_site_fract_z
Si Si1 0.000000 0.461827 0.500000
Si Si2 0.861157 0.359045 0.945230
Si Si3 0.217876 0.187243 0.400248
Si Si4 0.936595 0.172808 0.762662
Si Si5 0.249940 0.266825 0.751975
O O1 0.900405 0.353900 0.515252
O O2 0.996690 0.529959 0.559358
O O3 0.804207 0.244836 0.918241
O O4 0.822032 0.434040 0.920037
O O5 0.979051 0.421575 0.924704
O O6 0.848383 0.351853 0.025149
O O7 0.237113 0.218517 0.323489
O O8 0.296902 0.295826 0.430157
O O9 0.844150 0.061860 0.783035
#
# Coordination Sequence:
#
# PCOD9577161 Si02
#       5
#     9  18  18  18  18
#     4  12  20  36  56  76 112 160 166 230 296 310
#     4   9  16  32  55  80 104 134 175 229 270 325
#     4   9  16  32  55  80 104 134 175 229 270 325
#     4   9  20  33  50  79 108 137 187 222 265 328
#     4   9  20  33  50  79 108 137 187 222 265 328
#
# _framework density 20.043514999999999
#
# number of rings (size 3 to 8) (size 9 to 14) (size 15 to 20)
#    0.000    2.667    2.222    3.111    0.000    1.778 
#    1.333    0.000    0.000    0.000    0.000   10.889 
#    0.000    0.000    0.000    0.000    0.000    0.000 
#
# Total GULP energy -150308.437663 kJ/mol
# GULP energy per Si atom -5566.979173 kJ/mol
# Density = 1.999789 g / cm^3
# Si number density = 20.043515 Si / 1000 Ang^3
#
#
#
# Elastic Constant Matrix: (Units=GPa)
#
#
# Indices 1 2 3 4 5 6 
#
# 1 61.0306 11.7973 15.9057 4.5788 0.0000 0.0000
# 2 11.7973 61.0306 15.9057 -4.5788 0.0000 0.0000
# 3 15.9057 15.9057 51.1069 0.0000 0.0000 0.0000
# 4 4.5788 -4.5788 0.0000 10.2616 0.0000 0.0000
# 5 0.0000 0.0000 0.0000 0.0000 10.2616 4.5788
# 6 0.0000 0.0000 0.0000 0.0000 4.5788 24.6167
#
#
#
# Elastic Compliance Matrix: (Units=1/GPa)
#
#
# Indices 1 2 3 4 5 6 
#
# 1 0.019021 -0.003129 -0.004946 -0.009883 0.000000 0.000000
# 2 -0.003129 0.019021 -0.004946 0.009883 0.000000 0.000000
# 3 -0.004946 -0.004946 0.022645 0.000000 0.000000 0.000000
# 4 -0.009883 0.009883 0.000000 0.106271 0.000000 0.000000
# 5 0.000000 0.000000 0.000000 0.000000 0.106271 -0.019767
# 6 0.000000 0.000000 0.000000 0.000000 -0.019767 0.044300
#
#
# Mechanical properties :
#
#
# Convention : Reuss Voigt Hill
#
# Bulk Modulus (GPa) = 28.86430 28.93175 28.89803
# Shear Modulus (GPa) = 14.07981 17.66525 15.87253
#
# Velocity S-wave (km/s) = 2.65328 2.97197 2.81713
# Velocity P-wave (km/s) = 4.88043 5.12275 5.00306
#
# Compressibility (1/GPa) = 0.03464487
#
# Stress axis : x y z
#
# Youngs Moduli (GPa) = 52.57468 52.57468 44.15926
#
# Poissons Ratio (x) = 0.16452 0.21840
# Poissons Ratio (y) = 0.16452 0.21840
# Poissons Ratio (z) = 0.26002 0.26002
#
# Static dielectric constant tensor:
#      x y z
#    x 1.739880 0.000000 0.000000 
#    y 0.000000 1.739880 0.000000 
#    z 0.000000 0.000000 1.803530 
# 
# From -- ./inp_files/7368.got.cif
#   From: 2010.05.17/outbox.cif.g08.bks.cpg/sg155_4_cif.got.tgz:7368.got - 2010.05.20 10:44:35.
