data_PCOD9577600
_publ_section_title
;
Structure prediction by ZEFSAII (Michael W. Deem and Ramdas Pophale) SiO2 
 PCOD9577600
Probable space group: R 3 C
;
_chemical_formula_sum "Si O2"
_cell_formula_units_Z 54
_cell_length_a 13.648927
_cell_length_b 13.648927
_cell_length_c 13.634196
_cell_angle_alpha 90.000000
_cell_angle_beta 90.000000
_cell_angle_gamma 120.000000
_cell_volume 2199.668252
_symmetry_space_group_name_H-M "R 3 C"
_symmetry_group_IT_number 161
_symmetry_cell_setting 'hexagonal'
loop_
_space_group_symop_operation_xyz
x,y,z
-y,x-y,z
-x+y,-x,z
-x+y,y,1/2+z
x,x-y,1/2+z
-y,-x,1/2+z
2/3+x,1/3+y,1/3+z
2/3-y,1/3+x-y,1/3+z
2/3-x+y,1/3-x,1/3+z
2/3-x+y,1/3+y,5/6+z
2/3+x,1/3+x-y,5/6+z
2/3-y,1/3-x,5/6+z
1/3+x,2/3+y,2/3+z
1/3-y,2/3+x-y,2/3+z
1/3-x+y,2/3-x,2/3+z
1/3-x+y,2/3+y,1/6+z
1/3+x,2/3+x-y,1/6+z
1/3-y,2/3-x,1/6+z
loop_
_atom_site_type_symbol
_atom_site_label
_atom_site_fract_x
_atom_site_fract_y
_atom_site_fract_z
Si Si1 0.458460 0.393533 0.286697
Si Si2 0.502215 0.627081 0.305782
Si Si3 0.621358 0.104428 0.056929
O O1 0.534685 0.528421 0.308622
O O2 0.490353 0.320401 0.357713
O O3 0.465382 0.379451 0.172133
O O4 0.336816 0.369555 0.329801
O O5 0.382582 0.565087 0.360630
O O6 0.580302 0.749068 0.353604
#
# Coordination Sequence:
#
# PCOD9577600 Si02
#       3
#    18  18  18
#     4  10  26  43  78 111 156 202 261 321 394 470
#     4  10  25  44  75 111 153 205 260 320 399 462
#     4  10  25  47  75 112 157 201 265 323 395 474
#
# _framework density 24.549159
#
# number of rings (size 3 to 8) (size 9 to 14) (size 15 to 20)
#    2.000    0.000    0.000    0.667    9.333    2.667 
#    0.000    0.000    0.000    0.000    0.000    0.000 
#    0.000    0.000    0.000    0.000    0.000    0.000 
#
# Total GULP energy -100390.104006 kJ/mol
# GULP energy per Si atom -5577.228000 kJ/mol
# Density = 2.449328 g / cm^3
# Si number density = 24.549159 Si / 1000 Ang^3
#
#
#
# Elastic Constant Matrix: (Units=GPa)
#
#
# Indices 1 2 3 4 5 6 
#
# 1 92.7507 30.3564 63.4877 0.1053 0.0000 0.0000
# 2 30.3564 92.7507 63.4877 -0.1053 0.0000 0.0000
# 3 63.4877 63.4877 267.7714 0.0000 0.0000 0.0000
# 4 0.1053 -0.1053 0.0000 40.7544 0.0000 0.0000
# 5 0.0000 0.0000 0.0000 0.0000 40.7544 0.1053
# 6 0.0000 0.0000 0.0000 0.0000 0.1053 31.1971
#
#
#
# Elastic Compliance Matrix: (Units=1/GPa)
#
#
# Indices 1 2 3 4 5 6 
#
# 1 0.013390 -0.002637 -0.002549 -0.000041 0.000000 0.000000
# 2 -0.002637 0.013390 -0.002549 0.000041 0.000000 0.000000
# 3 -0.002549 -0.002549 0.004943 0.000000 0.000000 0.000000
# 4 -0.000041 0.000041 0.000000 0.024537 0.000000 0.000000
# 5 0.000000 0.000000 0.000000 0.000000 0.024537 -0.000083
# 6 0.000000 0.000000 0.000000 0.000000 -0.000083 0.032055
#
#
# Mechanical properties :
#
#
# Convention : Reuss Voigt Hill
#
# Bulk Modulus (GPa) = 61.53505 85.32626 73.43066
# Shear Modulus (GPa) = 37.38544 42.27056 39.82800
#
# Velocity S-wave (km/s) = 3.90664 4.15405 4.03224
# Velocity P-wave (km/s) = 6.74312 7.60532 7.18716
#
# Compressibility (1/GPa) = 0.01625090
#
# Stress axis : x y z
#
# Youngs Moduli (GPa) = 74.68326 74.68326 202.28873
#
# Poissons Ratio (x) = 0.19697 0.51571
# Poissons Ratio (y) = 0.19697 0.51571
# Poissons Ratio (z) = 0.19040 0.19040
#
# Static dielectric constant tensor:
#      x y z
#    x 2.026160 0.000000 0.000000 
#    y 0.000000 2.026160 0.000000 
#    z 0.000000 0.000000 1.906660 
# 
# From -- ./inp_files/504.got.cif
#   From: 2010.05.17/outbox.cif.g08.bks.cpg/sg161_cif.got.tgz:504.got - 2010.05.20 10:52:32.
