data_PCOD9577424
_publ_section_title
;
Structure prediction by ZEFSAII (Michael W. Deem and Ramdas Pophale) SiO2 
 PCOD9577424
Probable space group: P 3 1 C
;
_chemical_formula_sum "Si O2"
_cell_formula_units_Z 36
_cell_length_a 9.555657
_cell_length_b 9.555657
_cell_length_c 16.636465
_cell_angle_alpha 90.000000
_cell_angle_beta 90.000000
_cell_angle_gamma 120.000000
_cell_volume 1315.566443
_symmetry_space_group_name_H-M "P 3 1 C"
_symmetry_group_IT_number 159
_symmetry_cell_setting 'hexagonal'
loop_
_space_group_symop_operation_xyz
x,y,z
-y,x-y,z
-x+y,-x,z
y,x,1/2+z
x-y,-y,1/2+z
-x,-x+y,1/2+z
loop_
_atom_site_type_symbol
_atom_site_label
_atom_site_fract_x
_atom_site_fract_y
_atom_site_fract_z
Si Si1 0.883096 0.716052 0.822840
Si Si2 0.794800 0.533882 0.370966
Si Si3 0.086268 0.315250 0.503659
Si Si4 0.960195 0.553008 0.702455
Si Si5 0.605744 0.054543 0.530342
Si Si6 0.935469 0.219339 0.180004
O O1 0.068140 0.777767 0.847147
O O2 0.854430 0.550288 0.778574
O O3 0.201567 0.045250 0.748395
O O4 0.801713 0.722638 0.907239
O O5 0.607190 0.444836 0.346316
O O6 0.814429 0.535128 0.466378
O O7 0.025957 0.442433 0.512305
O O8 0.272755 0.373718 0.518834
O O9 0.017306 0.214980 0.588387
O O10 0.870792 0.527932 0.618013
O O11 0.108146 0.741305 0.694030
O O12 0.025101 0.428321 0.694455
#
# Coordination Sequence:
#
# PCOD9577424 Si02
#       6
#     6   6   6   6   6   6
#     4  11  24  40  71 114 152 206 268 329 393 488
#     4   9  22  40  67 106 151 200 259 331 408 476
#     4   9  20  38  64 100 154 196 248 317 393 469
#     4  10  23  42  71 111 151 207 259 325 392 481
#     4   9  18  38  65  97 144 203 252 313 395 476
#     4  10  23  46  72 108 158 206 264 319 407 482
#
# _framework density 27.364639
#
# number of rings (size 3 to 8) (size 9 to 14) (size 15 to 20)
#    0.333    2.000    0.000    0.667    7.000    5.333 
#    2.000    3.333    0.000    0.000    0.000    0.000 
#    0.000    0.000    0.000    0.000    0.000    0.000 
#
# Total GULP energy -200626.630738 kJ/mol
# GULP energy per Si atom -5572.961965 kJ/mol
# Density = 2.730236 g / cm^3
# Si number density = 27.364639 Si / 1000 Ang^3
#
#
#
# Elastic Constant Matrix: (Units=GPa)
#
#
# Indices 1 2 3 4 5 6 
#
# 1 123.4152 71.7138 51.9820 0.0000 0.5979 0.0000
# 2 71.7138 123.4152 51.9820 0.0000 -0.5979 0.0000
# 3 51.9820 51.9820 288.2963 0.0000 0.0000 0.0000
# 4 0.0000 0.0000 0.0000 30.0168 0.0000 -0.5979
# 5 0.5979 -0.5979 0.0000 0.0000 30.0168 0.0000
# 6 0.0000 0.0000 0.0000 -0.5979 0.0000 25.8507
#
#
#
# Elastic Compliance Matrix: (Units=1/GPa)
#
#
# Indices 1 2 3 4 5 6 
#
# 1 0.012510 -0.006841 -0.001022 0.000000 -0.000385 0.000000
# 2 -0.006841 0.012510 -0.001022 0.000000 0.000385 0.000000
# 3 -0.001022 -0.001022 0.003837 0.000000 0.000000 0.000000
# 4 0.000000 0.000000 0.000000 0.033330 0.000000 0.000771
# 5 -0.000385 0.000385 0.000000 0.000000 0.033330 0.000000
# 6 0.000000 0.000000 0.000000 0.000771 0.000000 0.038702
#
#
# Mechanical properties :
#
#
# Convention : Reuss Voigt Hill
#
# Bulk Modulus (GPa) = 90.19384 98.49804 94.34594
# Shear Modulus (GPa) = 32.11611 41.14013 36.62812
#
# Velocity S-wave (km/s) = 3.42955 3.88158 3.66255
# Velocity P-wave (km/s) = 6.97954 7.49411 7.24140
#
# Compressibility (1/GPa) = 0.01108723
#
# Stress axis : x y z
#
# Youngs Moduli (GPa) = 79.93532 79.93532 260.60053
#
# Poissons Ratio (x) = 0.54681 0.26640
# Poissons Ratio (y) = 0.54681 0.26640
# Poissons Ratio (z) = 0.08171 0.08171
#
# Static dielectric constant tensor:
#      x y z
#    x 2.178660 0.000000 0.000000 
#    y 0.000000 2.178660 0.000000 
#    z 0.000000 0.000000 2.364360 
# 
# From -- ./inp_files/1084.got.cif
#   From: 2010.05.17/outbox.cif.g08.bks.cpg/sg159_cif.got.tgz:1084.got - 2010.05.20 10:50:30.
