data_PCOD9577667
_publ_section_title
;
Structure prediction by ZEFSAII (Michael W. Deem and Ramdas Pophale) SiO2 
 PCOD9577667
Probable space group: P -3 1 M 
;
_chemical_formula_sum "Si O2"
_cell_formula_units_Z 96
_cell_length_a 17.227571
_cell_length_b 17.227571
_cell_length_c 19.997814
_cell_angle_alpha 90.000000
_cell_angle_beta 90.000000
_cell_angle_gamma 120.000000
_cell_volume 5139.977919
_symmetry_space_group_name_H-M "P -3 1 M "
_symmetry_group_IT_number 162
_symmetry_cell_setting 'hexagonal'
loop_
_space_group_symop_operation_xyz
x,y,z
-y,x-y,z
-x+y,-x,z
-y,-x,-z
-x+y,y,-z
x,x-y,-z
-x,-y,-z
y,-x+y,-z
x-y,x,-z
y,x,z
x-y,-y,z
-x,-x+y,z
loop_
_atom_site_type_symbol
_atom_site_label
_atom_site_fract_x
_atom_site_fract_y
_atom_site_fract_z
Si Si1 0.102087 0.446274 0.864251
Si Si2 0.895875 0.617414 0.415983
Si Si3 0.102097 0.896832 0.921749
Si Si4 0.446246 0.891093 0.638158
Si Si5 0.895400 0.487218 0.783584
Si Si6 0.533534 0.638483 0.016793
Si Si7 0.763309 0.609817 0.141839
Si Si8 0.896429 0.281843 0.422701
O O1 0.131229 0.547715 0.844211
O O2 0.169417 0.421173 0.831724
O O3 0.000000 0.383418 0.843056
O O4 0.104357 0.429241 0.943281
O O5 0.867332 0.517130 0.391111
O O6 0.816965 0.638801 0.397278
O O7 0.897995 0.618134 0.496739
O O8 0.000000 0.684878 0.393816
O O9 0.110318 0.823660 0.877616
O O10 0.000000 0.875528 0.917688
O O11 0.171372 0.000000 0.904277
O O12 0.116998 0.883003 0.000000
O O13 0.441022 0.854538 0.713300
O O14 0.512991 0.868198 0.597768
O O15 0.499717 0.000000 0.638052
O O16 0.887112 0.572006 0.804311
O O17 0.000000 0.525658 0.775541
O O18 0.577478 0.577478 0.038880
O O19 0.559646 0.712402 0.072969
O O20 0.429848 0.570153 0.000000
O O21 0.000000 0.320199 0.399495
#
# Coordination Sequence:
#
# PCOD9577667 Si02
#       8
#    12  12  12  12  12  12  12  12
#     4  10  21  36  51  71  98 128 166 214 262 310
#     4   9  17  31  54  82 114 150 185 224 272 323
#     4  10  20  34  54  81 110 136 169 221 286 347
#     4   9  18  33  53  75 103 142 183 223 268 315
#     4  10  21  37  53  70  98 137 174 211 258 313
#     4  10  18  32  53  71  90 121 163 210 261 308
#     4  12  21  33  54  77  98 134 174 216 260 329
#     4   9  17  31  54  84 114 145 186 231 270 317
#
# _framework density 18.677123999999999
#
# number of rings (size 3 to 8) (size 9 to 14) (size 15 to 20)
#    0.000    2.125    1.250    3.125    0.000    5.000 
#    1.500    0.000    0.000    1.000    0.000    1.750 
#    0.000    0.000    0.000    0.000    0.000    0.000 
#
# Total GULP energy -534612.444743 kJ/mol
# GULP energy per Si atom -5568.879633 kJ/mol
# Density = 1.863461 g / cm^3
# Si number density = 18.677124 Si / 1000 Ang^3
#
#
#
# Elastic Constant Matrix: (Units=GPa)
#
#
# Indices 1 2 3 4 5 6 
#
# 1 90.7640 46.6849 17.0972 -0.0001 0.1854 0.0000
# 2 46.6849 90.7640 17.0972 0.0001 -0.1854 0.0000
# 3 17.0972 17.0972 27.0677 0.0000 0.0000 0.0000
# 4 -0.0001 0.0001 0.0000 10.4428 0.0000 -0.1854
# 5 0.1854 -0.1854 0.0000 0.0000 10.4428 -0.0001
# 6 0.0000 0.0000 0.0000 -0.1854 -0.0001 22.0395
#
#
#
# Elastic Compliance Matrix: (Units=1/GPa)
#
#
# Indices 1 2 3 4 5 6 
#
# 1 0.015661 -0.007029 -0.005452 0.000000 -0.000403 0.000000
# 2 -0.007029 0.015661 -0.005452 0.000000 0.000403 0.000000
# 3 -0.005452 -0.005452 0.043832 0.000000 0.000000 0.000000
# 4 0.000000 0.000000 0.000000 0.095774 0.000000 0.000806
# 5 -0.000403 0.000403 0.000000 0.000000 0.095774 0.000000
# 6 0.000000 0.000000 0.000000 0.000806 0.000000 0.045380
#
#
# Mechanical properties :
#
#
# Convention : Reuss Voigt Hill
#
# Bulk Modulus (GPa) = 25.45380 41.15047 33.30214
# Shear Modulus (GPa) = 13.84873 17.09946 15.47409
#
# Velocity S-wave (km/s) = 2.72597 3.02905 2.88150
# Velocity P-wave (km/s) = 4.85446 5.85781 5.37958
#
# Compressibility (1/GPa) = 0.03928686
#
# Stress axis : x y z
#
# Youngs Moduli (GPa) = 63.85339 63.85339 22.81423
#
# Poissons Ratio (x) = 0.44883 0.12439
# Poissons Ratio (y) = 0.44883 0.12439
# Poissons Ratio (z) = 0.34815 0.34815
#
# Static dielectric constant tensor:
#      x y z
#    x 1.676590 0.000000 0.000000 
#    y 0.000000 1.676590 0.000000 
#    z 0.000000 0.000000 1.677800 
# 
# From -- ./inp_files/3905.got.cif
#   From: 2010.05.17/outbox.cif.g08.bks.cpg/sg162_2_cif.got.tgz:3905.got - 2010.05.20 10:53:12.
