data_PCOD9577513
_publ_section_title
;
Structure prediction by ZEFSAII (Michael W. Deem and Ramdas Pophale) SiO2 
 PCOD9577513
Probable space group: R 3 M
;
_chemical_formula_sum "Si O2"
_cell_formula_units_Z 48
_cell_length_a 21.000000
_cell_length_b 21.000000
_cell_length_c 21.000000
_cell_angle_alpha 90.000000
_cell_angle_beta 90.000000
_cell_angle_gamma 120.000000
_cell_volume 8020.261264
_symmetry_space_group_name_H-M "R 3 M"
_symmetry_group_IT_number 160
_symmetry_cell_setting 'hexagonal'
loop_
_space_group_symop_operation_xyz
x,y,z
-y,x-y,z
-x+y,-x,z
-x+y,y,z
x,x-y,z
-y,-x,z
2/3+x,1/3+y,1/3+z
2/3-y,1/3+x-y,1/3+z
2/3-x+y,1/3-x,1/3+z
2/3-x+y,1/3+y,1/3+z
2/3+x,1/3+x-y,1/3+z
2/3-y,1/3-x,1/3+z
1/3+x,2/3+y,2/3+z
1/3-y,2/3+x-y,2/3+z
1/3-x+y,2/3-x,2/3+z
1/3-x+y,2/3+y,2/3+z
1/3+x,2/3+x-y,2/3+z
1/3-y,2/3-x,2/3+z
loop_
_atom_site_type_symbol
_atom_site_label
_atom_site_fract_x
_atom_site_fract_y
_atom_site_fract_z
Si Si1 0.689731 0.981241 0.344642
Si Si2 0.520684 0.186400 0.307775
Si Si3 0.621676 0.092156 0.178478
Si Si4 0.948209 0.747238 0.460420
Si Si5 0.335506 0.519128 0.239884
Si Si6 0.033492 0.366882 0.862408
Si Si7 0.964333 0.180801 0.703407
Si Si8 0.933362 0.213358 0.070849
O O1 0.714235 0.000970 0.271259
O O2 0.636942 0.894581 0.355583
O O3 0.755606 0.015422 0.395394
O O4 0.632539 0.008529 0.366645
O O5 0.607423 0.214845 0.305872
O O6 0.504075 0.252038 0.312795
O O7 0.489007 0.142813 0.241105
O O8 0.488828 0.131724 0.368057
O O9 0.535739 0.071477 0.174620
O O10 0.658599 0.128072 0.109957
O O11 0.640891 0.027743 0.187481
O O12 0.878089 0.756178 0.446692
O O13 0.924130 0.672864 0.500638
O O14 0.002344 0.810066 0.509596
O O15 0.254582 0.509164 0.241014
O O16 0.396940 0.603061 0.235897
O O17 0.345953 0.487191 0.307003
O O18 0.099055 0.384941 0.812179
O O19 0.904950 0.095051 0.705075
O O20 0.847081 0.152919 0.063441
#
# Coordination Sequence:
#
# PCOD9577513 Si02
#       8
#    18  18  18  18  18  18  18  18
#     4  11  21  37  56  81 109 146 185 227 283 331
#     4  10  21  38  59  83 112 148 189 231 278 333
#     4  10  20  35  54  82 117 146 182 228 271 331
#     4  10  22  38  55  80 112 144 186 233 274 326
#     4  10  21  37  57  81 110 147 188 230 274 324
#     4  11  21  37  55  82 111 148 183 224 284 330
#     4  10  20  35  53  80 115 147 181 226 274 331
#     4  10  22  37  53  81 116 144 184 229 270 332
#
# _framework density 5.9848420000000004
#
# number of rings (size 3 to 8) (size 9 to 14) (size 15 to 20)
#    0.000    1.750    5.000    0.250    0.000    5.000 
#    0.000    0.000    0.000    1.500    0.000    0.000 
#    0.000    2.000    0.000    0.000    0.000    0.000 
#
# Total GULP energy -267307.852598 kJ/mol
# GULP energy per Si atom -5568.913596 kJ/mol
# Density = 0.597122 g / cm^3
# Si number density = 5.984842 Si / 1000 Ang^3
#
#
#
# Elastic Constant Matrix: (Units=GPa)
#
#
# Indices 1 2 3 4 5 6 
#
# 1 41.3564 4.0195 23.2675 0.7543 -0.0002 0.0000
# 2 4.0195 41.3564 23.2675 -0.7543 0.0002 0.0000
# 3 23.2675 23.2675 174.2190 0.0000 0.0000 0.0000
# 4 0.7543 -0.7543 0.0000 19.2634 0.0000 0.0002
# 5 -0.0002 0.0002 0.0000 0.0000 19.2634 0.7543
# 6 0.0000 0.0000 0.0000 0.0002 0.7543 18.6684
#
#
#
# Elastic Compliance Matrix: (Units=1/GPa)
#
#
# Indices 1 2 3 4 5 6 
#
# 1 0.026181 -0.000645 -0.003410 -0.001050 0.000000 0.000000
# 2 -0.000645 0.026181 -0.003410 0.001050 0.000000 0.000000
# 3 -0.003410 -0.003410 0.006651 0.000000 0.000000 0.000000
# 4 -0.001050 0.001050 0.000000 0.051994 0.000000 0.000000
# 5 0.000000 0.000000 0.000000 0.000000 0.051994 -0.002101
# 6 0.000000 0.000000 0.000000 0.000000 -0.002101 0.053651
#
#
# Mechanical properties :
#
#
# Convention : Reuss Voigt Hill
#
# Bulk Modulus (GPa) = 22.68573 39.78231 31.23402
# Shear Modulus (GPa) = 20.30236 25.19752 22.74994
#
# Velocity S-wave (km/s) = 3.36633 3.75027 3.56348
# Velocity P-wave (km/s) = 5.26993 6.39985 5.86218
#
# Compressibility (1/GPa) = 0.04408058
#
# Stress axis : x y z
#
# Youngs Moduli (GPa) = 38.19622 38.19622 150.35722
#
# Poissons Ratio (x) = 0.02464 0.51277
# Poissons Ratio (y) = 0.02464 0.51277
# Poissons Ratio (z) = 0.13026 0.13026
#
# Static dielectric constant tensor:
#      x y z
#    x 1.644560 0.000000 0.000000 
#    y 0.000000 1.644560 0.000000 
#    z 0.000000 0.000000 1.631060 
# 
# From -- ./inp_files/3469.got.cif
#   From: 2010.05.17/outbox.ucp.g08.bks.cvg/sg160_2_cif.got.tgz:3469.got - 2010.06.11 15:14:33.
