data_PCOD9577591
_publ_section_title
;
Structure prediction by ZEFSAII (Michael W. Deem and Ramdas Pophale) SiO2 
 PCOD9577591
Probable space group: R 3 C
;
_chemical_formula_sum "Si O2"
_cell_formula_units_Z 66
_cell_length_a 13.840280
_cell_length_b 13.840280
_cell_length_c 17.189076
_cell_angle_alpha 90.000000
_cell_angle_beta 90.000000
_cell_angle_gamma 120.000000
_cell_volume 2851.496981
_symmetry_space_group_name_H-M "R 3 C"
_symmetry_group_IT_number 161
_symmetry_cell_setting 'hexagonal'
loop_
_space_group_symop_operation_xyz
x,y,z
-y,x-y,z
-x+y,-x,z
-x+y,y,1/2+z
x,x-y,1/2+z
-y,-x,1/2+z
2/3+x,1/3+y,1/3+z
2/3-y,1/3+x-y,1/3+z
2/3-x+y,1/3-x,1/3+z
2/3-x+y,1/3+y,5/6+z
2/3+x,1/3+x-y,5/6+z
2/3-y,1/3-x,5/6+z
1/3+x,2/3+y,2/3+z
1/3-y,2/3+x-y,2/3+z
1/3-x+y,2/3-x,2/3+z
1/3-x+y,2/3+y,1/6+z
1/3+x,2/3+x-y,1/6+z
1/3-y,2/3-x,1/6+z
loop_
_atom_site_type_symbol
_atom_site_label
_atom_site_fract_x
_atom_site_fract_y
_atom_site_fract_z
Si Si1 0.608084 0.941415 0.357393
Si Si2 0.000000 0.000000 0.285760
Si Si3 0.749517 0.833274 0.589831
Si Si4 0.499943 0.417095 0.624959
Si Si5 0.666667 0.333334 0.429040
O O1 0.492125 0.927874 0.329836
O O2 0.594539 0.825456 0.384950
O O3 0.660622 0.035704 0.424433
O O4 0.702374 0.993953 0.290354
O O5 0.976054 0.879457 0.313776
O O6 0.000000 0.000000 0.190734
O O7 0.666674 0.833895 0.524058
O O8 0.879463 0.903395 0.567689
#
# Coordination Sequence:
#
# PCOD9577591 Si02
#       5
#    18   6  18  18   6
#     4  10  24  46  68 104 136 180 228 278 346 398
#     4  12  24  45  70 104 139 180 229 278 340 408
#     4  10  26  43  72 101 139 180 226 284 337 408
#     4  10  26  43  72 101 139 180 226 284 337 408
#     4  12  24  45  70 104 139 180 229 278 340 408
#
# _framework density 23.145738999999999
#
# number of rings (size 3 to 8) (size 9 to 14) (size 15 to 20)
#    1.636    0.000    2.727    0.000    7.636    4.364 
#    0.000    2.727    0.000    0.000    0.000    0.000 
#    0.000    0.000    0.000    0.000    0.000    0.000 
#
# Total GULP energy -122731.986199 kJ/mol
# GULP energy per Si atom -5578.726645 kJ/mol
# Density = 2.309306 g / cm^3
# Si number density = 23.145739 Si / 1000 Ang^3
#
#
#
# Elastic Constant Matrix: (Units=GPa)
#
#
# Indices 1 2 3 4 5 6 
#
# 1 104.6415 11.2404 -3.3079 15.7314 0.0000 0.0000
# 2 11.2404 104.6392 -3.3087 -15.7313 0.0000 0.0000
# 3 -3.3079 -3.3087 35.2518 0.0001 0.0000 0.0000
# 4 15.7314 -15.7313 0.0001 36.3911 0.0000 0.0000
# 5 0.0000 0.0000 0.0000 0.0000 36.3913 15.7313
# 6 0.0000 0.0000 0.0000 0.0000 15.7313 46.6996
#
#
#
# Elastic Compliance Matrix: (Units=1/GPa)
#
#
# Indices 1 2 3 4 5 6 
#
# 1 0.010604 -0.001928 0.000814 -0.005417 0.000000 0.000000
# 2 -0.001928 0.010604 0.000814 0.005417 0.000000 0.000000
# 3 0.000814 0.000814 0.028520 0.000000 0.000000 0.000000
# 4 -0.005417 0.005417 0.000000 0.032163 0.000000 0.000000
# 5 0.000000 0.000000 0.000000 0.000000 0.032163 -0.010834
# 6 0.000000 0.000000 0.000000 0.000000 -0.010834 0.025063
#
#
# Mechanical properties :
#
#
# Convention : Reuss Voigt Hill
#
# Bulk Modulus (GPa) = 20.35450 28.19780 24.27615
# Shear Modulus (GPa) = 32.03256 39.89030 35.96143
#
# Velocity S-wave (km/s) = 3.72418 4.15594 3.94597
# Velocity P-wave (km/s) = 5.22550 5.93618 5.59214
#
# Compressibility (1/GPa) = 0.04912919
#
# Stress axis : x y z
#
# Youngs Moduli (GPa) = 94.30732 94.30498 35.06288
#
# Poissons Ratio (x) = 0.18179 -0.02854
# Poissons Ratio (y) = 0.18180 -0.02855
# Poissons Ratio (z) = -0.07678 -0.07680
#
# Static dielectric constant tensor:
#      x y z
#    x 1.834370 0.000000 0.000000 
#    y 0.000000 1.834370 0.000000 
#    z 0.000000 0.000000 1.997050 
# 
# From -- ./inp_files/1216.got.cif
#   From: 2010.05.17/outbox.cif.g08.bks.cpg/sg161_cif.got.tgz:1216.got - 2010.05.20 10:52:32.
