data_PCOD9577019
_publ_section_title
;
Structure prediction by ZEFSAII (Michael W. Deem and Ramdas Pophale) SiO2 
 PCOD9577019
Probable space group: R 3 2
;
_chemical_formula_sum "Si O2"
_cell_formula_units_Z 72
_cell_length_a 18.057996
_cell_length_b 18.057996
_cell_length_c 11.397260
_cell_angle_alpha 90.000000
_cell_angle_beta 90.000000
_cell_angle_gamma 120.000000
_cell_volume 3218.623608
_symmetry_space_group_name_H-M "R 3 2"
_symmetry_group_IT_number 155
_symmetry_cell_setting 'hexagonal'
loop_
_space_group_symop_operation_xyz
x,y,z
-y,x-y,z
-x+y,-x,z
x-y,-y,-z
-x,-x+y,-z
y,x,-z
2/3+x,1/3+y,1/3+z
2/3-y,1/3+x-y,1/3+z
2/3-x+y,1/3-x,1/3+z
2/3+x-y,1/3-y,1/3-z
2/3-x,1/3-x+y,1/3-z
2/3+y,1/3+x,1/3-z
1/3+x,2/3+y,2/3+z
1/3-y,2/3+x-y,2/3+z
1/3-x+y,2/3-x,2/3+z
1/3+x-y,2/3-y,2/3-z
1/3-x,2/3-x+y,2/3-z
1/3+y,2/3+x,2/3-z
loop_
_atom_site_type_symbol
_atom_site_label
_atom_site_fract_x
_atom_site_fract_y
_atom_site_fract_z
Si Si1 0.366517 0.565918 0.869991
Si Si2 0.569326 0.902659 0.666667
Si Si3 0.018648 0.149694 0.633135
Si Si4 0.810282 0.333334 0.333334
Si Si5 0.820256 0.666251 0.304695
O O1 0.334366 0.483672 0.784303
O O2 0.412909 0.644071 0.775239
O O3 0.291526 0.550510 0.961695
O O4 0.446268 0.597210 0.960113
O O5 0.658514 0.904120 0.669313
O O6 0.075869 0.252168 0.637934
O O7 0.000000 0.119009 0.500000
O O8 0.827646 0.254753 0.339659
O O9 0.807379 0.666667 0.166667
#
# Coordination Sequence:
#
# PCOD9577019 Si02
#       5
#    18   9  18   9  18
#     4  11  21  40  64 100 133 173 240 288 363 417
#     4  10  22  41  74  93 130 190 250 312 328 426
#     4  12  25  41  66 101 149 184 221 296 382 457
#     4  10  22  39  74  99 128 186 240 308 344 418
#     4  11  21  44  67 101 136 178 245 292 358 422
#
# _framework density 22.369810000000001
#
# number of rings (size 3 to 8) (size 9 to 14) (size 15 to 20)
#    0.000    1.000    5.000    2.750    0.000    2.000 
#    0.000    2.500    0.000    0.000    0.000    0.000 
#    0.000    0.000    0.000    0.000    0.000    0.000 
#
# Total GULP energy -133613.833975 kJ/mol
# GULP energy per Si atom -5567.243082 kJ/mol
# Density = 2.231890 g / cm^3
# Si number density = 22.369810 Si / 1000 Ang^3
#
#
#
# Elastic Constant Matrix: (Units=GPa)
#
#
# Indices 1 2 3 4 5 6 
#
# 1 99.4731 25.5411 34.3274 0.9221 0.0000 0.0000
# 2 25.5411 99.4731 34.3274 -0.9221 0.0000 0.0000
# 3 34.3274 34.3274 178.7647 0.0000 0.0000 0.0000
# 4 0.9221 -0.9221 0.0000 17.7561 0.0000 0.0000
# 5 0.0000 0.0000 0.0000 0.0000 17.7561 0.9221
# 6 0.0000 0.0000 0.0000 0.0000 0.9221 36.9660
#
#
#
# Elastic Compliance Matrix: (Units=1/GPa)
#
#
# Indices 1 2 3 4 5 6 
#
# 1 0.011243 -0.002301 -0.001717 -0.000703 0.000000 0.000000
# 2 -0.002301 0.011243 -0.001717 0.000703 0.000000 0.000000
# 3 -0.001717 -0.001717 0.006253 0.000000 0.000000 0.000000
# 4 -0.000703 0.000703 0.000000 0.056392 0.000000 0.000000
# 5 0.000000 0.000000 0.000000 0.000000 0.056392 -0.001407
# 6 0.000000 0.000000 0.000000 0.000000 -0.001407 0.027087
#
#
# Mechanical properties :
#
#
# Convention : Reuss Voigt Hill
#
# Bulk Modulus (GPa) = 57.90675 62.90028 60.40351
# Shear Modulus (GPa) = 26.90553 33.39666 30.15110
#
# Velocity S-wave (km/s) = 3.47185 3.86804 3.67529
# Velocity P-wave (km/s) = 6.48182 6.93747 6.71351
#
# Compressibility (1/GPa) = 0.01726914
#
# Stress axis : x y z
#
# Youngs Moduli (GPa) = 88.94595 88.94595 159.91294
#
# Poissons Ratio (x) = 0.20464 0.27459
# Poissons Ratio (y) = 0.20464 0.27459
# Poissons Ratio (z) = 0.15273 0.15273
#
# Static dielectric constant tensor:
#      x y z
#    x 1.975010 0.000000 0.000000 
#    y 0.000000 1.975010 0.000000 
#    z 0.000000 0.000000 1.834410 
# 
# From -- ./inp_files/3744.got.cif
#   From: 2010.05.17/outbox.cif.g08.bks.cpg/sg155_2_cif.got.tgz:3744.got - 2010.05.20 10:44:35.
