data_PCOD9577504
_publ_section_title
;
Structure prediction by ZEFSAII (Michael W. Deem and Ramdas Pophale) SiO2 
 PCOD9577504
Probable space group: R 3 M
;
_chemical_formula_sum "Si O2"
_cell_formula_units_Z 60
_cell_length_a 19.901710
_cell_length_b 19.901710
_cell_length_c 9.024802
_cell_angle_alpha 90.000000
_cell_angle_beta 90.000000
_cell_angle_gamma 120.000000
_cell_volume 3095.630389
_symmetry_space_group_name_H-M "R 3 M"
_symmetry_group_IT_number 160
_symmetry_cell_setting 'hexagonal'
loop_
_space_group_symop_operation_xyz
x,y,z
-y,x-y,z
-x+y,-x,z
-x+y,y,z
x,x-y,z
-y,-x,z
2/3+x,1/3+y,1/3+z
2/3-y,1/3+x-y,1/3+z
2/3-x+y,1/3-x,1/3+z
2/3-x+y,1/3+y,1/3+z
2/3+x,1/3+x-y,1/3+z
2/3-y,1/3-x,1/3+z
1/3+x,2/3+y,2/3+z
1/3-y,2/3+x-y,2/3+z
1/3-x+y,2/3-x,2/3+z
1/3-x+y,2/3+y,2/3+z
1/3+x,2/3+x-y,2/3+z
1/3-y,2/3-x,2/3+z
loop_
_atom_site_type_symbol
_atom_site_label
_atom_site_fract_x
_atom_site_fract_y
_atom_site_fract_z
Si Si1 0.666667 0.333334 0.495829
Si Si2 0.831884 0.915942 0.658877
Si Si3 0.418303 0.581698 0.974928
Si Si4 0.666667 0.333334 0.140542
Si Si5 0.715477 0.130372 0.217691
Si Si6 0.293650 0.429243 0.838567
O O1 0.710246 0.289755 0.557726
O O2 0.666667 0.333334 0.318124
O O3 0.841237 0.920619 0.484491
O O4 0.913369 0.956685 0.743502
O O5 0.784919 0.957141 0.722291
O O6 0.369051 0.492338 0.925736
O O7 0.791420 0.208581 0.278173
O O8 0.739361 0.065004 0.209276
O O9 0.646670 0.109140 0.330635
O O10 0.220190 0.440379 0.871660
#
# Coordination Sequence:
#
# PCOD9577504 Si02
#       6
#     3   9   9   3  18  18
#     4  12  22  35  61 102 127 170 202 267 340 386
#     4  10  24  39  59 104 132 164 218 275 327 384
#     4  12  22  38  67 100 133 161 215 274 327 383
#     4  12  22  38  67  90 136 179 217 270 322 389
#     4   9  22  41  61  92 126 170 215 258 318 395
#     4  11  22  41  69  91 129 173 216 264 325 390
#
# _framework density 19.382158
#
# number of rings (size 3 to 8) (size 9 to 14) (size 15 to 20)
#    0.900    0.600    3.000    2.700    2.100    2.400 
#    0.000    0.000    0.000    0.000    0.000    0.000 
#    0.000    0.000    0.000    0.000    0.000    0.000 
#
# Total GULP energy -111515.106261 kJ/mol
# GULP energy per Si atom -5575.755313 kJ/mol
# Density = 1.933804 g / cm^3
# Si number density = 19.382158 Si / 1000 Ang^3
#
#
#
# Elastic Constant Matrix: (Units=GPa)
#
#
# Indices 1 2 3 4 5 6 
#
# 1 68.2574 38.5912 28.3130 1.8225 0.0002 0.0001
# 2 38.5912 68.2577 28.3134 -1.8226 -0.0004 -0.0002
# 3 28.3130 28.3134 144.7555 -0.0002 -0.0008 0.0000
# 4 1.8225 -1.8226 -0.0002 7.8074 0.0000 -0.0005
# 5 0.0002 -0.0004 -0.0008 0.0000 7.8073 1.8222
# 6 0.0001 -0.0002 0.0000 -0.0005 1.8222 14.8337
#
#
#
# Elastic Compliance Matrix: (Units=1/GPa)
#
#
# Indices 1 2 3 4 5 6 
#
# 1 0.022572 -0.012131 -0.002042 -0.008101 -0.000001 0.000000
# 2 -0.012131 0.022572 -0.002042 0.008101 0.000001 0.000001
# 3 -0.002042 -0.002042 0.007707 0.000000 0.000001 0.000000
# 4 -0.008101 0.008101 0.000000 0.131866 -0.000001 0.000005
# 5 -0.000001 0.000001 0.000001 -0.000001 0.131865 -0.016198
# 6 0.000000 0.000001 0.000000 0.000005 -0.016198 0.069404
#
#
# Mechanical properties :
#
#
# Convention : Reuss Voigt Hill
#
# Bulk Modulus (GPa) = 48.96971 52.41174 50.69073
# Shear Modulus (GPa) = 11.75848 18.49323 15.12586
#
# Velocity S-wave (km/s) = 2.46573 3.09226 2.79660
# Velocity P-wave (km/s) = 5.78158 6.31264 6.05293
#
# Compressibility (1/GPa) = 0.02042079
#
# Stress axis : x y z
#
# Youngs Moduli (GPa) = 44.30177 44.30184 129.75040
#
# Poissons Ratio (x) = 0.53743 0.26498
# Poissons Ratio (y) = 0.53743 0.26499
# Poissons Ratio (z) = 0.09047 0.09048
#
# Static dielectric constant tensor:
#      x y z
#    x 1.684290 0.000000 0.000000 
#    y 0.000000 1.684290 0.000000 
#    z 0.000000 0.000000 1.668420 
# 
# From -- ./inp_files/669.got.cif
#   From: 2010.05.17/outbox.cif.g08.bks.cpg/sg160_1_cif.got.tgz:669.got - 2010.05.20 10:51:19.
