data_PCOD9577292
_publ_section_title
;
Structure prediction by ZEFSAII (Michael W. Deem and Ramdas Pophale) SiO2 
 PCOD9577292
Probable space group: P 3 C 1
;
_chemical_formula_sum "Si O2"
_cell_formula_units_Z 48
_cell_length_a 19.896654
_cell_length_b 19.896654
_cell_length_c 9.121064
_cell_angle_alpha 90.000000
_cell_angle_beta 90.000000
_cell_angle_gamma 120.000000
_cell_volume 3127.060114
_symmetry_space_group_name_H-M "P 3 C 1"
_symmetry_group_IT_number 158
_symmetry_cell_setting 'hexagonal'
loop_
_space_group_symop_operation_xyz
x,y,z
-y,x-y,z
-x+y,-x,z
-x+y,y,1/2+z
x,x-y,1/2+z
-y,-x,1/2+z
loop_
_atom_site_type_symbol
_atom_site_label
_atom_site_fract_x
_atom_site_fract_y
_atom_site_fract_z
Si Si1 0.438529 0.025583 0.849490
Si Si2 0.317976 0.865917 0.944225
Si Si3 0.805066 0.406585 0.624122
Si Si4 0.251903 0.756439 0.195092
Si Si5 0.367172 0.548095 0.952712
Si Si6 0.473001 0.338083 0.869247
Si Si7 0.425989 0.434284 0.001400
Si Si8 0.791043 0.490536 0.371964
O O1 0.433650 0.006214 0.675966
O O2 0.359919 0.957941 0.922631
O O3 0.503979 0.012563 0.927802
O O4 0.460344 0.115039 0.868433
O O5 0.268561 0.820732 0.802325
O O6 0.384122 0.840152 0.953140
O O7 0.269858 0.828796 0.091119
O O8 0.659696 0.425703 0.745778
O O9 0.842604 0.374681 0.507133
O O10 0.764422 0.440640 0.520774
O O11 0.324252 0.779532 0.302398
O O12 0.233220 0.685362 0.086259
O O13 0.370188 0.468773 0.970100
O O14 0.519136 0.383198 0.722997
O O15 0.405686 0.355079 0.916338
O O16 0.460558 0.252169 0.854023
#
# Coordination Sequence:
#
# PCOD9577292 Si02
#       8
#     6   6   6   6   6   6   6   6
#     4  11  20  34  51  65  86 120 159 192 230 284
#     4  10  21  34  51  66  92 120 153 187 237 282
#     4  10  20  34  40  62  83 122 142 192 248 278
#     4  10  20  36  44  70  89 114 150 192 232 280
#     4  10  21  34  51  66  92 120 153 187 237 282
#     4  11  20  34  46  64  88 112 154 198 234 275
#     4  11  20  34  51  65  86 120 159 192 230 284
#     4  11  20  34  46  64  88 112 154 198 234 275
#
# _framework density 15.349880000000001
#
# number of rings (size 3 to 8) (size 9 to 14) (size 15 to 20)
#    0.000    1.500    5.000    1.500    5.250    0.000 
#   30.000    0.000    0.000    0.000    0.000    0.000 
#    0.000    0.000    0.000    0.000    0.000    0.000 
#
# Total GULP energy -267567.622170 kJ/mol
# GULP energy per Si atom -5574.325462 kJ/mol
# Density = 1.531494 g / cm^3
# Si number density = 15.349880 Si / 1000 Ang^3
#
#
#
# Elastic Constant Matrix: (Units=GPa)
#
#
# Indices 1 2 3 4 5 6 
#
# 1 65.7257 28.3377 21.5561 2.4718 0.0000 0.0000
# 2 28.3377 65.7257 21.5561 -2.4718 0.0000 0.0000
# 3 21.5561 21.5561 102.1294 0.0000 0.0000 0.0000
# 4 2.4718 -2.4718 0.0000 17.9825 0.0000 0.0000
# 5 0.0000 0.0000 0.0000 0.0000 17.9825 2.4718
# 6 0.0000 0.0000 0.0000 0.0000 2.4718 18.6940
#
#
#
# Elastic Compliance Matrix: (Units=1/GPa)
#
#
# Indices 1 2 3 4 5 6 
#
# 1 0.019506 -0.007736 -0.002484 -0.003744 0.000000 0.000000
# 2 -0.007736 0.019506 -0.002484 0.003744 0.000000 0.000000
# 3 -0.002484 -0.002484 0.010840 0.000000 0.000000 0.000000
# 4 -0.003744 0.003744 0.000000 0.056639 0.000000 0.000000
# 5 0.000000 0.000000 0.000000 0.000000 0.056639 -0.007489
# 6 0.000000 0.000000 0.000000 0.000000 -0.007489 0.054483
#
#
# Mechanical properties :
#
#
# Convention : Reuss Voigt Hill
#
# Bulk Modulus (GPa) = 40.91183 41.83119 41.37151
# Shear Modulus (GPa) = 19.90692 21.74054 20.82373
#
# Velocity S-wave (km/s) = 3.60513 3.76750 3.68721
# Velocity P-wave (km/s) = 6.63626 6.79974 6.71850
#
# Compressibility (1/GPa) = 0.02444281
#
# Stress axis : x y z
#
# Youngs Moduli (GPa) = 51.26714 51.26714 92.24956
#
# Poissons Ratio (x) = 0.39660 0.22917
# Poissons Ratio (y) = 0.39660 0.22917
# Poissons Ratio (z) = 0.12736 0.12736
#
# Static dielectric constant tensor:
#      x y z
#    x 1.555510 0.000000 0.000000 
#    y 0.000000 1.555510 0.000000 
#    z 0.000000 0.000000 1.560020 
# 
# From -- ./inp_files/259.got.cif
#   From: 2010.05.17/outbox.cif.g08.bks.cpg/sg158_cif.got.tgz:259.got - 2010.05.20 10:49:59.
