data_PCOD9577948
_publ_section_title
;
Structure prediction by ZEFSAII (Michael W. Deem and Ramdas Pophale) SiO2 
 PCOD9577948
Probable space group: P -3 1 M 
;
_chemical_formula_sum "Si O2"
_cell_formula_units_Z 36
_cell_length_a 20.549395
_cell_length_b 20.549395
_cell_length_c 5.038457
_cell_angle_alpha 90.000000
_cell_angle_beta 90.000000
_cell_angle_gamma 120.000000
_cell_volume 1842.579643
_symmetry_space_group_name_H-M "P -3 1 M "
_symmetry_group_IT_number 162
_symmetry_cell_setting 'hexagonal'
loop_
_space_group_symop_operation_xyz
x,y,z
-y,x-y,z
-x+y,-x,z
-y,-x,-z
-x+y,y,-z
x,x-y,-z
-x,-y,-z
y,-x+y,-z
x-y,x,-z
y,x,z
x-y,-y,z
-x,-x+y,z
loop_
_atom_site_type_symbol
_atom_site_label
_atom_site_fract_x
_atom_site_fract_y
_atom_site_fract_z
Si Si1 0.090352 0.693201 0.433896
Si Si2 0.259822 0.088315 0.267843
Si Si3 0.473041 0.091920 0.069846
O O1 0.104218 0.768001 0.582290
O O2 0.117557 0.686208 0.142989
O O3 0.000000 0.646110 0.412038
O O4 0.116057 0.650978 0.637881
O O5 0.219474 0.109737 0.500000
O O6 0.214369 0.000000 0.200204
O O7 0.271325 0.135663 0.000000
O O8 0.426593 0.000000 0.070530
O O9 0.557552 0.115103 0.000000
#
# Coordination Sequence:
#
# PCOD9577948 Si02
#       3
#    12  12  12
#     4   9  17  28  43  66  94 125 161 196 238 299
#     4  11  22  37  56  75  97 129 172 225 286 353
#     4   9  15  24  40  64  96 131 159 181 211 263
#
# _framework density 19.537825999999999
#
# number of rings (size 3 to 8) (size 9 to 14) (size 15 to 20)
#    0.000    2.333    0.000    4.000    0.000    9.333 
#    0.000    0.000    0.000    6.667    0.000    0.000 
#    0.000    0.000    0.000   84.000    0.000   56.000 
#
# Total GULP energy -200551.731456 kJ/mol
# GULP energy per Si atom -5570.881429 kJ/mol
# Density = 1.949336 g / cm^3
# Si number density = 19.537826 Si / 1000 Ang^3
#
#
#
# Elastic Constant Matrix: (Units=GPa)
#
#
# Indices 1 2 3 4 5 6 
#
# 1 35.1606 14.1714 1.4641 -0.0001 -4.2975 0.0000
# 2 14.1714 35.1606 1.4641 0.0001 4.2975 0.0000
# 3 1.4641 1.4641 85.3542 0.0000 0.0000 0.0000
# 4 -0.0001 0.0001 0.0000 28.3786 0.0000 4.2975
# 5 -4.2975 4.2975 0.0000 0.0000 28.3786 -0.0001
# 6 0.0000 0.0000 0.0000 4.2975 -0.0001 10.4946
#
#
#
# Elastic Compliance Matrix: (Units=1/GPa)
#
#
# Indices 1 2 3 4 5 6 
#
# 1 0.035542 -0.015251 -0.000348 0.000000 0.007692 0.000000
# 2 -0.015251 0.035542 -0.000348 0.000000 -0.007692 0.000000
# 3 -0.000348 -0.000348 0.011728 0.000000 0.000000 0.000000
# 4 0.000000 0.000000 0.000000 0.037567 0.000000 -0.015384
# 5 0.007692 -0.007692 0.000000 0.000000 0.037567 0.000000
# 6 0.000000 0.000000 0.000000 -0.015384 0.000000 0.101587
#
#
# Mechanical properties :
#
#
# Convention : Reuss Voigt Hill
#
# Bulk Modulus (GPa) = 19.63919 21.09715 20.36817
# Shear Modulus (GPa) = 16.21266 22.68876 19.45071
#
# Velocity S-wave (km/s) = 2.88377 3.41144 3.15864
# Velocity P-wave (km/s) = 4.60020 5.13213 4.87343
#
# Compressibility (1/GPa) = 0.05091859
#
# Stress axis : x y z
#
# Youngs Moduli (GPa) = 28.13542 28.13542 85.26725
#
# Poissons Ratio (x) = 0.42909 0.02968
# Poissons Ratio (y) = 0.42909 0.02968
# Poissons Ratio (z) = 0.00979 0.00979
#
# Static dielectric constant tensor:
#      x y z
#    x 1.721500 0.000000 0.000000 
#    y 0.000000 1.721500 0.000000 
#    z 0.000000 0.000000 1.726850 
# 
# From -- ./inp_files/273.got.cif
#   From: 2010.05.17/outbox.cif.g08.bks.cpg/sg162_1_cif.got.tgz:273.got - 2010.05.20 10:53:12.
