data_PCOD9577618
_publ_section_title
;
Structure prediction by ZEFSAII (Michael W. Deem and Ramdas Pophale) SiO2 
 PCOD9577618
Probable space group: R 3 C
;
_chemical_formula_sum "Si O2"
_cell_formula_units_Z 84
_cell_length_a 14.109939
_cell_length_b 14.109939
_cell_length_c 17.988568
_cell_angle_alpha 90.000000
_cell_angle_beta 90.000000
_cell_angle_gamma 120.000000
_cell_volume 3101.540784
_symmetry_space_group_name_H-M "R 3 C"
_symmetry_group_IT_number 161
_symmetry_cell_setting 'hexagonal'
loop_
_space_group_symop_operation_xyz
x,y,z
-y,x-y,z
-x+y,-x,z
-x+y,y,1/2+z
x,x-y,1/2+z
-y,-x,1/2+z
2/3+x,1/3+y,1/3+z
2/3-y,1/3+x-y,1/3+z
2/3-x+y,1/3-x,1/3+z
2/3-x+y,1/3+y,5/6+z
2/3+x,1/3+x-y,5/6+z
2/3-y,1/3-x,5/6+z
1/3+x,2/3+y,2/3+z
1/3-y,2/3+x-y,2/3+z
1/3-x+y,2/3-x,2/3+z
1/3-x+y,2/3+y,1/6+z
1/3+x,2/3+x-y,1/6+z
1/3-y,2/3-x,1/6+z
loop_
_atom_site_type_symbol
_atom_site_label
_atom_site_fract_x
_atom_site_fract_y
_atom_site_fract_z
Si Si1 0.773926 0.829715 0.708599
Si Si2 0.637556 0.055601 0.228469
Si Si3 0.639322 0.037826 0.391033
Si Si4 0.768148 0.925014 0.441741
Si Si5 0.000000 0.000000 0.203049
Si Si6 0.000000 0.000000 0.519178
O O1 0.683075 0.711838 0.737824
O O2 0.731897 0.914434 0.724614
O O3 0.781821 0.793815 0.623098
O O4 0.898774 0.888474 0.733000
O O5 0.743382 0.172840 0.213492
O O6 0.623887 0.081179 0.312691
O O7 0.538079 0.995105 0.171983
O O8 0.728689 0.999644 0.399869
O O9 0.883873 0.978803 0.484394
O O10 0.000000 0.000000 0.110814
#
# Coordination Sequence:
#
# PCOD9577618 Si02
#       6
#    18  18  18  18   6   6
#     4  11  27  43  80 107 153 198 266 315 410 459
#     4  11  25  46  74 108 149 205 251 335 384 484
#     4  11  25  47  72 109 148 200 253 331 384 487
#     4  11  28  45  76 110 157 201 269 317 413 455
#     4  12  24  45  73 110 151 204 261 319 392 490
#     4  12  27  48  73 116 148 216 252 331 377 505
#
# _framework density 27.083314000000001
#
# number of rings (size 3 to 8) (size 9 to 14) (size 15 to 20)
#    0.000    0.857    0.000    5.143   24.000    0.000 
#    0.000    0.000    0.000    0.000    0.000    0.000 
#    0.000    0.000    0.000    0.000    0.000    0.000 
#
# Total GULP energy -156114.071112 kJ/mol
# GULP energy per Si atom -5575.502540 kJ/mol
# Density = 2.702167 g / cm^3
# Si number density = 27.083314 Si / 1000 Ang^3
#
#
#
# Elastic Constant Matrix: (Units=GPa)
#
#
# Indices 1 2 3 4 5 6 
#
# 1 137.1417 63.2412 17.0328 -3.3926 0.0000 0.0000
# 2 63.2412 137.1417 17.0328 3.3926 0.0000 0.0000
# 3 17.0328 17.0328 126.2457 0.0000 0.0000 0.0000
# 4 -3.3926 3.3926 0.0000 23.9896 0.0000 0.0000
# 5 0.0000 0.0000 0.0000 0.0000 23.9896 -3.3926
# 6 0.0000 0.0000 0.0000 0.0000 -3.3926 36.9502
#
#
#
# Elastic Compliance Matrix: (Units=1/GPa)
#
#
# Indices 1 2 3 4 5 6 
#
# 1 0.009409 -0.004301 -0.000689 0.001939 0.000000 0.000000
# 2 -0.004301 0.009409 -0.000689 -0.001939 0.000000 0.000000
# 3 -0.000689 -0.000689 0.008107 0.000000 0.000000 0.000000
# 4 0.001939 -0.001939 0.000000 0.042233 0.000000 0.000000
# 5 0.000000 0.000000 0.000000 0.000000 0.042233 0.003878
# 6 0.000000 0.000000 0.000000 0.000000 0.003878 0.027419
#
#
# Mechanical properties :
#
#
# Convention : Reuss Voigt Hill
#
# Bulk Modulus (GPa) = 64.24352 66.12697 65.18525
# Shear Modulus (GPa) = 32.18395 37.20072 34.69233
#
# Velocity S-wave (km/s) = 3.45096 3.71019 3.58292
# Velocity P-wave (km/s) = 6.29690 6.54394 6.42161
#
# Compressibility (1/GPa) = 0.01556577
#
# Stress axis : x y z
#
# Youngs Moduli (GPa) = 106.28508 106.28508 123.35005
#
# Poissons Ratio (x) = 0.45714 0.08500
# Poissons Ratio (y) = 0.45714 0.08500
# Poissons Ratio (z) = 0.07324 0.07324
#
# Static dielectric constant tensor:
#      x y z
#    x 2.196120 0.000000 0.000000 
#    y 0.000000 2.196120 0.000000 
#    z 0.000000 0.000000 2.302110 
# 
# From -- ./inp_files/1856.got.cif
#   From: 2010.05.17/outbox.cif.g08.bks.cpg/sg161_cif.got.tgz:1856.got - 2010.05.20 10:52:32.
