data_PCOD9577221
_publ_section_title
;
Structure prediction by ZEFSAII (Michael W. Deem and Ramdas Pophale) SiO2 
 PCOD9577221
Probable space group: P 3 M 1
;
_chemical_formula_sum "Si O2"
_cell_formula_units_Z 48
_cell_length_a 12.696018
_cell_length_b 12.696018
_cell_length_c 21.341223
_cell_angle_alpha 90.000000
_cell_angle_beta 90.000000
_cell_angle_gamma 120.000000
_cell_volume 2979.099403
_symmetry_space_group_name_H-M "P 3 M 1"
_symmetry_group_IT_number 156
_symmetry_cell_setting 'hexagonal'
loop_
_space_group_symop_operation_xyz
x,y,z
-y,x-y,z
-x+y,-x,z
-x+y,y,z
x,x-y,z
-y,-x,z
loop_
_atom_site_type_symbol
_atom_site_label
_atom_site_fract_x
_atom_site_fract_y
_atom_site_fract_z
Si Si1 0.747175 0.747779 0.010700
Si Si2 0.000412 0.749603 0.148184
Si Si3 0.416033 0.333778 0.405501
Si Si4 0.333702 0.916982 0.526486
Si Si5 0.666354 0.583769 0.891025
Si Si6 0.750352 0.000475 0.770173
Si Si7 0.416072 0.082816 0.648278
Si Si8 0.000527 0.747862 0.285455
O O1 0.750908 0.875454 0.001720
O O2 0.692605 0.697533 0.080154
O O3 0.884704 0.769407 0.009426
O O4 0.676638 0.655418 0.954964
O O5 0.113778 0.886223 0.148307
O O6 0.004719 0.696933 0.216101
O O7 0.876569 0.753138 0.148074
O O8 0.420195 0.210098 0.413243
O O9 0.551067 0.448934 0.402863
O O10 0.349455 0.354225 0.464366
O O11 0.343751 0.322397 0.341639
O O12 0.443603 0.887206 0.525736
O O13 0.204839 0.795162 0.528321
O O14 0.355305 0.000080 0.587355
O O15 0.779010 0.558019 0.890765
O O16 0.540154 0.459847 0.886200
O O17 0.687938 0.671046 0.832077
O O18 0.890397 0.109604 0.771446
O O19 0.689857 0.022606 0.709085
O O20 0.742874 0.871437 0.768602
O O21 0.547435 0.094869 0.656969
O O22 0.429746 0.214873 0.639675
O O23 0.124843 0.875158 0.294148
O O24 0.884812 0.769623 0.286039
#
# Coordination Sequence:
#
# PCOD9577221 Si02
#       8
#     6   6   6   6   6   6   6   6
#     4   9  16  27  46  71  96 120 149 190 239 288
#     4   8  13  22  39  65  94 121 149 184 231 284
#     4  10  20  33  49  68  93 126 162 199 236 279
#     4  10  20  34  52  73  97 125 158 197 240 283
#     4  10  20  33  49  68  93 126 162 199 236 279
#     4  10  20  34  53  76 101 127 156 195 243 290
#     4  10  20  34  54  78 104 134 166 198 228 266
#     4   9  16  27  45  69  96 123 152 190 237 287
#
# _framework density 16.112252000000002
#
# number of rings (size 3 to 8) (size 9 to 14) (size 15 to 20)
#    0.000    2.500    0.000    2.875    0.000    2.000 
#    0.000    4.375    0.000    9.000    0.000    1.750 
#    0.000    0.000    0.000    0.000    0.000    0.000 
#
# Total GULP energy -267474.225185 kJ/mol
# GULP energy per Si atom -5572.379691 kJ/mol
# Density = 1.607558 g / cm^3
# Si number density = 16.112252 Si / 1000 Ang^3
#
#
#
# Elastic Constant Matrix: (Units=GPa)
#
#
# Indices 1 2 3 4 5 6 
#
# 1 96.5921 63.2433 80.0951 2.4485 0.0001 0.0000
# 2 63.2433 96.5921 80.0951 -2.4485 -0.0001 0.0000
# 3 80.0951 80.0951 172.3816 0.0000 0.0000 0.0000
# 4 2.4485 -2.4485 0.0000 21.1509 0.0000 -0.0001
# 5 0.0001 -0.0001 0.0000 0.0000 21.1509 2.4485
# 6 0.0000 0.0000 0.0000 -0.0001 2.4485 16.6744
#
#
#
# Elastic Compliance Matrix: (Units=1/GPa)
#
#
# Indices 1 2 3 4 5 6 
#
# 1 0.021107 -0.009398 -0.005440 -0.003531 0.000000 0.000000
# 2 -0.009398 0.021107 -0.005440 0.003531 0.000000 0.000000
# 3 -0.005440 -0.005440 0.010857 0.000000 0.000000 0.000000
# 4 -0.003531 0.003531 0.000000 0.048097 0.000000 0.000000
# 5 0.000000 0.000000 0.000000 0.000000 0.048097 -0.007063
# 6 0.000000 0.000000 0.000000 0.000000 -0.007063 0.061009
#
#
# Mechanical properties :
#
#
# Convention : Reuss Voigt Hill
#
# Bulk Modulus (GPa) = 79.91737 90.27031 85.09384
# Shear Modulus (GPa) = 19.60771 21.27073 20.43922
#
# Velocity S-wave (km/s) = 3.49226 3.63734 3.56554
# Velocity P-wave (km/s) = 8.12214 8.58998 8.35934
#
# Compressibility (1/GPa) = 0.01251292
#
# Stress axis : x y z
#
# Youngs Moduli (GPa) = 47.37813 47.37813 92.10872
#
# Poissons Ratio (x) = 0.44525 0.50111
# Poissons Ratio (y) = 0.44525 0.50111
# Poissons Ratio (z) = 0.25776 0.25776
#
# Static dielectric constant tensor:
#      x y z
#    x 1.503790 0.000000 0.000000 
#    y 0.000000 1.503790 0.000000 
#    z 0.000000 0.000000 1.568010 
# 
# From -- ./inp_files/1096.got.cif
#   From: 2010.05.17/outbox.cif.g08.bks.cpg/sg156_cif.got.tgz:1096.got - 2010.05.20 10:49:08.
