data_PCOD9577928
_publ_section_title
;
Structure prediction by ZEFSAII (Michael W. Deem and Ramdas Pophale) SiO2 
 PCOD9577928
Probable space group: P -3 1 M 
;
_chemical_formula_sum "Si O2"
_cell_formula_units_Z 60
_cell_length_a 30.096372
_cell_length_b 30.096372
_cell_length_c 5.113270
_cell_angle_alpha 90.000000
_cell_angle_beta 90.000000
_cell_angle_gamma 120.000000
_cell_volume 4011.046067
_symmetry_space_group_name_H-M "P -3 1 M "
_symmetry_group_IT_number 162
_symmetry_cell_setting 'hexagonal'
loop_
_space_group_symop_operation_xyz
x,y,z
-y,x-y,z
-x+y,-x,z
-y,-x,-z
-x+y,y,-z
x,x-y,-z
-x,-y,-z
y,-x+y,-z
x-y,x,-z
y,x,z
x-y,-y,z
-x,-x+y,z
loop_
_atom_site_type_symbol
_atom_site_label
_atom_site_fract_x
_atom_site_fract_y
_atom_site_fract_z
Si Si1 0.178899 0.059519 0.758603
Si Si2 0.938775 0.670937 0.545208
Si Si3 0.515255 0.577528 0.872697
Si Si4 0.062163 0.431373 0.373135
Si Si5 0.293102 0.197417 0.055265
O O1 0.187226 0.093613 0.500000
O O2 0.233215 0.067329 0.861626
O O3 0.141463 0.000000 0.699147
O O4 0.159165 0.079583 0.000000
O O5 0.922452 0.611614 0.580332
O O6 0.910294 0.677513 0.299142
O O7 0.000000 0.702368 0.494842
O O8 0.927583 0.694954 0.800594
O O9 0.542654 0.542654 0.854918
O O10 0.523986 0.603934 0.590442
O O11 0.459971 0.540030 0.000000
O O12 0.546010 0.621579 0.084261
O O13 0.000000 0.400725 0.386681
O O14 0.307741 0.153871 0.000000
#
# Coordination Sequence:
#
# PCOD9577928 Si02
#       5
#    12  12  12  12  12
#     4  11  22  37  56  75  93 111 134 164 204 262
#     4  11  20  32  48  64  87 112 138 176 219 262
#     4   9  15  24  37  54  79 108 139 174 207 237
#     4   9  17  26  38  58  79 106 140 170 209 249
#     4  11  22  34  48  68  88 110 139 172 215 262
#
# _framework density 14.958693
#
# number of rings (size 3 to 8) (size 9 to 14) (size 15 to 20)
#    0.000    1.800    0.000    7.200    0.000    5.600 
#    0.000    0.000    0.000    4.000    0.000    0.000 
#    0.000    0.000    0.000    0.000    0.000    0.000 
#
# Total GULP energy -334648.218407 kJ/mol
# GULP energy per Si atom -5577.470307 kJ/mol
# Density = 1.492465 g / cm^3
# Si number density = 14.958693 Si / 1000 Ang^3
#
#
#
# Elastic Constant Matrix: (Units=GPa)
#
#
# Indices 1 2 3 4 5 6 
#
# 1 28.7125 15.9214 -8.0801 0.0005 -4.6490 0.0000
# 2 15.9214 28.7125 -8.0801 -0.0005 4.6490 0.0000
# 3 -8.0801 -8.0801 48.6462 0.0000 0.0000 0.0000
# 4 0.0005 -0.0005 0.0000 20.0750 0.0000 4.6490
# 5 -4.6490 4.6490 0.0000 0.0000 20.0750 0.0005
# 6 0.0000 0.0000 0.0000 4.6490 0.0005 6.3955
#
#
#
# Elastic Compliance Matrix: (Units=1/GPa)
#
#
# Indices 1 2 3 4 5 6 
#
# 1 0.058921 -0.035083 0.003959 -0.000002 0.021769 0.000000
# 2 -0.035083 0.058921 0.003959 0.000002 -0.021769 0.000000
# 3 0.003959 0.003959 0.021872 0.000000 0.000000 0.000000
# 4 -0.000002 0.000002 0.000000 0.059896 0.000000 -0.043539
# 5 0.021769 -0.021769 0.000000 0.000000 0.059896 -0.000005
# 6 0.000000 0.000000 0.000000 -0.043539 -0.000005 0.188008
#
#
# Mechanical properties :
#
#
# Convention : Reuss Voigt Hill
#
# Bulk Modulus (GPa) = 11.71154 11.73264 11.72209
# Shear Modulus (GPa) = 9.42855 16.39641 12.91248
#
# Velocity S-wave (km/s) = 2.51331 3.31435 2.94123
# Velocity P-wave (km/s) = 4.03343 4.74415 4.40315
#
# Compressibility (1/GPa) = 0.08538586
#
# Stress axis : x y z
#
# Youngs Moduli (GPa) = 16.97186 16.97186 45.72070
#
# Poissons Ratio (x) = 0.59542 -0.18103
# Poissons Ratio (y) = 0.59542 -0.18103
# Poissons Ratio (z) = -0.06720 -0.06720
#
# Static dielectric constant tensor:
#      x y z
#    x 1.514130 0.000000 0.000000 
#    y 0.000000 1.514130 0.000000 
#    z 0.000000 0.000000 1.520710 
# 
# From -- ./inp_files/661.got.cif
#   From: 2010.05.17/outbox.cif.g08.bks.cpg/sg162_1_cif.got.tgz:661.got - 2010.05.20 10:53:12.
