data_PCOD9577952
_publ_section_title
;
Structure prediction by ZEFSAII (Michael W. Deem and Ramdas Pophale) SiO2 
 PCOD9577952
Probable space group: P -3 1 M 
;
_chemical_formula_sum "Si O2"
_cell_formula_units_Z 84
_cell_length_a 17.759200
_cell_length_b 17.759200
_cell_length_c 15.842677
_cell_angle_alpha 90.000000
_cell_angle_beta 90.000000
_cell_angle_gamma 120.000000
_cell_volume 4327.190311
_symmetry_space_group_name_H-M "P -3 1 M "
_symmetry_group_IT_number 162
_symmetry_cell_setting 'hexagonal'
loop_
_space_group_symop_operation_xyz
x,y,z
-y,x-y,z
-x+y,-x,z
-y,-x,-z
-x+y,y,-z
x,x-y,-z
-x,-y,-z
y,-x+y,-z
x-y,x,-z
y,x,z
x-y,-y,z
-x,-x+y,z
loop_
_atom_site_type_symbol
_atom_site_label
_atom_site_fract_x
_atom_site_fract_y
_atom_site_fract_z
Si Si1 0.789301 0.687153 0.423395
Si Si2 0.494332 0.331917 0.486673
Si Si3 0.375044 0.476806 0.796014
Si Si4 0.471255 0.104467 0.705474
Si Si5 0.637993 0.824676 0.751664
Si Si6 0.897511 0.685484 0.073667
Si Si7 0.668088 0.500701 0.017210
O O1 0.856780 0.713560 0.500000
O O2 0.748363 0.748363 0.413569
O O3 0.710740 0.590830 0.453364
O O4 0.838295 0.687028 0.337495
O O5 0.569613 0.430387 0.500000
O O6 0.529949 0.264975 0.500000
O O7 0.469979 0.335914 0.389979
O O8 0.435092 0.435092 0.814587
O O9 0.434763 0.564433 0.743571
O O10 0.290612 0.410222 0.745016
O O11 0.333632 0.483522 0.883524
O O12 0.430462 0.152661 0.756331
O O13 0.412274 0.000000 0.711117
O O14 0.686222 0.836514 0.839965
O O15 0.000000 0.741468 0.085069
O O16 0.859093 0.718186 0.000000
O O17 0.875798 0.589210 0.038574
O O18 0.568142 0.431859 0.000000
O O19 0.730619 0.461238 0.000000
#
# Coordination Sequence:
#
# PCOD9577952 Si02
#       7
#    12  12  12  12  12  12  12
#     4  11  24  42  68  97 131 170 216 271 327 390
#     4  11  22  40  61  90 128 172 217 264 315 375
#     4  11  24  40  61  91 126 166 214 265 320 381
#     4  11  24  40  61  91 126 166 214 265 320 381
#     4  12  22  42  62  94 127 166 215 262 318 382
#     4  11  24  42  68  97 131 170 216 271 327 390
#     4  11  22  40  61  90 128 172 217 264 315 375
#
# _framework density 19.412133999999998
#
# number of rings (size 3 to 8) (size 9 to 14) (size 15 to 20)
#    0.000    0.857    5.714    3.714    0.000    5.714 
#    0.857    0.000    0.000    0.286    0.000    1.000 
#    0.000    0.000    0.000    0.000    0.000    0.000 
#
# Total GULP energy -468493.641577 kJ/mol
# GULP energy per Si atom -5577.305257 kJ/mol
# Density = 1.936795 g / cm^3
# Si number density = 19.412134 Si / 1000 Ang^3
#
#
#
# Elastic Constant Matrix: (Units=GPa)
#
#
# Indices 1 2 3 4 5 6 
#
# 1 57.7133 27.0488 26.3129 0.0003 -19.0819 0.0000
# 2 27.0488 57.7133 26.3129 -0.0003 19.0819 0.0000
# 3 26.3129 26.3129 146.0569 0.0000 0.0000 0.0000
# 4 0.0003 -0.0003 0.0000 -6.2435 0.0000 19.0819
# 5 -19.0819 19.0819 0.0000 0.0000 -6.2435 0.0003
# 6 0.0000 0.0000 0.0000 19.0819 0.0003 15.3322
#
#
#
# Elastic Compliance Matrix: (Units=1/GPa)
#
#
# Indices 1 2 3 4 5 6 
#
# 1 0.010036 0.003247 -0.002393 0.000000 -0.020748 0.000000
# 2 0.003247 0.010036 -0.002393 0.000000 0.020748 0.000000
# 3 -0.002393 -0.002393 0.007709 0.000000 0.000000 0.000000
# 4 0.000000 0.000000 0.000000 -0.033342 0.000000 0.041496
# 5 -0.020748 0.020748 0.000000 0.000000 -0.033342 0.000001
# 6 0.000000 0.000000 0.000000 0.041496 0.000001 0.013577
#
#
# Mechanical properties :
#
#
# Convention : Reuss Voigt Hill
#
# Bulk Modulus (GPa) = 40.48001 46.75921 43.61961
# Shear Modulus (GPa) = -356.79665 12.68962 -172.05351
#
# Velocity S-wave (km/s) = -13.57202 2.55952 -9.42467
# Velocity P-wave (km/s) = 14.99005 5.73365 9.79354
#
# Compressibility (1/GPa) = 0.02470355
#
# Stress axis : x y z
#
# Youngs Moduli (GPa) = 99.64015 99.64015 129.72013
#
# Poissons Ratio (x) = -0.32357 0.31043
# Poissons Ratio (y) = -0.32357 0.31043
# Poissons Ratio (z) = 0.23845 0.23845
#
# Static dielectric constant tensor:
#      x y z
#    x 1.683430 0.000000 0.000000 
#    y 0.000000 1.683430 0.000000 
#    z 0.000000 0.000000 2.010640 
# 
# From -- ./inp_files/3200.got.cif
#   From: 2010.05.17/outbox.cif.g08.bks.cpg/sg162_2_cif.got.tgz:3200.got - 2010.05.20 10:53:12.
