data_PCOD9577355
_publ_section_title
;
Structure prediction by ZEFSAII (Michael W. Deem and Ramdas Pophale) SiO2 
 PCOD9577355
Probable space group: P 3 1 C
;
_chemical_formula_sum "Si O2"
_cell_formula_units_Z 48
_cell_length_a 23.558636
_cell_length_b 23.558636
_cell_length_c 8.831300
_cell_angle_alpha 90.000000
_cell_angle_beta 90.000000
_cell_angle_gamma 120.000000
_cell_volume 4244.783591
_symmetry_space_group_name_H-M "P 3 1 C"
_symmetry_group_IT_number 159
_symmetry_cell_setting 'hexagonal'
loop_
_space_group_symop_operation_xyz
x,y,z
-y,x-y,z
-x+y,-x,z
y,x,1/2+z
x-y,-y,1/2+z
-x,-x+y,1/2+z
loop_
_atom_site_type_symbol
_atom_site_label
_atom_site_fract_x
_atom_site_fract_y
_atom_site_fract_z
Si Si1 0.456142 0.794134 0.038550
Si Si2 0.932146 0.528042 0.395154
Si Si3 0.537923 0.210861 0.403925
Si Si4 0.542737 0.609485 0.893071
Si Si5 0.404103 0.471958 0.544626
Si Si6 0.456142 0.794134 0.401230
Si Si7 0.390515 0.933252 0.546709
Si Si8 0.789139 0.327061 0.035855
O O1 0.451317 0.789322 0.219890
O O2 0.510929 0.866984 0.987101
O O3 0.387538 0.782512 0.968778
O O4 0.469859 0.739563 0.968197
O O5 0.934316 0.460052 0.396481
O O6 0.927072 0.542903 0.219890
O O7 1.000000 0.581781 0.469890
O O8 0.479181 0.139074 0.453931
O O9 0.541038 0.212138 0.219890
O O10 0.562182 0.626760 0.719890
O O11 0.596167 0.596167 0.969890
O O12 0.356055 0.489071 0.452679
O O13 0.474264 0.539948 0.543299
O O14 0.387538 0.782512 0.471002
O O15 0.469859 0.739563 0.471583
O O16 0.340107 0.860926 0.485849
#
# Coordination Sequence:
#
# PCOD9577355 Si02
#       8
#     6   6   6   6   6   6   6   6
#     4  11  20  28  38  53  69  87 110 137 168 205
#     4   9  16  27  40  53  67  85 107 133 162 195
#     4  10  19  30  39  49  67  90 110 133 167 206
#     4   8  15  25  38  51  63  80 103 129 159 192
#     4   9  16  27  40  53  67  85 107 133 162 195
#     4  11  20  28  38  53  69  87 110 137 168 205
#     4   8  15  25  38  51  63  80 103 129 159 192
#     4  10  19  30  39  49  67  90 110 133 167 206
#
# _framework density 11.307997
#
# number of rings (size 3 to 8) (size 9 to 14) (size 15 to 20)
#    0.000    2.500    0.000    5.750    0.000    7.000 
#    0.000    0.000    0.000    0.000    0.000    0.000 
#    0.000    0.000    0.000    0.000    0.000    0.000 
#
# Total GULP energy -267268.297613 kJ/mol
# GULP energy per Si atom -5568.089534 kJ/mol
# Density = 1.128226 g / cm^3
# Si number density = 11.307997 Si / 1000 Ang^3
#
#
#
# Elastic Constant Matrix: (Units=GPa)
#
#
# Indices 1 2 3 4 5 6 
#
# 1 64.7726 42.3457 32.2243 0.0000 0.0000 0.0000
# 2 42.3457 64.7726 32.2243 0.0000 0.0000 0.0000
# 3 32.2243 32.2243 75.6650 0.0000 0.0000 0.0000
# 4 0.0000 0.0000 0.0000 15.8853 0.0000 0.0000
# 5 0.0000 0.0000 0.0000 0.0000 15.8853 0.0000
# 6 0.0000 0.0000 0.0000 0.0000 0.0000 11.2135
#
#
#
# Elastic Compliance Matrix: (Units=1/GPa)
#
#
# Indices 1 2 3 4 5 6 
#
# 1 0.028570 -0.016019 -0.005346 0.000000 0.000000 0.000000
# 2 -0.016019 0.028570 -0.005346 0.000000 0.000000 0.000000
# 3 -0.005346 -0.005346 0.017769 0.000000 0.000000 0.000000
# 4 0.000000 0.000000 0.000000 0.062951 0.000000 0.000000
# 5 0.000000 0.000000 0.000000 0.000000 0.062951 0.000000
# 6 0.000000 0.000000 0.000000 0.000000 0.000000 0.089178
#
#
# Mechanical properties :
#
#
# Convention : Reuss Voigt Hill
#
# Bulk Modulus (GPa) = 46.53221 46.53323 46.53272
# Shear Modulus (GPa) = 14.26231 15.15786 14.71009
#
# Velocity S-wave (km/s) = 3.55527 3.66519 3.61065
# Velocity P-wave (km/s) = 7.62184 7.69101 7.65650
#
# Compressibility (1/GPa) = 0.02149049
#
# Stress axis : x y z
#
# Youngs Moduli (GPa) = 35.00125 35.00125 56.27697
#
# Poissons Ratio (x) = 0.56068 0.30083
# Poissons Ratio (y) = 0.56068 0.30083
# Poissons Ratio (z) = 0.18710 0.18710
#
# Static dielectric constant tensor:
#      x y z
#    x 1.359550 0.000000 0.000000 
#    y 0.000000 1.359550 0.000000 
#    z 0.000000 0.000000 1.383380 
# 
# From -- ./inp_files/530.got.cif
#   From: 2010.05.17/outbox.cif.g08.bks.cpg/sg159_cif.got.tgz:530.got - 2010.05.20 10:50:30.
