data_PCOD9577866
_publ_section_title
;
Structure prediction by ZEFSAII (Michael W. Deem and Ramdas Pophale) SiO2 
 PCOD9577866
Probable space group: P -3 1 M 
;
_chemical_formula_sum "Si O2"
_cell_formula_units_Z 66
_cell_length_a 30.262302
_cell_length_b 30.262302
_cell_length_c 5.249577
_cell_angle_alpha 90.000000
_cell_angle_beta 90.000000
_cell_angle_gamma 120.000000
_cell_volume 4163.502827
_symmetry_space_group_name_H-M "P -3 1 M "
_symmetry_group_IT_number 162
_symmetry_cell_setting 'hexagonal'
loop_
_space_group_symop_operation_xyz
x,y,z
-y,x-y,z
-x+y,-x,z
-y,-x,-z
-x+y,y,-z
x,x-y,-z
-x,-y,-z
y,-x+y,-z
x-y,x,-z
y,x,z
x-y,-y,z
-x,-x+y,z
loop_
_atom_site_type_symbol
_atom_site_label
_atom_site_fract_x
_atom_site_fract_y
_atom_site_fract_z
Si Si1 0.329895 0.062384 0.969683
Si Si2 0.718740 0.938939 0.529255
Si Si3 0.944673 0.055328 0.500000
Si Si4 0.860344 0.058212 0.171828
Si Si5 0.481768 0.419623 0.423870
Si Si6 0.062086 0.632030 0.922989
O O1 0.304334 0.079479 0.190943
O O2 0.298018 0.000000 0.962538
O O3 0.323768 0.080130 0.691332
O O4 0.387524 0.077973 0.033378
O O5 0.763307 0.932113 0.403711
O O6 0.743610 0.000000 0.544901
O O7 0.906146 0.053305 0.289811
O O8 0.000000 0.076340 0.384954
O O9 0.819847 0.000000 0.063686
O O10 0.891055 0.108946 0.000000
O O11 0.539365 0.460636 0.500000
O O12 0.451751 0.451751 0.416836
O O13 0.470717 0.392141 0.151643
O O14 0.456526 0.379002 0.649843
O O15 0.000000 0.601072 0.926075
#
# Coordination Sequence:
#
# PCOD9577866 Si02
#       6
#    12  12   6  12  12  12
#     4   9  16  27  40  57  75  97 124 153 186 218
#     4   9  18  29  44  61  80  98 120 149 180 219
#     4  10  21  36  54  72  90 108 128 148 176 224
#     4  10  21  34  50  68  86 106 124 148 182 229
#     4   9  15  21  29  44  66  94 126 158 189 219
#     4   9  15  22  33  46  66  93 123 156 188 219
#
# _framework density 15.852036999999999
#
# number of rings (size 3 to 8) (size 9 to 14) (size 15 to 20)
#    0.000    2.727    0.000    2.273    2.545    6.545 
#    0.000    0.000    0.000    2.909    0.000    0.000 
#    0.000    0.000    0.000    0.000    0.000    0.000 
#
# Total GULP energy -367588.588447 kJ/mol
# GULP energy per Si atom -5569.524067 kJ/mol
# Density = 1.581596 g / cm^3
# Si number density = 15.852037 Si / 1000 Ang^3
#
#
#
# Elastic Constant Matrix: (Units=GPa)
#
#
# Indices 1 2 3 4 5 6 
#
# 1 24.1997 12.5017 -8.5544 0.0000 2.0277 0.0000
# 2 12.5017 24.1997 -8.5544 0.0000 -2.0277 0.0000
# 3 -8.5544 -8.5544 40.6052 0.0000 0.0000 0.0000
# 4 0.0000 0.0000 0.0000 19.0673 0.0000 -2.0277
# 5 2.0277 -2.0277 0.0000 0.0000 19.0673 0.0000
# 6 0.0000 0.0000 0.0000 -2.0277 0.0000 5.8490
#
#
#
# Elastic Compliance Matrix: (Units=1/GPa)
#
#
# Indices 1 2 3 4 5 6 
#
# 1 0.059486 -0.029272 0.006365 0.000000 -0.009439 0.000000
# 2 -0.029272 0.059486 0.006365 0.000000 0.009439 0.000000
# 3 0.006365 0.006365 0.027309 0.000000 0.000000 0.000000
# 4 0.000000 0.000000 0.000000 0.054453 0.000000 0.018878
# 5 -0.009439 0.009439 0.000000 0.000000 0.054453 0.000000
# 6 0.000000 0.000000 0.000000 0.018878 0.000000 0.177515
#
#
# Mechanical properties :
#
#
# Convention : Reuss Voigt Hill
#
# Bulk Modulus (GPa) = 8.83398 8.86558 8.84978
# Shear Modulus (GPa) = 9.93015 15.03750 12.48383
#
# Velocity S-wave (km/s) = 2.50557 3.08330 2.80933
# Velocity P-wave (km/s) = 3.73569 4.27557 4.01472
#
# Compressibility (1/GPa) = 0.11319923
#
# Stress axis : x y z
#
# Youngs Moduli (GPa) = 16.81074 16.81074 36.61742
#
# Poissons Ratio (x) = 0.49208 -0.23308
# Poissons Ratio (y) = 0.49208 -0.23308
# Poissons Ratio (z) = -0.10701 -0.10701
#
# Static dielectric constant tensor:
#      x y z
#    x 1.557450 0.000000 0.000000 
#    y 0.000000 1.557450 0.000000 
#    z 0.000000 0.000000 1.582370 
# 
# From -- ./inp_files/754.got.cif
#   From: 2010.05.17/outbox.cif.g08.bks.cpg/sg162_1_cif.got.tgz:754.got - 2010.05.20 10:53:12.
