data_PCOD9577444
_publ_section_title
;
Structure prediction by ZEFSAII (Michael W. Deem and Ramdas Pophale) SiO2 
 PCOD9577444
Probable space group: P 3 1 C
;
_chemical_formula_sum "Si O2"
_cell_formula_units_Z 28
_cell_length_a 10.201089
_cell_length_b 10.201089
_cell_length_c 13.399974
_cell_angle_alpha 90.000000
_cell_angle_beta 90.000000
_cell_angle_gamma 120.000000
_cell_volume 1207.612669
_symmetry_space_group_name_H-M "P 3 1 C"
_symmetry_group_IT_number 159
_symmetry_cell_setting 'hexagonal'
loop_
_space_group_symop_operation_xyz
x,y,z
-y,x-y,z
-x+y,-x,z
y,x,1/2+z
x-y,-y,1/2+z
-x,-x+y,1/2+z
loop_
_atom_site_type_symbol
_atom_site_label
_atom_site_fract_x
_atom_site_fract_y
_atom_site_fract_z
Si Si1 0.666668 0.333334 0.789357
Si Si2 0.416797 0.083046 0.517917
Si Si3 0.333334 0.666668 0.526120
Si Si4 0.925782 0.573228 0.395851
Si Si5 0.572465 0.957971 0.189791
Si Si6 0.806755 0.122507 0.038583
O O1 0.666668 0.333334 0.907062
O O2 0.799389 0.492841 0.747984
O O3 0.464379 0.243231 0.463816
O O4 0.476862 0.010776 0.434851
O O5 0.501338 0.066177 0.615715
O O6 0.237543 0.983768 0.534342
O O7 0.232552 0.737748 0.560878
O O8 0.916529 0.552878 0.277673
O O9 0.043216 0.742382 0.432418
O O10 0.717743 0.995354 0.122327
#
# Coordination Sequence:
#
# PCOD9577444 Si02
#       6
#     2   6   2   6   6   6
#     4  12  21  42  69 100 137 175 240 300 348 442
#     4  11  24  43  64 100 145 171 242 306 344 448
#     4  12  18  42  66  91 134 175 219 291 363 412
#     4  11  24  42  67 102 135 191 234 296 373 426
#     4  11  23  37  72 101 131 187 233 295 377 420
#     4  11  22  42  64  96 136 181 230 296 365 434
#
# _framework density 23.186240000000002
#
# number of rings (size 3 to 8) (size 9 to 14) (size 15 to 20)
#    0.000    0.857    6.429    3.000    3.000    0.000 
#    1.286    0.000    0.000    0.000    0.000    0.000 
#    0.000    0.000    0.000    0.000    0.000    0.000 
#
# Total GULP energy -155991.200518 kJ/mol
# GULP energy per Si atom -5571.114304 kJ/mol
# Density = 2.313347 g / cm^3
# Si number density = 23.186240 Si / 1000 Ang^3
#
#
#
# Elastic Constant Matrix: (Units=GPa)
#
#
# Indices 1 2 3 4 5 6 
#
# 1 92.8071 28.5518 35.6478 0.0000 -1.9025 0.0000
# 2 28.5518 92.8073 35.6479 0.0000 1.9025 0.0001
# 3 35.6478 35.6479 172.6519 0.0000 0.0000 0.0000
# 4 0.0000 0.0000 0.0000 29.8814 0.0001 1.9025
# 5 -1.9025 1.9025 0.0000 0.0001 29.8813 0.0000
# 6 0.0000 0.0001 0.0000 1.9025 0.0000 32.1277
#
#
#
# Elastic Compliance Matrix: (Units=1/GPa)
#
#
# Indices 1 2 3 4 5 6 
#
# 1 0.012500 -0.003122 -0.001936 0.000000 0.000995 0.000000
# 2 -0.003122 0.012500 -0.001936 0.000000 -0.000995 0.000000
# 3 -0.001936 -0.001936 0.006592 0.000000 0.000000 0.000000
# 4 0.000000 0.000000 0.000000 0.033592 0.000000 -0.001989
# 5 0.000995 -0.000995 0.000000 0.000000 0.033592 0.000000
# 6 0.000000 0.000000 0.000000 -0.001989 0.000000 0.031244
#
#
# Mechanical properties :
#
#
# Convention : Reuss Voigt Hill
#
# Bulk Modulus (GPa) = 56.81256 61.99570 59.40413
# Shear Modulus (GPa) = 33.36103 35.60599 34.48351
#
# Velocity S-wave (km/s) = 3.79730 3.92299 3.86066
# Velocity P-wave (km/s) = 6.61679 6.87866 6.74900
#
# Compressibility (1/GPa) = 0.01760174
#
# Stress axis : x y z
#
# Youngs Moduli (GPa) = 80.00224 80.00236 151.70962
#
# Poissons Ratio (x) = 0.24978 0.29374
# Poissons Ratio (y) = 0.24978 0.29374
# Poissons Ratio (z) = 0.15490 0.15490
#
# Static dielectric constant tensor:
#      x y z
#    x 1.958960 0.000000 0.000000 
#    y 0.000000 1.958960 0.000000 
#    z 0.000000 0.000000 1.891920 
# 
# From -- ./inp_files/792.got.cif
#   From: 2010.05.17/outbox.cif.g08.bks.cpg/sg159_cif.got.tgz:792.got - 2010.05.20 10:50:30.
