data_PCOD9577652
_publ_section_title
;
Structure prediction by ZEFSAII (Michael W. Deem and Ramdas Pophale) SiO2 
 PCOD9577652
Probable space group: P -3 1 M 
;
_chemical_formula_sum "Si O2"
_cell_formula_units_Z 72
_cell_length_a 26.289664
_cell_length_b 26.289664
_cell_length_c 7.984310
_cell_angle_alpha 90.000000
_cell_angle_beta 90.000000
_cell_angle_gamma 120.000000
_cell_volume 4779.011696
_symmetry_space_group_name_H-M "P -3 1 M "
_symmetry_group_IT_number 162
_symmetry_cell_setting 'hexagonal'
loop_
_space_group_symop_operation_xyz
x,y,z
-y,x-y,z
-x+y,-x,z
-y,-x,-z
-x+y,y,-z
x,x-y,-z
-x,-y,-z
y,-x+y,-z
x-y,x,-z
y,x,z
x-y,-y,z
-x,-x+y,z
loop_
_atom_site_type_symbol
_atom_site_label
_atom_site_fract_x
_atom_site_fract_y
_atom_site_fract_z
Si Si1 0.814296 0.065988 1.000000
Si Si2 0.466128 0.932256 0.299787
Si Si3 0.644243 0.068632 0.800829
Si Si4 0.228667 0.338105 0.311612
Si Si5 0.109438 0.771333 0.688388
Si Si6 0.575611 0.644243 0.800830
O O1 0.783892 0.075401 0.835560
O O2 0.801927 0.000000 1.000000
O O3 0.881871 0.118130 0.000000
O O4 0.783892 0.075401 0.164440
O O5 0.466458 0.932916 0.500000
O O6 0.399782 0.907145 0.239831
O O7 0.507363 0.907145 0.239830
O O8 0.500000 0.000000 0.236139
O O9 0.707460 0.101474 0.716128
O O10 0.611579 0.000000 0.745456
O O11 0.652229 0.069853 1.000000
O O12 0.225436 0.314702 0.500000
O O13 0.176845 0.353691 0.296737
O O14 0.292540 0.394015 0.283872
O O15 0.611579 0.611579 0.745456
#
# Coordination Sequence:
#
# PCOD9577652 Si02
#       6
#    12  12  12  12  12  12
#     4  10  20  34  50  70  95 123 155 191 233 281
#     4   9  17  27  39  59  87 119 153 186 219 261
#     4  10  18  28  43  63  89 121 154 187 225 269
#     4  10  20  32  47  68  94 124 158 194 232 279
#     4  10  20  32  47  68  94 124 158 194 232 279
#     4  10  18  28  43  63  89 121 154 187 225 269
#
# _framework density 15.065877
#
# number of rings (size 3 to 8) (size 9 to 14) (size 15 to 20)
#    0.000    2.167    1.667    2.500    0.000    6.000 
#    0.000    0.000    0.000    0.167    0.000    0.000 
#    1.667    0.000    3.000    8.333    3.000    0.000 
#
# Total GULP energy -401299.749399 kJ/mol
# GULP energy per Si atom -5573.607631 kJ/mol
# Density = 1.503159 g / cm^3
# Si number density = 15.065877 Si / 1000 Ang^3
#
#
#
# Elastic Constant Matrix: (Units=GPa)
#
#
# Indices 1 2 3 4 5 6 
#
# 1 74.8164 36.0941 31.4988 0.0000 0.0000 0.0000
# 2 36.0941 74.8164 31.4988 0.0000 0.0000 0.0000
# 3 31.4988 31.4988 89.0704 0.0000 0.0000 0.0000
# 4 0.0000 0.0000 0.0000 12.0751 0.0000 0.0000
# 5 0.0000 0.0000 0.0000 0.0000 12.0751 0.0000
# 6 0.0000 0.0000 0.0000 0.0000 0.0000 19.3612
#
#
#
# Elastic Compliance Matrix: (Units=1/GPa)
#
#
# Indices 1 2 3 4 5 6 
#
# 1 0.018554 -0.007271 -0.003990 0.000000 0.000000 0.000000
# 2 -0.007271 0.018554 -0.003990 0.000000 0.000000 0.000000
# 3 -0.003990 -0.003990 0.014049 0.000000 0.000000 0.000000
# 4 0.000000 0.000000 0.000000 0.082815 0.000000 0.000000
# 5 0.000000 0.000000 0.000000 0.000000 0.082815 0.000000
# 6 0.000000 0.000000 0.000000 0.000000 0.000000 0.051650
#
#
# Mechanical properties :
#
#
# Convention : Reuss Voigt Hill
#
# Bulk Modulus (GPa) = 48.41579 48.54293 48.47936
# Shear Modulus (GPa) = 16.34928 18.00970 17.17949
#
# Velocity S-wave (km/s) = 3.29779 3.46120 3.38048
# Velocity P-wave (km/s) = 6.83421 6.94720 6.89094
#
# Compressibility (1/GPa) = 0.02065442
#
# Stress axis : x y z
#
# Youngs Moduli (GPa) = 53.89750 53.89750 71.17900
#
# Poissons Ratio (x) = 0.39190 0.28400
# Poissons Ratio (y) = 0.39190 0.28400
# Poissons Ratio (z) = 0.21505 0.21505
#
# Static dielectric constant tensor:
#      x y z
#    x 1.494870 0.000000 0.000000 
#    y 0.000000 1.494870 0.000000 
#    z 0.000000 0.000000 1.529960 
# 
# From -- ./inp_files/1709.got.cif
#   From: 2010.05.17/outbox.cif.g08.bks.cpg/sg162_1_cif.got.tgz:1709.got - 2010.05.20 10:53:12.
