data_PCOD9577071
_publ_section_title
;
Structure prediction by ZEFSAII (Michael W. Deem and Ramdas Pophale) SiO2 
 PCOD9577071
Probable space group: R 3 2
;
_chemical_formula_sum "Si O2"
_cell_formula_units_Z 51
_cell_length_a 10.617919
_cell_length_b 10.617919
_cell_length_c 28.372278
_cell_angle_alpha 90.000000
_cell_angle_beta 90.000000
_cell_angle_gamma 120.000000
_cell_volume 2770.152347
_symmetry_space_group_name_H-M "R 3 2"
_symmetry_group_IT_number 155
_symmetry_cell_setting 'hexagonal'
loop_
_space_group_symop_operation_xyz
x,y,z
-y,x-y,z
-x+y,-x,z
x-y,-y,-z
-x,-x+y,-z
y,x,-z
2/3+x,1/3+y,1/3+z
2/3-y,1/3+x-y,1/3+z
2/3-x+y,1/3-x,1/3+z
2/3+x-y,1/3-y,1/3-z
2/3-x,1/3-x+y,1/3-z
2/3+y,1/3+x,1/3-z
1/3+x,2/3+y,2/3+z
1/3-y,2/3+x-y,2/3+z
1/3-x+y,2/3-x,2/3+z
1/3+x-y,2/3-y,2/3-z
1/3-x,2/3-x+y,2/3-z
1/3+y,2/3+x,2/3-z
loop_
_atom_site_type_symbol
_atom_site_label
_atom_site_fract_x
_atom_site_fract_y
_atom_site_fract_z
Si Si1 0.692103 0.948082 0.574502
Si Si2 0.000000 0.000000 0.442112
Si Si3 0.459633 0.850703 0.851982
Si Si4 0.333334 0.500476 0.666667
O O1 0.835996 0.935205 0.576118
O O2 0.591955 0.847009 0.531861
O O3 0.595829 0.908728 0.621016
O O4 0.746750 0.112628 0.557568
O O5 0.000000 0.000000 0.500000
O O6 0.286186 0.773001 0.856134
O O7 0.468817 0.666667 0.666667
#
# Coordination Sequence:
#
# PCOD9577071 Si02
#       4
#    18   6  18   9
#     4  11  22  42  65  92 131 165 211 269 319 379
#     4  12  24  42  63 102 129 174 210 261 330 370
#     4   9  20  36  63  99 119 160 216 260 317 367
#     4  10  24  46  66  94 122 170 216 260 328 378
#
# _framework density 18.410539
#
# number of rings (size 3 to 8) (size 9 to 14) (size 15 to 20)
#    1.059    0.706    3.529    2.118    0.000    8.471 
#    9.529    0.000    0.000    0.000    0.000    0.000 
#    0.000    0.000    0.000    0.000    0.000    0.000 
#
# Total GULP energy -94733.881211 kJ/mol
# GULP energy per Si atom -5572.581248 kJ/mol
# Density = 1.836864 g / cm^3
# Si number density = 18.410539 Si / 1000 Ang^3
#
#
#
# Elastic Constant Matrix: (Units=GPa)
#
#
# Indices 1 2 3 4 5 6 
#
# 1 84.9684 1.0913 36.9985 -4.6032 -0.0004 0.0000
# 2 1.0913 84.9684 36.9985 4.6032 0.0004 0.0000
# 3 36.9985 36.9985 133.5266 0.0000 0.0000 0.0000
# 4 -4.6032 4.6032 0.0000 20.5226 0.0000 0.0004
# 5 -0.0004 0.0004 0.0000 0.0000 20.5226 -4.6032
# 6 0.0000 0.0000 0.0000 0.0004 -4.6032 41.9386
#
#
#
# Elastic Compliance Matrix: (Units=1/GPa)
#
#
# Indices 1 2 3 4 5 6 
#
# 1 0.013739 0.001515 -0.004227 0.002742 0.000000 0.000000
# 2 0.001515 0.013739 -0.004227 -0.002742 0.000000 0.000000
# 3 -0.004227 -0.004227 0.009831 0.000000 0.000000 0.000000
# 4 0.002742 -0.002742 0.000000 0.049957 0.000000 0.000000
# 5 0.000000 0.000000 0.000000 0.000000 0.049957 0.005483
# 6 0.000000 0.000000 0.000000 0.000000 0.005483 0.024446
#
#
# Mechanical properties :
#
#
# Convention : Reuss Voigt Hill
#
# Bulk Modulus (GPa) = 42.67517 50.40446 46.53982
# Shear Modulus (GPa) = 27.26948 31.82176 29.54562
#
# Velocity S-wave (km/s) = 3.85280 4.16198 4.01037
# Velocity P-wave (km/s) = 6.55913 7.10870 6.83943
#
# Compressibility (1/GPa) = 0.02343283
#
# Stress axis : x y z
#
# Youngs Moduli (GPa) = 72.78754 72.78754 101.71405
#
# Poissons Ratio (x) = -0.11031 0.42992
# Poissons Ratio (y) = -0.11031 0.42992
# Poissons Ratio (z) = 0.30765 0.30765
#
# Static dielectric constant tensor:
#      x y z
#    x 1.664800 0.000000 0.000000 
#    y 0.000000 1.664800 0.000000 
#    z 0.000000 0.000000 1.593420 
# 
# From -- ./inp_files/8201.got.cif
#   From: 2010.05.17/outbox.cif.g08.bks.cpg/sg155_5_cif.got.tgz:8201.got - 2010.05.20 10:44:35.
