data_PCOD9577668
_publ_section_title
;
Structure prediction by ZEFSAII (Michael W. Deem and Ramdas Pophale) SiO2 
 PCOD9577668
Probable space group: P -3 1 M 
;
_chemical_formula_sum "Si O2"
_cell_formula_units_Z 84
_cell_length_a 22.093788
_cell_length_b 22.093788
_cell_length_c 11.947662
_cell_angle_alpha 90.000000
_cell_angle_beta 90.000000
_cell_angle_gamma 120.000000
_cell_volume 5050.727345
_symmetry_space_group_name_H-M "P -3 1 M "
_symmetry_group_IT_number 162
_symmetry_cell_setting 'hexagonal'
loop_
_space_group_symop_operation_xyz
x,y,z
-y,x-y,z
-x+y,-x,z
-y,-x,-z
-x+y,y,-z
x,x-y,-z
-x,-y,-z
y,-x+y,-z
x-y,x,-z
y,x,z
x-y,-y,z
-x,-x+y,z
loop_
_atom_site_type_symbol
_atom_site_label
_atom_site_fract_x
_atom_site_fract_y
_atom_site_fract_z
Si Si1 0.190719 0.524647 0.365821
Si Si2 0.838343 0.161657 0.866312
Si Si3 0.161071 0.080536 0.863536
Si Si4 0.918276 0.298005 0.722320
Si Si5 0.524647 0.333928 0.365822
Si Si6 0.921823 0.217463 0.500000
Si Si7 0.379729 0.298005 0.722321
O O1 0.179207 0.513837 0.500000
O O2 0.261281 0.522562 0.340278
O O3 0.199538 0.599769 0.339721
O O4 0.125972 0.461902 0.302560
O O5 0.879063 0.120938 0.829502
O O6 0.880368 0.239377 0.816754
O O7 0.760623 0.119632 0.816756
O O8 0.837195 0.162806 0.000000
O O9 0.121249 0.121249 0.826668
O O10 0.121249 0.000000 0.826668
O O11 0.160004 0.080002 0.000000
O O12 0.874028 0.335930 0.697440
O O13 0.913593 0.255496 0.609013
O O14 0.000000 0.349382 0.746071
O O15 0.862091 0.137910 0.500000
O O16 0.913593 0.255496 0.390985
O O17 0.000000 0.231156 0.500000
O O18 0.349382 0.349382 0.746072
#
# Coordination Sequence:
#
# PCOD9577668 Si02
#       7
#    12  12  12  12  12  12  12
#     4  10  19  33  55  85 119 146 174 214 271 338
#     4  11  22  36  55  76 107 151 196 238 279 326
#     4   9  17  30  48  71  99 132 175 230 288 334
#     4  11  21  34  55  82 113 144 180 227 277 333
#     4  10  19  33  55  85 119 146 174 214 271 338
#     4  10  18  32  53  76 103 139 177 219 276 334
#     4  11  21  34  55  82 113 144 180 227 277 333
#
# _framework density 16.631267999999999
#
# number of rings (size 3 to 8) (size 9 to 14) (size 15 to 20)
#    0.000    1.714    4.286    1.286    0.000    4.000 
#    0.000    1.429    0.000    1.000    0.000    2.000 
#    0.000    0.000    0.000    0.000    0.000    0.000 
#
# Total GULP energy -468874.226792 kJ/mol
# GULP energy per Si atom -5581.836033 kJ/mol
# Density = 1.659341 g / cm^3
# Si number density = 16.631268 Si / 1000 Ang^3
#
#
#
# Elastic Constant Matrix: (Units=GPa)
#
#
# Indices 1 2 3 4 5 6 
#
# 1 114.2502 57.2509 22.5980 0.0000 0.0000 0.0000
# 2 57.2509 114.2502 22.5980 0.0000 0.0000 0.0000
# 3 22.5980 22.5980 49.4798 0.0000 0.0000 0.0000
# 4 0.0000 0.0000 0.0000 18.1024 0.0000 0.0000
# 5 0.0000 0.0000 0.0000 0.0000 18.1024 0.0000
# 6 0.0000 0.0000 0.0000 0.0000 0.0000 28.4997
#
#
#
# Elastic Compliance Matrix: (Units=1/GPa)
#
#
# Indices 1 2 3 4 5 6 
#
# 1 0.012086 -0.005458 -0.003027 0.000000 0.000000 0.000000
# 2 -0.005458 0.012086 -0.003027 0.000000 0.000000 0.000000
# 3 -0.003027 -0.003027 0.022976 0.000000 0.000000 0.000000
# 4 0.000000 0.000000 0.000000 0.055241 0.000000 0.000000
# 5 0.000000 0.000000 0.000000 0.000000 0.055241 0.000000
# 6 0.000000 0.000000 0.000000 0.000000 0.000000 0.035088
#
#
# Mechanical properties :
#
#
# Convention : Reuss Voigt Hill
#
# Bulk Modulus (GPa) = 41.45364 53.65267 47.55315
# Shear Modulus (GPa) = 22.34285 24.64310 23.49298
#
# Velocity S-wave (km/s) = 3.66925 3.85350 3.76251
# Velocity P-wave (km/s) = 6.55213 7.22008 6.89420
#
# Compressibility (1/GPa) = 0.02412333
#
# Stress axis : x y z
#
# Youngs Moduli (GPa) = 82.73776 82.73776 43.52448
#
# Poissons Ratio (x) = 0.45156 0.13177
# Poissons Ratio (y) = 0.45156 0.13177
# Poissons Ratio (z) = 0.25048 0.25048
#
# Static dielectric constant tensor:
#      x y z
#    x 1.550630 0.000000 0.000000 
#    y 0.000000 1.550630 0.000000 
#    z 0.000000 0.000000 1.549840 
# 
# From -- ./inp_files/2536.got.cif
#   From: 2010.05.17/outbox.cif.g08.bks.cpg/sg162_2_cif.got.tgz:2536.got - 2010.05.20 10:53:12.
