data_PCOD9577327
_publ_section_title
;
Structure prediction by ZEFSAII (Michael W. Deem and Ramdas Pophale) SiO2 
 PCOD9577327
Probable space group: P 3 C 1
;
_chemical_formula_sum "Si O2"
_cell_formula_units_Z 30
_cell_length_a 10.528140
_cell_length_b 10.528140
_cell_length_c 14.240235
_cell_angle_alpha 90.000000
_cell_angle_beta 90.000000
_cell_angle_gamma 120.000000
_cell_volume 1366.945158
_symmetry_space_group_name_H-M "P 3 C 1"
_symmetry_group_IT_number 158
_symmetry_cell_setting 'hexagonal'
loop_
_space_group_symop_operation_xyz
x,y,z
-y,x-y,z
-x+y,-x,z
-x+y,y,1/2+z
x,x-y,1/2+z
-y,-x,1/2+z
loop_
_atom_site_type_symbol
_atom_site_label
_atom_site_fract_x
_atom_site_fract_y
_atom_site_fract_z
Si Si1 0.169118 0.006321 0.125000
Si Si2 0.166667 0.833333 0.792074
Si Si3 0.590075 0.999865 0.931672
Si Si4 0.743258 0.666802 0.931672
Si Si5 0.164215 0.660346 0.125000
O O1 0.216736 0.974322 0.224681
O O2 0.065081 0.639309 0.036263
O O3 0.268252 0.027358 0.036263
O O4 0.004226 0.865951 0.119889
O O5 0.307655 0.883403 0.724681
O O6 0.127661 0.696703 0.859793
O O7 0.205673 0.969964 0.859793
O O8 0.753992 0.135742 0.919203
O O9 0.469075 0.048416 0.919203
O O10 0.471607 0.670892 0.119889
#
# Coordination Sequence:
#
# PCOD9577327 Si02
#       5
#     6   6   6   6   6
#     4  10  23  42  69 101 139 180 233 287 342 409
#     4  12  22  42  70 106 136 178 238 296 348 404
#     4  12  26  45  68 101 143 188 232 286 353 427
#     4  12  26  45  68 101 143 188 232 286 353 427
#     4  10  23  42  69 101 139 180 233 287 342 409
#
# _framework density 21.946747999999999
#
# number of rings (size 3 to 8) (size 9 to 14) (size 15 to 20)
#    0.800    0.000    0.000    8.800    0.000    0.000 
#    2.400    0.000    0.000    4.800    0.000    0.000 
#    0.000    0.000    0.000    0.000    0.000    0.000 
#
# Total GULP energy -167506.296223 kJ/mol
# GULP energy per Si atom -5583.543207 kJ/mol
# Density = 2.189680 g / cm^3
# Si number density = 21.946748 Si / 1000 Ang^3
#
#
#
# Elastic Constant Matrix: (Units=GPa)
#
#
# Indices 1 2 3 4 5 6 
#
# 1 87.6676 9.2934 39.7655 -0.0001 0.0000 0.0000
# 2 9.2934 87.6676 39.7655 0.0001 0.0000 0.0000
# 3 39.7655 39.7655 132.7421 0.0000 0.0000 0.0000
# 4 -0.0001 0.0001 0.0000 24.6537 0.0000 0.0000
# 5 0.0000 0.0000 0.0000 0.0000 24.6537 -0.0001
# 6 0.0000 0.0000 0.0000 0.0000 -0.0001 39.1871
#
#
#
# Elastic Compliance Matrix: (Units=1/GPa)
#
#
# Indices 1 2 3 4 5 6 
#
# 1 0.013216 0.000457 -0.004096 0.000000 0.000000 0.000000
# 2 0.000457 0.013216 -0.004096 0.000000 0.000000 0.000000
# 3 -0.004096 -0.004096 0.009988 0.000000 0.000000 0.000000
# 4 0.000000 0.000000 0.000000 0.040562 0.000000 0.000000
# 5 0.000000 0.000000 0.000000 0.000000 0.040562 0.000000
# 6 0.000000 0.000000 0.000000 0.000000 0.000000 0.025519
#
#
# Mechanical properties :
#
#
# Convention : Reuss Voigt Hill
#
# Bulk Modulus (GPa) = 47.73362 53.96956 50.85159
# Shear Modulus (GPa) = 30.20860 32.31577 31.26218
#
# Velocity S-wave (km/s) = 3.71408 3.84143 3.77829
# Velocity P-wave (km/s) = 6.33952 6.65733 6.50036
#
# Compressibility (1/GPa) = 0.02094960
#
# Stress axis : x y z
#
# Youngs Moduli (GPa) = 75.66450 75.66450 100.12501
#
# Poissons Ratio (x) = -0.03457 0.41012
# Poissons Ratio (y) = -0.03457 0.41012
# Poissons Ratio (z) = 0.30993 0.30993
#
# Static dielectric constant tensor:
#      x y z
#    x 1.849240 0.000000 0.000000 
#    y 0.000000 1.849240 0.000000 
#    z 0.000000 0.000000 1.800050 
# 
# From -- ./inp_files/431.got.cif
#   From: 2010.05.17/outbox.cif.g08.bks.cpg/sg158_cif.got.tgz:431.got - 2010.05.20 10:49:59.
