data_PCOD9577671
_publ_section_title
;
Structure prediction by ZEFSAII (Michael W. Deem and Ramdas Pophale) SiO2 
 PCOD9577671
Probable space group: P -3 1 M 
;
_chemical_formula_sum "Si O2"
_cell_formula_units_Z 48
_cell_length_a 17.006742
_cell_length_b 17.006742
_cell_length_c 9.238631
_cell_angle_alpha 90.000000
_cell_angle_beta 90.000000
_cell_angle_gamma 120.000000
_cell_volume 2314.091354
_symmetry_space_group_name_H-M "P -3 1 M "
_symmetry_group_IT_number 162
_symmetry_cell_setting 'hexagonal'
loop_
_space_group_symop_operation_xyz
x,y,z
-y,x-y,z
-x+y,-x,z
-y,-x,-z
-x+y,y,-z
x,x-y,-z
-x,-y,-z
y,-x+y,-z
x-y,x,-z
y,x,z
x-y,-y,z
-x,-x+y,z
loop_
_atom_site_type_symbol
_atom_site_label
_atom_site_fract_x
_atom_site_fract_y
_atom_site_fract_z
Si Si1 0.647069 0.896427 0.392805
Si Si2 0.526295 0.683426 0.078345
Si Si3 0.491485 0.592591 0.779304
Si Si4 0.168521 0.896839 0.157523
O O1 0.636747 0.818373 0.500000
O O2 0.549817 0.872175 0.324511
O O3 0.712345 0.894609 0.267311
O O4 0.694119 0.000000 0.451156
O O5 0.456545 0.616197 0.197206
O O6 0.626651 0.745083 0.139331
O O7 0.494647 0.747324 0.000000
O O8 0.529954 0.627909 0.940555
O O9 0.516279 0.516279 0.736614
O O10 0.203890 0.000000 0.203793
O O11 0.122570 0.877431 0.000000
#
# Coordination Sequence:
#
# PCOD9577671 Si02
#       4
#    12  12  12  12
#     4  11  23  41  63  89 121 164 212 258 312 376
#     4  10  18  32  57  93 125 157 198 252 305 355
#     4  10  19  35  57  88 126 164 205 249 303 366
#     4  11  20  35  60  91 121 158 207 258 313 369
#
# _framework density 20.742483
#
# number of rings (size 3 to 8) (size 9 to 14) (size 15 to 20)
#    0.000    1.500    5.000    4.500    0.000    0.000 
#    6.000    1.250    0.000   14.500    0.000    0.000 
#    0.000    0.000    0.000    0.000    0.000    0.000 
#
# Total GULP energy -267741.055276 kJ/mol
# GULP energy per Si atom -5577.938652 kJ/mol
# Density = 2.069527 g / cm^3
# Si number density = 20.742483 Si / 1000 Ang^3
#
#
#
# Elastic Constant Matrix: (Units=GPa)
#
#
# Indices 1 2 3 4 5 6 
#
# 1 101.3103 54.8286 21.7069 0.0000 1.8872 0.0000
# 2 54.8286 101.3103 21.7069 0.0000 -1.8872 0.0000
# 3 21.7069 21.7069 51.3245 0.0000 0.0000 0.0000
# 4 0.0000 0.0000 0.0000 20.3638 0.0000 -1.8872
# 5 1.8872 -1.8872 0.0000 0.0000 20.3638 0.0000
# 6 0.0000 0.0000 0.0000 -1.8872 0.0000 23.2409
#
#
#
# Elastic Compliance Matrix: (Units=1/GPa)
#
#
# Indices 1 2 3 4 5 6 
#
# 1 0.014468 -0.007209 -0.003070 0.000000 -0.002009 0.000000
# 2 -0.007209 0.014468 -0.003070 0.000000 0.002009 0.000000
# 3 -0.003070 -0.003070 0.022080 0.000000 0.000000 0.000000
# 4 0.000000 0.000000 0.000000 0.049479 0.000000 0.004018
# 5 -0.002009 0.002009 0.000000 0.000000 0.049479 0.000000
# 6 0.000000 0.000000 0.000000 0.004018 0.000000 0.043354
#
#
# Mechanical properties :
#
#
# Convention : Reuss Voigt Hill
#
# Bulk Modulus (GPa) = 41.12211 50.04774 45.58493
# Shear Modulus (GPa) = 21.91721 23.17387 22.54554
#
# Velocity S-wave (km/s) = 3.25412 3.34611 3.30043
# Velocity P-wave (km/s) = 5.82985 6.25373 6.04550
#
# Compressibility (1/GPa) = 0.02431782
#
# Stress axis : x y z
#
# Youngs Moduli (GPa) = 69.12037 69.12037 45.28899
#
# Poissons Ratio (x) = 0.49832 0.13902
# Poissons Ratio (y) = 0.49832 0.13902
# Poissons Ratio (z) = 0.21218 0.21218
#
# Static dielectric constant tensor:
#      x y z
#    x 1.796290 0.000000 0.000000 
#    y 0.000000 1.796290 0.000000 
#    z 0.000000 0.000000 1.769660 
# 
# From -- ./inp_files/1223.got.cif
#   From: 2010.05.17/outbox.cif.g08.bks.cpg/sg162_1_cif.got.tgz:1223.got - 2010.05.20 10:53:12.
