data_PCOD9577608
_publ_section_title
;
Structure prediction by ZEFSAII (Michael W. Deem and Ramdas Pophale) SiO2 
 PCOD9577608
Probable space group: R 3 C
;
_chemical_formula_sum "Si O2"
_cell_formula_units_Z 84
_cell_length_a 12.274138
_cell_length_b 12.274138
_cell_length_c 31.710651
_cell_angle_alpha 90.000000
_cell_angle_beta 90.000000
_cell_angle_gamma 120.000000
_cell_volume 4137.307431
_symmetry_space_group_name_H-M "R 3 C"
_symmetry_group_IT_number 161
_symmetry_cell_setting 'hexagonal'
loop_
_space_group_symop_operation_xyz
x,y,z
-y,x-y,z
-x+y,-x,z
-x+y,y,1/2+z
x,x-y,1/2+z
-y,-x,1/2+z
2/3+x,1/3+y,1/3+z
2/3-y,1/3+x-y,1/3+z
2/3-x+y,1/3-x,1/3+z
2/3-x+y,1/3+y,5/6+z
2/3+x,1/3+x-y,5/6+z
2/3-y,1/3-x,5/6+z
1/3+x,2/3+y,2/3+z
1/3-y,2/3+x-y,2/3+z
1/3-x+y,2/3-x,2/3+z
1/3-x+y,2/3+y,1/6+z
1/3+x,2/3+x-y,1/6+z
1/3-y,2/3-x,1/6+z
loop_
_atom_site_type_symbol
_atom_site_label
_atom_site_fract_x
_atom_site_fract_y
_atom_site_fract_z
Si Si1 0.757303 0.022544 0.481081
Si Si2 0.234857 0.968927 0.891269
Si Si3 0.930582 0.356959 0.727711
Si Si4 0.678602 0.581042 0.474131
Si Si5 0.666667 0.333333 0.441479
Si Si6 0.666667 0.333334 0.838599
O O1 0.823735 0.172006 0.480511
O O2 0.680000 0.960355 0.438273
O O3 0.664510 0.980377 0.519591
O O4 0.870138 0.990795 0.489030
O O5 0.285111 0.929820 0.850544
O O6 0.085755 0.878838 0.893778
O O7 0.271607 0.113842 0.891015
O O8 0.005403 0.345589 0.767801
O O9 0.636958 0.440044 0.458769
O O10 0.666668 0.333334 0.390114
#
# Coordination Sequence:
#
# PCOD9577608 Si02
#       6
#    18  18  18  18   6   6
#     4  11  23  39  67  95 131 175 228 279 334 407
#     4  11  23  40  62  96 133 171 222 280 341 407
#     4  11  22  41  63  92 127 175 222 277 335 408
#     4  11  25  41  65  96 135 173 221 279 344 404
#     4  12  24  45  69 102 136 179 229 282 339 409
#     4  12  21  42  72 105 130 179 238 279 327 409
#
# _framework density 20.303058
#
# number of rings (size 3 to 8) (size 9 to 14) (size 15 to 20)
#    0.000    0.857    2.143    6.857    3.000    1.714 
#    0.000    2.143    0.000    0.000    0.000    0.000 
#    0.000    0.000    0.000    0.000    0.000    0.000 
#
# Total GULP energy -156302.229264 kJ/mol
# GULP energy per Si atom -5582.222474 kJ/mol
# Density = 2.025685 g / cm^3
# Si number density = 20.303058 Si / 1000 Ang^3
#
#
#
# Elastic Constant Matrix: (Units=GPa)
#
#
# Indices 1 2 3 4 5 6 
#
# 1 40.2082 4.1856 41.8552 -3.7709 0.0000 0.0000
# 2 4.1856 40.2084 41.8548 3.7708 0.0000 0.0000
# 3 41.8552 41.8548 199.5952 0.0001 0.0000 0.0000
# 4 -3.7709 3.7708 0.0001 29.8895 0.0000 0.0000
# 5 0.0000 0.0000 0.0000 0.0000 29.8896 -3.7708
# 6 0.0000 0.0000 0.0000 0.0000 -3.7708 18.0114
#
#
#
# Elastic Compliance Matrix: (Units=1/GPa)
#
#
# Indices 1 2 3 4 5 6 
#
# 1 0.032886 0.004372 -0.007813 0.003597 0.000000 0.000000
# 2 0.004372 0.032885 -0.007813 -0.003597 0.000000 0.000000
# 3 -0.007813 -0.007813 0.008287 0.000000 0.000000 0.000000
# 4 0.003597 -0.003597 0.000000 0.034364 0.000000 0.000000
# 5 0.000000 0.000000 0.000000 0.000000 0.034364 0.007194
# 6 0.000000 0.000000 0.000000 0.000000 0.007194 0.057027
#
#
# Mechanical properties :
#
#
# Convention : Reuss Voigt Hill
#
# Bulk Modulus (GPa) = 19.39829 50.64477 35.02153
# Shear Modulus (GPa) = 20.87647 28.36584 24.62115
#
# Velocity S-wave (km/s) = 3.21010 3.74186 3.48614
# Velocity P-wave (km/s) = 4.82854 6.60812 5.78714
#
# Compressibility (1/GPa) = 0.05155093
#
# Stress axis : x y z
#
# Youngs Moduli (GPa) = 30.40817 30.40860 120.67249
#
# Poissons Ratio (x) = -0.13296 0.94282
# Poissons Ratio (y) = -0.13295 0.94280
# Poissons Ratio (z) = 0.23758 0.23758
#
# Static dielectric constant tensor:
#      x y z
#    x 1.745520 0.000000 0.000000 
#    y 0.000000 1.745520 0.000000 
#    z 0.000000 0.000000 1.790350 
# 
# From -- ./inp_files/2075.got.cif
#   From: 2010.05.17/outbox.cif.g08.bks.cpg/sg161_cif.got.tgz:2075.got - 2010.05.20 10:52:32.
