data_PCOD9577266
_publ_section_title
;
Structure prediction by ZEFSAII (Michael W. Deem and Ramdas Pophale) SiO2 
 PCOD9577266
Probable space group: P 3 1 M
;
_chemical_formula_sum "Si O2"
_cell_formula_units_Z 42
_cell_length_a 14.101260
_cell_length_b 14.101260
_cell_length_c 12.374363
_cell_angle_alpha 90.000000
_cell_angle_beta 90.000000
_cell_angle_gamma 120.000000
_cell_volume 2130.930689
_symmetry_space_group_name_H-M "P 3 1 M"
_symmetry_group_IT_number 157
_symmetry_cell_setting 'hexagonal'
loop_
_space_group_symop_operation_xyz
x,y,z
-y,x-y,z
-x+y,-x,z
y,x,z
x-y,-y,z
-x,-x+y,z
loop_
_atom_site_type_symbol
_atom_site_label
_atom_site_fract_x
_atom_site_fract_y
_atom_site_fract_z
Si Si1 0.131449 0.871668 0.524100
Si Si2 0.284803 0.806907 0.130206
Si Si3 0.886092 0.480977 0.998016
Si Si4 0.561785 0.431668 0.329184
Si Si5 0.410877 0.809077 0.763058
Si Si6 0.875594 0.666325 0.288655
Si Si7 0.528071 0.656552 0.550984
O O1 0.145405 0.862962 0.394903
O O2 0.214375 0.831232 0.570227
O O3 0.000000 0.795596 0.547661
O O4 0.178250 0.000000 0.553220
O O5 0.375444 0.884568 0.046862
O O6 0.211530 0.698560 0.058331
O O7 0.358066 0.805777 0.230767
O O8 0.206655 0.842409 0.189519
O O9 0.000000 0.586878 0.026990
O O10 0.876909 0.462367 0.870098
O O11 0.519960 0.519960 0.315628
O O12 0.450297 0.315450 0.323470
O O13 0.627546 0.457125 0.441564
O O14 0.279202 0.730340 0.769491
O O15 0.414638 0.861258 0.647789
O O16 0.000000 0.744283 0.254759
O O17 0.607551 0.607551 0.533437
#
# Coordination Sequence:
#
# PCOD9577266 Si02
#       7
#     6   6   6   6   6   6   6
#     4  10  21  38  59  85 120 162 210 259 310 368
#     4  12  20  34  55  83 119 150 200 245 296 367
#     4  12  24  40  60  83 116 164 211 257 307 367
#     4  10  21  34  52  86 121 157 193 235 306 375
#     4  10  22  40  59  83 115 150 207 249 304 370
#     4  10  21  33  52  82 119 156 197 243 300 368
#     4  10  21  37  57  84 119 155 197 250 305 367
#
# _framework density 19.709696999999998
#
# number of rings (size 3 to 8) (size 9 to 14) (size 15 to 20)
#    0.286    1.143    4.286    1.714    2.000    0.571 
#    0.000    0.714    0.000    0.000    0.000    0.000 
#    0.000    0.000    0.000    1.429    0.000    0.000 
#
# Total GULP energy -233803.433364 kJ/mol
# GULP energy per Si atom -5566.748413 kJ/mol
# Density = 1.966484 g / cm^3
# Si number density = 19.709697 Si / 1000 Ang^3
#
#
#
# Elastic Constant Matrix: (Units=GPa)
#
#
# Indices 1 2 3 4 5 6 
#
# 1 59.2837 17.6223 16.4521 0.0000 6.4892 0.0000
# 2 17.6223 59.2837 16.4521 0.0000 -6.4892 0.0000
# 3 16.4521 16.4521 96.0619 0.0000 0.0000 0.0000
# 4 0.0000 0.0000 0.0000 163.2629 0.0000 -6.4892
# 5 6.4892 -6.4892 0.0000 0.0000 163.2629 0.0000
# 6 0.0000 0.0000 0.0000 -6.4892 0.0000 20.8307
#
#
#
# Elastic Compliance Matrix: (Units=1/GPa)
#
#
# Indices 1 2 3 4 5 6 
#
# 1 0.019168 -0.005136 -0.002403 0.000000 -0.000966 0.000000
# 2 -0.005136 0.019168 -0.002403 0.000000 0.000966 0.000000
# 3 -0.002403 -0.002403 0.011233 0.000000 0.000000 0.000000
# 4 0.000000 0.000000 0.000000 0.006202 0.000000 0.001932
# 5 -0.000966 0.000966 0.000000 0.000000 0.006202 0.000000
# 6 0.000000 0.000000 0.000000 0.001932 0.000000 0.048608
#
#
# Mechanical properties :
#
#
# Convention : Reuss Voigt Hill
#
# Bulk Modulus (GPa) = 33.68934 35.07583 34.38259
# Shear Modulus (GPa) = 35.62286 80.41148 58.01717
#
# Velocity S-wave (km/s) = 4.25594 6.39425 5.43137
# Velocity P-wave (km/s) = 6.42499 8.50589 7.53760
#
# Compressibility (1/GPa) = 0.02968298
#
# Stress axis : x y z
#
# Youngs Moduli (GPa) = 52.17160 52.17160 89.02289
#
# Poissons Ratio (x) = 0.26798 0.21393
# Poissons Ratio (y) = 0.26798 0.21393
# Poissons Ratio (z) = 0.12537 0.12537
#
# Static dielectric constant tensor:
#      x y z
#    x 1.633080 0.000000 0.000000 
#    y 0.000000 1.633080 0.000000 
#    z 0.000000 0.000000 1.715090 
# 
# From -- ./inp_files/595.got.cif
#   From: 2010.05.17/outbox.cif.g08.bks.cpg/sg157_cif.got.tgz:595.got - 2010.05.20 10:49:36.
