data_PCOD9577146
_publ_section_title
;
Structure prediction by ZEFSAII (Michael W. Deem and Ramdas Pophale) SiO2 
 PCOD9577146
Probable space group: R 3 2
;
_chemical_formula_sum "Si O2"
_cell_formula_units_Z 60
_cell_length_a 11.365288
_cell_length_b 11.365288
_cell_length_c 23.627920
_cell_angle_alpha 90.000000
_cell_angle_beta 90.000000
_cell_angle_gamma 120.000000
_cell_volume 2643.120811
_symmetry_space_group_name_H-M "R 3 2"
_symmetry_group_IT_number 155
_symmetry_cell_setting 'hexagonal'
loop_
_space_group_symop_operation_xyz
x,y,z
-y,x-y,z
-x+y,-x,z
x-y,-y,-z
-x,-x+y,-z
y,x,-z
2/3+x,1/3+y,1/3+z
2/3-y,1/3+x-y,1/3+z
2/3-x+y,1/3-x,1/3+z
2/3+x-y,1/3-y,1/3-z
2/3-x,1/3-x+y,1/3-z
2/3+y,1/3+x,1/3-z
1/3+x,2/3+y,2/3+z
1/3-y,2/3+x-y,2/3+z
1/3-x+y,2/3-x,2/3+z
1/3+x-y,2/3-y,2/3-z
1/3-x,2/3-x+y,2/3-z
1/3+y,2/3+x,2/3-z
loop_
_atom_site_type_symbol
_atom_site_label
_atom_site_fract_x
_atom_site_fract_y
_atom_site_fract_z
Si Si1 0.604838 0.656204 0.892854
Si Si2 0.333334 0.666668 0.100106
Si Si3 0.184010 0.811667 0.050297
Si Si4 0.570248 0.926184 0.409073
O O1 0.666667 0.643831 0.833334
O O2 0.727322 0.699136 0.938150
O O3 0.466002 0.524684 0.913745
O O4 0.572098 0.777926 0.886956
O O5 0.333334 0.666668 0.166667
O O6 0.282007 0.763680 0.076818
O O7 0.040804 0.736931 0.083121
O O8 0.148221 0.744808 0.988011
#
# Coordination Sequence:
#
# PCOD9577146 Si02
#       4
#    18   6  18  18
#     4  12  27  45  76 105 153 192 244 304 374 432
#     4  12  21  36  72 102 141 174 243 318 358 407
#     4  11  24  44  73 102 140 189 249 301 361 437
#     4  11  26  46  72 104 143 196 244 301 363 447
#
# _framework density 22.700437000000001
#
# number of rings (size 3 to 8) (size 9 to 14) (size 15 to 20)
#    0.000    0.600    3.000    4.200    8.400    0.000 
#    1.800    0.000    0.000    0.000    0.000    0.000 
#    0.000    0.000    0.000    0.000    0.000    0.000 
#
# Total GULP energy -111752.403593 kJ/mol
# GULP energy per Si atom -5587.620180 kJ/mol
# Density = 2.264877 g / cm^3
# Si number density = 22.700437 Si / 1000 Ang^3
#
#
#
# Elastic Constant Matrix: (Units=GPa)
#
#
# Indices 1 2 3 4 5 6 
#
# 1 136.8553 41.6974 24.0564 -4.8552 0.0043 0.0004
# 2 41.6974 136.8544 24.0609 4.8552 -0.0043 -0.0005
# 3 24.0564 24.0609 73.9362 -0.0007 0.0001 0.0004
# 4 -4.8552 4.8552 -0.0007 30.4000 0.0000 -0.0041
# 5 0.0043 -0.0043 0.0001 0.0000 30.4025 -4.8483
# 6 0.0004 -0.0005 0.0004 -0.0041 -4.8483 47.6004
#
#
#
# Elastic Compliance Matrix: (Units=1/GPa)
#
#
# Indices 1 2 3 4 5 6 
#
# 1 0.008411 -0.002272 -0.001997 0.001706 -0.000002 0.000000
# 2 -0.002272 0.008411 -0.001998 -0.001706 0.000002 0.000000
# 3 -0.001997 -0.001998 0.014825 0.000000 0.000000 0.000000
# 4 0.001706 -0.001706 0.000000 0.033440 0.000000 0.000003
# 5 -0.000002 0.000002 0.000000 0.000000 0.033435 0.003405
# 6 0.000000 0.000000 0.000000 0.000003 0.003405 0.021355
#
#
# Mechanical properties :
#
#
# Convention : Reuss Voigt Hill
#
# Bulk Modulus (GPa) = 52.32127 58.58614 55.45371
# Shear Modulus (GPa) = 36.02762 38.86933 37.44848
#
# Velocity S-wave (km/s) = 3.98815 4.14245 4.06603
# Velocity P-wave (km/s) = 6.65626 6.98171 6.82092
#
# Compressibility (1/GPa) = 0.01911269
#
# Stress axis : x y z
#
# Youngs Moduli (GPa) = 118.89423 118.89060 67.45269
#
# Poissons Ratio (x) = 0.27012 0.13472
# Poissons Ratio (y) = 0.27013 0.13477
# Poissons Ratio (z) = 0.23746 0.23754
#
# Static dielectric constant tensor:
#      x y z
#    x 1.613780 0.000010 -0.000060 
#    y 0.000010 1.612710 0.000110 
#    z -0.000060 0.000110 2.088630 
# 
# From -- ./inp_files/7760.got.cif
#   From: 2010.05.17/outbox.cif.g08.bks.cpg/sg155_4_cif.got.tgz:7760.got - 2010.05.20 10:44:35.
