data_PCOD9577612
_publ_section_title
;
Structure prediction by ZEFSAII (Michael W. Deem and Ramdas Pophale) SiO2 
 PCOD9577612
Probable space group: R 3 C
;
_chemical_formula_sum "Si O2"
_cell_formula_units_Z 108
_cell_length_a 14.967070
_cell_length_b 14.967070
_cell_length_c 20.728151
_cell_angle_alpha 90.000000
_cell_angle_beta 90.000000
_cell_angle_gamma 120.000000
_cell_volume 4021.284270
_symmetry_space_group_name_H-M "R 3 C"
_symmetry_group_IT_number 161
_symmetry_cell_setting 'hexagonal'
loop_
_space_group_symop_operation_xyz
x,y,z
-y,x-y,z
-x+y,-x,z
-x+y,y,1/2+z
x,x-y,1/2+z
-y,-x,1/2+z
2/3+x,1/3+y,1/3+z
2/3-y,1/3+x-y,1/3+z
2/3-x+y,1/3-x,1/3+z
2/3-x+y,1/3+y,5/6+z
2/3+x,1/3+x-y,5/6+z
2/3-y,1/3-x,5/6+z
1/3+x,2/3+y,2/3+z
1/3-y,2/3+x-y,2/3+z
1/3-x+y,2/3-x,2/3+z
1/3-x+y,2/3+y,1/6+z
1/3+x,2/3+x-y,1/6+z
1/3-y,2/3-x,1/6+z
loop_
_atom_site_type_symbol
_atom_site_label
_atom_site_fract_x
_atom_site_fract_y
_atom_site_fract_z
Si Si1 0.693764 0.632682 0.580381
Si Si2 0.691767 0.515382 0.387712
Si Si3 0.821789 0.969477 0.273614
Si Si4 0.298992 0.488926 0.803667
Si Si5 0.469646 0.194497 0.246648
Si Si6 0.318354 0.375359 0.605672
O O1 0.737432 0.557390 0.597581
O O2 0.742435 0.724595 0.632674
O O3 0.572778 0.593205 0.575169
O O4 0.743145 0.685116 0.511798
O O5 0.760267 0.474424 0.421653
O O6 0.597806 0.476433 0.437627
O O7 0.666738 0.483388 0.313879
O O8 0.750170 0.639138 0.392533
O O9 0.861428 0.992864 0.347023
O O10 0.885984 0.022228 0.209041
O O11 0.735972 0.004821 0.271095
O O12 0.452127 0.290787 0.255408
#
# Coordination Sequence:
#
# PCOD9577612 Si02
#       6
#    18  18  18  18  18  18
#     4  11  23  44  73 107 144 195 258 320 387 462
#     4  12  25  46  73 108 150 200 255 314 387 466
#     4  11  23  42  72 103 144 193 253 314 382 455
#     4  12  25  45  73 105 145 202 254 311 385 461
#     4  11  25  44  71 112 147 194 259 325 385 467
#     4  11  23  43  72 107 144 194 253 316 384 467
#
# _framework density 26.857092999999999
#
# number of rings (size 3 to 8) (size 9 to 14) (size 15 to 20)
#    0.000    0.667    5.000    3.333    2.333    0.000 
#    0.000    1.667    0.000    0.667    0.000    0.000 
#    0.000    0.000    0.000    0.000    0.000    0.000 
#
# Total GULP energy -201808.411949 kJ/mol
# GULP energy per Si atom -5605.789221 kJ/mol
# Density = 2.679597 g / cm^3
# Si number density = 26.857093 Si / 1000 Ang^3
#
#
#
# Elastic Constant Matrix: (Units=GPa)
#
#
# Indices 1 2 3 4 5 6 
#
# 1 77.5762 17.2049 32.7458 -7.0762 0.0000 0.0000
# 2 17.2049 77.5762 32.7458 7.0762 0.0000 0.0000
# 3 32.7458 32.7458 291.0501 0.0000 0.0000 0.0000
# 4 -7.0762 7.0762 0.0000 27.8026 0.0000 0.0000
# 5 0.0000 0.0000 0.0000 0.0000 27.8026 -7.0762
# 6 0.0000 0.0000 0.0000 0.0000 -7.0762 30.1856
#
#
#
# Elastic Compliance Matrix: (Units=1/GPa)
#
#
# Indices 1 2 3 4 5 6 
#
# 1 0.014528 -0.003088 -0.001287 0.004483 0.000000 0.000000
# 2 -0.003088 0.014528 -0.001287 -0.004483 0.000000 0.000000
# 3 -0.001287 -0.001287 0.003725 0.000000 0.000000 0.000000
# 4 0.004483 -0.004483 0.000000 0.038250 0.000000 0.000000
# 5 0.000000 0.000000 0.000000 0.000000 0.038250 0.008967
# 6 0.000000 0.000000 0.000000 0.000000 0.008967 0.035230
#
#
# Mechanical properties :
#
#
# Convention : Reuss Voigt Hill
#
# Bulk Modulus (GPa) = 46.60481 67.95506 57.27994
# Shear Modulus (GPa) = 30.67732 41.39189 36.03461
#
# Velocity S-wave (km/s) = 3.38337 3.93006 3.66692
# Velocity P-wave (km/s) = 5.71433 6.77873 6.26916
#
# Compressibility (1/GPa) = 0.02145701
#
# Stress axis : x y z
#
# Youngs Moduli (GPa) = 68.83464 68.83464 268.42343
#
# Poissons Ratio (x) = 0.21253 0.34549
# Poissons Ratio (y) = 0.21253 0.34549
# Poissons Ratio (z) = 0.08860 0.08860
#
# Static dielectric constant tensor:
#      x y z
#    x 2.104640 0.000000 0.000000 
#    y 0.000000 2.104640 0.000000 
#    z 0.000000 0.000000 2.101590 
# 
# From -- ./inp_files/1683.got.cif
#   From: 2010.05.17/outbox.cif.g08.bks.cpg/sg161_cif.got.tgz:1683.got - 2010.05.20 10:52:32.
