data_PCOD9577218
_publ_section_title
;
Structure prediction by ZEFSAII (Michael W. Deem and Ramdas Pophale) SiO2 
 PCOD9577218
Probable space group: P 3 M 1
;
_chemical_formula_sum "Si O2"
_cell_formula_units_Z 48
_cell_length_a 12.838696
_cell_length_b 12.838696
_cell_length_c 21.394926
_cell_angle_alpha 90.000000
_cell_angle_beta 90.000000
_cell_angle_gamma 120.000000
_cell_volume 3054.099990
_symmetry_space_group_name_H-M "P 3 M 1"
_symmetry_group_IT_number 156
_symmetry_cell_setting 'hexagonal'
loop_
_space_group_symop_operation_xyz
x,y,z
-y,x-y,z
-x+y,-x,z
-x+y,y,z
x,x-y,z
-y,-x,z
loop_
_atom_site_type_symbol
_atom_site_label
_atom_site_fract_x
_atom_site_fract_y
_atom_site_fract_z
Si Si1 0.666270 0.085065 0.726430
Si Si2 0.999793 0.247505 0.218657
Si Si3 0.332679 0.418886 0.476400
Si Si4 0.248128 0.000059 0.981343
Si Si5 0.916490 0.333562 0.863910
Si Si6 0.914079 0.332784 0.100055
Si Si7 0.580267 0.666555 0.335120
Si Si8 0.666989 0.582500 0.590335
O O1 0.552723 0.105445 0.727759
O O2 0.787312 0.212689 0.724747
O O3 0.664859 0.031372 0.794474
O O4 0.660907 0.026832 0.658971
O O5 0.121922 0.243843 0.207604
O O6 0.016779 0.320773 0.282430
O O7 0.973740 0.313220 0.161822
O O8 0.886294 0.113707 0.222766
O O9 0.211134 0.422268 0.484084
O O10 0.446778 0.553223 0.480536
O O11 0.334845 0.375864 0.405732
O O12 0.346633 0.343468 0.531715
O O13 0.126259 0.873742 0.985215
O O14 0.220614 0.110307 0.981841
O O15 0.322560 0.013648 0.918360
O O16 0.335253 0.022516 0.040032
O O17 0.916276 0.458138 0.873193
O O18 0.779176 0.220825 0.865512
O O19 0.921382 0.460691 0.099227
O O20 0.775448 0.224553 0.098792
O O21 0.550447 0.775224 0.333445
O O22 0.459821 0.540179 0.323582
O O23 0.788633 0.577265 0.586945
O O24 0.551801 0.448199 0.587120
#
# Coordination Sequence:
#
# PCOD9577218 Si02
#       8
#     6   6   6   6   6   6   6   6
#     4   8  13  22  38  62  89 115 143 177 222 272
#     4  10  20  33  50  71  96 125 154 183 215 258
#     4   9  17  29  45  64  86 115 152 192 230 267
#     4  10  20  33  49  68  92 123 156 187 218 258
#     4   9  16  27  46  70  93 115 143 184 231 275
#     4  10  20  34  53  75  97 119 145 182 226 267
#     4   9  17  30  48  68  89 115 150 192 234 271
#     4   9  16  26  42  64  90 117 145 181 226 276
#
# _framework density 15.716576999999999
#
# number of rings (size 3 to 8) (size 9 to 14) (size 15 to 20)
#    0.000    2.750    0.000    2.125    0.000    3.500 
#    0.000    3.125    0.000    5.750    0.000    0.000 
#    0.000    0.000    0.000    0.000    0.000    0.000 
#
# Total GULP energy -267256.378972 kJ/mol
# GULP energy per Si atom -5567.841229 kJ/mol
# Density = 1.568081 g / cm^3
# Si number density = 15.716577 Si / 1000 Ang^3
#
#
#
# Elastic Constant Matrix: (Units=GPa)
#
#
# Indices 1 2 3 4 5 6 
#
# 1 72.6637 53.0605 70.7018 1.8072 0.0001 0.0000
# 2 53.0605 72.6637 70.7018 -1.8072 -0.0001 0.0000
# 3 70.7018 70.7018 166.9533 0.0000 0.0000 0.0000
# 4 1.8072 -1.8072 0.0000 21.5173 0.0000 -0.0001
# 5 0.0001 -0.0001 0.0000 0.0000 21.5173 1.8072
# 6 0.0000 0.0000 0.0000 -0.0001 1.8072 9.8016
#
#
#
# Elastic Compliance Matrix: (Units=1/GPa)
#
#
# Indices 1 2 3 4 5 6 
#
# 1 0.033501 -0.018313 -0.006432 -0.004352 0.000000 0.000000
# 2 -0.018313 0.033501 -0.006432 0.004352 0.000000 0.000000
# 3 -0.006432 -0.006432 0.011437 0.000000 0.000000 0.000000
# 4 -0.004352 0.004352 0.000000 0.047205 0.000000 0.000001
# 5 0.000000 0.000000 0.000000 0.000000 0.047205 -0.008704
# 6 0.000000 0.000000 0.000000 0.000001 -0.008704 0.103629
#
#
# Mechanical properties :
#
#
# Convention : Reuss Voigt Hill
#
# Bulk Modulus (GPa) = 62.16697 77.91210 70.03954
# Shear Modulus (GPa) = 14.52669 18.42170 16.47420
#
# Velocity S-wave (km/s) = 3.04351 3.42734 3.24111
# Velocity P-wave (km/s) = 7.21052 8.08350 7.65946
#
# Compressibility (1/GPa) = 0.01608571
#
# Stress axis : x y z
#
# Youngs Moduli (GPa) = 29.84977 29.84977 87.43415
#
# Poissons Ratio (x) = 0.54665 0.56236
# Poissons Ratio (y) = 0.54665 0.56236
# Poissons Ratio (z) = 0.19199 0.19199
#
# Static dielectric constant tensor:
#      x y z
#    x 1.491680 0.000000 0.000000 
#    y 0.000000 1.491680 0.000000 
#    z 0.000000 0.000000 1.566500 
# 
# From -- ./inp_files/1113.got.cif
#   From: 2010.05.17/outbox.cif.g08.bks.cpg/sg156_cif.got.tgz:1113.got - 2010.05.20 10:49:08.
