data_PCOD9577957
_publ_section_title
;
Structure prediction by ZEFSAII (Michael W. Deem and Ramdas Pophale) SiO2 
 PCOD9577957
Probable space group: P -3 1 M 
;
_chemical_formula_sum "Si O2"
_cell_formula_units_Z 28
_cell_length_a 12.666137
_cell_length_b 12.666137
_cell_length_c 9.132255
_cell_angle_alpha 90.000000
_cell_angle_beta 90.000000
_cell_angle_gamma 120.000000
_cell_volume 1268.811259
_symmetry_space_group_name_H-M "P -3 1 M "
_symmetry_group_IT_number 162
_symmetry_cell_setting 'hexagonal'
loop_
_space_group_symop_operation_xyz
x,y,z
-y,x-y,z
-x+y,-x,z
-y,-x,-z
-x+y,y,-z
x,x-y,-z
-x,-y,-z
y,-x+y,-z
x-y,x,-z
y,x,z
x-y,-y,z
-x,-x+y,z
loop_
_atom_site_type_symbol
_atom_site_label
_atom_site_fract_x
_atom_site_fract_y
_atom_site_fract_z
Si Si1 0.677399 0.144591 0.625877
Si Si2 0.666667 0.333334 0.821691
Si Si3 0.861543 0.722728 0.844778
O O1 0.751994 0.248007 0.500000
O O2 0.624110 0.201371 0.745351
O O3 0.783416 0.140107 0.713136
O O4 0.584877 0.000000 0.587701
O O5 0.666668 0.333334 0.000000
O O6 0.772871 0.772871 0.813362
O O7 0.000000 0.830776 0.867472
O O8 0.826381 0.652762 0.000000
#
# Coordination Sequence:
#
# PCOD9577957 Si02
#       3
#    12   4  12
#     4  11  24  42  66  95 128 166 207 256 315 376
#     4  12  28  47  67  93 124 164 217 267 310 365
#     4   9  17  31  54  86 124 166 211 258 309 367
#
# _framework density 22.067898
#
# number of rings (size 3 to 8) (size 9 to 14) (size 15 to 20)
#    0.000    1.714    0.000    4.286    0.000    7.714 
#    0.000    0.000    0.000    6.857    0.000    0.000 
#    0.000    0.000    0.000    0.000    0.000    0.000 
#
# Total GULP energy -155889.266881 kJ/mol
# GULP energy per Si atom -5567.473817 kJ/mol
# Density = 2.201767 g / cm^3
# Si number density = 22.067898 Si / 1000 Ang^3
#
#
#
# Elastic Constant Matrix: (Units=GPa)
#
#
# Indices 1 2 3 4 5 6 
#
# 1 74.5774 51.2083 60.9488 -0.0005 19.7550 0.0006
# 2 51.2083 74.5784 60.9489 -0.0005 -19.7564 -0.0003
# 3 60.9488 60.9489 158.6418 0.0006 -0.0001 -0.0005
# 4 -0.0005 -0.0005 0.0006 64.4610 0.0006 -19.7548
# 5 19.7550 -19.7564 -0.0001 0.0006 64.4613 0.0012
# 6 0.0006 -0.0003 -0.0005 -19.7548 0.0012 11.6836
#
#
#
# Elastic Compliance Matrix: (Units=1/GPa)
#
#
# Indices 1 2 3 4 5 6 
#
# 1 0.050736 -0.038071 -0.004866 0.000000 -0.027217 -0.000001
# 2 -0.038071 0.050736 -0.004866 0.000000 0.027217 0.000000
# 3 -0.004866 -0.004866 0.010042 0.000000 0.000000 0.000001
# 4 0.000000 0.000000 0.000000 0.032197 -0.000001 0.054438
# 5 -0.027217 0.027217 0.000000 -0.000001 0.032196 -0.000004
# 6 -0.000001 0.000000 0.000001 0.054438 -0.000004 0.177635
#
#
# Mechanical properties :
#
#
# Convention : Reuss Voigt Hill
#
# Bulk Modulus (GPa) = 62.85517 72.66773 67.76145
# Shear Modulus (GPa) = 11.00231 37.10062 24.05146
#
# Velocity S-wave (km/s) = 2.23528 4.10470 3.30492
# Velocity P-wave (km/s) = 5.93350 7.44751 6.73319
#
# Compressibility (1/GPa) = 0.01590959
#
# Stress axis : x y z
#
# Youngs Moduli (GPa) = 19.70979 19.70980 99.57708
#
# Poissons Ratio (x) = 0.75036 0.48454
# Poissons Ratio (y) = 0.75036 0.48455
# Poissons Ratio (z) = 0.09591 0.09591
#
# Static dielectric constant tensor:
#      x y z
#    x 1.827870 0.000000 0.000000 
#    y 0.000000 1.827870 0.000000 
#    z 0.000000 0.000000 1.876430 
# 
# From -- ./inp_files/925.got.cif
#   From: 2010.05.17/outbox.cif.g08.bks.cpg/sg162_1_cif.got.tgz:925.got - 2010.05.20 10:53:12.
