data_PCOD9577003
_publ_section_title
;
Structure prediction by ZEFSAII (Michael W. Deem and Ramdas Pophale) SiO2 
 PCOD9577003
Probable space group: R 3 2
;
_chemical_formula_sum "Si O2"
_cell_formula_units_Z 72
_cell_length_a 14.109856
_cell_length_b 14.109856
_cell_length_c 18.294394
_cell_angle_alpha 90.000000
_cell_angle_beta 90.000000
_cell_angle_gamma 120.000000
_cell_volume 3154.233376
_symmetry_space_group_name_H-M "R 3 2"
_symmetry_group_IT_number 155
_symmetry_cell_setting 'hexagonal'
loop_
_space_group_symop_operation_xyz
x,y,z
-y,x-y,z
-x+y,-x,z
x-y,-y,-z
-x,-x+y,-z
y,x,-z
2/3+x,1/3+y,1/3+z
2/3-y,1/3+x-y,1/3+z
2/3-x+y,1/3-x,1/3+z
2/3+x-y,1/3-y,1/3-z
2/3-x,1/3-x+y,1/3-z
2/3+y,1/3+x,1/3-z
1/3+x,2/3+y,2/3+z
1/3-y,2/3+x-y,2/3+z
1/3-x+y,2/3-x,2/3+z
1/3+x-y,2/3-y,2/3-z
1/3-x,2/3-x+y,2/3-z
1/3+y,2/3+x,2/3-z
loop_
_atom_site_type_symbol
_atom_site_label
_atom_site_fract_x
_atom_site_fract_y
_atom_site_fract_z
Si Si1 0.612188 0.523252 0.559126
Si Si2 0.762449 0.973735 0.577015
Si Si3 0.162514 0.703923 0.405455
Si Si4 0.747738 0.871858 0.014555
O O1 0.597963 0.597963 0.500000
O O2 0.547469 0.392527 0.543109
O O3 0.733487 0.554546 0.579598
O O4 0.541675 0.530251 0.625059
O O5 0.661837 0.848413 0.581102
O O6 0.824564 0.000000 0.500000
O O7 0.711388 0.054165 0.580510
O O8 0.830780 0.005612 0.652985
O O9 0.839658 0.839658 0.000000
O O10 0.802061 0.000000 0.000000
#
# Coordination Sequence:
#
# PCOD9577003 Si02
#       4
#    18  18  18  18
#     4  11  24  41  71 104 143 198 251 313 395 465
#     4  10  21  43  68  90 140 196 232 314 390 439
#     4  10  22  43  66 102 143 187 251 310 376 479
#     4  11  24  42  64 105 147 186 249 309 382 464
#
# _framework density 22.826466
#
# number of rings (size 3 to 8) (size 9 to 14) (size 15 to 20)
#    0.000    1.500    5.000    1.500    7.000    0.000 
#    0.000    5.000    0.000    0.000    0.000    0.000 
#    0.000    0.000    0.000    0.000    0.000    0.000 
#
# Total GULP energy -133798.597602 kJ/mol
# GULP energy per Si atom -5574.941567 kJ/mol
# Density = 2.277451 g / cm^3
# Si number density = 22.826466 Si / 1000 Ang^3
#
#
#
# Elastic Constant Matrix: (Units=GPa)
#
#
# Indices 1 2 3 4 5 6 
#
# 1 99.1174 58.9768 28.0678 15.4217 0.0000 0.0000
# 2 58.9768 99.1174 28.0678 -15.4217 0.0000 0.0000
# 3 28.0678 28.0678 94.1483 0.0000 0.0000 0.0000
# 4 15.4217 -15.4217 0.0000 15.5612 0.0000 0.0000
# 5 0.0000 0.0000 0.0000 0.0000 15.5612 15.4217
# 6 0.0000 0.0000 0.0000 0.0000 15.4217 20.0703
#
#
#
# Elastic Compliance Matrix: (Units=1/GPa)
#
#
# Indices 1 2 3 4 5 6 
#
# 1 0.055762 -0.048688 -0.002109 -0.103513 0.000000 0.000000
# 2 -0.048688 0.055762 -0.002109 0.103513 0.000000 0.000000
# 3 -0.002109 -0.002109 0.011879 0.000000 0.000000 0.000000
# 4 -0.103513 0.103513 0.000000 0.269432 0.000000 0.000000
# 5 0.000000 0.000000 0.000000 0.000000 0.269432 -0.207027
# 6 0.000000 0.000000 0.000000 0.000000 -0.207027 0.208901
#
#
# Mechanical properties :
#
#
# Convention : Reuss Voigt Hill
#
# Bulk Modulus (GPa) = 56.84574 58.06756 57.45665
# Shear Modulus (GPa) = 5.08727 22.05661 13.57194
#
# Velocity S-wave (km/s) = 1.49449 3.11187 2.44103
# Velocity P-wave (km/s) = 5.28541 6.19722 5.75939
#
# Compressibility (1/GPa) = 0.01759147
#
# Stress axis : x y z
#
# Youngs Moduli (GPa) = 17.93329 17.93329 84.18207
#
# Poissons Ratio (x) = 0.87314 0.17754
# Poissons Ratio (y) = 0.87314 0.17754
# Poissons Ratio (z) = 0.03782 0.03782
#
# Static dielectric constant tensor:
#      x y z
#    x 1.910390 0.000000 0.000000 
#    y 0.000000 1.910390 0.000000 
#    z 0.000000 0.000000 1.997020 
# 
# From -- ./inp_files/5868.got.cif
#   From: 2010.05.17/outbox.cif.g08.bks.cpg/sg155_3_cif.got.tgz:5868.got - 2010.05.20 10:44:35.
