data_PCOD9577943
_publ_section_title
;
Structure prediction by ZEFSAII (Michael W. Deem and Ramdas Pophale) SiO2 
 PCOD9577943
Probable space group: P -3 1 M 
;
_chemical_formula_sum "Si O2"
_cell_formula_units_Z 46
_cell_length_a 15.865692
_cell_length_b 15.865692
_cell_length_c 10.483503
_cell_angle_alpha 90.000000
_cell_angle_beta 90.000000
_cell_angle_gamma 120.000000
_cell_volume 2285.362483
_symmetry_space_group_name_H-M "P -3 1 M "
_symmetry_group_IT_number 162
_symmetry_cell_setting 'hexagonal'
loop_
_space_group_symop_operation_xyz
x,y,z
-y,x-y,z
-x+y,-x,z
-y,-x,-z
-x+y,y,-z
x,x-y,-z
-x,-y,-z
y,-x+y,-z
x-y,x,-z
y,x,z
x-y,-y,z
-x,-x+y,z
loop_
_atom_site_type_symbol
_atom_site_label
_atom_site_fract_x
_atom_site_fract_y
_atom_site_fract_z
Si Si1 0.467260 0.000000 0.856848
Si Si2 0.333335 0.666668 0.652933
Si Si3 0.482855 0.333538 0.737392
Si Si4 0.398607 0.000000 0.478591
Si Si5 0.707994 0.000000 0.261982
Si Si6 0.886374 0.707956 0.856624
O O1 0.462561 0.907142 0.786987
O O2 0.367088 0.000000 0.843412
O O3 0.500000 0.000000 0.000000
O O4 0.333334 0.666667 0.500000
O O5 0.301188 0.560035 0.704504
O O6 0.426989 0.333424 0.608996
O O7 0.402054 0.266828 0.839136
O O8 0.500000 0.000000 0.500000
O O9 0.343685 0.000000 0.605940
O O10 0.717739 0.905514 0.238232
O O11 0.000000 0.779500 0.829163
O O12 0.862259 0.724518 0.000000
#
# Coordination Sequence:
#
# PCOD9577943 Si02
#       6
#     6   4  12   6   6  12
#     4  11  21  42  68 104 137 185 233 296 360 425
#     4  12  27  39  64 104 145 189 228 274 332 418
#     4  11  24  43  66 103 148 180 238 283 343 430
#     4  11  22  44  68 106 139 188 236 282 354 421
#     4  12  25  41  77  99 141 194 231 297 372 424
#     4  12  25  49  71 105 138 182 242 298 365 429
#
# _framework density 20.128097
#
# number of rings (size 3 to 8) (size 9 to 14) (size 15 to 20)
#    0.000    0.522    6.522    3.913    3.652    0.000 
#    0.783    1.957    0.000    0.000    0.000    1.826 
#    0.000    0.000    0.000    0.000    0.000    0.000 
#
# Total GULP energy -257313.879112 kJ/mol
# GULP energy per Si atom -5593.779981 kJ/mol
# Density = 2.008228 g / cm^3
# Si number density = 20.128097 Si / 1000 Ang^3
#
#
#
# Elastic Constant Matrix: (Units=GPa)
#
#
# Indices 1 2 3 4 5 6 
#
# 1 115.5918 57.5564 30.6264 0.0001 -4.7850 0.0000
# 2 57.5564 115.5922 30.6266 0.0001 4.7851 0.0003
# 3 30.6264 30.6266 104.5459 0.0000 0.0000 0.0001
# 4 0.0001 0.0001 0.0000 26.6930 0.0001 4.7851
# 5 -4.7850 4.7851 0.0000 0.0001 26.6930 -0.0001
# 6 0.0000 0.0003 0.0001 4.7851 -0.0001 29.0178
#
#
#
# Elastic Compliance Matrix: (Units=1/GPa)
#
#
# Indices 1 2 3 4 5 6 
#
# 1 0.012099 -0.005656 -0.001887 0.000000 0.003183 0.000000
# 2 -0.005656 0.012099 -0.001887 0.000000 -0.003183 0.000000
# 3 -0.001887 -0.001887 0.010671 0.000000 0.000000 0.000000
# 4 0.000000 0.000000 0.000000 0.038604 0.000000 -0.006366
# 5 0.003183 -0.003183 0.000000 0.000000 0.038604 0.000000
# 6 0.000000 0.000000 0.000000 -0.006366 0.000000 0.035511
#
#
# Mechanical properties :
#
#
# Convention : Reuss Voigt Hill
#
# Bulk Modulus (GPa) = 62.47154 63.70543 63.08848
# Shear Modulus (GPa) = 29.10566 30.94212 30.02389
#
# Velocity S-wave (km/s) = 3.80678 3.92504 3.86637
# Velocity P-wave (km/s) = 7.10116 7.22911 7.16542
#
# Compressibility (1/GPa) = 0.01600729
#
# Stress axis : x y z
#
# Youngs Moduli (GPa) = 82.64867 82.64891 93.71149
#
# Poissons Ratio (x) = 0.46749 0.17688
# Poissons Ratio (y) = 0.46748 0.17688
# Poissons Ratio (z) = 0.15600 0.15600
#
# Static dielectric constant tensor:
#      x y z
#    x 1.725070 0.000000 0.000000 
#    y 0.000000 1.725060 0.000000 
#    z 0.000000 0.000000 1.731050 
# 
# From -- ./inp_files/2118.got.cif
#   From: 2010.05.17/outbox.cif.g08.bks.cpg/sg162_2_cif.got.tgz:2118.got - 2010.05.20 10:53:12.
