data_PCOD9577554
_publ_section_title
;
Structure prediction by ZEFSAII (Michael W. Deem and Ramdas Pophale) SiO2 
 PCOD9577554
Probable space group: R 3 C
;
_chemical_formula_sum "Si O2"
_cell_formula_units_Z 144
_cell_length_a 18.185002
_cell_length_b 18.185002
_cell_length_c 19.924530
_cell_angle_alpha 90.000000
_cell_angle_beta 90.000000
_cell_angle_gamma 120.000000
_cell_volume 5706.179427
_symmetry_space_group_name_H-M "R 3 C"
_symmetry_group_IT_number 161
_symmetry_cell_setting 'hexagonal'
loop_
_space_group_symop_operation_xyz
x,y,z
-y,x-y,z
-x+y,-x,z
-x+y,y,1/2+z
x,x-y,1/2+z
-y,-x,1/2+z
2/3+x,1/3+y,1/3+z
2/3-y,1/3+x-y,1/3+z
2/3-x+y,1/3-x,1/3+z
2/3-x+y,1/3+y,5/6+z
2/3+x,1/3+x-y,5/6+z
2/3-y,1/3-x,5/6+z
1/3+x,2/3+y,2/3+z
1/3-y,2/3+x-y,2/3+z
1/3-x+y,2/3-x,2/3+z
1/3-x+y,2/3+y,1/6+z
1/3+x,2/3+x-y,1/6+z
1/3-y,2/3-x,1/6+z
loop_
_atom_site_type_symbol
_atom_site_label
_atom_site_fract_x
_atom_site_fract_y
_atom_site_fract_z
Si Si1 0.057139 0.150359 0.814836
Si Si2 0.925872 0.204829 0.837277
Si Si3 0.684122 0.650284 0.047545
Si Si4 0.637606 0.086453 0.120812
Si Si5 0.025828 0.784306 0.653359
Si Si6 0.833639 0.863350 0.673105
Si Si7 0.086454 0.094251 0.953401
Si Si8 0.113859 0.430971 0.210751
O O1 0.153734 0.207245 0.791109
O O2 0.005523 0.112903 0.743560
O O3 0.076548 0.100567 0.873176
O O4 0.009026 0.195470 0.848659
O O5 0.849269 0.109972 0.828899
O O6 0.904560 0.261334 0.885910
O O7 0.944681 0.256704 0.767476
O O8 0.744052 0.737494 0.083693
O O9 0.642615 0.667429 0.984327
O O10 0.725747 0.593782 0.033540
O O11 0.617700 0.076358 0.042044
O O12 0.059084 0.883604 0.645645
O O13 0.089962 0.752414 0.683395
O O14 0.837814 0.807786 0.611201
O O15 0.167495 0.170853 0.985185
O O16 0.082824 0.006855 0.975049
#
# Coordination Sequence:
#
# PCOD9577554 Si02
#       8
#    18  18  18  18  18  18  18  18
#     4  10  21  41  65  95 134 176 230 281 341 421
#     4  10  23  37  67  95 130 179 229 277 354 406
#     4  10  21  40  59  92 129 170 222 283 339 417
#     4  11  21  40  63  92 132 171 222 285 340 405
#     4  10  22  38  62  92 131 175 219 279 348 404
#     4  10  22  41  62  97 134 175 225 283 354 405
#     4  10  24  45  69  97 138 187 235 281 351 414
#     4  11  22  44  65 100 142 171 238 291 345 424
#
# _framework density 25.235800000000001
#
# number of rings (size 3 to 8) (size 9 to 14) (size 15 to 20)
#    0.250    1.500    1.250    3.000    0.000    8.000 
#    7.500    3.750    0.000    0.000    0.000    0.000 
#    0.000    0.000    0.000    0.000    0.000    0.000 
#
# Total GULP energy -267619.934974 kJ/mol
# GULP energy per Si atom -5575.415312 kJ/mol
# Density = 2.517836 g / cm^3
# Si number density = 25.235800 Si / 1000 Ang^3
#
#
#
# Elastic Constant Matrix: (Units=GPa)
#
#
# Indices 1 2 3 4 5 6 
#
# 1 65.5873 21.5941 4.7693 -0.6255 0.0000 0.0000
# 2 21.5941 65.5873 4.7693 0.6255 0.0000 0.0000
# 3 4.7693 4.7693 82.1709 0.0000 0.0000 0.0000
# 4 -0.6255 0.6255 0.0000 30.4401 0.0000 0.0000
# 5 0.0000 0.0000 0.0000 0.0000 30.4401 -0.6255
# 6 0.0000 0.0000 0.0000 0.0000 -0.6255 21.9966
#
#
#
# Elastic Compliance Matrix: (Units=1/GPa)
#
#
# Indices 1 2 3 4 5 6 
#
# 1 0.017144 -0.005600 -0.000670 0.000467 0.000000 0.000000
# 2 -0.005600 0.017144 -0.000670 -0.000467 0.000000 0.000000
# 3 -0.000670 -0.000670 0.012248 0.000000 0.000000 0.000000
# 4 0.000467 -0.000467 0.000000 0.032871 0.000000 0.000000
# 5 0.000000 0.000000 0.000000 0.000000 0.032871 0.000935
# 6 0.000000 0.000000 0.000000 0.000000 0.000935 0.045488
#
#
# Mechanical properties :
#
#
# Convention : Reuss Voigt Hill
#
# Bulk Modulus (GPa) = 30.62338 30.62344 30.62341
# Shear Modulus (GPa) = 27.39277 28.72290 28.05783
#
# Velocity S-wave (km/s) = 3.29823 3.37735 3.33802
# Velocity P-wave (km/s) = 5.16388 5.23163 5.19786
#
# Compressibility (1/GPa) = 0.03265479
#
# Stress axis : x y z
#
# Youngs Moduli (GPa) = 58.32992 58.32992 81.64912
#
# Poissons Ratio (x) = 0.32666 0.05471
# Poissons Ratio (y) = 0.32666 0.05471
# Poissons Ratio (z) = 0.03908 0.03908
#
# Static dielectric constant tensor:
#      x y z
#    x 1.982720 0.000000 0.000000 
#    y 0.000000 1.982720 0.000000 
#    z 0.000000 0.000000 2.099710 
# 
# From -- ./inp_files/1771.got.cif
#   From: 2010.05.17/outbox.cif.g08.bks.cpg/sg161_cif.got.tgz:1771.got - 2010.05.20 10:52:32.
