data_PCOD9577746
_publ_section_title
;
Structure prediction by ZEFSAII (Michael W. Deem and Ramdas Pophale) SiO2 
 PCOD9577746
Probable space group: P -3 1 M 
;
_chemical_formula_sum "Si O2"
_cell_formula_units_Z 84
_cell_length_a 18.424248
_cell_length_b 18.424248
_cell_length_c 14.933796
_cell_angle_alpha 90.000000
_cell_angle_beta 90.000000
_cell_angle_gamma 120.000000
_cell_volume 4390.160398
_symmetry_space_group_name_H-M "P -3 1 M "
_symmetry_group_IT_number 162
_symmetry_cell_setting 'hexagonal'
loop_
_space_group_symop_operation_xyz
x,y,z
-y,x-y,z
-x+y,-x,z
-y,-x,-z
-x+y,y,-z
x,x-y,-z
-x,-y,-z
y,-x+y,-z
x-y,x,-z
y,x,z
x-y,-y,z
-x,-x+y,z
loop_
_atom_site_type_symbol
_atom_site_label
_atom_site_fract_x
_atom_site_fract_y
_atom_site_fract_z
Si Si1 0.681286 0.900941 0.431862
Si Si2 0.403719 0.500584 0.227975
Si Si3 0.200821 0.456110 0.907182
Si Si4 0.736826 0.834098 0.906921
Si Si5 0.422853 0.332546 0.805472
Si Si6 0.719432 0.812690 0.278452
Si Si7 0.898242 0.514478 0.434549
O O1 0.711969 0.855985 0.500000
O O2 0.698264 0.872899 0.335796
O O3 0.585882 0.875053 0.456948
O O4 0.733267 0.000000 0.438051
O O5 0.424050 0.424050 0.218745
O O6 0.337228 0.496108 0.155100
O O7 0.492000 0.584675 0.216473
O O8 0.377891 0.503999 0.330044
O O9 0.126182 0.360801 0.924408
O O10 0.270915 0.445054 0.856229
O O11 0.248467 0.496933 0.000000
O O12 0.789293 0.789293 0.884060
O O13 0.738199 0.890111 0.823128
O O14 0.767882 0.883941 0.000000
O O15 0.363522 0.363522 0.852962
O O16 0.366818 0.276671 0.723036
O O17 0.791233 0.791233 0.307723
O O18 0.868475 0.434238 0.500000
O O19 0.000000 0.561214 0.435872
#
# Coordination Sequence:
#
# PCOD9577746 Si02
#       7
#    12  12  12  12  12  12  12
#     4  11  23  38  61  90 121 160 207 252 297 359
#     4  10  20  37  60  83 115 156 198 248 312 374
#     4  10  21  35  54  82 116 155 201 247 300 361
#     4  10  19  33  56  83 114 150 198 256 314 365
#     4   9  20  36  58  86 114 151 197 248 300 358
#     4  10  20  36  59  86 120 157 204 255 303 358
#     4   9  19  35  58  87 115 145 188 245 310 373
#
# _framework density 19.133697000000002
#
# number of rings (size 3 to 8) (size 9 to 14) (size 15 to 20)
#    0.000    2.143    0.000    3.429    2.000    5.714 
#    0.857    1.429    0.000    8.857    0.000    0.000 
#    0.000    0.000    0.000    0.000    0.000    0.000 
#
# Total GULP energy -467716.168776 kJ/mol
# GULP energy per Si atom -5568.049628 kJ/mol
# Density = 1.909015 g / cm^3
# Si number density = 19.133697 Si / 1000 Ang^3
#
#
#
# Elastic Constant Matrix: (Units=GPa)
#
#
# Indices 1 2 3 4 5 6 
#
# 1 82.4744 55.3812 36.0232 -0.0002 2.6200 0.0000
# 2 55.3812 82.4744 36.0232 0.0002 -2.6200 0.0000
# 3 36.0232 36.0232 83.1073 0.0000 0.0000 0.0000
# 4 -0.0002 0.0002 0.0000 21.7227 0.0000 -2.6200
# 5 2.6200 -2.6200 0.0000 0.0000 21.7227 -0.0002
# 6 0.0000 0.0000 0.0000 -2.6200 -0.0002 13.5466
#
#
#
# Elastic Compliance Matrix: (Units=1/GPa)
#
#
# Indices 1 2 3 4 5 6 
#
# 1 0.023585 -0.014206 -0.004065 0.000000 -0.004558 0.000000
# 2 -0.014206 0.023585 -0.004065 0.000000 0.004558 0.000000
# 3 -0.004065 -0.004065 0.015557 0.000000 0.000000 0.000000
# 4 0.000000 0.000000 0.000000 0.047134 0.000000 0.009116
# 5 -0.004558 0.004558 0.000000 0.000000 0.047134 0.000001
# 6 0.000000 0.000000 0.000000 0.009116 0.000001 0.075582
#
#
# Mechanical properties :
#
#
# Convention : Reuss Voigt Hill
#
# Bulk Modulus (GPa) = 55.39194 55.87899 55.63547
# Shear Modulus (GPa) = 17.65111 19.44032 18.54572
#
# Velocity S-wave (km/s) = 3.04059 3.19097 3.11669
# Velocity P-wave (km/s) = 6.42959 6.54556 6.48783
#
# Compressibility (1/GPa) = 0.01805317
#
# Stress axis : x y z
#
# Youngs Moduli (GPa) = 42.40010 42.40010 64.28079
#
# Poissons Ratio (x) = 0.60235 0.26131
# Poissons Ratio (y) = 0.60235 0.26131
# Poissons Ratio (z) = 0.17236 0.17236
#
# Static dielectric constant tensor:
#      x y z
#    x 1.694850 0.000000 0.000000 
#    y 0.000000 1.694850 0.000000 
#    z 0.000000 0.000000 1.779700 
# 
# From -- ./inp_files/3167.got.cif
#   From: 2010.05.17/outbox.cif.g08.bks.cpg/sg162_2_cif.got.tgz:3167.got - 2010.05.20 10:53:12.
