data_PCOD9577542
_publ_section_title
;
Structure prediction by ZEFSAII (Michael W. Deem and Ramdas Pophale) SiO2 
 PCOD9577542
Probable space group: R 3 C
;
_chemical_formula_sum "Si O2"
_cell_formula_units_Z 126
_cell_length_a 17.155984
_cell_length_b 17.155984
_cell_length_c 27.721682
_cell_angle_alpha 90.000000
_cell_angle_beta 90.000000
_cell_angle_gamma 120.000000
_cell_volume 7066.127575
_symmetry_space_group_name_H-M "R 3 C"
_symmetry_group_IT_number 161
_symmetry_cell_setting 'hexagonal'
loop_
_space_group_symop_operation_xyz
x,y,z
-y,x-y,z
-x+y,-x,z
-x+y,y,1/2+z
x,x-y,1/2+z
-y,-x,1/2+z
2/3+x,1/3+y,1/3+z
2/3-y,1/3+x-y,1/3+z
2/3-x+y,1/3-x,1/3+z
2/3-x+y,1/3+y,5/6+z
2/3+x,1/3+x-y,5/6+z
2/3-y,1/3-x,5/6+z
1/3+x,2/3+y,2/3+z
1/3-y,2/3+x-y,2/3+z
1/3-x+y,2/3-x,2/3+z
1/3-x+y,2/3+y,1/6+z
1/3+x,2/3+x-y,1/6+z
1/3-y,2/3-x,1/6+z
loop_
_atom_site_type_symbol
_atom_site_label
_atom_site_fract_x
_atom_site_fract_y
_atom_site_fract_z
Si Si1 0.467559 0.485304 0.664160
Si Si2 0.865776 0.684413 0.994559
Si Si3 0.194183 0.462197 0.065580
Si Si4 0.473992 0.596128 0.572801
Si Si5 0.139150 0.204470 0.093139
Si Si6 0.666668 0.713646 0.829359
Si Si7 0.192675 0.737206 0.252585
O O1 0.559396 0.502427 0.689114
O O2 0.481240 0.558828 0.624927
O O3 0.408850 0.486275 0.709527
O O4 0.413383 0.383357 0.644160
O O5 0.852095 0.744255 0.033792
O O6 0.924485 0.744093 0.949192
O O7 0.773939 0.609698 0.969606
O O8 0.919953 0.636642 0.014560
O O9 0.163365 0.534283 0.056799
O O10 0.301008 0.503554 0.072543
O O11 0.545133 0.590547 0.537356
O O12 0.169970 0.132386 0.101921
O O13 0.032325 0.163111 0.086177
O O14 0.621254 0.742787 0.788029
#
# Coordination Sequence:
#
# PCOD9577542 Si02
#       7
#    18  18  18  18  18  18  18
#     4  10  20  38  55  83 119 147 192 236 283 343
#     4  10  20  38  55  83 119 147 192 236 283 343
#     4  10  21  36  58  86 115 150 188 243 284 341
#     4  11  21  37  60  85 117 151 193 239 293 337
#     4  10  21  36  58  86 115 150 188 243 284 341
#     4  10  22  36  56  84 114 154 192 230 284 358
#     4  11  21  37  60  85 117 151 193 239 293 337
#
# _framework density 17.831548999999999
#
# number of rings (size 3 to 8) (size 9 to 14) (size 15 to 20)
#    0.000    1.714    2.857    1.429    0.000    2.286 
#    0.000    2.857    0.000    0.000    0.000   10.000 
#    0.000    0.000    0.000    0.000    0.000    0.000 
#
# Total GULP energy -234388.770523 kJ/mol
# GULP energy per Si atom -5580.685012 kJ/mol
# Density = 1.779096 g / cm^3
# Si number density = 17.831549 Si / 1000 Ang^3
#
#
#
# Elastic Constant Matrix: (Units=GPa)
#
#
# Indices 1 2 3 4 5 6 
#
# 1 94.2115 37.4655 36.8187 -8.3077 0.0000 0.0000
# 2 37.4655 94.2115 36.8187 8.3077 0.0000 0.0000
# 3 36.8187 36.8187 53.3425 0.0000 0.0000 0.0000
# 4 -8.3077 8.3077 0.0000 18.8043 0.0000 0.0000
# 5 0.0000 0.0000 0.0000 0.0000 18.8043 -8.3077
# 6 0.0000 0.0000 0.0000 0.0000 -8.3077 28.3730
#
#
#
# Elastic Compliance Matrix: (Units=1/GPa)
#
#
# Indices 1 2 3 4 5 6 
#
# 1 0.016305 -0.003936 -0.008537 0.008942 0.000000 0.000000
# 2 -0.003936 0.016305 -0.008537 -0.008942 0.000000 0.000000
# 3 -0.008537 -0.008537 0.030532 0.000000 0.000000 0.000000
# 4 0.008942 -0.008942 0.000000 0.061081 0.000000 0.000000
# 5 0.000000 0.000000 0.000000 0.000000 0.061081 0.017885
# 6 0.000000 0.000000 0.000000 0.000000 0.017885 0.040481
#
#
# Mechanical properties :
#
#
# Convention : Reuss Voigt Hill
#
# Bulk Modulus (GPa) = 47.34745 51.55237 49.44991
# Shear Modulus (GPa) = 18.19204 21.90714 20.04959
#
# Velocity S-wave (km/s) = 3.19755 3.50889 3.35683
# Velocity P-wave (km/s) = 6.34371 6.73720 6.54342
#
# Compressibility (1/GPa) = 0.02112046
#
# Stress axis : x y z
#
# Youngs Moduli (GPa) = 61.33224 61.33224 32.75238
#
# Poissons Ratio (x) = 0.24141 0.27961
# Poissons Ratio (y) = 0.24141 0.27961
# Poissons Ratio (z) = 0.52361 0.52361
#
# Static dielectric constant tensor:
#      x y z
#    x 1.621700 0.000000 0.000000 
#    y 0.000000 1.621700 0.000000 
#    z 0.000000 0.000000 1.588420 
# 
# From -- ./inp_files/1930.got.cif
#   From: 2010.05.17/outbox.cif.g08.bks.cpg/sg161_cif.got.tgz:1930.got - 2010.05.20 10:52:32.
