data_PCOD9577507
_publ_section_title
;
Structure prediction by ZEFSAII (Michael W. Deem and Ramdas Pophale) SiO2 
 PCOD9577507
Probable space group: R 3 M
;
_chemical_formula_sum "Si O2"
_cell_formula_units_Z 60
_cell_length_a 16.887104
_cell_length_b 16.887104
_cell_length_c 12.569167
_cell_angle_alpha 90.000000
_cell_angle_beta 90.000000
_cell_angle_gamma 120.000000
_cell_volume 3104.184201
_symmetry_space_group_name_H-M "R 3 M"
_symmetry_group_IT_number 160
_symmetry_cell_setting 'hexagonal'
loop_
_space_group_symop_operation_xyz
x,y,z
-y,x-y,z
-x+y,-x,z
-x+y,y,z
x,x-y,z
-y,-x,z
2/3+x,1/3+y,1/3+z
2/3-y,1/3+x-y,1/3+z
2/3-x+y,1/3-x,1/3+z
2/3-x+y,1/3+y,1/3+z
2/3+x,1/3+x-y,1/3+z
2/3-y,1/3-x,1/3+z
1/3+x,2/3+y,2/3+z
1/3-y,2/3+x-y,2/3+z
1/3-x+y,2/3-x,2/3+z
1/3-x+y,2/3+y,2/3+z
1/3+x,2/3+x-y,2/3+z
1/3-y,2/3-x,2/3+z
loop_
_atom_site_type_symbol
_atom_site_label
_atom_site_fract_x
_atom_site_fract_y
_atom_site_fract_z
Si Si1 0.333335 0.666668 0.197705
Si Si2 0.945899 0.227710 0.161150
Si Si3 0.440617 0.376519 0.740152
Si Si4 0.666667 0.333334 0.122361
Si Si5 0.772770 0.545539 0.118018
Si Si6 0.439250 0.560751 0.194698
O O1 0.333334 0.666667 0.326389
O O2 0.385656 0.614344 0.162859
O O3 0.876524 0.123477 0.124681
O O4 0.877148 0.269365 0.157816
O O5 0.033056 0.292028 0.092773
O O6 0.974860 0.225006 0.281820
O O7 0.539948 0.460053 0.770893
O O8 0.415906 0.288098 0.810677
O O9 0.720225 0.440450 0.152874
O O10 0.775231 0.550462 0.989074
#
# Coordination Sequence:
#
# PCOD9577507 Si02
#       6
#     3  18  18   3   9   9
#     4   9  18  33  48  87 133 131 181 255 294 363
#     4   9  22  41  54  85 120 156 198 248 288 355
#     4  11  22  38  62  88 119 159 200 247 302 356
#     4   9  18  33  60  87 109 158 190 237 303 348
#     4   9  20  39  57  85 127 152 193 249 301 356
#     4  11  20  35  61  91 119 155 192 247 312 353
#
# _framework density 19.328751
#
# number of rings (size 3 to 8) (size 9 to 14) (size 15 to 20)
#    0.900    1.200    1.500    1.800    2.100    1.200 
#    2.700    0.000    0.000    0.600    0.000    0.000 
#    0.000    0.000    0.000    0.000    0.000    0.000 
#
# Total GULP energy -111369.771735 kJ/mol
# GULP energy per Si atom -5568.488587 kJ/mol
# Density = 1.928476 g / cm^3
# Si number density = 19.328751 Si / 1000 Ang^3
#
#
#
# Elastic Constant Matrix: (Units=GPa)
#
#
# Indices 1 2 3 4 5 6 
#
# 1 48.4141 0.2896 10.5467 -5.0208 -0.0006 -0.0002
# 2 0.2896 48.4150 10.5467 5.0208 0.0006 -0.0001
# 3 10.5467 10.5467 36.7473 -0.0001 -0.0001 0.0000
# 4 -5.0208 5.0208 -0.0001 12.3166 -0.0001 0.0006
# 5 -0.0006 0.0006 -0.0001 -0.0001 12.3165 -5.0208
# 6 -0.0002 -0.0001 0.0000 0.0006 -5.0208 24.0623
#
#
#
# Elastic Compliance Matrix: (Units=1/GPa)
#
#
# Indices 1 2 3 4 5 6 
#
# 1 0.023079 0.000368 -0.006729 0.009258 0.000001 0.000000
# 2 0.000368 0.023079 -0.006729 -0.009258 -0.000001 0.000000
# 3 -0.006729 -0.006729 0.031076 0.000000 0.000000 0.000000
# 4 0.009258 -0.009258 0.000000 0.088739 0.000001 -0.000002
# 5 0.000001 -0.000001 0.000000 0.000001 0.088740 0.018516
# 6 0.000000 0.000000 0.000000 -0.000002 0.018516 0.045422
#
#
# Mechanical properties :
#
#
# Convention : Reuss Voigt Hill
#
# Bulk Modulus (GPa) = 19.58807 19.59360 19.59084
# Shear Modulus (GPa) = 14.56314 17.21866 15.89090
#
# Velocity S-wave (km/s) = 2.74787 2.98792 2.87041
# Velocity P-wave (km/s) = 4.49710 4.69708 4.59818
#
# Compressibility (1/GPa) = 0.05105147
#
# Stress axis : x y z
#
# Youngs Moduli (GPa) = 43.32948 43.33031 32.17968
#
# Poissons Ratio (x) = -0.01593 0.21655
# Poissons Ratio (y) = -0.01593 0.21654
# Poissons Ratio (z) = 0.29158 0.29158
#
# Static dielectric constant tensor:
#      x y z
#    x 1.679940 0.000000 0.000000 
#    y 0.000000 1.679930 0.000000 
#    z 0.000000 0.000000 1.636300 
# 
# From -- ./inp_files/1430.got.cif
#   From: 2010.05.17/outbox.cif.g08.bks.cpg/sg160_1_cif.got.tgz:1430.got - 2010.05.20 10:51:19.
