data_PCOD9577027
_publ_section_title
;
Structure prediction by ZEFSAII (Michael W. Deem and Ramdas Pophale) SiO2 
 PCOD9577027
Probable space group: R 3 2
;
_chemical_formula_sum "Si O2"
_cell_formula_units_Z 45
_cell_length_a 22.689172
_cell_length_b 22.689172
_cell_length_c 5.049546
_cell_angle_alpha 90.000000
_cell_angle_beta 90.000000
_cell_angle_gamma 120.000000
_cell_volume 2251.232031
_symmetry_space_group_name_H-M "R 3 2"
_symmetry_group_IT_number 155
_symmetry_cell_setting 'hexagonal'
loop_
_space_group_symop_operation_xyz
x,y,z
-y,x-y,z
-x+y,-x,z
x-y,-y,-z
-x,-x+y,-z
y,x,-z
2/3+x,1/3+y,1/3+z
2/3-y,1/3+x-y,1/3+z
2/3-x+y,1/3-x,1/3+z
2/3+x-y,1/3-y,1/3-z
2/3-x,1/3-x+y,1/3-z
2/3+y,1/3+x,1/3-z
1/3+x,2/3+y,2/3+z
1/3-y,2/3+x-y,2/3+z
1/3-x+y,2/3-x,2/3+z
1/3+x-y,2/3-y,2/3-z
1/3-x,2/3-x+y,2/3-z
1/3+y,2/3+x,2/3-z
loop_
_atom_site_type_symbol
_atom_site_label
_atom_site_fract_x
_atom_site_fract_y
_atom_site_fract_z
Si Si1 0.413189 0.925826 0.129845
Si Si2 0.152050 0.711585 0.434664
Si Si3 0.800041 0.133374 0.166667
O O1 0.333334 0.885807 0.166667
O O2 0.460372 0.943710 0.388914
O O3 0.442516 0.885929 0.964950
O O4 0.438268 0.000000 0.000000
O O5 0.157127 0.666667 0.666667
O O6 0.113456 0.745959 0.595361
O O7 0.118754 0.666667 0.166667
#
# Coordination Sequence:
#
# PCOD9577027 Si02
#       3
#    18  18   9
#     4  10  23  39  67 102 137 178 220 278 345 412
#     4  11  22  42  67  92 133 176 223 276 331 399
#     4  10  22  42  66 100 134 172 230 276 348 406
#
# _framework density 19.989056000000001
#
# number of rings (size 3 to 8) (size 9 to 14) (size 15 to 20)
#    0.000    1.600    4.000    0.000    2.800    4.800 
#    0.000    6.000    4.400    0.800   10.400    0.000 
#    0.000    0.000    0.000    0.000    0.000    0.000 
#
# Total GULP energy -83507.357757 kJ/mol
# GULP energy per Si atom -5567.157184 kJ/mol
# Density = 1.994356 g / cm^3
# Si number density = 19.989056 Si / 1000 Ang^3
#
#
#
# Elastic Constant Matrix: (Units=GPa)
#
#
# Indices 1 2 3 4 5 6 
#
# 1 137.2994 87.1427 63.7446 -0.0128 -0.0079 -0.3168
# 2 87.1427 137.1726 63.9897 -0.0083 -0.0186 0.1627
# 3 63.7446 63.9897 164.2237 0.0669 -0.3559 -0.1059
# 4 -0.0128 -0.0083 0.0669 15.2329 -0.0425 0.0441
# 5 -0.0079 -0.0186 -0.3559 -0.0425 15.1567 -0.0855
# 6 -0.3168 0.1627 -0.1059 0.0441 -0.0855 25.2384
#
#
#
# Elastic Compliance Matrix: (Units=1/GPa)
#
#
# Indices 1 2 3 4 5 6 
#
# 1 0.012826 -0.007120 -0.002204 0.000016 -0.000053 0.000197
# 2 -0.007120 0.012862 -0.002248 0.000011 -0.000042 -0.000182
# 3 -0.002204 -0.002248 0.007821 -0.000037 0.000180 0.000020
# 4 0.000016 0.000011 -0.000037 0.065648 0.000183 -0.000114
# 5 -0.000053 -0.000042 0.000180 0.000183 0.065983 0.000224
# 6 0.000197 -0.000182 0.000020 -0.000114 0.000224 0.039627
#
#
# Mechanical properties :
#
#
# Convention : Reuss Voigt Hill
#
# Bulk Modulus (GPa) = 96.48276 96.49441 96.48858
# Shear Modulus (GPa) = 21.61048 26.04684 23.82866
#
# Velocity S-wave (km/s) = 3.29160 3.61370 3.45640
# Velocity P-wave (km/s) = 7.92583 8.11112 8.01901
#
# Compressibility (1/GPa) = 0.01036455
#
# Stress axis : x y z
#
# Youngs Moduli (GPa) = 77.96444 77.74559 127.85611
#
# Poissons Ratio (x) = 0.55357 0.28182
# Poissons Ratio (y) = 0.55513 0.28746
# Poissons Ratio (z) = 0.17185 0.17479
#
# Static dielectric constant tensor:
#      x y z
#    x 1.712420 -0.000070 -0.000370 
#    y -0.000070 1.712610 -0.000220 
#    z -0.000370 -0.000220 1.863560 
# 
# From -- ./inp_files/389.got.cif
#   From: 2010.05.17/outbox.cif.g08.bks.cpg/sg155_1_cif.got.tgz:389.got - 2010.05.20 10:44:35.
