data_PCOD9577675
_publ_section_title
;
Structure prediction by ZEFSAII (Michael W. Deem and Ramdas Pophale) SiO2 
 PCOD9577675
Probable space group: P -3 1 M 
;
_chemical_formula_sum "Si O2"
_cell_formula_units_Z 72
_cell_length_a 23.442976
_cell_length_b 23.442976
_cell_length_c 7.728226
_cell_angle_alpha 90.000000
_cell_angle_beta 90.000000
_cell_angle_gamma 120.000000
_cell_volume 3678.205009
_symmetry_space_group_name_H-M "P -3 1 M "
_symmetry_group_IT_number 162
_symmetry_cell_setting 'hexagonal'
loop_
_space_group_symop_operation_xyz
x,y,z
-y,x-y,z
-x+y,-x,z
-y,-x,-z
-x+y,y,-z
x,x-y,-z
-x,-y,-z
y,-x+y,-z
x-y,x,-z
y,x,z
x-y,-y,z
-x,-x+y,z
loop_
_atom_site_type_symbol
_atom_site_label
_atom_site_fract_x
_atom_site_fract_y
_atom_site_fract_z
Si Si1 0.000000 0.746665 0.712918
Si Si2 0.861881 0.367584 0.709305
Si Si3 0.861881 0.367584 0.290696
Si Si4 0.141383 0.282767 0.300204
Si Si5 0.216025 0.783976 0.801761
Si Si6 0.000000 0.386260 0.711060
Si Si7 0.253335 0.000000 0.712920
Si Si8 0.000000 0.386260 0.288941
O O1 0.931742 0.741768 0.772377
O O2 0.000000 0.746506 0.499999
O O3 0.000000 0.679947 0.765423
O O4 0.861864 0.368596 0.500001
O O5 0.843572 0.421786 0.769942
O O6 0.816221 0.292889 0.764161
O O7 0.934993 0.386745 0.767226
O O8 0.816221 0.292888 0.235841
O O9 0.934993 0.386745 0.232775
O O10 0.130651 0.261301 0.500000
O O11 0.181338 0.362674 0.298246
O O12 0.189974 0.258232 0.227621
O O13 0.205729 0.794272 0.000000
O O14 0.000000 0.320053 0.765425
O O15 0.000000 0.385774 0.500001
#
# Coordination Sequence:
#
# PCOD9577675 Si02
#       8
#     6  12  12  12  12   6   6   6
#     4   9  16  27  54  83 109 138 176 226 271 313
#     4  10  20  36  58  80 103 134 176 221 264 318
#     4  10  20  36  58  80 103 134 176 221 264 318
#     4  10  18  34  56  81 108 142 184 224 265 319
#     4  12  24  36  52  76 109 145 177 221 271 318
#     4   9  15  28  55  88 107 126 163 221 276 311
#     4   9  16  27  54  83 109 138 176 226 271 313
#     4   9  15  28  55  88 107 126 163 221 276 311
#
# _framework density 19.574766
#
# number of rings (size 3 to 8) (size 9 to 14) (size 15 to 20)
#    0.000    2.000    3.333    2.000    0.000    2.667 
#    1.000    3.333    0.000    2.333    0.000    2.333 
#    0.000    0.000    0.000    1.500    0.000    1.667 
#
# Total GULP energy -401898.925923 kJ/mol
# GULP energy per Si atom -5581.929527 kJ/mol
# Density = 1.953021 g / cm^3
# Si number density = 19.574766 Si / 1000 Ang^3
#
#
#
# Elastic Constant Matrix: (Units=GPa)
#
#
# Indices 1 2 3 4 5 6 
#
# 1 128.5671 60.8812 -4.4386 0.0000 0.0000 0.0000
# 2 60.8812 128.5671 -4.4386 0.0000 0.0000 0.0000
# 3 -4.4386 -4.4386 32.8272 0.0000 0.0000 0.0000
# 4 0.0000 0.0000 0.0000 -32.4229 0.0000 0.0000
# 5 0.0000 0.0000 0.0000 0.0000 -32.4229 0.0000
# 6 0.0000 0.0000 0.0000 0.0000 0.0000 33.8429
#
#
#
# Elastic Compliance Matrix: (Units=1/GPa)
#
#
# Indices 1 2 3 4 5 6 
#
# 1 0.010043 -0.004731 0.000718 0.000000 0.000000 0.000000
# 2 -0.004731 0.010043 0.000718 0.000000 0.000000 0.000000
# 3 0.000718 0.000718 0.030657 0.000000 0.000000 0.000000
# 4 0.000000 0.000000 0.000000 -0.030842 0.000000 0.000000
# 5 0.000000 0.000000 0.000000 0.000000 -0.030842 0.000000
# 6 0.000000 0.000000 0.000000 0.000000 0.000000 0.029548
#
#
# Mechanical properties :
#
#
# Convention : Reuss Voigt Hill
#
# Bulk Modulus (GPa) = 22.64798 43.77440 33.21119
# Shear Modulus (GPa) = 125.27134 9.66327 67.46731
#
# Velocity S-wave (km/s) = 8.00845 2.22426 5.87718
# Velocity P-wave (km/s) = 9.85438 5.38587 7.94092
#
# Compressibility (1/GPa) = 0.04415404
#
# Stress axis : x y z
#
# Youngs Moduli (GPa) = 99.57051 99.57051 32.61926
#
# Poissons Ratio (x) = 0.47107 -0.02343
# Poissons Ratio (y) = 0.47107 -0.02343
# Poissons Ratio (z) = -0.07152 -0.07152
#
# Static dielectric constant tensor:
#      x y z
#    x 1.674210 0.000000 0.000000 
#    y 0.000000 1.674210 0.000000 
#    z 0.000000 0.000000 1.741850 
# 
# From -- ./inp_files/1795.got.cif
#   From: 2010.05.17/outbox.cif.g08.bks.cpg/sg162_1_cif.got.tgz:1795.got - 2010.05.20 10:53:12.
