data_PCOD9577101
_publ_section_title
;
Structure prediction by ZEFSAII (Michael W. Deem and Ramdas Pophale) SiO2 
 PCOD9577101
Probable space group: R 3 2
;
_chemical_formula_sum "Si O2"
_cell_formula_units_Z 144
_cell_length_a 28.290379
_cell_length_b 28.290379
_cell_length_c 8.902342
_cell_angle_alpha 90.000000
_cell_angle_beta 90.000000
_cell_angle_gamma 120.000000
_cell_volume 6170.387485
_symmetry_space_group_name_H-M "R 3 2"
_symmetry_group_IT_number 155
_symmetry_cell_setting 'hexagonal'
loop_
_space_group_symop_operation_xyz
x,y,z
-y,x-y,z
-x+y,-x,z
x-y,-y,-z
-x,-x+y,-z
y,x,-z
2/3+x,1/3+y,1/3+z
2/3-y,1/3+x-y,1/3+z
2/3-x+y,1/3-x,1/3+z
2/3+x-y,1/3-y,1/3-z
2/3-x,1/3-x+y,1/3-z
2/3+y,1/3+x,1/3-z
1/3+x,2/3+y,2/3+z
1/3-y,2/3+x-y,2/3+z
1/3-x+y,2/3-x,2/3+z
1/3+x-y,2/3-y,2/3-z
1/3-x,2/3-x+y,2/3-z
1/3+y,2/3+x,2/3-z
loop_
_atom_site_type_symbol
_atom_site_label
_atom_site_fract_x
_atom_site_fract_y
_atom_site_fract_z
Si Si1 0.004422 0.178665 0.167611
Si Si2 0.786610 0.382664 0.942820
Si Si3 0.928623 0.515417 0.135154
Si Si4 0.666135 0.202208 0.504095
Si Si5 0.426857 0.392798 0.809504
Si Si6 0.590541 0.721999 0.063499
Si Si7 0.082621 0.871157 0.613776
Si Si8 0.031395 0.459867 0.842109
O O1 0.026041 0.151448 0.288132
O O2 0.042543 0.243697 0.163586
O O3 0.952416 0.177506 0.242000
O O4 0.000000 0.156949 0.000000
O O5 0.747336 0.333334 0.833334
O O6 0.829495 0.433894 0.841882
O O7 0.765782 0.410893 0.059283
O O8 0.863621 0.488471 0.154247
O O9 0.951280 0.474311 0.166317
O O10 0.971646 0.566986 0.232915
O O11 0.945630 0.539147 0.966865
O O12 0.666667 0.217370 0.333334
O O13 0.607195 0.157080 0.566549
O O14 0.376914 0.333334 0.833334
O O15 0.473277 0.393263 0.704982
O O16 0.561528 0.666667 0.166667
O O17 0.581143 0.770604 0.120854
O O18 0.655153 0.749985 0.057512
O O19 0.000000 0.435588 0.000000
#
# Coordination Sequence:
#
# PCOD9577101 Si02
#       8
#    18  18  18  18  18  18  18  18
#     4  12  26  43  67 108 152 185 243 314 375 427
#     4  12  23  45  78 104 135 187 247 295 358 452
#     4  11  21  38  67  98 143 186 241 302 355 414
#     4  12  28  45  68 112 154 181 233 310 382 438
#     4  11  19  35  65 100 133 190 255 298 336 408
#     4  12  23  42  71 106 138 194 255 298 354 445
#     4  12  20  42  74 104 134 187 254 294 343 443
#     4  12  21  41  72  99 142 197 248 301 359 426
#
# _framework density 23.33727
#
# number of rings (size 3 to 8) (size 9 to 14) (size 15 to 20)
#    0.000    0.250   10.000    0.375    1.750    0.500 
#    4.500    0.625    0.000    3.500    0.000    3.500 
#    0.000    0.000    0.000    0.000    0.000    0.000 
#
# Total GULP energy -267567.971423 kJ/mol
# GULP energy per Si atom -5574.332738 kJ/mol
# Density = 2.328415 g / cm^3
# Si number density = 23.337270 Si / 1000 Ang^3
#
#
#
# Elastic Constant Matrix: (Units=GPa)
#
#
# Indices 1 2 3 4 5 6 
#
# 1 105.8879 4.5452 12.4420 -19.4921 0.0275 -0.0004
# 2 4.5452 105.8855 12.4891 19.4885 0.0373 -0.0850
# 3 12.4420 12.4891 81.8239 0.0377 0.1109 -0.1047
# 4 -19.4921 19.4885 0.0377 19.7857 0.0349 -0.0825
# 5 0.0275 0.0373 0.1109 0.0349 19.9047 -19.6601
# 6 -0.0004 -0.0850 -0.1047 -0.0825 -19.6601 51.0170
#
#
#
# Elastic Compliance Matrix: (Units=1/GPa)
#
#
# Indices 1 2 3 4 5 6 
#
# 1 0.012634 -0.003255 -0.001431 0.015655 -0.000023 0.000008
# 2 -0.003255 0.012632 -0.001426 -0.015646 0.000015 -0.000002
# 3 -0.001431 -0.001426 0.012657 -0.000030 -0.000069 -0.000003
# 4 0.015655 -0.015646 -0.000030 0.081376 -0.000049 0.000087
# 5 -0.000023 0.000015 -0.000069 -0.000049 0.081114 0.031258
# 6 0.000008 -0.000002 -0.000003 0.000087 0.031258 0.031647
#
#
# Mechanical properties :
#
#
# Convention : Reuss Voigt Hill
#
# Bulk Modulus (GPa) = 38.91374 39.17221 39.04298
# Shear Modulus (GPa) = 19.77464 35.74954 27.76209
#
# Velocity S-wave (km/s) = 2.91407 3.91815 3.45280
# Velocity P-wave (km/s) = 5.29463 6.10663 5.71507
#
# Compressibility (1/GPa) = 0.02569786
#
# Stress axis : x y z
#
# Youngs Moduli (GPa) = 79.15356 79.16588 79.00912
#
# Poissons Ratio (x) = 0.25767 0.11310
# Poissons Ratio (y) = 0.25763 0.11266
# Poissons Ratio (z) = 0.11330 0.11288
#
# Static dielectric constant tensor:
#      x y z
#    x 0.403150 0.003010 0.000760 
#    y 0.003010 0.380640 -0.000380 
#    z 0.000760 -0.000380 1.943000 
# 
# From -- ./inp_files/3068.got.cif
#   From: 2010.05.17/outbox.cif.g08.bks.cpg/sg155_2_cif.got.tgz:3068.got - 2010.05.20 10:44:35.
