data_PCOD9577808
_publ_section_title
;
Structure prediction by ZEFSAII (Michael W. Deem and Ramdas Pophale) SiO2 
 PCOD9577808
Probable space group: P -3 1 M 
;
_chemical_formula_sum "Si O2"
_cell_formula_units_Z 54
_cell_length_a 11.598004
_cell_length_b 11.598004
_cell_length_c 22.725283
_cell_angle_alpha 90.000000
_cell_angle_beta 90.000000
_cell_angle_gamma 120.000000
_cell_volume 2647.319998
_symmetry_space_group_name_H-M "P -3 1 M "
_symmetry_group_IT_number 162
_symmetry_cell_setting 'hexagonal'
loop_
_space_group_symop_operation_xyz
x,y,z
-y,x-y,z
-x+y,-x,z
-y,-x,-z
-x+y,y,-z
x,x-y,-z
-x,-y,-z
y,-x+y,-z
x-y,x,-z
y,x,z
x-y,-y,z
-x,-x+y,z
loop_
_atom_site_type_symbol
_atom_site_label
_atom_site_fract_x
_atom_site_fract_y
_atom_site_fract_z
Si Si1 0.152685 0.847316 0.000000
Si Si2 0.160751 0.319734 0.646313
Si Si3 0.846035 0.154838 0.782912
Si Si4 0.153271 0.685747 0.456826
Si Si5 0.778125 0.503687 0.108846
O O1 0.162934 0.766014 0.054779
O O2 0.000000 0.785179 0.982060
O O3 0.240746 0.240746 0.633939
O O4 0.179444 0.356343 0.715231
O O5 0.210927 0.450744 0.605074
O O6 0.000000 0.221992 0.637175
O O7 0.822881 0.243387 0.829715
O O8 0.000000 0.194259 0.786119
O O9 0.752398 0.000000 0.797340
O O10 0.190333 0.809668 0.500000
O O11 0.184298 0.592149 0.500000
O O12 0.000000 0.591886 0.444430
O O13 0.616924 0.425550 0.104991
#
# Coordination Sequence:
#
# PCOD9577808 Si02
#       5
#     6  12  12  12  12
#     4  12  25  42  68  96 125 158 204 266 322 370
#     4   9  18  34  57  86 115 149 191 242 306 364
#     4  10  20  37  62  90 122 157 201 259 315 369
#     4  10  20  35  53  77 108 145 189 235 289 353
#     4  10  24  43  59  92 123 170 213 245 296 362
#
# _framework density 20.397988000000002
#
# number of rings (size 3 to 8) (size 9 to 14) (size 15 to 20)
#    0.444    1.556    0.000    3.444    0.000    6.222 
#    4.000    2.222    0.000    3.556    0.000    0.000 
#    0.000    0.000    0.000    0.000    0.000    0.000 
#
# Total GULP energy -300642.751066 kJ/mol
# GULP energy per Si atom -5567.458353 kJ/mol
# Density = 2.035156 g / cm^3
# Si number density = 20.397988 Si / 1000 Ang^3
#
#
#
# Elastic Constant Matrix: (Units=GPa)
#
#
# Indices 1 2 3 4 5 6 
#
# 1 46.2259 22.7543 31.0691 -0.0012 -15.1772 0.0000
# 2 22.7543 46.2259 31.0691 0.0012 15.1772 0.0000
# 3 31.0691 31.0691 94.8659 0.0000 0.0000 0.0000
# 4 -0.0012 0.0012 0.0000 27.6687 0.0000 15.1772
# 5 -15.1772 15.1772 0.0000 0.0000 27.6687 -0.0012
# 6 0.0000 0.0000 0.0000 15.1772 -0.0012 11.7358
#
#
#
# Elastic Compliance Matrix: (Units=1/GPa)
#
#
# Indices 1 2 3 4 5 6 
#
# 1 0.083581 -0.063017 -0.006735 0.000006 0.080414 0.000000
# 2 -0.063017 0.083581 -0.006735 -0.000006 -0.080414 0.000000
# 3 -0.006735 -0.006735 0.014952 0.000000 0.000000 0.000000
# 4 0.000006 -0.000006 0.000000 0.124361 0.000000 -0.160827
# 5 0.080414 -0.080414 0.000000 0.000000 0.124361 0.000013
# 6 0.000000 0.000000 0.000000 -0.160827 0.000013 0.293196
#
#
# Mechanical properties :
#
#
# Convention : Reuss Voigt Hill
#
# Bulk Modulus (GPa) = 34.31598 39.67806 36.99702
# Shear Modulus (GPa) = 5.63876 20.24300 12.94088
#
# Velocity S-wave (km/s) = 1.66444 3.15366 2.52150
# Velocity P-wave (km/s) = 4.53360 5.72319 5.16278
#
# Compressibility (1/GPa) = 0.02914094
#
# Stress axis : x y z
#
# Youngs Moduli (GPa) = 11.96445 11.96445 66.87846
#
# Poissons Ratio (x) = 0.75397 0.45041
# Poissons Ratio (y) = 0.75397 0.45041
# Poissons Ratio (z) = 0.08058 0.08058
#
# Static dielectric constant tensor:
#      x y z
#    x 1.794680 0.000000 0.000000 
#    y 0.000000 1.794680 0.000000 
#    z 0.000000 0.000000 1.706620 
# 
# From -- ./inp_files/3933.got.cif
#   From: 2010.05.17/outbox.cif.g08.bks.cpg/sg162_2_cif.got.tgz:3933.got - 2010.05.20 10:53:12.
