data_PCOD9577110
_publ_section_title
;
Structure prediction by ZEFSAII (Michael W. Deem and Ramdas Pophale) SiO2 
 PCOD9577110
Probable space group: R 3 2
;
_chemical_formula_sum "Si O2"
_cell_formula_units_Z 72
_cell_length_a 21.397720
_cell_length_b 21.397720
_cell_length_c 10.013968
_cell_angle_alpha 90.000000
_cell_angle_beta 90.000000
_cell_angle_gamma 120.000000
_cell_volume 3970.743480
_symmetry_space_group_name_H-M "R 3 2"
_symmetry_group_IT_number 155
_symmetry_cell_setting 'hexagonal'
loop_
_space_group_symop_operation_xyz
x,y,z
-y,x-y,z
-x+y,-x,z
x-y,-y,-z
-x,-x+y,-z
y,x,-z
2/3+x,1/3+y,1/3+z
2/3-y,1/3+x-y,1/3+z
2/3-x+y,1/3-x,1/3+z
2/3+x-y,1/3-y,1/3-z
2/3-x,1/3-x+y,1/3-z
2/3+y,1/3+x,1/3-z
1/3+x,2/3+y,2/3+z
1/3-y,2/3+x-y,2/3+z
1/3-x+y,2/3-x,2/3+z
1/3+x-y,2/3-y,2/3-z
1/3-x,2/3-x+y,2/3-z
1/3+y,2/3+x,2/3-z
loop_
_atom_site_type_symbol
_atom_site_label
_atom_site_fract_x
_atom_site_fract_y
_atom_site_fract_z
Si Si1 0.950341 0.199583 0.628232
Si Si2 0.384083 0.251396 0.290321
Si Si3 0.717416 0.918063 0.456985
Si Si4 0.800418 0.750758 0.128230
O O1 0.915328 0.248662 0.666667
O O2 0.881886 0.122511 0.591883
O O3 0.000000 0.232225 0.500000
O O4 0.000001 0.202095 0.750001
O O5 0.333334 0.246119 0.166667
O O6 0.434825 0.333334 0.333334
O O7 0.333334 0.208872 0.416669
O O8 0.426045 0.210824 0.241458
O O9 0.666667 0.912789 0.333334
O O10 0.768160 0.000000 0.500000
O O11 0.751343 0.666667 0.166667
O O12 0.767772 0.767772 0.000000
#
# Coordination Sequence:
#
# PCOD9577110 Si02
#       4
#    18  18  18  18
#     4  11  21  34  54  81 112 144 180 225 277 330
#     4  11  22  36  56  83 115 150 185 227 277 330
#     4  11  22  36  56  83 115 150 185 227 277 330
#     4  11  21  34  54  81 112 144 180 225 277 330
#
# _framework density 18.132622999999999
#
# number of rings (size 3 to 8) (size 9 to 14) (size 15 to 20)
#    0.000    1.000    0.000   12.000    0.000    0.000 
#    0.000    0.000    0.000    1.000    0.000   14.000 
#    0.000    0.000    0.000    0.000    0.000    0.000 
#
# Total GULP energy -134238.874239 kJ/mol
# GULP energy per Si atom -5593.286427 kJ/mol
# Density = 1.809135 g / cm^3
# Si number density = 18.132623 Si / 1000 Ang^3
#
#
#
# Elastic Constant Matrix: (Units=GPa)
#
#
# Indices 1 2 3 4 5 6 
#
# 1 119.3181 70.6142 57.7241 -5.0001 0.0000 0.0000
# 2 70.6142 119.3182 57.7244 5.0001 0.0000 0.0000
# 3 57.7241 57.7244 152.9334 -0.0003 0.0001 -0.0001
# 4 -5.0001 5.0001 -0.0003 34.7302 -0.0001 -0.0001
# 5 0.0000 0.0000 0.0001 -0.0001 34.7304 -5.0001
# 6 0.0000 0.0000 -0.0001 -0.0001 -5.0001 24.3520
#
#
#
# Elastic Compliance Matrix: (Units=1/GPa)
#
#
# Indices 1 2 3 4 5 6 
#
# 1 0.013995 -0.007163 -0.002579 0.003046 0.000000 0.000000
# 2 -0.007163 0.013995 -0.002579 -0.003046 0.000000 0.000000
# 3 -0.002579 -0.002579 0.008486 0.000000 0.000000 0.000000
# 4 0.003046 -0.003046 0.000000 0.029670 0.000000 0.000000
# 5 0.000000 0.000000 0.000000 0.000000 0.029670 0.006092
# 6 0.000000 0.000000 0.000000 0.000000 0.006092 0.042315
#
#
# Mechanical properties :
#
#
# Convention : Reuss Voigt Hill
#
# Bulk Modulus (GPa) = 84.49470 84.85503 84.67487
# Shear Modulus (GPa) = 29.99080 32.46297 31.22688
#
# Velocity S-wave (km/s) = 4.07131 4.23579 4.15437
# Velocity P-wave (km/s) = 8.29458 8.41553 8.35527
#
# Compressibility (1/GPa) = 0.01183506
#
# Stress axis : x y z
#
# Youngs Moduli (GPa) = 71.45342 71.45326 117.84622
#
# Poissons Ratio (x) = 0.51179 0.30392
# Poissons Ratio (y) = 0.51179 0.30392
# Poissons Ratio (z) = 0.18427 0.18428
#
# Static dielectric constant tensor:
#      x y z
#    x 1.617050 0.000000 0.000000 
#    y 0.000000 1.617050 0.000000 
#    z 0.000000 0.000000 1.642400 
# 
# From -- ./inp_files/2110.got.cif
#   From: 2010.05.17/outbox.cif.g08.bks.cpg/sg155_2_cif.got.tgz:2110.got - 2010.05.20 10:44:35.
