data_PCOD9577593
_publ_section_title
;
Structure prediction by ZEFSAII (Michael W. Deem and Ramdas Pophale) SiO2 
 PCOD9577593
Probable space group: R 3 C
;
_chemical_formula_sum "Si O2"
_cell_formula_units_Z 66
_cell_length_a 11.035579
_cell_length_b 11.035579
_cell_length_c 26.820814
_cell_angle_alpha 90.000000
_cell_angle_beta 90.000000
_cell_angle_gamma 120.000000
_cell_volume 2828.738714
_symmetry_space_group_name_H-M "R 3 C"
_symmetry_group_IT_number 161
_symmetry_cell_setting 'hexagonal'
loop_
_space_group_symop_operation_xyz
x,y,z
-y,x-y,z
-x+y,-x,z
-x+y,y,1/2+z
x,x-y,1/2+z
-y,-x,1/2+z
2/3+x,1/3+y,1/3+z
2/3-y,1/3+x-y,1/3+z
2/3-x+y,1/3-x,1/3+z
2/3-x+y,1/3+y,5/6+z
2/3+x,1/3+x-y,5/6+z
2/3-y,1/3-x,5/6+z
1/3+x,2/3+y,2/3+z
1/3-y,2/3+x-y,2/3+z
1/3-x+y,2/3-x,2/3+z
1/3-x+y,2/3+y,1/6+z
1/3+x,2/3+x-y,1/6+z
1/3-y,2/3-x,1/6+z
loop_
_atom_site_type_symbol
_atom_site_label
_atom_site_fract_x
_atom_site_fract_y
_atom_site_fract_z
Si Si1 0.333334 0.666668 0.853211
Si Si2 0.758002 0.709543 0.799899
Si Si3 0.040558 0.792327 0.754270
Si Si4 0.812315 0.182395 0.904448
Si Si5 0.333334 0.666668 0.734298
O O1 0.175826 0.559030 0.874175
O O2 0.333334 0.666667 0.794207
O O3 0.760597 0.855087 0.793446
O O4 0.815870 0.709371 0.854759
O O5 0.610187 0.585617 0.777657
O O6 0.876943 0.715027 0.764955
O O7 0.074764 0.667699 0.758033
O O8 0.687464 0.205780 0.884108
#
# Coordination Sequence:
#
# PCOD9577593 Si02
#       5
#     6  18  18  18   6
#     4   9  21  45  75  97 137 211 252 309 372 480
#     4  11  27  47  75 111 151 202 258 323 389 469
#     4  10  24  47  73 102 147 202 257 311 395 469
#     4  12  26  45  73 110 149 201 256 326 381 473
#     4  12  24  42  72 106 152 184 261 315 387 447
#
# _framework density 23.331952999999999
#
# number of rings (size 3 to 8) (size 9 to 14) (size 15 to 20)
#    0.000    1.091    2.727    2.182    7.636    2.182 
#    1.636    0.000    0.000    0.000    0.000    0.000 
#    0.000    0.000    0.000    0.000    0.000    0.000 
#
# Total GULP energy -122512.360834 kJ/mol
# GULP energy per Si atom -5568.743674 kJ/mol
# Density = 2.327885 g / cm^3
# Si number density = 23.331953 Si / 1000 Ang^3
#
#
#
# Elastic Constant Matrix: (Units=GPa)
#
#
# Indices 1 2 3 4 5 6 
#
# 1 106.3696 50.6453 12.5321 1.1778 0.0000 0.0000
# 2 50.6453 106.3703 12.5318 -1.1781 0.0000 0.0000
# 3 12.5321 12.5318 65.2210 0.0002 0.0000 0.0000
# 4 1.1778 -1.1781 0.0002 21.2454 0.0000 0.0000
# 5 0.0000 0.0000 0.0000 0.0000 21.2459 1.1776
# 6 0.0000 0.0000 0.0000 0.0000 1.1776 27.8623
#
#
#
# Elastic Compliance Matrix: (Units=1/GPa)
#
#
# Indices 1 2 3 4 5 6 
#
# 1 0.012279 -0.005709 -0.001263 -0.000997 0.000000 0.000000
# 2 -0.005709 0.012279 -0.001262 0.000997 0.000000 0.000000
# 3 -0.001263 -0.001262 0.015818 0.000000 0.000000 0.000000
# 4 -0.000997 0.000997 0.000000 0.047180 0.000000 0.000000
# 5 0.000000 0.000000 0.000000 0.000000 0.047178 -0.001994
# 6 0.000000 0.000000 0.000000 0.000000 -0.001994 0.035975
#
#
# Mechanical properties :
#
#
# Convention : Reuss Voigt Hill
#
# Bulk Modulus (GPa) = 41.82620 47.70881 44.76750
# Shear Modulus (GPa) = 25.62198 27.55419 26.58809
#
# Velocity S-wave (km/s) = 3.31743 3.44024 3.37939
# Velocity P-wave (km/s) = 5.71308 6.02267 5.86992
#
# Compressibility (1/GPa) = 0.02390846
#
# Stress axis : x y z
#
# Youngs Moduli (GPa) = 81.43998 81.44056 63.22056
#
# Poissons Ratio (x) = 0.46491 0.07982
# Poissons Ratio (y) = 0.46491 0.07981
# Poissons Ratio (z) = 0.10282 0.10281
#
# Static dielectric constant tensor:
#      x y z
#    x 1.967140 0.000000 0.000000 
#    y 0.000000 1.967130 0.000000 
#    z 0.000000 0.000000 1.972550 
# 
# From -- ./inp_files/2055.got.cif
#   From: 2010.05.17/outbox.cif.g08.bks.cpg/sg161_cif.got.tgz:2055.got - 2010.05.20 10:52:32.
