data_PCOD9577719
_publ_section_title
;
Structure prediction by ZEFSAII (Michael W. Deem and Ramdas Pophale) SiO2 
 PCOD9577719
Probable space group: P -3 1 M 
;
_chemical_formula_sum "Si O2"
_cell_formula_units_Z 60
_cell_length_a 16.895898
_cell_length_b 16.895898
_cell_length_c 13.575670
_cell_angle_alpha 90.000000
_cell_angle_beta 90.000000
_cell_angle_gamma 120.000000
_cell_volume 3356.251231
_symmetry_space_group_name_H-M "P -3 1 M "
_symmetry_group_IT_number 162
_symmetry_cell_setting 'hexagonal'
loop_
_space_group_symop_operation_xyz
x,y,z
-y,x-y,z
-x+y,-x,z
-y,-x,-z
-x+y,y,-z
x,x-y,-z
-x,-y,-z
y,-x+y,-z
x-y,x,-z
y,x,z
x-y,-y,z
-x,-x+y,z
loop_
_atom_site_type_symbol
_atom_site_label
_atom_site_fract_x
_atom_site_fract_y
_atom_site_fract_z
Si Si1 0.106840 0.350246 0.579454
Si Si2 0.805513 0.637330 0.112246
Si Si3 0.457389 0.347969 0.240692
Si Si4 0.792461 0.896780 0.736625
Si Si5 0.484323 0.594746 0.103639
O O1 0.184742 0.369483 0.500000
O O2 0.135227 0.437093 0.651643
O O3 0.104694 0.271780 0.649355
O O4 0.000000 0.308546 0.544859
O O5 0.861784 0.593507 0.160546
O O6 0.831105 0.724506 0.179019
O O7 0.700094 0.558877 0.113571
O O8 0.832283 0.664566 0.000000
O O9 0.405078 0.405078 0.243306
O O10 0.557002 0.414874 0.196081
O O11 0.851230 0.851230 0.772450
O O12 0.857491 0.000000 0.703213
O O13 0.538600 0.538600 0.102152
O O14 0.429413 0.570588 0.000000
#
# Coordination Sequence:
#
# PCOD9577719 Si02
#       5
#    12  12  12  12  12
#     4   9  17  31  54  79 105 138 182 229 277 327
#     4  11  20  32  51  76 103 139 179 222 264 327
#     4   9  19  35  51  74 106 140 173 214 269 326
#     4  10  21  34  50  74 107 145 186 228 272 322
#     4  10  19  32  51  73 103 139 174 217 269 322
#
# _framework density 17.877088000000001
#
# number of rings (size 3 to 8) (size 9 to 14) (size 15 to 20)
#    0.000    2.200    2.000    3.200    0.000    2.400 
#    1.200    1.000    0.000    9.200    0.000   18.200 
#    0.000    0.000    0.000    0.000    0.000    0.000 
#
# Total GULP energy -334303.785006 kJ/mol
# GULP energy per Si atom -5571.729750 kJ/mol
# Density = 1.783640 g / cm^3
# Si number density = 17.877088 Si / 1000 Ang^3
#
#
#
# Elastic Constant Matrix: (Units=GPa)
#
#
# Indices 1 2 3 4 5 6 
#
# 1 46.7689 25.1480 28.1993 -0.0002 -5.3677 0.0000
# 2 25.1480 46.7689 28.1993 0.0002 5.3677 0.0000
# 3 28.1993 28.1993 87.5788 0.0000 0.0000 0.0000
# 4 -0.0002 0.0002 0.0000 16.9650 0.0000 5.3677
# 5 -5.3677 5.3677 0.0000 0.0000 16.9650 -0.0002
# 6 0.0000 0.0000 0.0000 5.3677 -0.0002 10.8104
#
#
#
# Elastic Compliance Matrix: (Units=1/GPa)
#
#
# Indices 1 2 3 4 5 6 
#
# 1 0.036737 -0.018135 -0.005990 0.000001 0.017362 0.000000
# 2 -0.018135 0.036737 -0.005990 -0.000001 -0.017362 0.000000
# 3 -0.005990 -0.005990 0.015275 0.000000 0.000000 0.000000
# 4 0.000001 -0.000001 0.000000 0.069932 0.000000 -0.034723
# 5 0.017362 -0.017362 0.000000 0.000000 0.069932 0.000002
# 6 0.000000 0.000000 0.000000 -0.034723 0.000002 0.109745
#
#
# Mechanical properties :
#
#
# Convention : Reuss Voigt Hill
#
# Bulk Modulus (GPa) = 35.06170 38.24550 36.65360
# Shear Modulus (GPa) = 12.25210 15.58607 13.91909
#
# Velocity S-wave (km/s) = 2.62076 2.95591 2.79337
# Velocity P-wave (km/s) = 5.36778 5.75238 5.56341
#
# Compressibility (1/GPa) = 0.02852115
#
# Stress axis : x y z
#
# Youngs Moduli (GPa) = 27.22035 27.22035 65.46444
#
# Poissons Ratio (x) = 0.49364 0.39211
# Poissons Ratio (y) = 0.49364 0.39211
# Poissons Ratio (z) = 0.16304 0.16304
#
# Static dielectric constant tensor:
#      x y z
#    x 1.618870 0.000000 0.000000 
#    y 0.000000 1.618870 0.000000 
#    z 0.000000 0.000000 1.621200 
# 
# From -- ./inp_files/2287.got.cif
#   From: 2010.05.17/outbox.cif.g08.bks.cpg/sg162_2_cif.got.tgz:2287.got - 2010.05.20 10:53:12.
