data_PCOD9577533
_publ_section_title
;
Structure prediction by ZEFSAII (Michael W. Deem and Ramdas Pophale) SiO2 
 PCOD9577533
Probable space group: R 3 C
;
_chemical_formula_sum "Si O2"
_cell_formula_units_Z 126
_cell_length_a 19.325089
_cell_length_b 19.325089
_cell_length_c 18.578471
_cell_angle_alpha 90.000000
_cell_angle_beta 90.000000
_cell_angle_gamma 120.000000
_cell_volume 6008.742679
_symmetry_space_group_name_H-M "R 3 C"
_symmetry_group_IT_number 161
_symmetry_cell_setting 'hexagonal'
loop_
_space_group_symop_operation_xyz
x,y,z
-y,x-y,z
-x+y,-x,z
-x+y,y,1/2+z
x,x-y,1/2+z
-y,-x,1/2+z
2/3+x,1/3+y,1/3+z
2/3-y,1/3+x-y,1/3+z
2/3-x+y,1/3-x,1/3+z
2/3-x+y,1/3+y,5/6+z
2/3+x,1/3+x-y,5/6+z
2/3-y,1/3-x,5/6+z
1/3+x,2/3+y,2/3+z
1/3-y,2/3+x-y,2/3+z
1/3-x+y,2/3-x,2/3+z
1/3-x+y,2/3+y,1/6+z
1/3+x,2/3+x-y,1/6+z
1/3-y,2/3-x,1/6+z
loop_
_atom_site_type_symbol
_atom_site_label
_atom_site_fract_x
_atom_site_fract_y
_atom_site_fract_z
Si Si1 0.151717 0.356276 0.884977
Si Si2 0.184253 0.499372 0.980359
Si Si3 0.228381 0.028679 0.475897
Si Si4 0.624976 0.941530 0.924038
Si Si5 0.270212 0.192293 0.554375
Si Si6 0.516117 0.199237 0.169362
Si Si7 0.133846 0.596826 0.151403
O O1 0.237564 0.361637 0.883816
O O2 0.136514 0.369079 0.803130
O O3 0.102389 0.280206 0.937058
O O4 0.149133 0.427548 0.925847
O O5 0.165201 0.463561 0.060781
O O6 0.279667 0.543793 0.970884
O O7 0.156020 0.563194 0.972187
O O8 0.259243 0.112959 0.515546
O O9 0.293775 0.000689 0.466043
O O10 0.146978 0.953321 0.508641
O O11 0.602804 0.989851 0.866171
O O12 0.556038 0.885705 0.981164
O O13 0.187961 0.193740 0.542363
O O14 0.530115 0.218298 0.254359
#
# Coordination Sequence:
#
# PCOD9577533 Si02
#       7
#    18  18  18  18  18  18  18
#     4  10  23  43  64 101 141 170 229 290 332 405
#     4  10  20  39  65  90 128 175 223 270 335 400
#     4  10  23  42  67  96 133 184 224 277 340 408
#     4  10  23  42  64  95 135 171 224 282 335 408
#     4  12  23  43  70 103 130 188 228 282 348 407
#     4  10  19  38  65  92 120 174 222 266 331 408
#     4  10  21  43  65  93 137 176 224 279 337 408
#
# _framework density 20.969443999999999
#
# number of rings (size 3 to 8) (size 9 to 14) (size 15 to 20)
#    0.000    1.714    2.857    1.143    0.000    2.286 
#   11.143    0.000    0.000    0.000    0.000    0.000 
#    0.000    0.000    0.000    0.000    0.000    0.000 
#
# Total GULP energy -234121.282351 kJ/mol
# GULP energy per Si atom -5574.316246 kJ/mol
# Density = 2.092172 g / cm^3
# Si number density = 20.969444 Si / 1000 Ang^3
#
#
#
# Elastic Constant Matrix: (Units=GPa)
#
#
# Indices 1 2 3 4 5 6 
#
# 1 104.0897 41.2020 22.0905 -2.0740 0.0000 0.0000
# 2 41.2020 104.0897 22.0905 2.0740 0.0000 0.0000
# 3 22.0905 22.0905 38.1072 0.0000 0.0000 0.0000
# 4 -2.0740 2.0740 0.0000 20.8517 0.0000 0.0000
# 5 0.0000 0.0000 0.0000 0.0000 20.8517 -2.0740
# 6 0.0000 0.0000 0.0000 0.0000 -2.0740 31.4438
#
#
#
# Elastic Compliance Matrix: (Units=1/GPa)
#
#
# Indices 1 2 3 4 5 6 
#
# 1 0.012181 -0.003825 -0.004844 0.001592 0.000000 0.000000
# 2 -0.003825 0.012181 -0.004844 -0.001592 0.000000 0.000000
# 3 -0.004844 -0.004844 0.031858 0.000000 0.000000 0.000000
# 4 0.001592 -0.001592 0.000000 0.048275 0.000000 0.000000
# 5 0.000000 0.000000 0.000000 0.000000 0.048275 0.003184
# 6 0.000000 0.000000 0.000000 0.000000 0.003184 0.032013
#
#
# Mechanical properties :
#
#
# Convention : Reuss Voigt Hill
#
# Bulk Modulus (GPa) = 34.25368 46.33916 40.29642
# Shear Modulus (GPa) = 22.56947 25.35632 23.96289
#
# Velocity S-wave (km/s) = 3.28426 3.48113 3.38413
# Velocity P-wave (km/s) = 5.54548 6.18903 5.87607
#
# Compressibility (1/GPa) = 0.02919394
#
# Stress axis : x y z
#
# Youngs Moduli (GPa) = 82.09510 82.09510 31.38978
#
# Poissons Ratio (x) = 0.31405 0.15204
# Poissons Ratio (y) = 0.31405 0.15204
# Poissons Ratio (z) = 0.39764 0.39764
#
# Static dielectric constant tensor:
#      x y z
#    x 1.844460 0.000000 0.000000 
#    y 0.000000 1.844460 0.000000 
#    z 0.000000 0.000000 1.748150 
# 
# From -- ./inp_files/1447.got.cif
#   From: 2010.05.17/outbox.cif.g08.bks.cpg/sg161_cif.got.tgz:1447.got - 2010.05.20 10:52:32.
