data_PCOD9577360
_publ_section_title
;
Structure prediction by ZEFSAII (Michael W. Deem and Ramdas Pophale) SiO2 
 PCOD9577360
Probable space group: P 3 1 C
;
_chemical_formula_sum "Si O2"
_cell_formula_units_Z 42
_cell_length_a 16.375230
_cell_length_b 16.375230
_cell_length_c 8.578035
_cell_angle_alpha 90.000000
_cell_angle_beta 90.000000
_cell_angle_gamma 120.000000
_cell_volume 1992.018020
_symmetry_space_group_name_H-M "P 3 1 C"
_symmetry_group_IT_number 159
_symmetry_cell_setting 'hexagonal'
loop_
_space_group_symop_operation_xyz
x,y,z
-y,x-y,z
-x+y,-x,z
y,x,1/2+z
x-y,-y,1/2+z
-x,-x+y,1/2+z
loop_
_atom_site_type_symbol
_atom_site_label
_atom_site_fract_x
_atom_site_fract_y
_atom_site_fract_z
Si Si1 0.299529 0.243386 0.351790
Si Si2 0.616639 0.739076 0.796482
Si Si3 0.292726 0.039649 0.591333
Si Si4 0.581534 0.122458 0.899200
Si Si5 0.622861 0.037169 0.608471
Si Si6 0.733697 0.861341 0.389636
Si Si7 0.257745 0.781520 0.508967
O O1 0.304099 0.154130 0.291813
O O2 0.378511 0.291463 0.486767
O O3 0.339684 0.323152 0.219572
O O4 0.195727 0.221839 0.401512
O O5 0.657991 0.685089 0.698400
O O6 0.619262 0.717372 0.976461
O O7 0.799762 0.768815 0.987551
O O8 0.530013 0.728693 0.694835
O O9 0.270234 0.101626 0.709257
O O10 0.599522 0.099239 0.724676
O O11 0.674098 0.215389 0.962719
O O12 0.499641 0.146653 0.921153
O O13 0.568357 0.036459 0.009506
O O14 0.627168 0.820564 0.450485
#
# Coordination Sequence:
#
# PCOD9577360 Si02
#       7
#     6   6   6   6   6   6   6
#     4  11  18  36  66  88 113 162 208 264 279 353
#     4  10  20  35  60  85 120 157 206 243 303 355
#     4   9  20  33  53  90 121 148 195 245 292 370
#     4  11  23  39  60  89 124 155 207 252 322 366
#     4  10  20  36  62  91 116 148 215 263 286 364
#     4  10  19  36  60  87 123 159 207 241 306 360
#     4  11  22  39  59  84 121 167 194 256 318 374
#
# _framework density 21.084146
#
# number of rings (size 3 to 8) (size 9 to 14) (size 15 to 20)
#    0.000    1.714    4.286    2.000    0.000    4.571 
#    0.000    1.429    0.000   11.429    0.000    0.000 
#    0.000    0.000    0.000    0.000    0.000    0.000 
#
# Total GULP energy -234286.328291 kJ/mol
# GULP energy per Si atom -5578.245912 kJ/mol
# Density = 2.103616 g / cm^3
# Si number density = 21.084146 Si / 1000 Ang^3
#
#
#
# Elastic Constant Matrix: (Units=GPa)
#
#
# Indices 1 2 3 4 5 6 
#
# 1 40.7097 -6.6395 15.4746 0.0000 -4.7431 0.0000
# 2 -6.6395 40.7097 15.4746 0.0000 4.7431 0.0000
# 3 15.4746 15.4746 124.3704 0.0000 0.0000 0.0000
# 4 0.0000 0.0000 0.0000 19.6377 0.0000 4.7431
# 5 -4.7431 4.7431 0.0000 0.0000 19.6377 0.0000
# 6 0.0000 0.0000 0.0000 4.7431 0.0000 23.6746
#
#
#
# Elastic Compliance Matrix: (Units=1/GPa)
#
#
# Indices 1 2 3 4 5 6 
#
# 1 0.027642 0.005449 -0.004117 0.000000 0.005360 0.000000
# 2 0.005449 0.027642 -0.004117 0.000000 -0.005360 0.000000
# 3 -0.004117 -0.004117 0.009065 0.000000 0.000000 0.000000
# 4 0.000000 0.000000 0.000000 0.053512 0.000000 -0.010721
# 5 0.005360 -0.005360 0.000000 0.000000 0.053512 0.000000
# 6 0.000000 0.000000 0.000000 -0.010721 0.000000 0.044387
#
#
# Mechanical properties :
#
#
# Convention : Reuss Voigt Hill
#
# Bulk Modulus (GPa) = 17.01308 28.26772 22.64040
# Shear Modulus (GPa) = 20.75328 24.68865 22.72097
#
# Velocity S-wave (km/s) = 3.14077 3.42564 3.28629
# Velocity P-wave (km/s) = 4.60860 5.39285 5.01608
#
# Compressibility (1/GPa) = 0.05877830
#
# Stress axis : x y z
#
# Youngs Moduli (GPa) = 36.17621 36.17621 110.31327
#
# Poissons Ratio (x) = -0.19712 0.45420
# Poissons Ratio (y) = -0.19712 0.45420
# Poissons Ratio (z) = 0.14895 0.14895
#
# Static dielectric constant tensor:
#      x y z
#    x 1.776790 0.000000 0.000000 
#    y 0.000000 1.776790 0.000000 
#    z 0.000000 0.000000 1.845980 
# 
# From -- ./inp_files/457.got.cif
#   From: 2010.05.17/outbox.cif.g08.bks.cpg/sg159_cif.got.tgz:457.got - 2010.05.20 10:50:30.
