data_PCOD9577276
_publ_section_title
;
Structure prediction by ZEFSAII (Michael W. Deem and Ramdas Pophale) SiO2 
 PCOD9577276
Probable space group: P 3 C 1
;
_chemical_formula_sum "Si O2"
_cell_formula_units_Z 48
_cell_length_a 24.374471
_cell_length_b 24.374471
_cell_length_c 5.413026
_cell_angle_alpha 90.000000
_cell_angle_beta 90.000000
_cell_angle_gamma 120.000000
_cell_volume 2785.102241
_symmetry_space_group_name_H-M "P 3 C 1"
_symmetry_group_IT_number 158
_symmetry_cell_setting 'hexagonal'
loop_
_space_group_symop_operation_xyz
x,y,z
-y,x-y,z
-x+y,-x,z
-x+y,y,1/2+z
x,x-y,1/2+z
-y,-x,1/2+z
loop_
_atom_site_type_symbol
_atom_site_label
_atom_site_fract_x
_atom_site_fract_y
_atom_site_fract_z
Si Si1 0.667470 0.636282 0.416820
Si Si2 0.945127 0.500216 0.953511
Si Si3 0.881429 0.698771 0.962887
Si Si4 0.331720 0.951054 0.915434
Si Si5 0.057637 0.826231 0.052388
Si Si6 0.146954 0.104127 0.957692
Si Si7 0.436963 0.910512 0.943871
Si Si8 0.717117 0.922305 0.549237
O O1 0.624504 0.560458 0.449899
O O2 0.741873 0.664630 0.447143
O O3 0.643071 0.662206 0.644353
O O4 0.650116 0.648907 0.141117
O O5 0.920576 0.460819 0.204550
O O6 0.021479 0.525142 0.951630
O O7 0.843358 0.681667 0.219229
O O8 0.923520 0.775929 0.961470
O O9 0.379078 0.923870 0.930800
O O10 0.257596 0.904359 0.974227
O O11 0.034540 0.794856 0.321319
O O12 0.133579 0.865603 0.075960
O O13 0.030091 0.872147 0.991398
O O14 0.044338 0.781758 0.815215
O O15 0.127821 0.059380 0.197072
O O16 0.436454 0.877417 0.197211
#
# Coordination Sequence:
#
# PCOD9577276 Si02
#       8
#     6   6   6   6   6   6   6   6
#     4  12  20  29  49  64  93 135 158 194 238 280
#     4  10  16  29  41  64  92 123 159 196 224 253
#     4  10  21  33  42  63  91 118 155 193 237 292
#     4  12  19  28  47  72  90 127 176 189 232 292
#     4  10  20  37  48  68 100 120 157 210 246 294
#     4  10  19  32  51  68  89 114 151 196 242 301
#     4  10  16  28  40  62  99 122 155 210 217 250
#     4  10  21  32  50  69  98 131 153 204 248 292
#
# _framework density 17.234558
#
# number of rings (size 3 to 8) (size 9 to 14) (size 15 to 20)
#    0.000    1.500    5.000    3.750    0.000    2.000 
#    0.000    0.000    0.000    0.000    0.000    0.000 
#  100.000    0.000    0.000    7.500    0.000    0.000 
#
# Total GULP energy -267542.221855 kJ/mol
# GULP energy per Si atom -5573.796289 kJ/mol
# Density = 1.719533 g / cm^3
# Si number density = 17.234558 Si / 1000 Ang^3
#
#
#
# Elastic Constant Matrix: (Units=GPa)
#
#
# Indices 1 2 3 4 5 6 
#
# 1 49.2392 18.1776 13.6072 0.5976 0.0000 0.0000
# 2 18.1776 49.2392 13.6072 -0.5976 0.0000 0.0000
# 3 13.6072 13.6072 152.8398 0.0000 0.0000 0.0000
# 4 0.5976 -0.5976 0.0000 16.8879 0.0000 0.0000
# 5 0.0000 0.0000 0.0000 0.0000 16.8879 0.5976
# 6 0.0000 0.0000 0.0000 0.0000 0.5976 15.5308
#
#
#
# Elastic Compliance Matrix: (Units=1/GPa)
#
#
# Indices 1 2 3 4 5 6 
#
# 1 0.023812 -0.008426 -0.001370 -0.001141 0.000000 0.000000
# 2 -0.008426 0.023812 -0.001370 0.001141 0.000000 0.000000
# 3 -0.001370 -0.001370 0.006787 0.000000 0.000000 0.000000
# 4 -0.001141 0.001141 0.000000 0.059295 0.000000 0.000000
# 5 0.000000 0.000000 0.000000 0.000000 0.059295 -0.002282
# 6 0.000000 0.000000 0.000000 0.000000 -0.002282 0.064476
#
#
# Mechanical properties :
#
#
# Convention : Reuss Voigt Hill
#
# Bulk Modulus (GPa) = 31.17245 38.01133 34.59189
# Shear Modulus (GPa) = 18.48424 23.58973 21.03699
#
# Velocity S-wave (km/s) = 3.27847 3.70367 3.49754
# Velocity P-wave (km/s) = 5.69716 6.35553 6.03533
#
# Compressibility (1/GPa) = 0.03207961
#
# Stress axis : x y z
#
# Youngs Moduli (GPa) = 41.99555 41.99555 147.34694
#
# Poissons Ratio (x) = 0.35385 0.20184
# Poissons Ratio (y) = 0.35385 0.20184
# Poissons Ratio (z) = 0.05753 0.05753
#
# Static dielectric constant tensor:
#      x y z
#    x 1.608480 0.000000 0.000000 
#    y 0.000000 1.608480 0.000000 
#    z 0.000000 0.000000 1.702880 
# 
# From -- ./inp_files/42.got.cif
#   From: 2010.05.17/outbox.cif.g08.bks.cpg/sg158_cif.got.tgz:42.got - 2010.05.20 10:49:59.
