data_PCOD9577872
_publ_section_title
;
Structure prediction by ZEFSAII (Michael W. Deem and Ramdas Pophale) SiO2 
 PCOD9577872
Probable space group: P -3 1 M 
;
_chemical_formula_sum "Si O2"
_cell_formula_units_Z 84
_cell_length_a 17.911315
_cell_length_b 17.911315
_cell_length_c 16.086194
_cell_angle_alpha 90.000000
_cell_angle_beta 90.000000
_cell_angle_gamma 120.000000
_cell_volume 4469.293514
_symmetry_space_group_name_H-M "P -3 1 M "
_symmetry_group_IT_number 162
_symmetry_cell_setting 'hexagonal'
loop_
_space_group_symop_operation_xyz
x,y,z
-y,x-y,z
-x+y,-x,z
-y,-x,-z
-x+y,y,-z
x,x-y,-z
-x,-y,-z
y,-x+y,-z
x-y,x,-z
y,x,z
x-y,-y,z
-x,-x+y,z
loop_
_atom_site_type_symbol
_atom_site_label
_atom_site_fract_x
_atom_site_fract_y
_atom_site_fract_z
Si Si1 0.162759 0.367028 0.748865
Si Si2 0.605002 0.505366 0.785385
Si Si3 0.315573 0.101012 0.930650
Si Si4 0.467621 0.101853 0.497277
Si Si5 0.315517 0.212122 0.425622
Si Si6 0.648581 0.098881 0.697064
Si Si7 0.821068 0.484222 0.044290
O O1 0.112090 0.420199 0.744836
O O2 0.140492 0.323394 0.839060
O O3 0.135103 0.309231 0.666150
O O4 0.264961 0.429698 0.743455
O O5 0.550740 0.550740 0.817393
O O6 0.542404 0.431269 0.722726
O O7 0.638494 0.467636 0.858416
O O8 0.412064 0.124411 0.959379
O O9 0.257368 0.000000 0.924427
O O10 0.283574 0.141787 0.000000
O O11 0.570253 0.140506 0.500000
O O12 0.416328 0.133679 0.554849
O O13 0.445604 0.108239 0.401631
O O14 0.424623 0.000000 0.518370
O O15 0.287712 0.143856 0.500000
O O16 0.262031 0.262031 0.429130
O O17 0.618990 0.000000 0.719034
O O18 0.730064 0.460127 0.000000
O O19 0.856430 0.428215 0.000000
#
# Coordination Sequence:
#
# PCOD9577872 Si02
#       7
#    12  12  12  12  12  12  12
#     4  11  21  38  59  85 118 159 199 247 302 360
#     4  10  22  37  55  79 112 156 201 245 302 361
#     4  10  23  41  61  87 115 150 199 250 306 361
#     4   9  17  32  55  79 110 149 190 238 287 338
#     4  11  21  35  59  87 119 155 196 243 295 359
#     4  10  21  36  55  86 117 150 201 251 295 347
#     4  10  21  35  53  79 111 152 193 242 292 354
#
# _framework density 18.794916000000001
#
# number of rings (size 3 to 8) (size 9 to 14) (size 15 to 20)
#    0.000    1.857    1.429    3.571    6.000    4.000 
#    0.857    0.000    0.000    0.571    0.000    0.000 
#    0.000    0.000    0.000    0.000    0.000    0.000 
#
# Total GULP energy -468330.610069 kJ/mol
# GULP energy per Si atom -5575.364406 kJ/mol
# Density = 1.875214 g / cm^3
# Si number density = 18.794916 Si / 1000 Ang^3
#
#
#
# Elastic Constant Matrix: (Units=GPa)
#
#
# Indices 1 2 3 4 5 6 
#
# 1 35.8703 1.4619 18.7166 0.0000 -0.4084 0.0000
# 2 1.4619 35.8703 18.7166 0.0000 0.4084 0.0000
# 3 18.7166 18.7166 99.5690 0.0000 0.0000 0.0000
# 4 0.0000 0.0000 0.0000 22.7087 0.0000 0.4084
# 5 -0.4084 0.4084 0.0000 0.0000 22.7087 0.0000
# 6 0.0000 0.0000 0.0000 0.4084 0.0000 17.2042
#
#
#
# Elastic Compliance Matrix: (Units=1/GPa)
#
#
# Indices 1 2 3 4 5 6 
#
# 1 0.031042 0.001967 -0.006205 0.000000 0.000523 0.000000
# 2 0.001967 0.031042 -0.006205 0.000000 -0.000523 0.000000
# 3 -0.006205 -0.006205 0.012376 0.000000 0.000000 0.000000
# 4 0.000000 0.000000 0.000000 0.044055 0.000000 -0.001046
# 5 0.000523 -0.000523 0.000000 0.000000 0.044055 0.000000
# 6 0.000000 0.000000 0.000000 -0.001046 0.000000 0.058150
#
#
# Mechanical properties :
#
#
# Convention : Reuss Voigt Hill
#
# Bulk Modulus (GPa) = 18.66603 27.67776 23.17189
# Shear Modulus (GPa) = 19.27060 21.35196 20.31128
#
# Velocity S-wave (km/s) = 3.20552 3.37419 3.29094
# Velocity P-wave (km/s) = 4.86348 5.47160 5.17648
#
# Compressibility (1/GPa) = 0.05357325
#
# Stress axis : x y z
#
# Youngs Moduli (GPa) = 32.21481 32.21481 80.80162
#
# Poissons Ratio (x) = -0.06335 0.50135
# Poissons Ratio (y) = -0.06335 0.50135
# Poissons Ratio (z) = 0.19989 0.19989
#
# Static dielectric constant tensor:
#      x y z
#    x 1.652960 0.000000 0.000000 
#    y 0.000000 1.652960 0.000000 
#    z 0.000000 0.000000 1.717370 
# 
# From -- ./inp_files/3205.got.cif
#   From: 2010.05.17/outbox.cif.g08.bks.cpg/sg162_2_cif.got.tgz:3205.got - 2010.05.20 10:53:12.
