data_PCOD9577233
_publ_section_title
;
Structure prediction by ZEFSAII (Michael W. Deem and Ramdas Pophale) SiO2 
 PCOD9577233
Probable space group: P 3 M 1
;
_chemical_formula_sum "Si O2"
_cell_formula_units_Z 48
_cell_length_a 12.753630
_cell_length_b 12.753630
_cell_length_c 20.873049
_cell_angle_alpha 90.000000
_cell_angle_beta 90.000000
_cell_angle_gamma 120.000000
_cell_volume 2940.249272
_symmetry_space_group_name_H-M "P 3 M 1"
_symmetry_group_IT_number 156
_symmetry_cell_setting 'hexagonal'
loop_
_space_group_symop_operation_xyz
x,y,z
-y,x-y,z
-x+y,-x,z
-x+y,y,z
x,x-y,z
-y,-x,z
loop_
_atom_site_type_symbol
_atom_site_label
_atom_site_fract_x
_atom_site_fract_y
_atom_site_fract_z
Si Si1 0.915549 0.582316 0.858140
Si Si2 0.666676 0.582037 0.099382
Si Si3 0.751167 0.999322 0.365411
Si Si4 0.582685 0.916019 0.488427
Si Si5 0.666793 0.581226 0.246234
Si Si6 0.333899 0.417753 0.734664
Si Si7 0.916257 0.333824 0.611954
Si Si8 0.000131 0.751958 0.981264
O O1 0.786702 0.573404 0.846315
O O2 0.898832 0.449416 0.865891
O O3 0.004953 0.645078 0.798436
O O4 0.971565 0.660961 0.922030
O O5 0.777673 0.555345 0.092500
O O6 0.540567 0.459434 0.088709
O O7 0.668996 0.622149 0.172887
O O8 0.689937 0.682297 0.046922
O O9 0.774972 0.887486 0.361827
O O10 0.660046 0.973281 0.424222
O O11 0.693003 0.011920 0.299486
O O12 0.875734 0.124267 0.375624
O O13 0.449308 0.898616 0.481939
O O14 0.575367 0.787684 0.499593
O O15 0.646206 0.005370 0.548098
O O16 0.775583 0.551165 0.251320
O O17 0.539378 0.460623 0.257276
O O18 0.205197 0.410394 0.734371
O O19 0.442785 0.557216 0.732132
O O20 0.352261 0.352390 0.673286
O O21 0.886207 0.443104 0.614198
O O22 0.794582 0.205419 0.612567
O O23 0.127362 0.872638 0.973656
O O24 0.890686 0.781372 0.983063
#
# Coordination Sequence:
#
# PCOD9577233 Si02
#       8
#     6   6   6   6   6   6   6   6
#     4  10  20  34  54  78 102 128 160 202 249 294
#     4   9  17  30  50  74  98 124 156 199 248 295
#     4  10  20  33  49  70  98 132 167 201 239 286
#     4  10  20  34  53  75  99 128 163 204 247 292
#     4   9  17  30  49  73  98 124 157 199 248 295
#     4  10  20  34  53  76 103 135 169 204 241 285
#     4  10  20  34  53  76 102 131 163 202 247 293
#     4  10  20  33  49  70  98 132 167 201 239 286
#
# _framework density 16.325147000000001
#
# number of rings (size 3 to 8) (size 9 to 14) (size 15 to 20)
#    0.000    2.250    0.000    3.250    0.000    1.500 
#    0.000    3.750    0.000   14.500    0.000    0.000 
#    0.000    0.000    0.000    0.000    0.000    0.000 
#
# Total GULP energy -267831.506906 kJ/mol
# GULP energy per Si atom -5579.823061 kJ/mol
# Density = 1.628799 g / cm^3
# Si number density = 16.325147 Si / 1000 Ang^3
#
#
#
# Elastic Constant Matrix: (Units=GPa)
#
#
# Indices 1 2 3 4 5 6 
#
# 1 122.3205 83.8868 80.9018 2.7055 0.0000 0.0000
# 2 83.8868 122.3205 80.9018 -2.7055 0.0000 0.0000
# 3 80.9018 80.9018 123.6008 0.0000 0.0000 0.0000
# 4 2.7055 -2.7055 0.0000 21.7131 0.0000 0.0000
# 5 0.0000 0.0000 0.0000 0.0000 21.7131 2.7055
# 6 0.0000 0.0000 0.0000 0.0000 2.7055 19.2169
#
#
#
# Elastic Compliance Matrix: (Units=1/GPa)
#
#
# Indices 1 2 3 4 5 6 
#
# 1 0.018227 -0.008257 -0.006526 -0.003300 0.000000 0.000000
# 2 -0.008257 0.018227 -0.006526 0.003300 0.000000 0.000000
# 3 -0.006526 -0.006526 0.016633 0.000000 0.000000 0.000000
# 4 -0.003300 0.003300 0.000000 0.046878 0.000000 0.000000
# 5 0.000000 0.000000 0.000000 0.000000 0.046878 -0.006600
# 6 0.000000 0.000000 0.000000 0.000000 -0.006600 0.052967
#
#
# Mechanical properties :
#
#
# Convention : Reuss Voigt Hill
#
# Bulk Modulus (GPa) = 95.50863 95.51360 95.51112
# Shear Modulus (GPa) = 20.33220 20.69871 20.51545
#
# Velocity S-wave (km/s) = 3.53293 3.56463 3.54881
# Velocity P-wave (km/s) = 8.67601 8.69345 8.68473
#
# Compressibility (1/GPa) = 0.01047026
#
# Stress axis : x y z
#
# Youngs Moduli (GPa) = 54.86451 54.86451 60.12008
#
# Poissons Ratio (x) = 0.45300 0.39233
# Poissons Ratio (y) = 0.45300 0.39233
# Poissons Ratio (z) = 0.35804 0.35804
#
# Static dielectric constant tensor:
#      x y z
#    x 1.515070 0.000000 0.000000 
#    y 0.000000 1.515070 0.000000 
#    z 0.000000 0.000000 1.543010 
# 
# From -- ./inp_files/1099.got.cif
#   From: 2010.05.17/outbox.cif.g08.bks.cpg/sg156_cif.got.tgz:1099.got - 2010.05.20 10:49:08.
