data_PCOD9577950
_publ_section_title
;
Structure prediction by ZEFSAII (Michael W. Deem and Ramdas Pophale) SiO2 
 PCOD9577950
Probable space group: P -3 1 M 
;
_chemical_formula_sum "Si O2"
_cell_formula_units_Z 64
_cell_length_a 14.445986
_cell_length_b 14.445986
_cell_length_c 18.213846
_cell_angle_alpha 90.000000
_cell_angle_beta 90.000000
_cell_angle_gamma 120.000000
_cell_volume 3291.748689
_symmetry_space_group_name_H-M "P -3 1 M "
_symmetry_group_IT_number 162
_symmetry_cell_setting 'hexagonal'
loop_
_space_group_symop_operation_xyz
x,y,z
-y,x-y,z
-x+y,-x,z
-y,-x,-z
-x+y,y,-z
x,x-y,-z
-x,-y,-z
y,-x+y,-z
x-y,x,-z
y,x,z
x-y,-y,z
-x,-x+y,z
loop_
_atom_site_type_symbol
_atom_site_label
_atom_site_fract_x
_atom_site_fract_y
_atom_site_fract_z
Si Si1 0.577124 0.699900 0.307018
Si Si2 0.327209 0.204540 0.417864
Si Si3 0.786787 0.223122 0.148820
Si Si4 0.629115 0.000000 0.923545
Si Si5 0.333334 0.666668 0.087145
Si Si6 0.590705 0.590705 0.901944
Si Si7 0.548362 0.423381 0.419186
O O1 0.618125 0.618125 0.285306
O O2 0.664670 0.790754 0.360069
O O3 0.565417 0.754627 0.234633
O O4 0.468236 0.635377 0.354893
O O5 0.324189 0.162095 0.500000
O O6 0.235115 0.235115 0.408293
O O7 0.439660 0.314347 0.405567
O O8 0.897148 0.263450 0.105313
O O9 0.750573 0.303176 0.117103
O O10 0.690027 0.105227 0.132545
O O11 0.521717 0.000000 0.893409
O O12 0.614424 0.000000 0.011146
O O13 0.333334 0.666667 0.000000
O O14 0.586914 0.413087 0.500000
O O15 0.516490 0.516490 0.424991
#
# Coordination Sequence:
#
# PCOD9577950 Si02
#       7
#    12  12  12   6   4   6  12
#     4  11  24  42  60  87 130 169 209 262 314 374
#     4  11  22  38  64  91 120 159 209 258 313 376
#     4  12  25  41  65 100 136 175 218 268 332 396
#     4  11  22  44  66  99 133 176 214 271 328 407
#     4  12  24  42  66  96 136 170 211 267 327 399
#     4  11  24  40  72  97 134 173 221 264 336 401
#     4   9  18  36  58  82 117 160 201 246 305 373
#
# _framework density 19.442553
#
# number of rings (size 3 to 8) (size 9 to 14) (size 15 to 20)
#    0.000    1.125    4.688    2.250    3.938    0.000 
#    1.125    0.938    0.000    3.750    2.438    1.312 
#    0.000    0.000    0.000    0.000    0.000    0.000 
#
# Total GULP energy -357451.194259 kJ/mol
# GULP energy per Si atom -5585.174910 kJ/mol
# Density = 1.939830 g / cm^3
# Si number density = 19.442553 Si / 1000 Ang^3
#
#
#
# Elastic Constant Matrix: (Units=GPa)
#
#
# Indices 1 2 3 4 5 6 
#
# 1 178.9450 -82.3007 29.4671 -0.6530 -100.2999 -0.6410
# 2 -82.3007 178.9381 29.4421 0.6672 100.2966 0.6544
# 3 29.4671 29.4421 140.7601 -0.0186 -0.0127 -0.0183
# 4 -0.6530 0.6672 -0.0186 128.1756 0.6738 101.1747
# 5 -100.2999 100.2966 -0.0127 0.6738 127.2801 0.6614
# 6 -0.6410 0.6544 -0.0183 101.1747 0.6614 131.4789
#
#
#
# Elastic Compliance Matrix: (Units=1/GPa)
#
#
# Indices 1 2 3 4 5 6 
#
# 1 0.010777 0.001084 -0.002482 0.000005 0.007638 0.000004
# 2 0.001084 0.010777 -0.002482 -0.000007 -0.007638 -0.000005
# 3 -0.002482 -0.002482 0.008143 0.000001 0.000000 0.000001
# 4 0.000005 -0.000007 0.000001 0.019873 -0.000016 -0.015292
# 5 0.007638 -0.007638 0.000000 -0.000016 0.019894 -0.000012
# 6 0.000004 -0.000005 0.000001 -0.015292 -0.000012 0.019373
#
#
# Mechanical properties :
#
#
# Convention : Reuss Voigt Hill
#
# Bulk Modulus (GPa) = 45.58619 50.20668 47.89643
# Shear Modulus (GPa) = 48.11914 112.18925 80.15419
#
# Velocity S-wave (km/s) = 4.98027 7.60449 6.42773
# Velocity P-wave (km/s) = 7.52119 10.14808 8.93173
#
# Compressibility (1/GPa) = 0.02193647
#
# Stress axis : x y z
#
# Youngs Moduli (GPa) = 92.79349 92.79365 122.80550
#
# Poissons Ratio (x) = -0.10057 0.30480
# Poissons Ratio (y) = -0.10057 0.30476
# Poissons Ratio (z) = 0.23031 0.23028
#
# Static dielectric constant tensor:
#      x y z
#    x 1.694870 0.000000 0.000000 
#    y 0.000000 1.694870 0.000000 
#    z 0.000000 0.000000 1.679870 
# 
# From -- ./inp_files/3485.got.cif
#   From: 2010.05.17/outbox.cif.g08.bks.cpg/sg162_2_cif.got.tgz:3485.got - 2010.05.20 10:53:12.
