data_PCOD9577158
_publ_section_title
;
Structure prediction by ZEFSAII (Michael W. Deem and Ramdas Pophale) SiO2 
 PCOD9577158
Probable space group: R 3 2
;
_chemical_formula_sum "Si O2"
_cell_formula_units_Z 45
_cell_length_a 16.948441
_cell_length_b 16.948441
_cell_length_c 7.875463
_cell_angle_alpha 90.000000
_cell_angle_beta 90.000000
_cell_angle_gamma 120.000000
_cell_volume 1959.143461
_symmetry_space_group_name_H-M "R 3 2"
_symmetry_group_IT_number 155
_symmetry_cell_setting 'hexagonal'
loop_
_space_group_symop_operation_xyz
x,y,z
-y,x-y,z
-x+y,-x,z
x-y,-y,-z
-x,-x+y,-z
y,x,-z
2/3+x,1/3+y,1/3+z
2/3-y,1/3+x-y,1/3+z
2/3-x+y,1/3-x,1/3+z
2/3+x-y,1/3-y,1/3-z
2/3-x,1/3-x+y,1/3-z
2/3+y,1/3+x,1/3-z
1/3+x,2/3+y,2/3+z
1/3-y,2/3+x-y,2/3+z
1/3-x+y,2/3-x,2/3+z
1/3+x-y,2/3-y,2/3-z
1/3-x,2/3-x+y,2/3-z
1/3+y,2/3+x,2/3-z
loop_
_atom_site_type_symbol
_atom_site_label
_atom_site_fract_x
_atom_site_fract_y
_atom_site_fract_z
Si Si1 0.467660 0.230958 0.287402
Si Si2 0.333334 0.390923 0.166667
Si Si3 0.272447 0.100309 0.421183
O O1 0.494357 0.333334 0.333334
O O2 0.552036 0.218702 0.333334
O O3 0.380905 0.153230 0.390203
O O4 0.440925 0.204890 0.092109
O O5 0.329544 0.333334 0.333334
O O6 0.248085 0.406863 0.190634
O O7 0.230869 0.000000 0.500000
#
# Coordination Sequence:
#
# PCOD9577158 Si02
#       3
#    18   9  18
#     4  11  26  48  74 108 152 199 247 309 383 450
#     4  12  26  50  82 108 152 202 256 310 384 460
#     4  11  27  45  76 114 146 192 253 314 375 449
#
# _framework density 22.969218999999999
#
# number of rings (size 3 to 8) (size 9 to 14) (size 15 to 20)
#    0.000    0.800    0.000    6.400   16.800    0.000 
#    1.200    0.000    0.000    0.000    0.000    0.000 
#    0.000    0.000    0.000    0.000    0.000    0.000 
#
# Total GULP energy -83905.018470 kJ/mol
# GULP energy per Si atom -5593.667898 kJ/mol
# Density = 2.291694 g / cm^3
# Si number density = 22.969219 Si / 1000 Ang^3
#
#
#
# Elastic Constant Matrix: (Units=GPa)
#
#
# Indices 1 2 3 4 5 6 
#
# 1 192.4040 96.5685 62.7245 0.1230 -0.0001 0.0000
# 2 96.5685 192.4040 62.7245 -0.1229 0.0002 0.0000
# 3 62.7245 62.7245 101.3794 0.0001 0.0003 0.0001
# 4 0.1230 -0.1229 0.0001 31.0411 0.0001 0.0002
# 5 -0.0001 0.0002 0.0003 0.0001 31.0412 0.1230
# 6 0.0000 0.0000 0.0001 0.0002 0.1230 47.9177
#
#
#
# Elastic Compliance Matrix: (Units=1/GPa)
#
#
# Indices 1 2 3 4 5 6 
#
# 1 0.007583 -0.002852 -0.002927 -0.000041 0.000000 0.000000
# 2 -0.002852 0.007583 -0.002927 0.000041 0.000000 0.000000
# 3 -0.002927 -0.002927 0.013486 0.000000 0.000000 0.000000
# 4 -0.000041 0.000041 0.000000 0.032216 0.000000 0.000000
# 5 0.000000 0.000000 0.000000 0.000000 0.032216 -0.000083
# 6 0.000000 0.000000 0.000000 0.000000 -0.000083 0.020869
#
#
# Mechanical properties :
#
#
# Convention : Reuss Voigt Hill
#
# Bulk Modulus (GPa) = 88.97079 103.35804 96.16442
# Shear Modulus (GPa) = 37.00631 39.61133 38.30882
#
# Velocity S-wave (km/s) = 4.01824 4.15726 4.08834
# Velocity P-wave (km/s) = 7.76835 8.25469 8.01521
#
# Compressibility (1/GPa) = 0.01123964
#
# Stress axis : x y z
#
# Youngs Moduli (GPa) = 131.87386 131.87381 74.14937
#
# Poissons Ratio (x) = 0.37606 0.21706
# Poissons Ratio (y) = 0.37606 0.21706
# Poissons Ratio (z) = 0.38604 0.38604
#
# Static dielectric constant tensor:
#      x y z
#    x 1.857040 0.000000 0.000000 
#    y 0.000000 1.857040 0.000000 
#    z 0.000000 0.000000 1.888470 
# 
# From -- ./inp_files/1570.got.cif
#   From: 2010.05.17/outbox.cif.g08.bks.cpg/sg155_1_cif.got.tgz:1570.got - 2010.05.20 10:44:35.
