data_PCOD9577616
_publ_section_title
;
Structure prediction by ZEFSAII (Michael W. Deem and Ramdas Pophale) SiO2 
 PCOD9577616
Probable space group: R 3 C
;
_chemical_formula_sum "Si O2"
_cell_formula_units_Z 108
_cell_length_a 17.228774
_cell_length_b 17.228774
_cell_length_c 19.063813
_cell_angle_alpha 90.000000
_cell_angle_beta 90.000000
_cell_angle_gamma 120.000000
_cell_volume 4900.598799
_symmetry_space_group_name_H-M "R 3 C"
_symmetry_group_IT_number 161
_symmetry_cell_setting 'hexagonal'
loop_
_space_group_symop_operation_xyz
x,y,z
-y,x-y,z
-x+y,-x,z
-x+y,y,1/2+z
x,x-y,1/2+z
-y,-x,1/2+z
2/3+x,1/3+y,1/3+z
2/3-y,1/3+x-y,1/3+z
2/3-x+y,1/3-x,1/3+z
2/3-x+y,1/3+y,5/6+z
2/3+x,1/3+x-y,5/6+z
2/3-y,1/3-x,5/6+z
1/3+x,2/3+y,2/3+z
1/3-y,2/3+x-y,2/3+z
1/3-x+y,2/3-x,2/3+z
1/3-x+y,2/3+y,1/6+z
1/3+x,2/3+x-y,1/6+z
1/3-y,2/3-x,1/6+z
loop_
_atom_site_type_symbol
_atom_site_label
_atom_site_fract_x
_atom_site_fract_y
_atom_site_fract_z
Si Si1 0.212173 0.966947 0.639393
Si Si2 0.296020 0.472424 0.460713
Si Si3 0.033484 0.841461 0.297272
Si Si4 0.653107 0.688374 0.871609
Si Si5 0.645685 0.221990 0.365092
Si Si6 0.907717 0.194262 0.436676
O O1 0.203775 0.970595 0.722360
O O2 0.173935 0.862633 0.619847
O O3 0.309618 0.015103 0.603410
O O4 0.156942 0.008878 0.601771
O O5 0.240548 0.523515 0.464416
O O6 0.399762 0.541742 0.470879
O O7 0.283561 0.420540 0.388002
O O8 0.255724 0.398188 0.521348
O O9 0.025002 0.773981 0.358339
O O10 0.627764 0.625272 0.804217
O O11 0.740255 0.316560 0.360568
O O12 0.615471 0.144868 0.306630
#
# Coordination Sequence:
#
# PCOD9577616 Si02
#       6
#    18  18  18  18  18  18
#     4  11  24  46  70 106 141 189 243 295 358 435
#     4  12  28  46  76 107 149 186 244 302 366 431
#     4  12  28  46  76 107 149 186 244 302 366 431
#     4  11  26  48  72 105 142 192 236 301 360 436
#     4   9  24  42  72 105 142 192 230 297 366 442
#     4  11  24  46  70 106 141 189 243 295 358 435
#
# _framework density 22.038124
#
# number of rings (size 3 to 8) (size 9 to 14) (size 15 to 20)
#    0.333    0.667    3.333    1.333    9.333    2.667 
#    0.000    0.000    0.000    0.000    0.000    0.000 
#    0.000    0.000    0.000    0.000    0.000    0.000 
#
# Total GULP energy -201158.756925 kJ/mol
# GULP energy per Si atom -5587.743248 kJ/mol
# Density = 2.198796 g / cm^3
# Si number density = 22.038124 Si / 1000 Ang^3
#
#
#
# Elastic Constant Matrix: (Units=GPa)
#
#
# Indices 1 2 3 4 5 6 
#
# 1 56.7685 34.6021 5.1473 9.2277 0.0000 0.0000
# 2 34.6021 56.7685 5.1473 -9.2277 0.0000 0.0000
# 3 5.1473 5.1473 51.2855 0.0000 0.0000 0.0000
# 4 9.2277 -9.2277 0.0000 14.1638 0.0000 0.0000
# 5 0.0000 0.0000 0.0000 0.0000 14.1638 9.2277
# 6 0.0000 0.0000 0.0000 0.0000 9.2277 11.0832
#
#
#
# Elastic Compliance Matrix: (Units=1/GPa)
#
#
# Indices 1 2 3 4 5 6 
#
# 1 0.054831 -0.043761 -0.001111 -0.064232 0.000000 0.000000
# 2 -0.043761 0.054831 -0.001111 0.064232 0.000000 0.000000
# 3 -0.001111 -0.001111 0.019722 0.000000 0.000000 0.000000
# 4 -0.064232 0.064232 0.000000 0.154296 0.000000 0.000000
# 5 0.000000 0.000000 0.000000 0.000000 0.154296 -0.128464
# 6 0.000000 0.000000 0.000000 0.000000 -0.128464 0.197183
#
#
# Mechanical properties :
#
#
# Convention : Reuss Voigt Hill
#
# Bulk Modulus (GPa) = 26.72591 28.29067 27.50829
# Shear Modulus (GPa) = 6.76045 15.87723 11.31884
#
# Velocity S-wave (km/s) = 1.75336 2.68702 2.26874
# Velocity P-wave (km/s) = 4.03144 4.74255 4.40138
#
# Compressibility (1/GPa) = 0.03741687
#
# Stress axis : x y z
#
# Youngs Moduli (GPa) = 18.23800 18.23800 50.70560
#
# Poissons Ratio (x) = 0.79811 0.05633
# Poissons Ratio (y) = 0.79811 0.05633
# Poissons Ratio (z) = 0.02026 0.02026
#
# Static dielectric constant tensor:
#      x y z
#    x 1.798260 0.000000 0.000000 
#    y 0.000000 1.798260 0.000000 
#    z 0.000000 0.000000 1.813290 
# 
# From -- ./inp_files/1685.got.cif
#   From: 2010.05.17/outbox.cif.g08.bks.cpg/sg161_cif.got.tgz:1685.got - 2010.05.20 10:52:32.
