data_PCOD9577192
_publ_section_title
;
Structure prediction by ZEFSAII (Michael W. Deem and Ramdas Pophale) SiO2 
 PCOD9577192
Probable space group: P 3 M 1
;
_chemical_formula_sum "Si O2"
_cell_formula_units_Z 42
_cell_length_a 17.314758
_cell_length_b 17.314758
_cell_length_c 10.590176
_cell_angle_alpha 90.000000
_cell_angle_beta 90.000000
_cell_angle_gamma 120.000000
_cell_volume 2749.581908
_symmetry_space_group_name_H-M "P 3 M 1"
_symmetry_group_IT_number 156
_symmetry_cell_setting 'hexagonal'
loop_
_space_group_symop_operation_xyz
x,y,z
-y,x-y,z
-x+y,-x,z
-x+y,y,z
x,x-y,z
-y,-x,z
loop_
_atom_site_type_symbol
_atom_site_label
_atom_site_fract_x
_atom_site_fract_y
_atom_site_fract_z
Si Si1 0.999039 0.175891 0.680810
Si Si2 0.280880 0.901732 0.754660
Si Si3 0.275636 0.911770 0.031603
Si Si4 0.770740 0.718476 0.422950
Si Si5 0.999643 0.815097 0.157988
Si Si6 0.573715 0.602967 0.506542
Si Si7 0.512492 0.847948 0.262244
O O1 0.073763 0.147526 0.692044
O O2 0.037869 0.271387 0.746855
O O3 0.988222 0.196950 0.535133
O O4 0.903562 0.096439 0.724830
O O5 0.200277 0.799724 0.738176
O O6 0.350793 0.930330 0.641142
O O7 0.319011 0.917084 0.896095
O O8 0.183083 0.816918 0.030222
O O9 0.244290 0.983691 0.056516
O O10 0.331038 0.908638 0.150508
O O11 0.844239 0.688478 0.412447
O O12 0.774586 0.768059 0.292960
O O13 0.674996 0.637316 0.462885
O O14 0.085836 0.914165 0.157264
O O15 0.909090 0.818180 0.139915
O O16 0.502189 0.497812 0.511963
O O17 0.539622 0.643401 0.397083
O O18 0.413201 0.826402 0.233143
O O19 0.518298 0.759149 0.268025
#
# Coordination Sequence:
#
# PCOD9577192 Si02
#       7
#     6   6   6   6   6   6   6
#     4   9  16  25  40  62  90 123 158 192 226 266
#     4   9  18  31  45  63  90 125 157 187 233 281
#     4   9  18  31  45  62  90 125 157 191 231 276
#     4   9  17  29  45  66  93 123 152 189 233 280
#     4  10  18  28  44  67  97 131 167 200 231 268
#     4  10  19  31  50  72  91 115 150 195 238 280
#     4  10  19  31  48  68  90 116 149 190 234 279
#
# _framework density 15.275048999999999
#
# number of rings (size 3 to 8) (size 9 to 14) (size 15 to 20)
#    0.000    2.571    1.429    1.286    0.000    2.286 
#    0.000    1.429    0.000    2.286    0.000    0.000 
#    0.000    0.000    0.000    1.857    0.000    0.000 
#
# Total GULP energy -233879.947076 kJ/mol
# GULP energy per Si atom -5568.570168 kJ/mol
# Density = 1.524028 g / cm^3
# Si number density = 15.275049 Si / 1000 Ang^3
#
#
#
# Elastic Constant Matrix: (Units=GPa)
#
#
# Indices 1 2 3 4 5 6 
#
# 1 50.2193 12.2888 16.3189 0.2599 -0.0003 0.0000
# 2 12.2888 50.2193 16.3189 -0.2599 0.0003 0.0000
# 3 16.3189 16.3189 88.4899 0.0000 0.0000 0.0000
# 4 0.2599 -0.2599 0.0000 11.4538 0.0000 0.0003
# 5 -0.0003 0.0003 0.0000 0.0000 11.4538 0.2599
# 6 0.0000 0.0000 0.0000 0.0003 0.2599 18.9653
#
#
#
# Elastic Compliance Matrix: (Units=1/GPa)
#
#
# Indices 1 2 3 4 5 6 
#
# 1 0.022037 -0.004335 -0.003265 -0.000598 0.000001 0.000000
# 2 -0.004335 0.022037 -0.003265 0.000598 -0.000001 0.000000
# 3 -0.003265 -0.003265 0.012505 0.000000 0.000000 0.000000
# 4 -0.000598 0.000598 0.000000 0.087335 0.000000 -0.000001
# 5 0.000001 -0.000001 0.000000 0.000000 0.087335 -0.001197
# 6 0.000000 0.000000 0.000000 -0.000001 -0.001197 0.052744
#
#
# Mechanical properties :
#
#
# Convention : Reuss Voigt Hill
#
# Bulk Modulus (GPa) = 28.69329 30.97576 29.83453
# Shear Modulus (GPa) = 15.75605 17.97469 16.86537
#
# Velocity S-wave (km/s) = 3.21517 3.43408 3.32642
# Velocity P-wave (km/s) = 5.71036 6.00388 5.85896
#
# Compressibility (1/GPa) = 0.03485135
#
# Stress axis : x y z
#
# Youngs Moduli (GPa) = 45.37754 45.37754 79.96914
#
# Poissons Ratio (x) = 0.19670 0.26107
# Poissons Ratio (y) = 0.19670 0.26107
# Poissons Ratio (z) = 0.14814 0.14814
#
# Static dielectric constant tensor:
#      x y z
#    x 1.493970 0.000000 0.000000 
#    y 0.000000 1.493970 0.000000 
#    z 0.000000 0.000000 1.534450 
# 
# From -- ./inp_files/491.got.cif
#   From: 2010.05.17/outbox.cif.g08.bks.cpg/sg156_cif.got.tgz:491.got - 2010.05.20 10:49:08.
