data_PCOD9577563
_publ_section_title
;
Structure prediction by ZEFSAII (Michael W. Deem and Ramdas Pophale) SiO2 
 PCOD9577563
Probable space group: R 3 C
;
_chemical_formula_sum "Si O2"
_cell_formula_units_Z 108
_cell_length_a 15.572216
_cell_length_b 15.572216
_cell_length_c 18.687244
_cell_angle_alpha 90.000000
_cell_angle_beta 90.000000
_cell_angle_gamma 120.000000
_cell_volume 3924.431258
_symmetry_space_group_name_H-M "R 3 C"
_symmetry_group_IT_number 161
_symmetry_cell_setting 'hexagonal'
loop_
_space_group_symop_operation_xyz
x,y,z
-y,x-y,z
-x+y,-x,z
-x+y,y,1/2+z
x,x-y,1/2+z
-y,-x,1/2+z
2/3+x,1/3+y,1/3+z
2/3-y,1/3+x-y,1/3+z
2/3-x+y,1/3-x,1/3+z
2/3-x+y,1/3+y,5/6+z
2/3+x,1/3+x-y,5/6+z
2/3-y,1/3-x,5/6+z
1/3+x,2/3+y,2/3+z
1/3-y,2/3+x-y,2/3+z
1/3-x+y,2/3-x,2/3+z
1/3-x+y,2/3+y,1/6+z
1/3+x,2/3+x-y,1/6+z
1/3-y,2/3-x,1/6+z
loop_
_atom_site_type_symbol
_atom_site_label
_atom_site_fract_x
_atom_site_fract_y
_atom_site_fract_z
Si Si1 0.135014 0.746215 0.365102
Si Si2 0.807503 0.785243 0.042693
Si Si3 0.462090 0.265646 0.134984
Si Si4 0.196425 0.734324 0.594468
Si Si5 0.451874 0.140799 0.020095
Si Si6 0.079557 0.277883 0.531017
O O1 0.144223 0.689982 0.295016
O O2 0.085349 0.665199 0.428998
O O3 0.103436 0.824509 0.336098
O O4 0.246332 0.828521 0.385329
O O5 0.907668 0.838232 0.996991
O O6 0.754625 0.666683 0.031393
O O7 0.751178 0.838174 0.010789
O O8 0.530252 0.333315 0.198062
O O9 0.504881 0.240967 0.065794
O O10 0.229870 0.842121 0.560015
O O11 0.086796 0.668127 0.633789
O O12 0.454208 0.144185 0.934439
#
# Coordination Sequence:
#
# PCOD9577563 Si02
#       6
#    18  18  18  18  18  18
#     4  11  22  44  69 104 142 196 249 314 391 474
#     4  10  22  40  67  98 140 191 244 309 386 468
#     4  11  24  42  69 106 143 191 253 317 391 462
#     4  11  24  42  69 106 143 191 253 317 391 462
#     4  10  22  40  67  98 140 191 244 309 386 468
#     4  11  22  44  69 104 142 196 249 314 391 474
#
# _framework density 27.519912000000001
#
# number of rings (size 3 to 8) (size 9 to 14) (size 15 to 20)
#    0.000    1.333    3.333    2.000    0.000    1.333 
#    2.000    1.667    0.000    0.000    0.000    0.000 
#    0.000    0.000    0.000    0.000    0.000    0.000 
#
# Total GULP energy -200765.962450 kJ/mol
# GULP energy per Si atom -5576.832290 kJ/mol
# Density = 2.745728 g / cm^3
# Si number density = 27.519912 Si / 1000 Ang^3
#
#
#
# Elastic Constant Matrix: (Units=GPa)
#
#
# Indices 1 2 3 4 5 6 
#
# 1 76.4452 21.7015 45.3453 -10.3723 0.0000 0.0000
# 2 21.7015 76.4452 45.3453 10.3723 0.0000 0.0000
# 3 45.3453 45.3453 156.4320 0.0000 0.0000 0.0000
# 4 -10.3723 10.3723 0.0000 31.1775 0.0000 0.0000
# 5 0.0000 0.0000 0.0000 0.0000 31.1775 -10.3723
# 6 0.0000 0.0000 0.0000 0.0000 -10.3723 27.3719
#
#
#
# Elastic Compliance Matrix: (Units=1/GPa)
#
#
# Indices 1 2 3 4 5 6 
#
# 1 0.017409 -0.003493 -0.004034 0.006954 0.000000 0.000000
# 2 -0.003493 0.017409 -0.004034 -0.006954 0.000000 0.000000
# 3 -0.004034 -0.004034 0.008731 0.000000 0.000000 0.000000
# 4 0.006954 -0.006954 0.000000 0.036701 0.000000 0.000000
# 5 0.000000 0.000000 0.000000 0.000000 0.036701 0.013908
# 6 0.000000 0.000000 0.000000 0.000000 0.013908 0.041804
#
#
# Mechanical properties :
#
#
# Convention : Reuss Voigt Hill
#
# Bulk Modulus (GPa) = 48.95233 59.34519 54.14876
# Shear Modulus (GPa) = 26.49894 31.07407 28.78650
#
# Velocity S-wave (km/s) = 3.10643 3.36393 3.23774
# Velocity P-wave (km/s) = 5.54014 6.05799 5.80484
#
# Compressibility (1/GPa) = 0.02042804
#
# Stress axis : x y z
#
# Youngs Moduli (GPa) = 57.44103 57.44103 114.53152
#
# Poissons Ratio (x) = 0.20063 0.46202
# Poissons Ratio (y) = 0.20063 0.46202
# Poissons Ratio (z) = 0.23171 0.23171
#
# Static dielectric constant tensor:
#      x y z
#    x 2.188730 0.000000 0.000000 
#    y 0.000000 2.188730 0.000000 
#    z 0.000000 0.000000 2.230960 
# 
# From -- ./inp_files/1664.got.cif
#   From: 2010.05.17/outbox.cif.g08.bks.cpg/sg161_cif.got.tgz:1664.got - 2010.05.20 10:52:32.
