data_PCOD9577046
_publ_section_title
;
Structure prediction by ZEFSAII (Michael W. Deem and Ramdas Pophale) SiO2 
 PCOD9577046
Probable space group: R 3 2
;
_chemical_formula_sum "Si O2"
_cell_formula_units_Z 90
_cell_length_a 17.510427
_cell_length_b 17.510427
_cell_length_c 14.270703
_cell_angle_alpha 90.000000
_cell_angle_beta 90.000000
_cell_angle_gamma 120.000000
_cell_volume 3789.391467
_symmetry_space_group_name_H-M "R 3 2"
_symmetry_group_IT_number 155
_symmetry_cell_setting 'hexagonal'
loop_
_space_group_symop_operation_xyz
x,y,z
-y,x-y,z
-x+y,-x,z
x-y,-y,-z
-x,-x+y,-z
y,x,-z
2/3+x,1/3+y,1/3+z
2/3-y,1/3+x-y,1/3+z
2/3-x+y,1/3-x,1/3+z
2/3+x-y,1/3-y,1/3-z
2/3-x,1/3-x+y,1/3-z
2/3+y,1/3+x,1/3-z
1/3+x,2/3+y,2/3+z
1/3-y,2/3+x-y,2/3+z
1/3-x+y,2/3-x,2/3+z
1/3+x-y,2/3-y,2/3-z
1/3-x,2/3-x+y,2/3-z
1/3+y,2/3+x,2/3-z
loop_
_atom_site_type_symbol
_atom_site_label
_atom_site_fract_x
_atom_site_fract_y
_atom_site_fract_z
Si Si1 0.184299 0.022526 0.632995
Si Si2 0.501845 0.146046 0.192532
Si Si3 0.026962 0.666667 0.666667
Si Si4 0.828440 0.517632 0.200338
Si Si5 0.306373 0.000000 0.500000
Si Si6 0.187287 0.164822 0.359198
O O1 0.190179 0.023840 0.745485
O O2 0.159741 0.097130 0.609618
O O3 0.271047 0.041415 0.577668
O O4 0.109514 0.922859 0.608325
O O5 0.506927 0.236204 0.223715
O O6 0.589525 0.146677 0.225009
O O7 0.408894 0.060805 0.216052
O O8 0.103702 0.708083 0.744334
O O9 0.014757 0.742228 0.617281
O O10 0.833006 0.523513 0.087849
#
# Coordination Sequence:
#
# PCOD9577046 Si02
#       6
#    18  18   9  18   9  18
#     4  10  23  43  65  93 127 170 215 256 320 376
#     4  10  23  43  67  90 131 171 208 262 321 379
#     4  12  24  38  66 102 126 162 214 270 312 374
#     4  10  23  43  65  93 127 170 215 256 320 376
#     4  12  24  38  66 102 126 162 214 270 312 374
#     4  10  23  43  67  90 131 171 208 262 321 379
#
# _framework density 23.750515
#
# number of rings (size 3 to 8) (size 9 to 14) (size 15 to 20)
#    0.000    1.600    0.000    3.200   11.200    4.800 
#    7.200    0.000    0.000    0.000    0.000    0.000 
#    0.000    0.000    0.000    0.000    0.000    0.000 
#
# Total GULP energy -167945.275444 kJ/mol
# GULP energy per Si atom -5598.175848 kJ/mol
# Density = 2.369646 g / cm^3
# Si number density = 23.750515 Si / 1000 Ang^3
#
#
#
# Elastic Constant Matrix: (Units=GPa)
#
#
# Indices 1 2 3 4 5 6 
#
# 1 110.7095 78.3972 -0.6106 7.9785 0.0003 0.0000
# 2 78.3972 110.7095 -0.6106 -7.9785 -0.0003 0.0000
# 3 -0.6106 -0.6106 92.7487 0.0000 0.0000 0.0000
# 4 7.9785 -7.9785 0.0000 11.6657 0.0000 -0.0003
# 5 0.0003 -0.0003 0.0000 0.0000 11.6657 7.9785
# 6 0.0000 0.0000 0.0000 -0.0003 7.9785 16.1561
#
#
#
# Elastic Compliance Matrix: (Units=1/GPa)
#
#
# Indices 1 2 3 4 5 6 
#
# 1 0.026010 -0.020722 0.000035 -0.031961 -0.000001 0.000000
# 2 -0.020722 0.026010 0.000035 0.031961 0.000001 0.000000
# 3 0.000035 0.000035 0.010782 0.000000 0.000000 0.000000
# 4 -0.031961 0.031961 0.000000 0.129440 0.000000 0.000003
# 5 -0.000001 0.000001 0.000000 0.000000 0.129440 -0.063922
# 6 0.000000 0.000000 0.000000 0.000003 -0.063922 0.093463
#
#
# Mechanical properties :
#
#
# Convention : Reuss Voigt Hill
#
# Bulk Modulus (GPa) = 46.51588 52.05773 49.28681
# Shear Modulus (GPa) = 10.78481 23.69696 17.24088
#
# Velocity S-wave (km/s) = 2.13324 3.16214 2.69721
# Velocity P-wave (km/s) = 5.06906 5.94124 5.52239
#
# Compressibility (1/GPa) = 0.02149803
#
# Stress axis : x y z
#
# Youngs Moduli (GPa) = 38.44685 38.44685 92.74478
#
# Poissons Ratio (x) = 0.79668 -0.00323
# Poissons Ratio (y) = 0.79668 -0.00323
# Poissons Ratio (z) = -0.00134 -0.00134
#
# Static dielectric constant tensor:
#      x y z
#    x 1.846320 0.000000 0.000000 
#    y 0.000000 1.846320 0.000000 
#    z 0.000000 0.000000 1.946380 
# 
# From -- ./inp_files/6171.got.cif
#   From: 2010.05.17/outbox.cif.g08.bks.cpg/sg155_4_cif.got.tgz:6171.got - 2010.05.20 10:44:35.
