data_PCOD9577139
_publ_section_title
;
Structure prediction by ZEFSAII (Michael W. Deem and Ramdas Pophale) SiO2 
 PCOD9577139
Probable space group: R 3 2
;
_chemical_formula_sum "Si O2"
_cell_formula_units_Z 108
_cell_length_a 22.613429
_cell_length_b 22.613429
_cell_length_c 11.728622
_cell_angle_alpha 90.000000
_cell_angle_beta 90.000000
_cell_angle_gamma 120.000000
_cell_volume 5194.101894
_symmetry_space_group_name_H-M "R 3 2"
_symmetry_group_IT_number 155
_symmetry_cell_setting 'hexagonal'
loop_
_space_group_symop_operation_xyz
x,y,z
-y,x-y,z
-x+y,-x,z
x-y,-y,-z
-x,-x+y,-z
y,x,-z
2/3+x,1/3+y,1/3+z
2/3-y,1/3+x-y,1/3+z
2/3-x+y,1/3-x,1/3+z
2/3+x-y,1/3-y,1/3-z
2/3-x,1/3-x+y,1/3-z
2/3+y,1/3+x,1/3-z
1/3+x,2/3+y,2/3+z
1/3-y,2/3+x-y,2/3+z
1/3-x+y,2/3-x,2/3+z
1/3+x-y,2/3-y,2/3-z
1/3-x,2/3-x+y,2/3-z
1/3+y,2/3+x,2/3-z
loop_
_atom_site_type_symbol
_atom_site_label
_atom_site_fract_x
_atom_site_fract_y
_atom_site_fract_z
Si Si1 0.520580 0.407808 0.534574
Si Si2 0.374833 0.406766 0.274088
Si Si3 0.077020 0.507605 0.042370
Si Si4 0.763558 0.828887 0.633040
Si Si5 0.855106 0.251718 0.328039
Si Si6 0.493602 0.901464 0.834023
O O1 0.459106 0.397804 0.619501
O O2 0.581961 0.438680 0.623793
O O3 0.547929 0.466576 0.439493
O O4 0.494810 0.334184 0.480536
O O5 0.333334 0.412769 0.166667
O O6 0.329005 0.333334 0.333334
O O7 0.439528 0.407209 0.214979
O O8 0.085431 0.520344 0.177113
O O9 0.117979 0.467077 0.028861
O O10 0.098933 0.574716 0.967068
O O11 0.000000 0.458437 0.000000
O O12 0.685192 0.781850 0.673846
O O13 0.901676 0.333334 0.333334
O O14 0.806272 0.233017 0.438012
#
# Coordination Sequence:
#
# PCOD9577139 Si02
#       6
#    18  18  18  18  18  18
#     4  12  26  40  66  99 140 180 229 275 350 422
#     4  12  25  39  62  97 143 190 220 274 339 420
#     4  11  23  45  65  98 134 178 230 282 351 413
#     4  11  25  41  70  97 134 177 230 288 346 422
#     4  12  25  45  68  99 137 182 227 291 348 413
#     4  12  26  41  64  97 143 178 223 281 345 422
#
# _framework density 20.792815000000001
#
# number of rings (size 3 to 8) (size 9 to 14) (size 15 to 20)
#    0.000    0.333    5.000    3.500    7.000    0.000 
#    0.000    0.000    0.000    9.333    0.000    0.000 
#    0.000    0.000    0.000    0.000    0.000    0.000 
#
# Total GULP energy -200972.698529 kJ/mol
# GULP energy per Si atom -5582.574959 kJ/mol
# Density = 2.074549 g / cm^3
# Si number density = 20.792815 Si / 1000 Ang^3
#
#
#
# Elastic Constant Matrix: (Units=GPa)
#
#
# Indices 1 2 3 4 5 6 
#
# 1 66.6659 22.5818 14.3772 0.8490 0.0003 0.0000
# 2 22.5818 66.6659 14.3771 -0.8490 -0.0003 0.0000
# 3 14.3772 14.3771 93.7939 0.0000 0.0001 0.0000
# 4 0.8490 -0.8490 0.0000 30.0187 0.0000 -0.0003
# 5 0.0003 -0.0003 0.0001 0.0000 30.0188 0.8491
# 6 0.0000 0.0000 0.0000 -0.0003 0.8491 22.0420
#
#
#
# Elastic Compliance Matrix: (Units=1/GPa)
#
#
# Indices 1 2 3 4 5 6 
#
# 1 0.017248 -0.005461 -0.001807 -0.000642 0.000000 0.000000
# 2 -0.005461 0.017248 -0.001807 0.000642 0.000000 0.000000
# 3 -0.001807 -0.001807 0.011216 0.000000 0.000000 0.000000
# 4 -0.000642 0.000642 0.000000 0.033349 0.000000 0.000000
# 5 0.000000 0.000000 0.000000 0.000000 0.033349 -0.001285
# 6 0.000000 0.000000 0.000000 0.000000 -0.001285 0.045417
#
#
# Mechanical properties :
#
#
# Convention : Reuss Voigt Hill
#
# Bulk Modulus (GPa) = 36.28137 36.64419 36.46278
# Shear Modulus (GPa) = 27.00333 28.13522 27.56928
#
# Velocity S-wave (km/s) = 3.60764 3.68247 3.64525
# Velocity P-wave (km/s) = 5.90257 5.97851 5.94066
#
# Compressibility (1/GPa) = 0.02756236
#
# Stress axis : x y z
#
# Youngs Moduli (GPa) = 57.97849 57.97852 89.16184
#
# Poissons Ratio (x) = 0.31661 0.16109
# Poissons Ratio (y) = 0.31661 0.16109
# Poissons Ratio (z) = 0.10475 0.10475
#
# Static dielectric constant tensor:
#      x y z
#    x 1.748150 0.000000 0.000000 
#    y 0.000000 1.748150 0.000000 
#    z 0.000000 0.000000 1.866740 
# 
# From -- ./inp_files/4090.got.cif
#   From: 2010.05.17/outbox.cif.g08.bks.cpg/sg155_3_cif.got.tgz:4090.got - 2010.05.20 10:44:35.
