data_PCOD9577188
_publ_section_title
;
Structure prediction by ZEFSAII (Michael W. Deem and Ramdas Pophale) SiO2 
 PCOD9577188
Probable space group: R 3 2
;
_chemical_formula_sum "Si O2"
_cell_formula_units_Z 36
_cell_length_a 24.000000
_cell_length_b 24.000000
_cell_length_c 12.000000
_cell_angle_alpha 90.000000
_cell_angle_beta 90.000000
_cell_angle_gamma 120.000000
_cell_volume 5985.967591
_symmetry_space_group_name_H-M "R 3 2"
_symmetry_group_IT_number 155
_symmetry_cell_setting 'hexagonal'
loop_
_space_group_symop_operation_xyz
x,y,z
-y,x-y,z
-x+y,-x,z
x-y,-y,-z
-x,-x+y,-z
y,x,-z
2/3+x,1/3+y,1/3+z
2/3-y,1/3+x-y,1/3+z
2/3-x+y,1/3-x,1/3+z
2/3+x-y,1/3-y,1/3-z
2/3-x,1/3-x+y,1/3-z
2/3+y,1/3+x,1/3-z
1/3+x,2/3+y,2/3+z
1/3-y,2/3+x-y,2/3+z
1/3-x+y,2/3-x,2/3+z
1/3+x-y,2/3-y,2/3-z
1/3-x,2/3-x+y,2/3-z
1/3+y,2/3+x,2/3-z
loop_
_atom_site_type_symbol
_atom_site_label
_atom_site_fract_x
_atom_site_fract_y
_atom_site_fract_z
Si Si1 0.066607 0.404343 0.839654
Si Si2 0.818636 0.136612 0.418755
Si Si3 0.889717 0.666667 0.666667
Si Si4 0.594329 0.118318 0.377592
Si Si5 0.110429 0.403720 0.072008
Si Si6 0.426279 0.364535 0.576995
Si Si7 0.500944 0.167611 0.333334
O O1 0.122909 0.460441 0.770678
O O2 0.059734 0.333334 0.833334
O O3 0.000363 0.393567 0.788069
O O4 0.078362 0.418947 0.968982
O O5 0.819671 0.134646 0.553691
O O6 0.787516 0.176823 0.363982
O O7 0.891319 0.163586 0.376332
O O8 0.774796 0.068292 0.360727
O O9 0.900086 0.609868 0.613984
O O10 0.666667 0.150837 0.333334
O O11 0.603878 0.095424 0.500811
O O12 0.566073 0.166325 0.360079
O O13 0.121211 0.454545 0.166667
O O14 0.379295 0.379295 0.500000
#
# Coordination Sequence:
#
# PCOD9577188 Si02
#       7
#    18  18   9  18  18  18   9
#     4  11  18  34  52  80 110 149 189 221 281 351
#     4  11  22  36  57  87 116 154 190 238 302 358
#     4  12  22  34  61  86 119 154 194 244 304 348
#     4  11  22  40  55  85 113 152 204 252 296 356
#     4  11  22  33  53  81 120 155 190 225 277 363
#     4  10  21  37  59  83 118 151 195 242 294 359
#     4  12  22  36  63  76 115 158 198 248 304 344
#
# _framework density 6.0140650000000004
#
# number of rings (size 3 to 8) (size 9 to 14) (size 15 to 20)
#    0.000    1.000    5.000    4.000    4.667    1.333 
#    0.500    0.000    0.000    0.000    0.000    0.000 
#    0.000    0.000    0.000    1.000    0.000    0.000 
#
# Total GULP energy -200552.448548 kJ/mol
# GULP energy per Si atom -5570.901349 kJ/mol
# Density = 0.600038 g / cm^3
# Si number density = 6.014065 Si / 1000 Ang^3
#
#
#
# Elastic Constant Matrix: (Units=GPa)
#
#
# Indices 1 2 3 4 5 6 
#
# 1 50.1433 1.5730 6.4346 -2.3118 0.0000 0.0000
# 2 1.5730 50.1433 6.4346 2.3118 0.0000 0.0000
# 3 6.4346 6.4346 112.1151 -0.0001 -0.0001 0.0000
# 4 -2.3118 2.3118 -0.0001 18.1970 -0.0001 0.0000
# 5 0.0000 0.0000 -0.0001 -0.0001 18.1970 -2.3118
# 6 0.0000 0.0000 0.0000 0.0000 -2.3118 24.2852
#
#
#
# Elastic Compliance Matrix: (Units=1/GPa)
#
#
# Indices 1 2 3 4 5 6 
#
# 1 0.020229 -0.000612 -0.001126 0.002648 0.000000 0.000000
# 2 -0.000612 0.020229 -0.001126 -0.002648 0.000000 0.000000
# 3 -0.001126 -0.001126 0.009049 0.000000 0.000000 0.000000
# 4 0.002648 -0.002648 0.000000 0.055627 0.000000 0.000000
# 5 0.000000 0.000000 0.000000 0.000000 0.055627 0.005295
# 6 0.000000 0.000000 0.000000 0.000000 0.005295 0.041682
#
#
# Mechanical properties :
#
#
# Convention : Reuss Voigt Hill
#
# Bulk Modulus (GPa) = 22.84249 26.80958 24.82604
# Shear Modulus (GPa) = 22.44552 25.33313 23.88932
#
# Velocity S-wave (km/s) = 3.53095 3.75120 3.64274
# Velocity P-wave (km/s) = 5.41401 5.80118 5.61094
#
# Compressibility (1/GPa) = 0.04377806
#
# Stress axis : x y z
#
# Youngs Moduli (GPa) = 49.43502 49.43503 110.51389
#
# Poissons Ratio (x) = 0.03026 0.12442
# Poissons Ratio (y) = 0.03026 0.12442
# Poissons Ratio (z) = 0.05566 0.05566
#
# Static dielectric constant tensor:
#      x y z
#    x 1.649480 0.000000 0.000000 
#    y 0.000000 1.649480 0.000000 
#    z 0.000000 0.000000 1.682880 
# 
# From -- ./inp_files/4124.got.cif
#   From: 2010.05.17/outbox.ucp.g08.bks.cvg/sg155_3_cif.got.tgz:4124.got - 2010.06.11 15:13:48.
