data_PCOD9577388
_publ_section_title
;
Structure prediction by ZEFSAII (Michael W. Deem and Ramdas Pophale) SiO2 
 PCOD9577388
Probable space group: P 3 1 C
;
_chemical_formula_sum "Si O2"
_cell_formula_units_Z 42
_cell_length_a 8.640921
_cell_length_b 8.640921
_cell_length_c 33.009644
_cell_angle_alpha 90.000000
_cell_angle_beta 90.000000
_cell_angle_gamma 120.000000
_cell_volume 2134.477305
_symmetry_space_group_name_H-M "P 3 1 C"
_symmetry_group_IT_number 159
_symmetry_cell_setting 'hexagonal'
loop_
_space_group_symop_operation_xyz
x,y,z
-y,x-y,z
-x+y,-x,z
y,x,1/2+z
x-y,-y,1/2+z
-x,-x+y,1/2+z
loop_
_atom_site_type_symbol
_atom_site_label
_atom_site_fract_x
_atom_site_fract_y
_atom_site_fract_z
Si Si1 0.687247 0.547375 0.608190
Si Si2 0.334204 0.340614 0.485403
Si Si3 0.001965 0.330285 0.274461
Si Si4 0.986878 0.197362 0.685251
Si Si5 0.667642 0.675741 0.019163
Si Si6 0.340260 0.465966 0.395559
Si Si7 0.337349 0.339039 0.808342
O O1 0.509443 0.350606 0.608685
O O2 0.707872 0.667882 0.646637
O O3 0.696458 0.647367 0.566812
O O4 0.475763 0.527080 0.505649
O O5 0.142145 0.280581 0.504803
O O6 0.335036 0.373943 0.437663
O O7 0.385144 0.192003 0.496387
O O8 0.011897 0.305548 0.226600
O O9 0.194551 0.388876 0.293020
O O10 0.947043 0.474266 0.287301
O O11 0.860416 0.141260 0.293880
O O12 0.160664 0.172058 0.684832
O O13 0.502949 0.672201 0.394153
O O14 0.350779 0.363287 0.356552
#
# Coordination Sequence:
#
# PCOD9577388 Si02
#       7
#     6   6   6   6   6   6   6
#     4  10  23  41  65 100 133 172 227 273 336 408
#     4  12  24  42  72  94 144 180 227 284 339 406
#     4  12  24  45  65 105 133 186 223 276 346 407
#     4  10  23  41  65  98 134 174 219 278 333 403
#     4  12  24  45  65 105 135 188 222 282 342 409
#     4  10  20  42  66 102 130 175 232 278 346 402
#     4  12  24  42  72  94 141 177 226 285 334 407
#
# _framework density 19.676946999999998
#
# number of rings (size 3 to 8) (size 9 to 14) (size 15 to 20)
#    0.857    0.000    5.714    1.714    4.000    2.286 
#    0.000    0.000    0.000    0.571    0.000    0.000 
#    0.000    0.000    0.000    0.000    0.000    0.000 
#
# Total GULP energy -234545.843025 kJ/mol
# GULP energy per Si atom -5584.424834 kJ/mol
# Density = 1.963216 g / cm^3
# Si number density = 19.676947 Si / 1000 Ang^3
#
#
#
# Elastic Constant Matrix: (Units=GPa)
#
#
# Indices 1 2 3 4 5 6 
#
# 1 49.6328 4.5953 43.1350 0.0000 -0.3124 0.0000
# 2 4.5953 49.6328 43.1350 0.0000 0.3124 0.0000
# 3 43.1350 43.1350 234.2063 0.0000 0.0000 0.0000
# 4 0.0000 0.0000 0.0000 7.6041 0.0000 0.3124
# 5 -0.3124 0.3124 0.0000 0.0000 7.6041 0.0000
# 6 0.0000 0.0000 0.0000 0.3124 0.0000 22.5188
#
#
#
# Elastic Compliance Matrix: (Units=1/GPa)
#
#
# Indices 1 2 3 4 5 6 
#
# 1 0.024150 0.001933 -0.004804 0.000000 0.000913 0.000000
# 2 0.001933 0.024150 -0.004804 0.000000 -0.000913 0.000000
# 3 -0.004804 -0.004804 0.006039 0.000000 0.000000 0.000000
# 4 0.000000 0.000000 0.000000 0.131583 0.000000 -0.001825
# 5 0.000913 -0.000913 0.000000 0.000000 0.131583 0.000000
# 6 0.000000 0.000000 0.000000 -0.001825 0.000000 0.044433
#
#
# Mechanical properties :
#
#
# Convention : Reuss Voigt Hill
#
# Bulk Modulus (GPa) = 25.64774 57.24472 41.44623
# Shear Modulus (GPa) = 12.81121 23.71916 18.26519
#
# Velocity S-wave (km/s) = 2.55439 3.47570 3.05003
# Velocity P-wave (km/s) = 4.66504 6.72776 5.78901
#
# Compressibility (1/GPa) = 0.03898979
#
# Stress axis : x y z
#
# Youngs Moduli (GPa) = 41.40845 41.40845 165.58392
#
# Poissons Ratio (x) = -0.08005 0.79544
# Poissons Ratio (y) = -0.08005 0.79544
# Poissons Ratio (z) = 0.19892 0.19892
#
# Static dielectric constant tensor:
#      x y z
#    x 1.721240 0.000000 0.000000 
#    y 0.000000 1.721240 0.000000 
#    z 0.000000 0.000000 1.650850 
# 
# From -- ./inp_files/1315.got.cif
#   From: 2010.05.17/outbox.cif.g08.bks.cpg/sg159_cif.got.tgz:1315.got - 2010.05.20 10:50:30.
