data_PCOD9577736
_publ_section_title
;
Structure prediction by ZEFSAII (Michael W. Deem and Ramdas Pophale) SiO2 
 PCOD9577736
Probable space group: P -3 1 M 
;
_chemical_formula_sum "Si O2"
_cell_formula_units_Z 72
_cell_length_a 23.016355
_cell_length_b 23.016355
_cell_length_c 8.904109
_cell_angle_alpha 90.000000
_cell_angle_beta 90.000000
_cell_angle_gamma 120.000000
_cell_volume 4085.020067
_symmetry_space_group_name_H-M "P -3 1 M "
_symmetry_group_IT_number 162
_symmetry_cell_setting 'hexagonal'
loop_
_space_group_symop_operation_xyz
x,y,z
-y,x-y,z
-x+y,-x,z
-y,-x,-z
-x+y,y,-z
x,x-y,-z
-x,-y,-z
y,-x+y,-z
x-y,x,-z
y,x,z
x-y,-y,z
-x,-x+y,z
loop_
_atom_site_type_symbol
_atom_site_label
_atom_site_fract_x
_atom_site_fract_y
_atom_site_fract_z
Si Si1 0.796399 0.172538 0.830982
Si Si2 0.535179 0.921925 0.116000
Si Si3 0.476307 0.788891 0.901426
Si Si4 0.075560 0.396564 0.347760
Si Si5 0.147664 0.591438 0.669618
Si Si6 0.652648 0.727073 0.684188
O O1 0.753657 0.211773 0.831851
O O2 0.739828 0.101867 0.768947
O O3 0.860378 0.203613 0.723987
O O4 0.821831 0.178170 0.000000
O O5 0.477673 0.900649 0.243113
O O6 0.597325 0.922114 0.198732
O O7 0.564085 0.000000 0.064219
O O8 0.505483 0.860371 0.994521
O O9 0.426441 0.790322 0.778895
O O10 0.444871 0.722436 0.000000
O O11 0.114201 0.476209 0.339627
O O12 0.080888 0.374902 0.516092
O O13 0.000000 0.372740 0.312003
O O14 0.163008 0.581504 0.500000
O O15 0.716605 0.716605 0.698593
#
# Coordination Sequence:
#
# PCOD9577736 Si02
#       6
#    12  12  12  12  12  12
#     4  10  19  34  51  75 103 139 177 210 254 322
#     4  11  21  35  55  80 105 131 170 221 280 328
#     4  10  21  38  53  73 106 135 172 208 269 339
#     4  10  21  34  53  79 113 142 171 218 276 335
#     4  11  22  35  54  83 107 132 170 227 286 331
#     4  10  19  33  53  78 105 136 170 216 267 324
#
# _framework density 17.625371999999999
#
# number of rings (size 3 to 8) (size 9 to 14) (size 15 to 20)
#    0.000    1.667    5.000    1.500    0.000    5.333 
#    0.000    0.833    0.000    2.667    0.000    0.000 
#    0.000    0.000    0.000    0.500    0.000    9.667 
#
# Total GULP energy -401266.100579 kJ/mol
# GULP energy per Si atom -5573.140286 kJ/mol
# Density = 1.758526 g / cm^3
# Si number density = 17.625372 Si / 1000 Ang^3
#
#
#
# Elastic Constant Matrix: (Units=GPa)
#
#
# Indices 1 2 3 4 5 6 
#
# 1 43.7731 22.6234 31.1207 0.0000 -3.1292 0.0000
# 2 22.6234 43.7731 31.1207 0.0000 3.1292 0.0000
# 3 31.1207 31.1207 87.3687 0.0000 0.0000 0.0000
# 4 0.0000 0.0000 0.0000 20.3244 0.0000 3.1292
# 5 -3.1292 3.1292 0.0000 0.0000 20.3244 0.0000
# 6 0.0000 0.0000 0.0000 3.1292 0.0000 10.5749
#
#
#
# Elastic Compliance Matrix: (Units=1/GPa)
#
#
# Indices 1 2 3 4 5 6 
#
# 1 0.036075 -0.013464 -0.008054 0.000000 0.007627 0.000000
# 2 -0.013464 0.036075 -0.008054 0.000000 -0.007627 0.000000
# 3 -0.008054 -0.008054 0.017183 0.000000 0.000000 0.000000
# 4 0.000000 0.000000 0.000000 0.051550 0.000000 -0.015254
# 5 0.007627 -0.007627 0.000000 0.000000 0.051550 0.000000
# 6 0.000000 0.000000 0.000000 -0.015254 0.000000 0.099078
#
#
# Mechanical properties :
#
#
# Convention : Reuss Voigt Hill
#
# Bulk Modulus (GPa) = 33.12425 38.29384 35.70904
# Shear Modulus (GPa) = 13.86121 16.24808 15.05465
#
# Velocity S-wave (km/s) = 2.80739 3.03950 2.92575
# Velocity P-wave (km/s) = 5.41691 5.83882 5.63182
#
# Compressibility (1/GPa) = 0.03018936
#
# Stress axis : x y z
#
# Youngs Moduli (GPa) = 27.72009 27.72009 58.19556
#
# Poissons Ratio (x) = 0.37322 0.46871
# Poissons Ratio (y) = 0.37322 0.46871
# Poissons Ratio (z) = 0.22326 0.22326
#
# Static dielectric constant tensor:
#      x y z
#    x 1.623510 0.000000 0.000000 
#    y 0.000000 1.623510 0.000000 
#    z 0.000000 0.000000 1.691230 
# 
# From -- ./inp_files/1710.got.cif
#   From: 2010.05.17/outbox.cif.g08.bks.cpg/sg162_1_cif.got.tgz:1710.got - 2010.05.20 10:53:12.
