data_PCOD9577477
_publ_section_title
;
Structure prediction by ZEFSAII (Michael W. Deem and Ramdas Pophale) SiO2 
 PCOD9577477
Probable space group: R 3 M
;
_chemical_formula_sum "Si O2"
_cell_formula_units_Z 126
_cell_length_a 18.047065
_cell_length_b 18.047065
_cell_length_c 24.708172
_cell_angle_alpha 90.000000
_cell_angle_beta 90.000000
_cell_angle_gamma 120.000000
_cell_volume 6969.223826
_symmetry_space_group_name_H-M "R 3 M"
_symmetry_group_IT_number 160
_symmetry_cell_setting 'hexagonal'
loop_
_space_group_symop_operation_xyz
x,y,z
-y,x-y,z
-x+y,-x,z
-x+y,y,z
x,x-y,z
-y,-x,z
2/3+x,1/3+y,1/3+z
2/3-y,1/3+x-y,1/3+z
2/3-x+y,1/3-x,1/3+z
2/3-x+y,1/3+y,1/3+z
2/3+x,1/3+x-y,1/3+z
2/3-y,1/3-x,1/3+z
1/3+x,2/3+y,2/3+z
1/3-y,2/3+x-y,2/3+z
1/3-x+y,2/3-x,2/3+z
1/3-x+y,2/3+y,2/3+z
1/3+x,2/3+x-y,2/3+z
1/3-y,2/3-x,2/3+z
loop_
_atom_site_type_symbol
_atom_site_label
_atom_site_fract_x
_atom_site_fract_y
_atom_site_fract_z
Si Si1 0.170500 0.170181 0.697040
Si Si2 0.501610 0.835175 0.818848
Si Si3 0.463797 0.369534 0.606059
Si Si4 0.615784 0.893482 0.257760
Si Si5 0.695924 0.763687 0.792073
Si Si6 0.666172 0.502555 0.726555
Si Si7 0.724763 0.101282 0.824186
O O1 0.183101 0.091550 0.716125
O O2 0.213078 0.197529 0.638339
O O3 0.215065 0.251992 0.736321
O O4 0.070875 0.141749 0.695080
O O5 0.427847 0.855694 0.804190
O O6 0.475286 0.737643 0.805898
O O7 0.517921 0.845882 0.883809
O O8 0.593740 0.895024 0.791214
O O9 0.527445 0.472556 0.606123
O O10 0.361469 0.321210 0.603306
O O11 0.482108 0.337664 0.662699
O O12 0.646822 0.823411 0.256633
O O13 0.576272 0.896997 0.200691
O O14 0.706099 0.853050 0.812853
O O15 0.733566 0.716193 0.827457
O O16 0.738463 0.476927 0.735739
O O17 0.573864 0.426137 0.743047
O O18 0.694013 0.585206 0.763911
O O19 0.813287 0.186714 0.834779
#
# Coordination Sequence:
#
# PCOD9577477 Si02
#       7
#    18  18  18  18  18  18  18
#     4  10  21  38  59  82 106 138 182 232 280 325
#     4  10  19  32  52  79 110 145 184 224 266 316
#     4  10  20  33  52  77 106 145 187 221 256 306
#     4  11  21  35  56  79 110 147 180 220 268 317
#     4  10  21  36  55  76 102 136 176 226 278 321
#     4  10  20  33  50  76 111 148 182 213 251 306
#     4  11  22  35  53  79 108 141 179 218 265 323
#
# _framework density 18.079488999999999
#
# number of rings (size 3 to 8) (size 9 to 14) (size 15 to 20)
#    0.000    1.714    1.429    3.857    0.000    2.857 
#    0.000    2.143    0.000    5.143    0.000    0.000 
#    0.000    0.000    0.000    0.000    0.000    0.000 
#
# Total GULP energy -234109.319885 kJ/mol
# GULP energy per Si atom -5574.031426 kJ/mol
# Density = 1.803834 g / cm^3
# Si number density = 18.079489 Si / 1000 Ang^3
#
#
#
# Elastic Constant Matrix: (Units=GPa)
#
#
# Indices 1 2 3 4 5 6 
#
# 1 89.8839 42.0824 32.6295 1.4827 -0.0002 0.0000
# 2 42.0824 89.8839 32.6295 -1.4827 0.0002 0.0000
# 3 32.6295 32.6295 64.7441 0.0000 0.0000 0.0000
# 4 1.4827 -1.4827 0.0000 18.7009 0.0000 0.0002
# 5 -0.0002 0.0002 0.0000 0.0000 18.7009 1.4827
# 6 0.0000 0.0000 0.0000 0.0002 1.4827 23.9008
#
#
#
# Elastic Compliance Matrix: (Units=1/GPa)
#
#
# Indices 1 2 3 4 5 6 
#
# 1 0.015558 -0.005465 -0.005087 -0.001667 0.000000 0.000000
# 2 -0.005465 0.015558 -0.005087 0.001667 0.000000 0.000000
# 3 -0.005087 -0.005087 0.020573 0.000000 0.000000 0.000000
# 4 -0.001667 0.001667 0.000000 0.053738 0.000000 0.000000
# 5 0.000000 0.000000 0.000000 0.000000 0.053738 -0.003334
# 6 0.000000 0.000000 0.000000 0.000000 -0.003334 0.042046
#
#
# Mechanical properties :
#
#
# Convention : Reuss Voigt Hill
#
# Bulk Modulus (GPa) = 48.99071 51.02164 50.00617
# Shear Modulus (GPa) = 20.89500 21.40521 21.15011
#
# Velocity S-wave (km/s) = 3.40329 3.44459 3.42400
# Velocity P-wave (km/s) = 6.52682 6.64095 6.58414
#
# Compressibility (1/GPa) = 0.02041203
#
# Stress axis : x y z
#
# Youngs Moduli (GPa) = 64.27485 64.27485 48.60845
#
# Poissons Ratio (x) = 0.35127 0.24726
# Poissons Ratio (y) = 0.35127 0.24726
# Poissons Ratio (z) = 0.32695 0.32695
#
# Static dielectric constant tensor:
#      x y z
#    x 1.634320 0.000000 0.000000 
#    y 0.000000 1.634320 0.000000 
#    z 0.000000 0.000000 1.610750 
# 
# From -- ./inp_files/3753.got.cif
#   From: 2010.05.17/outbox.cif.g08.bks.cpg/sg160_2_cif.got.tgz:3753.got - 2010.05.20 10:51:19.
