data_PCOD9577787
_publ_section_title
;
Structure prediction by ZEFSAII (Michael W. Deem and Ramdas Pophale) SiO2 
 PCOD9577787
Probable space group: P -3 1 M 
;
_chemical_formula_sum "Si O2"
_cell_formula_units_Z 48
_cell_length_a 19.488388
_cell_length_b 19.488388
_cell_length_c 8.100595
_cell_angle_alpha 90.000000
_cell_angle_beta 90.000000
_cell_angle_gamma 120.000000
_cell_volume 2664.399763
_symmetry_space_group_name_H-M "P -3 1 M "
_symmetry_group_IT_number 162
_symmetry_cell_setting 'hexagonal'
loop_
_space_group_symop_operation_xyz
x,y,z
-y,x-y,z
-x+y,-x,z
-y,-x,-z
-x+y,y,-z
x,x-y,-z
-x,-y,-z
y,-x+y,-z
x-y,x,-z
y,x,z
x-y,-y,z
-x,-x+y,z
loop_
_atom_site_type_symbol
_atom_site_label
_atom_site_fract_x
_atom_site_fract_y
_atom_site_fract_z
Si Si1 0.511997 0.178135 0.943096
Si Si2 0.760121 0.086782 0.445715
Si Si3 0.668136 0.756869 0.952883
Si Si4 0.615000 0.522332 0.603755
O O1 0.422573 0.120552 0.008827
O O2 0.504403 0.157260 0.748541
O O3 0.581013 0.162026 0.000000
O O4 0.531320 0.265660 0.000000
O O5 0.843509 0.156492 0.500000
O O6 0.755078 0.086295 0.246556
O O7 0.688184 0.099959 0.502516
O O8 0.739807 0.000000 0.501068
O O9 0.725488 0.725488 0.014156
O O10 0.690479 0.845240 0.000000
O O11 0.551743 0.448258 0.500000
O O12 0.568576 0.568576 0.666760
#
# Coordination Sequence:
#
# PCOD9577787 Si02
#       4
#    12  12  12  12
#     4  10  20  34  50  71 103 140 176 218 263 305
#     4   9  18  33  51  73 101 129 163 207 250 295
#     4   9  19  34  52  76 104 131 163 207 253 302
#     4   9  19  34  51  74 103 134 173 221 267 314
#
# _framework density 18.015312999999999
#
# number of rings (size 3 to 8) (size 9 to 14) (size 15 to 20)
#    0.000    2.750    0.000    2.500    0.000    9.000 
#    0.000    2.500    0.000    2.500    0.000    0.000 
#    0.000    0.000    0.000    0.000    0.000    0.000 
#
# Total GULP energy -267306.199695 kJ/mol
# GULP energy per Si atom -5568.879160 kJ/mol
# Density = 1.797431 g / cm^3
# Si number density = 18.015313 Si / 1000 Ang^3
#
#
#
# Elastic Constant Matrix: (Units=GPa)
#
#
# Indices 1 2 3 4 5 6 
#
# 1 136.3236 100.7571 26.3167 -0.0001 0.6173 0.0000
# 2 100.7571 136.3236 26.3167 0.0001 -0.6173 0.0000
# 3 26.3167 26.3167 24.6534 0.0000 0.0000 0.0000
# 4 -0.0001 0.0001 0.0000 26.8938 0.0000 -0.6173
# 5 0.6173 -0.6173 0.0000 0.0000 26.8938 -0.0001
# 6 0.0000 0.0000 0.0000 -0.6173 -0.0001 17.7833
#
#
#
# Elastic Compliance Matrix: (Units=1/GPa)
#
#
# Indices 1 2 3 4 5 6 
#
# 1 0.016833 -0.011305 -0.005901 0.000000 -0.000646 0.000000
# 2 -0.011305 0.016833 -0.005901 0.000000 0.000646 0.000000
# 3 -0.005901 -0.005901 0.053161 0.000000 0.000000 0.000000
# 4 0.000000 0.000000 0.000000 0.037213 0.000000 0.001292
# 5 -0.000646 0.000646 0.000000 0.000000 0.037213 0.000000
# 6 0.000000 0.000000 0.000000 0.001292 0.000000 0.056277
#
#
# Mechanical properties :
#
#
# Convention : Reuss Voigt Hill
#
# Bulk Modulus (GPa) = 24.62284 67.12016 45.87150
# Shear Modulus (GPa) = 18.03212 23.90817 20.97015
#
# Velocity S-wave (km/s) = 3.16718 3.64689 3.41547
# Velocity P-wave (km/s) = 5.20309 7.42100 6.40872
#
# Compressibility (1/GPa) = 0.04061269
#
# Stress axis : x y z
#
# Youngs Moduli (GPa) = 59.40575 59.40575 18.81094
#
# Poissons Ratio (x) = 0.67160 0.11100
# Poissons Ratio (y) = 0.67160 0.11100
# Poissons Ratio (z) = 0.35055 0.35055
#
# Static dielectric constant tensor:
#      x y z
#    x 1.626100 0.000000 0.000000 
#    y 0.000000 1.626100 0.000000 
#    z 0.000000 0.000000 1.658540 
# 
# From -- ./inp_files/1181.got.cif
#   From: 2010.05.17/outbox.cif.g08.bks.cpg/sg162_1_cif.got.tgz:1181.got - 2010.05.20 10:53:12.
