data_PCOD9577645
_publ_section_title
;
Structure prediction by ZEFSAII (Michael W. Deem and Ramdas Pophale) SiO2 
 PCOD9577645
Probable space group: P -3 1 M 
;
_chemical_formula_sum "Si O2"
_cell_formula_units_Z 84
_cell_length_a 20.848218
_cell_length_b 20.848218
_cell_length_c 18.524842
_cell_angle_alpha 90.000000
_cell_angle_beta 90.000000
_cell_angle_gamma 120.000000
_cell_volume 6973.053920
_symmetry_space_group_name_H-M "P -3 1 M "
_symmetry_group_IT_number 162
_symmetry_cell_setting 'hexagonal'
loop_
_space_group_symop_operation_xyz
x,y,z
-y,x-y,z
-x+y,-x,z
-y,-x,-z
-x+y,y,-z
x,x-y,-z
-x,-y,-z
y,-x+y,-z
x-y,x,-z
y,x,z
x-y,-y,z
-x,-x+y,z
loop_
_atom_site_type_symbol
_atom_site_label
_atom_site_fract_x
_atom_site_fract_y
_atom_site_fract_z
Si Si1 0.667427 0.179735 0.359007
Si Si2 0.512308 0.179735 0.359007
Si Si3 0.535673 0.620010 0.781184
Si Si4 0.620010 0.084337 0.781184
Si Si5 0.084975 0.464732 0.500000
Si Si6 0.486299 0.819413 0.082404
Si Si7 0.666886 0.180587 0.917596
O O1 0.594588 0.189177 0.359368
O O2 0.741042 0.258958 0.361644
O O3 0.663553 0.135397 0.286521
O O4 0.660740 0.130236 0.428374
O O5 0.471844 0.135397 0.286521
O O6 0.469495 0.130236 0.428374
O O7 0.600979 0.600979 0.774352
O O8 0.459236 0.540764 0.780561
O O9 0.535227 0.657627 0.856543
O O10 0.657627 0.122400 0.856543
O O11 0.600979 0.000000 0.774352
O O12 0.081618 0.540809 0.500000
O O13 0.000000 0.399118 0.500000
O O14 0.403288 0.806576 0.089664
O O15 0.484231 0.742115 0.092869
O O16 0.510486 0.844934 0.000000
#
# Coordination Sequence:
#
# PCOD9577645 Si02
#       7
#    12  12  12  12  12  12  12
#     4  10  18  27  39  54  71  89 112 144 181 216
#     4  10  18  27  39  54  71  89 112 144 181 216
#     4   9  17  27  37  49  66  89 115 141 172 213
#     4   9  17  27  37  49  66  89 115 141 172 213
#     4   9  17  28  40  52  68  91 114 136 168 212
#     4   9  16  25  37  52  69  88 111 142 181 220
#     4   9  16  25  37  52  69  88 111 142 181 220
#
# _framework density 12.046372
#
# number of rings (size 3 to 8) (size 9 to 14) (size 15 to 20)
#    0.000    2.714    0.000    2.714    0.000    5.143 
#    0.000    7.143    0.000    0.000    0.000    0.000 
#    0.000    0.000    0.000    0.000    0.000    0.000 
#
# Total GULP energy -467817.294155 kJ/mol
# GULP energy per Si atom -5569.253502 kJ/mol
# Density = 1.201895 g / cm^3
# Si number density = 12.046372 Si / 1000 Ang^3
#
#
#
# Elastic Constant Matrix: (Units=GPa)
#
#
# Indices 1 2 3 4 5 6 
#
# 1 57.4800 32.1997 48.3392 0.0000 0.0000 0.0000
# 2 32.1997 57.4800 48.3392 0.0000 0.0000 0.0000
# 3 48.3392 48.3392 113.3342 0.0000 0.0000 0.0000
# 4 0.0000 0.0000 0.0000 13.9282 0.0000 0.0000
# 5 0.0000 0.0000 0.0000 0.0000 13.9282 0.0000
# 6 0.0000 0.0000 0.0000 0.0000 0.0000 12.6401
#
#
#
# Elastic Compliance Matrix: (Units=1/GPa)
#
#
# Indices 1 2 3 4 5 6 
#
# 1 0.030099 -0.009457 -0.008804 0.000000 0.000000 0.000000
# 2 -0.009457 0.030099 -0.008804 0.000000 0.000000 0.000000
# 3 -0.008804 -0.008804 0.016334 0.000000 0.000000 0.000000
# 4 0.000000 0.000000 0.000000 0.071797 0.000000 0.000000
# 5 0.000000 0.000000 0.000000 0.000000 0.071797 0.000000
# 6 0.000000 0.000000 0.000000 0.000000 0.000000 0.079113
#
#
# Mechanical properties :
#
#
# Convention : Reuss Voigt Hill
#
# Bulk Modulus (GPa) = 44.64068 54.00561 49.32315
# Shear Modulus (GPa) = 13.85664 14.72704 14.29184
#
# Velocity S-wave (km/s) = 3.39525 3.50026 3.44816
# Velocity P-wave (km/s) = 7.24625 7.82717 7.54230
#
# Compressibility (1/GPa) = 0.02240109
#
# Stress axis : x y z
#
# Youngs Moduli (GPa) = 33.22328 33.22328 61.22244
#
# Poissons Ratio (x) = 0.31420 0.53902
# Poissons Ratio (y) = 0.31420 0.53902
# Poissons Ratio (z) = 0.29251 0.29251
#
# Static dielectric constant tensor:
#      x y z
#    x 1.366670 0.000000 0.000000 
#    y 0.000000 1.366670 0.000000 
#    z 0.000000 0.000000 1.414270 
# 
# From -- ./inp_files/3861.got.cif
#   From: 2010.05.17/outbox.cif.g08.bks.cpg/sg162_2_cif.got.tgz:3861.got - 2010.05.20 10:53:12.
