data_PCOD9577315
_publ_section_title
;
Structure prediction by ZEFSAII (Michael W. Deem and Ramdas Pophale) SiO2 
 PCOD9577315
Probable space group: P 3 C 1
;
_chemical_formula_sum "Si O2"
_cell_formula_units_Z 28
_cell_length_a 8.502054
_cell_length_b 8.502054
_cell_length_c 23.640579
_cell_angle_alpha 90.000000
_cell_angle_beta 90.000000
_cell_angle_gamma 120.000000
_cell_volume 1479.913932
_symmetry_space_group_name_H-M "P 3 C 1"
_symmetry_group_IT_number 158
_symmetry_cell_setting 'hexagonal'
loop_
_space_group_symop_operation_xyz
x,y,z
-y,x-y,z
-x+y,-x,z
-x+y,y,1/2+z
x,x-y,1/2+z
-y,-x,1/2+z
loop_
_atom_site_type_symbol
_atom_site_label
_atom_site_fract_x
_atom_site_fract_y
_atom_site_fract_z
Si Si1 0.333334 0.666668 0.236635
Si Si2 0.334795 0.290491 0.982837
Si Si3 0.032241 0.664119 0.314550
Si Si4 0.333334 0.666667 0.602560
Si Si5 0.330784 0.965211 0.024645
Si Si6 0.710971 0.042843 0.856358
O O1 0.154728 0.665575 0.261970
O O2 0.333334 0.666667 0.169597
O O3 0.333335 0.222167 0.919597
O O4 0.180611 0.346206 0.986760
O O5 0.520424 0.472696 0.996163
O O6 0.299510 0.136235 0.028729
O O7 0.829941 0.632844 0.310466
O O8 0.012873 0.498929 0.352435
O O9 0.146242 0.860638 0.343033
O O10 0.511942 0.844178 0.577224
#
# Coordination Sequence:
#
# PCOD9577315 Si02
#       6
#     2   6   6   2   6   6
#     4   9  21  45  64  80 112 153 201 261 298 326
#     4  11  19  33  52  82 118 151 181 229 286 352
#     4  10  22  34  55  84 114 152 198 232 283 354
#     4   9  21  45  64  80 112 153 201 261 298 326
#     4  10  22  34  55  84 114 152 198 232 283 354
#     4  11  19  33  52  82 118 151 181 229 286 352
#
# _framework density 18.920019
#
# number of rings (size 3 to 8) (size 9 to 14) (size 15 to 20)
#    0.000    1.714    0.000    6.429    0.000    0.000 
#    0.000    8.571    0.000    0.000    0.000    0.000 
#    0.000    0.000    0.000    0.000    0.000    0.000 
#
# Total GULP energy -156067.111692 kJ/mol
# GULP energy per Si atom -5573.825418 kJ/mol
# Density = 1.887696 g / cm^3
# Si number density = 18.920019 Si / 1000 Ang^3
#
#
#
# Elastic Constant Matrix: (Units=GPa)
#
#
# Indices 1 2 3 4 5 6 
#
# 1 73.5550 8.4370 32.2430 -0.8890 0.0000 0.0000
# 2 8.4370 73.5552 32.2429 0.8891 0.0000 0.0000
# 3 32.2430 32.2429 117.0493 0.0001 0.0000 0.0000
# 4 -0.8890 0.8891 0.0001 15.2177 0.0000 0.0000
# 5 0.0000 0.0000 0.0000 0.0000 15.2176 -0.8890
# 6 0.0000 0.0000 0.0000 0.0000 -0.8890 32.5591
#
#
#
# Elastic Compliance Matrix: (Units=1/GPa)
#
#
# Indices 1 2 3 4 5 6 
#
# 1 0.015475 0.000094 -0.004289 0.000899 0.000000 0.000000
# 2 0.000094 0.015475 -0.004289 -0.000899 0.000000 0.000000
# 3 -0.004289 -0.004289 0.010906 0.000000 0.000000 0.000000
# 4 0.000899 -0.000899 0.000000 0.065818 0.000000 0.000000
# 5 0.000000 0.000000 0.000000 0.000000 0.065818 0.001797
# 6 0.000000 0.000000 0.000000 0.000000 0.001797 0.030762
#
#
# Mechanical properties :
#
#
# Convention : Reuss Voigt Hill
#
# Bulk Modulus (GPa) = 40.17711 45.55613 42.86662
# Shear Modulus (GPa) = 21.78464 25.34798 23.56631
#
# Velocity S-wave (km/s) = 3.39692 3.66422 3.53310
# Velocity P-wave (km/s) = 6.05531 6.48325 6.27293
#
# Compressibility (1/GPa) = 0.02488979
#
# Stress axis : x y z
#
# Youngs Moduli (GPa) = 64.61883 64.61906 91.69058
#
# Poissons Ratio (x) = -0.00608 0.39325
# Poissons Ratio (y) = -0.00608 0.39324
# Poissons Ratio (z) = 0.27714 0.27714
#
# Static dielectric constant tensor:
#      x y z
#    x 1.696510 0.000000 0.000000 
#    y 0.000000 1.696510 0.000000 
#    z 0.000000 0.000000 1.597850 
# 
# From -- ./inp_files/735.got.cif
#   From: 2010.05.17/outbox.cif.g08.bks.cpg/sg158_cif.got.tgz:735.got - 2010.05.20 10:49:59.
