data_PCOD9577036
_publ_section_title
;
Structure prediction by ZEFSAII (Michael W. Deem and Ramdas Pophale) SiO2 
 PCOD9577036
Probable space group: R 3 2
;
_chemical_formula_sum "Si O2"
_cell_formula_units_Z 45
_cell_length_a 8.948482
_cell_length_b 8.948482
_cell_length_c 33.589844
_cell_angle_alpha 90.000000
_cell_angle_beta 90.000000
_cell_angle_gamma 120.000000
_cell_volume 2329.363984
_symmetry_space_group_name_H-M "R 3 2"
_symmetry_group_IT_number 155
_symmetry_cell_setting 'hexagonal'
loop_
_space_group_symop_operation_xyz
x,y,z
-y,x-y,z
-x+y,-x,z
x-y,-y,-z
-x,-x+y,-z
y,x,-z
2/3+x,1/3+y,1/3+z
2/3-y,1/3+x-y,1/3+z
2/3-x+y,1/3-x,1/3+z
2/3+x-y,1/3-y,1/3-z
2/3-x,1/3-x+y,1/3-z
2/3+y,1/3+x,1/3-z
1/3+x,2/3+y,2/3+z
1/3-y,2/3+x-y,2/3+z
1/3-x+y,2/3-x,2/3+z
1/3+x-y,2/3-y,2/3-z
1/3-x,2/3-x+y,2/3-z
1/3+y,2/3+x,2/3-z
loop_
_atom_site_type_symbol
_atom_site_label
_atom_site_fract_x
_atom_site_fract_y
_atom_site_fract_z
Si Si1 0.669376 0.660520 0.920232
Si Si2 0.333334 0.666668 0.291605
Si Si3 0.333334 0.666668 0.618726
Si Si4 0.530681 0.666667 0.166667
Si Si5 0.333334 0.666667 0.946572
O O1 0.640574 0.486745 0.941540
O O2 0.846765 0.819346 0.935843
O O3 0.672141 0.628936 0.873221
O O4 0.513936 0.692359 0.931254
O O5 0.333334 0.666667 0.339012
O O6 0.333334 0.666668 0.666667
O O7 0.494493 0.827826 0.166667
#
# Coordination Sequence:
#
# PCOD9577036 Si02
#       5
#    18   6   6   9   6
#     4  12  25  44  72  97 138 182 222 283 338 397
#     4  12  21  46  68  97 141 180 217 287 337 402
#     4  12  27  46  68 106 141 177 229 278 334 408
#     4  10  22  46  72  94 134 176 228 280 340 398
#     4  12  27  40  68 106 132 177 235 266 346 411
#
# _framework density 19.318577000000001
#
# number of rings (size 3 to 8) (size 9 to 14) (size 15 to 20)
#    0.400    0.000    4.000    6.000    0.000    3.200 
#    0.000    0.000    0.000    0.000    0.000    0.000 
#    0.000    0.000    0.000    0.000    0.000    0.000 
#
# Total GULP energy -83938.790560 kJ/mol
# GULP energy per Si atom -5595.919371 kJ/mol
# Density = 1.927461 g / cm^3
# Si number density = 19.318577 Si / 1000 Ang^3
#
#
#
# Elastic Constant Matrix: (Units=GPa)
#
#
# Indices 1 2 3 4 5 6 
#
# 1 32.1461 14.6408 35.6574 36.1337 0.0213 -0.0166
# 2 14.6408 32.1829 35.6543 -36.1060 -0.0244 0.0191
# 3 35.6574 35.6543 236.8199 -0.0001 -0.0037 0.0031
# 4 36.1337 -36.1060 -0.0001 -15.4962 -0.0224 0.0172
# 5 0.0213 -0.0244 -0.0037 -0.0224 -14.9878 35.7054
# 6 -0.0166 0.0191 0.0031 0.0172 35.7054 9.0976
#
#
#
# Elastic Compliance Matrix: (Units=1/GPa)
#
#
# Indices 1 2 3 4 5 6 
#
# 1 0.016545 0.011173 -0.004173 0.012547 -0.000005 0.000003
# 2 0.011173 0.016559 -0.004175 -0.012529 0.000003 -0.000002
# 3 -0.004173 -0.004175 0.005480 -0.000003 0.000000 0.000000
# 4 0.012547 -0.012529 -0.000003 -0.006083 0.000019 -0.000012
# 5 -0.000005 0.000003 0.000000 0.000019 -0.006447 0.025301
# 6 0.000003 -0.000002 0.000000 -0.000012 0.025301 0.010620
#
#
# Mechanical properties :
#
#
# Convention : Reuss Voigt Hill
#
# Bulk Modulus (GPa) = 22.60787 52.56155 37.58471
# Shear Modulus (GPa) = 109.24183 10.06914 59.65549
#
# Velocity S-wave (km/s) = 7.52797 2.28549 5.56299
# Velocity P-wave (km/s) = 9.34283 5.85077 7.79487
#
# Compressibility (1/GPa) = 0.04423239
#
# Stress axis : x y z
#
# Youngs Moduli (GPa) = 60.44045 60.39063 182.49525
#
# Poissons Ratio (x) = -0.67474 0.76161
# Poissons Ratio (y) = -0.67530 0.76197
# Poissons Ratio (z) = 0.25224 0.25215
#
# Static dielectric constant tensor:
#      x y z
#    x 1.715420 -0.000040 0.000000 
#    y -0.000040 1.714640 0.000010 
#    z 0.000000 0.000010 1.629030 
# 
# From -- ./inp_files/8179.got.cif
#   From: 2010.05.17/outbox.cif.g08.bks.cpg/sg155_5_cif.got.tgz:8179.got - 2010.05.20 10:44:35.
