data_PCOD9577501
_publ_section_title
;
Structure prediction by ZEFSAII (Michael W. Deem and Ramdas Pophale) SiO2 
 PCOD9577501
Probable space group: R 3 M
;
_chemical_formula_sum "Si O2"
_cell_formula_units_Z 108
_cell_length_a 20.392299
_cell_length_b 20.392299
_cell_length_c 15.797630
_cell_angle_alpha 90.000000
_cell_angle_beta 90.000000
_cell_angle_gamma 120.000000
_cell_volume 5689.249109
_symmetry_space_group_name_H-M "R 3 M"
_symmetry_group_IT_number 160
_symmetry_cell_setting 'hexagonal'
loop_
_space_group_symop_operation_xyz
x,y,z
-y,x-y,z
-x+y,-x,z
-x+y,y,z
x,x-y,z
-y,-x,z
2/3+x,1/3+y,1/3+z
2/3-y,1/3+x-y,1/3+z
2/3-x+y,1/3-x,1/3+z
2/3-x+y,1/3+y,1/3+z
2/3+x,1/3+x-y,1/3+z
2/3-y,1/3-x,1/3+z
1/3+x,2/3+y,2/3+z
1/3-y,2/3+x-y,2/3+z
1/3-x+y,2/3-x,2/3+z
1/3-x+y,2/3+y,2/3+z
1/3+x,2/3+x-y,2/3+z
1/3-y,2/3-x,2/3+z
loop_
_atom_site_type_symbol
_atom_site_label
_atom_site_fract_x
_atom_site_fract_y
_atom_site_fract_z
Si Si1 0.959002 0.198203 0.818587
Si Si2 0.176107 0.510641 0.312241
Si Si3 0.707591 0.572362 0.494991
Si Si4 0.333327 0.823736 0.656757
Si Si5 0.823878 0.334547 0.668041
Si Si6 0.923692 0.333452 0.823461
O O1 0.881779 0.118222 0.820032
O O2 0.002810 0.195360 0.735621
O O3 0.935996 0.262163 0.813804
O O4 0.001042 0.201829 0.905813
O O5 0.254998 0.509996 0.305386
O O6 0.190769 0.595385 0.306309
O O7 0.120124 0.459948 0.237952
O O8 0.784676 0.569352 0.493546
O O9 0.665518 0.534007 0.407760
O O10 0.663761 0.525835 0.578006
O O11 0.730846 0.659400 0.499736
O O12 0.407896 0.815792 0.658431
O O13 0.258828 0.741173 0.655019
O O14 0.809051 0.404526 0.673920
O O15 0.745066 0.254935 0.674912
O O16 0.879908 0.339995 0.742351
#
# Coordination Sequence:
#
# PCOD9577501 Si02
#       6
#    18  18  18  18  18  18
#     4  10  23  40  60  90 124 162 204 248 306 371
#     4  11  23  41  65  92 122 161 210 263 312 360
#     4  10  23  40  60  90 124 162 204 248 306 371
#     4  10  21  40  64  92 123 160 206 256 306 358
#     4  11  23  41  65  92 122 161 210 263 312 360
#     4  12  24  40  60  90 126 168 204 246 308 374
#
# _framework density 18.983174000000002
#
# number of rings (size 3 to 8) (size 9 to 14) (size 15 to 20)
#    0.000    1.333    0.000    5.500    4.667    2.667 
#    0.000    6.667    0.000    0.000    0.000    0.000 
#    0.000    0.000    0.000    0.000    0.000    0.000 
#
# Total GULP energy -201223.955103 kJ/mol
# GULP energy per Si atom -5589.554308 kJ/mol
# Density = 1.893997 g / cm^3
# Si number density = 18.983174 Si / 1000 Ang^3
#
#
#
# Elastic Constant Matrix: (Units=GPa)
#
#
# Indices 1 2 3 4 5 6 
#
# 1 9.2469 101.5407 38.9088 156.7776 -0.2036 0.0000
# 2 101.5407 9.2469 38.9088 -156.7776 0.2036 0.0000
# 3 38.9088 38.9088 127.5969 0.0000 0.0000 0.0000
# 4 156.7776 -156.7776 0.0000 -146.3632 0.0000 0.2036
# 5 -0.2036 0.2036 0.0000 0.0000 -146.3632 156.7776
# 6 0.0000 0.0000 0.0000 0.2036 156.7776 -46.1469
#
#
#
# Elastic Compliance Matrix: (Units=1/GPa)
#
#
# Indices 1 2 3 4 5 6 
#
# 1 0.007796 0.003691 -0.003503 0.004398 -0.000006 0.000000
# 2 0.003691 0.007796 -0.003503 -0.004398 0.000006 0.000000
# 3 -0.003503 -0.003503 0.009973 0.000000 0.000000 0.000000
# 4 0.004398 -0.004398 0.000000 0.002589 0.000000 0.000011
# 5 -0.000006 0.000006 0.000000 0.000000 0.002589 0.008795
# 6 0.000000 0.000000 0.000000 0.000011 0.008795 0.008211
#
#
# Mechanical properties :
#
#
# Convention : Reuss Voigt Hill
#
# Bulk Modulus (GPa) = 52.80991 56.08970 54.44980
# Shear Modulus (GPa) = 96.34673 -69.99250 13.17711
#
# Velocity S-wave (km/s) = 7.13190 -6.07872 2.63753
# Velocity P-wave (km/s) = 9.78255 4.43358 6.16610
#
# Compressibility (1/GPa) = 0.01893584
#
# Stress axis : x y z
#
# Youngs Moduli (GPa) = 128.26995 128.26995 100.26721
#
# Poissons Ratio (x) = -0.47338 0.35120
# Poissons Ratio (y) = -0.47338 0.35120
# Poissons Ratio (z) = 0.44929 0.44929
#
# Static dielectric constant tensor:
#      x y z
#    x 1.628060 0.000000 0.000000 
#    y 0.000000 1.628060 0.000000 
#    z 0.000000 0.000000 1.665640 
# 
# From -- ./inp_files/2246.got.cif
#   From: 2010.05.17/outbox.cif.g08.bks.cpg/sg160_2_cif.got.tgz:2246.got - 2010.05.20 10:51:19.
