data_PCOD9577413
_publ_section_title
;
Structure prediction by ZEFSAII (Michael W. Deem and Ramdas Pophale) SiO2 
 PCOD9577413
Probable space group: P 3 1 C
;
_chemical_formula_sum "Si O2"
_cell_formula_units_Z 30
_cell_length_a 12.953347
_cell_length_b 12.953347
_cell_length_c 8.606019
_cell_angle_alpha 90.000000
_cell_angle_beta 90.000000
_cell_angle_gamma 120.000000
_cell_volume 1250.538111
_symmetry_space_group_name_H-M "P 3 1 C"
_symmetry_group_IT_number 159
_symmetry_cell_setting 'hexagonal'
loop_
_space_group_symop_operation_xyz
x,y,z
-y,x-y,z
-x+y,-x,z
y,x,1/2+z
x-y,-y,1/2+z
-x,-x+y,1/2+z
loop_
_atom_site_type_symbol
_atom_site_label
_atom_site_fract_x
_atom_site_fract_y
_atom_site_fract_z
Si Si1 0.391882 0.907610 0.171090
Si Si2 0.863313 0.596468 0.540151
Si Si3 0.081814 0.788590 0.697339
Si Si4 0.287069 0.893199 0.496582
Si Si5 0.011281 0.139405 0.884999
O O1 0.498678 0.893960 0.103180
O O2 0.274364 0.820279 0.074072
O O3 0.354056 0.875690 0.350740
O O4 0.421545 0.041429 0.134652
O O5 0.894521 0.637929 0.361660
O O6 0.945113 0.710862 0.648072
O O7 0.168216 0.782250 0.566947
O O8 0.123835 0.929456 0.716936
O O9 0.238223 0.980183 0.438135
O O10 0.113596 0.103198 0.918501
#
# Coordination Sequence:
#
# PCOD9577413 Si02
#       5
#     6   6   6   6   6
#     4  12  25  47  71 100 143 198 255 316 369 440
#     4  12  26  47  71 103 143 201 259 315 372 441
#     4  12  25  45  70 110 151 194 247 312 382 464
#     4  12  24  45  70 108 149 189 243 311 388 455
#     4  10  22  38  64 107 152 188 226 290 383 466
#
# _framework density 23.989671999999999
#
# number of rings (size 3 to 8) (size 9 to 14) (size 15 to 20)
#    0.400    0.000    4.000    5.200    0.000    0.000 
#    0.000    0.000    0.000    0.800    0.000    0.000 
#    0.000    0.000    0.000    0.000    0.000    0.000 
#
# Total GULP energy -167309.203839 kJ/mol
# GULP energy per Si atom -5576.973461 kJ/mol
# Density = 2.393507 g / cm^3
# Si number density = 23.989672 Si / 1000 Ang^3
#
#
#
# Elastic Constant Matrix: (Units=GPa)
#
#
# Indices 1 2 3 4 5 6 
#
# 1 91.1756 18.6080 17.1762 0.0000 -14.5812 0.0000
# 2 18.6080 91.1756 17.1762 0.0000 14.5812 0.0000
# 3 17.1762 17.1762 126.6824 0.0000 0.0000 0.0000
# 4 0.0000 0.0000 0.0000 31.8658 0.0000 14.5812
# 5 -14.5812 14.5812 0.0000 0.0000 31.8658 0.0000
# 6 0.0000 0.0000 0.0000 14.5812 0.0000 36.2838
#
#
#
# Elastic Compliance Matrix: (Units=1/GPa)
#
#
# Indices 1 2 3 4 5 6 
#
# 1 0.013199 -0.003686 -0.001290 0.000000 0.007726 0.000000
# 2 -0.003686 0.013199 -0.001290 0.000000 -0.007726 0.000000
# 3 -0.001290 -0.001290 0.008243 0.000000 0.000000 0.000000
# 4 0.000000 0.000000 0.000000 0.038452 0.000000 -0.015453
# 5 0.007726 -0.007726 0.000000 0.000000 0.038452 0.000000
# 6 0.000000 0.000000 0.000000 -0.015453 0.000000 0.033770
#
#
# Mechanical properties :
#
#
# Convention : Reuss Voigt Hill
#
# Bulk Modulus (GPa) = 45.22973 46.10604 45.66789
# Shear Modulus (GPa) = 30.26308 37.07463 33.66886
#
# Velocity S-wave (km/s) = 3.55562 3.93548 3.75036
# Velocity P-wave (km/s) = 5.97924 6.31755 6.15072
#
# Compressibility (1/GPa) = 0.02210935
#
# Stress axis : x y z
#
# Youngs Moduli (GPa) = 75.76445 75.76445 121.30784
#
# Poissons Ratio (x) = 0.27930 0.15645
# Poissons Ratio (y) = 0.27930 0.15645
# Poissons Ratio (z) = 0.09772 0.09772
#
# Static dielectric constant tensor:
#      x y z
#    x 1.939030 0.000000 0.000000 
#    y 0.000000 1.939030 0.000000 
#    z 0.000000 0.000000 2.007220 
# 
# From -- ./inp_files/351.got.cif
#   From: 2010.05.17/outbox.cif.g08.bks.cpg/sg159_cif.got.tgz:351.got - 2010.05.20 10:50:30.
