data_PCOD9577689
_publ_section_title
;
Structure prediction by ZEFSAII (Michael W. Deem and Ramdas Pophale) SiO2 
 PCOD9577689
Probable space group: P -3 1 M 
;
_chemical_formula_sum "Si O2"
_cell_formula_units_Z 84
_cell_length_a 20.717695
_cell_length_b 20.717695
_cell_length_c 12.386296
_cell_angle_alpha 90.000000
_cell_angle_beta 90.000000
_cell_angle_gamma 120.000000
_cell_volume 4604.208226
_symmetry_space_group_name_H-M "P -3 1 M "
_symmetry_group_IT_number 162
_symmetry_cell_setting 'hexagonal'
loop_
_space_group_symop_operation_xyz
x,y,z
-y,x-y,z
-x+y,-x,z
-y,-x,-z
-x+y,y,-z
x,x-y,-z
-x,-y,-z
y,-x+y,-z
x-y,x,-z
y,x,z
x-y,-y,z
-x,-x+y,z
loop_
_atom_site_type_symbol
_atom_site_label
_atom_site_fract_x
_atom_site_fract_y
_atom_site_fract_z
Si Si1 0.091181 0.574070 0.763805
Si Si2 0.412044 0.086036 0.069484
Si Si3 0.714355 0.799391 0.418928
Si Si4 0.654245 0.090580 0.309959
Si Si5 0.090362 0.654019 0.555909
Si Si6 0.188986 0.271049 0.829846
Si Si7 0.753164 0.663317 0.863411
O O1 0.118517 0.629927 0.865249
O O2 0.111719 0.509415 0.760118
O O3 0.115445 0.618908 0.650687
O O4 0.000000 0.531983 0.765853
O O5 0.349584 0.084539 0.149514
O O6 0.386404 0.000000 0.043911
O O7 0.398016 0.116935 0.958705
O O8 0.726367 0.863184 0.500000
O O9 0.757452 0.757452 0.459500
O O10 0.627894 0.736478 0.414265
O O11 0.740509 0.825661 0.297594
O O12 0.657579 0.116572 0.432858
O O13 0.731188 0.112702 0.249750
O O14 0.610322 0.000000 0.313531
O O15 0.000000 0.602478 0.553573
O O16 0.209112 0.209112 0.871246
O O17 0.124450 0.283450 0.877213
O O18 0.711735 0.711735 0.868618
#
# Coordination Sequence:
#
# PCOD9577689 Si02
#       7
#    12  12  12  12  12  12  12
#     4   9  15  26  44  66  95 130 162 187 229 301
#     4   9  17  30  47  67  94 129 166 204 250 308
#     4  10  19  30  47  69  95 129 169 218 275 336
#     4   9  17  26  41  68 100 131 156 190 244 299
#     4   9  15  26  42  63  93 127 161 197 239 298
#     4  10  19  33  50  68  93 133 180 218 265 329
#     4  10  20  32  47  71 102 130 165 222 280 326
#
# _framework density 18.24418
#
# number of rings (size 3 to 8) (size 9 to 14) (size 15 to 20)
#    0.000    2.571    1.429    1.714    0.000    4.000 
#    0.000    2.857    0.000    0.429    0.000    0.000 
#    1.429    3.429    1.143    0.000    0.000    0.000 
#
# Total GULP energy -467836.774730 kJ/mol
# GULP energy per Si atom -5569.485413 kJ/mol
# Density = 1.820265 g / cm^3
# Si number density = 18.244180 Si / 1000 Ang^3
#
#
#
# Elastic Constant Matrix: (Units=GPa)
#
#
# Indices 1 2 3 4 5 6 
#
# 1 51.6767 19.3223 21.5402 0.0001 3.7280 0.0000
# 2 19.3223 51.6767 21.5402 -0.0001 -3.7280 0.0000
# 3 21.5402 21.5402 57.2766 0.0000 0.0000 0.0000
# 4 0.0001 -0.0001 0.0000 18.3243 0.0000 -3.7280
# 5 3.7280 -3.7280 0.0000 0.0000 18.3243 0.0001
# 6 0.0000 0.0000 0.0000 -3.7280 0.0001 16.1772
#
#
#
# Elastic Compliance Matrix: (Units=1/GPa)
#
#
# Indices 1 2 3 4 5 6 
#
# 1 0.025338 -0.007090 -0.006863 0.000000 -0.006597 0.000000
# 2 -0.007090 0.025338 -0.006863 0.000000 0.006597 0.000000
# 3 -0.006863 -0.006863 0.022621 0.000000 0.000000 0.000000
# 4 0.000000 0.000000 0.000000 0.057257 0.000000 0.013195
# 5 -0.006597 0.006597 0.000000 0.000000 0.057257 0.000000
# 6 0.000000 0.000000 0.000000 0.013195 0.000000 0.064856
#
#
# Mechanical properties :
#
#
# Convention : Reuss Voigt Hill
#
# Bulk Modulus (GPa) = 31.57841 31.71506 31.64674
# Shear Modulus (GPa) = 16.40126 17.11363 16.75745
#
# Velocity S-wave (km/s) = 3.00156 3.06605 3.03398
# Velocity P-wave (km/s) = 5.41838 5.47318 5.44585
#
# Compressibility (1/GPa) = 0.03166720
#
# Stress axis : x y z
#
# Youngs Moduli (GPa) = 39.46564 39.46564 44.20649
#
# Poissons Ratio (x) = 0.27979 0.30339
# Poissons Ratio (y) = 0.27979 0.30339
# Poissons Ratio (z) = 0.27085 0.27085
#
# Static dielectric constant tensor:
#      x y z
#    x 1.629270 0.000000 0.000000 
#    y 0.000000 1.629270 0.000000 
#    z 0.000000 0.000000 1.689680 
# 
# From -- ./inp_files/2497.got.cif
#   From: 2010.05.17/outbox.cif.g08.bks.cpg/sg162_2_cif.got.tgz:2497.got - 2010.05.20 10:53:12.
