data_PCOD9577715
_publ_section_title
;
Structure prediction by ZEFSAII (Michael W. Deem and Ramdas Pophale) SiO2 
 PCOD9577715
Probable space group: P -3 1 M 
;
_chemical_formula_sum "Si O2"
_cell_formula_units_Z 72
_cell_length_a 24.345057
_cell_length_b 24.345057
_cell_length_c 8.807670
_cell_angle_alpha 90.000000
_cell_angle_beta 90.000000
_cell_angle_gamma 120.000000
_cell_volume 4520.778798
_symmetry_space_group_name_H-M "P -3 1 M "
_symmetry_group_IT_number 162
_symmetry_cell_setting 'hexagonal'
loop_
_space_group_symop_operation_xyz
x,y,z
-y,x-y,z
-x+y,-x,z
-y,-x,-z
-x+y,y,-z
x,x-y,-z
-x,-y,-z
y,-x+y,-z
x-y,x,-z
y,x,z
x-y,-y,z
-x,-x+y,z
loop_
_atom_site_type_symbol
_atom_site_label
_atom_site_fract_x
_atom_site_fract_y
_atom_site_fract_z
Si Si1 0.262076 0.072380 0.932761
Si Si2 0.735733 0.589750 0.932126
Si Si3 0.522474 0.925750 0.931696
Si Si4 0.596724 0.522474 0.431695
Si Si5 0.072380 0.810304 0.432760
Si Si6 0.854018 0.589751 0.432126
O O1 0.335989 0.099654 0.973328
O O2 0.258947 0.073587 0.750000
O O3 0.219449 0.000000 0.984498
O O4 0.242796 0.121398 0.000000
O O5 0.734465 0.584983 0.750000
O O6 0.785755 0.571509 0.000000
O O7 0.665851 0.548603 0.998827
O O8 0.518101 0.919546 0.750000
O O9 0.570631 0.000000 0.968829
O O10 0.455010 0.910020 0.000000
O O11 0.544990 0.455011 0.500000
O O12 0.570631 0.570631 0.468828
O O13 0.665851 0.548604 0.501173
O O14 0.121398 0.878603 0.500000
O O15 0.099653 0.763664 0.473328
O O16 0.000000 0.780552 0.484497
O O17 0.785756 0.571511 0.500000
#
# Coordination Sequence:
#
# PCOD9577715 Si02
#       6
#    12  12  12  12  12  12
#     4   9  18  31  47  69  96 125 157 194 237 283
#     4  10  19  32  50  72  99 129 161 198 241 288
#     4  10  20  33  50  73 100 130 164 201 242 287
#     4  10  20  33  50  73 100 130 164 201 242 287
#     4   9  18  31  47  69  96 125 157 194 237 283
#     4  10  19  32  50  72  99 129 161 198 241 288
#
# _framework density 15.926458999999999
#
# number of rings (size 3 to 8) (size 9 to 14) (size 15 to 20)
#    0.000    2.333    0.000    3.000    0.000    5.333 
#    0.000    0.000    0.000    1.000    0.000    4.667 
#    0.000    0.000    0.000    0.000    0.000    0.000 
#
# Total GULP energy -401766.675732 kJ/mol
# GULP energy per Si atom -5580.092718 kJ/mol
# Density = 1.589021 g / cm^3
# Si number density = 15.926459 Si / 1000 Ang^3
#
#
#
# Elastic Constant Matrix: (Units=GPa)
#
#
# Indices 1 2 3 4 5 6 
#
# 1 147.2640 95.8953 52.4677 -0.0001 -0.0001 0.0000
# 2 95.8953 147.2640 52.4677 0.0001 0.0001 0.0000
# 3 52.4677 52.4677 48.4713 0.0000 0.0000 0.0000
# 4 -0.0001 0.0001 0.0000 28.9694 0.0000 0.0001
# 5 -0.0001 0.0001 0.0000 0.0000 28.9694 -0.0001
# 6 0.0000 0.0000 0.0000 0.0001 -0.0001 25.6843
#
#
#
# Elastic Compliance Matrix: (Units=1/GPa)
#
#
# Indices 1 2 3 4 5 6 
#
# 1 0.013592 -0.005875 -0.008354 0.000000 0.000000 0.000000
# 2 -0.005875 0.013592 -0.008354 0.000000 0.000000 0.000000
# 3 -0.008354 -0.008354 0.038716 0.000000 0.000000 0.000000
# 4 0.000000 0.000000 0.000000 0.034519 0.000000 0.000000
# 5 0.000000 0.000000 0.000000 0.000000 0.034519 0.000000
# 6 0.000000 0.000000 0.000000 0.000000 0.000000 0.038934
#
#
# Mechanical properties :
#
#
# Convention : Reuss Voigt Hill
#
# Bulk Modulus (GPa) = 48.22608 82.74009 65.48308
# Shear Modulus (GPa) = 22.12868 26.20252 24.16560
#
# Velocity S-wave (km/s) = 3.73155 4.06053 3.89951
# Velocity P-wave (km/s) = 6.99372 8.60511 7.84092
#
# Compressibility (1/GPa) = 0.02073567
#
# Stress axis : x y z
#
# Youngs Moduli (GPa) = 73.57048 73.57048 25.82892
#
# Poissons Ratio (x) = 0.43220 0.21577
# Poissons Ratio (y) = 0.43220 0.21577
# Poissons Ratio (z) = 0.61461 0.61461
#
# Static dielectric constant tensor:
#      x y z
#    x 1.511170 0.000000 0.000000 
#    y 0.000000 1.511170 0.000000 
#    z 0.000000 0.000000 1.532260 
# 
# From -- ./inp_files/1689.got.cif
#   From: 2010.05.17/outbox.cif.g08.bks.cpg/sg162_1_cif.got.tgz:1689.got - 2010.05.20 10:53:12.
