data_PCOD9577190
_publ_section_title
;
Structure prediction by ZEFSAII (Michael W. Deem and Ramdas Pophale) SiO2 
 PCOD9577190
Probable space group: P 3 M 1
;
_chemical_formula_sum "Si O2"
_cell_formula_units_Z 48
_cell_length_a 18.159991
_cell_length_b 18.159991
_cell_length_c 12.222896
_cell_angle_alpha 90.000000
_cell_angle_beta 90.000000
_cell_angle_gamma 120.000000
_cell_volume 3490.888730
_symmetry_space_group_name_H-M "P 3 M 1"
_symmetry_group_IT_number 156
_symmetry_cell_setting 'hexagonal'
loop_
_space_group_symop_operation_xyz
x,y,z
-y,x-y,z
-x+y,-x,z
-x+y,y,z
x,x-y,z
-y,-x,z
loop_
_atom_site_type_symbol
_atom_site_label
_atom_site_fract_x
_atom_site_fract_y
_atom_site_fract_z
Si Si1 0.508282 0.666821 0.320850
Si Si2 0.998953 0.169761 0.300565
Si Si3 0.106484 0.721182 0.543405
Si Si4 0.158539 0.491718 0.765960
Si Si5 0.662229 0.741662 0.918135
Si Si6 0.963201 0.202170 0.543405
Si Si7 0.170808 0.001048 0.786245
Si Si8 0.662229 0.741662 0.168675
O O1 0.490054 0.745027 0.307464
O O2 0.421956 0.578045 0.319151
O O3 0.557620 0.683196 0.435920
O O4 0.574896 0.676126 0.227544
O O5 0.077990 0.155979 0.276121
O O6 0.017132 0.256018 0.240625
O O7 0.994230 0.179974 0.431199
O O8 0.911082 0.088919 0.265151
O O9 0.177164 0.822837 0.543405
O O10 0.125576 0.683196 0.650889
O O11 0.011951 0.707451 0.543405
O O12 0.254974 0.509947 0.779345
O O13 0.156089 0.578045 0.767659
O O14 0.101231 0.425105 0.859266
O O15 0.662075 0.831038 0.917756
O O16 0.743982 0.761113 0.846185
O O17 0.668289 0.719939 0.043405
O O18 0.860371 0.139630 0.543403
O O19 0.994228 0.179973 0.655612
O O20 0.177837 0.088919 0.821662
O O21 0.077991 0.922010 0.810687
O O22 0.662074 0.831037 0.169054
#
# Coordination Sequence:
#
# PCOD9577190 Si02
#       8
#     6   6   6   6   6   6   6   6
#     4  10  19  30  46  65  86 112 146 186 224 262
#     4  10  18  28  43  63  87 115 149 185 217 252
#     4  10  17  29  46  64  89 118 142 173 223 267
#     4  10  19  30  46  65  86 112 146 186 224 262
#     4   9  18  31  44  58  81 115 149 180 220 263
#     4  10  18  27  44  66  87 114 146 177 211 255
#     4  10  18  28  43  63  87 115 149 185 217 252
#     4   9  18  31  44  58  81 115 149 180 220 263
#
# _framework density 13.750081
#
# number of rings (size 3 to 8) (size 9 to 14) (size 15 to 20)
#    0.000    2.250    2.500    2.000    0.000    1.000 
#    0.000    2.500    0.000    3.250    0.000    0.000 
#    0.000    0.000    0.000   10.500    0.000    6.500 
#
# Total GULP energy -267369.409668 kJ/mol
# GULP energy per Si atom -5570.196035 kJ/mol
# Density = 1.371879 g / cm^3
# Si number density = 13.750081 Si / 1000 Ang^3
#
#
#
# Elastic Constant Matrix: (Units=GPa)
#
#
# Indices 1 2 3 4 5 6 
#
# 1 93.9607 48.8974 35.2988 -0.0001 0.0004 0.0000
# 2 48.8974 93.9607 35.2988 0.0001 -0.0004 0.0000
# 3 35.2988 35.2988 84.5764 0.0000 0.0000 0.0000
# 4 -0.0001 0.0001 0.0000 5.1797 0.0000 -0.0004
# 5 0.0004 -0.0004 0.0000 0.0000 5.1797 -0.0001
# 6 0.0000 0.0000 0.0000 -0.0004 -0.0001 22.5316
#
#
#
# Elastic Compliance Matrix: (Units=1/GPa)
#
#
# Indices 1 2 3 4 5 6 
#
# 1 0.015505 -0.006686 -0.003681 0.000000 -0.000002 0.000000
# 2 -0.006686 0.015505 -0.003681 0.000000 0.000002 0.000000
# 3 -0.003681 -0.003681 0.014896 0.000000 0.000000 0.000000
# 4 0.000000 0.000000 0.000000 0.193062 0.000000 0.000003
# 5 -0.000002 0.000002 0.000000 0.000000 0.193062 0.000001
# 6 0.000000 0.000000 0.000000 0.000003 0.000001 0.044382
#
#
# Mechanical properties :
#
#
# Convention : Reuss Voigt Hill
#
# Bulk Modulus (GPa) = 56.14479 56.83198 56.48838
# Shear Modulus (GPa) = 9.79541 16.77839 13.28690
#
# Velocity S-wave (km/s) = 2.67196 3.49698 3.11193
# Velocity P-wave (km/s) = 7.10212 7.59783 7.35415
#
# Compressibility (1/GPa) = 0.01781109
#
# Stress axis : x y z
#
# Youngs Moduli (GPa) = 64.49563 64.49563 67.13243
#
# Poissons Ratio (x) = 0.43122 0.24709
# Poissons Ratio (y) = 0.43122 0.24709
# Poissons Ratio (z) = 0.23738 0.23738
#
# Static dielectric constant tensor:
#      x y z
#    x 1.437230 0.000000 0.000000 
#    y 0.000000 1.437230 0.000000 
#    z 0.000000 0.000000 1.468410 
# 
# From -- ./inp_files/719.got.cif
#   From: 2010.05.17/outbox.cif.g08.bks.cpg/sg156_cif.got.tgz:719.got - 2010.05.20 10:49:08.
