data_PCOD9577058
_publ_section_title
;
Structure prediction by ZEFSAII (Michael W. Deem and Ramdas Pophale) SiO2 
 PCOD9577058
Probable space group: R 3 2
;
_chemical_formula_sum "Si O2"
_cell_formula_units_Z 63
_cell_length_a 19.979597
_cell_length_b 19.979597
_cell_length_c 9.501675
_cell_angle_alpha 90.000000
_cell_angle_beta 90.000000
_cell_angle_gamma 120.000000
_cell_volume 3284.764597
_symmetry_space_group_name_H-M "R 3 2"
_symmetry_group_IT_number 155
_symmetry_cell_setting 'hexagonal'
loop_
_space_group_symop_operation_xyz
x,y,z
-y,x-y,z
-x+y,-x,z
x-y,-y,-z
-x,-x+y,-z
y,x,-z
2/3+x,1/3+y,1/3+z
2/3-y,1/3+x-y,1/3+z
2/3-x+y,1/3-x,1/3+z
2/3+x-y,1/3-y,1/3-z
2/3-x,1/3-x+y,1/3-z
2/3+y,1/3+x,1/3-z
1/3+x,2/3+y,2/3+z
1/3-y,2/3+x-y,2/3+z
1/3-x+y,2/3-x,2/3+z
1/3+x-y,2/3-y,2/3-z
1/3-x,2/3-x+y,2/3-z
1/3+y,2/3+x,2/3-z
loop_
_atom_site_type_symbol
_atom_site_label
_atom_site_fract_x
_atom_site_fract_y
_atom_site_fract_z
Si Si1 0.240722 0.756971 0.687955
Si Si2 0.178698 0.955241 0.706191
Si Si3 0.245441 0.578774 0.166667
Si Si4 0.974842 0.444598 0.150695
O O1 0.203091 0.666667 0.666667
O O2 0.333334 0.798192 0.666667
O O3 0.232901 0.788278 0.840205
O O4 0.206413 0.789248 0.571515
O O5 0.134580 0.995822 0.633704
O O6 0.199999 0.914201 0.583634
O O7 0.257481 0.020047 0.779043
O O8 0.333334 0.594561 0.166667
O O9 0.000000 0.485297 0.000000
#
# Coordination Sequence:
#
# PCOD9577058 Si02
#       4
#    18  18   9  18
#     4  10  24  39  63  94 128 166 215 273 332 390
#     4  11  23  40  64  98 133 172 210 274 323 393
#     4  10  24  38  66  98 134 168 216 266 328 386
#     4  11  22  40  61  95 128 170 214 263 329 386
#
# _framework density 19.179455000000001
#
# number of rings (size 3 to 8) (size 9 to 14) (size 15 to 20)
#    0.286    1.143    2.857    1.143    8.000   10.286 
#    0.000    0.000    0.000   10.286    0.000    0.000 
#    0.000    0.000    0.000    0.000    0.000    0.000 
#
# Total GULP energy -117233.518670 kJ/mol
# GULP energy per Si atom -5582.548508 kJ/mol
# Density = 1.913580 g / cm^3
# Si number density = 19.179455 Si / 1000 Ang^3
#
#
#
# Elastic Constant Matrix: (Units=GPa)
#
#
# Indices 1 2 3 4 5 6 
#
# 1 97.8777 45.8929 55.6238 -1.7758 -0.0009 0.0000
# 2 45.8929 97.8777 55.6237 1.7759 0.0011 0.0000
# 3 55.6238 55.6237 163.4250 0.0004 0.0006 0.0000
# 4 -1.7758 1.7759 0.0004 22.7730 0.0002 0.0011
# 5 -0.0009 0.0011 0.0006 0.0002 22.7733 -1.7759
# 6 0.0000 0.0000 0.0000 0.0011 -1.7759 25.9924
#
#
#
# Elastic Compliance Matrix: (Units=1/GPa)
#
#
# Indices 1 2 3 4 5 6 
#
# 1 0.014391 -0.004949 -0.003214 0.001508 0.000001 0.000000
# 2 -0.004949 0.014391 -0.003214 -0.001508 -0.000001 0.000000
# 3 -0.003214 -0.003214 0.008307 0.000000 0.000000 0.000000
# 4 0.001508 -0.001508 0.000000 0.044147 0.000000 -0.000002
# 5 0.000001 -0.000001 0.000000 0.000000 0.044146 0.003016
# 6 0.000000 0.000000 0.000000 -0.000002 0.003016 0.038679
#
#
# Mechanical properties :
#
#
# Convention : Reuss Voigt Hill
#
# Bulk Modulus (GPa) = 69.75380 74.82900 72.29140
# Shear Modulus (GPa) = 26.09720 27.77709 26.93714
#
# Velocity S-wave (km/s) = 3.69275 3.80975 3.75170
# Velocity P-wave (km/s) = 7.39120 7.64540 7.51937
#
# Compressibility (1/GPa) = 0.01433614
#
# Stress axis : x y z
#
# Youngs Moduli (GPa) = 69.48847 69.48853 120.38420
#
# Poissons Ratio (x) = 0.34387 0.38689
# Poissons Ratio (y) = 0.34387 0.38689
# Poissons Ratio (z) = 0.22332 0.22332
#
# Static dielectric constant tensor:
#      x y z
#    x 1.655100 0.000000 0.000000 
#    y 0.000000 1.655100 0.000000 
#    z 0.000000 0.000000 1.721100 
# 
# From -- ./inp_files/2005.got.cif
#   From: 2010.05.17/outbox.cif.g08.bks.cpg/sg155_2_cif.got.tgz:2005.got - 2010.05.20 10:44:35.
