data_PCOD9577242
_publ_section_title
;
Structure prediction by ZEFSAII (Michael W. Deem and Ramdas Pophale) SiO2 
 PCOD9577242
Probable space group: P 3 M 1
;
_chemical_formula_sum "Si O2"
_cell_formula_units_Z 26
_cell_length_a 16.201353
_cell_length_b 16.201353
_cell_length_c 7.389062
_cell_angle_alpha 90.000000
_cell_angle_beta 90.000000
_cell_angle_gamma 120.000000
_cell_volume 1679.664377
_symmetry_space_group_name_H-M "P 3 M 1"
_symmetry_group_IT_number 156
_symmetry_cell_setting 'hexagonal'
loop_
_space_group_symop_operation_xyz
x,y,z
-y,x-y,z
-x+y,-x,z
-x+y,y,z
x,x-y,z
-y,-x,z
loop_
_atom_site_type_symbol
_atom_site_label
_atom_site_fract_x
_atom_site_fract_y
_atom_site_fract_z
Si Si1 0.082072 0.723745 0.947540
Si Si2 0.195263 0.999802 0.662384
Si Si3 0.442847 0.885694 0.942192
Si Si4 0.333334 0.666667 0.941271
Si Si5 0.333334 0.666668 0.383504
Si Si6 0.442847 0.885694 0.382579
Si Si7 0.276256 0.358326 0.377230
O O1 0.192127 0.807873 0.917927
O O2 0.018264 0.754792 0.834705
O O3 0.070257 0.622821 0.888533
O O4 0.064659 0.721118 0.162384
O O5 0.085473 0.914528 0.662380
O O6 0.245211 0.981740 0.490063
O O7 0.202348 0.101174 0.662387
O O8 0.387885 0.775770 0.883496
O O9 0.442649 0.885297 0.162386
O O10 0.333334 0.666667 0.162388
O O11 0.387886 0.775771 0.441277
O O12 0.552564 0.929743 0.436236
O O13 0.192125 0.384250 0.406845
#
# Coordination Sequence:
#
# PCOD9577242 Si02
#       7
#     6   6   3   1   1   3   6
#     4   9  17  29  46  69  96 124 152 181 215 264
#     4  10  21  35  48  62  84 118 160 203 241 270
#     4   9  14  23  43  71 102 133 153 166 201 261
#     4   9  12  18  39  67 101 142 157 155 190 253
#     4   9  12  18  39  67 101 142 157 155 190 253
#     4   9  14  23  43  71 102 133 153 166 201 261
#     4   9  17  29  46  69  96 124 152 181 215 264
#
# _framework density 15.479283000000001
#
# number of rings (size 3 to 8) (size 9 to 14) (size 15 to 20)
#    0.000    2.769    2.308    0.231    0.000    1.846 
#    0.000    0.000    0.000    2.769    0.000    0.000 
#    9.231    0.000    2.769    0.000    0.000    0.000 
#
# Total GULP energy -144935.377442 kJ/mol
# GULP energy per Si atom -5574.437594 kJ/mol
# Density = 1.544405 g / cm^3
# Si number density = 15.479283 Si / 1000 Ang^3
#
#
#
# Elastic Constant Matrix: (Units=GPa)
#
#
# Indices 1 2 3 4 5 6 
#
# 1 123.2150 65.4229 42.5744 -0.0011 0.0001 0.0000
# 2 65.4229 123.2155 42.5744 0.0012 -0.0002 0.0000
# 3 42.5744 42.5744 68.9880 -0.0001 0.0001 0.0000
# 4 -0.0011 0.0012 -0.0001 -0.8331 0.0001 -0.0002
# 5 0.0001 -0.0002 0.0001 0.0001 -0.8300 -0.0011
# 6 0.0000 0.0000 0.0000 -0.0002 -0.0011 28.8960
#
#
#
# Elastic Compliance Matrix: (Units=1/GPa)
#
#
# Indices 1 2 3 4 5 6 
#
# 1 0.012326 -0.004978 -0.004535 -0.000023 0.000001 0.000000
# 2 -0.004978 0.012326 -0.004535 0.000025 -0.000004 0.000000
# 3 -0.004535 -0.004535 0.020092 -0.000004 0.000004 0.000000
# 4 -0.000023 0.000025 -0.000004 -1.200339 -0.000144 -0.000009
# 5 0.000001 -0.000004 0.000004 -0.000144 -1.204860 -0.000044
# 6 0.000000 0.000000 0.000000 -0.000009 -0.000044 0.034607
#
#
# Mechanical properties :
#
#
# Convention : Reuss Voigt Hill
#
# Bulk Modulus (GPa) = 60.06149 68.50686 64.28417
# Shear Modulus (GPa) = -2.18131 16.43638 7.12754
#
# Velocity S-wave (km/s) = -1.18838 3.26211 2.14815
# Velocity P-wave (km/s) = 6.08296 7.65125 6.91173
#
# Compressibility (1/GPa) = 0.01664960
#
# Stress axis : x y z
#
# Youngs Moduli (GPa) = 81.13117 81.13162 49.77047
#
# Poissons Ratio (x) = 0.40384 0.22569
# Poissons Ratio (y) = 0.40384 0.22569
# Poissons Ratio (z) = 0.36791 0.36790
#
# Static dielectric constant tensor:
#      x y z
#    x 1.494530 0.000000 0.000000 
#    y 0.000000 1.494530 0.000000 
#    z 0.000000 0.000000 1.569850 
# 
# From -- ./inp_files/343.got.cif
#   From: 2010.05.17/outbox.cif.g08.bks.cpg/sg156_cif.got.tgz:343.got - 2010.05.20 10:49:08.
