data_PCOD9577925
_publ_section_title
;
Structure prediction by ZEFSAII (Michael W. Deem and Ramdas Pophale) SiO2 
 PCOD9577925
Probable space group: P -3 1 M 
;
_chemical_formula_sum "Si O2"
_cell_formula_units_Z 42
_cell_length_a 14.156908
_cell_length_b 14.156908
_cell_length_c 12.174257
_cell_angle_alpha 90.000000
_cell_angle_beta 90.000000
_cell_angle_gamma 120.000000
_cell_volume 2113.050696
_symmetry_space_group_name_H-M "P -3 1 M "
_symmetry_group_IT_number 162
_symmetry_cell_setting 'hexagonal'
loop_
_space_group_symop_operation_xyz
x,y,z
-y,x-y,z
-x+y,-x,z
-y,-x,-z
-x+y,y,-z
x,x-y,-z
-x,-y,-z
y,-x+y,-z
x-y,x,-z
y,x,z
x-y,-y,z
-x,-x+y,z
loop_
_atom_site_type_symbol
_atom_site_label
_atom_site_fract_x
_atom_site_fract_y
_atom_site_fract_z
Si Si1 0.124710 0.699731 0.293366
Si Si2 0.876911 0.199794 0.124265
Si Si3 0.451084 0.577235 0.120166
Si Si4 0.261491 0.522981 0.500000
O O1 0.123536 0.788717 0.212304
O O2 0.168923 0.633886 0.219286
O O3 0.207235 0.756718 0.393318
O O4 0.000000 0.617561 0.330491
O O5 0.876261 0.313073 0.139478
O O6 0.000000 0.227060 0.141634
O O7 0.840671 0.159330 0.000000
O O8 0.479446 0.479446 0.110878
O O9 0.411346 0.588655 0.000000
O O10 0.392166 0.607835 0.500000
#
# Coordination Sequence:
#
# PCOD9577925 Si02
#       4
#    12  12  12   6
#     4  11  22  39  62  85 115 159 204 244 294 357
#     4  11  21  35  57  88 124 156 194 242 295 357
#     4   9  17  32  54  84 118 149 187 237 292 352
#     4  10  24  42  57  86 123 150 200 246 296 352
#
# _framework density 19.876474000000002
#
# number of rings (size 3 to 8) (size 9 to 14) (size 15 to 20)
#    0.286    1.429    2.857    2.571    0.000    1.714 
#    1.714    1.429    0.000    5.143    0.000    1.000 
#    0.000    0.000    0.000    0.000    0.000    0.000 
#
# Total GULP energy -234273.879435 kJ/mol
# GULP energy per Si atom -5577.949510 kJ/mol
# Density = 1.983123 g / cm^3
# Si number density = 19.876474 Si / 1000 Ang^3
#
#
#
# Elastic Constant Matrix: (Units=GPa)
#
#
# Indices 1 2 3 4 5 6 
#
# 1 65.2819 19.6825 31.1018 0.0002 6.9346 0.0000
# 2 19.6825 65.2819 31.1018 -0.0002 -6.9346 0.0000
# 3 31.1018 31.1018 136.6754 0.0000 0.0000 0.0000
# 4 0.0002 -0.0002 0.0000 12.9459 0.0000 -6.9346
# 5 6.9346 -6.9346 0.0000 0.0000 12.9459 0.0002
# 6 0.0000 0.0000 0.0000 -6.9346 0.0002 22.7997
#
#
#
# Elastic Compliance Matrix: (Units=1/GPa)
#
#
# Indices 1 2 3 4 5 6 
#
# 1 0.020160 -0.006038 -0.003214 0.000000 -0.014033 0.000000
# 2 -0.006038 0.020160 -0.003214 0.000000 0.014033 0.000000
# 3 -0.003214 -0.003214 0.008779 0.000000 0.000000 0.000000
# 4 0.000000 0.000000 0.000000 0.092279 0.000000 0.028067
# 5 -0.014033 0.014033 0.000000 0.000000 0.092279 -0.000001
# 6 0.000000 0.000000 0.000000 0.028067 -0.000001 0.052397
#
#
# Mechanical properties :
#
#
# Convention : Reuss Voigt Hill
#
# Bulk Modulus (GPa) = 41.37481 47.89015 44.63248
# Shear Modulus (GPa) = 15.67194 22.09520 18.88357
#
# Velocity S-wave (km/s) = 2.81101 3.33772 3.08563
# Velocity P-wave (km/s) = 5.60329 6.24500 5.93283
#
# Compressibility (1/GPa) = 0.02416930
#
# Stress axis : x y z
#
# Youngs Moduli (GPa) = 49.60210 49.60210 113.90542
#
# Poissons Ratio (x) = 0.29950 0.36606
# Poissons Ratio (y) = 0.29950 0.36606
# Poissons Ratio (z) = 0.15941 0.15941
#
# Static dielectric constant tensor:
#      x y z
#    x 1.728270 0.000000 0.000000 
#    y 0.000000 1.728270 0.000000 
#    z 0.000000 0.000000 1.722550 
# 
# From -- ./inp_files/1990.got.cif
#   From: 2010.05.17/outbox.cif.g08.bks.cpg/sg162_1_cif.got.tgz:1990.got - 2010.05.20 10:53:12.
