data_PCOD9577841
_publ_section_title
;
Structure prediction by ZEFSAII (Michael W. Deem and Ramdas Pophale) SiO2 
 PCOD9577841
Probable space group: P -3 1 M 
;
_chemical_formula_sum "Si O2"
_cell_formula_units_Z 72
_cell_length_a 14.166900
_cell_length_b 14.166900
_cell_length_c 18.663625
_cell_angle_alpha 90.000000
_cell_angle_beta 90.000000
_cell_angle_gamma 120.000000
_cell_volume 3243.965959
_symmetry_space_group_name_H-M "P -3 1 M "
_symmetry_group_IT_number 162
_symmetry_cell_setting 'hexagonal'
loop_
_space_group_symop_operation_xyz
x,y,z
-y,x-y,z
-x+y,-x,z
-y,-x,-z
-x+y,y,-z
x,x-y,-z
-x,-y,-z
y,-x+y,-z
x-y,x,-z
y,x,z
x-y,-y,z
-x,-x+y,z
loop_
_atom_site_type_symbol
_atom_site_label
_atom_site_fract_x
_atom_site_fract_y
_atom_site_fract_z
Si Si1 0.131230 0.463294 0.702599
Si Si2 0.123654 0.249530 0.268496
Si Si3 0.472316 0.596644 0.170771
Si Si4 0.727312 0.529230 0.923901
Si Si5 0.883486 0.767676 0.096623
Si Si6 0.538829 0.871610 0.465079
O O1 0.171643 0.376832 0.716812
O O2 0.164553 0.563174 0.757152
O O3 0.151329 0.489059 0.619127
O O4 0.000000 0.392455 0.714937
O O5 0.179111 0.179111 0.295345
O O6 0.118497 0.238377 0.182762
O O7 0.000000 0.199342 0.295420
O O8 0.568855 0.568855 0.181113
O O9 0.392022 0.520225 0.107828
O O10 0.509592 0.713761 0.137780
O O11 0.784069 0.657776 0.930576
O O12 0.742796 0.485591 0.000000
O O13 0.786478 0.786478 0.073150
O O14 0.000000 0.867543 0.077154
O O15 0.430477 0.860954 0.500000
O O16 0.565254 0.782627 0.500000
O O17 0.633324 0.000000 0.472267
#
# Coordination Sequence:
#
# PCOD9577841 Si02
#       6
#    12  12  12  12  12  12
#     4   9  19  38  62  89 124 163 208 259 306 364
#     4   9  16  30  55  88 125 163 204 253 309 369
#     4  11  24  44  64  84 116 156 200 257 313 358
#     4  12  25  40  61  88 115 154 207 257 315 379
#     4  10  20  36  58  87 122 159 199 246 304 371
#     4  10  22  41  66  98 135 175 216 262 321 389
#
# _framework density 22.195055
#
# number of rings (size 3 to 8) (size 9 to 14) (size 15 to 20)
#    0.000    1.833    1.667    2.333    0.000    6.667 
#    0.000    0.000    0.000    1.167    0.000    0.000 
#    0.000    0.000    0.000    0.000    0.000    0.000 
#
# Total GULP energy -402136.570998 kJ/mol
# GULP energy per Si atom -5585.230153 kJ/mol
# Density = 2.214454 g / cm^3
# Si number density = 22.195055 Si / 1000 Ang^3
#
#
#
# Elastic Constant Matrix: (Units=GPa)
#
#
# Indices 1 2 3 4 5 6 
#
# 1 91.8651 28.6564 34.1299 -0.0001 3.4904 0.0000
# 2 28.6564 91.8651 34.1299 0.0001 -3.4904 0.0000
# 3 34.1299 34.1299 122.2276 0.0000 0.0000 0.0000
# 4 -0.0001 0.0001 0.0000 14.0941 0.0000 -3.4904
# 5 3.4904 -3.4904 0.0000 0.0000 14.0941 -0.0001
# 6 0.0000 0.0000 0.0000 -3.4904 -0.0001 31.6043
#
#
#
# Elastic Compliance Matrix: (Units=1/GPa)
#
#
# Indices 1 2 3 4 5 6 
#
# 1 0.013061 -0.003205 -0.002752 0.000000 -0.004028 0.000000
# 2 -0.003205 0.013061 -0.002752 0.000000 0.004028 0.000000
# 3 -0.002752 -0.002752 0.009718 0.000000 0.000000 0.000000
# 4 0.000000 0.000000 0.000000 0.072947 0.000000 0.008056
# 5 -0.004028 0.004028 0.000000 0.000000 0.072947 0.000000
# 6 0.000000 0.000000 0.000000 0.008056 0.000000 0.032531
#
#
# Mechanical properties :
#
#
# Convention : Reuss Voigt Hill
#
# Bulk Modulus (GPa) = 54.28306 55.53223 54.90764
# Shear Modulus (GPa) = 21.02397 25.89459 23.45928
#
# Velocity S-wave (km/s) = 3.08106 3.41938 3.25462
# Velocity P-wave (km/s) = 6.09652 6.37683 6.23825
#
# Compressibility (1/GPa) = 0.01842195
#
# Stress axis : x y z
#
# Youngs Moduli (GPa) = 76.56531 76.56531 102.89738
#
# Poissons Ratio (x) = 0.24537 0.28319
# Poissons Ratio (y) = 0.24537 0.28319
# Poissons Ratio (z) = 0.21072 0.21072
#
# Static dielectric constant tensor:
#      x y z
#    x 1.826880 0.000000 0.000000 
#    y 0.000000 1.826880 0.000000 
#    z 0.000000 0.000000 1.814410 
# 
# From -- ./inp_files/3541.got.cif
#   From: 2010.05.17/outbox.cif.g08.bks.cpg/sg162_2_cif.got.tgz:3541.got - 2010.05.20 10:53:12.
