data_PCOD9577445
_publ_section_title
;
Structure prediction by ZEFSAII (Michael W. Deem and Ramdas Pophale) SiO2 
 PCOD9577445
Probable space group: P 3 1 C
;
_chemical_formula_sum "Si O2"
_cell_formula_units_Z 48
_cell_length_a 16.814699
_cell_length_b 16.814699
_cell_length_c 9.058683
_cell_angle_alpha 90.000000
_cell_angle_beta 90.000000
_cell_angle_gamma 120.000000
_cell_volume 2218.063058
_symmetry_space_group_name_H-M "P 3 1 C"
_symmetry_group_IT_number 159
_symmetry_cell_setting 'hexagonal'
loop_
_space_group_symop_operation_xyz
x,y,z
-y,x-y,z
-x+y,-x,z
y,x,1/2+z
x-y,-y,1/2+z
-x,-x+y,1/2+z
loop_
_atom_site_type_symbol
_atom_site_label
_atom_site_fract_x
_atom_site_fract_y
_atom_site_fract_z
Si Si1 0.378347 0.201332 0.700940
Si Si2 0.704063 0.523283 0.204027
Si Si3 0.962392 0.834218 0.690608
Si Si4 0.880564 0.504649 0.186946
Si Si5 0.158460 0.048192 0.995044
Si Si6 0.439245 0.092494 0.503870
Si Si7 0.352854 0.083724 0.960001
Si Si8 0.927965 0.535095 0.537680
O O1 0.275246 0.183649 0.698601
O O2 0.381981 0.121042 0.609305
O O3 0.399289 0.176789 0.863453
O O4 0.440689 0.300205 0.626470
O O5 0.787096 0.506693 0.167645
O O6 0.600879 0.451981 0.152081
O O7 0.692587 0.523193 0.378504
O O8 0.729412 0.619060 0.128874
O O9 0.953468 0.869914 0.850290
O O10 0.913499 0.869434 0.575866
O O11 0.063008 0.874902 0.622947
O O12 0.912045 0.530188 0.359893
O O13 0.967078 0.572602 0.085885
O O14 0.244708 0.040339 0.940981
O O15 0.523527 0.089482 0.579278
O O16 0.372884 0.994528 0.427240
#
# Coordination Sequence:
#
# PCOD9577445 Si02
#       8
#     6   6   6   6   6   6   6   6
#     4  11  25  44  66 104 139 178 234 286 347 419
#     4  11  24  43  71  99 136 178 229 281 349 422
#     4  11  24  41  64  92 136 175 227 275 333 396
#     4  11  25  45  71 101 142 185 231 293 357 431
#     4  11  24  40  63  94 130 179 223 277 329 399
#     4  11  22  47  73  97 135 187 232 285 350 425
#     4  11  24  42  70 101 132 179 235 280 339 414
#     4  11  26  44  70 104 142 185 231 293 360 418
#
# _framework density 21.640504
#
# number of rings (size 3 to 8) (size 9 to 14) (size 15 to 20)
#    0.000    1.000    3.750    2.000    7.000    2.000 
#    0.750    0.000    0.000    0.000    0.000    0.000 
#    0.000    0.000    0.000    0.000    0.000    0.000 
#
# Total GULP energy -267951.930462 kJ/mol
# GULP energy per Si atom -5582.331885 kJ/mol
# Density = 2.159125 g / cm^3
# Si number density = 21.640504 Si / 1000 Ang^3
#
#
#
# Elastic Constant Matrix: (Units=GPa)
#
#
# Indices 1 2 3 4 5 6 
#
# 1 98.8284 35.1256 29.7814 0.0000 4.4274 0.0000
# 2 35.1256 98.8284 29.7814 0.0000 -4.4274 0.0000
# 3 29.7814 29.7814 67.4552 0.0000 0.0000 0.0000
# 4 0.0000 0.0000 0.0000 26.4076 0.0000 -4.4274
# 5 4.4274 -4.4274 0.0000 0.0000 26.4076 0.0000
# 6 0.0000 0.0000 0.0000 -4.4274 0.0000 31.8514
#
#
#
# Elastic Compliance Matrix: (Units=1/GPa)
#
#
# Indices 1 2 3 4 5 6 
#
# 1 0.012681 -0.003392 -0.004101 0.000000 -0.002695 0.000000
# 2 -0.003392 0.012681 -0.004101 0.000000 0.002695 0.000000
# 3 -0.004101 -0.004101 0.018446 0.000000 0.000000 0.000000
# 4 0.000000 0.000000 0.000000 0.038771 0.000000 0.005389
# 5 -0.002695 0.002695 0.000000 0.000000 0.038771 0.000000
# 6 0.000000 0.000000 0.000000 0.005389 0.000000 0.032145
#
#
# Mechanical properties :
#
#
# Convention : Reuss Voigt Hill
#
# Bulk Modulus (GPa) = 48.49799 50.49877 49.49838
# Shear Modulus (GPa) = 27.23969 28.29488 27.76729
#
# Velocity S-wave (km/s) = 3.55172 3.61985 3.58595
# Velocity P-wave (km/s) = 6.26730 6.39196 6.32993
#
# Compressibility (1/GPa) = 0.02061941
#
# Stress axis : x y z
#
# Youngs Moduli (GPa) = 78.86061 78.86061 54.21286
#
# Poissons Ratio (x) = 0.26748 0.22233
# Poissons Ratio (y) = 0.26748 0.22233
# Poissons Ratio (z) = 0.32341 0.32341
#
# Static dielectric constant tensor:
#      x y z
#    x 1.783180 0.000000 0.000000 
#    y 0.000000 1.783180 0.000000 
#    z 0.000000 0.000000 1.809380 
# 
# From -- ./inp_files/495.got.cif
#   From: 2010.05.17/outbox.cif.g08.bks.cpg/sg159_cif.got.tgz:495.got - 2010.05.20 10:50:30.
