data_PCOD9577205
_publ_section_title
;
Structure prediction by ZEFSAII (Michael W. Deem and Ramdas Pophale) SiO2 
 PCOD9577205
Probable space group: P 3 M 1
;
_chemical_formula_sum "Si O2"
_cell_formula_units_Z 48
_cell_length_a 12.946652
_cell_length_b 12.946652
_cell_length_c 21.199652
_cell_angle_alpha 90.000000
_cell_angle_beta 90.000000
_cell_angle_gamma 120.000000
_cell_volume 3077.331714
_symmetry_space_group_name_H-M "P 3 M 1"
_symmetry_group_IT_number 156
_symmetry_cell_setting 'hexagonal'
loop_
_space_group_symop_operation_xyz
x,y,z
-y,x-y,z
-x+y,-x,z
-x+y,y,z
x,x-y,z
-y,-x,z
loop_
_atom_site_type_symbol
_atom_site_label
_atom_site_fract_x
_atom_site_fract_y
_atom_site_fract_z
Si Si1 0.753947 0.754475 0.204470
Si Si2 0.912155 0.333001 0.950100
Si Si3 0.913664 0.580606 0.088475
Si Si4 0.666685 0.086106 0.811722
Si Si5 0.245192 0.245594 0.576681
Si Si6 0.910748 0.577247 0.317334
Si Si7 0.909950 0.576619 0.463103
Si Si8 0.332972 0.912639 0.694709
O O1 0.888745 0.777489 0.203863
O O2 0.688087 0.671485 0.144331
O O3 0.692331 0.679687 0.267576
O O4 0.753086 0.876543 0.202361
O O5 0.904274 0.452137 0.952438
O O6 0.780078 0.219923 0.947804
O O7 0.965579 0.332953 0.881646
O O8 0.962692 0.327654 0.018578
O O9 0.777276 0.554552 0.091525
O O10 0.915344 0.457672 0.095460
O O11 0.556027 0.112054 0.810927
O O12 0.791232 0.208769 0.802646
O O13 0.641114 0.992687 0.756427
O O14 0.112917 0.225834 0.571455
O O15 0.319902 0.303319 0.513027
O O16 0.309357 0.335304 0.634682
O O17 0.241706 0.120853 0.587077
O O18 0.774779 0.549557 0.310183
O O19 0.916284 0.458142 0.304895
O O20 0.945607 0.613073 0.390268
O O21 0.772603 0.545205 0.468718
O O22 0.919356 0.459678 0.475972
O O23 0.452701 0.905402 0.686155
O O24 0.218222 0.781779 0.701744
#
# Coordination Sequence:
#
# PCOD9577205 Si02
#       8
#     6   6   6   6   6   6   6   6
#     4  10  20  32  45  62  87 121 157 189 221 260
#     4   8  13  22  39  65  94 118 139 169 217 274
#     4   9  16  27  46  71  94 114 140 180 229 275
#     4   9  16  27  45  69  95 119 143 176 222 275
#     4  10  20  33  49  69  93 121 152 186 224 265
#     4   9  17  30  50  74  96 116 141 179 226 270
#     4   9  17  30  49  73  98 121 144 174 217 267
#     4  10  20  33  48  65  87 118 156 195 230 264
#
# _framework density 15.597928
#
# number of rings (size 3 to 8) (size 9 to 14) (size 15 to 20)
#    0.000    2.750    0.000    2.125    0.000    3.500 
#    0.000    1.875    0.000    8.000    0.000    0.000 
#    0.000    0.000    0.000    0.000    0.000    0.000 
#
# Total GULP energy -267285.424841 kJ/mol
# GULP energy per Si atom -5568.446351 kJ/mol
# Density = 1.556243 g / cm^3
# Si number density = 15.597928 Si / 1000 Ang^3
#
#
#
# Elastic Constant Matrix: (Units=GPa)
#
#
# Indices 1 2 3 4 5 6 
#
# 1 88.7354 46.8601 76.7403 -0.8645 -0.0002 0.0000
# 2 46.8601 88.7354 76.7403 0.8645 0.0002 0.0000
# 3 76.7403 76.7403 142.4705 0.0000 0.0000 0.0000
# 4 -0.8645 0.8645 0.0000 18.6619 0.0000 0.0002
# 5 -0.0002 0.0002 0.0000 0.0000 18.6619 -0.8645
# 6 0.0000 0.0000 0.0000 0.0002 -0.8645 20.9376
#
#
#
# Elastic Compliance Matrix: (Units=1/GPa)
#
#
# Indices 1 2 3 4 5 6 
#
# 1 0.021410 -0.002516 -0.010177 0.001108 0.000000 0.000000
# 2 -0.002516 0.021410 -0.010177 -0.001108 0.000000 0.000000
# 3 -0.010177 -0.010177 0.017983 0.000000 0.000000 0.000000
# 4 0.001108 -0.001108 0.000000 0.053688 0.000000 -0.000001
# 5 0.000000 0.000000 0.000000 0.000000 0.053688 0.002217
# 6 0.000000 0.000000 0.000000 -0.000001 0.002217 0.047852
#
#
# Mechanical properties :
#
#
# Convention : Reuss Voigt Hill
#
# Bulk Modulus (GPa) = 66.38954 80.06920 73.22937
# Shear Modulus (GPa) = 18.74104 19.62566 19.18335
#
# Velocity S-wave (km/s) = 3.47004 3.55099 3.51075
# Velocity P-wave (km/s) = 7.66227 8.26180 7.96768
#
# Compressibility (1/GPa) = 0.01506261
#
# Stress axis : x y z
#
# Youngs Moduli (GPa) = 46.70611 46.70611 55.60816
#
# Poissons Ratio (x) = 0.11750 0.56595
# Poissons Ratio (y) = 0.11750 0.56595
# Poissons Ratio (z) = 0.47535 0.47535
#
# Static dielectric constant tensor:
#      x y z
#    x 1.487010 0.000000 0.000000 
#    y 0.000000 1.487010 0.000000 
#    z 0.000000 0.000000 1.554520 
# 
# From -- ./inp_files/1121.got.cif
#   From: 2010.05.17/outbox.cif.g08.bks.cpg/sg156_cif.got.tgz:1121.got - 2010.05.20 10:49:08.
