data_PCOD9577552
_publ_section_title
;
Structure prediction by ZEFSAII (Michael W. Deem and Ramdas Pophale) SiO2 
 PCOD9577552
Probable space group: R 3 C
;
_chemical_formula_sum "Si O2"
_cell_formula_units_Z 126
_cell_length_a 15.258087
_cell_length_b 15.258087
_cell_length_c 24.443360
_cell_angle_alpha 90.000000
_cell_angle_beta 90.000000
_cell_angle_gamma 120.000000
_cell_volume 4928.238413
_symmetry_space_group_name_H-M "R 3 C"
_symmetry_group_IT_number 161
_symmetry_cell_setting 'hexagonal'
loop_
_space_group_symop_operation_xyz
x,y,z
-y,x-y,z
-x+y,-x,z
-x+y,y,1/2+z
x,x-y,1/2+z
-y,-x,1/2+z
2/3+x,1/3+y,1/3+z
2/3-y,1/3+x-y,1/3+z
2/3-x+y,1/3-x,1/3+z
2/3-x+y,1/3+y,5/6+z
2/3+x,1/3+x-y,5/6+z
2/3-y,1/3-x,5/6+z
1/3+x,2/3+y,2/3+z
1/3-y,2/3+x-y,2/3+z
1/3-x+y,2/3-x,2/3+z
1/3-x+y,2/3+y,1/6+z
1/3+x,2/3+x-y,1/6+z
1/3-y,2/3-x,1/6+z
loop_
_atom_site_type_symbol
_atom_site_label
_atom_site_fract_x
_atom_site_fract_y
_atom_site_fract_z
Si Si1 0.594008 0.905425 0.914991
Si Si2 0.493875 0.852107 0.679207
Si Si3 0.148170 0.457251 0.938619
Si Si4 0.662062 0.593794 0.202828
Si Si5 0.151904 0.533727 0.058795
Si Si6 0.154710 0.299442 0.691366
Si Si7 0.875216 0.959233 0.613801
O O1 0.528824 0.783494 0.918495
O O2 0.591861 0.956184 0.972899
O O3 0.703663 0.919299 0.906890
O O4 0.579839 0.963127 0.864226
O O5 0.464494 0.805397 0.618747
O O6 0.590290 0.839587 0.694709
O O7 0.394667 0.804010 0.716256
O O8 0.548103 0.974255 0.694831
O O9 0.058807 0.347870 0.914593
O O10 0.108591 0.524143 0.908218
O O11 0.165779 0.489445 0.001922
O O12 0.691954 0.508947 0.215644
O O13 0.151097 0.232939 0.640201
O O14 0.928754 0.892180 0.629503
#
# Coordination Sequence:
#
# PCOD9577552 Si02
#       7
#    18  18  18  18  18  18  18
#     4  10  21  37  62  92 128 172 223 285 353 411
#     4  10  24  42  66 103 131 184 238 284 361 436
#     4  10  21  38  63  92 131 175 225 288 361 413
#     4   9  20  40  63  91 131 167 225 284 346 414
#     4  10  21  42  60  96 134 171 225 300 350 420
#     4  11  22  39  69  99 129 182 239 282 346 435
#     4  10  25  48  67  99 146 187 231 303 365 427
#
# _framework density 25.566942999999998
#
# number of rings (size 3 to 8) (size 9 to 14) (size 15 to 20)
#    0.286    1.714    1.429    0.857    4.000    6.857 
#    6.000    0.000    0.000    0.000    0.000    0.000 
#    0.000    0.000    0.000    0.000    0.000    0.000 
#
# Total GULP energy -233828.884351 kJ/mol
# GULP energy per Si atom -5567.354389 kJ/mol
# Density = 2.550875 g / cm^3
# Si number density = 25.566943 Si / 1000 Ang^3
#
#
#
# Elastic Constant Matrix: (Units=GPa)
#
#
# Indices 1 2 3 4 5 6 
#
# 1 60.3976 25.7535 37.7210 -5.1103 0.0000 0.0000
# 2 25.7535 60.3976 37.7210 5.1103 0.0000 0.0000
# 3 37.7210 37.7210 144.9474 0.0000 0.0000 0.0000
# 4 -5.1103 5.1103 0.0000 26.2367 0.0000 0.0000
# 5 0.0000 0.0000 0.0000 0.0000 26.2367 -5.1103
# 6 0.0000 0.0000 0.0000 0.0000 -5.1103 17.3220
#
#
#
# Elastic Compliance Matrix: (Units=1/GPa)
#
#
# Indices 1 2 3 4 5 6 
#
# 1 0.022829 -0.007796 -0.003912 0.005965 0.000000 0.000000
# 2 -0.007796 0.022829 -0.003912 -0.005965 0.000000 0.000000
# 3 -0.003912 -0.003912 0.008935 0.000000 0.000000 0.000000
# 4 0.005965 -0.005965 0.000000 0.040438 0.000000 0.000000
# 5 0.000000 0.000000 0.000000 0.000000 0.040438 0.011930
# 6 0.000000 0.000000 0.000000 0.000000 0.011930 0.061249
#
#
# Mechanical properties :
#
#
# Convention : Reuss Voigt Hill
#
# Bulk Modulus (GPa) = 42.82089 52.01487 47.41788
# Shear Modulus (GPa) = 21.20942 24.92888 23.06915
#
# Velocity S-wave (km/s) = 2.88334 3.12596 3.00710
# Velocity P-wave (km/s) = 5.27918 5.78079 5.53567
#
# Compressibility (1/GPa) = 0.02335309
#
# Stress axis : x y z
#
# Youngs Moduli (GPa) = 43.80373 43.80373 111.91532
#
# Poissons Ratio (x) = 0.34148 0.43785
# Poissons Ratio (y) = 0.34148 0.43785
# Poissons Ratio (z) = 0.17137 0.17137
#
# Static dielectric constant tensor:
#      x y z
#    x 2.113480 0.000000 0.000000 
#    y 0.000000 2.113480 0.000000 
#    z 0.000000 0.000000 2.071550 
# 
# From -- ./inp_files/1928.got.cif
#   From: 2010.05.17/outbox.cif.g08.bks.cpg/sg161_cif.got.tgz:1928.got - 2010.05.20 10:52:32.
