data_PCOD9577598
_publ_section_title
;
Structure prediction by ZEFSAII (Michael W. Deem and Ramdas Pophale) SiO2 
 PCOD9577598
Probable space group: R 3 C
;
_chemical_formula_sum "Si O2"
_cell_formula_units_Z 108
_cell_length_a 16.847753
_cell_length_b 16.847753
_cell_length_c 18.513013
_cell_angle_alpha 90.000000
_cell_angle_beta 90.000000
_cell_angle_gamma 120.000000
_cell_volume 4550.841517
_symmetry_space_group_name_H-M "R 3 C"
_symmetry_group_IT_number 161
_symmetry_cell_setting 'hexagonal'
loop_
_space_group_symop_operation_xyz
x,y,z
-y,x-y,z
-x+y,-x,z
-x+y,y,1/2+z
x,x-y,1/2+z
-y,-x,1/2+z
2/3+x,1/3+y,1/3+z
2/3-y,1/3+x-y,1/3+z
2/3-x+y,1/3-x,1/3+z
2/3-x+y,1/3+y,5/6+z
2/3+x,1/3+x-y,5/6+z
2/3-y,1/3-x,5/6+z
1/3+x,2/3+y,2/3+z
1/3-y,2/3+x-y,2/3+z
1/3-x+y,2/3-x,2/3+z
1/3-x+y,2/3+y,1/6+z
1/3+x,2/3+x-y,1/6+z
1/3-y,2/3-x,1/6+z
loop_
_atom_site_type_symbol
_atom_site_label
_atom_site_fract_x
_atom_site_fract_y
_atom_site_fract_z
Si Si1 0.563002 0.496911 0.762648
Si Si2 0.549424 0.947833 0.507499
Si Si3 0.234823 0.675382 0.709086
Si Si4 0.197330 0.712248 0.866367
Si Si5 0.685917 0.128910 0.680353
Si Si6 0.080273 0.645146 0.346512
O O1 0.628135 0.548834 0.695378
O O2 0.627191 0.489132 0.825007
O O3 0.487826 0.397643 0.735846
O O4 0.526882 0.563678 0.789033
O O5 0.450011 0.909313 0.542891
O O6 0.544046 0.951673 0.421971
O O7 0.610865 0.051913 0.529812
O O8 0.244352 0.585847 0.695409
O O9 0.206069 0.666921 0.793062
O O10 0.286349 0.812484 0.857852
O O11 0.180666 0.669171 0.946292
O O12 0.704553 0.044794 0.664185
#
# Coordination Sequence:
#
# PCOD9577598 Si02
#       6
#    18  18  18  18  18  18
#     4  12  23  46  72 102 141 190 239 302 357 437
#     4  11  24  44  69 100 141 183 240 293 367 429
#     4  10  25  42  66 103 140 182 237 294 355 429
#     4  11  23  45  65 105 139 182 241 289 366 431
#     4  11  26  42  71 102 141 188 239 303 359 437
#     4  11  25  43  69 102 136 187 234 299 356 433
#
# _framework density 23.731874999999999
#
# number of rings (size 3 to 8) (size 9 to 14) (size 15 to 20)
#    0.333    0.667    5.000    1.000    2.333    4.000 
#    1.000    0.000    0.000    0.000    0.000    0.000 
#    0.000    0.000    0.000    0.000    0.000    0.000 
#
# Total GULP energy -201019.417595 kJ/mol
# GULP energy per Si atom -5583.872711 kJ/mol
# Density = 2.367786 g / cm^3
# Si number density = 23.731875 Si / 1000 Ang^3
#
#
#
# Elastic Constant Matrix: (Units=GPa)
#
#
# Indices 1 2 3 4 5 6 
#
# 1 40.9833 9.5682 12.0494 -14.6345 0.0000 0.0000
# 2 9.5682 40.9833 12.0494 14.6345 0.0000 0.0000
# 3 12.0494 12.0494 47.7212 0.0000 0.0000 0.0000
# 4 -14.6345 14.6345 0.0000 26.0360 0.0000 0.0000
# 5 0.0000 0.0000 0.0000 0.0000 26.0360 -14.6345
# 6 0.0000 0.0000 0.0000 0.0000 -14.6345 15.7076
#
#
#
# Elastic Compliance Matrix: (Units=1/GPa)
#
#
# Indices 1 2 3 4 5 6 
#
# 1 0.044659 -0.022171 -0.005678 0.037564 0.000000 0.000000
# 2 -0.022171 0.044659 -0.005678 -0.037564 0.000000 0.000000
# 3 -0.005678 -0.005678 0.023823 0.000000 0.000000 0.000000
# 4 0.037564 -0.037564 0.000000 0.080637 0.000000 0.000000
# 5 0.000000 0.000000 0.000000 0.000000 0.080637 0.075129
# 6 0.000000 0.000000 0.000000 0.000000 0.075129 0.133660
#
#
# Mechanical properties :
#
#
# Convention : Reuss Voigt Hill
#
# Bulk Modulus (GPa) = 21.69820 21.89133 21.79476
# Shear Modulus (GPa) = 10.19383 19.95728 15.07556
#
# Velocity S-wave (km/s) = 2.07479 2.90306 2.52314
# Velocity P-wave (km/s) = 3.86038 4.52564 4.20619
#
# Compressibility (1/GPa) = 0.04608678
#
# Stress axis : x y z
#
# Youngs Moduli (GPa) = 22.39170 22.39170 41.97699
#
# Poissons Ratio (x) = 0.49644 0.23836
# Poissons Ratio (y) = 0.49644 0.23836
# Poissons Ratio (z) = 0.12715 0.12715
#
# Static dielectric constant tensor:
#      x y z
#    x 1.910350 0.000000 0.000000 
#    y 0.000000 1.910350 0.000000 
#    z 0.000000 0.000000 2.099590 
# 
# From -- ./inp_files/1672.got.cif
#   From: 2010.05.17/outbox.cif.g08.bks.cpg/sg161_cif.got.tgz:1672.got - 2010.05.20 10:52:32.
