data_PCOD9577262
_publ_section_title
;
Structure prediction by ZEFSAII (Michael W. Deem and Ramdas Pophale) SiO2 
 PCOD9577262
Probable space group: P 3 1 M
;
_chemical_formula_sum "Si O2"
_cell_formula_units_Z 42
_cell_length_a 14.859029
_cell_length_b 14.859029
_cell_length_c 11.029913
_cell_angle_alpha 90.000000
_cell_angle_beta 90.000000
_cell_angle_gamma 120.000000
_cell_volume 2109.033991
_symmetry_space_group_name_H-M "P 3 1 M"
_symmetry_group_IT_number 157
_symmetry_cell_setting 'hexagonal'
loop_
_space_group_symop_operation_xyz
x,y,z
-y,x-y,z
-x+y,-x,z
y,x,z
x-y,-y,z
-x,-x+y,z
loop_
_atom_site_type_symbol
_atom_site_label
_atom_site_fract_x
_atom_site_fract_y
_atom_site_fract_z
Si Si1 0.884550 0.115483 0.142820
Si Si2 0.822171 0.538928 0.170096
Si Si3 0.506555 0.118429 0.276276
Si Si4 0.883996 0.768613 0.850215
Si Si5 0.879053 0.487587 0.906452
Si Si6 0.818780 0.280482 0.789744
Si Si7 0.212493 0.550525 0.531338
O O1 0.791906 0.130995 0.189440
O O2 0.000000 0.199811 0.182496
O O3 0.859855 0.000000 0.172550
O O4 0.879691 0.121345 0.996445
O O5 0.865606 0.486743 0.261796
O O6 0.699818 0.493978 0.190571
O O7 0.851066 0.513947 0.038107
O O8 0.493300 0.146869 0.413270
O O9 0.424131 0.000000 0.243810
O O10 0.859350 0.859350 0.819598
O O11 0.793185 0.661017 0.799675
O O12 0.000000 0.799861 0.812309
O O13 0.862244 0.372589 0.888855
O O14 0.796500 0.493381 0.817202
O O15 0.000000 0.569137 0.881867
O O16 0.835508 0.331915 0.658066
O O17 0.329595 0.568211 0.526897
#
# Coordination Sequence:
#
# PCOD9577262 Si02
#       7
#     6   6   6   6   6   6   6
#     4  10  20  36  58  86 122 161 203 250 304 367
#     4  12  23  41  60  90 132 165 208 257 307 383
#     4  12  25  42  68  92 121 170 218 266 320 369
#     4  10  21  38  59  88 126 168 211 258 310 372
#     4  12  24  38  61  95 131 170 203 246 318 388
#     4  12  22  40  64  92 131 164 208 261 314 384
#     4  10  20  45  64  87 122 166 209 264 317 371
#
# _framework density 19.914331000000001
#
# number of rings (size 3 to 8) (size 9 to 14) (size 15 to 20)
#    0.286    0.571    4.286    4.286    0.000    2.286 
#    0.000    0.000    0.000    0.000    0.000    0.000 
#    0.000    2.286    0.000    0.000    0.000    0.000 
#
# Total GULP energy -234540.835043 kJ/mol
# GULP energy per Si atom -5584.305596 kJ/mol
# Density = 1.986901 g / cm^3
# Si number density = 19.914331 Si / 1000 Ang^3
#
#
#
# Elastic Constant Matrix: (Units=GPa)
#
#
# Indices 1 2 3 4 5 6 
#
# 1 105.8981 41.1214 21.8943 0.0000 -5.6687 0.0000
# 2 41.1214 105.8981 21.8943 0.0000 5.6687 0.0000
# 3 21.8943 21.8943 51.9269 0.0000 0.0000 0.0000
# 4 0.0000 0.0000 0.0000 8.0781 0.0000 5.6687
# 5 -5.6687 5.6687 0.0000 0.0000 8.0781 0.0000
# 6 0.0000 0.0000 0.0000 5.6687 0.0000 32.3884
#
#
#
# Elastic Compliance Matrix: (Units=1/GPa)
#
#
# Indices 1 2 3 4 5 6 
#
# 1 0.012689 -0.004910 -0.003280 0.000000 0.012350 0.000000
# 2 -0.004910 0.012689 -0.003280 0.000000 -0.012350 0.000000
# 3 -0.003280 -0.003280 0.022024 0.000000 0.000000 0.000000
# 4 0.000000 0.000000 0.000000 0.141125 0.000000 -0.024700
# 5 0.012350 -0.012350 0.000000 0.000000 0.141125 0.000000
# 6 0.000000 0.000000 0.000000 -0.024700 0.000000 0.035198
#
#
# Mechanical properties :
#
#
# Convention : Reuss Voigt Hill
#
# Bulk Modulus (GPa) = 40.88000 48.17144 44.52572
# Shear Modulus (GPa) = 12.62809 21.62978 17.12893
#
# Velocity S-wave (km/s) = 2.52091 3.29924 2.93598
# Velocity P-wave (km/s) = 5.38941 6.22537 5.82241
#
# Compressibility (1/GPa) = 0.02446184
#
# Stress axis : x y z
#
# Youngs Moduli (GPa) = 78.80890 78.80890 45.40586
#
# Poissons Ratio (x) = 0.38697 0.14892
# Poissons Ratio (y) = 0.38697 0.14892
# Poissons Ratio (z) = 0.25848 0.25848
#
# Static dielectric constant tensor:
#      x y z
#    x 1.726370 0.000000 0.000000 
#    y 0.000000 1.726370 0.000000 
#    z 0.000000 0.000000 1.697780 
# 
# From -- ./inp_files/591.got.cif
#   From: 2010.05.17/outbox.cif.g08.bks.cpg/sg157_cif.got.tgz:591.got - 2010.05.20 10:49:36.
