data_PCOD9577319
_publ_section_title
;
Structure prediction by ZEFSAII (Michael W. Deem and Ramdas Pophale) SiO2 
 PCOD9577319
Probable space group: P 3 C 1
;
_chemical_formula_sum "Si O2"
_cell_formula_units_Z 34
_cell_length_a 8.161005
_cell_length_b 8.161005
_cell_length_c 29.377702
_cell_angle_alpha 90.000000
_cell_angle_beta 90.000000
_cell_angle_gamma 120.000000
_cell_volume 1694.477243
_symmetry_space_group_name_H-M "P 3 C 1"
_symmetry_group_IT_number 158
_symmetry_cell_setting 'hexagonal'
loop_
_space_group_symop_operation_xyz
x,y,z
-y,x-y,z
-x+y,-x,z
-x+y,y,1/2+z
x,x-y,1/2+z
-y,-x,1/2+z
loop_
_atom_site_type_symbol
_atom_site_label
_atom_site_fract_x
_atom_site_fract_y
_atom_site_fract_z
Si Si1 0.747790 0.852346 0.656540
Si Si2 0.665540 0.965850 0.257028
Si Si3 0.957060 0.651219 0.899029
Si Si4 0.333334 0.666668 0.109980
Si Si5 0.353817 0.028092 0.295366
Si Si6 0.040808 0.354937 0.937174
Si Si7 0.333334 0.666668 0.501722
O O1 0.664411 0.775263 0.706914
O O2 0.554504 0.761185 0.626706
O O3 0.916861 0.797860 0.650730
O O4 0.604322 0.797042 0.292624
O O5 0.535111 0.056081 0.268120
O O6 0.873947 0.131483 0.267915
O O7 0.896023 0.617759 0.846684
O O8 0.860068 0.734381 0.932582
O O9 0.934489 0.462814 0.920225
O O10 0.179017 0.802612 0.901124
O O11 0.333334 0.666667 0.055444
O O12 0.163990 0.468364 0.981011
#
# Coordination Sequence:
#
# PCOD9577319 Si02
#       7
#     6   6   6   2   6   6   2
#     4  10  23  48  69 107 143 184 239 289 371 441
#     4  12  23  39  56  89 134 178 226 287 328 404
#     4  11  20  36  57  90 125 178 220 270 331 396
#     4  12  24  51  84 103 146 184 231 318 378 447
#     4  12  22  34  57  88 127 178 233 269 321 401
#     4  10  22  40  62  86 134 168 216 282 342 407
#     4   9  24  48  69 103 119 166 225 285 363 444
#
# _framework density 20.065187000000002
#
# number of rings (size 3 to 8) (size 9 to 14) (size 15 to 20)
#    0.353    0.706    1.765    6.353    0.000    0.000 
#    7.412    0.000    0.000    0.000    0.000    0.000 
#    0.000    0.000    0.000    0.000    0.000    0.000 
#
# Total GULP energy -189284.646967 kJ/mol
# GULP energy per Si atom -5567.195499 kJ/mol
# Density = 2.001952 g / cm^3
# Si number density = 20.065187 Si / 1000 Ang^3
#
#
#
# Elastic Constant Matrix: (Units=GPa)
#
#
# Indices 1 2 3 4 5 6 
#
# 1 98.3075 33.6721 44.5340 2.9209 0.0000 0.0000
# 2 33.6721 98.3069 44.5338 -2.9209 0.0000 0.0000
# 3 44.5340 44.5338 154.9627 -0.0002 0.0000 0.0000
# 4 2.9209 -2.9209 -0.0002 15.7285 0.0000 0.0000
# 5 0.0000 0.0000 0.0000 0.0000 15.7286 2.9209
# 6 0.0000 0.0000 0.0000 0.0000 2.9209 32.3176
#
#
#
# Elastic Compliance Matrix: (Units=1/GPa)
#
#
# Indices 1 2 3 4 5 6 
#
# 1 0.012568 -0.003168 -0.002701 -0.002922 0.000000 0.000000
# 2 -0.003168 0.012568 -0.002701 0.002922 0.000000 0.000000
# 3 -0.002701 -0.002701 0.008006 0.000000 0.000000 0.000000
# 4 -0.002922 0.002922 0.000000 0.064664 0.000000 0.000000
# 5 0.000000 0.000000 0.000000 0.000000 0.064664 -0.005844
# 6 0.000000 0.000000 0.000000 0.000000 -0.005844 0.031471
#
#
# Mechanical properties :
#
#
# Convention : Reuss Voigt Hill
#
# Bulk Modulus (GPa) = 62.49911 66.33966 64.41939
# Shear Modulus (GPa) = 23.10370 28.01074 25.55722
#
# Velocity S-wave (km/s) = 3.39696 3.74034 3.57278
# Velocity P-wave (km/s) = 6.82652 7.19635 7.01387
#
# Compressibility (1/GPa) = 0.01600023
#
# Stress axis : x y z
#
# Youngs Moduli (GPa) = 79.56853 79.56810 124.90848
#
# Poissons Ratio (x) = 0.25205 0.33743
# Poissons Ratio (y) = 0.25206 0.33743
# Poissons Ratio (z) = 0.21495 0.21495
#
# Static dielectric constant tensor:
#      x y z
#    x 1.830750 0.000000 0.000000 
#    y 0.000000 1.830750 0.000000 
#    z 0.000000 0.000000 1.656480 
# 
# From -- ./inp_files/770.got.cif
#   From: 2010.05.17/outbox.cif.g08.bks.cpg/sg158_cif.got.tgz:770.got - 2010.05.20 10:49:59.
