data_PCOD9577138
_publ_section_title
;
Structure prediction by ZEFSAII (Michael W. Deem and Ramdas Pophale) SiO2 
 PCOD9577138
Probable space group: R 3 2
;
_chemical_formula_sum "Si O2"
_cell_formula_units_Z 69
_cell_length_a 19.963906
_cell_length_b 19.963906
_cell_length_c 8.712636
_cell_angle_alpha 90.000000
_cell_angle_beta 90.000000
_cell_angle_gamma 120.000000
_cell_volume 3007.261779
_symmetry_space_group_name_H-M "R 3 2"
_symmetry_group_IT_number 155
_symmetry_cell_setting 'hexagonal'
loop_
_space_group_symop_operation_xyz
x,y,z
-y,x-y,z
-x+y,-x,z
x-y,-y,-z
-x,-x+y,-z
y,x,-z
2/3+x,1/3+y,1/3+z
2/3-y,1/3+x-y,1/3+z
2/3-x+y,1/3-x,1/3+z
2/3+x-y,1/3-y,1/3-z
2/3-x,1/3-x+y,1/3-z
2/3+y,1/3+x,1/3-z
1/3+x,2/3+y,2/3+z
1/3-y,2/3+x-y,2/3+z
1/3-x+y,2/3-x,2/3+z
1/3+x-y,2/3-y,2/3-z
1/3-x,2/3-x+y,2/3-z
1/3+y,2/3+x,2/3-z
loop_
_atom_site_type_symbol
_atom_site_label
_atom_site_fract_x
_atom_site_fract_y
_atom_site_fract_z
Si Si1 0.578554 0.706963 0.830678
Si Si2 0.000000 0.000000 0.815869
Si Si3 0.483487 0.150154 0.833334
Si Si4 0.914767 0.507830 0.930404
Si Si5 0.541562 0.368147 0.501286
O O1 0.542393 0.666667 0.666667
O O2 0.666667 0.730683 0.833334
O O3 0.566806 0.781163 0.830907
O O4 0.547190 0.665379 0.994242
O O5 0.911442 0.956284 0.765699
O O6 0.000000 0.000000 0.000000
O O7 0.554303 0.129523 0.840324
O O8 0.906756 0.573423 0.833334
O O9 0.861385 0.497912 0.073541
O O10 0.000000 0.535354 0.000000
O O11 0.531319 0.333334 0.333334
#
# Coordination Sequence:
#
# PCOD9577138 Si02
#       5
#    18   6   9  18  18
#     4  12  29  47  75 114 157 219 273 341 418 493
#     4   9  18  39  70 107 142 180 250 326 379 460
#     4  12  28  54  78 118 168 212 282 342 420 508
#     4  12  29  51  79 121 163 216 274 346 425 504
#     4  11  23  44  77 110 150 200 262 330 404 485
#
# _framework density 22.944461
#
# number of rings (size 3 to 8) (size 9 to 14) (size 15 to 20)
#    0.000    0.522    2.609    5.478    9.130    2.087 
#    0.783    0.000    0.000    0.000    0.000    0.000 
#    0.000    0.000    0.000    0.000    0.000    0.000 
#
# Total GULP energy -128077.820729 kJ/mol
# GULP energy per Si atom -5568.600901 kJ/mol
# Density = 2.289224 g / cm^3
# Si number density = 22.944461 Si / 1000 Ang^3
#
#
#
# Elastic Constant Matrix: (Units=GPa)
#
#
# Indices 1 2 3 4 5 6 
#
# 1 87.2520 27.1104 44.1293 6.8532 -0.0016 0.0001
# 2 27.1104 87.2525 44.1316 -6.8539 0.0008 0.0000
# 3 44.1293 44.1316 162.1854 -0.0007 -0.0027 0.0002
# 4 6.8532 -6.8539 -0.0007 10.1257 -0.0007 0.0005
# 5 -0.0016 0.0008 -0.0027 -0.0007 10.1250 6.8536
# 6 0.0001 0.0000 0.0002 0.0005 6.8536 30.0714
#
#
#
# Elastic Compliance Matrix: (Units=1/GPa)
#
#
# Indices 1 2 3 4 5 6 
#
# 1 0.015364 -0.004296 -0.003012 -0.013307 0.000001 0.000000
# 2 -0.004296 0.015364 -0.003012 0.013307 -0.000002 0.000000
# 3 -0.003012 -0.003012 0.007805 0.000000 0.000002 -0.000001
# 4 -0.013307 0.013307 0.000000 0.116772 0.000007 -0.000003
# 5 0.000001 -0.000002 0.000002 0.000007 0.116781 -0.026616
# 6 0.000000 0.000000 -0.000001 -0.000003 -0.026616 0.039320
#
#
# Mechanical properties :
#
#
# Convention : Reuss Voigt Hill
#
# Bulk Modulus (GPa) = 55.88219 63.04805 59.46512
# Shear Modulus (GPa) = 14.79244 24.81901 19.80572
#
# Velocity S-wave (km/s) = 2.54186 3.29249 2.94122
# Velocity P-wave (km/s) = 5.74657 6.48014 6.12434
#
# Compressibility (1/GPa) = 0.01789479
#
# Stress axis : x y z
#
# Youngs Moduli (GPa) = 65.08643 65.08536 128.12718
#
# Poissons Ratio (x) = 0.27960 0.38587
# Poissons Ratio (y) = 0.27960 0.38590
# Poissons Ratio (z) = 0.19601 0.19603
#
# Static dielectric constant tensor:
#      x y z
#    x 1.888080 0.000000 0.000000 
#    y 0.000000 1.888080 0.000000 
#    z 0.000000 0.000000 1.913380 
# 
# From -- ./inp_files/2203.got.cif
#   From: 2010.05.17/outbox.cif.g08.bks.cpg/sg155_2_cif.got.tgz:2203.got - 2010.05.20 10:44:35.
