data_PCOD9577059
_publ_section_title
;
Structure prediction by ZEFSAII (Michael W. Deem and Ramdas Pophale) SiO2 
 PCOD9577059
Probable space group: R 3 2
;
_chemical_formula_sum "Si O2"
_cell_formula_units_Z 126
_cell_length_a 21.060541
_cell_length_b 21.060541
_cell_length_c 16.725581
_cell_angle_alpha 90.000000
_cell_angle_beta 90.000000
_cell_angle_gamma 120.000000
_cell_volume 6424.670969
_symmetry_space_group_name_H-M "R 3 2"
_symmetry_group_IT_number 155
_symmetry_cell_setting 'hexagonal'
loop_
_space_group_symop_operation_xyz
x,y,z
-y,x-y,z
-x+y,-x,z
x-y,-y,-z
-x,-x+y,-z
y,x,-z
2/3+x,1/3+y,1/3+z
2/3-y,1/3+x-y,1/3+z
2/3-x+y,1/3-x,1/3+z
2/3+x-y,1/3-y,1/3-z
2/3-x,1/3-x+y,1/3-z
2/3+y,1/3+x,1/3-z
1/3+x,2/3+y,2/3+z
1/3-y,2/3+x-y,2/3+z
1/3-x+y,2/3-x,2/3+z
1/3+x-y,2/3-y,2/3-z
1/3-x,2/3-x+y,2/3-z
1/3+y,2/3+x,2/3-z
loop_
_atom_site_type_symbol
_atom_site_label
_atom_site_fract_x
_atom_site_fract_y
_atom_site_fract_z
Si Si1 0.497744 0.278745 0.649727
Si Si2 0.141916 0.746069 0.202209
Si Si3 0.165278 0.924639 0.021352
Si Si4 0.251772 0.135598 0.147294
Si Si5 0.715425 0.781987 0.560730
Si Si6 0.387106 0.486040 0.817891
Si Si7 0.117369 0.946696 0.693567
O O1 0.429572 0.253779 0.710950
O O2 0.466558 0.261260 0.560363
O O3 0.540839 0.233775 0.655248
O O4 0.551456 0.366469 0.659177
O O5 0.119262 0.666667 0.166667
O O6 0.204890 0.815588 0.155308
O O7 0.073197 0.758764 0.185010
O O8 0.235890 0.934757 0.069853
O O9 0.100498 0.864142 0.074949
O O10 0.161856 0.896248 0.932789
O O11 0.167351 0.000000 0.000000
O O12 0.333334 0.197696 0.166667
O O13 0.209260 0.179263 0.131037
O O14 0.207542 0.076697 0.217719
O O15 0.739106 0.739106 0.500000
O O16 0.769442 0.821537 0.634985
#
# Coordination Sequence:
#
# PCOD9577059 Si02
#       7
#    18  18  18  18  18  18  18
#     4  11  22  39  61  90 129 171 209 265 315 382
#     4  11  21  37  61  88 127 163 207 258 318 381
#     4  11  24  44  64  91 127 167 217 266 324 383
#     4  11  22  41  68  95 127 168 209 268 324 383
#     4  11  22  40  59  90 126 165 213 261 312 383
#     4  10  24  39  63  95 123 167 209 268 324 380
#     4  11  22  39  62  92 128 169 218 255 319 382
#
# _framework density 19.611898
#
# number of rings (size 3 to 8) (size 9 to 14) (size 15 to 20)
#    0.000    1.143    4.286    2.429    0.000    0.571 
#    5.143    2.857    0.000    4.000    0.000    0.000 
#    0.000    0.000    0.000    0.000    0.000    0.000 
#
# Total GULP energy -233954.873299 kJ/mol
# GULP energy per Si atom -5570.354126 kJ/mol
# Density = 1.956726 g / cm^3
# Si number density = 19.611898 Si / 1000 Ang^3
#
#
#
# Elastic Constant Matrix: (Units=GPa)
#
#
# Indices 1 2 3 4 5 6 
#
# 1 39.8812 0.9444 14.7149 8.9288 0.0045 0.0000
# 2 0.9444 39.8812 14.7149 -8.9288 -0.0045 0.0000
# 3 14.7149 14.7149 75.4383 0.0000 0.0000 0.0000
# 4 8.9288 -8.9288 0.0000 42.1940 0.0000 -0.0045
# 5 0.0045 -0.0045 0.0000 0.0000 42.1940 8.9288
# 6 0.0000 0.0000 0.0000 -0.0045 8.9288 19.4684
#
#
#
# Elastic Compliance Matrix: (Units=1/GPa)
#
#
# Indices 1 2 3 4 5 6 
#
# 1 0.028473 0.000030 -0.005560 -0.006019 -0.000003 0.000000
# 2 0.000030 0.028473 -0.005560 0.006019 0.000003 0.000000
# 3 -0.005560 -0.005560 0.015425 0.000000 0.000000 0.000000
# 4 -0.006019 0.006019 0.000000 0.026247 0.000000 0.000006
# 5 -0.000003 0.000003 0.000000 0.000000 0.026247 -0.012038
# 6 0.000000 0.000000 0.000000 0.000006 -0.012038 0.056886
#
#
# Mechanical properties :
#
#
# Convention : Reuss Voigt Hill
#
# Bulk Modulus (GPa) = 19.92402 23.99437 21.95919
# Shear Modulus (GPa) = 22.65922 29.09304 25.87613
#
# Velocity S-wave (km/s) = 3.40278 3.85572 3.63631
# Velocity P-wave (km/s) = 5.06159 5.66421 5.37136
#
# Compressibility (1/GPa) = 0.05019068
#
# Stress axis : x y z
#
# Youngs Moduli (GPa) = 35.12144 35.12144 64.83075
#
# Poissons Ratio (x) = -0.00104 0.36043
# Poissons Ratio (y) = -0.00104 0.36043
# Poissons Ratio (z) = 0.19526 0.19526
#
# Static dielectric constant tensor:
#      x y z
#    x 1.541430 0.000000 0.000000 
#    y 0.000000 1.541430 0.000000 
#    z 0.000000 0.000000 1.667880 
# 
# From -- ./inp_files/6273.got.cif
#   From: 2010.05.17/outbox.cif.g08.bks.cpg/sg155_4_cif.got.tgz:6273.got - 2010.05.20 10:44:35.
