data_PCOD9577118
_publ_section_title
;
Structure prediction by ZEFSAII (Michael W. Deem and Ramdas Pophale) SiO2 
 PCOD9577118
Probable space group: R 3 2
;
_chemical_formula_sum "Si O2"
_cell_formula_units_Z 108
_cell_length_a 20.684802
_cell_length_b 20.684802
_cell_length_c 12.642769
_cell_angle_alpha 90.000000
_cell_angle_beta 90.000000
_cell_angle_gamma 120.000000
_cell_volume 4684.632971
_symmetry_space_group_name_H-M "R 3 2"
_symmetry_group_IT_number 155
_symmetry_cell_setting 'hexagonal'
loop_
_space_group_symop_operation_xyz
x,y,z
-y,x-y,z
-x+y,-x,z
x-y,-y,-z
-x,-x+y,-z
y,x,-z
2/3+x,1/3+y,1/3+z
2/3-y,1/3+x-y,1/3+z
2/3-x+y,1/3-x,1/3+z
2/3+x-y,1/3-y,1/3-z
2/3-x,1/3-x+y,1/3-z
2/3+y,1/3+x,1/3-z
1/3+x,2/3+y,2/3+z
1/3-y,2/3+x-y,2/3+z
1/3-x+y,2/3-x,2/3+z
1/3+x-y,2/3-y,2/3-z
1/3-x,2/3-x+y,2/3-z
1/3+y,2/3+x,2/3-z
loop_
_atom_site_type_symbol
_atom_site_label
_atom_site_fract_x
_atom_site_fract_y
_atom_site_fract_z
Si Si1 0.855355 0.924679 0.434771
Si Si2 0.143819 0.289651 0.543151
Si Si3 0.125111 0.981086 0.208730
Si Si4 0.160340 0.710268 0.556584
Si Si5 0.632369 0.697948 0.445133
Si Si6 0.770533 0.187876 0.116039
O O1 0.861350 0.861350 0.500000
O O2 0.769574 0.903573 0.452440
O O3 0.883244 0.923840 0.316231
O O4 0.905400 0.000000 0.500000
O O5 0.222731 0.365581 0.548335
O O6 0.084609 0.316208 0.517988
O O7 0.130679 0.253785 0.659058
O O8 0.076824 0.916273 0.124686
O O9 0.191036 0.965485 0.239913
O O10 0.177439 0.067478 0.173804
O O11 0.132700 0.666667 0.666667
O O12 0.113591 0.649776 0.467104
O O13 0.624820 0.624820 0.500000
O O14 0.666667 0.703783 0.333334
O O15 0.818387 0.151720 0.166667
#
# Coordination Sequence:
#
# PCOD9577118 Si02
#       6
#    18  18  18  18  18  18
#     4  12  24  44  72 104 141 185 243 315 386 448
#     4  11  23  45  72 100 145 185 244 314 364 450
#     4  11  25  42  70 107 144 187 253 309 372 457
#     4  11  26  48  70 105 151 195 251 311 375 463
#     4  11  21  39  67 104 145 183 235 305 380 437
#     4  12  24  47  77 104 145 200 257 309 386 459
#
# _framework density 23.054099000000001
#
# number of rings (size 3 to 8) (size 9 to 14) (size 15 to 20)
#    0.000    0.667    5.000    3.167    0.000    1.333 
#    1.000    0.000    0.000    0.000    0.000    0.000 
#    0.000    0.000    0.000    0.000    0.000    0.000 
#
# Total GULP energy -201004.747530 kJ/mol
# GULP energy per Si atom -5583.465209 kJ/mol
# Density = 2.300163 g / cm^3
# Si number density = 23.054099 Si / 1000 Ang^3
#
#
#
# Elastic Constant Matrix: (Units=GPa)
#
#
# Indices 1 2 3 4 5 6 
#
# 1 110.8946 42.1417 21.4981 -2.6665 0.0016 0.0000
# 2 42.1417 110.8946 21.4981 2.6665 -0.0016 0.0000
# 3 21.4981 21.4981 63.5484 0.0000 0.0000 0.0000
# 4 -2.6665 2.6665 0.0000 -28.9835 0.0000 -0.0016
# 5 0.0016 -0.0016 0.0000 0.0000 -28.9835 -2.6665
# 6 0.0000 0.0000 0.0000 -0.0016 -2.6665 34.3765
#
#
#
# Elastic Compliance Matrix: (Units=1/GPa)
#
#
# Indices 1 2 3 4 5 6 
#
# 1 0.010831 -0.003611 -0.002443 -0.001329 0.000001 0.000000
# 2 -0.003611 0.010831 -0.002443 0.001329 -0.000001 0.000000
# 3 -0.002443 -0.002443 0.017389 0.000000 0.000000 0.000000
# 4 -0.001329 0.001329 0.000000 -0.034258 0.000000 -0.000002
# 5 0.000001 -0.000001 0.000000 0.000000 -0.034258 -0.002657
# 6 0.000000 0.000000 0.000000 -0.000002 -0.002657 0.028884
#
#
# Mechanical properties :
#
#
# Convention : Reuss Voigt Hill
#
# Bulk Modulus (GPa) = 45.33247 50.62372 47.97809
# Shear Modulus (GPa) = 210.40134 8.62852 109.51493
#
# Velocity S-wave (km/s) = 9.56359 1.93671 6.89975
# Velocity P-wave (km/s) = 11.90193 5.19687 9.18323
#
# Compressibility (1/GPa) = 0.02205925
#
# Stress axis : x y z
#
# Youngs Moduli (GPa) = 92.32559 92.32559 57.50837
#
# Poissons Ratio (x) = 0.33335 0.14048
# Poissons Ratio (y) = 0.33335 0.14048
# Poissons Ratio (z) = 0.22553 0.22553
#
# Static dielectric constant tensor:
#      x y z
#    x 1.923190 0.000000 0.000000 
#    y 0.000000 1.923190 0.000000 
#    z 0.000000 0.000000 1.893440 
# 
# From -- ./inp_files/4063.got.cif
#   From: 2010.05.17/outbox.cif.g08.bks.cpg/sg155_3_cif.got.tgz:4063.got - 2010.05.20 10:44:35.
