data_PCOD9577405
_publ_section_title
;
Structure prediction by ZEFSAII (Michael W. Deem and Ramdas Pophale) SiO2 
 PCOD9577405
Probable space group: P 3 1 C
;
_chemical_formula_sum "Si O2"
_cell_formula_units_Z 34
_cell_length_a 14.079258
_cell_length_b 14.079258
_cell_length_c 10.028060
_cell_angle_alpha 90.000000
_cell_angle_beta 90.000000
_cell_angle_gamma 120.000000
_cell_volume 1721.500250
_symmetry_space_group_name_H-M "P 3 1 C"
_symmetry_group_IT_number 159
_symmetry_cell_setting 'hexagonal'
loop_
_space_group_symop_operation_xyz
x,y,z
-y,x-y,z
-x+y,-x,z
y,x,1/2+z
x-y,-y,1/2+z
-x,-x+y,1/2+z
loop_
_atom_site_type_symbol
_atom_site_label
_atom_site_fract_x
_atom_site_fract_y
_atom_site_fract_z
Si Si1 0.333334 0.666667 0.371976
Si Si2 0.108919 0.133766 0.503289
Si Si3 0.233429 0.460242 0.876759
Si Si4 0.019480 0.765206 0.759889
Si Si5 0.399316 0.492307 0.293171
Si Si6 0.666667 0.333334 0.190303
Si Si7 0.530632 0.080215 0.506073
O O1 0.343513 0.564872 0.319160
O O2 0.333334 0.666667 0.532218
O O3 0.185314 0.219442 0.613252
O O4 0.149812 0.180434 0.356812
O O5 0.111002 0.020025 0.520055
O O6 0.208077 0.343400 0.823295
O O7 0.267671 0.544928 0.753114
O O8 0.135944 0.462070 0.955651
O O9 0.341974 0.509305 0.969566
O O10 0.945620 0.634075 0.763416
O O11 0.470752 0.497701 0.420878
O O12 0.475991 0.536451 0.162936
#
# Coordination Sequence:
#
# PCOD9577405 Si02
#       7
#     2   6   6   6   6   2   6
#     4  12  27  43  65  97 141 172 224 286 336 385
#     4  10  23  42  63  89 130 162 213 267 331 391
#     4   9  20  38  67  89 132 170 213 260 330 390
#     4  11  21  41  68  93 126 176 216 268 325 397
#     4  11  25  41  67  93 134 172 221 274 333 398
#     4   9  21  37  65  94 132 172 206 262 330 388
#     4  10  21  42  63  97 129 172 213 267 329 397
#
# _framework density 19.750214
#
# number of rings (size 3 to 8) (size 9 to 14) (size 15 to 20)
#    0.353    1.412    0.000    4.588    9.882    0.000 
#    9.529    0.000    0.000    0.000    0.000    0.000 
#    0.000    0.000    0.000    0.000    0.000    0.000 
#
# Total GULP energy -189989.331486 kJ/mol
# GULP energy per Si atom -5587.921514 kJ/mol
# Density = 1.970526 g / cm^3
# Si number density = 19.750214 Si / 1000 Ang^3
#
#
#
# Elastic Constant Matrix: (Units=GPa)
#
#
# Indices 1 2 3 4 5 6 
#
# 1 103.3590 -17.3307 -4.0823 -0.0002 -12.7028 -0.0035
# 2 -17.3307 103.3570 -4.0828 -0.0001 12.7026 0.0018
# 3 -4.0823 -4.0828 89.6809 0.0002 0.0001 -0.0004
# 4 -0.0002 -0.0001 0.0002 24.1930 0.0001 12.7027
# 5 -12.7028 12.7026 0.0001 0.0001 24.1929 0.0000
# 6 -0.0035 0.0018 -0.0004 12.7027 0.0000 60.3474
#
#
#
# Elastic Compliance Matrix: (Units=1/GPa)
#
#
# Indices 1 2 3 4 5 6 
#
# 1 0.010495 0.001180 0.000531 0.000000 0.004891 0.000001
# 2 0.001180 0.010495 0.000531 0.000000 -0.004891 0.000000
# 3 0.000531 0.000531 0.011199 0.000000 0.000000 0.000000
# 4 0.000000 0.000000 0.000000 0.046470 0.000000 -0.009782
# 5 0.004891 -0.004891 0.000000 0.000000 0.046471 0.000000
# 6 0.000001 0.000000 0.000000 -0.009782 0.000000 0.018630
#
#
# Mechanical properties :
#
#
# Convention : Reuss Voigt Hill
#
# Bulk Modulus (GPa) = 27.26711 27.26725 27.26718
# Shear Modulus (GPa) = 33.00350 43.20619 38.10484
#
# Velocity S-wave (km/s) = 4.09228 4.68229 4.39719
# Velocity P-wave (km/s) = 6.01373 6.56260 6.29415
#
# Compressibility (1/GPa) = 0.03667422
#
# Stress axis : x y z
#
# Youngs Moduli (GPa) = 95.28420 95.28240 89.29343
#
# Poissons Ratio (x) = -0.11240 -0.04745
# Poissons Ratio (y) = -0.11240 -0.04746
# Poissons Ratio (z) = -0.05064 -0.05064
#
# Static dielectric constant tensor:
#      x y z
#    x 1.681610 0.000000 0.000000 
#    y 0.000000 1.681610 0.000000 
#    z 0.000000 0.000000 1.675870 
# 
# From -- ./inp_files/402.got.cif
#   From: 2010.05.17/outbox.cif.g08.bks.cpg/sg159_cif.got.tgz:402.got - 2010.05.20 10:50:30.
