data_PCOD9577991
_publ_section_title
;
Structure prediction by ZEFSAII (Michael W. Deem and Ramdas Pophale) SiO2 
 PCOD9577991
Probable space group: P -3 1 C
;
_chemical_formula_sum "Si O2"
_cell_formula_units_Z 78
_cell_length_a 23.677412
_cell_length_b 23.677412
_cell_length_c 8.022766
_cell_angle_alpha 90.000000
_cell_angle_beta 90.000000
_cell_angle_gamma 120.000000
_cell_volume 3895.141324
_symmetry_space_group_name_H-M "P -3 1 C"
_symmetry_group_IT_number 163
_symmetry_cell_setting 'hexagonal'
loop_
_space_group_symop_operation_xyz
x,y,z
-y,x-y,z
-x+y,-x,z
-y,-x,1/2-z
-x+y,y,1/2-z
x,x-y,1/2-z
-x,-y,-z
y,-x+y,-z
x-y,x,-z
y,x,1/2+z
x-y,-y,1/2+z
-x,-x+y,1/2+z
loop_
_atom_site_type_symbol
_atom_site_label
_atom_site_fract_x
_atom_site_fract_y
_atom_site_fract_z
Si Si1 0.474484 0.610486 0.629505
Si Si2 0.507135 0.575547 0.100599
Si Si3 0.932316 0.850149 0.050654
Si Si4 0.964705 0.617004 0.326673
Si Si5 0.182092 0.690920 0.203720
Si Si6 0.123842 0.876159 0.250000
Si Si7 0.922373 0.655460 0.629796
O O1 0.412843 0.587158 0.750000
O O2 0.459158 0.541132 0.551296
O O3 0.545763 0.642324 0.715566
O O4 0.479527 0.654767 0.472313
O O5 0.476415 0.523586 0.250000
O O6 0.583335 0.599489 0.082347
O O7 0.496622 0.635482 0.160221
O O8 0.917876 0.835751 0.250000
O O9 0.895952 0.887071 0.979890
O O10 0.910500 0.791504 0.918932
O O11 0.932949 0.651184 0.434642
O O12 0.012026 0.671473 0.199296
O O13 0.255488 0.744513 0.250000
O O14 0.139458 0.726181 0.180166
O O15 0.199212 0.909670 0.301295
#
# Coordination Sequence:
#
# PCOD9577991 Si02
#       7
#    12  12  12  12  12   6  12
#     4  10  18  30  54  87 117 145 197 267 313 362
#     4   9  17  30  54  85 114 151 195 254 311 375
#     4  12  25  45  71  99 124 162 212 281 344 380
#     4  10  19  32  56  84 120 158 193 250 318 376
#     4   9  18  36  54  75 114 167 207 235 307 386
#     4  12  26  42  64  88 134 170 226 270 302 406
#     4  10  22  36  56  81 120 165 205 248 300 384
#
# _framework density 20.024947000000001
#
# number of rings (size 3 to 8) (size 9 to 14) (size 15 to 20)
#    0.000    1.846    2.308    2.923    2.154    0.000 
#    0.000    0.769    0.000    8.308    0.000    0.000 
#    0.000    0.000    0.000    0.000    0.000    0.154 
#
# Total GULP energy -434631.019930 kJ/mol
# GULP energy per Si atom -5572.192563 kJ/mol
# Density = 1.997937 g / cm^3
# Si number density = 20.024947 Si / 1000 Ang^3
#
#
#
# Elastic Constant Matrix: (Units=GPa)
#
#
# Indices 1 2 3 4 5 6 
#
# 1 94.4089 43.4109 41.2696 0.0004 11.9741 0.0000
# 2 43.4109 94.4089 41.2696 -0.0004 -11.9741 0.0000
# 3 41.2696 41.2696 84.5150 0.0000 0.0000 0.0000
# 4 0.0004 -0.0004 0.0000 20.2428 0.0000 -11.9741
# 5 11.9741 -11.9741 0.0000 0.0000 20.2428 0.0004
# 6 0.0000 0.0000 0.0000 -11.9741 0.0004 25.4990
#
#
#
# Elastic Compliance Matrix: (Units=1/GPa)
#
#
# Indices 1 2 3 4 5 6 
#
# 1 0.018703 -0.008448 -0.005008 -0.000001 -0.016060 0.000000
# 2 -0.008448 0.018703 -0.005008 0.000001 0.016060 0.000000
# 3 -0.005008 -0.005008 0.016723 0.000000 0.000000 0.000000
# 4 -0.000001 0.000001 0.000000 0.068400 0.000000 0.032120
# 5 -0.016060 0.016060 0.000000 0.000000 0.068400 -0.000001
# 6 0.000000 0.000000 0.000000 0.032120 -0.000001 0.054301
#
#
# Mechanical properties :
#
#
# Convention : Reuss Voigt Hill
#
# Bulk Modulus (GPa) = 58.13221 58.35926 58.24574
# Shear Modulus (GPa) = 17.36781 23.02242 20.19512
#
# Velocity S-wave (km/s) = 2.94821 3.39438 3.17913
# Velocity P-wave (km/s) = 6.37826 6.67600 6.52883
#
# Compressibility (1/GPa) = 0.01720217
#
# Stress axis : x y z
#
# Youngs Moduli (GPa) = 53.46855 53.46855 59.79891
#
# Poissons Ratio (x) = 0.45169 0.29945
# Poissons Ratio (y) = 0.45169 0.29945
# Poissons Ratio (z) = 0.26775 0.26775
#
# Static dielectric constant tensor:
#      x y z
#    x 1.708480 0.000000 0.000000 
#    y 0.000000 1.708480 0.000000 
#    z 0.000000 0.000000 1.765660 
# 
# From -- ./inp_files/1293.got.cif
#   From: 2010.05.17/outbox.cif.g08.bks.cpg/sg163_1_cif.got.tgz:1293.got - 2010.05.20 10:56:03.
