data_PCOD9577198
_publ_section_title
;
Structure prediction by ZEFSAII (Michael W. Deem and Ramdas Pophale) SiO2 
 PCOD9577198
Probable space group: P 3 M 1
;
_chemical_formula_sum "Si O2"
_cell_formula_units_Z 36
_cell_length_a 18.444217
_cell_length_b 18.444217
_cell_length_c 7.611516
_cell_angle_alpha 90.000000
_cell_angle_beta 90.000000
_cell_angle_gamma 120.000000
_cell_volume 2242.447285
_symmetry_space_group_name_H-M "P 3 M 1"
_symmetry_group_IT_number 156
_symmetry_cell_setting 'hexagonal'
loop_
_space_group_symop_operation_xyz
x,y,z
-y,x-y,z
-x+y,-x,z
-x+y,y,z
x,x-y,z
-y,-x,z
loop_
_atom_site_type_symbol
_atom_site_label
_atom_site_fract_x
_atom_site_fract_y
_atom_site_fract_z
Si Si1 0.100091 0.467868 0.990900
Si Si2 0.737800 0.640851 0.311462
Si Si3 0.096948 0.737800 0.311459
Si Si4 0.632226 0.100094 0.990900
Si Si5 0.667365 0.165905 0.601158
Si Si6 0.332636 0.834096 0.601157
O O1 0.122788 0.561394 0.047721
O O2 0.143737 0.475213 0.805272
O O3 0.999998 0.416800 0.961683
O O4 0.118102 0.418732 0.141039
O O5 0.835834 0.671667 0.322727
O O6 0.711561 0.711561 0.302229
O O7 0.692431 0.580808 0.477778
O O8 0.699371 0.581267 0.141042
O O9 0.164166 0.835835 0.322722
O O10 0.111624 0.692433 0.477776
O O11 0.561396 0.122792 0.047716
O O12 0.668529 0.143741 0.805273
O O13 0.575291 0.150582 0.561910
O O14 0.737843 0.262158 0.571171
O O15 0.424709 0.849418 0.561903
O O16 0.262158 0.737843 0.571179
#
# Coordination Sequence:
#
# PCOD9577198 Si02
#       6
#     6   6   6   6   6   6
#     4   9  17  29  46  68  93 122 155 187 219 258
#     4  10  20  33  49  68  90 117 151 191 233 276
#     4  10  20  33  49  68  90 117 151 191 233 276
#     4   9  17  29  46  68  93 122 155 187 219 258
#     4  10  19  30  45  67  96 128 159 189 220 256
#     4  10  19  30  45  67  96 128 159 189 220 256
#
# _framework density 16.053889000000002
#
# number of rings (size 3 to 8) (size 9 to 14) (size 15 to 20)
#    0.000    2.333    0.000    3.333    0.000    3.333 
#    0.000    0.000    0.000   11.000    0.000    0.000 
#    0.000    0.000    0.000   10.667    0.000    0.000 
#
# Total GULP energy -200790.611791 kJ/mol
# GULP energy per Si atom -5577.516994 kJ/mol
# Density = 1.601735 g / cm^3
# Si number density = 16.053889 Si / 1000 Ang^3
#
#
#
# Elastic Constant Matrix: (Units=GPa)
#
#
# Indices 1 2 3 4 5 6 
#
# 1 80.0209 56.8447 33.3869 0.0002 0.0001 0.0000
# 2 56.8447 80.0209 33.3869 -0.0002 -0.0001 0.0000
# 3 33.3869 33.3869 56.7054 0.0000 0.0000 0.0000
# 4 0.0002 -0.0002 0.0000 20.3705 0.0000 -0.0001
# 5 0.0001 -0.0001 0.0000 0.0000 20.3705 0.0002
# 6 0.0000 0.0000 0.0000 -0.0001 0.0002 11.5881
#
#
#
# Elastic Compliance Matrix: (Units=1/GPa)
#
#
# Indices 1 2 3 4 5 6 
#
# 1 0.026699 -0.016448 -0.006036 0.000000 0.000000 0.000000
# 2 -0.016448 0.026699 -0.006036 0.000000 0.000000 0.000000
# 3 -0.006036 -0.006036 0.024742 0.000000 0.000000 0.000000
# 4 0.000000 0.000000 0.000000 0.049091 0.000000 0.000000
# 5 0.000000 0.000000 0.000000 0.000000 0.049091 -0.000001
# 6 0.000000 0.000000 0.000000 0.000000 -0.000001 0.086296
#
#
# Mechanical properties :
#
#
# Convention : Reuss Voigt Hill
#
# Bulk Modulus (GPa) = 47.38889 51.55380 49.47135
# Shear Modulus (GPa) = 15.30499 16.67440 15.98970
#
# Velocity S-wave (km/s) = 3.09099 3.22631 3.15937
# Velocity P-wave (km/s) = 6.50551 6.78686 6.64767
#
# Compressibility (1/GPa) = 0.02110199
#
# Stress axis : x y z
#
# Youngs Moduli (GPa) = 37.45400 37.45400 40.41666
#
# Poissons Ratio (x) = 0.61606 0.24394
# Poissons Ratio (y) = 0.61606 0.24394
# Poissons Ratio (z) = 0.22606 0.22606
#
# Static dielectric constant tensor:
#      x y z
#    x 1.531910 0.000000 0.000000 
#    y 0.000000 1.531910 0.000000 
#    z 0.000000 0.000000 1.536180 
# 
# From -- ./inp_files/166.got.cif
#   From: 2010.05.17/outbox.cif.g08.bks.cpg/sg156_cif.got.tgz:166.got - 2010.05.20 10:49:08.
