data_PCOD9577532
_publ_section_title
;
Structure prediction by ZEFSAII (Michael W. Deem and Ramdas Pophale) SiO2 
 PCOD9577532
Probable space group: R 3 C
;
_chemical_formula_sum "Si O2"
_cell_formula_units_Z 84
_cell_length_a 12.841880
_cell_length_b 12.841880
_cell_length_c 27.250803
_cell_angle_alpha 90.000000
_cell_angle_beta 90.000000
_cell_angle_gamma 120.000000
_cell_volume 3891.949089
_symmetry_space_group_name_H-M "R 3 C"
_symmetry_group_IT_number 161
_symmetry_cell_setting 'hexagonal'
loop_
_space_group_symop_operation_xyz
x,y,z
-y,x-y,z
-x+y,-x,z
-x+y,y,1/2+z
x,x-y,1/2+z
-y,-x,1/2+z
2/3+x,1/3+y,1/3+z
2/3-y,1/3+x-y,1/3+z
2/3-x+y,1/3-x,1/3+z
2/3-x+y,1/3+y,5/6+z
2/3+x,1/3+x-y,5/6+z
2/3-y,1/3-x,5/6+z
1/3+x,2/3+y,2/3+z
1/3-y,2/3+x-y,2/3+z
1/3-x+y,2/3-x,2/3+z
1/3-x+y,2/3+y,1/6+z
1/3+x,2/3+x-y,1/6+z
1/3-y,2/3-x,1/6+z
loop_
_atom_site_type_symbol
_atom_site_label
_atom_site_fract_x
_atom_site_fract_y
_atom_site_fract_z
Si Si1 0.666593 0.130825 0.371151
Si Si2 0.000000 0.000000 0.792803
Si Si3 0.985460 0.181307 0.101510
Si Si4 0.181306 0.985457 0.865504
Si Si5 0.666738 0.535839 0.762529
Si Si6 0.000000 0.000000 0.174209
O O1 0.545598 0.076504 0.402766
O O2 0.754671 0.246865 0.402511
O O3 0.716012 0.039386 0.363864
O O4 0.666672 0.176377 0.316840
O O5 0.872414 0.895140 0.816659
O O6 0.000000 0.000000 0.733506
O O7 0.039391 0.323375 0.103151
O O8 0.977271 0.104858 0.150354
O O9 0.174471 0.086462 0.897838
O O10 0.121062 0.864232 0.897578
#
# Coordination Sequence:
#
# PCOD9577532 Si02
#       6
#    18   6  18  18  18   6
#     4  10  19  38  62  92 122 159 211 266 320 383
#     4   9  18  39  64  92 133 165 210 276 328 377
#     4   9  20  37  63  94 119 164 215 258 323 388
#     4   9  20  37  63  94 119 164 215 258 323 388
#     4  10  19  38  62  92 122 159 211 266 320 383
#     4   9  18  39  64  92 133 165 210 276 328 377
#
# _framework density 21.583015
#
# number of rings (size 3 to 8) (size 9 to 14) (size 15 to 20)
#    0.000    2.571    0.000    2.143    0.000    0.000 
#    7.714    8.571    0.000    0.857    0.000    0.000 
#    0.000    0.000    0.000    0.000    0.000    0.000 
#
# Total GULP energy -156030.636719 kJ/mol
# GULP energy per Si atom -5572.522740 kJ/mol
# Density = 2.153389 g / cm^3
# Si number density = 21.583015 Si / 1000 Ang^3
#
#
#
# Elastic Constant Matrix: (Units=GPa)
#
#
# Indices 1 2 3 4 5 6 
#
# 1 120.3392 -0.2239 56.5097 -15.9454 0.0000 0.0000
# 2 -0.2239 120.3392 56.5097 15.9454 0.0000 0.0000
# 3 56.5097 56.5097 197.7542 0.0000 0.0000 0.0000
# 4 -15.9454 15.9454 0.0000 30.7493 0.0000 0.0000
# 5 0.0000 0.0000 0.0000 0.0000 30.7493 -15.9454
# 6 0.0000 0.0000 0.0000 0.0000 -15.9454 60.2815
#
#
#
# Elastic Compliance Matrix: (Units=1/GPa)
#
#
# Indices 1 2 3 4 5 6 
#
# 1 0.010500 0.000887 -0.003254 0.004985 0.000000 0.000000
# 2 0.000887 0.010500 -0.003254 -0.004985 0.000000 0.000000
# 3 -0.003254 -0.003254 0.006916 0.000000 0.000000 0.000000
# 4 0.004985 -0.004985 0.000000 0.037691 0.000000 0.000000
# 5 0.000000 0.000000 0.000000 0.000000 0.037691 0.009970
# 6 0.000000 0.000000 0.000000 0.000000 0.009970 0.019226
#
#
# Mechanical properties :
#
#
# Convention : Reuss Voigt Hill
#
# Bulk Modulus (GPa) = 59.97069 73.78039 66.87554
# Shear Modulus (GPa) = 35.88739 46.06515 40.97627
#
# Velocity S-wave (km/s) = 4.08212 4.62489 4.36195
# Velocity P-wave (km/s) = 7.07564 7.92326 7.51142
#
# Compressibility (1/GPa) = 0.01667481
#
# Stress axis : x y z
#
# Youngs Moduli (GPa) = 95.23787 95.23787 144.58286
#
# Poissons Ratio (x) = -0.08448 0.47046
# Poissons Ratio (y) = -0.08448 0.47046
# Poissons Ratio (z) = 0.30990 0.30990
#
# Static dielectric constant tensor:
#      x y z
#    x 1.805720 0.000000 0.000000 
#    y 0.000000 1.805720 0.000000 
#    z 0.000000 0.000000 1.843710 
# 
# From -- ./inp_files/1870.got.cif
#   From: 2010.05.17/outbox.cif.g08.bks.cpg/sg161_cif.got.tgz:1870.got - 2010.05.20 10:52:32.
