data_PCOD9577726
_publ_section_title
;
Structure prediction by ZEFSAII (Michael W. Deem and Ramdas Pophale) SiO2 
 PCOD9577726
Probable space group: P -3 1 M 
;
_chemical_formula_sum "Si O2"
_cell_formula_units_Z 84
_cell_length_a 14.344136
_cell_length_b 14.344136
_cell_length_c 23.143790
_cell_angle_alpha 90.000000
_cell_angle_beta 90.000000
_cell_angle_gamma 120.000000
_cell_volume 4123.954833
_symmetry_space_group_name_H-M "P -3 1 M "
_symmetry_group_IT_number 162
_symmetry_cell_setting 'hexagonal'
loop_
_space_group_symop_operation_xyz
x,y,z
-y,x-y,z
-x+y,-x,z
-y,-x,-z
-x+y,y,-z
x,x-y,-z
-x,-y,-z
y,-x+y,-z
x-y,x,-z
y,x,z
x-y,-y,z
-x,-x+y,z
loop_
_atom_site_type_symbol
_atom_site_label
_atom_site_fract_x
_atom_site_fract_y
_atom_site_fract_z
Si Si1 0.745606 0.873536 0.569087
Si Si2 0.555764 0.431036 0.136490
Si Si3 0.661494 0.784670 0.254355
Si Si4 0.122313 0.248543 0.130271
Si Si5 0.286797 0.408469 0.347438
Si Si6 0.548782 0.775736 0.066743
Si Si7 0.434959 0.872457 0.264961
O O1 0.730720 0.865360 0.500000
O O2 0.822317 0.822317 0.583145
O O3 0.631691 0.801343 0.601630
O O4 0.804938 0.000000 0.584813
O O5 0.523536 0.523536 0.142224
O O6 0.668165 0.478071 0.103630
O O7 0.471067 0.336269 0.096346
O O8 0.556686 0.389108 0.201109
O O9 0.748738 0.748738 0.269291
O O10 0.680697 0.819785 0.187893
O O11 0.662952 0.875764 0.293972
O O12 0.544837 0.680443 0.266241
O O13 0.202338 0.202338 0.130476
O O14 0.141687 0.326740 0.076780
O O15 0.000000 0.153367 0.131469
O O16 0.369936 0.369936 0.366302
O O17 0.355966 0.527218 0.319024
O O18 0.518303 0.759152 0.000000
O O19 0.521341 0.000000 0.265145
#
# Coordination Sequence:
#
# PCOD9577726 Si02
#       7
#    12  12  12  12  12  12  12
#     4   9  17  30  51  83 125 171 214 253 292 340
#     4  11  23  42  62  83 114 148 187 243 304 363
#     4  10  19  35  56  79 111 145 186 239 295 353
#     4  11  23  40  60  84 116 156 198 241 294 361
#     4  10  19  32  53  83 115 149 194 241 292 351
#     4  12  25  40  61  87 113 147 194 245 302 366
#     4   9  19  35  54  78 108 142 182 234 292 352
#
# _framework density 20.368798000000002
#
# number of rings (size 3 to 8) (size 9 to 14) (size 15 to 20)
#    0.000    1.714    1.429    3.571    0.000    4.571 
#    0.857    0.000    0.000    6.286    0.000    5.000 
#    0.000    0.000    0.000    0.000    0.000    0.429 
#
# Total GULP energy -468622.468095 kJ/mol
# GULP energy per Si atom -5578.838906 kJ/mol
# Density = 2.032244 g / cm^3
# Si number density = 20.368798 Si / 1000 Ang^3
#
#
#
# Elastic Constant Matrix: (Units=GPa)
#
#
# Indices 1 2 3 4 5 6 
#
# 1 72.3734 19.6692 25.1403 0.0000 3.5547 0.0000
# 2 19.6692 72.3734 25.1403 0.0000 -3.5547 0.0000
# 3 25.1403 25.1403 83.8361 0.0000 0.0000 0.0000
# 4 0.0000 0.0000 0.0000 23.3956 0.0000 -3.5547
# 5 3.5547 -3.5547 0.0000 0.0000 23.3956 0.0000
# 6 0.0000 0.0000 0.0000 -3.5547 0.0000 26.3521
#
#
#
# Elastic Compliance Matrix: (Units=1/GPa)
#
#
# Indices 1 2 3 4 5 6 
#
# 1 0.016182 -0.003189 -0.003896 0.000000 -0.002943 0.000000
# 2 -0.003189 0.016182 -0.003896 0.000000 0.002943 0.000000
# 3 -0.003896 -0.003896 0.014265 0.000000 0.000000 0.000000
# 4 0.000000 0.000000 0.000000 0.043638 0.000000 0.005886
# 5 -0.002943 0.002943 0.000000 0.000000 0.043638 0.000000
# 6 0.000000 0.000000 0.000000 0.005886 0.000000 0.038742
#
#
# Mechanical properties :
#
#
# Convention : Reuss Voigt Hill
#
# Bulk Modulus (GPa) = 40.54212 40.94251 40.74232
# Shear Modulus (GPa) = 24.65116 25.20418 24.92767
#
# Velocity S-wave (km/s) = 3.48263 3.52147 3.50210
# Velocity P-wave (km/s) = 6.00989 6.05629 6.03313
#
# Compressibility (1/GPa) = 0.02466570
#
# Stress axis : x y z
#
# Youngs Moduli (GPa) = 61.79740 61.79740 70.10252
#
# Poissons Ratio (x) = 0.19707 0.27314
# Poissons Ratio (y) = 0.19707 0.27314
# Poissons Ratio (z) = 0.24078 0.24078
#
# Static dielectric constant tensor:
#      x y z
#    x 1.746180 0.000000 0.000000 
#    y 0.000000 1.746180 0.000000 
#    z 0.000000 0.000000 1.718030 
# 
# From -- ./inp_files/3977.got.cif
#   From: 2010.05.17/outbox.cif.g08.bks.cpg/sg162_2_cif.got.tgz:3977.got - 2010.05.20 10:53:12.
