data_PCOD9577794
_publ_section_title
;
Structure prediction by ZEFSAII (Michael W. Deem and Ramdas Pophale) SiO2 
 PCOD9577794
Probable space group: P -3 1 M 
;
_chemical_formula_sum "Si O2"
_cell_formula_units_Z 60
_cell_length_a 18.094983
_cell_length_b 18.094983
_cell_length_c 10.658200
_cell_angle_alpha 90.000000
_cell_angle_beta 90.000000
_cell_angle_gamma 120.000000
_cell_volume 3022.253269
_symmetry_space_group_name_H-M "P -3 1 M "
_symmetry_group_IT_number 162
_symmetry_cell_setting 'hexagonal'
loop_
_space_group_symop_operation_xyz
x,y,z
-y,x-y,z
-x+y,-x,z
-y,-x,-z
-x+y,y,-z
x,x-y,-z
-x,-y,-z
y,-x+y,-z
x-y,x,-z
y,x,z
x-y,-y,z
-x,-x+y,z
loop_
_atom_site_type_symbol
_atom_site_label
_atom_site_fract_x
_atom_site_fract_y
_atom_site_fract_z
Si Si1 0.801882 0.900278 0.848076
Si Si2 0.589193 0.104601 0.870011
Si Si3 0.255025 0.904089 0.507043
Si Si4 0.358802 0.259883 0.782566
Si Si5 0.895806 0.399489 0.619899
O O1 0.844679 0.844679 0.808704
O O2 0.705279 0.864930 0.800427
O O3 0.860887 0.000000 0.809058
O O4 0.798939 0.899470 0.000000
O O5 0.689147 0.135926 0.856301
O O6 0.553992 0.130986 0.749715
O O7 0.539525 0.000000 0.866395
O O8 0.564959 0.129917 0.000000
O O9 0.154925 0.845076 0.500000
O O10 0.284193 0.904140 0.363577
O O11 0.301309 0.868062 0.595814
O O12 0.285561 0.000000 0.543108
O O13 0.300699 0.300699 0.824456
O O14 0.869210 0.434605 0.500000
O O15 0.000000 0.449518 0.617874
#
# Coordination Sequence:
#
# PCOD9577794 Si02
#       5
#    12  12  12  12  12
#     4   9  17  30  48  70 102 150 206 257 303 351
#     4   9  16  28  50  80 109 132 161 212 283 359
#     4  10  20  34  53  78 111 151 197 247 292 338
#     4   9  17  31  49  72 106 143 179 234 298 342
#     4   9  15  29  54  78 101 135 175 217 273 343
#
# _framework density 19.852737999999999
#
# number of rings (size 3 to 8) (size 9 to 14) (size 15 to 20)
#    0.000    2.800    2.000    0.200    0.000    1.600 
#    3.600    0.000    0.000    0.600    0.000    0.000 
#    0.000    0.000    0.000    0.000    0.000    0.200 
#
# Total GULP energy -334355.088358 kJ/mol
# GULP energy per Si atom -5572.584806 kJ/mol
# Density = 1.980755 g / cm^3
# Si number density = 19.852738 Si / 1000 Ang^3
#
#
#
# Elastic Constant Matrix: (Units=GPa)
#
#
# Indices 1 2 3 4 5 6 
#
# 1 89.3263 44.7765 33.0554 0.0002 4.5742 0.0000
# 2 44.7765 89.3263 33.0554 -0.0002 -4.5742 0.0000
# 3 33.0554 33.0554 90.8532 0.0000 0.0000 0.0000
# 4 0.0002 -0.0002 0.0000 15.4958 0.0000 -4.5742
# 5 4.5742 -4.5742 0.0000 0.0000 15.4958 0.0002
# 6 0.0000 0.0000 0.0000 -4.5742 0.0002 22.2749
#
#
#
# Elastic Compliance Matrix: (Units=1/GPa)
#
#
# Indices 1 2 3 4 5 6 
#
# 1 0.016491 -0.007404 -0.003306 0.000000 -0.007054 0.000000
# 2 -0.007404 0.016491 -0.003306 0.000000 0.007054 0.000000
# 3 -0.003306 -0.003306 0.013412 0.000000 0.000000 0.000000
# 4 0.000000 0.000000 0.000000 0.068698 0.000000 0.014107
# 5 -0.007054 0.007054 0.000000 0.000000 0.068698 -0.000001
# 6 0.000000 0.000000 0.000000 0.014107 -0.000001 0.047790
#
#
# Mechanical properties :
#
#
# Convention : Reuss Voigt Hill
#
# Bulk Modulus (GPa) = 54.46094 54.58673 54.52383
# Shear Modulus (GPa) = 18.81580 21.22787 20.02183
#
# Velocity S-wave (km/s) = 3.08192 3.27351 3.17916
# Velocity P-wave (km/s) = 6.33690 6.46864 6.40311
#
# Compressibility (1/GPa) = 0.01836178
#
# Stress axis : x y z
#
# Youngs Moduli (GPa) = 60.63908 60.63908 74.55734
#
# Poissons Ratio (x) = 0.44898 0.24649
# Poissons Ratio (y) = 0.44898 0.24649
# Poissons Ratio (z) = 0.20048 0.20048
#
# Static dielectric constant tensor:
#      x y z
#    x 1.715810 0.000000 0.000000 
#    y 0.000000 1.715810 0.000000 
#    z 0.000000 0.000000 1.726510 
# 
# From -- ./inp_files/2336.got.cif
#   From: 2010.05.17/outbox.cif.g08.bks.cpg/sg162_2_cif.got.tgz:2336.got - 2010.05.20 10:53:12.
