data_PCOD9577900
_publ_section_title
;
Structure prediction by ZEFSAII (Michael W. Deem and Ramdas Pophale) SiO2 
 PCOD9577900
Probable space group: P -3 1 M 
;
_chemical_formula_sum "Si O2"
_cell_formula_units_Z 24
_cell_length_a 12.798042
_cell_length_b 12.798042
_cell_length_c 8.216979
_cell_angle_alpha 90.000000
_cell_angle_beta 90.000000
_cell_angle_gamma 120.000000
_cell_volume 1165.547215
_symmetry_space_group_name_H-M "P -3 1 M "
_symmetry_group_IT_number 162
_symmetry_cell_setting 'hexagonal'
loop_
_space_group_symop_operation_xyz
x,y,z
-y,x-y,z
-x+y,-x,z
-y,-x,-z
-x+y,y,-z
x,x-y,-z
-x,-y,-z
y,-x+y,-z
x-y,x,-z
y,x,z
x-y,-y,z
-x,-x+y,z
loop_
_atom_site_type_symbol
_atom_site_label
_atom_site_fract_x
_atom_site_fract_y
_atom_site_fract_z
Si Si1 0.856971 0.296002 0.346176
Si Si2 0.501157 0.641586 0.846369
O O1 0.785681 0.214320 0.500000
O O2 0.781943 0.211278 0.194517
O O3 0.845386 0.414467 0.307825
O O4 0.000000 0.345333 0.351560
O O5 0.594140 0.594140 0.867139
O O6 0.411621 0.588379 0.000000
#
# Coordination Sequence:
#
# PCOD9577900 Si02
#       2
#    12  12
#     4  11  22  37  60  89 124 162 201 253 314 376
#     4  10  21  38  61  88 120 161 208 259 313 367
#
# _framework density 20.591186
#
# number of rings (size 3 to 8) (size 9 to 14) (size 15 to 20)
#    0.000    1.500    0.000    5.500    0.000    4.000 
#    0.000    2.500    0.000    9.000    0.000    0.000 
#    0.000   48.000    0.000    0.000    0.000    0.000 
#
# Total GULP energy -133881.101416 kJ/mol
# GULP energy per Si atom -5578.379226 kJ/mol
# Density = 2.054432 g / cm^3
# Si number density = 20.591186 Si / 1000 Ang^3
#
#
#
# Elastic Constant Matrix: (Units=GPa)
#
#
# Indices 1 2 3 4 5 6 
#
# 1 127.9552 81.0508 50.8072 -0.0002 5.1393 0.0000
# 2 81.0508 127.9552 50.8072 0.0002 -5.1393 0.0000
# 3 50.8072 50.8072 131.6657 0.0000 0.0000 0.0000
# 4 -0.0002 0.0002 0.0000 29.8210 0.0000 -5.1393
# 5 5.1393 -5.1393 0.0000 0.0000 29.8210 -0.0002
# 6 0.0000 0.0000 0.0000 -5.1393 -0.0002 23.4522
#
#
#
# Elastic Compliance Matrix: (Units=1/GPa)
#
#
# Indices 1 2 3 4 5 6 
#
# 1 0.014023 -0.008134 -0.002273 0.000000 -0.003818 0.000000
# 2 -0.008134 0.014023 -0.002273 0.000000 0.003818 0.000000
# 3 -0.002273 -0.002273 0.009349 0.000000 0.000000 0.000000
# 4 0.000000 0.000000 0.000000 0.034850 0.000000 0.007637
# 5 -0.003818 0.003818 0.000000 0.000000 0.034850 0.000000
# 6 0.000000 0.000000 0.000000 0.007637 0.000000 0.044313
#
#
# Mechanical properties :
#
#
# Convention : Reuss Voigt Hill
#
# Bulk Modulus (GPa) = 83.07494 83.65628 83.36561
# Shear Modulus (GPa) = 27.65828 30.27959 28.96893
#
# Velocity S-wave (km/s) = 3.66896 3.83889 3.75488
# Velocity P-wave (km/s) = 7.64073 7.76948 7.70538
#
# Compressibility (1/GPa) = 0.01203732
#
# Stress axis : x y z
#
# Youngs Moduli (GPa) = 71.31100 71.31100 106.96429
#
# Poissons Ratio (x) = 0.58002 0.24309
# Poissons Ratio (y) = 0.58002 0.24309
# Poissons Ratio (z) = 0.16206 0.16206
#
# Static dielectric constant tensor:
#      x y z
#    x 1.731120 0.000000 0.000000 
#    y 0.000000 1.731120 0.000000 
#    z 0.000000 0.000000 1.946570 
# 
# From -- ./inp_files/849.got.cif
#   From: 2010.05.17/outbox.cif.g08.bks.cpg/sg162_1_cif.got.tgz:849.got - 2010.05.20 10:53:12.
