data_PCOD9577148
_publ_section_title
;
Structure prediction by ZEFSAII (Michael W. Deem and Ramdas Pophale) SiO2 
 PCOD9577148
Probable space group: R 3 2
;
_chemical_formula_sum "Si O2"
_cell_formula_units_Z 60
_cell_length_a 17.106563
_cell_length_b 17.106563
_cell_length_c 11.339936
_cell_angle_alpha 90.000000
_cell_angle_beta 90.000000
_cell_angle_gamma 120.000000
_cell_volume 2873.867609
_symmetry_space_group_name_H-M "R 3 2"
_symmetry_group_IT_number 155
_symmetry_cell_setting 'hexagonal'
loop_
_space_group_symop_operation_xyz
x,y,z
-y,x-y,z
-x+y,-x,z
x-y,-y,-z
-x,-x+y,-z
y,x,-z
2/3+x,1/3+y,1/3+z
2/3-y,1/3+x-y,1/3+z
2/3-x+y,1/3-x,1/3+z
2/3+x-y,1/3-y,1/3-z
2/3-x,1/3-x+y,1/3-z
2/3+y,1/3+x,1/3-z
1/3+x,2/3+y,2/3+z
1/3-y,2/3+x-y,2/3+z
1/3-x+y,2/3-x,2/3+z
1/3+x-y,2/3-y,2/3-z
1/3-x,2/3-x+y,2/3-z
1/3+y,2/3+x,2/3-z
loop_
_atom_site_type_symbol
_atom_site_label
_atom_site_fract_x
_atom_site_fract_y
_atom_site_fract_z
Si Si1 0.855796 0.622381 0.828939
Si Si2 0.695155 0.771697 0.706662
Si Si3 0.141595 0.562648 0.944567
Si Si4 0.000000 0.000000 0.146963
O O1 0.937912 0.604579 0.833334
O O2 0.783138 0.537992 0.748629
O O3 0.894812 0.721689 0.776419
O O4 0.805903 0.627116 0.945605
O O5 0.628348 0.666667 0.666667
O O6 0.666667 0.788959 0.833334
O O7 0.793202 0.784559 0.726071
O O8 0.232902 0.624375 0.871668
O O9 0.000000 0.000000 0.000000
#
# Coordination Sequence:
#
# PCOD9577148 Si02
#       4
#    18  18  18   6
#     4  11  24  45  73 108 146 193 255 319 394 466
#     4  12  21  41  80 114 144 197 254 319 386 480
#     4  11  24  47  69 102 150 191 254 318 387 464
#     4  12  30  48  70 110 154 213 265 326 391 474
#
# _framework density 20.877789
#
# number of rings (size 3 to 8) (size 9 to 14) (size 15 to 20)
#    0.000    0.600    6.000    2.700    4.200    0.000 
#    5.400    6.000    0.000    0.000    0.000    0.000 
#    0.000    0.000    0.000    0.000    0.000    0.000 
#
# Total GULP energy -111554.581708 kJ/mol
# GULP energy per Si atom -5577.729085 kJ/mol
# Density = 2.083027 g / cm^3
# Si number density = 20.877789 Si / 1000 Ang^3
#
#
#
# Elastic Constant Matrix: (Units=GPa)
#
#
# Indices 1 2 3 4 5 6 
#
# 1 81.2724 106.4168 77.5957 12.0571 0.0014 0.0000
# 2 106.4168 81.2724 77.5957 -12.0571 -0.0014 0.0000
# 3 77.5957 77.5957 184.8256 0.0000 0.0000 0.0000
# 4 12.0571 -12.0571 0.0000 7.2505 0.0000 -0.0014
# 5 0.0014 -0.0014 0.0000 0.0000 7.2505 12.0571
# 6 0.0000 0.0000 0.0000 -0.0014 12.0571 -12.5722
#
#
#
# Elastic Compliance Matrix: (Units=1/GPa)
#
#
# Indices 1 2 3 4 5 6 
#
# 1 -0.003583 0.011744 -0.003426 0.025488 0.000003 0.000000
# 2 0.011744 -0.003583 -0.003426 -0.025488 -0.000003 0.000000
# 3 -0.003426 -0.003426 0.008287 0.000000 0.000000 0.000000
# 4 0.025488 -0.025488 0.000000 0.053153 0.000000 -0.000006
# 5 0.000003 -0.000003 0.000000 0.000000 0.053153 0.050975
# 6 0.000000 0.000000 0.000000 -0.000006 0.050975 -0.030654
#
#
# Mechanical properties :
#
#
# Convention : Reuss Voigt Hill
#
# Bulk Modulus (GPa) = 91.70637 96.73187 94.21912
# Shear Modulus (GPa) = 70.79615 6.10325 38.44970
#
# Velocity S-wave (km/s) = 5.82953 1.71163 4.29611
# Velocity P-wave (km/s) = 9.45156 7.09502 8.35677
#
# Compressibility (1/GPa) = 0.01090437
#
# Stress axis : x y z
#
# Youngs Moduli (GPa) = -279.09413 -279.09413 120.66529
#
# Poissons Ratio (x) = 3.27767 0.41343
# Poissons Ratio (y) = 3.27767 0.41343
# Poissons Ratio (z) = -0.95624 -0.95624
#
# Static dielectric constant tensor:
#      x y z
#    x 1.767130 0.000000 0.000000 
#    y 0.000000 1.767130 0.000000 
#    z 0.000000 0.000000 1.945160 
# 
# From -- ./inp_files/3571.got.cif
#   From: 2010.05.17/outbox.cif.g08.bks.cpg/sg155_2_cif.got.tgz:3571.got - 2010.05.20 10:44:35.
