data_PCOD9577873
_publ_section_title
;
Structure prediction by ZEFSAII (Michael W. Deem and Ramdas Pophale) SiO2 
 PCOD9577873
Probable space group: P -3 1 M 
;
_chemical_formula_sum "Si O2"
_cell_formula_units_Z 40
_cell_length_a 18.277964
_cell_length_b 18.277964
_cell_length_c 7.657240
_cell_angle_alpha 90.000000
_cell_angle_beta 90.000000
_cell_angle_gamma 120.000000
_cell_volume 2215.432520
_symmetry_space_group_name_H-M "P -3 1 M "
_symmetry_group_IT_number 162
_symmetry_cell_setting 'hexagonal'
loop_
_space_group_symop_operation_xyz
x,y,z
-y,x-y,z
-x+y,-x,z
-y,-x,-z
-x+y,y,-z
x,x-y,-z
-x,-y,-z
y,-x+y,-z
x-y,x,-z
y,x,z
x-y,-y,z
-x,-x+y,z
loop_
_atom_site_type_symbol
_atom_site_label
_atom_site_fract_x
_atom_site_fract_y
_atom_site_fract_z
Si Si1 0.099687 0.737812 0.506958
Si Si2 0.333333 0.666667 0.708264
Si Si3 0.662638 0.168365 0.799215
Si Si4 0.532531 0.900569 0.178075
O O1 0.161747 0.838254 0.500000
O O2 0.131698 0.702970 0.665738
O O3 0.113668 0.696894 0.331598
O O4 0.000000 0.703420 0.523094
O O5 0.333334 0.666667 0.500000
O O6 0.267009 0.693988 0.772493
O O7 0.561935 0.124863 0.763778
O O8 0.672080 0.146826 0.997533
O O9 0.581786 0.000000 0.138035
#
# Coordination Sequence:
#
# PCOD9577873 Si02
#       4
#    12   4  12  12
#     4  11  23  39  58  79 105 136 174 221 272 327
#     4  12  24  34  50  79 112 152 199 232 260 307
#     4  11  21  36  53  75 112 150 185 225 265 299
#     4  10  21  35  54  80 107 143 189 226 265 318
#
# _framework density 18.055163
#
# number of rings (size 3 to 8) (size 9 to 14) (size 15 to 20)
#    0.000    1.200    0.000    9.000    0.000   13.200 
#    0.000    0.000    0.000    0.300    0.000    0.000 
#    0.000    0.000    0.000    9.600    0.000    0.000 
#
# Total GULP energy -223883.392348 kJ/mol
# GULP energy per Si atom -5597.084809 kJ/mol
# Density = 1.801407 g / cm^3
# Si number density = 18.055163 Si / 1000 Ang^3
#
#
#
# Elastic Constant Matrix: (Units=GPa)
#
#
# Indices 1 2 3 4 5 6 
#
# 1 116.7357 61.7582 50.4512 -0.0001 -3.9570 0.0000
# 2 61.7582 116.7355 50.4512 -0.0001 3.9567 -0.0001
# 3 50.4512 50.4512 88.3873 0.0001 0.0000 0.0000
# 4 -0.0001 -0.0001 0.0001 11.6706 -0.0001 3.9572
# 5 -3.9570 3.9567 0.0000 -0.0001 11.6711 0.0001
# 6 0.0000 -0.0001 0.0000 3.9572 0.0001 27.4886
#
#
#
# Elastic Compliance Matrix: (Units=1/GPa)
#
#
# Indices 1 2 3 4 5 6 
#
# 1 0.013697 -0.005426 -0.004721 0.000000 0.006483 0.000000
# 2 -0.005426 0.013697 -0.004721 0.000000 -0.006483 0.000000
# 3 -0.004721 -0.004721 0.016704 0.000000 0.000000 0.000000
# 4 0.000000 0.000000 0.000000 0.090082 0.000001 -0.012968
# 5 0.006483 -0.006483 0.000000 0.000001 0.090077 -0.000001
# 6 0.000000 0.000000 0.000000 -0.012968 -0.000001 0.038246
#
#
# Mechanical properties :
#
#
# Convention : Reuss Voigt Hill
#
# Bulk Modulus (GPa) = 69.63176 71.90887 70.77031
# Shear Modulus (GPa) = 16.83353 20.77925 18.80639
#
# Velocity S-wave (km/s) = 3.05674 3.39614 3.23090
# Velocity P-wave (km/s) = 7.14899 7.43587 7.29384
#
# Compressibility (1/GPa) = 0.01436126
#
# Stress axis : x y z
#
# Youngs Moduli (GPa) = 73.00899 73.00908 59.86729
#
# Poissons Ratio (x) = 0.39612 0.28265
# Poissons Ratio (y) = 0.39612 0.28265
# Poissons Ratio (z) = 0.34470 0.34469
#
# Static dielectric constant tensor:
#      x y z
#    x 1.628810 0.000000 0.000000 
#    y 0.000000 1.628810 0.000000 
#    z 0.000000 0.000000 1.615280 
# 
# From -- ./inp_files/1119.got.cif
#   From: 2010.05.17/outbox.cif.g08.bks.cpg/sg162_1_cif.got.tgz:1119.got - 2010.05.20 10:53:12.
