data_PCOD9577072
_publ_section_title
;
Structure prediction by ZEFSAII (Michael W. Deem and Ramdas Pophale) SiO2 
 PCOD9577072
Probable space group: R 3 2
;
_chemical_formula_sum "Si O2"
_cell_formula_units_Z 60
_cell_length_a 15.855217
_cell_length_b 15.855217
_cell_length_c 12.602920
_cell_angle_alpha 90.000000
_cell_angle_beta 90.000000
_cell_angle_gamma 120.000000
_cell_volume 2743.760451
_symmetry_space_group_name_H-M "R 3 2"
_symmetry_group_IT_number 155
_symmetry_cell_setting 'hexagonal'
loop_
_space_group_symop_operation_xyz
x,y,z
-y,x-y,z
-x+y,-x,z
x-y,-y,-z
-x,-x+y,-z
y,x,-z
2/3+x,1/3+y,1/3+z
2/3-y,1/3+x-y,1/3+z
2/3-x+y,1/3-x,1/3+z
2/3+x-y,1/3-y,1/3-z
2/3-x,1/3-x+y,1/3-z
2/3+y,1/3+x,1/3-z
1/3+x,2/3+y,2/3+z
1/3-y,2/3+x-y,2/3+z
1/3-x+y,2/3-x,2/3+z
1/3+x-y,2/3-y,2/3-z
1/3-x,2/3-x+y,2/3-z
1/3+y,2/3+x,2/3-z
loop_
_atom_site_type_symbol
_atom_site_label
_atom_site_fract_x
_atom_site_fract_y
_atom_site_fract_z
Si Si1 0.388339 0.122673 0.930181
Si Si2 0.666668 0.333334 0.207706
Si Si3 0.967248 0.166932 0.808942
Si Si4 0.720123 0.099641 0.440217
O O1 0.452009 0.118676 0.833334
O O2 0.277050 0.040650 0.897790
O O3 0.376376 0.217920 0.929964
O O4 0.437664 0.115060 0.036914
O O5 0.666668 0.333334 0.333334
O O6 0.685374 0.438752 0.171047
O O7 0.853133 0.084741 0.808628
O O8 0.666667 0.105140 0.333334
O O9 0.655517 0.000000 0.500000
#
# Coordination Sequence:
#
# PCOD9577072 Si02
#       4
#    18   6  18  18
#     4  10  24  46  75 110 149 203 253 311 380 462
#     4  12  27  48  73 113 157 189 261 324 382 446
#     4  10  26  47  72 111 150 201 254 317 383 456
#     4  10  25  45  79 110 155 206 261 310 388 464
#
# _framework density 21.867798000000001
#
# number of rings (size 3 to 8) (size 9 to 14) (size 15 to 20)
#    1.800    0.000    0.000    1.800    8.400    2.400 
#    0.000    0.000    0.000    0.600    0.000    0.000 
#    0.000    0.000    0.000    0.000    0.000    0.000 
#
# Total GULP energy -111390.442037 kJ/mol
# GULP energy per Si atom -5569.522102 kJ/mol
# Density = 2.181803 g / cm^3
# Si number density = 21.867798 Si / 1000 Ang^3
#
#
#
# Elastic Constant Matrix: (Units=GPa)
#
#
# Indices 1 2 3 4 5 6 
#
# 1 81.2544 27.3742 46.4646 14.8025 0.0008 -0.0003
# 2 27.3742 81.2546 46.4651 -14.8027 -0.0001 -0.0001
# 3 46.4646 46.4651 148.4238 0.0005 0.0003 -0.0002
# 4 14.8025 -14.8027 0.0005 20.2360 -0.0001 -0.0004
# 5 0.0008 -0.0001 0.0003 -0.0001 20.2339 14.8034
# 6 -0.0003 -0.0001 -0.0002 -0.0004 14.8034 26.9400
#
#
#
# Elastic Compliance Matrix: (Units=1/GPa)
#
#
# Indices 1 2 3 4 5 6 
#
# 1 0.021803 -0.009230 -0.003936 -0.022700 -0.000001 0.000000
# 2 -0.009230 0.021803 -0.003936 0.022701 0.000001 0.000000
# 3 -0.003936 -0.003936 0.009202 -0.000001 0.000000 0.000000
# 4 -0.022700 0.022701 -0.000001 0.082627 0.000001 0.000001
# 5 -0.000001 0.000001 0.000000 0.000001 0.082648 -0.045415
# 6 0.000000 0.000000 0.000000 0.000001 -0.045415 0.062075
#
#
# Mechanical properties :
#
#
# Convention : Reuss Voigt Hill
#
# Bulk Modulus (GPa) = 53.75325 61.28230 57.51778
# Shear Modulus (GPa) = 15.59759 26.19057 20.89408
#
# Velocity S-wave (km/s) = 2.67360 3.46450 3.09443
# Velocity P-wave (km/s) = 5.84511 6.63992 6.25515
#
# Compressibility (1/GPa) = 0.01860352
#
# Stress axis : x y z
#
# Youngs Moduli (GPa) = 45.86615 45.86543 108.67408
#
# Poissons Ratio (x) = 0.42333 0.42772
# Poissons Ratio (y) = 0.42334 0.42776
# Poissons Ratio (z) = 0.18052 0.18053
#
# Static dielectric constant tensor:
#      x y z
#    x 1.856630 0.000000 0.000000 
#    y 0.000000 1.856630 0.000000 
#    z 0.000000 0.000000 1.741560 
# 
# From -- ./inp_files/3607.got.cif
#   From: 2010.05.17/outbox.cif.g08.bks.cpg/sg155_2_cif.got.tgz:3607.got - 2010.05.20 10:44:35.
