data_PCOD9577277
_publ_section_title
;
Structure prediction by ZEFSAII (Michael W. Deem and Ramdas Pophale) SiO2 
 PCOD9577277
Probable space group: P 3 C 1
;
_chemical_formula_sum "Si O2"
_cell_formula_units_Z 42
_cell_length_a 22.165939
_cell_length_b 22.165939
_cell_length_c 5.453761
_cell_angle_alpha 90.000000
_cell_angle_beta 90.000000
_cell_angle_gamma 120.000000
_cell_volume 2320.593124
_symmetry_space_group_name_H-M "P 3 C 1"
_symmetry_group_IT_number 158
_symmetry_cell_setting 'hexagonal'
loop_
_space_group_symop_operation_xyz
x,y,z
-y,x-y,z
-x+y,-x,z
-x+y,y,1/2+z
x,x-y,1/2+z
-y,-x,1/2+z
loop_
_atom_site_type_symbol
_atom_site_label
_atom_site_fract_x
_atom_site_fract_y
_atom_site_fract_z
Si Si1 0.333731 0.355300 0.195390
Si Si2 0.152938 0.241714 0.695390
Si Si3 0.182751 0.398627 0.695390
Si Si4 0.966197 0.267433 0.195390
Si Si5 0.463177 0.507328 0.195390
Si Si6 0.890150 0.411951 0.195390
Si Si7 0.422938 0.175936 0.195390
O O1 0.274076 0.376310 0.195390
O O2 0.324605 0.312528 0.444029
O O3 0.407214 0.425891 0.195390
O O4 0.324605 0.312527 0.946751
O O5 0.108624 0.217248 0.445390
O O6 0.185931 0.326419 0.695390
O O7 0.217500 0.228386 0.695390
O O8 0.218169 0.436338 0.445390
O O9 0.883018 0.224531 0.195390
O O10 0.458470 0.541531 0.445390
O O11 0.539639 0.514021 0.195390
O O12 0.866568 0.433284 0.445389
O O13 0.864413 0.330852 0.195390
O O14 0.439005 0.219503 0.445389
#
# Coordination Sequence:
#
# PCOD9577277 Si02
#       7
#     6   6   6   6   6   6   6
#     4  12  19  30  54  78 105 145 180 214 265 323
#     4  10  16  29  44  75 109 140 177 199 230 311
#     4  10  16  28  42  74 114 140 172 196 235 314
#     4  12  20  32  54  74 107 148 181 215 258 332
#     4  10  20  32  46  73  99 126 179 219 265 324
#     4  10  19  38  60  76  97 125 174 233 289 357
#     4  12  26  41  56  82 109 144 193 238 304 367
#
# _framework density 18.098821999999998
#
# number of rings (size 3 to 8) (size 9 to 14) (size 15 to 20)
#    0.000    1.143    5.714    6.000    0.000    0.000 
#    0.000    0.000    0.000    5.714    0.000    0.000 
#    0.000    0.000    0.000   17.143    1.714    0.000 
#
# Total GULP energy -234303.848398 kJ/mol
# GULP energy per Si atom -5578.663057 kJ/mol
# Density = 1.805763 g / cm^3
# Si number density = 18.098822 Si / 1000 Ang^3
#
#
#
# Elastic Constant Matrix: (Units=GPa)
#
#
# Indices 1 2 3 4 5 6 
#
# 1 43.7255 9.2468 14.4909 0.0000 0.0000 0.0000
# 2 9.2468 43.7255 14.4909 0.0000 0.0000 0.0000
# 3 14.4909 14.4909 202.8271 0.0000 0.0000 0.0000
# 4 0.0000 0.0000 0.0000 18.8111 0.0000 0.0000
# 5 0.0000 0.0000 0.0000 0.0000 18.8111 0.0000
# 6 0.0000 0.0000 0.0000 0.0000 0.0000 17.2393
#
#
#
# Elastic Compliance Matrix: (Units=1/GPa)
#
#
# Indices 1 2 3 4 5 6 
#
# 1 0.024325 -0.004679 -0.001404 0.000000 0.000000 0.000000
# 2 -0.004679 0.024325 -0.001404 0.000000 0.000000 0.000000
# 3 -0.001404 -0.001404 0.005131 0.000000 0.000000 0.000000
# 4 0.000000 0.000000 0.000000 0.053160 0.000000 0.000000
# 5 0.000000 0.000000 0.000000 0.000000 0.053160 0.000000
# 6 0.000000 0.000000 0.000000 0.000000 0.000000 0.058007
#
#
# Mechanical properties :
#
#
# Convention : Reuss Voigt Hill
#
# Bulk Modulus (GPa) = 25.76788 40.74835 33.25811
# Shear Modulus (GPa) = 20.32394 27.77559 24.04976
#
# Velocity S-wave (km/s) = 3.35467 3.92173 3.64923
# Velocity P-wave (km/s) = 5.41048 6.56276 6.01428
#
# Compressibility (1/GPa) = 0.03880801
#
# Stress axis : x y z
#
# Youngs Moduli (GPa) = 41.11067 41.11067 194.89888
#
# Poissons Ratio (x) = 0.19235 0.27356
# Poissons Ratio (y) = 0.19235 0.27356
# Poissons Ratio (z) = 0.05770 0.05770
#
# Static dielectric constant tensor:
#      x y z
#    x 1.607220 0.000000 0.000000 
#    y 0.000000 1.607220 0.000000 
#    z 0.000000 0.000000 1.729260 
# 
# From -- ./inp_files/25.got.cif
#   From: 2010.05.17/outbox.cif.g08.bks.cpg/sg158_cif.got.tgz:25.got - 2010.05.20 10:49:59.
