data_PCOD9577998
_publ_section_title
;
Structure prediction by ZEFSAII (Michael W. Deem and Ramdas Pophale) SiO2 
 PCOD9577998
Probable space group: P -3 1 C
;
_chemical_formula_sum "Si O2"
_cell_formula_units_Z 36
_cell_length_a 13.695493
_cell_length_b 13.695493
_cell_length_c 13.905837
_cell_angle_alpha 90.000000
_cell_angle_beta 90.000000
_cell_angle_gamma 120.000000
_cell_volume 2258.827709
_symmetry_space_group_name_H-M "P -3 1 C"
_symmetry_group_IT_number 163
_symmetry_cell_setting 'hexagonal'
loop_
_space_group_symop_operation_xyz
x,y,z
-y,x-y,z
-x+y,-x,z
-y,-x,1/2-z
-x+y,y,1/2-z
x,x-y,1/2-z
-x,-y,-z
y,-x+y,-z
x-y,x,-z
y,x,1/2+z
x-y,-y,1/2+z
-x,-x+y,1/2+z
loop_
_atom_site_type_symbol
_atom_site_label
_atom_site_fract_x
_atom_site_fract_y
_atom_site_fract_z
Si Si1 0.667810 0.125313 0.209784
Si Si2 0.334549 0.796981 1.000000
Si Si3 0.457504 0.332191 0.790216
O O1 0.790647 0.209354 0.250000
O O2 0.582557 0.165114 0.250000
O O3 0.619462 1.000000 0.250000
O O4 0.665010 0.137851 0.095242
O O5 0.228713 0.667613 1.000000
O O6 0.334991 0.862149 0.095241
O O7 0.582558 0.417443 0.750000
O O8 0.418708 0.209354 0.750000
#
# Coordination Sequence:
#
# PCOD9577998 Si02
#       3
#    12  12  12
#     4  11  21  34  54  79 111 144 184 229 275 331
#     4  10  18  33  59  73 114 146 187 219 278 336
#     4  11  21  34  54  79 111 144 184 229 275 331
#
# _framework density 15.937471
#
# number of rings (size 3 to 8) (size 9 to 14) (size 15 to 20)
#    0.667    0.667    6.667    0.667    0.000    8.000 
#    0.000    0.000    0.000    0.667    0.000    0.000 
#    0.000    5.333    0.000    0.000    0.000    0.000 
#
# Total GULP energy -200744.937589 kJ/mol
# GULP energy per Si atom -5576.248266 kJ/mol
# Density = 1.590120 g / cm^3
# Si number density = 15.937471 Si / 1000 Ang^3
#
#
#
# Elastic Constant Matrix: (Units=GPa)
#
#
# Indices 1 2 3 4 5 6 
#
# 1 82.3787 48.5388 53.2527 0.0031 -0.0013 0.0000
# 2 48.5388 82.3787 53.2527 -0.0031 0.0013 0.0000
# 3 53.2527 53.2527 208.6099 0.0000 0.0000 0.0000
# 4 0.0031 -0.0031 0.0000 -66.8952 0.0000 0.0013
# 5 -0.0013 0.0013 0.0000 0.0000 -66.8952 0.0031
# 6 0.0000 0.0000 0.0000 0.0013 0.0031 16.9199
#
#
#
# Elastic Compliance Matrix: (Units=1/GPa)
#
#
# Indices 1 2 3 4 5 6 
#
# 1 0.019596 -0.009955 -0.002461 0.000001 -0.000001 0.000000
# 2 -0.009955 0.019596 -0.002461 -0.000001 0.000001 0.000000
# 3 -0.002461 -0.002461 0.006050 0.000000 0.000000 0.000000
# 4 0.000001 -0.000001 0.000000 -0.014949 0.000000 0.000001
# 5 -0.000001 0.000001 0.000000 0.000000 -0.014949 0.000003
# 6 0.000000 0.000000 0.000000 0.000001 0.000003 0.059102
#
#
# Mechanical properties :
#
#
# Convention : Reuss Voigt Hill
#
# Bulk Modulus (GPa) = 64.56959 75.93951 70.25455
# Shear Modulus (GPa) = 45.71948 -8.81923 18.45013
#
# Velocity S-wave (km/s) = 5.36182 -2.35492 3.40613
# Velocity P-wave (km/s) = 8.88450 6.35277 7.72308
#
# Compressibility (1/GPa) = 0.01548717
#
# Stress axis : x y z
#
# Youngs Moduli (GPa) = 51.03160 51.03160 165.28726
#
# Poissons Ratio (x) = 0.50803 0.40677
# Poissons Ratio (y) = 0.50803 0.40677
# Poissons Ratio (z) = 0.12559 0.12559
#
# Static dielectric constant tensor:
#      x y z
#    x 1.525960 0.000000 0.000000 
#    y 0.000000 1.525960 0.000000 
#    z 0.000000 0.000000 1.552670 
# 
# From -- ./inp_files/2137.got.cif
#   From: 2010.05.17/outbox.cif.g08.bks.cpg/sg163_2_cif.got.tgz:2137.got - 2010.05.20 10:56:03.
