data_PCOD9577423
_publ_section_title
;
Structure prediction by ZEFSAII (Michael W. Deem and Ramdas Pophale) SiO2 
 PCOD9577423
Probable space group: P 3 1 C
;
_chemical_formula_sum "Si O2"
_cell_formula_units_Z 36
_cell_length_a 11.784960
_cell_length_b 11.784960
_cell_length_c 12.969247
_cell_angle_alpha 90.000000
_cell_angle_beta 90.000000
_cell_angle_gamma 120.000000
_cell_volume 1559.917459
_symmetry_space_group_name_H-M "P 3 1 C"
_symmetry_group_IT_number 159
_symmetry_cell_setting 'hexagonal'
loop_
_space_group_symop_operation_xyz
x,y,z
-y,x-y,z
-x+y,-x,z
y,x,1/2+z
x-y,-y,1/2+z
-x,-x+y,1/2+z
loop_
_atom_site_type_symbol
_atom_site_label
_atom_site_fract_x
_atom_site_fract_y
_atom_site_fract_z
Si Si1 0.175115 0.355939 0.792240
Si Si2 0.765592 0.746363 0.506219
Si Si3 0.475914 0.538485 0.075465
Si Si4 0.767688 0.028982 0.085797
Si Si5 0.171644 0.566310 0.304061
Si Si6 0.553939 0.450437 0.360338
O O1 0.083287 0.286757 0.891064
O O2 0.166482 0.273088 0.692690
O O3 0.325975 0.424087 0.823326
O O4 0.161827 0.487360 0.781754
O O5 0.631868 0.632356 0.559148
O O6 0.755953 0.877351 0.504493
O O7 0.886174 0.753986 0.573727
O O8 0.391014 0.378178 0.075035
O O9 0.449234 0.582264 0.184887
O O10 0.424641 0.582189 0.975533
O O11 0.279498 0.525656 0.325385
O O12 0.046837 0.486922 0.371443
#
# Coordination Sequence:
#
# PCOD9577423 Si02
#       6
#     6   6   6   6   6   6
#     4  11  25  43  73 106 153 201 256 311 383 460
#     4  11  27  48  73 113 156 208 263 317 399 470
#     4  11  23  44  75 108 145 196 259 312 383 456
#     4  12  25  48  76 111 156 206 264 322 394 471
#     4  10  23  40  71 101 138 182 238 306 368 444
#     4  11  23  43  66 109 142 197 242 314 375 451
#
# _framework density 23.078142
#
# number of rings (size 3 to 8) (size 9 to 14) (size 15 to 20)
#    0.333    0.667    3.333    2.667    2.333    4.000 
#    2.000    0.000    0.000    0.000    0.000    0.000 
#    0.000    0.000    0.000    0.000    0.000    0.000 
#
# Total GULP energy -200611.548419 kJ/mol
# GULP energy per Si atom -5572.543012 kJ/mol
# Density = 2.302561 g / cm^3
# Si number density = 23.078142 Si / 1000 Ang^3
#
#
#
# Elastic Constant Matrix: (Units=GPa)
#
#
# Indices 1 2 3 4 5 6 
#
# 1 116.4787 46.0663 33.5215 0.0000 10.7167 0.0000
# 2 46.0663 116.4787 33.5215 0.0000 -10.7167 0.0000
# 3 33.5215 33.5215 93.9141 0.0000 0.0000 0.0000
# 4 0.0000 0.0000 0.0000 15.0412 0.0000 -10.7167
# 5 10.7167 -10.7167 0.0000 0.0000 15.0412 0.0000
# 6 0.0000 0.0000 0.0000 -10.7167 0.0000 35.2062
#
#
#
# Elastic Compliance Matrix: (Units=1/GPa)
#
#
# Indices 1 2 3 4 5 6 
#
# 1 0.012675 -0.005460 -0.002575 0.000000 -0.012921 0.000000
# 2 -0.005460 0.012675 -0.002575 0.000000 0.012921 0.000000
# 3 -0.002575 -0.002575 0.012486 0.000000 0.000000 0.000000
# 4 0.000000 0.000000 0.000000 0.084897 0.000000 0.025842
# 5 -0.012921 0.012921 0.000000 0.000000 0.084897 0.000000
# 6 0.000000 0.000000 0.000000 0.025842 0.000000 0.036270
#
#
# Mechanical properties :
#
#
# Convention : Reuss Voigt Hill
#
# Bulk Modulus (GPa) = 60.18798 61.45448 60.82123
# Shear Modulus (GPa) = 18.47344 27.30852 22.89098
#
# Velocity S-wave (km/s) = 2.83233 3.44365 3.15285
# Velocity P-wave (km/s) = 6.06901 6.51908 6.29806
#
# Compressibility (1/GPa) = 0.01661461
#
# Stress axis : x y z
#
# Youngs Moduli (GPa) = 78.89712 78.89712 80.08784
#
# Poissons Ratio (x) = 0.43082 0.20623
# Poissons Ratio (y) = 0.43082 0.20623
# Poissons Ratio (z) = 0.20316 0.20316
#
# Static dielectric constant tensor:
#      x y z
#    x 1.922660 0.000000 0.000000 
#    y 0.000000 1.922660 0.000000 
#    z 0.000000 0.000000 1.921940 
# 
# From -- ./inp_files/885.got.cif
#   From: 2010.05.17/outbox.cif.g08.bks.cpg/sg159_cif.got.tgz:885.got - 2010.05.20 10:50:30.
