data_PCOD9577817
_publ_section_title
;
Structure prediction by ZEFSAII (Michael W. Deem and Ramdas Pophale) SiO2 
 PCOD9577817
Probable space group: P -3 1 M 
;
_chemical_formula_sum "Si O2"
_cell_formula_units_Z 66
_cell_length_a 22.293945
_cell_length_b 22.293945
_cell_length_c 8.420007
_cell_angle_alpha 90.000000
_cell_angle_beta 90.000000
_cell_angle_gamma 120.000000
_cell_volume 3624.239881
_symmetry_space_group_name_H-M "P -3 1 M "
_symmetry_group_IT_number 162
_symmetry_cell_setting 'hexagonal'
loop_
_space_group_symop_operation_xyz
x,y,z
-y,x-y,z
-x+y,-x,z
-y,-x,-z
-x+y,y,-z
x,x-y,-z
-x,-y,-z
y,-x+y,-z
x-y,x,-z
y,x,z
x-y,-y,z
-x,-x+y,z
loop_
_atom_site_type_symbol
_atom_site_label
_atom_site_fract_x
_atom_site_fract_y
_atom_site_fract_z
Si Si1 0.916640 0.474579 0.174462
Si Si2 0.315322 0.395753 0.307377
Si Si3 0.858923 0.081771 0.834077
Si Si4 0.177405 0.794140 0.826437
Si Si5 0.648178 0.568374 0.324957
Si Si6 0.917732 0.082269 0.500000
O O1 0.896278 0.530972 0.223270
O O2 0.902824 0.413033 0.294924
O O3 0.000000 0.519614 0.166475
O O4 0.889938 0.444969 0.000000
O O5 0.339063 0.339063 0.260431
O O6 0.237564 0.378000 0.269286
O O7 0.333232 0.410987 0.492495
O O8 0.811432 0.116097 0.847918
O O9 0.899844 0.106357 0.666328
O O10 0.812657 0.000000 0.821816
O O11 0.900936 0.099065 0.000000
O O12 0.139670 0.718133 0.752354
O O13 0.206370 0.793631 0.000000
O O14 0.617547 0.617547 0.261619
O O15 0.000000 0.117477 0.491001
#
# Coordination Sequence:
#
# PCOD9577817 Si02
#       6
#    12  12  12  12  12   6
#     4   9  17  32  55  81 108 139 176 217 264 317
#     4  10  21  35  55  82 112 147 185 227 276 332
#     4  10  22  38  56  79 109 146 191 242 301 360
#     4  11  23  36  53  79 113 148 186 231 284 339
#     4  10  20  35  56  81 112 145 184 229 274 328
#     4  10  21  36  56  76 100 134 182 236 294 354
#
# _framework density 18.210716000000001
#
# number of rings (size 3 to 8) (size 9 to 14) (size 15 to 20)
#    0.000    2.000    0.000    3.364    2.545    8.000 
#    0.000    0.000    0.000    3.636    0.000    5.091 
#    0.000    0.000    0.000    0.000    0.000    0.000 
#
# Total GULP energy -367749.079422 kJ/mol
# GULP energy per Si atom -5571.955749 kJ/mol
# Density = 1.816927 g / cm^3
# Si number density = 18.210716 Si / 1000 Ang^3
#
#
#
# Elastic Constant Matrix: (Units=GPa)
#
#
# Indices 1 2 3 4 5 6 
#
# 1 61.3789 25.4483 5.6498 0.0005 0.5695 0.0000
# 2 25.4483 61.3789 5.6498 -0.0005 -0.5695 0.0000
# 3 5.6498 5.6498 71.7821 0.0000 0.0000 0.0000
# 4 0.0005 -0.0005 0.0000 15.2682 0.0000 -0.5695
# 5 0.5695 -0.5695 0.0000 0.0000 15.2682 0.0005
# 6 0.0000 0.0000 0.0000 -0.5695 0.0005 17.9653
#
#
#
# Elastic Compliance Matrix: (Units=1/GPa)
#
#
# Indices 1 2 3 4 5 6 
#
# 1 0.019750 -0.008114 -0.000916 -0.000001 -0.001039 0.000000
# 2 -0.008114 0.019750 -0.000916 0.000001 0.001039 0.000000
# 3 -0.000916 -0.000916 0.014075 0.000000 0.000000 0.000000
# 4 -0.000001 0.000001 0.000000 0.065573 0.000000 0.002079
# 5 -0.001039 0.001039 0.000000 0.000000 0.065573 -0.000002
# 6 0.000000 0.000000 0.000000 0.002079 -0.000002 0.055729
#
#
# Mechanical properties :
#
#
# Convention : Reuss Voigt Hill
#
# Bulk Modulus (GPa) = 29.68731 29.78171 29.73451
# Shear Modulus (GPa) = 18.41145 20.21983 19.31564
#
# Velocity S-wave (km/s) = 3.18311 3.33577 3.26033
# Velocity P-wave (km/s) = 5.46325 5.58802 5.52598
#
# Compressibility (1/GPa) = 0.03368443
#
# Stress axis : x y z
#
# Youngs Moduli (GPa) = 50.63203 50.63203 71.04682
#
# Poissons Ratio (x) = 0.41083 0.06507
# Poissons Ratio (y) = 0.41083 0.06507
# Poissons Ratio (z) = 0.04637 0.04637
#
# Static dielectric constant tensor:
#      x y z
#    x 1.625310 0.000000 0.000000 
#    y 0.000000 1.625310 0.000000 
#    z 0.000000 0.000000 1.714340 
# 
# From -- ./inp_files/1616.got.cif
#   From: 2010.05.17/outbox.cif.g08.bks.cpg/sg162_1_cif.got.tgz:1616.got - 2010.05.20 10:53:12.
