data_PCOD9577517
_publ_section_title
;
Structure prediction by ZEFSAII (Michael W. Deem and Ramdas Pophale) SiO2 
 PCOD9577517
Probable space group: R 3 M
;
_chemical_formula_sum "Si O2"
_cell_formula_units_Z 48
_cell_length_a 21.000000
_cell_length_b 21.000000
_cell_length_c 21.000000
_cell_angle_alpha 90.000000
_cell_angle_beta 90.000000
_cell_angle_gamma 120.000000
_cell_volume 8020.261264
_symmetry_space_group_name_H-M "R 3 M"
_symmetry_group_IT_number 160
_symmetry_cell_setting 'hexagonal'
loop_
_space_group_symop_operation_xyz
x,y,z
-y,x-y,z
-x+y,-x,z
-x+y,y,z
x,x-y,z
-y,-x,z
2/3+x,1/3+y,1/3+z
2/3-y,1/3+x-y,1/3+z
2/3-x+y,1/3-x,1/3+z
2/3-x+y,1/3+y,1/3+z
2/3+x,1/3+x-y,1/3+z
2/3-y,1/3-x,1/3+z
1/3+x,2/3+y,2/3+z
1/3-y,2/3+x-y,2/3+z
1/3-x+y,2/3-x,2/3+z
1/3-x+y,2/3+y,2/3+z
1/3+x,2/3+x-y,2/3+z
1/3-y,2/3-x,2/3+z
loop_
_atom_site_type_symbol
_atom_site_label
_atom_site_fract_x
_atom_site_fract_y
_atom_site_fract_z
Si Si1 0.560939 0.854387 0.816166
Si Si2 0.581919 0.642635 0.456653
Si Si3 0.999678 0.150865 0.404076
Si Si4 0.857545 0.859178 0.878411
Si Si5 0.967973 0.783828 0.009536
Si Si6 0.866257 0.285192 0.613334
Si Si7 0.725057 0.937388 0.508049
Si Si8 0.272889 0.290198 0.645372
O O1 0.542414 0.771207 0.827450
O O2 0.526761 0.858308 0.747915
O O3 0.648281 0.905092 0.803357
O O4 0.540622 0.884734 0.878086
O O5 0.517955 0.640301 0.498894
O O6 0.656948 0.713068 0.481206
O O7 0.572634 0.649914 0.381022
O O8 0.923297 0.076704 0.409782
O O9 0.067887 0.135774 0.404056
O O10 0.004706 0.191708 0.337562
O O11 0.013683 0.205544 0.462982
O O12 0.917715 0.835430 0.865492
O O13 0.889905 0.944953 0.868776
O O14 0.833839 0.839947 0.952082
O O15 0.884034 0.768067 0.012731
O O16 0.966082 0.709488 0.988742
O O17 0.795769 0.204232 0.612901
O O18 0.938849 0.281713 0.629905
O O19 0.708033 0.854017 0.501698
O O20 0.736591 0.959051 0.582496
#
# Coordination Sequence:
#
# PCOD9577517 Si02
#       8
#    18  18  18  18  18  18  18  18
#     4  10  20  36  57  85 117 149 187 232 282 342
#     4  11  21  36  60  84 113 149 184 233 295 340
#     4  10  22  40  61  84 112 152 197 237 280 336
#     4  11  22  37  57  82 113 152 195 235 274 328
#     4   9  19  35  58  81 109 149 189 230 282 338
#     4  11  22  35  55  84 119 154 186 231 286 338
#     4  11  21  37  60  85 115 151 190 232 285 346
#     4  11  21  36  57  85 115 146 184 232 288 346
#
# _framework density 5.9848420000000004
#
# number of rings (size 3 to 8) (size 9 to 14) (size 15 to 20)
#    0.000    1.500    3.750    1.750    0.000    3.000 
#    0.000    0.625    0.000    0.250    0.000    1.750 
#    0.000    0.000    0.000    0.000    0.000    0.000 
#
# Total GULP energy -267914.401209 kJ/mol
# GULP energy per Si atom -5581.550025 kJ/mol
# Density = 0.597122 g / cm^3
# Si number density = 5.984842 Si / 1000 Ang^3
#
#
#
# Elastic Constant Matrix: (Units=GPa)
#
#
# Indices 1 2 3 4 5 6 
#
# 1 46.2009 16.4643 19.9942 -0.3660 0.0002 0.0000
# 2 16.4643 46.2009 19.9942 0.3660 -0.0002 0.0000
# 3 19.9942 19.9942 127.4305 0.0000 0.0000 0.0000
# 4 -0.3660 0.3660 0.0000 21.9782 0.0000 -0.0002
# 5 0.0002 -0.0002 0.0000 0.0000 21.9782 -0.3660
# 6 0.0000 0.0000 0.0000 -0.0002 -0.3660 14.8683
#
#
#
# Elastic Compliance Matrix: (Units=1/GPa)
#
#
# Indices 1 2 3 4 5 6 
#
# 1 0.025688 -0.007955 -0.002782 0.000560 0.000000 0.000000
# 2 -0.007955 0.025688 -0.002782 -0.000560 0.000000 0.000000
# 3 -0.002782 -0.002782 0.008721 0.000000 0.000000 0.000000
# 4 0.000560 -0.000560 0.000000 0.045518 0.000000 0.000001
# 5 0.000000 0.000000 0.000000 0.000000 0.045518 0.001120
# 6 0.000000 0.000000 0.000000 0.000001 0.001120 0.067285
#
#
# Mechanical properties :
#
#
# Convention : Reuss Voigt Hill
#
# Bulk Modulus (GPa) = 30.25020 36.97083 33.61052
# Shear Modulus (GPa) = 19.49503 22.65691 21.07597
#
# Velocity S-wave (km/s) = 3.29872 3.55618 3.42987
# Velocity P-wave (km/s) = 5.60300 6.12356 5.86905
#
# Compressibility (1/GPa) = 0.03305763
#
# Stress axis : x y z
#
# Youngs Moduli (GPa) = 38.92884 38.92884 114.67165
#
# Poissons Ratio (x) = 0.30966 0.31906
# Poissons Ratio (y) = 0.30966 0.31906
# Poissons Ratio (z) = 0.10832 0.10832
#
# Static dielectric constant tensor:
#      x y z
#    x 1.591860 0.000000 0.000000 
#    y 0.000000 1.591860 0.000000 
#    z 0.000000 0.000000 1.623010 
# 
# From -- ./inp_files/3420.got.cif
#   From: 2010.05.17/outbox.ucp.g08.bks.cvg/sg160_2_cif.got.tgz:3420.got - 2010.06.11 15:14:33.
