data_PCOD9577352
_publ_section_title
;
Structure prediction by ZEFSAII (Michael W. Deem and Ramdas Pophale) SiO2 
 PCOD9577352
Probable space group: P 3 1 C
;
_chemical_formula_sum "Si O2"
_cell_formula_units_Z 28
_cell_length_a 11.013533
_cell_length_b 11.013533
_cell_length_c 13.749478
_cell_angle_alpha 90.000000
_cell_angle_beta 90.000000
_cell_angle_gamma 120.000000
_cell_volume 1444.342388
_symmetry_space_group_name_H-M "P 3 1 C"
_symmetry_group_IT_number 159
_symmetry_cell_setting 'hexagonal'
loop_
_space_group_symop_operation_xyz
x,y,z
-y,x-y,z
-x+y,-x,z
y,x,1/2+z
x-y,-y,1/2+z
-x,-x+y,1/2+z
loop_
_atom_site_type_symbol
_atom_site_label
_atom_site_fract_x
_atom_site_fract_y
_atom_site_fract_z
Si Si1 0.666668 0.333335 0.756256
Si Si2 0.451495 0.090438 0.621123
Si Si3 0.333334 0.666668 0.487957
Si Si4 0.924048 0.621884 0.516034
Si Si5 0.686360 0.185319 0.318936
Si Si6 0.798867 0.187013 0.112541
O O1 0.544356 0.185930 0.711397
O O2 0.666668 0.333334 0.872059
O O3 0.420236 0.191830 0.555294
O O4 0.549712 0.048897 0.559381
O O5 0.302747 0.954784 0.642991
O O6 0.260527 0.748392 0.533909
O O7 0.912951 0.607599 0.400011
O O8 0.043665 0.767044 0.560763
O O9 0.804534 0.350102 0.331998
O O10 0.704018 0.149124 0.209531
#
# Coordination Sequence:
#
# PCOD9577352 Si02
#       6
#     2   6   2   6   6   6
#     4   9  24  39  64  89 127 162 201 255 304 371
#     4  10  21  42  59  90 124 161 203 248 308 357
#     4  12  21  39  58 104 124 144 207 267 316 326
#     4  11  21  38  64  88 118 164 203 249 296 372
#     4  10  18  37  62  87 116 167 199 233 311 378
#     4  12  23  37  63  92 127 152 205 262 299 362
#
# _framework density 19.385985999999999
#
# number of rings (size 3 to 8) (size 9 to 14) (size 15 to 20)
#    0.429    0.857    6.429    0.429    0.000    6.857 
#    1.286    0.000    0.000    0.000    5.571    0.000 
#    0.000    0.000    0.000    0.000    0.000    0.000 
#
# Total GULP energy -156201.079668 kJ/mol
# GULP energy per Si atom -5578.609988 kJ/mol
# Density = 1.934186 g / cm^3
# Si number density = 19.385986 Si / 1000 Ang^3
#
#
#
# Elastic Constant Matrix: (Units=GPa)
#
#
# Indices 1 2 3 4 5 6 
#
# 1 67.2748 23.1396 36.9560 0.0000 -5.1759 -0.0001
# 2 23.1396 67.2745 36.9560 0.0000 5.1759 -0.0001
# 3 36.9560 36.9560 176.8447 -0.0001 -0.0001 0.0000
# 4 0.0000 0.0000 -0.0001 14.6271 -0.0001 5.1759
# 5 -5.1759 5.1759 -0.0001 -0.0001 14.6272 0.0000
# 6 -0.0001 -0.0001 0.0000 5.1759 0.0000 22.0676
#
#
#
# Elastic Compliance Matrix: (Units=1/GPa)
#
#
# Indices 1 2 3 4 5 6 
#
# 1 0.019024 -0.005685 -0.002787 0.000000 0.008743 0.000000
# 2 -0.005685 0.019024 -0.002788 0.000000 -0.008743 0.000000
# 3 -0.002787 -0.002788 0.006820 0.000000 0.000000 0.000000
# 4 0.000000 0.000000 0.000000 0.074554 0.000001 -0.017487
# 5 0.008743 -0.008743 0.000000 0.000001 0.074553 0.000000
# 6 0.000000 0.000000 0.000000 -0.017487 0.000000 0.049417
#
#
# Mechanical properties :
#
#
# Convention : Reuss Voigt Hill
#
# Bulk Modulus (GPa) = 44.74755 56.16635 50.45695
# Shear Modulus (GPa) = 18.29089 24.55386 21.42238
#
# Velocity S-wave (km/s) = 3.07499 3.56276 3.32783
# Velocity P-wave (km/s) = 5.97829 6.77937 6.39140
#
# Compressibility (1/GPa) = 0.02234759
#
# Stress axis : x y z
#
# Youngs Moduli (GPa) = 52.56617 52.56593 146.63380
#
# Poissons Ratio (x) = 0.29882 0.40874
# Poissons Ratio (y) = 0.29883 0.40874
# Poissons Ratio (z) = 0.14653 0.14653
#
# Static dielectric constant tensor:
#      x y z
#    x 1.709300 0.000000 0.000000 
#    y 0.000000 1.709300 0.000000 
#    z 0.000000 0.000000 1.663660 
# 
# From -- ./inp_files/793.got.cif
#   From: 2010.05.17/outbox.cif.g08.bks.cpg/sg159_cif.got.tgz:793.got - 2010.05.20 10:50:30.
