data_PCOD9577789
_publ_section_title
;
Structure prediction by ZEFSAII (Michael W. Deem and Ramdas Pophale) SiO2 
 PCOD9577789
Probable space group: P -3 1 M 
;
_chemical_formula_sum "Si O2"
_cell_formula_units_Z 72
_cell_length_a 15.000347
_cell_length_b 15.000347
_cell_length_c 18.165027
_cell_angle_alpha 90.000000
_cell_angle_beta 90.000000
_cell_angle_gamma 120.000000
_cell_volume 3539.723105
_symmetry_space_group_name_H-M "P -3 1 M "
_symmetry_group_IT_number 162
_symmetry_cell_setting 'hexagonal'
loop_
_space_group_symop_operation_xyz
x,y,z
-y,x-y,z
-x+y,-x,z
-y,-x,-z
-x+y,y,-z
x,x-y,-z
-x,-y,-z
y,-x+y,-z
x-y,x,-z
y,x,z
x-y,-y,z
-x,-x+y,z
loop_
_atom_site_type_symbol
_atom_site_label
_atom_site_fract_x
_atom_site_fract_y
_atom_site_fract_z
Si Si1 0.241755 0.888159 0.440591
Si Si2 0.563787 0.118211 0.584427
Si Si3 0.557007 0.124105 0.745220
Si Si4 0.209959 0.424276 0.800635
Si Si5 0.882181 0.763930 0.694164
Si Si6 0.757363 0.878911 0.911666
O O1 0.199355 0.800646 0.500000
O O2 0.333011 0.886172 0.397657
O O3 0.151466 0.875793 0.388622
O O4 0.292276 0.000000 0.476899
O O5 0.580279 0.160559 0.500000
O O6 0.550402 0.163218 0.661411
O O7 0.470519 0.000000 0.577743
O O8 0.500738 0.164490 0.799534
O O9 0.671646 0.161916 0.774670
O O10 0.495418 0.000000 0.741206
O O11 0.145901 0.336161 0.740598
O O12 0.186121 0.353999 0.873215
O O13 0.847232 0.847232 0.699824
O O14 0.000000 0.810151 0.717949
O O15 0.814811 0.814811 0.890004
O O16 0.828379 0.000000 0.892237
O O17 0.747084 0.873542 0.000000
#
# Coordination Sequence:
#
# PCOD9577789 Si02
#       6
#    12  12  12  12  12  12
#     4  10  20  34  51  77 111 150 196 249 316 386
#     4   9  19  34  53  76 107 149 201 261 322 371
#     4  11  23  41  60  86 122 158 204 268 323 372
#     4  12  24  41  64  91 124 167 216 264 324 391
#     4  11  22  37  58  87 122 162 208 259 322 399
#     4  10  21  40  69 106 143 176 211 254 308 377
#
# _framework density 20.340572999999999
#
# number of rings (size 3 to 8) (size 9 to 14) (size 15 to 20)
#    0.000    1.500    1.667    4.167    2.333    0.667 
#    0.000    2.500    0.000    6.000    0.000    0.000 
#    0.000    0.000    0.000    0.000    0.000    0.000 
#
# Total GULP energy -401686.457222 kJ/mol
# GULP energy per Si atom -5578.978573 kJ/mol
# Density = 2.029428 g / cm^3
# Si number density = 20.340573 Si / 1000 Ang^3
#
#
#
# Elastic Constant Matrix: (Units=GPa)
#
#
# Indices 1 2 3 4 5 6 
#
# 1 81.1433 10.7806 37.3722 0.0001 0.4079 0.0000
# 2 10.7806 81.1433 37.3722 -0.0001 -0.4079 0.0000
# 3 37.3722 37.3722 80.2242 0.0000 0.0000 0.0000
# 4 0.0001 -0.0001 0.0000 25.8568 0.0000 -0.4079
# 5 0.4079 -0.4079 0.0000 0.0000 25.8568 0.0001
# 6 0.0000 0.0000 0.0000 -0.4079 0.0001 35.1814
#
#
#
# Elastic Compliance Matrix: (Units=1/GPa)
#
#
# Indices 1 2 3 4 5 6 
#
# 1 0.015863 0.001649 -0.008158 0.000000 -0.000224 0.000000
# 2 0.001649 0.015863 -0.008158 0.000000 0.000224 0.000000
# 3 -0.008158 -0.008158 0.020066 0.000000 0.000000 0.000000
# 4 0.000000 0.000000 0.000000 0.038682 0.000000 0.000448
# 5 -0.000224 0.000224 0.000000 0.000000 0.038682 0.000000
# 6 0.000000 0.000000 0.000000 0.000448 0.000000 0.028429
#
#
# Mechanical properties :
#
#
# Convention : Reuss Voigt Hill
#
# Bulk Modulus (GPa) = 44.52763 45.95121 45.23942
# Shear Modulus (GPa) = 25.71952 27.84471 26.78212
#
# Velocity S-wave (km/s) = 3.55976 3.70391 3.63255
# Velocity P-wave (km/s) = 6.23173 6.39780 6.31531
#
# Compressibility (1/GPa) = 0.02245797
#
# Stress axis : x y z
#
# Youngs Moduli (GPa) = 63.03883 63.03883 49.83636
#
# Poissons Ratio (x) = -0.10392 0.40656
# Poissons Ratio (y) = -0.10392 0.40656
# Poissons Ratio (z) = 0.51426 0.51426
#
# Static dielectric constant tensor:
#      x y z
#    x 1.718350 0.000000 0.000000 
#    y 0.000000 1.718350 0.000000 
#    z 0.000000 0.000000 1.767830 
# 
# From -- ./inp_files/3539.got.cif
#   From: 2010.05.17/outbox.cif.g08.bks.cpg/sg162_2_cif.got.tgz:3539.got - 2010.05.20 10:53:12.
