data_PCOD9577437
_publ_section_title
;
Structure prediction by ZEFSAII (Michael W. Deem and Ramdas Pophale) SiO2 
 PCOD9577437
Probable space group: P 3 1 C
;
_chemical_formula_sum "Si O2"
_cell_formula_units_Z 40
_cell_length_a 10.582902
_cell_length_b 10.582902
_cell_length_c 18.595300
_cell_angle_alpha 90.000000
_cell_angle_beta 90.000000
_cell_angle_gamma 120.000000
_cell_volume 1803.613054
_symmetry_space_group_name_H-M "P 3 1 C"
_symmetry_group_IT_number 159
_symmetry_cell_setting 'hexagonal'
loop_
_space_group_symop_operation_xyz
x,y,z
-y,x-y,z
-x+y,-x,z
y,x,1/2+z
x-y,-y,1/2+z
-x,-x+y,1/2+z
loop_
_atom_site_type_symbol
_atom_site_label
_atom_site_fract_x
_atom_site_fract_y
_atom_site_fract_z
Si Si1 0.264408 0.025136 0.514950
Si Si2 0.259994 0.228189 0.929018
Si Si3 0.067219 0.336753 0.672032
Si Si4 0.830899 0.176501 0.781525
Si Si5 0.666668 0.333333 0.009702
Si Si6 0.989822 0.597192 0.161439
Si Si7 0.333334 0.666668 0.338402
Si Si8 0.525687 0.994555 0.012731
O O1 0.212394 0.119387 0.469694
O O2 0.176321 0.868317 0.476059
O O3 0.237755 0.000585 0.600258
O O4 0.435326 0.081681 0.505149
O O5 0.254727 0.184381 0.846890
O O6 0.384857 0.394980 0.941107
O O7 0.239030 0.398009 0.668175
O O8 0.032309 0.468811 0.672136
O O9 0.987103 0.246288 0.743122
O O10 0.788015 0.293192 0.812607
O O11 0.711612 0.095047 0.719638
O O12 0.666668 0.333334 0.923821
O O13 0.584691 0.164785 0.032773
O O14 0.057093 0.639222 0.080862
#
# Coordination Sequence:
#
# PCOD9577437 Si02
#       8
#     6   6   6   6   2   6   2   6
#     4  11  25  44  72 100 139 185 241 301 350 430
#     4  12  25  45  69 102 140 185 237 295 364 425
#     4  11  24  45  74 103 143 186 241 297 365 426
#     4  12  26  43  70  98 146 184 232 292 365 436
#     4  12  18  39  78  96 114 172 242 301 330 429
#     4  11  23  43  67 105 135 184 234 295 352 432
#     4  12  21  45  69 102 126 181 230 301 354 423
#     4  11  20  42  73  98 129 177 241 290 352 421
#
# _framework density 22.177706000000001
#
# number of rings (size 3 to 8) (size 9 to 14) (size 15 to 20)
#    0.000    0.600    6.000    2.400    2.100    0.000 
#    1.800    0.000    0.000    0.000    0.000    0.000 
#    0.000    0.000    0.000    0.000    0.000    0.000 
#
# Total GULP energy -223647.475777 kJ/mol
# GULP energy per Si atom -5591.186894 kJ/mol
# Density = 2.212723 g / cm^3
# Si number density = 22.177706 Si / 1000 Ang^3
#
#
#
# Elastic Constant Matrix: (Units=GPa)
#
#
# Indices 1 2 3 4 5 6 
#
# 1 64.7732 14.3587 43.5001 0.0001 0.4918 0.0000
# 2 14.3587 64.7733 43.4999 0.0000 -0.4917 0.0000
# 3 43.5001 43.4999 163.6893 -0.0001 -0.0001 -0.0001
# 4 0.0001 0.0000 -0.0001 35.6880 -0.0001 -0.4918
# 5 0.4918 -0.4917 -0.0001 -0.0001 35.6881 -0.0001
# 6 0.0000 0.0000 -0.0001 -0.4918 -0.0001 25.2073
#
#
#
# Elastic Compliance Matrix: (Units=1/GPa)
#
#
# Indices 1 2 3 4 5 6 
#
# 1 0.018847 -0.000994 -0.004744 0.000000 -0.000273 0.000000
# 2 -0.000994 0.018847 -0.004744 0.000000 0.000273 0.000000
# 3 -0.004744 -0.004744 0.008631 0.000000 0.000000 0.000000
# 4 0.000000 0.000000 0.000000 0.028028 0.000000 0.000547
# 5 -0.000273 0.000273 0.000000 0.000000 0.028028 0.000000
# 6 0.000000 0.000000 0.000000 0.000547 0.000000 0.039682
#
#
# Mechanical properties :
#
#
# Convention : Reuss Voigt Hill
#
# Bulk Modulus (GPa) = 39.43282 55.10590 47.26936
# Shear Modulus (GPa) = 29.15765 32.10849 30.63307
#
# Velocity S-wave (km/s) = 3.62985 3.80910 3.72056
# Velocity P-wave (km/s) = 5.94868 6.65185 6.31006
#
# Compressibility (1/GPa) = 0.02535958
#
# Stress axis : x y z
#
# Youngs Moduli (GPa) = 53.05848 53.05861 115.86405
#
# Poissons Ratio (x) = 0.05273 0.54972
# Poissons Ratio (y) = 0.05273 0.54971
# Poissons Ratio (z) = 0.25174 0.25174
#
# Static dielectric constant tensor:
#      x y z
#    x 1.849670 0.000000 0.000000 
#    y 0.000000 1.849670 0.000000 
#    z 0.000000 0.000000 1.807700 
# 
# From -- ./inp_files/1135.got.cif
#   From: 2010.05.17/outbox.cif.g08.bks.cpg/sg159_cif.got.tgz:1135.got - 2010.05.20 10:50:30.
