data_PCOD9577959
_publ_section_title
;
Structure prediction by ZEFSAII (Michael W. Deem and Ramdas Pophale) SiO2 
 PCOD9577959
Probable space group: P -3 1 M 
;
_chemical_formula_sum "Si O2"
_cell_formula_units_Z 72
_cell_length_a 23.524290
_cell_length_b 23.524290
_cell_length_c 7.405726
_cell_angle_alpha 90.000000
_cell_angle_beta 90.000000
_cell_angle_gamma 120.000000
_cell_volume 3549.206929
_symmetry_space_group_name_H-M "P -3 1 M "
_symmetry_group_IT_number 162
_symmetry_cell_setting 'hexagonal'
loop_
_space_group_symop_operation_xyz
x,y,z
-y,x-y,z
-x+y,-x,z
-y,-x,-z
-x+y,y,-z
x,x-y,-z
-x,-y,-z
y,-x+y,-z
x-y,x,-z
y,x,z
x-y,-y,z
-x,-x+y,z
loop_
_atom_site_type_symbol
_atom_site_label
_atom_site_fract_x
_atom_site_fract_y
_atom_site_fract_z
Si Si1 0.798850 0.073431 0.282904
Si Si2 0.333279 0.535845 0.220781
Si Si3 0.201150 0.274581 0.717097
Si Si4 0.592371 0.665596 0.785192
Si Si5 0.202566 0.666721 0.779219
Si Si6 0.665596 0.073225 0.785192
O O1 0.867476 0.132524 0.214623
O O2 0.803431 0.072206 0.500000
O O3 0.739111 0.086383 0.242211
O O4 0.775821 0.000000 0.216208
O O5 0.340777 0.474686 0.283927
O O6 0.395222 0.604778 0.275170
O O7 0.264763 0.529527 0.278151
O O8 0.332467 0.534618 1.000000
O O9 0.224179 0.224179 0.783792
O O10 0.260889 0.347272 0.757789
O O11 0.616718 0.616718 0.712691
O O12 0.583932 0.654416 0.000000
O O13 0.133909 0.659223 0.716073
O O14 0.616718 0.000000 0.712691
#
# Coordination Sequence:
#
# PCOD9577959 Si02
#       6
#    12  12  12  12  12  12
#     4   9  17  29  45  64  86 112 140 169 203 245
#     4   9  16  25  38  57  82 111 141 173 209 249
#     4   9  17  29  45  64  86 112 140 169 203 245
#     4   9  17  28  43  64  87 109 135 171 213 251
#     4   9  16  25  38  57  82 111 141 173 209 249
#     4   9  17  28  43  64  87 109 135 171 213 251
#
# _framework density 20.286221999999999
#
# number of rings (size 3 to 8) (size 9 to 14) (size 15 to 20)
#    0.000    3.000    0.000    1.333    0.000    4.000 
#    0.000    3.333    0.000    1.333    0.000    7.000 
#    0.000    2.667    0.000    8.333    0.000    8.667 
#
# Total GULP energy -401826.870080 kJ/mol
# GULP energy per Si atom -5580.928751 kJ/mol
# Density = 2.024005 g / cm^3
# Si number density = 20.286222 Si / 1000 Ang^3
#
#
#
# Elastic Constant Matrix: (Units=GPa)
#
#
# Indices 1 2 3 4 5 6 
#
# 1 154.6889 141.3906 5.4045 0.0000 0.0001 0.0000
# 2 141.3906 154.6889 5.4045 0.0000 -0.0001 0.0000
# 3 5.4045 5.4045 70.0444 0.0000 0.0000 0.0000
# 4 0.0000 0.0000 0.0000 8.6573 0.0000 -0.0001
# 5 0.0001 -0.0001 0.0000 0.0000 8.6573 0.0000
# 6 0.0000 0.0000 0.0000 -0.0001 0.0000 6.6492
#
#
#
# Elastic Compliance Matrix: (Units=1/GPa)
#
#
# Indices 1 2 3 4 5 6 
#
# 1 0.039292 -0.035905 -0.000261 0.000000 0.000000 0.000000
# 2 -0.035905 0.039292 -0.000261 0.000000 0.000000 0.000000
# 3 -0.000261 -0.000261 0.014317 0.000000 0.000000 0.000000
# 4 0.000000 0.000000 0.000000 0.115510 0.000000 0.000001
# 5 0.000000 0.000000 0.000000 0.000000 0.115510 0.000000
# 6 0.000000 0.000000 0.000000 0.000001 0.000000 0.150395
#
#
# Mechanical properties :
#
#
# Convention : Reuss Voigt Hill
#
# Bulk Modulus (GPa) = 49.88611 75.98016 62.93313
# Shear Modulus (GPa) = 9.02766 19.94092 14.48429
#
# Velocity S-wave (km/s) = 2.11183 3.13865 2.67497
# Velocity P-wave (km/s) = 5.53091 7.11830 6.37421
#
# Compressibility (1/GPa) = 0.02004566
#
# Stress axis : x y z
#
# Youngs Moduli (GPa) = 25.45037 25.45037 69.84712
#
# Poissons Ratio (x) = 0.91380 0.01825
# Poissons Ratio (y) = 0.91380 0.01825
# Poissons Ratio (z) = 0.00665 0.00665
#
# Static dielectric constant tensor:
#      x y z
#    x 1.694430 0.000000 0.000000 
#    y 0.000000 1.694430 0.000000 
#    z 0.000000 0.000000 1.795830 
# 
# From -- ./inp_files/1701.got.cif
#   From: 2010.05.17/outbox.cif.g08.bks.cpg/sg162_1_cif.got.tgz:1701.got - 2010.05.20 10:53:12.
