data_PCOD9577996
_publ_section_title
;
Structure prediction by ZEFSAII (Michael W. Deem and Ramdas Pophale) SiO2 
 PCOD9577996
Probable space group: P -3 1 C
;
_chemical_formula_sum "Si O2"
_cell_formula_units_Z 74
_cell_length_a 12.075420
_cell_length_b 12.075420
_cell_length_c 27.668815
_cell_angle_alpha 90.000000
_cell_angle_beta 90.000000
_cell_angle_gamma 120.000000
_cell_volume 3494.022372
_symmetry_space_group_name_H-M "P -3 1 C"
_symmetry_group_IT_number 163
_symmetry_cell_setting 'hexagonal'
loop_
_space_group_symop_operation_xyz
x,y,z
-y,x-y,z
-x+y,-x,z
-y,-x,1/2-z
-x+y,y,1/2-z
x,x-y,1/2-z
-x,-y,-z
y,-x+y,-z
x-y,x,-z
y,x,1/2+z
x-y,-y,1/2+z
-x,-x+y,1/2+z
loop_
_atom_site_type_symbol
_atom_site_label
_atom_site_fract_x
_atom_site_fract_y
_atom_site_fract_z
Si Si1 0.333334 0.666667 0.984816
Si Si2 0.030401 0.515201 0.750000
Si Si3 0.333334 0.666668 0.869989
Si Si4 0.756938 0.014806 0.396727
Si Si5 0.884826 0.670978 0.295073
Si Si6 0.386574 0.446701 0.654230
Si Si7 0.927094 0.574066 0.485153
Si Si8 0.265666 0.016557 0.925583
O O1 0.333334 0.666667 0.927100
O O2 0.475036 0.778727 0.997876
O O3 0.105956 0.443654 0.731701
O O4 0.972259 0.524326 0.698231
O O5 0.414170 0.599648 0.853992
O O6 0.741063 0.014002 0.338580
O O7 0.667712 0.050421 0.429285
O O8 0.897818 0.127452 0.412287
O O9 0.732424 0.877581 0.411859
O O10 0.876112 0.752223 0.250000
O O11 0.756191 0.627453 0.324486
O O12 0.373062 0.370035 0.605512
O O13 0.980066 0.698632 0.518582
O O14 0.000000 0.500000 0.500000
#
# Coordination Sequence:
#
# PCOD9577996 Si02
#       8
#     4   6   4  12  12  12  12  12
#     4  12  24  39  61 100 132 163 205 258 315 382
#     4  10  18  32  54  90 124 156 196 258 324 400
#     4  12  18  31  58  93 132 156 184 262 333 394
#     4  11  23  43  63  91 124 175 219 271 318 392
#     4   9  19  34  56  90 123 157 207 258 327 384
#     4  10  20  31  55  92 123 157 196 256 324 389
#     4  12  25  42  65  97 134 169 209 260 329 396
#     4  11  24  41  63  90 126 169 221 265 317 385
#
# _framework density 21.179027999999999
#
# number of rings (size 3 to 8) (size 9 to 14) (size 15 to 20)
#    0.000    1.297    1.622    6.162    2.270    0.000 
#    0.486    8.919    0.000    0.000    0.000    0.000 
#    0.000    0.000    0.000    0.000    0.000    0.000 
#
# Total GULP energy -412248.667573 kJ/mol
# GULP energy per Si atom -5570.927940 kJ/mol
# Density = 2.113082 g / cm^3
# Si number density = 21.179028 Si / 1000 Ang^3
#
#
#
# Elastic Constant Matrix: (Units=GPa)
#
#
# Indices 1 2 3 4 5 6 
#
# 1 70.6111 21.8962 26.3109 -0.0001 -5.3738 0.0001
# 2 21.8962 70.6112 26.3109 0.0000 5.3737 0.0000
# 3 26.3109 26.3109 132.0987 -0.0001 0.0000 0.0000
# 4 -0.0001 0.0000 -0.0001 26.9712 0.0000 5.3738
# 5 -5.3738 5.3737 0.0000 0.0000 26.9713 0.0000
# 6 0.0001 0.0000 0.0000 5.3738 0.0000 24.3575
#
#
#
# Elastic Compliance Matrix: (Units=1/GPa)
#
#
# Indices 1 2 3 4 5 6 
#
# 1 0.016831 -0.004640 -0.002428 0.000000 0.004278 0.000000
# 2 -0.004640 0.016831 -0.002428 0.000000 -0.004278 0.000000
# 3 -0.002428 -0.002428 0.008537 0.000000 0.000000 0.000000
# 4 0.000000 0.000000 0.000000 0.038781 0.000000 -0.008556
# 5 0.004278 -0.004278 0.000000 0.000000 0.038781 0.000000
# 6 0.000000 0.000000 0.000000 -0.008556 0.000000 0.042943
#
#
# Mechanical properties :
#
#
# Convention : Reuss Voigt Hill
#
# Bulk Modulus (GPa) = 43.09045 46.92855 45.00950
# Shear Modulus (GPa) = 26.39447 28.91355 27.65401
#
# Velocity S-wave (km/s) = 3.53406 3.69887 3.61740
# Velocity P-wave (km/s) = 6.08628 6.35990 6.22459
#
# Compressibility (1/GPa) = 0.02320700
#
# Stress axis : x y z
#
# Youngs Moduli (GPa) = 59.41317 59.41330 117.13207
#
# Poissons Ratio (x) = 0.27568 0.28442
# Poissons Ratio (y) = 0.27568 0.28442
# Poissons Ratio (z) = 0.14427 0.14427
#
# Static dielectric constant tensor:
#      x y z
#    x 1.794600 0.000000 0.000000 
#    y 0.000000 1.794600 0.000000 
#    z 0.000000 0.000000 1.880650 
# 
# From -- ./inp_files/4389.got.cif
#   From: 2010.05.17/outbox.cif.g08.bks.cpg/sg163_3_cif.got.tgz:4389.got - 2010.05.20 10:56:03.
