data_PCOD9577995
_publ_section_title
;
Structure prediction by ZEFSAII (Michael W. Deem and Ramdas Pophale) SiO2 
 PCOD9577995
Probable space group: P -3 1 C
;
_chemical_formula_sum "Si O2"
_cell_formula_units_Z 48
_cell_length_a 15.547327
_cell_length_b 15.547327
_cell_length_c 11.951354
_cell_angle_alpha 90.000000
_cell_angle_beta 90.000000
_cell_angle_gamma 120.000000
_cell_volume 2501.838135
_symmetry_space_group_name_H-M "P -3 1 C"
_symmetry_group_IT_number 163
_symmetry_cell_setting 'hexagonal'
loop_
_space_group_symop_operation_xyz
x,y,z
-y,x-y,z
-x+y,-x,z
-y,-x,1/2-z
-x+y,y,1/2-z
x,x-y,1/2-z
-x,-y,-z
y,-x+y,-z
x-y,x,-z
y,x,1/2+z
x-y,-y,1/2+z
-x,-x+y,1/2+z
loop_
_atom_site_type_symbol
_atom_site_label
_atom_site_fract_x
_atom_site_fract_y
_atom_site_fract_z
Si Si1 0.485802 0.630000 0.019046
Si Si2 0.997716 0.331788 0.375649
Si Si3 0.833138 0.666276 0.250000
Si Si4 0.545350 0.706857 0.537768
Si Si5 0.936771 0.468386 0.750000
O O1 0.468677 0.596831 0.146375
O O2 0.597416 0.669121 0.976696
O O3 0.410728 0.529816 0.952575
O O4 0.474173 0.724339 0.995906
O O5 0.941172 0.225978 0.311508
O O6 0.103467 0.375639 0.437929
O O7 0.006247 0.418250 0.293208
O O8 0.841227 0.599582 0.348141
#
# Coordination Sequence:
#
# PCOD9577995 Si02
#       5
#    12  12   6  12   6
#     4  10  20  31  47  70  98 137 178 219 260 311
#     4  10  19  32  49  70  97 137 185 223 265 316
#     4  10  20  34  54  73 102 148 184 228 270 309
#     4  10  20  33  48  73 102 137 187 225 265 321
#     4  10  18  32  50  69 104 144 172 214 264 299
#
# _framework density 19.185894999999999
#
# number of rings (size 3 to 8) (size 9 to 14) (size 15 to 20)
#    0.000    2.000    0.000    6.500    0.000    7.000 
#    0.000    0.000    0.000    0.500    0.000    0.000 
#    0.000    0.000    0.000  513.000    0.000    0.000 
#
# Total GULP energy -267230.001491 kJ/mol
# GULP energy per Si atom -5567.291698 kJ/mol
# Density = 1.914223 g / cm^3
# Si number density = 19.185895 Si / 1000 Ang^3
#
#
#
# Elastic Constant Matrix: (Units=GPa)
#
#
# Indices 1 2 3 4 5 6 
#
# 1 49.5756 1.6485 16.1370 0.0000 -8.3321 0.0000
# 2 1.6485 49.5756 16.1370 0.0000 8.3321 0.0000
# 3 16.1370 16.1370 91.9004 0.0000 0.0000 0.0000
# 4 0.0000 0.0000 0.0000 33.1106 0.0000 8.3321
# 5 -8.3321 8.3321 0.0000 0.0000 33.1106 0.0000
# 6 0.0000 0.0000 0.0000 8.3321 0.0000 23.9636
#
#
#
# Elastic Compliance Matrix: (Units=1/GPa)
#
#
# Indices 1 2 3 4 5 6 
#
# 1 0.022408 -0.000458 -0.003854 0.000000 0.005754 0.000000
# 2 -0.000458 0.022408 -0.003854 0.000000 -0.005754 0.000000
# 3 -0.003854 -0.003854 0.012235 0.000000 0.000000 0.000000
# 4 0.000000 0.000000 0.000000 0.033098 0.000000 -0.011508
# 5 0.005754 -0.005754 0.000000 0.000000 0.033098 0.000000
# 6 0.000000 0.000000 0.000000 -0.011508 0.000000 0.045731
#
#
# Mechanical properties :
#
#
# Convention : Reuss Voigt Hill
#
# Bulk Modulus (GPa) = 24.55881 28.76628 26.66254
# Shear Modulus (GPa) = 25.14035 28.51222 26.82629
#
# Velocity S-wave (km/s) = 3.62381 3.85918 3.74335
# Velocity P-wave (km/s) = 5.50796 5.90624 5.71057
#
# Compressibility (1/GPa) = 0.04071858
#
# Stress axis : x y z
#
# Youngs Moduli (GPa) = 44.62675 44.62675 81.73320
#
# Poissons Ratio (x) = 0.02042 0.31503
# Poissons Ratio (y) = 0.02042 0.31503
# Poissons Ratio (z) = 0.17201 0.17201
#
# Static dielectric constant tensor:
#      x y z
#    x 1.750620 0.000000 0.000000 
#    y 0.000000 1.750620 0.000000 
#    z 0.000000 0.000000 1.687700 
# 
# From -- ./inp_files/1654.got.cif
#   From: 2010.05.17/outbox.cif.g08.bks.cpg/sg163_1_cif.got.tgz:1654.got - 2010.05.20 10:56:03.
