data_PCOD9577829
_publ_section_title
;
Structure prediction by ZEFSAII (Michael W. Deem and Ramdas Pophale) SiO2 
 PCOD9577829
Probable space group: P -3 1 M 
;
_chemical_formula_sum "Si O2"
_cell_formula_units_Z 60
_cell_length_a 17.715641
_cell_length_b 17.715641
_cell_length_c 11.131236
_cell_angle_alpha 90.000000
_cell_angle_beta 90.000000
_cell_angle_gamma 120.000000
_cell_volume 3025.434563
_symmetry_space_group_name_H-M "P -3 1 M "
_symmetry_group_IT_number 162
_symmetry_cell_setting 'hexagonal'
loop_
_space_group_symop_operation_xyz
x,y,z
-y,x-y,z
-x+y,-x,z
-y,-x,-z
-x+y,y,-z
x,x-y,-z
-x,-y,-z
y,-x+y,-z
x-y,x,-z
y,x,z
x-y,-y,z
-x,-x+y,z
loop_
_atom_site_type_symbol
_atom_site_label
_atom_site_fract_x
_atom_site_fract_y
_atom_site_fract_z
Si Si1 0.546056 0.897675 0.750328
Si Si2 0.368504 0.103892 0.767346
Si Si3 0.403129 0.509547 0.380755
Si Si4 0.305822 0.104015 0.378895
Si Si5 0.165993 0.670347 0.002896
O O1 0.445685 0.862003 0.721003
O O2 0.599389 0.887849 0.640482
O O3 0.588319 0.000000 0.766970
O O4 0.555320 0.861933 0.876497
O O5 0.439454 0.132937 0.658326
O O6 0.307786 0.144494 0.733420
O O7 0.426934 0.128965 0.887825
O O8 0.309972 0.000000 0.765164
O O9 0.432594 0.567407 0.500000
O O10 0.454696 0.454696 0.384271
O O11 0.295965 0.147983 0.500000
O O12 0.236989 0.000000 0.374681
O O13 0.270087 0.729913 0.000000
O O14 0.136608 0.568304 0.000000
#
# Coordination Sequence:
#
# PCOD9577829 Si02
#       5
#    12  12  12  12  12
#     4  10  20  35  58  88 122 164 213 266 321 387
#     4  11  22  37  63  93 122 164 220 278 337 401
#     4   9  17  31  54  86 120 153 194 249 315 385
#     4  11  23  41  64  91 129 171 219 278 342 407
#     4  12  23  39  59  87 130 180 221 262 318 386
#
# _framework density 19.831862000000001
#
# number of rings (size 3 to 8) (size 9 to 14) (size 15 to 20)
#    0.000    1.400    4.000    2.600    0.000    4.000 
#    0.000    0.000    0.000    3.600    0.000    5.600 
#    0.000    0.800    0.000    0.000    0.000    0.000 
#
# Total GULP energy -334156.176149 kJ/mol
# GULP energy per Si atom -5569.269602 kJ/mol
# Density = 1.978672 g / cm^3
# Si number density = 19.831862 Si / 1000 Ang^3
#
#
#
# Elastic Constant Matrix: (Units=GPa)
#
#
# Indices 1 2 3 4 5 6 
#
# 1 89.2640 46.7848 34.0942 0.0000 2.3405 0.0000
# 2 46.7848 89.2640 34.0942 0.0000 -2.3405 0.0000
# 3 34.0942 34.0942 122.0759 0.0000 0.0000 0.0000
# 4 0.0000 0.0000 0.0000 20.1357 0.0000 -2.3405
# 5 2.3405 -2.3405 0.0000 0.0000 20.1357 0.0000
# 6 0.0000 0.0000 0.0000 -2.3405 0.0000 21.2396
#
#
#
# Elastic Compliance Matrix: (Units=1/GPa)
#
#
# Indices 1 2 3 4 5 6 
#
# 1 0.016197 -0.007650 -0.002387 0.000000 -0.002772 0.000000
# 2 -0.007650 0.016197 -0.002387 0.000000 0.002772 0.000000
# 3 -0.002387 -0.002387 0.009525 0.000000 0.000000 0.000000
# 4 0.000000 0.000000 0.000000 0.050308 0.000000 0.005544
# 5 -0.002772 0.002772 0.000000 0.000000 0.050308 0.000000
# 6 0.000000 0.000000 0.000000 0.005544 0.000000 0.047693
#
#
# Mechanical properties :
#
#
# Convention : Reuss Voigt Hill
#
# Bulk Modulus (GPa) = 58.58104 58.95003 58.76554
# Shear Modulus (GPa) = 22.64867 24.67757 23.66312
#
# Velocity S-wave (km/s) = 3.38307 3.53135 3.45800
# Velocity P-wave (km/s) = 6.69800 6.81298 6.75573
#
# Compressibility (1/GPa) = 0.01707037
#
# Stress axis : x y z
#
# Youngs Moduli (GPa) = 61.74163 61.74163 104.98770
#
# Poissons Ratio (x) = 0.47231 0.25060
# Poissons Ratio (y) = 0.47231 0.25060
# Poissons Ratio (z) = 0.14738 0.14738
#
# Static dielectric constant tensor:
#      x y z
#    x 1.724830 0.000000 0.000000 
#    y 0.000000 1.724830 0.000000 
#    z 0.000000 0.000000 1.777590 
# 
# From -- ./inp_files/2312.got.cif
#   From: 2010.05.17/outbox.cif.g08.bks.cpg/sg162_2_cif.got.tgz:2312.got - 2010.05.20 10:53:12.
