data_PCOD9577568
_publ_section_title
;
Structure prediction by ZEFSAII (Michael W. Deem and Ramdas Pophale) SiO2 
 PCOD9577568
Probable space group: R 3 C
;
_chemical_formula_sum "Si O2"
_cell_formula_units_Z 120
_cell_length_a 16.359634
_cell_length_b 16.359634
_cell_length_c 19.301644
_cell_angle_alpha 90.000000
_cell_angle_beta 90.000000
_cell_angle_gamma 120.000000
_cell_volume 4473.753999
_symmetry_space_group_name_H-M "R 3 C"
_symmetry_group_IT_number 161
_symmetry_cell_setting 'hexagonal'
loop_
_space_group_symop_operation_xyz
x,y,z
-y,x-y,z
-x+y,-x,z
-x+y,y,1/2+z
x,x-y,1/2+z
-y,-x,1/2+z
2/3+x,1/3+y,1/3+z
2/3-y,1/3+x-y,1/3+z
2/3-x+y,1/3-x,1/3+z
2/3-x+y,1/3+y,5/6+z
2/3+x,1/3+x-y,5/6+z
2/3-y,1/3-x,5/6+z
1/3+x,2/3+y,2/3+z
1/3-y,2/3+x-y,2/3+z
1/3-x+y,2/3-x,2/3+z
1/3-x+y,2/3+y,1/6+z
1/3+x,2/3+x-y,1/6+z
1/3-y,2/3-x,1/6+z
loop_
_atom_site_type_symbol
_atom_site_label
_atom_site_fract_x
_atom_site_fract_y
_atom_site_fract_z
Si Si1 0.552736 0.889270 0.391508
Si Si2 0.527664 0.426352 0.196370
Si Si3 0.986060 0.671525 0.224700
Si Si4 0.000000 0.000000 0.026545
Si Si5 0.481384 0.641511 0.736672
Si Si6 0.807740 0.498155 0.617302
Si Si7 0.370366 0.945286 0.245801
Si Si8 0.666667 0.333334 0.026433
O O1 0.595558 0.846523 0.448296
O O2 0.509953 0.838334 0.317818
O O3 0.468354 0.883477 0.438651
O O4 0.625847 0.998404 0.372093
O O5 0.436837 0.339108 0.232703
O O6 0.628606 0.434678 0.181850
O O7 0.555976 0.523285 0.235854
O O8 0.075472 0.656799 0.212879
O O9 0.989744 0.725327 0.154183
O O10 0.998693 0.751193 0.278051
O O11 0.105529 0.019479 0.016412
O O12 0.000000 0.000000 0.111620
O O13 0.397275 0.532620 0.735627
O O14 0.760824 0.419300 0.558315
#
# Coordination Sequence:
#
# PCOD9577568 Si02
#       8
#    18  18  18   6  18  18  18   6
#     4  11  22  39  68  98 126 174 225 273 347 392
#     4  10  23  43  65 100 135 170 223 281 339 397
#     4  10  23  43  66  93 131 184 224 269 345 410
#     4  12  21  33  57  94 125 169 210 282 346 371
#     4  11  23  39  64  96 134 170 228 285 327 411
#     4  12  21  42  69  95 136 171 223 285 334 407
#     4  10  22  44  63  95 136 175 218 279 334 415
#     4  12  21  39  60 103 137 157 219 288 340 383
#
# _framework density 26.823111999999998
#
# number of rings (size 3 to 8) (size 9 to 14) (size 15 to 20)
#    0.000    1.200    4.500    0.900    2.100    0.000 
#   13.500    0.000    0.000    0.000    0.000    0.000 
#    0.000    0.000    0.000    0.000    0.000    0.000 
#
# Total GULP energy -222677.461496 kJ/mol
# GULP energy per Si atom -5566.936537 kJ/mol
# Density = 2.676206 g / cm^3
# Si number density = 26.823112 Si / 1000 Ang^3
#
#
#
# Elastic Constant Matrix: (Units=GPa)
#
#
# Indices 1 2 3 4 5 6 
#
# 1 136.9590 38.7704 2.2989 -10.5137 0.0000 0.0000
# 2 38.7704 136.9581 2.2990 10.5144 0.0000 0.0000
# 3 2.2989 2.2990 56.8643 0.0001 0.0000 0.0000
# 4 -10.5137 10.5144 0.0001 27.9583 0.0000 0.0000
# 5 0.0000 0.0000 0.0000 0.0000 27.9580 -10.5139
# 6 0.0000 0.0000 0.0000 0.0000 -10.5139 49.0942
#
#
#
# Elastic Compliance Matrix: (Units=1/GPa)
#
#
# Indices 1 2 3 4 5 6 
#
# 1 0.008387 -0.002690 -0.000230 0.004165 0.000000 0.000000
# 2 -0.002690 0.008387 -0.000230 -0.004166 0.000000 0.000000
# 3 -0.000230 -0.000230 0.017604 0.000000 0.000000 0.000000
# 4 0.004165 -0.004166 0.000000 0.038901 0.000000 0.000000
# 5 0.000000 0.000000 0.000000 0.000000 0.038901 0.008331
# 6 0.000000 0.000000 0.000000 0.000000 0.008331 0.022153
#
#
# Mechanical properties :
#
#
# Convention : Reuss Voigt Hill
#
# Bulk Modulus (GPa) = 35.61716 46.39087 41.00402
# Shear Modulus (GPa) = 33.33511 40.16298 36.74904
#
# Velocity S-wave (km/s) = 3.52913 3.87373 3.70544
# Velocity P-wave (km/s) = 5.46934 6.11068 5.79888
#
# Compressibility (1/GPa) = 0.02807635
#
# Stress axis : x y z
#
# Youngs Moduli (GPa) = 119.23833 119.23709 56.80413
#
# Poissons Ratio (x) = 0.32075 0.01308
# Poissons Ratio (y) = 0.32075 0.01308
# Poissons Ratio (z) = 0.02746 0.02746
#
# Static dielectric constant tensor:
#      x y z
#    x 2.240250 0.000000 0.000000 
#    y 0.000000 2.240260 0.000000 
#    z 0.000000 0.000000 2.188760 
# 
# From -- ./inp_files/1951.got.cif
#   From: 2010.05.17/outbox.cif.g08.bks.cpg/sg161_cif.got.tgz:1951.got - 2010.05.20 10:52:32.
