data_PCOD9577643
_publ_section_title
;
Structure prediction by ZEFSAII (Michael W. Deem and Ramdas Pophale) SiO2 
 PCOD9577643
Probable space group: P -3 1 M 
;
_chemical_formula_sum "Si O2"
_cell_formula_units_Z 84
_cell_length_a 20.772567
_cell_length_b 20.772567
_cell_length_c 18.609431
_cell_angle_alpha 90.000000
_cell_angle_beta 90.000000
_cell_angle_gamma 120.000000
_cell_volume 6954.150141
_symmetry_space_group_name_H-M "P -3 1 M "
_symmetry_group_IT_number 162
_symmetry_cell_setting 'hexagonal'
loop_
_space_group_symop_operation_xyz
x,y,z
-y,x-y,z
-x+y,-x,z
-y,-x,-z
-x+y,y,-z
x,x-y,-z
-x,-y,-z
y,-x+y,-z
x-y,x,-z
y,x,z
x-y,-y,z
-x,-x+y,z
loop_
_atom_site_type_symbol
_atom_site_label
_atom_site_fract_x
_atom_site_fract_y
_atom_site_fract_z
Si Si1 0.667800 0.487985 0.218946
Si Si2 0.487985 0.667800 0.781054
Si Si3 0.464669 0.085739 0.919185
Si Si4 0.085739 0.464669 0.080815
Si Si5 0.914856 0.535502 0.640965
Si Si6 0.464499 0.085144 0.640964
Si Si7 0.332578 0.511683 0.500000
O O1 0.593643 0.406357 0.219045
O O2 0.740260 0.480520 0.225605
O O3 0.667806 0.528089 0.144852
O O4 0.660160 0.532252 0.286319
O O5 0.528089 0.667806 0.855148
O O6 0.532252 0.660159 0.713681
O O7 0.542954 0.085908 0.919071
O O8 0.402362 0.000000 0.906087
O O9 0.454965 0.107241 1.000000
O O10 0.000000 0.402362 0.093913
O O11 0.917933 0.458967 0.640672
O O12 0.867807 0.530087 0.570745
O O13 0.000000 0.601222 0.638892
O O14 0.469913 0.132192 0.570745
O O15 0.398778 0.000000 0.638892
O O16 0.405793 0.594208 0.500000
O O17 0.258777 0.517554 0.500000
#
# Coordination Sequence:
#
# PCOD9577643 Si02
#       7
#    12  12  12  12  12  12  12
#     4  10  18  26  36  51  71  91 111 140 182 225
#     4  10  18  26  36  51  71  91 111 140 182 225
#     4   8  14  25  39  51  63  84 115 145 171 205
#     4   8  14  25  39  51  63  84 115 145 171 205
#     4   9  17  28  40  51  64  87 118 145 167 199
#     4   9  17  28  40  51  64  87 118 145 167 199
#     4  10  18  27  39  55  74  91 108 136 179 224
#
# _framework density 12.079117999999999
#
# number of rings (size 3 to 8) (size 9 to 14) (size 15 to 20)
#    0.000    2.857    0.000    3.429    0.000    5.714 
#    0.000    2.857    0.000    1.714    0.000    0.000 
#    0.000    0.000    0.000    0.000    0.000    0.000 
#
# Total GULP energy -467641.643836 kJ/mol
# GULP energy per Si atom -5567.162427 kJ/mol
# Density = 1.205163 g / cm^3
# Si number density = 12.079118 Si / 1000 Ang^3
#
#
#
# Elastic Constant Matrix: (Units=GPa)
#
#
# Indices 1 2 3 4 5 6 
#
# 1 53.6874 29.3051 46.6624 0.0000 0.0001 0.0000
# 2 29.3051 53.6874 46.6624 0.0000 -0.0001 0.0000
# 3 46.6624 46.6624 118.0641 0.0000 0.0000 0.0000
# 4 0.0000 0.0000 0.0000 9.7862 0.0000 -0.0001
# 5 0.0001 -0.0001 0.0000 0.0000 9.7862 0.0000
# 6 0.0000 0.0000 0.0000 -0.0001 0.0000 12.1911
#
#
#
# Elastic Compliance Matrix: (Units=1/GPa)
#
#
# Indices 1 2 3 4 5 6 
#
# 1 0.031351 -0.009663 -0.008572 0.000000 0.000000 0.000000
# 2 -0.009663 0.031351 -0.008572 0.000000 0.000000 0.000000
# 3 -0.008572 -0.008572 0.015246 0.000000 0.000000 0.000000
# 4 0.000000 0.000000 0.000000 0.102184 0.000000 0.000001
# 5 0.000000 0.000000 0.000000 0.000000 0.102184 0.000000
# 6 0.000000 0.000000 0.000000 0.000001 0.000000 0.082027
#
#
# Mechanical properties :
#
#
# Convention : Reuss Voigt Hill
#
# Bulk Modulus (GPa) = 41.09334 52.29986 46.69660
# Shear Modulus (GPa) = 11.73525 13.20666 12.47095
#
# Velocity S-wave (km/s) = 3.12032 3.31017 3.21664
# Velocity P-wave (km/s) = 6.86119 7.61586 7.24835
#
# Compressibility (1/GPa) = 0.02433484
#
# Stress axis : x y z
#
# Youngs Moduli (GPa) = 31.89707 31.89707 65.59248
#
# Poissons Ratio (x) = 0.30821 0.56225
# Poissons Ratio (y) = 0.30821 0.56225
# Poissons Ratio (z) = 0.27342 0.27342
#
# Static dielectric constant tensor:
#      x y z
#    x 1.368340 0.000000 0.000000 
#    y 0.000000 1.368340 0.000000 
#    z 0.000000 0.000000 1.416190 
# 
# From -- ./inp_files/3865.got.cif
#   From: 2010.05.17/outbox.cif.g08.bks.cpg/sg162_2_cif.got.tgz:3865.got - 2010.05.20 10:53:12.
