data_PCOD9577660
_publ_section_title
;
Structure prediction by ZEFSAII (Michael W. Deem and Ramdas Pophale) SiO2 
 PCOD9577660
Probable space group: P -3 1 M 
;
_chemical_formula_sum "Si O2"
_cell_formula_units_Z 42
_cell_length_a 16.815355
_cell_length_b 16.815355
_cell_length_c 11.962181
_cell_angle_alpha 90.000000
_cell_angle_beta 90.000000
_cell_angle_gamma 120.000000
_cell_volume 2929.227360
_symmetry_space_group_name_H-M "P -3 1 M "
_symmetry_group_IT_number 162
_symmetry_cell_setting 'hexagonal'
loop_
_space_group_symop_operation_xyz
x,y,z
-y,x-y,z
-x+y,-x,z
-y,-x,-z
-x+y,y,-z
x,x-y,-z
-x,-y,-z
y,-x+y,-z
x-y,x,-z
y,x,z
x-y,-y,z
-x,-x+y,z
loop_
_atom_site_type_symbol
_atom_site_label
_atom_site_fract_x
_atom_site_fract_y
_atom_site_fract_z
Si Si1 0.106160 0.713566 0.366381
Si Si2 0.109622 0.554811 0.233408
Si Si3 0.393135 0.606866 0.000000
Si Si4 0.607406 0.713566 0.366381
O O1 0.132636 0.645794 0.302756
O O2 0.181451 0.818549 0.340268
O O3 0.109227 0.700749 0.500000
O O4 0.000000 0.680622 0.338314
O O5 0.132636 0.486842 0.302757
O O6 0.000000 0.500000 0.219674
O O7 0.156262 0.578130 0.112941
O O8 0.432906 0.716453 0.000000
O O9 0.680622 0.680622 0.338314
#
# Coordination Sequence:
#
# PCOD9577660 Si02
#       4
#    12  12   6  12
#     4   9  17  29  46  66  88 113 143 181 221 261
#     4  10  18  30  45  61  84 114 148 181 217 257
#     4  10  21  30  40  56  84 116 144 178 211 254
#     4   9  17  29  46  66  88 113 143 181 221 261
#
# _framework density 14.338252000000001
#
# number of rings (size 3 to 8) (size 9 to 14) (size 15 to 20)
#    0.286    2.286    0.000    3.000    0.000    3.429 
#    1.714    0.000    0.000    0.571    0.000    4.000 
#    0.000    0.000    0.000    0.000    0.000   59.429 
#
# Total GULP energy -233832.515102 kJ/mol
# GULP energy per Si atom -5567.440836 kJ/mol
# Density = 1.430562 g / cm^3
# Si number density = 14.338252 Si / 1000 Ang^3
#
#
#
# Elastic Constant Matrix: (Units=GPa)
#
#
# Indices 1 2 3 4 5 6 
#
# 1 79.8386 56.1143 39.3165 0.0000 0.0000 0.0000
# 2 56.1143 79.8386 39.3165 0.0000 0.0000 0.0000
# 3 39.3165 39.3165 50.1511 0.0000 0.0000 0.0000
# 4 0.0000 0.0000 0.0000 20.7036 0.0000 0.0000
# 5 0.0000 0.0000 0.0000 0.0000 20.7036 0.0000
# 6 0.0000 0.0000 0.0000 0.0000 0.0000 11.8622
#
#
#
# Elastic Compliance Matrix: (Units=1/GPa)
#
#
# Indices 1 2 3 4 5 6 
#
# 1 0.027804 -0.014347 -0.010550 0.000000 0.000000 0.000000
# 2 -0.014347 0.027804 -0.010550 0.000000 0.000000 0.000000
# 3 -0.010550 -0.010550 0.036482 0.000000 0.000000 0.000000
# 4 0.000000 0.000000 0.000000 0.048301 0.000000 0.000000
# 5 0.000000 0.000000 0.000000 0.000000 0.048301 0.000000
# 6 0.000000 0.000000 0.000000 0.000000 0.000000 0.084302
#
#
# Mechanical properties :
#
#
# Convention : Reuss Voigt Hill
#
# Bulk Modulus (GPa) = 47.17884 53.25812 50.21848
# Shear Modulus (GPa) = 14.24694 15.65929 14.95312
#
# Velocity S-wave (km/s) = 3.15561 3.30833 3.23287
# Velocity P-wave (km/s) = 6.80094 7.19848 7.00253
#
# Compressibility (1/GPa) = 0.02119594
#
# Stress axis : x y z
#
# Youngs Moduli (GPa) = 35.96579 35.96579 27.41107
#
# Poissons Ratio (x) = 0.51599 0.28919
# Poissons Ratio (y) = 0.51599 0.28919
# Poissons Ratio (z) = 0.37945 0.37945
#
# Static dielectric constant tensor:
#      x y z
#    x 1.473260 0.000000 0.000000 
#    y 0.000000 1.473260 0.000000 
#    z 0.000000 0.000000 1.455030 
# 
# From -- ./inp_files/2013.got.cif
#   From: 2010.05.17/outbox.cif.g08.bks.cpg/sg162_2_cif.got.tgz:2013.got - 2010.05.20 10:53:12.
