data_PCOD9577475
_publ_section_title
;
Structure prediction by ZEFSAII (Michael W. Deem and Ramdas Pophale) SiO2 
 PCOD9577475
Probable space group: R 3 M
;
_chemical_formula_sum "Si O2"
_cell_formula_units_Z 126
_cell_length_a 17.078805
_cell_length_b 17.078805
_cell_length_c 28.812909
_cell_angle_alpha 90.000000
_cell_angle_beta 90.000000
_cell_angle_gamma 120.000000
_cell_volume 7278.346030
_symmetry_space_group_name_H-M "R 3 M"
_symmetry_group_IT_number 160
_symmetry_cell_setting 'hexagonal'
loop_
_space_group_symop_operation_xyz
x,y,z
-y,x-y,z
-x+y,-x,z
-x+y,y,z
x,x-y,z
-y,-x,z
2/3+x,1/3+y,1/3+z
2/3-y,1/3+x-y,1/3+z
2/3-x+y,1/3-x,1/3+z
2/3-x+y,1/3+y,1/3+z
2/3+x,1/3+x-y,1/3+z
2/3-y,1/3-x,1/3+z
1/3+x,2/3+y,2/3+z
1/3-y,2/3+x-y,2/3+z
1/3-x+y,2/3-x,2/3+z
1/3-x+y,2/3+y,2/3+z
1/3+x,2/3+x-y,2/3+z
1/3-y,2/3-x,2/3+z
loop_
_atom_site_type_symbol
_atom_site_label
_atom_site_fract_x
_atom_site_fract_y
_atom_site_fract_z
Si Si1 0.577056 0.601344 0.387601
Si Si2 0.332772 0.482158 0.920511
Si Si3 0.040519 0.774851 0.354119
Si Si4 0.848920 0.335629 0.784471
Si Si5 0.433845 0.047043 0.144217
Si Si6 0.332005 0.848725 0.666031
Si Si7 0.901315 0.286444 0.236578
O O1 0.473667 0.526334 0.376608
O O2 0.633381 0.689843 0.355751
O O3 0.584127 0.641232 0.439015
O O4 0.634183 0.551186 0.376777
O O5 0.250792 0.501583 0.911628
O O6 0.429733 0.570268 0.910589
O O7 0.308959 0.387541 0.896709
O O8 0.330977 0.455682 0.974685
O O9 0.137399 0.862602 0.359172
O O10 0.986276 0.774935 0.399639
O O11 0.856756 0.428378 0.800365
O O12 0.744208 0.255793 0.782070
O O13 0.901524 0.296406 0.813699
O O14 0.531955 0.063909 0.128692
O O15 0.439315 0.089220 0.194125
O O16 0.428683 0.857366 0.672909
O O17 0.254252 0.745748 0.657827
O O18 0.338075 0.906597 0.620082
O O19 0.805326 0.194675 0.234427
#
# Coordination Sequence:
#
# PCOD9577475 Si02
#       7
#    18  18  18  18  18  18  18
#     4  10  19  32  52  77 104 136 171 215 272 327
#     4  10  19  31  49  75 108 141 175 214 262 317
#     4   9  17  30  48  72 101 133 169 212 257 312
#     4   9  17  28  46  70  99 131 166 209 258 308
#     4  10  21  36  53  75 103 138 180 224 265 315
#     4  10  20  34  54  80 108 140 178 225 275 324
#     4  10  20  35  55  77 105 141 181 225 270 319
#
# _framework density 17.311626
#
# number of rings (size 3 to 8) (size 9 to 14) (size 15 to 20)
#    0.000    2.286    1.429    3.000    0.000    2.857 
#    0.000    1.429    0.000    6.000    0.000    2.000 
#    0.000    0.000    0.000    0.000    0.000    0.000 
#
# Total GULP energy -233817.737218 kJ/mol
# GULP energy per Si atom -5567.088981 kJ/mol
# Density = 1.727222 g / cm^3
# Si number density = 17.311626 Si / 1000 Ang^3
#
#
#
# Elastic Constant Matrix: (Units=GPa)
#
#
# Indices 1 2 3 4 5 6 
#
# 1 58.6549 22.2964 17.5473 0.4543 -0.0002 0.0000
# 2 22.2964 58.6549 17.5473 -0.4543 0.0002 0.0000
# 3 17.5473 17.5473 47.6766 0.0000 0.0000 0.0000
# 4 0.4543 -0.4543 0.0000 20.0768 0.0000 0.0002
# 5 -0.0002 0.0002 0.0000 0.0000 20.0768 0.4543
# 6 0.0000 0.0000 0.0000 0.0002 0.4543 18.1792
#
#
#
# Elastic Compliance Matrix: (Units=1/GPa)
#
#
# Indices 1 2 3 4 5 6 
#
# 1 0.021109 -0.006411 -0.005410 -0.000623 0.000000 0.000000
# 2 -0.006411 0.021109 -0.005410 0.000623 0.000000 0.000000
# 3 -0.005410 -0.005410 0.024957 0.000000 0.000000 0.000000
# 4 -0.000623 0.000623 0.000000 0.049837 0.000000 -0.000001
# 5 0.000000 0.000000 0.000000 0.000000 0.049837 -0.001246
# 6 0.000000 0.000000 0.000000 -0.000001 -0.001246 0.055039
#
#
# Mechanical properties :
#
#
# Convention : Reuss Voigt Hill
#
# Bulk Modulus (GPa) = 30.56741 31.08540 30.82641
# Shear Modulus (GPa) = 18.70891 18.83958 18.77425
#
# Velocity S-wave (km/s) = 3.29099 3.30246 3.29673
# Velocity P-wave (km/s) = 5.66889 5.70412 5.68653
#
# Compressibility (1/GPa) = 0.03271458
#
# Stress axis : x y z
#
# Youngs Moduli (GPa) = 47.37335 47.37335 40.06932
#
# Poissons Ratio (x) = 0.30369 0.21676
# Poissons Ratio (y) = 0.30369 0.21676
# Poissons Ratio (z) = 0.25628 0.25628
#
# Static dielectric constant tensor:
#      x y z
#    x 1.599170 0.000000 0.000000 
#    y 0.000000 1.599170 0.000000 
#    z 0.000000 0.000000 1.594380 
# 
# From -- ./inp_files/4160.got.cif
#   From: 2010.05.17/outbox.cif.g08.bks.cpg/sg160_3_cif.got.tgz:4160.got - 2010.05.20 10:51:19.
