data_PCOD9577237
_publ_section_title
;
Structure prediction by ZEFSAII (Michael W. Deem and Ramdas Pophale) SiO2 
 PCOD9577237
Probable space group: P 3 M 1
;
_chemical_formula_sum "Si O2"
_cell_formula_units_Z 48
_cell_length_a 13.001142
_cell_length_b 13.001142
_cell_length_c 20.481035
_cell_angle_alpha 90.000000
_cell_angle_beta 90.000000
_cell_angle_gamma 120.000000
_cell_volume 2998.095999
_symmetry_space_group_name_H-M "P 3 M 1"
_symmetry_group_IT_number 156
_symmetry_cell_setting 'hexagonal'
loop_
_space_group_symop_operation_xyz
x,y,z
-y,x-y,z
-x+y,-x,z
-x+y,y,z
x,x-y,z
-y,-x,z
loop_
_atom_site_type_symbol
_atom_site_label
_atom_site_fract_x
_atom_site_fract_y
_atom_site_fract_z
Si Si1 0.666232 0.574689 0.988260
Si Si2 0.425312 0.091543 0.835142
Si Si3 0.243753 0.000040 0.101735
Si Si4 0.756287 0.756248 0.721667
Si Si5 0.241357 0.241792 0.488260
Si Si6 0.422914 0.333294 0.601736
Si Si7 0.000436 0.241792 0.335143
Si Si8 0.666707 0.089620 0.221667
O O1 0.772745 0.545489 0.997626
O O2 0.541101 0.458900 0.004115
O O3 0.665891 0.603035 0.911701
O O4 0.696740 0.683792 0.035562
O O5 0.541100 0.082199 0.819288
O O6 0.454514 0.227257 0.825777
O O7 0.316209 0.012951 0.787840
O O8 0.125295 0.874706 0.107468
O O9 0.214451 0.107226 0.101955
O O10 0.333334 0.026034 0.161701
O O11 0.749411 0.874706 0.715936
O O12 0.692701 0.666667 0.661702
O O13 0.892776 0.785551 0.721447
O O14 0.212159 0.106080 0.497624
O O15 0.350458 0.320386 0.535563
O O16 0.269704 0.270482 0.411701
O O17 0.125566 0.251132 0.504114
O O18 0.452215 0.226108 0.601955
O O19 0.541373 0.458628 0.607469
O O20 0.125566 0.251131 0.319288
O O21 0.969929 0.320386 0.287839
O O22 0.893921 0.106080 0.325779
O O23 0.541373 0.082746 0.215935
O O24 0.773893 0.226108 0.221449
#
# Coordination Sequence:
#
# PCOD9577237 Si02
#       8
#     6   6   6   6   6   6   6   6
#     4   9  17  30  50  75 100 126 157 194 235 278
#     4   9  17  30  50  75 100 126 157 194 235 278
#     4  10  20  33  50  72  97 125 157 195 240 287
#     4  10  20  33  50  72  97 125 157 195 240 287
#     4   9  17  30  50  75 100 126 157 194 235 278
#     4  10  20  33  50  72  97 125 157 195 240 287
#     4   9  17  30  50  75 100 126 157 194 235 278
#     4  10  20  33  50  72  97 125 157 195 240 287
#
# _framework density 16.010162000000001
#
# number of rings (size 3 to 8) (size 9 to 14) (size 15 to 20)
#    0.000    2.500    0.000    2.500    0.000    3.000 
#    0.000    5.000    0.000   12.000    0.000    0.000 
#    0.000    0.000    0.000    0.000    0.000    0.000 
#
# Total GULP energy -267723.498442 kJ/mol
# GULP energy per Si atom -5577.572884 kJ/mol
# Density = 1.597372 g / cm^3
# Si number density = 16.010162 Si / 1000 Ang^3
#
#
#
# Elastic Constant Matrix: (Units=GPa)
#
#
# Indices 1 2 3 4 5 6 
#
# 1 123.4285 85.7747 69.9936 -0.0001 0.0002 0.0000
# 2 85.7747 123.4285 69.9936 0.0001 -0.0002 0.0000
# 3 69.9936 69.9936 75.9339 0.0000 0.0000 0.0000
# 4 -0.0001 0.0001 0.0000 21.2508 0.0000 -0.0002
# 5 0.0002 -0.0002 0.0000 0.0000 21.2508 -0.0001
# 6 0.0000 0.0000 0.0000 -0.0002 -0.0001 18.8269
#
#
#
# Elastic Compliance Matrix: (Units=1/GPa)
#
#
# Indices 1 2 3 4 5 6 
#
# 1 0.019516 -0.007042 -0.011498 0.000000 0.000000 0.000000
# 2 -0.007042 0.019516 -0.011498 0.000000 0.000000 0.000000
# 3 -0.011498 -0.011498 0.034366 0.000000 0.000000 0.000000
# 4 0.000000 0.000000 0.000000 0.047057 0.000000 0.000000
# 5 0.000000 0.000000 0.000000 0.000000 0.047057 0.000000
# 6 0.000000 0.000000 0.000000 0.000000 0.000000 0.053116
#
#
# Mechanical properties :
#
#
# Convention : Reuss Voigt Hill
#
# Bulk Modulus (GPa) = 75.06367 86.03495 80.54931
# Shear Modulus (GPa) = 17.53495 18.73428 18.13462
#
# Velocity S-wave (km/s) = 3.31303 3.42446 3.36920
# Velocity P-wave (km/s) = 7.84995 8.33608 8.09666
#
# Compressibility (1/GPa) = 0.01332202
#
# Stress axis : x y z
#
# Youngs Moduli (GPa) = 51.24044 51.24044 29.09814
#
# Poissons Ratio (x) = 0.36083 0.33457
# Poissons Ratio (y) = 0.36083 0.33457
# Poissons Ratio (z) = 0.58917 0.58917
#
# Static dielectric constant tensor:
#      x y z
#    x 1.503430 0.000000 0.000000 
#    y 0.000000 1.503430 0.000000 
#    z 0.000000 0.000000 1.554760 
# 
# From -- ./inp_files/1137.got.cif
#   From: 2010.05.17/outbox.cif.g08.bks.cpg/sg156_cif.got.tgz:1137.got - 2010.05.20 10:49:08.
