data_PCOD9577728
_publ_section_title
;
Structure prediction by ZEFSAII (Michael W. Deem and Ramdas Pophale) SiO2 
 PCOD9577728
Probable space group: P -3 1 M 
;
_chemical_formula_sum "Si O2"
_cell_formula_units_Z 90
_cell_length_a 17.666179
_cell_length_b 17.666179
_cell_length_c 18.778023
_cell_angle_alpha 90.000000
_cell_angle_beta 90.000000
_cell_angle_gamma 120.000000
_cell_volume 5075.347132
_symmetry_space_group_name_H-M "P -3 1 M "
_symmetry_group_IT_number 162
_symmetry_cell_setting 'hexagonal'
loop_
_space_group_symop_operation_xyz
x,y,z
-y,x-y,z
-x+y,-x,z
-y,-x,-z
-x+y,y,-z
x,x-y,-z
-x,-y,-z
y,-x+y,-z
x-y,x,-z
y,x,z
x-y,-y,z
-x,-x+y,z
loop_
_atom_site_type_symbol
_atom_site_label
_atom_site_fract_x
_atom_site_fract_y
_atom_site_fract_z
Si Si1 0.457224 0.815662 0.072469
Si Si2 0.503498 0.600348 0.406289
Si Si3 0.831240 0.318911 0.546932
Si Si4 0.621531 0.726277 0.282152
Si Si5 0.898119 0.101882 0.500000
Si Si6 0.730436 0.096231 0.991882
Si Si7 0.788850 0.103183 0.364560
Si Si8 0.684263 0.170872 0.860324
O O1 0.415046 0.851570 0.128861
O O2 0.468460 0.739350 0.109668
O O3 0.396660 0.793320 0.000000
O O4 0.554230 0.882312 0.045231
O O5 0.519988 0.519988 0.391607
O O6 0.400944 0.567734 0.413813
O O7 0.541254 0.638870 0.483989
O O8 0.558411 0.673145 0.348301
O O9 0.746347 0.253654 0.500000
O O10 0.860809 0.271824 0.603522
O O11 0.682979 0.682979 0.269640
O O12 0.676345 0.828270 0.303771
O O13 0.557560 0.710663 0.216023
O O14 0.850271 0.111966 0.431257
O O15 0.000000 0.144958 0.484273
O O16 0.701406 0.111131 0.914701
O O17 0.711345 0.000000 0.002308
O O18 0.829787 0.170213 0.000000
O O19 0.733078 0.000000 0.344976
#
# Coordination Sequence:
#
# PCOD9577728 Si02
#       8
#    12  12  12  12   6  12  12  12
#     4   9  18  33  56  84 114 146 185 230 282 332
#     4  10  21  37  54  75 107 146 185 234 293 349
#     4  11  19  35  56  79  99 134 189 241 288 336
#     4  11  23  39  55  78 115 156 195 229 281 352
#     4  10  19  32  54  82 108 136 182 250 319 370
#     4   9  18  33  55  84 113 146 189 236 285 331
#     4  11  21  36  57  80 108 144 189 243 300 355
#     4  10  20  34  56  84 116 155 186 224 274 334
#
# _framework density 17.732776999999999
#
# number of rings (size 3 to 8) (size 9 to 14) (size 15 to 20)
#    0.000    1.867    2.000    3.933    0.000    7.733 
#    3.200    2.667    0.000    0.400    0.000    0.000 
#    0.000    1.067    0.000    0.000    0.000    0.400 
#
# Total GULP energy -501471.652018 kJ/mol
# GULP energy per Si atom -5571.907245 kJ/mol
# Density = 1.769242 g / cm^3
# Si number density = 17.732777 Si / 1000 Ang^3
#
#
#
# Elastic Constant Matrix: (Units=GPa)
#
#
# Indices 1 2 3 4 5 6 
#
# 1 89.9466 66.8010 27.5537 0.0003 -1.6882 0.0000
# 2 66.8010 89.9466 27.5537 -0.0003 1.6882 0.0000
# 3 27.5537 27.5537 60.4436 0.0000 0.0000 0.0000
# 4 0.0003 -0.0003 0.0000 15.5823 0.0000 1.6882
# 5 -1.6882 1.6882 0.0000 0.0000 15.5823 0.0003
# 6 0.0000 0.0000 0.0000 1.6882 0.0003 11.5728
#
#
#
# Elastic Compliance Matrix: (Units=1/GPa)
#
#
# Indices 1 2 3 4 5 6 
#
# 1 0.025748 -0.018151 -0.003463 -0.000001 0.004756 0.000000
# 2 -0.018151 0.025748 -0.003463 0.000001 -0.004756 0.000000
# 3 -0.003463 -0.003463 0.019702 0.000000 0.000000 0.000000
# 4 -0.000001 0.000001 0.000000 0.065206 0.000000 -0.009512
# 5 0.004756 -0.004756 0.000000 0.000000 0.065206 -0.000002
# 6 0.000000 0.000000 0.000000 -0.009512 -0.000002 0.087797
#
#
# Mechanical properties :
#
#
# Convention : Reuss Voigt Hill
#
# Bulk Modulus (GPa) = 47.52106 53.79483 50.65794
# Shear Modulus (GPa) = 14.42688 16.44272 15.43480
#
# Velocity S-wave (km/s) = 2.85541 3.04838 2.95347
# Velocity P-wave (km/s) = 6.14229 6.54159 6.34508
#
# Compressibility (1/GPa) = 0.02104330
#
# Stress axis : x y z
#
# Youngs Moduli (GPa) = 38.83806 38.83806 50.75667
#
# Poissons Ratio (x) = 0.70494 0.17578
# Poissons Ratio (y) = 0.70494 0.17578
# Poissons Ratio (z) = 0.13451 0.13451
#
# Static dielectric constant tensor:
#      x y z
#    x 1.639620 0.000000 0.000000 
#    y 0.000000 1.639620 0.000000 
#    z 0.000000 0.000000 1.601130 
# 
# From -- ./inp_files/3664.got.cif
#   From: 2010.05.17/outbox.cif.g08.bks.cpg/sg162_2_cif.got.tgz:3664.got - 2010.05.20 10:53:12.
