data_PCOD9577583
_publ_section_title
;
Structure prediction by ZEFSAII (Michael W. Deem and Ramdas Pophale) SiO2 
 PCOD9577583
Probable space group: R 3 C
;
_chemical_formula_sum "Si O2"
_cell_formula_units_Z 84
_cell_length_a 15.944424
_cell_length_b 15.944424
_cell_length_c 15.524542
_cell_angle_alpha 90.000000
_cell_angle_beta 90.000000
_cell_angle_gamma 120.000000
_cell_volume 3417.960960
_symmetry_space_group_name_H-M "R 3 C"
_symmetry_group_IT_number 161
_symmetry_cell_setting 'hexagonal'
loop_
_space_group_symop_operation_xyz
x,y,z
-y,x-y,z
-x+y,-x,z
-x+y,y,1/2+z
x,x-y,1/2+z
-y,-x,1/2+z
2/3+x,1/3+y,1/3+z
2/3-y,1/3+x-y,1/3+z
2/3-x+y,1/3-x,1/3+z
2/3-x+y,1/3+y,5/6+z
2/3+x,1/3+x-y,5/6+z
2/3-y,1/3-x,5/6+z
1/3+x,2/3+y,2/3+z
1/3-y,2/3+x-y,2/3+z
1/3-x+y,2/3-x,2/3+z
1/3-x+y,2/3+y,1/6+z
1/3+x,2/3+x-y,1/6+z
1/3-y,2/3-x,1/6+z
loop_
_atom_site_type_symbol
_atom_site_label
_atom_site_fract_x
_atom_site_fract_y
_atom_site_fract_z
Si Si1 0.980796 0.173995 0.187705
Si Si2 0.217389 0.878496 0.296219
Si Si3 0.367607 0.080909 0.350864
Si Si4 0.891234 0.781077 0.451830
Si Si5 0.000000 0.000000 0.919213
Si Si6 0.000000 0.000000 0.213940
O O1 0.027149 0.233347 0.101814
O O2 0.956392 0.064961 0.181727
O O3 0.212598 0.372562 0.358708
O O4 0.921462 0.028672 0.949094
O O5 0.234893 0.833341 0.208492
O O6 0.312312 0.963404 0.342391
O O7 0.168844 0.939516 0.261189
O O8 0.282101 0.103915 0.373671
O O9 0.453638 0.111542 0.281634
O O10 0.000000 0.000000 0.816267
#
# Coordination Sequence:
#
# PCOD9577583 Si02
#       6
#    18  18  18  18   6   6
#     4  10  25  44  74 105 146 197 252 307 393 460
#     4  10  23  45  71 107 146 196 248 317 385 462
#     4  10  23  44  71 107 146 198 252 310 386 462
#     4  10  25  44  75 111 152 201 256 321 394 477
#     4  12  27  49  71 118 153 196 269 322 405 456
#     4  12  27  46  74 100 159 190 257 325 387 453
#
# _framework density 24.576056000000001
#
# number of rings (size 3 to 8) (size 9 to 14) (size 15 to 20)
#    0.000    1.714    0.000    1.286   12.000    8.571 
#    7.714    0.000    0.000    0.000    0.000    0.000 
#    0.000    0.000    0.000    0.000    0.000    0.000 
#
# Total GULP energy -156167.420616 kJ/mol
# GULP energy per Si atom -5577.407879 kJ/mol
# Density = 2.452012 g / cm^3
# Si number density = 24.576056 Si / 1000 Ang^3
#
#
#
# Elastic Constant Matrix: (Units=GPa)
#
#
# Indices 1 2 3 4 5 6 
#
# 1 125.7923 25.3455 30.3095 1.6841 0.0000 0.0000
# 2 25.3455 125.7923 30.3095 -1.6841 0.0000 0.0000
# 3 30.3095 30.3095 92.6501 0.0000 0.0000 0.0000
# 4 1.6841 -1.6841 0.0000 40.9226 0.0000 0.0000
# 5 0.0000 0.0000 0.0000 0.0000 40.9226 1.6841
# 6 0.0000 0.0000 0.0000 0.0000 1.6841 50.2234
#
#
#
# Elastic Compliance Matrix: (Units=1/GPa)
#
#
# Indices 1 2 3 4 5 6 
#
# 1 0.008793 -0.001177 -0.002491 -0.000410 0.000000 0.000000
# 2 -0.001177 0.008793 -0.002491 0.000410 0.000000 0.000000
# 3 -0.002491 -0.002491 0.012423 0.000000 0.000000 0.000000
# 4 -0.000410 0.000410 0.000000 0.024470 0.000000 0.000000
# 5 0.000000 0.000000 0.000000 0.000000 0.024470 -0.000821
# 6 0.000000 0.000000 0.000000 0.000000 -0.000821 0.019939
#
#
# Mechanical properties :
#
#
# Convention : Reuss Voigt Hill
#
# Bulk Modulus (GPa) = 56.53161 57.35153 56.94157
# Shear Modulus (GPa) = 42.69755 43.63175 43.16465
#
# Velocity S-wave (km/s) = 4.17269 4.21809 4.19545
# Velocity P-wave (km/s) = 6.80204 6.86368 6.83293
#
# Compressibility (1/GPa) = 0.01768922
#
# Stress axis : x y z
#
# Youngs Moduli (GPa) = 113.73321 113.73321 80.49346
#
# Poissons Ratio (x) = 0.13384 0.20054
# Poissons Ratio (y) = 0.13384 0.20054
# Poissons Ratio (z) = 0.28336 0.28336
#
# Static dielectric constant tensor:
#      x y z
#    x 1.919390 0.000000 0.000000 
#    y 0.000000 1.919390 0.000000 
#    z 0.000000 0.000000 2.010020 
# 
# From -- ./inp_files/890.got.cif
#   From: 2010.05.17/outbox.cif.g08.bks.cpg/sg161_cif.got.tgz:890.got - 2010.05.20 10:52:32.
