data_PCOD9577341
_publ_section_title
;
Structure prediction by ZEFSAII (Michael W. Deem and Ramdas Pophale) SiO2 
 PCOD9577341
Probable space group: P 3 C 1
;
_chemical_formula_sum "Si O2"
_cell_formula_units_Z 36
_cell_length_a 8.497429
_cell_length_b 8.497429
_cell_length_c 27.147917
_cell_angle_alpha 90.000000
_cell_angle_beta 90.000000
_cell_angle_gamma 120.000000
_cell_volume 1697.626842
_symmetry_space_group_name_H-M "P 3 C 1"
_symmetry_group_IT_number 158
_symmetry_cell_setting 'hexagonal'
loop_
_space_group_symop_operation_xyz
x,y,z
-y,x-y,z
-x+y,-x,z
-x+y,y,1/2+z
x,x-y,1/2+z
-y,-x,1/2+z
loop_
_atom_site_type_symbol
_atom_site_label
_atom_site_fract_x
_atom_site_fract_y
_atom_site_fract_z
Si Si1 0.323581 0.025913 0.659450
Si Si2 0.426228 0.198007 0.558194
Si Si3 0.017278 0.360151 0.197977
Si Si4 0.014533 0.363098 0.310313
Si Si5 0.766395 0.192545 0.450873
Si Si6 0.320493 0.297860 0.349221
O O1 0.308939 0.099697 0.605764
O O2 0.289131 0.150086 0.697318
O O3 0.186771 0.815827 0.669389
O O4 0.523072 0.056923 0.670380
O O5 0.582509 0.139353 0.559957
O O6 0.336493 0.171682 0.504553
O O7 0.063881 0.424770 0.254034
O O8 0.136848 0.282045 0.330023
O O9 0.808932 0.199625 0.315001
O O10 0.037542 0.528497 0.343647
O O11 0.859352 0.412547 0.448355
O O12 0.784226 0.092676 0.403595
#
# Coordination Sequence:
#
# PCOD9577341 Si02
#       6
#     6   6   6   6   6   6
#     4  12  23  42  63  94 130 176 220 274 332 391
#     4   8  15  35  68  94 120 160 203 263 329 389
#     4  12  24  39  61  91 130 174 224 270 327 394
#     4  12  24  39  61  91 130 174 224 270 327 394
#     4   8  15  35  68  94 120 160 203 263 329 389
#     4  12  23  42  63  94 130 176 220 274 332 391
#
# _framework density 21.206074999999998
#
# number of rings (size 3 to 8) (size 9 to 14) (size 15 to 20)
#    0.667    0.667    3.333    5.000    0.000    0.000 
#    0.000    1.667    0.000    0.000    0.000    0.000 
#    0.000    0.000    0.000    0.000    0.000    0.000 
#
# Total GULP energy -200643.193569 kJ/mol
# GULP energy per Si atom -5573.422044 kJ/mol
# Density = 2.115781 g / cm^3
# Si number density = 21.206075 Si / 1000 Ang^3
#
#
#
# Elastic Constant Matrix: (Units=GPa)
#
#
# Indices 1 2 3 4 5 6 
#
# 1 50.6956 -5.8307 12.7396 0.8436 0.0000 0.0000
# 2 -5.8307 50.6956 12.7396 -0.8436 0.0000 0.0000
# 3 12.7396 12.7396 186.3138 0.0000 0.0000 0.0000
# 4 0.8436 -0.8436 0.0000 22.0336 0.0000 0.0000
# 5 0.0000 0.0000 0.0000 0.0000 22.0336 0.8436
# 6 0.0000 0.0000 0.0000 0.0000 0.8436 28.2631
#
#
#
# Elastic Compliance Matrix: (Units=1/GPa)
#
#
# Indices 1 2 3 4 5 6 
#
# 1 0.020450 0.002739 -0.001586 -0.000678 0.000000 0.000000
# 2 0.002739 0.020450 -0.001586 0.000678 0.000000 0.000000
# 3 -0.001586 -0.001586 0.005584 0.000000 0.000000 0.000000
# 4 -0.000678 0.000678 0.000000 0.045437 0.000000 0.000000
# 5 0.000000 0.000000 0.000000 0.000000 0.045437 -0.001356
# 6 0.000000 0.000000 0.000000 0.000000 -0.001356 0.035422
#
#
# Mechanical properties :
#
#
# Convention : Reuss Voigt Hill
#
# Bulk Modulus (GPa) = 21.91977 36.33353 29.12665
# Shear Modulus (GPa) = 26.47572 32.33652 29.40612
#
# Velocity S-wave (km/s) = 3.53724 3.90920 3.72786
# Velocity P-wave (km/s) = 5.20017 6.12752 5.68279
#
# Compressibility (1/GPa) = 0.04562091
#
# Stress axis : x y z
#
# Youngs Moduli (GPa) = 48.89881 48.89881 179.07888
#
# Poissons Ratio (x) = -0.13395 0.28395
# Poissons Ratio (y) = -0.13395 0.28395
# Poissons Ratio (z) = 0.07754 0.07754
#
# Static dielectric constant tensor:
#      x y z
#    x 1.781880 0.000000 0.000000 
#    y 0.000000 1.781880 0.000000 
#    z 0.000000 0.000000 1.814640 
# 
# From -- ./inp_files/767.got.cif
#   From: 2010.05.17/outbox.cif.g08.bks.cpg/sg158_cif.got.tgz:767.got - 2010.05.20 10:49:59.
