data_PCOD9577474
_publ_section_title
;
Structure prediction by ZEFSAII (Michael W. Deem and Ramdas Pophale) SiO2 
 PCOD9577474
Probable space group: R 3 M
;
_chemical_formula_sum "Si O2"
_cell_formula_units_Z 144
_cell_length_a 20.590008
_cell_length_b 20.590008
_cell_length_c 22.093526
_cell_angle_alpha 90.000000
_cell_angle_beta 90.000000
_cell_angle_gamma 120.000000
_cell_volume 8111.640497
_symmetry_space_group_name_H-M "R 3 M"
_symmetry_group_IT_number 160
_symmetry_cell_setting 'hexagonal'
loop_
_space_group_symop_operation_xyz
x,y,z
-y,x-y,z
-x+y,-x,z
-x+y,y,z
x,x-y,z
-y,-x,z
2/3+x,1/3+y,1/3+z
2/3-y,1/3+x-y,1/3+z
2/3-x+y,1/3-x,1/3+z
2/3-x+y,1/3+y,1/3+z
2/3+x,1/3+x-y,1/3+z
2/3-y,1/3-x,1/3+z
1/3+x,2/3+y,2/3+z
1/3-y,2/3+x-y,2/3+z
1/3-x+y,2/3-x,2/3+z
1/3-x+y,2/3+y,2/3+z
1/3+x,2/3+x-y,2/3+z
1/3-y,2/3-x,2/3+z
loop_
_atom_site_type_symbol
_atom_site_label
_atom_site_fract_x
_atom_site_fract_y
_atom_site_fract_z
Si Si1 0.547809 0.945022 0.895813
Si Si2 0.729903 0.938416 0.735595
Si Si3 0.225484 0.186608 0.115982
Si Si4 0.145682 0.001884 0.320118
Si Si5 0.324139 0.236728 0.806028
Si Si6 0.710826 0.054836 0.938287
Si Si7 0.399207 0.128875 0.346078
Si Si8 0.916811 0.529915 0.762891
O O1 0.480843 0.961686 0.885414
O O2 0.553369 0.899677 0.838651
O O3 0.523435 0.887385 0.951172
O O4 0.625901 0.016141 0.913788
O O5 0.761721 0.880861 0.744635
O O6 0.645488 0.894521 0.762146
O O7 0.719991 0.946458 0.663130
O O8 0.764932 0.018261 0.771106
O O9 0.201032 0.100516 0.128957
O O10 0.184763 0.199505 0.058879
O O11 0.058782 0.941219 0.317163
O O12 0.161345 0.080673 0.293766
O O13 0.176796 0.016960 0.387646
O O14 0.331858 0.165929 0.785360
O O15 0.321772 0.236819 0.879265
O O16 0.398984 0.316544 0.792772
O O17 0.724032 0.989861 0.965328
O O18 0.405816 0.202908 0.317621
O O19 0.323876 0.090565 0.386930
O O20 0.917166 0.458583 0.794467
#
# Coordination Sequence:
#
# PCOD9577474 Si02
#       8
#    18  18  18  18  18  18  18  18
#     4  11  20  31  52  81 116 151 188 228 280 347
#     4  10  21  39  59  82 114 153 196 247 308 364
#     4  10  19  33  53  77 111 148 187 229 280 347
#     4  10  19  30  46  71 107 150 189 224 264 324
#     4  12  23  38  60  89 121 154 201 257 307 362
#     4  11  21  36  53  87 115 153 193 247 304 352
#     4  10  19  34  56  80 108 143 187 233 285 351
#     4  10  19  35  55  79 113 150 187 229 285 349
#
# _framework density 17.752265999999999
#
# number of rings (size 3 to 8) (size 9 to 14) (size 15 to 20)
#    0.000    1.500    5.000    1.625    0.000    4.500 
#    0.000    0.000    0.000    3.250    0.000    0.875 
#    0.000    0.000    0.000    0.000    0.000    0.000 
#
# Total GULP energy -267423.415592 kJ/mol
# GULP energy per Si atom -5571.321158 kJ/mol
# Density = 1.771186 g / cm^3
# Si number density = 17.752266 Si / 1000 Ang^3
#
#
#
# Elastic Constant Matrix: (Units=GPa)
#
#
# Indices 1 2 3 4 5 6 
#
# 1 53.8652 68.4820 28.5430 1.5404 0.0006 0.0000
# 2 68.4820 53.8651 28.5429 -1.5404 -0.0006 -0.0001
# 3 28.5430 28.5429 69.5117 0.0000 0.0000 -0.0001
# 4 1.5404 -1.5404 0.0000 14.3451 0.0000 -0.0006
# 5 0.0006 -0.0006 0.0000 0.0000 14.3451 1.5404
# 6 0.0000 -0.0001 -0.0001 -0.0006 1.5404 -7.3085
#
#
#
# Elastic Compliance Matrix: (Units=1/GPa)
#
#
# Indices 1 2 3 4 5 6 
#
# 1 -0.028395 0.038505 -0.004152 0.007184 0.000003 0.000000
# 2 0.038505 -0.028395 -0.004152 -0.007184 -0.000003 0.000000
# 3 -0.004152 -0.004152 0.017796 0.000000 0.000000 0.000000
# 4 0.007184 -0.007184 0.000000 0.068167 0.000000 -0.000006
# 5 0.000003 -0.000003 0.000000 0.000000 0.068168 0.014367
# 6 0.000000 0.000000 0.000000 -0.000006 0.014367 -0.133799
#
#
# Mechanical properties :
#
#
# Convention : Reuss Voigt Hill
#
# Bulk Modulus (GPa) = 46.70665 47.59754 47.15209
# Shear Modulus (GPa) = -55.72566 7.72127 -24.00219
#
# Velocity S-wave (km/s) = -5.60882 2.08780 -3.68103
# Velocity P-wave (km/s) = 3.94687 5.71683 2.92441
#
# Compressibility (1/GPa) = 0.02141023
#
# Stress axis : x y z
#
# Youngs Moduli (GPa) = -35.21790 -35.21792 56.19387
#
# Poissons Ratio (x) = 1.35607 0.23329
# Poissons Ratio (y) = 1.35607 0.23330
# Poissons Ratio (z) = -0.14621 -0.14621
#
# Static dielectric constant tensor:
#      x y z
#    x 1.622190 0.000000 0.000000 
#    y 0.000000 1.622190 0.000000 
#    z 0.000000 0.000000 1.645000 
# 
# From -- ./inp_files/3445.got.cif
#   From: 2010.05.17/outbox.cif.g08.bks.cpg/sg160_2_cif.got.tgz:3445.got - 2010.05.20 10:51:19.
