data_PCOD9577098
_publ_section_title
;
Structure prediction by ZEFSAII (Michael W. Deem and Ramdas Pophale) SiO2 
 PCOD9577098
Probable space group: R 3 2
;
_chemical_formula_sum "Si O2"
_cell_formula_units_Z 90
_cell_length_a 17.054405
_cell_length_b 17.054405
_cell_length_c 14.834782
_cell_angle_alpha 90.000000
_cell_angle_beta 90.000000
_cell_angle_gamma 120.000000
_cell_volume 3736.671716
_symmetry_space_group_name_H-M "R 3 2"
_symmetry_group_IT_number 155
_symmetry_cell_setting 'hexagonal'
loop_
_space_group_symop_operation_xyz
x,y,z
-y,x-y,z
-x+y,-x,z
x-y,-y,-z
-x,-x+y,-z
y,x,-z
2/3+x,1/3+y,1/3+z
2/3-y,1/3+x-y,1/3+z
2/3-x+y,1/3-x,1/3+z
2/3+x-y,1/3-y,1/3-z
2/3-x,1/3-x+y,1/3-z
2/3+y,1/3+x,1/3-z
1/3+x,2/3+y,2/3+z
1/3-y,2/3+x-y,2/3+z
1/3-x+y,2/3-x,2/3+z
1/3+x-y,2/3-y,2/3-z
1/3-x,2/3-x+y,2/3-z
1/3+y,2/3+x,2/3-z
loop_
_atom_site_type_symbol
_atom_site_label
_atom_site_fract_x
_atom_site_fract_y
_atom_site_fract_z
Si Si1 0.504413 0.257545 0.016723
Si Si2 0.540121 0.206787 0.333334
Si Si3 0.913536 0.075789 0.816612
Si Si4 0.340286 0.107775 0.764813
Si Si5 0.673619 0.774442 0.931480
Si Si6 0.333334 0.793213 0.166667
O O1 0.507132 0.333334 0.083334
O O2 0.553657 0.220324 0.083334
O O3 0.402276 0.175956 0.005176
O O4 0.550619 0.273425 0.917479
O O5 0.606758 0.217286 0.249188
O O6 0.442370 0.176776 0.290135
O O7 0.892988 0.157379 0.828158
O O8 0.333334 0.140973 0.666667
O O9 0.442370 0.176776 0.790135
O O10 0.307987 1.000000 0.750000
O O11 0.666667 0.807640 0.833334
#
# Coordination Sequence:
#
# PCOD9577098 Si02
#       6
#    18   9  18  18  18   9
#     4  11  24  39  59  94 138 170 222 271 327 403
#     4  12  20  38  72  96 128 178 214 280 340 374
#     4  11  24  39  59  94 138 170 222 271 327 403
#     4  11  18  35  65 100 127 156 216 280 328 378
#     4  11  18  35  65 100 127 156 216 280 328 378
#     4  12  20  38  72  96 128 178 214 280 340 374
#
# _framework density 24.085605999999999
#
# number of rings (size 3 to 8) (size 9 to 14) (size 15 to 20)
#    0.000    0.800   10.000    1.600    0.000    1.600 
#    0.000    0.000    0.000    4.800    0.000    0.000 
#    0.000    0.000    0.000    0.000    0.000    0.000 
#
# Total GULP energy -167074.574344 kJ/mol
# GULP energy per Si atom -5569.152478 kJ/mol
# Density = 2.403079 g / cm^3
# Si number density = 24.085606 Si / 1000 Ang^3
#
#
#
# Elastic Constant Matrix: (Units=GPa)
#
#
# Indices 1 2 3 4 5 6 
#
# 1 60.1737 21.5145 17.1026 -9.6656 0.0000 0.0000
# 2 21.5145 60.1737 17.1026 9.6656 0.0000 0.0000
# 3 17.1026 17.1026 198.5604 0.0000 0.0000 0.0000
# 4 -9.6656 9.6656 0.0000 24.4686 0.0000 0.0000
# 5 0.0000 0.0000 0.0000 0.0000 24.4686 -9.6656
# 6 0.0000 0.0000 0.0000 0.0000 -9.6656 19.3296
#
#
#
# Elastic Compliance Matrix: (Units=1/GPa)
#
#
# Indices 1 2 3 4 5 6 
#
# 1 0.022467 -0.009767 -0.001094 0.012733 0.000000 0.000000
# 2 -0.009767 0.022467 -0.001094 -0.012733 0.000000 0.000000
# 3 -0.001094 -0.001094 0.005225 0.000000 0.000000 0.000000
# 4 0.012733 -0.012733 0.000000 0.050928 0.000000 0.000000
# 5 0.000000 0.000000 0.000000 0.000000 0.050928 0.025466
# 6 0.000000 0.000000 0.000000 0.000000 0.025466 0.064468
#
#
# Mechanical properties :
#
#
# Convention : Reuss Voigt Hill
#
# Bulk Modulus (GPa) = 38.09721 47.81635 42.95678
# Shear Modulus (GPa) = 20.06880 31.19923 25.63401
#
# Velocity S-wave (km/s) = 2.88970 3.60300 3.26588
# Velocity P-wave (km/s) = 5.19476 6.09955 5.66525
#
# Compressibility (1/GPa) = 0.02624864
#
# Stress axis : x y z
#
# Youngs Moduli (GPa) = 44.50984 44.50984 191.39906
#
# Poissons Ratio (x) = 0.43474 0.20936
# Poissons Ratio (y) = 0.43474 0.20936
# Poissons Ratio (z) = 0.04869 0.04869
#
# Static dielectric constant tensor:
#      x y z
#    x 2.041520 0.000000 0.000000 
#    y 0.000000 2.041520 0.000000 
#    z 0.000000 0.000000 2.049570 
# 
# From -- ./inp_files/5100.got.cif
#   From: 2010.05.17/outbox.cif.g08.bks.cpg/sg155_3_cif.got.tgz:5100.got - 2010.05.20 10:44:35.
