data_PCOD9577230
_publ_section_title
;
Structure prediction by ZEFSAII (Michael W. Deem and Ramdas Pophale) SiO2 
 PCOD9577230
Probable space group: P 3 M 1
;
_chemical_formula_sum "Si O2"
_cell_formula_units_Z 48
_cell_length_a 12.761631
_cell_length_b 12.761631
_cell_length_c 20.853836
_cell_angle_alpha 90.000000
_cell_angle_beta 90.000000
_cell_angle_gamma 120.000000
_cell_volume 2941.229758
_symmetry_space_group_name_H-M "P 3 M 1"
_symmetry_group_IT_number 156
_symmetry_cell_setting 'hexagonal'
loop_
_space_group_symop_operation_xyz
x,y,z
-y,x-y,z
-x+y,-x,z
-x+y,y,z
x,x-y,z
-y,-x,z
loop_
_atom_site_type_symbol
_atom_site_label
_atom_site_fract_x
_atom_site_fract_y
_atom_site_fract_z
Si Si1 0.582238 0.915182 0.485230
Si Si2 0.249143 0.249429 0.607771
Si Si3 0.418232 0.084912 0.218754
Si Si4 0.751085 0.750850 0.854094
Si Si5 0.915075 0.333109 0.977888
Si Si6 0.332751 0.417393 0.730482
Si Si7 0.419315 0.085795 0.365871
Si Si8 0.085330 0.666875 0.100736
O O1 0.456898 0.913795 0.496056
O O2 0.559828 0.779914 0.482848
O O3 0.674719 0.982658 0.543218
O O4 0.638416 0.984708 0.418741
O O5 0.110275 0.220549 0.609643
O O6 0.314836 0.335110 0.668508
O O7 0.254952 0.127476 0.609933
O O8 0.555738 0.111476 0.211728
O O9 0.414717 0.207359 0.207990
O O10 0.380825 0.045213 0.292396
O O11 0.341057 0.984639 0.166332
O O12 0.880769 0.761537 0.842428
O O13 0.694369 0.669819 0.917305
O O14 0.662813 0.688848 0.793820
O O15 0.765637 0.882819 0.862504
O O16 0.906979 0.453490 0.966706
O O17 0.782442 0.217559 0.986967
O O18 0.995541 0.355709 0.041103
O O19 0.224126 0.448251 0.728347
O O20 0.461406 0.538595 0.730829
O O21 0.558494 0.116987 0.370861
O O22 0.411110 0.205555 0.377293
O O23 0.113842 0.556921 0.102392
O O24 0.206460 0.793541 0.093571
#
# Coordination Sequence:
#
# PCOD9577230 Si02
#       8
#     6   6   6   6   6   6   6   6
#     4  10  20  33  50  72  99 131 165 201 241 287
#     4  10  20  34  53  75  99 128 163 204 247 292
#     4   9  17  30  50  74  98 125 159 201 246 291
#     4  10  20  34  53  76 103 135 169 204 241 285
#     4  10  20  34  53  76 101 129 162 202 247 293
#     4  10  20  34  53  76 102 132 166 204 245 289
#     4   9  17  30  49  73  99 127 160 199 244 291
#     4  10  20  33  49  70  97 129 164 201 243 290
#
# _framework density 16.319704000000002
#
# number of rings (size 3 to 8) (size 9 to 14) (size 15 to 20)
#    0.000    2.250    0.000    3.250    0.000    1.500 
#    0.000    3.750    0.000   14.500    0.000    0.000 
#    0.000    0.000    0.000    0.000    0.000    0.000 
#
# Total GULP energy -267833.764441 kJ/mol
# GULP energy per Si atom -5579.870093 kJ/mol
# Density = 1.628256 g / cm^3
# Si number density = 16.319704 Si / 1000 Ang^3
#
#
#
# Elastic Constant Matrix: (Units=GPa)
#
#
# Indices 1 2 3 4 5 6 
#
# 1 124.3855 85.9831 82.8200 -2.7264 -0.0003 0.0000
# 2 85.9831 124.3855 82.8200 2.7264 0.0003 0.0000
# 3 82.8200 82.8200 123.2116 0.0000 0.0000 0.0000
# 4 -2.7264 2.7264 0.0000 23.7090 0.0000 0.0003
# 5 -0.0003 0.0003 0.0000 0.0000 23.7090 -2.7264
# 6 0.0000 0.0000 0.0000 0.0003 -2.7264 19.2012
#
#
#
# Elastic Compliance Matrix: (Units=1/GPa)
#
#
# Indices 1 2 3 4 5 6 
#
# 1 0.018285 -0.008187 -0.006788 0.003044 0.000000 0.000000
# 2 -0.008187 0.018285 -0.006788 -0.003044 0.000000 0.000000
# 3 -0.006788 -0.006788 0.017241 0.000000 0.000000 0.000000
# 4 0.003044 -0.003044 0.000000 0.042878 0.000000 -0.000001
# 5 0.000000 0.000000 0.000000 0.000000 0.042878 0.006088
# 6 0.000000 0.000000 0.000000 -0.000001 0.006088 0.052945
#
#
# Mechanical properties :
#
#
# Convention : Reuss Voigt Hill
#
# Bulk Modulus (GPa) = 97.21436 97.24766 97.23101
# Shear Modulus (GPa) = 20.87977 21.34781 21.11379
#
# Velocity S-wave (km/s) = 3.58078 3.62069 3.60079
# Velocity P-wave (km/s) = 8.76322 8.78622 8.77473
#
# Compressibility (1/GPa) = 0.01028655
#
# Stress axis : x y z
#
# Youngs Moduli (GPa) = 54.68914 54.68914 58.00070
#
# Poissons Ratio (x) = 0.44775 0.39369
# Poissons Ratio (y) = 0.44775 0.39369
# Poissons Ratio (z) = 0.37121 0.37121
#
# Static dielectric constant tensor:
#      x y z
#    x 1.515120 0.000000 0.000000 
#    y 0.000000 1.515120 0.000000 
#    z 0.000000 0.000000 1.542320 
# 
# From -- ./inp_files/1095.got.cif
#   From: 2010.05.17/outbox.cif.g08.bks.cpg/sg156_cif.got.tgz:1095.got - 2010.05.20 10:49:08.
