data_PCOD9577979
_publ_section_title
;
Structure prediction by ZEFSAII (Michael W. Deem and Ramdas Pophale) SiO2 
 PCOD9577979
Probable space group: P -3 1 C
;
_chemical_formula_sum "Si O2"
_cell_formula_units_Z 64
_cell_length_a 16.361540
_cell_length_b 16.361540
_cell_length_c 17.334525
_cell_angle_alpha 90.000000
_cell_angle_beta 90.000000
_cell_angle_gamma 120.000000
_cell_volume 4018.749481
_symmetry_space_group_name_H-M "P -3 1 C"
_symmetry_group_IT_number 163
_symmetry_cell_setting 'hexagonal'
loop_
_space_group_symop_operation_xyz
x,y,z
-y,x-y,z
-x+y,-x,z
-y,-x,1/2-z
-x+y,y,1/2-z
x,x-y,1/2-z
-x,-y,-z
y,-x+y,-z
x-y,x,-z
y,x,1/2+z
x-y,-y,1/2+z
-x,-x+y,1/2+z
loop_
_atom_site_type_symbol
_atom_site_label
_atom_site_fract_x
_atom_site_fract_y
_atom_site_fract_z
Si Si1 0.310421 0.837507 0.431086
Si Si2 0.754706 0.210544 0.392301
Si Si3 0.051624 0.475627 0.672533
Si Si4 0.582472 0.636593 0.927827
Si Si5 0.666667 0.333334 0.158261
Si Si6 0.514270 0.865756 0.402397
O O1 0.279967 0.821886 0.520657
O O2 0.403714 0.829353 0.417379
O O3 0.221307 0.752513 0.388781
O O4 0.341503 0.945540 0.412069
O O5 0.686692 0.123408 0.338211
O O6 0.867849 0.265355 0.389567
O O7 0.728863 0.290584 0.372137
O O8 0.069544 0.534772 0.750000
O O9 0.065886 0.550075 0.604698
O O10 0.943903 0.393222 0.664323
O O11 0.567033 0.646403 0.018651
O O12 0.666668 0.333334 0.250000
#
# Coordination Sequence:
#
# PCOD9577979 Si02
#       6
#    12  12  12  12   4  12
#     4  10  17  31  48  66  87 121 169 207 234 279
#     4  11  18  29  45  66  96 124 157 194 243 289
#     4  11  20  31  45  70 100 127 155 198 247 298
#     4  10  19  30  46  66  93 122 163 200 235 292
#     4  12  21  27  39  69  99 132 151 179 247 318
#     4  10  18  32  48  66  90 125 168 201 239 285
#
# _framework density 15.925350999999999
#
# number of rings (size 3 to 8) (size 9 to 14) (size 15 to 20)
#    0.000    1.500    5.625    3.188    0.000    0.000 
#    0.000    3.750    0.000    0.000    0.000    0.000 
#    1.875    3.375    0.000    0.000    5.250    3.000 
#
# Total GULP energy -356900.065117 kJ/mol
# GULP energy per Si atom -5576.563517 kJ/mol
# Density = 1.588910 g / cm^3
# Si number density = 15.925351 Si / 1000 Ang^3
#
#
#
# Elastic Constant Matrix: (Units=GPa)
#
#
# Indices 1 2 3 4 5 6 
#
# 1 114.9908 52.6482 12.3009 -0.0001 -8.8514 0.0001
# 2 52.6482 114.9909 12.3010 0.0001 8.8513 0.0000
# 3 12.3009 12.3010 19.7006 -0.0001 -0.0001 0.0001
# 4 -0.0001 0.0001 -0.0001 11.7855 0.0000 8.8514
# 5 -8.8514 8.8513 -0.0001 0.0000 11.7854 0.0000
# 6 0.0001 0.0000 0.0001 8.8514 0.0000 31.1713
#
#
#
# Elastic Compliance Matrix: (Units=1/GPa)
#
#
# Indices 1 2 3 4 5 6 
#
# 1 0.013478 -0.006911 -0.004100 0.000000 0.015313 0.000000
# 2 -0.006911 0.013478 -0.004101 0.000000 -0.015313 0.000000
# 3 -0.004100 -0.004101 0.055881 0.000001 0.000001 0.000000
# 4 0.000000 0.000000 0.000001 0.107851 0.000000 -0.030625
# 5 0.015313 -0.015313 0.000001 0.000000 0.107851 0.000000
# 6 0.000000 0.000000 0.000000 -0.030625 0.000000 0.040777
#
#
# Mechanical properties :
#
#
# Convention : Reuss Voigt Hill
#
# Bulk Modulus (GPa) = 19.00674 44.90916 31.95795
# Shear Modulus (GPa) = 12.91736 22.44391 17.68064
#
# Velocity S-wave (km/s) = 2.85111 3.75816 3.33561
# Velocity P-wave (km/s) = 4.77485 6.86241 5.91151
#
# Compressibility (1/GPa) = 0.05261290
#
# Stress axis : x y z
#
# Youngs Moduli (GPa) = 74.19655 74.19650 17.89532
#
# Poissons Ratio (x) = 0.51275 0.07338
# Poissons Ratio (y) = 0.51276 0.07338
# Poissons Ratio (z) = 0.30423 0.30424
#
# Static dielectric constant tensor:
#      x y z
#    x 1.549310 0.000000 0.000000 
#    y 0.000000 1.549310 0.000000 
#    z 0.000000 0.000000 1.520430 
# 
# From -- ./inp_files/3081.got.cif
#   From: 2010.05.17/outbox.cif.g08.bks.cpg/sg163_2_cif.got.tgz:3081.got - 2010.05.20 10:56:03.
