data_PCOD9577580
_publ_section_title
;
Structure prediction by ZEFSAII (Michael W. Deem and Ramdas Pophale) SiO2 
 PCOD9577580
Probable space group: R 3 C
;
_chemical_formula_sum "Si O2"
_cell_formula_units_Z 84
_cell_length_a 13.334009
_cell_length_b 13.334009
_cell_length_c 23.948635
_cell_angle_alpha 90.000000
_cell_angle_beta 90.000000
_cell_angle_gamma 120.000000
_cell_volume 3687.507264
_symmetry_space_group_name_H-M "R 3 C"
_symmetry_group_IT_number 161
_symmetry_cell_setting 'hexagonal'
loop_
_space_group_symop_operation_xyz
x,y,z
-y,x-y,z
-x+y,-x,z
-x+y,y,1/2+z
x,x-y,1/2+z
-y,-x,1/2+z
2/3+x,1/3+y,1/3+z
2/3-y,1/3+x-y,1/3+z
2/3-x+y,1/3-x,1/3+z
2/3-x+y,1/3+y,5/6+z
2/3+x,1/3+x-y,5/6+z
2/3-y,1/3-x,5/6+z
1/3+x,2/3+y,2/3+z
1/3-y,2/3+x-y,2/3+z
1/3-x+y,2/3-x,2/3+z
1/3-x+y,2/3+y,1/6+z
1/3+x,2/3+x-y,1/6+z
1/3-y,2/3-x,1/6+z
loop_
_atom_site_type_symbol
_atom_site_label
_atom_site_fract_x
_atom_site_fract_y
_atom_site_fract_z
Si Si1 0.333334 0.666668 0.780926
Si Si2 0.333334 0.666668 0.914458
Si Si3 0.606671 0.125218 0.868900
Si Si4 0.850592 0.592584 0.316377
Si Si5 0.555746 0.571295 0.538729
Si Si6 0.751085 0.888434 0.761588
O O1 0.333334 0.666667 0.847248
O O2 0.260427 0.539192 0.754016
O O3 0.362328 0.572035 0.936655
O O4 0.737328 0.173686 0.851868
O O5 0.521556 0.135633 0.823919
O O6 0.546825 0.992974 0.886113
O O7 0.806848 0.600855 0.254789
O O8 0.964581 0.701368 0.344219
O O9 0.660295 0.560792 0.566307
O O10 0.481976 0.497119 0.485849
#
# Coordination Sequence:
#
# PCOD9577580 Si02
#       6
#     6   6  18  18  18  18
#     4   9  18  39  64  92 127 174 225 276 340 425
#     4  12  24  39  64  98 136 177 228 291 346 401
#     4   9  21  41  65  94 132 180 230 281 349 426
#     4  10  23  42  68  99 136 181 234 292 352 418
#     4  11  25  44  68 102 138 181 235 292 351 417
#     4  11  25  43  65  97 137 183 232 286 350 419
#
# _framework density 22.779616000000001
#
# number of rings (size 3 to 8) (size 9 to 14) (size 15 to 20)
#    0.000    1.714    0.000    3.000    0.000   15.429 
#    0.000    0.000    0.000    0.000    0.000    0.000 
#    0.000    0.000    0.000    0.000    0.000    0.000 
#
# Total GULP energy -156142.359375 kJ/mol
# GULP energy per Si atom -5576.512835 kJ/mol
# Density = 2.272777 g / cm^3
# Si number density = 22.779616 Si / 1000 Ang^3
#
#
#
# Elastic Constant Matrix: (Units=GPa)
#
#
# Indices 1 2 3 4 5 6 
#
# 1 53.4655 76.6749 31.3883 9.1168 0.0000 0.0000
# 2 76.6749 53.4631 31.3870 -9.1166 0.0000 0.0000
# 3 31.3883 31.3870 105.8862 -0.0004 0.0000 0.0000
# 4 9.1168 -9.1166 -0.0004 23.4913 0.0000 0.0000
# 5 0.0000 0.0000 0.0000 0.0000 23.4915 9.1181
# 6 0.0000 0.0000 0.0000 0.0000 9.1181 -11.6065
#
#
#
# Elastic Compliance Matrix: (Units=1/GPa)
#
#
# Indices 1 2 3 4 5 6 
#
# 1 -0.012026 0.020992 -0.002658 0.012814 0.000000 0.000000
# 2 0.020992 -0.012026 -0.002658 -0.012814 0.000000 0.000000
# 3 -0.002658 -0.002658 0.011020 0.000000 0.000000 0.000000
# 4 0.012814 -0.012814 0.000000 0.032623 0.000000 0.000000
# 5 0.000000 0.000000 0.000000 0.000000 0.032621 0.025628
# 6 0.000000 0.000000 0.000000 0.000000 0.025628 -0.066026
#
#
# Mechanical properties :
#
#
# Convention : Reuss Voigt Hill
#
# Bulk Modulus (GPa) = 54.58275 54.63503 54.60889
# Shear Modulus (GPa) = -128.01348 11.96622 -58.02363
#
# Velocity S-wave (km/s) = -7.50457 2.29444 -5.05243
# Velocity P-wave (km/s) = 7.14689 5.57275 3.16406
#
# Compressibility (1/GPa) = 0.01832081
#
# Stress axis : x y z
#
# Youngs Moduli (GPa) = -83.15571 -83.15320 90.74574
#
# Poissons Ratio (x) = 1.74555 0.24117
# Poissons Ratio (y) = 1.74560 0.24120
# Poissons Ratio (z) = -0.22100 -0.22102
#
# Static dielectric constant tensor:
#      x y z
#    x 1.913480 0.000000 0.000000 
#    y 0.000000 1.913480 0.000000 
#    z 0.000000 0.000000 1.900760 
# 
# From -- ./inp_files/1861.got.cif
#   From: 2010.05.17/outbox.cif.g08.bks.cpg/sg161_cif.got.tgz:1861.got - 2010.05.20 10:52:32.
