data_PCOD9577208
_publ_section_title
;
Structure prediction by ZEFSAII (Michael W. Deem and Ramdas Pophale) SiO2 
 PCOD9577208
Probable space group: P 3 M 1
;
_chemical_formula_sum "Si O2"
_cell_formula_units_Z 48
_cell_length_a 13.229465
_cell_length_b 13.229465
_cell_length_c 20.640207
_cell_angle_alpha 90.000000
_cell_angle_beta 90.000000
_cell_angle_gamma 120.000000
_cell_volume 3128.450182
_symmetry_space_group_name_H-M "P 3 M 1"
_symmetry_group_IT_number 156
_symmetry_cell_setting 'hexagonal'
loop_
_space_group_symop_operation_xyz
x,y,z
-y,x-y,z
-x+y,-x,z
-x+y,y,z
x,x-y,z
-y,-x,z
loop_
_atom_site_type_symbol
_atom_site_label
_atom_site_fract_x
_atom_site_fract_y
_atom_site_fract_z
Si Si1 0.000209 0.762728 0.488970
Si Si2 0.094155 0.426928 0.117559
Si Si3 0.905839 0.572402 0.862104
Si Si4 0.333236 0.425785 0.750248
Si Si5 0.905846 0.332773 0.011112
Si Si6 0.572402 0.905839 0.266568
Si Si7 0.762728 0.762519 0.639702
Si Si8 0.666764 0.574215 0.378423
O O1 0.124826 0.875174 0.473913
O O2 0.897413 0.794825 0.482620
O O3 0.000000 0.730380 0.564336
O O4 0.967241 0.656226 0.440724
O O5 0.214535 0.429070 0.107814
O O6 0.113731 0.556866 0.110310
O O7 0.056317 0.390730 0.192075
O O8 0.000000 0.348485 0.064336
O O9 0.790433 0.580865 0.849382
O O10 0.875774 0.437887 0.856778
O O11 0.943684 0.609272 0.936597
O O12 0.008597 0.644961 0.811574
O O13 0.218604 0.437207 0.759035
O O14 0.448076 0.551925 0.742421
O O15 0.311014 0.343773 0.687948
O O16 0.886270 0.443135 0.018362
O O17 0.785466 0.214535 0.020857
O O18 0.437888 0.875775 0.271894
O O19 0.580864 0.790432 0.279290
O O20 0.644962 0.008597 0.317097
O O21 0.875175 0.750349 0.654759
O O22 0.794826 0.897413 0.646052
O O23 0.781397 0.562793 0.369637
O O24 0.551925 0.448076 0.386249
#
# Coordination Sequence:
#
# PCOD9577208 Si02
#       8
#     6   6   6   6   6   6   6   6
#     4   9  17  30  49  71  92 115 147 189 232 268
#     4   9  17  29  46  68  92 118 148 183 223 264
#     4   9  17  30  48  68  89 114 147 188 229 265
#     4  10  20  32  46  65  92 124 153 181 217 266
#     4   9  17  29  46  68  92 118 148 183 223 264
#     4   9  17  30  48  68  89 114 147 188 229 265
#     4   9  17  30  49  71  92 115 147 189 232 268
#     4  10  20  32  46  65  92 124 153 181 217 266
#
# _framework density 15.343059999999999
#
# number of rings (size 3 to 8) (size 9 to 14) (size 15 to 20)
#    0.000    2.750    0.000    1.750    0.000    4.500 
#    0.000    0.000    0.000    4.250    0.000    0.000 
#    0.000    0.000    0.000    0.000    0.000    0.000 
#
# Total GULP energy -267458.581510 kJ/mol
# GULP energy per Si atom -5572.053781 kJ/mol
# Density = 1.530814 g / cm^3
# Si number density = 15.343060 Si / 1000 Ang^3
#
#
#
# Elastic Constant Matrix: (Units=GPa)
#
#
# Indices 1 2 3 4 5 6 
#
# 1 100.6438 63.2298 83.3352 1.3394 -0.0002 0.0000
# 2 63.2298 100.6438 83.3352 -1.3394 0.0002 0.0000
# 3 83.3352 83.3352 119.6134 0.0000 0.0000 0.0000
# 4 1.3394 -1.3394 0.0000 24.9355 0.0000 0.0002
# 5 -0.0002 0.0002 0.0000 0.0000 24.9355 1.3394
# 6 0.0000 0.0000 0.0000 0.0002 1.3394 18.7070
#
#
#
# Elastic Compliance Matrix: (Units=1/GPa)
#
#
# Indices 1 2 3 4 5 6 
#
# 1 0.023886 -0.002945 -0.014590 -0.001441 0.000000 0.000000
# 2 -0.002945 0.023886 -0.014590 0.001441 0.000000 0.000000
# 3 -0.014590 -0.014590 0.028690 0.000000 0.000000 0.000000
# 4 -0.001441 0.001441 0.000000 0.040258 0.000000 0.000000
# 5 0.000000 0.000000 0.000000 0.000000 0.040258 -0.002882
# 6 0.000000 0.000000 0.000000 0.000000 -0.002882 0.053662
#
#
# Mechanical properties :
#
#
# Convention : Reuss Voigt Hill
#
# Bulk Modulus (GPa) = 81.88074 86.74460 84.31267
# Shear Modulus (GPa) = 17.92372 19.78233 18.85303
#
# Velocity S-wave (km/s) = 3.42160 3.59463 3.50918
# Velocity P-wave (km/s) = 8.31218 8.59581 8.45518
#
# Compressibility (1/GPa) = 0.01221288
#
# Stress axis : x y z
#
# Youngs Moduli (GPa) = 41.86555 41.86555 34.85591
#
# Poissons Ratio (x) = 0.12330 0.50853
# Poissons Ratio (y) = 0.12330 0.50853
# Poissons Ratio (z) = 0.61080 0.61080
#
# Static dielectric constant tensor:
#      x y z
#    x 1.483310 0.000000 0.000000 
#    y 0.000000 1.483310 0.000000 
#    z 0.000000 0.000000 1.512070 
# 
# From -- ./inp_files/1127.got.cif
#   From: 2010.05.17/outbox.cif.g08.bks.cpg/sg156_cif.got.tgz:1127.got - 2010.05.20 10:49:08.
