data_PCOD9577641
_publ_section_title
;
Structure prediction by ZEFSAII (Michael W. Deem and Ramdas Pophale) SiO2 
 PCOD9577641
Probable space group: P -3 1 M 
;
_chemical_formula_sum "Si O2"
_cell_formula_units_Z 48
_cell_length_a 18.149148
_cell_length_b 18.149148
_cell_length_c 10.120923
_cell_angle_alpha 90.000000
_cell_angle_beta 90.000000
_cell_angle_gamma 120.000000
_cell_volume 2887.109374
_symmetry_space_group_name_H-M "P -3 1 M "
_symmetry_group_IT_number 162
_symmetry_cell_setting 'hexagonal'
loop_
_space_group_symop_operation_xyz
x,y,z
-y,x-y,z
-x+y,-x,z
-y,-x,-z
-x+y,y,-z
x,x-y,-z
-x,-y,-z
y,-x+y,-z
x-y,x,-z
y,x,z
x-y,-y,z
-x,-x+y,z
loop_
_atom_site_type_symbol
_atom_site_label
_atom_site_fract_x
_atom_site_fract_y
_atom_site_fract_z
Si Si1 0.617931 0.808966 0.500000
Si Si2 0.000000 0.431749 0.213024
Si Si3 0.000000 0.682225 0.547876
Si Si4 0.182962 0.546586 0.131731
Si Si5 0.000000 0.400282 0.732075
Si Si6 0.698524 0.512125 0.750612
O O1 0.676168 0.768349 0.456394
O O2 0.555139 0.805335 0.383262
O O3 0.085228 0.473493 0.128070
O O4 0.000000 0.369634 0.324028
O O5 0.000000 0.511789 0.281870
O O6 0.000000 0.634680 0.413061
O O7 0.238539 0.503177 0.159207
O O8 0.193589 0.612606 0.249935
O O9 0.204771 0.602386 0.000000
O O10 0.910318 0.335243 0.799443
#
# Coordination Sequence:
#
# PCOD9577641 Si02
#       6
#     6   6   6  12   6  12
#     4  10  20  34  56  79 104 131 172 220 268 316
#     4  10  18  32  50  70 101 134 175 212 261 310
#     4  10  17  33  53  77 103 133 167 213 267 319
#     4  11  21  33  49  71 103 139 177 215 258 307
#     4   8  19  31  51  70  96 128 169 218 262 305
#     4  10  20  34  50  73  99 134 173 219 262 308
#
# _framework density 16.625623999999998
#
# number of rings (size 3 to 8) (size 9 to 14) (size 15 to 20)
#    0.000    2.000    2.500    2.000    0.000    1.000 
#    0.000    0.000    0.000    0.250    0.000    0.000 
#    0.000    0.000    0.000    0.000    0.000    2.750 
#
# Total GULP energy -267229.491062 kJ/mol
# GULP energy per Si atom -5567.281064 kJ/mol
# Density = 1.658778 g / cm^3
# Si number density = 16.625624 Si / 1000 Ang^3
#
#
#
# Elastic Constant Matrix: (Units=GPa)
#
#
# Indices 1 2 3 4 5 6 
#
# 1 116.3600 64.7628 42.5421 0.0002 3.0649 0.0000
# 2 64.7628 116.3600 42.5421 -0.0002 -3.0649 0.0000
# 3 42.5421 42.5421 49.5028 0.0000 0.0000 0.0000
# 4 0.0002 -0.0002 0.0000 17.7851 0.0000 -3.0649
# 5 3.0649 -3.0649 0.0000 0.0000 17.7851 0.0002
# 6 0.0000 0.0000 0.0000 -3.0649 0.0002 25.7986
#
#
#
# Elastic Compliance Matrix: (Units=1/GPa)
#
#
# Indices 1 2 3 4 5 6 
#
# 1 0.014523 -0.005263 -0.007957 0.000000 -0.003410 0.000000
# 2 -0.005263 0.014523 -0.007957 0.000000 0.003410 0.000000
# 3 -0.007957 -0.007957 0.033877 0.000000 0.000000 0.000000
# 4 0.000000 0.000000 0.000000 0.057402 0.000000 0.006819
# 5 -0.003410 0.003410 0.000000 0.000000 0.057402 0.000000
# 6 0.000000 0.000000 0.000000 0.006819 0.000000 0.039572
#
#
# Mechanical properties :
#
#
# Convention : Reuss Voigt Hill
#
# Bulk Modulus (GPa) = 48.62153 64.65742 56.63947
# Shear Modulus (GPa) = 18.76104 21.09881 19.92993
#
# Velocity S-wave (km/s) = 3.36287 3.56624 3.46605
# Velocity P-wave (km/s) = 6.66235 7.47878 7.08234
#
# Compressibility (1/GPa) = 0.02056702
#
# Stress axis : x y z
#
# Youngs Moduli (GPa) = 68.85862 68.85862 29.51819
#
# Poissons Ratio (x) = 0.36243 0.23488
# Poissons Ratio (y) = 0.36243 0.23488
# Poissons Ratio (z) = 0.54792 0.54792
#
# Static dielectric constant tensor:
#      x y z
#    x 1.583020 0.000000 0.000000 
#    y 0.000000 1.583020 0.000000 
#    z 0.000000 0.000000 1.584610 
# 
# From -- ./inp_files/2178.got.cif
#   From: 2010.05.17/outbox.cif.g08.bks.cpg/sg162_2_cif.got.tgz:2178.got - 2010.05.20 10:53:12.
