data_PCOD9577081
_publ_section_title
;
Structure prediction by ZEFSAII (Michael W. Deem and Ramdas Pophale) SiO2 
 PCOD9577081
Probable space group: R 3 2
;
_chemical_formula_sum "Si O2"
_cell_formula_units_Z 69
_cell_length_a 20.495388
_cell_length_b 20.495388
_cell_length_c 9.460741
_cell_angle_alpha 90.000000
_cell_angle_beta 90.000000
_cell_angle_gamma 120.000000
_cell_volume 3441.660867
_symmetry_space_group_name_H-M "R 3 2"
_symmetry_group_IT_number 155
_symmetry_cell_setting 'hexagonal'
loop_
_space_group_symop_operation_xyz
x,y,z
-y,x-y,z
-x+y,-x,z
x-y,-y,-z
-x,-x+y,-z
y,x,-z
2/3+x,1/3+y,1/3+z
2/3-y,1/3+x-y,1/3+z
2/3-x+y,1/3-x,1/3+z
2/3+x-y,1/3-y,1/3-z
2/3-x,1/3-x+y,1/3-z
2/3+y,1/3+x,1/3-z
1/3+x,2/3+y,2/3+z
1/3-y,2/3+x-y,2/3+z
1/3-x+y,2/3-x,2/3+z
1/3+x-y,2/3-y,2/3-z
1/3-x,2/3-x+y,2/3-z
1/3+y,2/3+x,2/3-z
loop_
_atom_site_type_symbol
_atom_site_label
_atom_site_fract_x
_atom_site_fract_y
_atom_site_fract_z
Si Si1 0.949860 0.578740 0.131340
Si Si2 0.298801 0.000000 0.000000
Si Si3 0.333334 0.666667 0.995969
Si Si4 0.340574 0.165446 0.002278
Si Si5 0.042379 0.876368 0.651318
O O1 0.863502 0.533776 0.084962
O O2 0.984197 0.666667 0.166667
O O3 0.968586 0.538691 0.255270
O O4 0.000000 0.579720 0.000000
O O5 0.299061 0.077058 0.976529
O O6 0.323662 0.990329 0.833334
O O7 0.421252 0.721186 0.957452
O O8 0.333334 0.666668 0.166667
O O9 0.333334 0.173816 0.166667
O O10 0.429832 0.206896 0.964537
O O11 0.000000 0.852705 0.500000
#
# Coordination Sequence:
#
# PCOD9577081 Si02
#       5
#    18   9   6  18  18
#     4  12  22  39  67 103 128 170 227 278 351 407
#     4  10  26  44  64  98 138 192 234 280 352 420
#     4   9  24  42  63  94 131 181 231 274 335 412
#     4  11  24  41  64  99 140 172 222 286 346 415
#     4  11  22  40  66  97 134 177 231 286 342 414
#
# _framework density 20.048459999999999
#
# number of rings (size 3 to 8) (size 9 to 14) (size 15 to 20)
#    0.000    1.043    5.217    0.783    1.826    8.348 
#    0.000    0.000    0.000    4.696    0.000    0.000 
#    0.000    0.000    0.000    0.000    0.000    0.000 
#
# Total GULP energy -128173.356020 kJ/mol
# GULP energy per Si atom -5572.754610 kJ/mol
# Density = 2.000283 g / cm^3
# Si number density = 20.048460 Si / 1000 Ang^3
#
#
#
# Elastic Constant Matrix: (Units=GPa)
#
#
# Indices 1 2 3 4 5 6 
#
# 1 127.7579 88.8354 21.5976 -2.7086 0.0002 -0.0001
# 2 88.8354 127.7550 21.5942 2.7087 -0.0002 0.0001
# 3 21.5976 21.5942 92.8133 0.0011 0.0015 0.0004
# 4 -2.7086 2.7087 0.0011 25.0923 0.0003 0.0002
# 5 0.0002 -0.0002 0.0015 0.0003 25.0926 -2.7086
# 6 -0.0001 0.0001 0.0004 0.0002 -2.7086 19.4609
#
#
#
# Elastic Compliance Matrix: (Units=1/GPa)
#
#
# Indices 1 2 3 4 5 6 
#
# 1 0.015463 -0.010622 -0.001127 0.002816 0.000000 0.000000
# 2 -0.010622 0.015463 -0.001126 -0.002816 0.000000 0.000000
# 3 -0.001127 -0.001126 0.011299 -0.000001 -0.000001 0.000000
# 4 0.002816 -0.002816 -0.000001 0.040461 -0.000001 0.000000
# 5 0.000000 0.000000 -0.000001 -0.000001 0.040460 0.005631
# 6 0.000000 0.000000 0.000000 0.000000 0.005631 0.052169
#
#
# Mechanical properties :
#
#
# Convention : Reuss Voigt Hill
#
# Bulk Modulus (GPa) = 60.69579 68.04230 64.36904
# Shear Modulus (GPa) = 24.20643 28.34907 26.27775
#
# Velocity S-wave (km/s) = 3.47853 3.76444 3.62430
# Velocity P-wave (km/s) = 6.81717 7.27374 7.04915
#
# Compressibility (1/GPa) = 0.01647561
#
# Stress axis : x y z
#
# Youngs Moduli (GPa) = 64.66960 64.66897 88.50675
#
# Poissons Ratio (x) = 0.68689 0.09975
# Poissons Ratio (y) = 0.68690 0.09966
# Poissons Ratio (z) = 0.07289 0.07282
#
# Static dielectric constant tensor:
#      x y z
#    x 1.728150 0.000000 0.000000 
#    y 0.000000 1.728150 0.000000 
#    z 0.000000 0.000000 1.726180 
# 
# From -- ./inp_files/2162.got.cif
#   From: 2010.05.17/outbox.cif.g08.bks.cpg/sg155_2_cif.got.tgz:2162.got - 2010.05.20 10:44:35.
