data_PCOD9577441
_publ_section_title
;
Structure prediction by ZEFSAII (Michael W. Deem and Ramdas Pophale) SiO2 
 PCOD9577441
Probable space group: P 3 1 C
;
_chemical_formula_sum "Si O2"
_cell_formula_units_Z 40
_cell_length_a 11.495221
_cell_length_b 11.495221
_cell_length_c 18.437098
_cell_angle_alpha 90.000000
_cell_angle_beta 90.000000
_cell_angle_gamma 120.000000
_cell_volume 2109.880441
_symmetry_space_group_name_H-M "P 3 1 C"
_symmetry_group_IT_number 159
_symmetry_cell_setting 'hexagonal'
loop_
_space_group_symop_operation_xyz
x,y,z
-y,x-y,z
-x+y,-x,z
y,x,1/2+z
x-y,-y,1/2+z
-x,-x+y,1/2+z
loop_
_atom_site_type_symbol
_atom_site_label
_atom_site_fract_x
_atom_site_fract_y
_atom_site_fract_z
Si Si1 0.396296 0.334614 0.552630
Si Si2 0.938316 0.334610 0.891174
Si Si3 0.396293 0.061684 0.552630
Si Si4 0.396296 0.334612 0.891174
Si Si5 0.644283 0.822142 0.808622
Si Si6 0.666668 0.333335 0.309540
Si Si7 0.822140 0.644283 0.135182
Si Si8 0.666667 0.333334 0.134266
O O1 0.426328 0.213166 0.551331
O O2 0.527625 0.472379 0.577507
O O3 0.360331 0.360332 0.471902
O O4 0.268123 0.298582 0.602594
O O5 0.786835 0.213164 0.892473
O O6 0.944755 0.472377 0.866296
O O7 0.030456 0.298576 0.841210
O O8 1.000000 0.360327 0.971902
O O9 0.268119 0.969546 0.602594
O O10 0.268122 0.298577 0.841210
O O11 0.487235 0.743618 0.833053
O O12 0.650868 0.825434 0.721902
O O13 0.666668 0.333334 0.221903
O O14 0.743610 0.487234 0.110753
#
# Coordination Sequence:
#
# PCOD9577441 Si02
#       8
#     6   6   6   6   6   2   6   2
#     4  11  23  40  64  94 127 163 206 259 315 372
#     4  11  23  40  64  94 127 163 206 259 315 372
#     4  11  23  40  64  94 127 163 206 259 315 372
#     4  11  23  40  64  94 127 163 206 259 315 372
#     4  11  22  40  65  92 125 166 211 258 307 367
#     4   9  18  36  63  90 120 162 211 260 301 354
#     4  11  22  40  65  92 125 166 211 258 307 367
#     4   9  18  36  63  90 120 162 211 260 301 354
#
# _framework density 18.958421000000001
#
# number of rings (size 3 to 8) (size 9 to 14) (size 15 to 20)
#    0.000    1.200    6.000    0.600    0.000    1.200 
#    1.800    1.500    0.000    3.600    0.000    0.000 
#    0.000    0.000    0.000    0.000    0.000    0.000 
#
# Total GULP energy -223474.099808 kJ/mol
# GULP energy per Si atom -5586.852495 kJ/mol
# Density = 1.891527 g / cm^3
# Si number density = 18.958421 Si / 1000 Ang^3
#
#
#
# Elastic Constant Matrix: (Units=GPa)
#
#
# Indices 1 2 3 4 5 6 
#
# 1 82.8452 37.6843 22.9186 0.0000 -0.0003 0.0001
# 2 37.6843 82.8453 22.9186 0.0000 0.0003 0.0000
# 3 22.9186 22.9186 69.5669 0.0000 0.0000 0.0000
# 4 0.0000 0.0000 0.0000 23.9421 0.0000 0.0003
# 5 -0.0003 0.0003 0.0000 0.0000 23.9421 0.0000
# 6 0.0001 0.0000 0.0000 0.0003 0.0000 22.5804
#
#
#
# Elastic Compliance Matrix: (Units=1/GPa)
#
#
# Indices 1 2 3 4 5 6 
#
# 1 0.015814 -0.006329 -0.003125 0.000000 0.000000 0.000000
# 2 -0.006329 0.015814 -0.003125 0.000000 0.000000 0.000000
# 3 -0.003125 -0.003125 0.016434 0.000000 0.000000 0.000000
# 4 0.000000 0.000000 0.000000 0.041767 0.000000 -0.000001
# 5 0.000000 0.000000 0.000000 0.000000 0.041767 0.000000
# 6 0.000000 0.000000 0.000000 -0.000001 0.000000 0.044286
#
#
# Mechanical properties :
#
#
# Convention : Reuss Voigt Hill
#
# Bulk Modulus (GPa) = 43.65965 44.70003 44.17984
# Shear Modulus (GPa) = 23.96073 24.20865 24.08469
#
# Velocity S-wave (km/s) = 3.55893 3.57730 3.56813
# Velocity P-wave (km/s) = 6.32196 6.37902 6.35055
#
# Compressibility (1/GPa) = 0.02290444
#
# Stress axis : x y z
#
# Youngs Moduli (GPa) = 63.23479 63.23491 60.85097
#
# Poissons Ratio (x) = 0.40021 0.19015
# Poissons Ratio (y) = 0.40021 0.19015
# Poissons Ratio (z) = 0.19760 0.19760
#
# Static dielectric constant tensor:
#      x y z
#    x 1.641630 0.000000 0.000000 
#    y 0.000000 1.641630 0.000000 
#    z 0.000000 0.000000 1.633660 
# 
# From -- ./inp_files/1133.got.cif
#   From: 2010.05.17/outbox.cif.g08.bks.cpg/sg159_cif.got.tgz:1133.got - 2010.05.20 10:50:30.
