data_PCOD9577189
_publ_section_title
;
Structure prediction by ZEFSAII (Michael W. Deem and Ramdas Pophale) SiO2 
 PCOD9577189
Probable space group: R 3 2
;
_chemical_formula_sum "Si O2"
_cell_formula_units_Z 18
_cell_length_a 18.000000
_cell_length_b 18.000000
_cell_length_c 9.000000
_cell_angle_alpha 90.000000
_cell_angle_beta 90.000000
_cell_angle_gamma 120.000000
_cell_volume 2525.330077
_symmetry_space_group_name_H-M "R 3 2"
_symmetry_group_IT_number 155
_symmetry_cell_setting 'hexagonal'
loop_
_space_group_symop_operation_xyz
x,y,z
-y,x-y,z
-x+y,-x,z
x-y,-y,-z
-x,-x+y,-z
y,x,-z
2/3+x,1/3+y,1/3+z
2/3-y,1/3+x-y,1/3+z
2/3-x+y,1/3-x,1/3+z
2/3+x-y,1/3-y,1/3-z
2/3-x,1/3-x+y,1/3-z
2/3+y,1/3+x,1/3-z
1/3+x,2/3+y,2/3+z
1/3-y,2/3+x-y,2/3+z
1/3-x+y,2/3-x,2/3+z
1/3+x-y,2/3-y,2/3-z
1/3-x,2/3-x+y,2/3-z
1/3+y,2/3+x,2/3-z
loop_
_atom_site_type_symbol
_atom_site_label
_atom_site_fract_x
_atom_site_fract_y
_atom_site_fract_z
Si Si1 0.388236 0.568160 0.810164
Si Si2 0.213880 0.318938 0.505062
Si Si3 0.160513 0.054233 0.349026
O O1 0.333334 0.568689 0.666667
O O2 0.410708 0.493920 0.771488
O O3 0.472182 0.652639 0.878912
O O4 0.322299 0.544200 0.948195
O O5 0.275446 0.275446 0.500000
O O6 0.198117 0.333334 0.333334
O O7 0.127750 0.255809 0.597382
O O8 0.118730 0.000000 0.500000
#
# Coordination Sequence:
#
# PCOD9577189 Si02
#       3
#    18  18  18
#     4  12  27  46  78 114 154 204 272 336 400 481
#     4  12  23  45  78 116 150 202 267 328 409 487
#     4  12  24  45  74 109 157 206 260 332 404 477
#
# _framework density 7.1277809999999997
#
# number of rings (size 3 to 8) (size 9 to 14) (size 15 to 20)
#    0.000    0.000    6.667    3.667    0.000    1.333 
#    0.000    0.000   22.000    0.000    0.000    0.000 
#    0.000    0.000    0.000    0.000    0.000    0.000 
#
# Total GULP energy -100395.480892 kJ/mol
# GULP energy per Si atom -5577.526716 kJ/mol
# Density = 0.711156 g / cm^3
# Si number density = 7.127781 Si / 1000 Ang^3
#
#
#
# Elastic Constant Matrix: (Units=GPa)
#
#
# Indices 1 2 3 4 5 6 
#
# 1 147.4293 74.2567 45.1318 -4.3924 0.0043 -0.0035
# 2 74.2567 147.4238 45.1300 4.3892 0.0011 -0.0012
# 3 45.1318 45.1300 121.9986 -0.0010 0.0019 -0.0016
# 4 -4.3924 4.3892 -0.0010 48.5522 -0.0015 0.0011
# 5 0.0043 0.0011 0.0019 -0.0015 48.5541 -4.3924
# 6 -0.0035 -0.0012 -0.0016 0.0011 -4.3924 36.5863
#
#
#
# Elastic Compliance Matrix: (Units=1/GPa)
#
#
# Indices 1 2 3 4 5 6 
#
# 1 0.009564 -0.004253 -0.001965 0.001250 -0.000001 0.000001
# 2 -0.004253 0.009564 -0.001965 -0.001249 0.000000 0.000000
# 3 -0.001965 -0.001965 0.009650 0.000000 0.000000 0.000000
# 4 0.001250 -0.001249 0.000000 0.020822 0.000001 -0.000001
# 5 -0.000001 0.000000 0.000000 0.000001 0.020822 0.002500
# 6 0.000001 0.000000 0.000000 -0.000001 0.002500 0.027633
#
#
# Mechanical properties :
#
#
# Convention : Reuss Voigt Hill
#
# Bulk Modulus (GPa) = 80.55727 82.87655 81.71691
# Shear Modulus (GPa) = 42.17369 43.56072 42.86721
#
# Velocity S-wave (km/s) = 4.44584 4.51836 4.48225
# Velocity P-wave (km/s) = 8.00679 8.12788 8.06756
#
# Compressibility (1/GPa) = 0.01241353
#
# Stress axis : x y z
#
# Youngs Moduli (GPa) = 104.56197 104.55905 103.62284
#
# Poissons Ratio (x) = 0.44469 0.20359
# Poissons Ratio (y) = 0.44470 0.20358
# Poissons Ratio (z) = 0.20543 0.20542
#
# Static dielectric constant tensor:
#      x y z
#    x 1.829740 0.000000 0.000000 
#    y 0.000000 1.829740 0.000000 
#    z 0.000000 0.000000 1.821820 
# 
# From -- ./inp_files/1646.got.cif
#   From: 2010.05.17/outbox.ucp.g08.bks.cvg/sg155_1_cif.got.tgz:1646.got - 2010.06.11 15:13:48.
