data_PCOD9577467
_publ_section_title
;
Structure prediction by ZEFSAII (Michael W. Deem and Ramdas Pophale) SiO2 
 PCOD9577467
Probable space group: R 3 M
;
_chemical_formula_sum "Si O2"
_cell_formula_units_Z 126
_cell_length_a 20.688091
_cell_length_b 20.688091
_cell_length_c 20.185943
_cell_angle_alpha 90.000000
_cell_angle_beta 90.000000
_cell_angle_gamma 120.000000
_cell_volume 7482.048344
_symmetry_space_group_name_H-M "R 3 M"
_symmetry_group_IT_number 160
_symmetry_cell_setting 'hexagonal'
loop_
_space_group_symop_operation_xyz
x,y,z
-y,x-y,z
-x+y,-x,z
-x+y,y,z
x,x-y,z
-y,-x,z
2/3+x,1/3+y,1/3+z
2/3-y,1/3+x-y,1/3+z
2/3-x+y,1/3-x,1/3+z
2/3-x+y,1/3+y,1/3+z
2/3+x,1/3+x-y,1/3+z
2/3-y,1/3-x,1/3+z
1/3+x,2/3+y,2/3+z
1/3-y,2/3+x-y,2/3+z
1/3-x+y,2/3-x,2/3+z
1/3-x+y,2/3+y,2/3+z
1/3+x,2/3+x-y,2/3+z
1/3-y,2/3-x,2/3+z
loop_
_atom_site_type_symbol
_atom_site_label
_atom_site_fract_x
_atom_site_fract_y
_atom_site_fract_z
Si Si1 0.274997 0.064963 0.894194
Si Si2 0.327296 0.091378 0.260199
Si Si3 0.001077 0.225842 0.604605
Si Si4 0.619389 0.579519 0.741864
Si Si5 0.217015 0.930030 0.206312
Si Si6 0.807583 0.474707 0.815208
Si Si7 0.934142 0.718859 0.736408
O O1 0.250345 0.125173 0.915911
O O2 0.362252 0.101233 0.915708
O O3 0.264172 0.056936 0.814714
O O4 0.241133 0.980157 0.919063
O O5 0.331948 0.165974 0.232684
O O6 0.310902 0.085375 0.338088
O O7 0.258409 0.016486 0.228295
O O8 0.929386 0.232011 0.581122
O O9 0.001829 0.163702 0.558533
O O10 0.989710 0.210563 0.682814
O O11 0.572686 0.595360 0.796556
O O12 0.633862 0.517287 0.774184
O O13 0.701068 0.650398 0.730260
O O14 0.128926 0.871075 0.215690
O O15 0.750049 0.500097 0.793060
O O16 0.775129 0.387565 0.807078
O O17 0.850368 0.700735 0.720166
#
# Coordination Sequence:
#
# PCOD9577467 Si02
#       7
#    18  18  18  18  18  18  18
#     4  10  20  35  54  78 108 137 176 225 280 327
#     4  11  22  36  54  79 111 143 185 231 279 329
#     4  10  18  30  50  77 102 134 171 213 262 318
#     4  11  19  34  51  76 103 136 173 224 272 322
#     4  10  19  32  51  74 103 137 174 215 268 323
#     4  11  21  33  48  71 105 145 183 215 253 314
#     4  11  18  30  52  79 108 136 167 213 271 331
#
# _framework density 16.840308
#
# number of rings (size 3 to 8) (size 9 to 14) (size 15 to 20)
#    0.000    1.429    7.143    4.429    0.000    0.571 
#    0.000    3.571    0.000    0.571    0.000    0.000 
#    0.000    0.000    0.000    0.000    0.000    0.000 
#
# Total GULP energy -233916.899271 kJ/mol
# GULP energy per Si atom -5569.449983 kJ/mol
# Density = 1.680198 g / cm^3
# Si number density = 16.840308 Si / 1000 Ang^3
#
#
#
# Elastic Constant Matrix: (Units=GPa)
#
#
# Indices 1 2 3 4 5 6 
#
# 1 74.6734 47.1514 27.4724 -7.7281 -0.0001 0.0000
# 2 47.1514 74.6734 27.4724 7.7281 0.0001 0.0000
# 3 27.4724 27.4724 90.9792 0.0000 0.0000 0.0000
# 4 -7.7281 7.7281 0.0000 -1.8619 0.0000 0.0001
# 5 -0.0001 0.0001 0.0000 0.0000 -1.8619 -7.7281
# 6 0.0000 0.0000 0.0000 0.0001 -7.7281 13.7610
#
#
#
# Elastic Compliance Matrix: (Units=1/GPa)
#
#
# Indices 1 2 3 4 5 6 
#
# 1 0.010206 -0.000703 -0.002869 -0.045275 0.000000 0.000000
# 2 -0.000703 0.010206 -0.002869 0.045275 0.000000 0.000000
# 3 -0.002869 -0.002869 0.012724 0.000000 0.000000 0.000000
# 4 -0.045275 0.045275 0.000000 -0.161239 0.000000 0.000001
# 5 0.000000 0.000000 0.000000 0.000000 -0.161239 -0.090551
# 6 0.000000 0.000000 0.000000 0.000001 -0.090551 0.021817
#
#
# Mechanical properties :
#
#
# Convention : Reuss Voigt Hill
#
# Bulk Modulus (GPa) = 49.37791 49.39095 49.38443
# Shear Modulus (GPa) = -20.17006 11.22273 -4.47366
#
# Velocity S-wave (km/s) = -3.46457 2.58431 -1.63165
# Velocity P-wave (km/s) = 3.65795 6.18850 5.08322
#
# Compressibility (1/GPa) = 0.02025197
#
# Stress axis : x y z
#
# Youngs Moduli (GPa) = 97.98634 97.98634 78.58875
#
# Poissons Ratio (x) = 0.06887 0.22551
# Poissons Ratio (y) = 0.06887 0.22551
# Poissons Ratio (z) = 0.28117 0.28117
#
# Static dielectric constant tensor:
#      x y z
#    x 1.582270 0.000000 0.000000 
#    y 0.000000 1.582270 0.000000 
#    z 0.000000 0.000000 1.598910 
# 
# From -- ./inp_files/2928.got.cif
#   From: 2010.05.17/outbox.cif.g08.bks.cpg/sg160_2_cif.got.tgz:2928.got - 2010.05.20 10:51:19.
