data_PCOD9577458
_publ_section_title
;
Structure prediction by ZEFSAII (Michael W. Deem and Ramdas Pophale) SiO2 
 PCOD9577458
Probable space group: P 3 1 C
;
_chemical_formula_sum "Si O2"
_cell_formula_units_Z 40
_cell_length_a 20.033315
_cell_length_b 20.033315
_cell_length_c 7.468296
_cell_angle_alpha 90.000000
_cell_angle_beta 90.000000
_cell_angle_gamma 120.000000
_cell_volume 2595.719704
_symmetry_space_group_name_H-M "P 3 1 C"
_symmetry_group_IT_number 159
_symmetry_cell_setting 'hexagonal'
loop_
_space_group_symop_operation_xyz
x,y,z
-y,x-y,z
-x+y,-x,z
y,x,1/2+z
x-y,-y,1/2+z
-x,-x+y,1/2+z
loop_
_atom_site_type_symbol
_atom_site_label
_atom_site_fract_x
_atom_site_fract_y
_atom_site_fract_z
Si Si1 0.912789 0.379867 0.565940
Si Si2 0.666668 0.333334 0.134573
Si Si3 0.620133 0.532924 0.137516
Si Si4 0.467070 0.379860 0.137510
Si Si5 0.666668 0.333335 0.568829
Si Si6 0.512061 0.756029 0.633134
Si Si7 0.532931 0.912790 0.065934
Si Si8 0.243970 0.487940 0.070295
O O1 0.999998 0.401315 0.601731
O O2 0.904230 0.452119 0.634344
O O3 0.843883 0.298124 0.631411
O O4 0.904540 0.379847 0.351728
O O5 0.666668 0.333334 0.351702
O O6 0.711032 0.422062 0.080447
O O7 0.547881 0.452113 0.069106
O O8 0.701876 0.545763 0.072035
O O9 0.454233 0.298118 0.072032
O O10 0.401308 0.401308 0.101722
O O11 0.475299 0.379840 0.351722
O O12 0.577940 0.288975 0.622966
O O13 0.515452 0.757724 0.851715
O O14 0.545768 0.843885 0.131406
#
# Coordination Sequence:
#
# PCOD9577458 Si02
#       8
#     6   2   6   6   2   6   6   6
#     4   9  16  25  37  53  72  93 119 152 186 215
#     4   9  12  18  33  54  70  86 124 165 181 194
#     4   9  16  25  37  53  72  93 119 152 186 215
#     4   9  16  25  37  53  72  93 119 152 186 215
#     4   9  12  18  33  54  70  86 124 165 181 194
#     4   9  14  22  37  54  70  92 125 159 182 206
#     4   9  16  25  37  53  72  93 119 152 186 215
#     4   9  14  22  37  54  70  92 125 159 182 206
#
# _framework density 15.409985000000001
#
# number of rings (size 3 to 8) (size 9 to 14) (size 15 to 20)
#    0.000    3.000    3.000    0.000    0.000    0.000 
#    0.000    1.500    0.000    0.000    0.000    0.000 
#    0.000    0.000    0.000    0.900    0.000   10.800 
#
# Total GULP energy -222824.820340 kJ/mol
# GULP energy per Si atom -5570.620508 kJ/mol
# Density = 1.537491 g / cm^3
# Si number density = 15.409985 Si / 1000 Ang^3
#
#
#
# Elastic Constant Matrix: (Units=GPa)
#
#
# Indices 1 2 3 4 5 6 
#
# 1 120.8684 78.6769 2.6338 0.0000 0.0002 0.0000
# 2 78.6769 120.8685 2.6337 0.0000 -0.0002 0.0001
# 3 2.6338 2.6337 42.2516 0.0000 0.0000 0.0000
# 4 0.0000 0.0000 0.0000 9.3198 0.0000 -0.0002
# 5 0.0002 -0.0002 0.0000 0.0000 9.3198 0.0000
# 6 0.0000 0.0001 0.0000 -0.0002 0.0000 21.0958
#
#
#
# Elastic Compliance Matrix: (Units=1/GPa)
#
#
# Indices 1 2 3 4 5 6 
#
# 1 0.014361 -0.009341 -0.000313 0.000000 0.000000 0.000000
# 2 -0.009341 0.014361 -0.000313 0.000000 0.000000 0.000000
# 3 -0.000313 -0.000313 0.023707 0.000000 0.000000 0.000000
# 4 0.000000 0.000000 0.000000 0.107298 0.000000 0.000001
# 5 0.000000 0.000000 0.000000 0.000000 0.107298 0.000000
# 6 0.000000 0.000000 0.000000 0.000001 0.000000 0.047403
#
#
# Mechanical properties :
#
#
# Convention : Reuss Voigt Hill
#
# Bulk Modulus (GPa) = 30.77450 50.20860 40.49155
# Shear Modulus (GPa) = 14.48467 21.28335 17.88401
#
# Velocity S-wave (km/s) = 3.06919 3.72040 3.41038
# Velocity P-wave (km/s) = 5.70734 7.14897 6.46844
#
# Compressibility (1/GPa) = 0.03249444
#
# Stress axis : x y z
#
# Youngs Moduli (GPa) = 69.63516 69.63521 42.18211
#
# Poissons Ratio (x) = 0.65046 0.01320
# Poissons Ratio (y) = 0.65046 0.01320
# Poissons Ratio (z) = 0.02179 0.02179
#
# Static dielectric constant tensor:
#      x y z
#    x 1.520050 0.000000 0.000000 
#    y 0.000000 1.520050 0.000000 
#    z 0.000000 0.000000 1.606330 
# 
# From -- ./inp_files/696.got.cif
#   From: 2010.05.17/outbox.cif.g08.bks.cpg/sg159_cif.got.tgz:696.got - 2010.05.20 10:50:30.
