data_PCOD9577473
_publ_section_title
;
Structure prediction by ZEFSAII (Michael W. Deem and Ramdas Pophale) SiO2 
 PCOD9577473
Probable space group: R 3 M
;
_chemical_formula_sum "Si O2"
_cell_formula_units_Z 126
_cell_length_a 26.898609
_cell_length_b 26.898609
_cell_length_c 12.020512
_cell_angle_alpha 90.000000
_cell_angle_beta 90.000000
_cell_angle_gamma 120.000000
_cell_volume 7532.050829
_symmetry_space_group_name_H-M "R 3 M"
_symmetry_group_IT_number 160
_symmetry_cell_setting 'hexagonal'
loop_
_space_group_symop_operation_xyz
x,y,z
-y,x-y,z
-x+y,-x,z
-x+y,y,z
x,x-y,z
-y,-x,z
2/3+x,1/3+y,1/3+z
2/3-y,1/3+x-y,1/3+z
2/3-x+y,1/3-x,1/3+z
2/3-x+y,1/3+y,1/3+z
2/3+x,1/3+x-y,1/3+z
2/3-y,1/3-x,1/3+z
1/3+x,2/3+y,2/3+z
1/3-y,2/3+x-y,2/3+z
1/3-x+y,2/3-x,2/3+z
1/3-x+y,2/3+y,2/3+z
1/3+x,2/3+x-y,2/3+z
1/3-y,2/3-x,2/3+z
loop_
_atom_site_type_symbol
_atom_site_label
_atom_site_fract_x
_atom_site_fract_y
_atom_site_fract_z
Si Si1 0.423598 0.428990 0.589051
Si Si2 0.417402 0.306119 0.065554
Si Si3 0.407459 0.479439 0.813732
Si Si4 0.885443 0.497575 0.486087
Si Si5 0.748764 0.136926 0.843104
Si Si6 0.352100 0.050821 0.653174
Si Si7 0.585912 0.848475 0.561064
O O1 0.412965 0.451437 0.473392
O O2 0.421040 0.467062 0.688802
O O3 0.474932 0.415785 0.567798
O O4 0.371695 0.365239 0.614792
O O5 0.391574 0.346046 0.027482
O O6 0.465164 0.347697 0.153624
O O7 0.427158 0.282256 0.950580
O O8 0.461510 0.538491 0.851793
O O9 0.347854 0.479870 0.832168
O O10 0.399447 0.424910 0.883767
O O11 0.857077 0.428539 0.498127
O O12 0.906479 0.512181 0.358263
O O13 0.801616 0.198385 0.805331
O O14 0.704931 0.096498 0.747955
O O15 0.777721 0.098865 0.879778
O O16 0.572101 0.786051 0.522521
#
# Coordination Sequence:
#
# PCOD9577473 Si02
#       7
#    18  18  18  18  18  18  18
#     4  11  19  30  49  75  98 128 163 207 243 288
#     4  11  18  29  46  69  93 126 167 204 234 283
#     4  11  22  34  49  74 102 129 165 213 252 288
#     4  10  19  33  49  68  97 132 163 196 246 301
#     4  10  19  30  45  65  92 127 164 201 235 280
#     4  10  20  31  47  64  97 134 168 194 241 291
#     4   9  17  29  43  63  91 124 158 193 237 285
#
# _framework density 16.728511000000001
#
# number of rings (size 3 to 8) (size 9 to 14) (size 15 to 20)
#    0.000    1.714    2.857    5.143    0.000    1.143 
#    0.000    0.000    0.000    1.143    0.000    0.000 
#    0.000    0.000    0.000    0.429    0.000    2.714 
#
# Total GULP energy -233893.706457 kJ/mol
# GULP energy per Si atom -5568.897773 kJ/mol
# Density = 1.669044 g / cm^3
# Si number density = 16.728511 Si / 1000 Ang^3
#
#
#
# Elastic Constant Matrix: (Units=GPa)
#
#
# Indices 1 2 3 4 5 6 
#
# 1 31.6370 27.9424 -0.2331 -3.6461 -0.0016 -0.0002
# 2 27.9424 31.6371 -0.2325 3.6460 0.0015 0.0002
# 3 -0.2331 -0.2325 64.8428 -0.0007 -0.0008 -0.0004
# 4 -3.6461 3.6460 -0.0007 9.8332 -0.0005 0.0013
# 5 -0.0016 0.0015 -0.0008 -0.0005 9.8329 -3.6460
# 6 -0.0002 0.0002 -0.0004 0.0013 -3.6460 1.8472
#
#
#
# Elastic Compliance Matrix: (Units=1/GPa)
#
#
# Indices 1 2 3 4 5 6 
#
# 1 0.513014 -0.496228 0.000069 0.374212 0.000410 0.000641
# 2 -0.496228 0.513011 0.000052 -0.374211 -0.000409 -0.000638
# 3 0.000069 0.000052 0.015422 0.000007 0.000009 0.000020
# 4 0.374212 -0.374211 0.000007 0.379200 0.000223 0.000243
# 5 0.000410 -0.000409 0.000009 0.000223 0.379292 0.748638
# 6 0.000641 -0.000638 0.000020 0.000243 0.748638 2.019001
#
#
# Mechanical properties :
#
#
# Convention : Reuss Voigt Hill
#
# Bulk Modulus (GPa) = 20.31161 20.34118 20.32639
# Shear Modulus (GPa) = 1.03572 11.01201 6.02386
#
# Velocity S-wave (km/s) = 0.78770 2.56848 1.89968
# Velocity P-wave (km/s) = 3.60494 4.58062 4.12175
#
# Compressibility (1/GPa) = 0.04923292
#
# Stress axis : x y z
#
# Youngs Moduli (GPa) = 1.94926 1.94927 64.84093
#
# Poissons Ratio (x) = 0.96728 -0.00445
# Poissons Ratio (y) = 0.96728 -0.00336
# Poissons Ratio (z) = -0.00013 -0.00010
#
# Static dielectric constant tensor:
#      x y z
#    x 1.586510 0.000000 0.000000 
#    y 0.000000 1.586510 0.000000 
#    z 0.000000 0.000000 1.617550 
# 
# From -- ./inp_files/1804.got.cif
#   From: 2010.05.17/outbox.cif.g08.bks.cpg/sg160_1_cif.got.tgz:1804.got - 2010.05.20 10:51:19.
