data_PCOD9577125
_publ_section_title
;
Structure prediction by ZEFSAII (Michael W. Deem and Ramdas Pophale) SiO2 
 PCOD9577125
Probable space group: R 3 2
;
_chemical_formula_sum "Si O2"
_cell_formula_units_Z 60
_cell_length_a 16.774454
_cell_length_b 16.774454
_cell_length_c 11.918508
_cell_angle_alpha 90.000000
_cell_angle_beta 90.000000
_cell_angle_gamma 120.000000
_cell_volume 2904.352397
_symmetry_space_group_name_H-M "R 3 2"
_symmetry_group_IT_number 155
_symmetry_cell_setting 'hexagonal'
loop_
_space_group_symop_operation_xyz
x,y,z
-y,x-y,z
-x+y,-x,z
x-y,-y,-z
-x,-x+y,-z
y,x,-z
2/3+x,1/3+y,1/3+z
2/3-y,1/3+x-y,1/3+z
2/3-x+y,1/3-x,1/3+z
2/3+x-y,1/3-y,1/3-z
2/3-x,1/3-x+y,1/3-z
2/3+y,1/3+x,1/3-z
1/3+x,2/3+y,2/3+z
1/3-y,2/3+x-y,2/3+z
1/3-x+y,2/3-x,2/3+z
1/3+x-y,2/3-y,2/3-z
1/3-x,2/3-x+y,2/3-z
1/3+y,2/3+x,2/3-z
loop_
_atom_site_type_symbol
_atom_site_label
_atom_site_fract_x
_atom_site_fract_y
_atom_site_fract_z
Si Si1 0.100515 0.768957 0.701765
Si Si2 0.333334 0.666668 0.031239
Si Si3 0.131501 0.206798 0.329037
Si Si4 0.882774 0.226910 0.840573
O O1 0.118205 0.784872 0.833334
O O2 0.182419 0.848067 0.628689
O O3 0.078996 0.666667 0.666667
O O4 0.004976 0.768145 0.678719
O O5 0.333334 0.666668 0.166667
O O6 0.404128 0.766073 0.986151
O O7 0.103966 0.259309 0.236698
O O8 0.111192 0.238079 0.448131
O O9 0.962742 0.333334 0.833334
#
# Coordination Sequence:
#
# PCOD9577125 Si02
#       4
#    18   6  18  18
#     4  12  20  39  71 105 136 184 229 281 350 425
#     4  12  24  42  69 100 125 184 231 288 358 419
#     4  11  22  40  67  99 141 169 234 291 341 416
#     4  11  23  41  68 101 140 183 229 292 350 415
#
# _framework density 20.658650999999999
#
# number of rings (size 3 to 8) (size 9 to 14) (size 15 to 20)
#    0.000    0.600    6.000    5.400    0.000    0.000 
#    0.000   15.000    0.000    9.000    0.000    0.000 
#    0.000    0.000    0.000    0.000    0.000    0.000 
#
# Total GULP energy -111841.973924 kJ/mol
# GULP energy per Si atom -5592.098696 kJ/mol
# Density = 2.061163 g / cm^3
# Si number density = 20.658651 Si / 1000 Ang^3
#
#
#
# Elastic Constant Matrix: (Units=GPa)
#
#
# Indices 1 2 3 4 5 6 
#
# 1 53.3793 42.2457 12.8261 2.9073 -0.0007 -0.0002
# 2 42.2457 53.3811 12.8277 -2.9080 0.0004 -0.0002
# 3 12.8261 12.8277 131.3925 -0.0004 0.0000 0.0000
# 4 2.9073 -2.9080 -0.0004 16.5162 -0.0001 0.0004
# 5 -0.0007 0.0004 0.0000 -0.0001 16.5153 2.9066
# 6 -0.0002 -0.0002 0.0000 0.0004 2.9066 5.5670
#
#
#
# Elastic Compliance Matrix: (Units=1/GPa)
#
#
# Indices 1 2 3 4 5 6 
#
# 1 0.054822 -0.044083 -0.001048 -0.017412 0.000003 0.000000
# 2 -0.044083 0.054821 -0.001049 0.017412 -0.000003 0.000000
# 3 -0.001048 -0.001049 0.007815 0.000000 0.000000 0.000000
# 4 -0.017412 0.017412 0.000000 0.066677 0.000000 -0.000005
# 5 0.000003 -0.000003 0.000000 0.000000 0.066677 -0.034812
# 6 0.000000 0.000000 0.000000 -0.000005 -0.034812 0.197806
#
#
# Mechanical properties :
#
#
# Convention : Reuss Voigt Hill
#
# Bulk Modulus (GPa) = 39.84153 41.55020 40.69587
# Shear Modulus (GPa) = 9.10175 19.06993 14.08584
#
# Velocity S-wave (km/s) = 2.10127 3.04155 2.61403
# Velocity P-wave (km/s) = 5.02142 5.70009 5.37149
#
# Compressibility (1/GPa) = 0.02509944
#
# Stress axis : x y z
#
# Youngs Moduli (GPa) = 18.24073 18.24118 127.95145
#
# Poissons Ratio (x) = 0.80413 0.13408
# Poissons Ratio (y) = 0.80411 0.13420
# Poissons Ratio (z) = 0.01911 0.01913
#
# Static dielectric constant tensor:
#      x y z
#    x 1.745400 0.000000 0.000000 
#    y 0.000000 1.745390 0.000000 
#    z 0.000000 0.000000 1.747350 
# 
# From -- ./inp_files/3573.got.cif
#   From: 2010.05.17/outbox.cif.g08.bks.cpg/sg155_2_cif.got.tgz:3573.got - 2010.05.20 10:44:35.
