data_PCOD9577524
_publ_section_title
;
Structure prediction by ZEFSAII (Michael W. Deem and Ramdas Pophale) SiO2 
 PCOD9577524
Probable space group: R 3 C
;
_chemical_formula_sum "Si O2"
_cell_formula_units_Z 108
_cell_length_a 14.405185
_cell_length_b 14.405185
_cell_length_c 26.637626
_cell_angle_alpha 90.000000
_cell_angle_beta 90.000000
_cell_angle_gamma 120.000000
_cell_volume 4787.004425
_symmetry_space_group_name_H-M "R 3 C"
_symmetry_group_IT_number 161
_symmetry_cell_setting 'hexagonal'
loop_
_space_group_symop_operation_xyz
x,y,z
-y,x-y,z
-x+y,-x,z
-x+y,y,1/2+z
x,x-y,1/2+z
-y,-x,1/2+z
2/3+x,1/3+y,1/3+z
2/3-y,1/3+x-y,1/3+z
2/3-x+y,1/3-x,1/3+z
2/3-x+y,1/3+y,5/6+z
2/3+x,1/3+x-y,5/6+z
2/3-y,1/3-x,5/6+z
1/3+x,2/3+y,2/3+z
1/3-y,2/3+x-y,2/3+z
1/3-x+y,2/3-x,2/3+z
1/3-x+y,2/3+y,1/6+z
1/3+x,2/3+x-y,1/6+z
1/3-y,2/3-x,1/6+z
loop_
_atom_site_type_symbol
_atom_site_label
_atom_site_fract_x
_atom_site_fract_y
_atom_site_fract_z
Si Si1 0.415431 0.260824 0.296813
Si Si2 0.962592 0.269090 0.699716
Si Si3 0.659564 0.521765 0.227950
Si Si4 0.627679 0.520574 0.534217
Si Si5 0.514780 0.495592 0.817280
Si Si6 0.280624 0.814825 0.980766
O O1 0.340814 0.282629 0.257792
O O2 0.491971 0.231847 0.265240
O O3 0.477506 0.364845 0.330500
O O4 0.325202 0.149818 0.319017
O O5 0.920278 0.145992 0.684866
O O6 0.876791 0.291847 0.672669
O O7 0.083740 0.342019 0.683358
O O8 0.724327 0.647586 0.212047
O O9 0.556809 0.501683 0.261743
O O10 0.624412 0.440260 0.181194
O O11 0.727113 0.576394 0.496710
O O12 0.647123 0.486319 0.589712
#
# Coordination Sequence:
#
# PCOD9577524 Si02
#       6
#    18  18  18  18  18  18
#     4  10  22  37  63 102 126 174 236 272 359 430
#     4  10  21  40  64  90 132 182 216 280 350 415
#     4  10  20  40  64  93 130 175 227 290 332 421
#     4  10  24  39  62  99 132 182 231 271 360 433
#     4  12  21  41  68  97 139 174 230 302 346 413
#     4  10  18  41  61  89 129 175 228 273 343 424
#
# _framework density 22.561081000000001
#
# number of rings (size 3 to 8) (size 9 to 14) (size 15 to 20)
#    0.000    2.000    6.667    0.000    0.000    1.333 
#    5.000    0.000    0.000    2.000    0.000    0.000 
#    0.000    0.000    0.000    0.000    0.000    0.000 
#
# Total GULP energy -200515.699015 kJ/mol
# GULP energy per Si atom -5569.880528 kJ/mol
# Density = 2.250973 g / cm^3
# Si number density = 22.561081 Si / 1000 Ang^3
#
#
#
# Elastic Constant Matrix: (Units=GPa)
#
#
# Indices 1 2 3 4 5 6 
#
# 1 82.8620 14.4727 24.8732 -9.7761 0.0000 0.0000
# 2 14.4727 82.8620 24.8732 9.7761 0.0000 0.0000
# 3 24.8732 24.8732 68.5106 0.0000 0.0000 0.0000
# 4 -9.7761 9.7761 0.0000 39.3040 0.0000 0.0000
# 5 0.0000 0.0000 0.0000 0.0000 39.3040 -9.7761
# 6 0.0000 0.0000 0.0000 0.0000 -9.7761 34.1946
#
#
#
# Elastic Compliance Matrix: (Units=1/GPa)
#
#
# Indices 1 2 3 4 5 6 
#
# 1 0.014178 -0.001564 -0.004580 0.003915 0.000000 0.000000
# 2 -0.001564 0.014178 -0.004580 -0.003915 0.000000 0.000000
# 3 -0.004580 -0.004580 0.017922 0.000000 0.000000 0.000000
# 4 0.003915 -0.003915 0.000000 0.027390 0.000000 0.000000
# 5 0.000000 0.000000 0.000000 0.000000 0.027390 0.007831
# 6 0.000000 0.000000 0.000000 0.000000 0.007831 0.031483
#
#
# Mechanical properties :
#
#
# Convention : Reuss Voigt Hill
#
# Bulk Modulus (GPa) = 40.27127 40.29699 40.28413
# Shear Modulus (GPa) = 30.81375 33.89488 32.35432
#
# Velocity S-wave (km/s) = 3.69967 3.88023 3.79103
# Velocity P-wave (km/s) = 6.01155 6.16239 6.08744
#
# Compressibility (1/GPa) = 0.02483160
#
# Stress axis : x y z
#
# Youngs Moduli (GPa) = 70.53168 70.53168 55.79823
#
# Poissons Ratio (x) = 0.11028 0.25554
# Poissons Ratio (y) = 0.11028 0.25554
# Poissons Ratio (z) = 0.32302 0.32302
#
# Static dielectric constant tensor:
#      x y z
#    x 1.909650 0.000000 0.000000 
#    y 0.000000 1.909650 0.000000 
#    z 0.000000 0.000000 1.884320 
# 
# From -- ./inp_files/2360.got.cif
#   From: 2010.05.17/outbox.cif.g08.bks.cpg/sg161_cif.got.tgz:2360.got - 2010.05.20 10:52:32.
