data_PCOD9577476
_publ_section_title
;
Structure prediction by ZEFSAII (Michael W. Deem and Ramdas Pophale) SiO2 
 PCOD9577476
Probable space group: R 3 M
;
_chemical_formula_sum "Si O2"
_cell_formula_units_Z 108
_cell_length_a 17.945745
_cell_length_b 17.945745
_cell_length_c 19.695533
_cell_angle_alpha 90.000000
_cell_angle_beta 90.000000
_cell_angle_gamma 120.000000
_cell_volume 5493.148687
_symmetry_space_group_name_H-M "R 3 M"
_symmetry_group_IT_number 160
_symmetry_cell_setting 'hexagonal'
loop_
_space_group_symop_operation_xyz
x,y,z
-y,x-y,z
-x+y,-x,z
-x+y,y,z
x,x-y,z
-y,-x,z
2/3+x,1/3+y,1/3+z
2/3-y,1/3+x-y,1/3+z
2/3-x+y,1/3-x,1/3+z
2/3-x+y,1/3+y,1/3+z
2/3+x,1/3+x-y,1/3+z
2/3-y,1/3-x,1/3+z
1/3+x,2/3+y,2/3+z
1/3-y,2/3+x-y,2/3+z
1/3-x+y,2/3-x,2/3+z
1/3-x+y,2/3+y,2/3+z
1/3+x,2/3+x-y,2/3+z
1/3-y,2/3-x,2/3+z
loop_
_atom_site_type_symbol
_atom_site_label
_atom_site_fract_x
_atom_site_fract_y
_atom_site_fract_z
Si Si1 0.238054 0.299456 0.263413
Si Si2 0.573893 0.595341 0.677314
Si Si3 0.493951 0.826610 0.580991
Si Si4 0.437344 0.381791 0.464487
Si Si5 0.303646 0.443060 0.434729
Si Si6 0.001099 0.830121 0.612311
O O1 0.144353 0.288705 0.272614
O O2 0.275113 0.276584 0.329926
O O3 0.240404 0.242876 0.201181
O O4 0.302450 0.401569 0.250111
O O5 0.503612 0.496389 0.687837
O O6 0.550895 0.628489 0.608371
O O7 0.562227 0.651681 0.735187
O O8 0.397916 0.795831 0.605068
O O9 0.526973 0.763486 0.605448
O O10 0.494824 0.825523 0.499737
O O11 0.526483 0.473518 0.462882
O O12 0.355204 0.394335 0.451825
O O13 0.199260 0.398519 0.433058
O O14 0.333819 0.485765 0.360995
O O15 0.094440 0.905561 0.590833
O O16 0.926330 0.852659 0.596645
#
# Coordination Sequence:
#
# PCOD9577476 Si02
#       6
#    18  18  18  18  18  18
#     4  11  24  40  60  87 122 164 208 250 300 364
#     4  11  23  39  62  88 115 152 199 255 308 355
#     4  10  19  32  51  82 120 158 193 232 290 360
#     4  12  23  40  64  90 122 160 202 251 305 363
#     4  10  20  32  53  87 124 159 196 238 297 367
#     4  10  20  35  56  86 122 161 202 248 303 365
#
# _framework density 19.660855000000002
#
# number of rings (size 3 to 8) (size 9 to 14) (size 15 to 20)
#    0.000    1.333    3.333    3.333    0.000    1.333 
#    0.000    1.667    0.000    7.333    0.000    0.000 
#    0.000    0.000    0.000    0.000    0.000    0.000 
#
# Total GULP energy -200617.049258 kJ/mol
# GULP energy per Si atom -5572.695813 kJ/mol
# Density = 1.961611 g / cm^3
# Si number density = 19.660855 Si / 1000 Ang^3
#
#
#
# Elastic Constant Matrix: (Units=GPa)
#
#
# Indices 1 2 3 4 5 6 
#
# 1 90.0906 62.3842 17.3500 -0.2748 -0.0001 0.0000
# 2 62.3842 90.0906 17.3500 0.2748 0.0001 0.0000
# 3 17.3500 17.3500 68.9405 0.0000 0.0000 0.0000
# 4 -0.2748 0.2748 0.0000 22.4047 0.0000 0.0001
# 5 -0.0001 0.0001 0.0000 0.0000 22.4047 -0.2748
# 6 0.0000 0.0000 0.0000 0.0001 -0.2748 13.8532
#
#
#
# Elastic Compliance Matrix: (Units=1/GPa)
#
#
# Indices 1 2 3 4 5 6 
#
# 1 0.021529 -0.014572 -0.001751 0.000443 0.000000 0.000000
# 2 -0.014572 0.021529 -0.001751 -0.000443 0.000000 0.000000
# 3 -0.001751 -0.001751 0.015387 0.000000 0.000000 0.000000
# 4 0.000443 -0.000443 0.000000 0.044644 0.000000 0.000000
# 5 0.000000 0.000000 0.000000 0.000000 0.044644 0.000886
# 6 0.000000 0.000000 0.000000 0.000000 0.000886 0.072203
#
#
# Mechanical properties :
#
#
# Convention : Reuss Voigt Hill
#
# Bulk Modulus (GPa) = 44.84900 49.25446 47.05173
# Shear Modulus (GPa) = 18.97411 21.86835 20.42123
#
# Velocity S-wave (km/s) = 3.10993 3.33870 3.22634
# Velocity P-wave (km/s) = 5.97966 6.32210 6.15327
#
# Compressibility (1/GPa) = 0.02229704
#
# Stress axis : x y z
#
# Youngs Moduli (GPa) = 46.44850 46.44850 64.99197
#
# Poissons Ratio (x) = 0.67686 0.11379
# Poissons Ratio (y) = 0.67686 0.11379
# Poissons Ratio (z) = 0.08132 0.08132
#
# Static dielectric constant tensor:
#      x y z
#    x 1.717680 0.000000 0.000000 
#    y 0.000000 1.717680 0.000000 
#    z 0.000000 0.000000 1.736660 
# 
# From -- ./inp_files/3325.got.cif
#   From: 2010.05.17/outbox.cif.g08.bks.cpg/sg160_2_cif.got.tgz:3325.got - 2010.05.20 10:51:19.
