data_PCOD9577615
_publ_section_title
;
Structure prediction by ZEFSAII (Michael W. Deem and Ramdas Pophale) SiO2 
 PCOD9577615
Probable space group: R 3 C
;
_chemical_formula_sum "Si O2"
_cell_formula_units_Z 84
_cell_length_a 13.714219
_cell_length_b 13.714219
_cell_length_c 24.275742
_cell_angle_alpha 90.000000
_cell_angle_beta 90.000000
_cell_angle_gamma 120.000000
_cell_volume 3954.078669
_symmetry_space_group_name_H-M "R 3 C"
_symmetry_group_IT_number 161
_symmetry_cell_setting 'hexagonal'
loop_
_space_group_symop_operation_xyz
x,y,z
-y,x-y,z
-x+y,-x,z
-x+y,y,1/2+z
x,x-y,1/2+z
-y,-x,1/2+z
2/3+x,1/3+y,1/3+z
2/3-y,1/3+x-y,1/3+z
2/3-x+y,1/3-x,1/3+z
2/3-x+y,1/3+y,5/6+z
2/3+x,1/3+x-y,5/6+z
2/3-y,1/3-x,5/6+z
1/3+x,2/3+y,2/3+z
1/3-y,2/3+x-y,2/3+z
1/3-x+y,2/3-x,2/3+z
1/3-x+y,2/3+y,1/6+z
1/3+x,2/3+x-y,1/6+z
1/3-y,2/3-x,1/6+z
loop_
_atom_site_type_symbol
_atom_site_label
_atom_site_fract_x
_atom_site_fract_y
_atom_site_fract_z
Si Si1 0.666667 0.333334 0.851814
Si Si2 0.470770 0.378557 0.681230
Si Si3 0.666667 0.333334 0.720808
Si Si4 0.351454 0.465771 0.888115
Si Si5 0.885671 0.534221 0.017854
Si Si6 0.425540 0.137447 0.391406
O O1 0.666668 0.333334 0.786311
O O2 0.682315 0.231042 0.872367
O O3 0.564329 0.348904 0.700256
O O4 0.465964 0.371107 0.614881
O O5 0.346531 0.286503 0.701862
O O6 0.500025 0.499998 0.702989
O O7 0.458983 0.590479 0.890403
O O8 0.257138 0.464800 0.848899
O O9 0.393400 0.380183 0.870776
O O10 0.867345 0.571787 0.957754
#
# Coordination Sequence:
#
# PCOD9577615 Si02
#       6
#     6  18   6  18  18  18
#     4  12  27  45  73 107 148 192 234 306 367 437
#     4  11  26  44  70 104 145 186 242 301 363 434
#     4  12  27  45  73 107 148 192 234 306 367 437
#     4  11  24  44  73 101 139 190 240 302 360 438
#     4  11  24  44  73 101 139 190 240 302 360 438
#     4  11  26  44  70 104 145 186 242 301 363 434
#
# _framework density 21.243887999999998
#
# number of rings (size 3 to 8) (size 9 to 14) (size 15 to 20)
#    0.000    0.857    0.000    5.571   12.000    3.429 
#    0.000    0.000    0.000    0.000    0.000    0.000 
#    0.000    0.000    0.000    0.000    0.000    0.000 
#
# Total GULP energy -156818.772530 kJ/mol
# GULP energy per Si atom -5600.670448 kJ/mol
# Density = 2.119554 g / cm^3
# Si number density = 21.243888 Si / 1000 Ang^3
#
#
#
# Elastic Constant Matrix: (Units=GPa)
#
#
# Indices 1 2 3 4 5 6 
#
# 1 189.6321 114.6471 39.3909 7.9190 0.0000 0.0000
# 2 114.6471 189.6358 39.3907 -7.9176 0.0000 0.0000
# 3 39.3909 39.3907 68.0397 -0.0001 0.0000 0.0000
# 4 7.9190 -7.9176 -0.0001 22.8297 0.0000 0.0000
# 5 0.0000 0.0000 0.0000 0.0000 22.8246 7.9237
# 6 0.0000 0.0000 0.0000 0.0000 7.9237 37.4880
#
#
#
# Elastic Compliance Matrix: (Units=1/GPa)
#
#
# Indices 1 2 3 4 5 6 
#
# 1 0.009128 -0.005262 -0.002238 -0.004991 0.000000 0.000000
# 2 -0.005262 0.009128 -0.002238 0.004991 0.000000 0.000000
# 3 -0.002238 -0.002238 0.017289 0.000000 0.000000 0.000000
# 4 -0.004991 0.004991 0.000000 0.047265 0.000000 0.000000
# 5 0.000000 0.000000 0.000000 0.000000 0.047282 -0.009994
# 6 0.000000 0.000000 0.000000 0.000000 -0.009994 0.028788
#
#
# Mechanical properties :
#
#
# Convention : Reuss Voigt Hill
#
# Bulk Modulus (GPa) = 62.23511 92.68498 77.46004
# Shear Modulus (GPa) = 27.21670 33.55373 30.38522
#
# Velocity S-wave (km/s) = 3.58321 3.97855 3.78604
# Velocity P-wave (km/s) = 6.81750 8.05163 7.46013
#
# Compressibility (1/GPa) = 0.01606810
#
# Stress axis : x y z
#
# Youngs Moduli (GPa) = 109.55363 109.55698 57.84098
#
# Poissons Ratio (x) = 0.57648 0.12946
# Poissons Ratio (y) = 0.57646 0.12945
# Poissons Ratio (z) = 0.24521 0.24519
#
# Static dielectric constant tensor:
#      x y z
#    x 1.735660 0.000000 0.000000 
#    y 0.000000 1.735660 0.000000 
#    z 0.000000 0.000000 1.776270 
# 
# From -- ./inp_files/1879.got.cif
#   From: 2010.05.17/outbox.cif.g08.bks.cpg/sg161_cif.got.tgz:1879.got - 2010.05.20 10:52:32.
