data_PCOD9577884
_publ_section_title
;
Structure prediction by ZEFSAII (Michael W. Deem and Ramdas Pophale) SiO2 
 PCOD9577884
Probable space group: P -3 1 M 
;
_chemical_formula_sum "Si O2"
_cell_formula_units_Z 72
_cell_length_a 15.277354
_cell_length_b 15.277354
_cell_length_c 18.517223
_cell_angle_alpha 90.000000
_cell_angle_beta 90.000000
_cell_angle_gamma 120.000000
_cell_volume 3742.853016
_symmetry_space_group_name_H-M "P -3 1 M "
_symmetry_group_IT_number 162
_symmetry_cell_setting 'hexagonal'
loop_
_space_group_symop_operation_xyz
x,y,z
-y,x-y,z
-x+y,-x,z
-y,-x,-z
-x+y,y,-z
x,x-y,-z
-x,-y,-z
y,-x+y,-z
x-y,x,-z
y,x,z
x-y,-y,z
-x,-x+y,z
loop_
_atom_site_type_symbol
_atom_site_label
_atom_site_fract_x
_atom_site_fract_y
_atom_site_fract_z
Si Si1 0.280033 0.394847 0.448087
Si Si2 0.808891 0.247462 0.146692
Si Si3 0.110818 0.221648 0.913297
Si Si4 0.564090 0.444757 0.360480
Si Si5 0.446592 0.235303 0.310769
Si Si6 0.881212 0.417062 0.915952
O O1 0.197651 0.395302 0.500000
O O2 0.325102 0.325102 0.473282
O O3 0.376218 0.506526 0.430800
O O4 0.233750 0.365041 0.366720
O O5 0.868467 0.198600 0.109827
O O6 0.809898 0.229311 0.232094
O O7 0.695713 0.188381 0.113719
O O8 0.857757 0.364995 0.128988
O O9 0.137270 0.137270 0.888334
O O10 0.000000 0.195152 0.887803
O O11 0.109880 0.219759 0.000000
O O12 0.518818 0.518818 0.349641
O O13 0.524379 0.355254 0.301284
O O14 0.683794 0.502185 0.355436
O O15 0.000000 0.452931 0.910626
O O16 0.859647 0.429824 0.000000
#
# Coordination Sequence:
#
# PCOD9577884 Si02
#       6
#    12  12  12  12  12  12
#     4   9  21  41  64  89 121 158 203 251 301 368
#     4  12  23  36  59  86 119 162 203 251 305 366
#     4  10  21  38  59  82 109 145 195 256 320 376
#     4   9  20  38  58  85 123 161 200 242 290 362
#     4  10  21  36  57  85 122 160 200 243 305 362
#     4  11  24  40  58  83 119 163 210 258 306 363
#
# _framework density 19.236661999999999
#
# number of rings (size 3 to 8) (size 9 to 14) (size 15 to 20)
#    1.000    0.833    0.000    4.333    0.000   10.000 
#    0.000    1.667    0.000    0.167    0.000    0.000 
#    0.000    0.000    0.000    0.000    0.000    0.000 
#
# Total GULP energy -401256.693968 kJ/mol
# GULP energy per Si atom -5573.009638 kJ/mol
# Density = 1.919288 g / cm^3
# Si number density = 19.236662 Si / 1000 Ang^3
#
#
#
# Elastic Constant Matrix: (Units=GPa)
#
#
# Indices 1 2 3 4 5 6 
#
# 1 34.6811 53.3064 13.0073 -0.0004 1.0252 0.0000
# 2 53.3064 34.6811 13.0073 0.0004 -1.0252 0.0000
# 3 13.0073 13.0073 71.0798 0.0000 0.0000 0.0000
# 4 -0.0004 0.0004 0.0000 -8.7306 0.0000 -1.0252
# 5 1.0252 -1.0252 0.0000 0.0000 -8.7306 -0.0004
# 6 0.0000 0.0000 0.0000 -1.0252 -0.0004 -9.3127
#
#
#
# Elastic Compliance Matrix: (Units=1/GPa)
#
#
# Indices 1 2 3 4 5 6 
#
# 1 -0.021189 0.033204 -0.002199 0.000002 -0.006387 0.000000
# 2 0.033204 -0.021189 -0.002199 -0.000002 0.006387 0.000000
# 3 -0.002199 -0.002199 0.014873 0.000000 0.000000 0.000000
# 4 0.000002 -0.000002 0.000000 -0.116039 0.000000 0.012774
# 5 -0.006387 0.006387 0.000000 0.000000 -0.116039 0.000004
# 6 0.000000 0.000000 0.000000 0.012774 0.000004 -0.108787
#
#
# Mechanical properties :
#
#
# Convention : Reuss Voigt Hill
#
# Bulk Modulus (GPa) = 33.21259 33.23157 33.22208
# Shear Modulus (GPa) = -12.02075 -1.28006 -6.65041
#
# Velocity S-wave (km/s) = -2.50249 -0.81662 -1.86136
# Velocity P-wave (km/s) = 2.99213 4.05259 3.56204
#
# Compressibility (1/GPa) = 0.03010907
#
# Stress axis : x y z
#
# Youngs Moduli (GPa) = -47.19418 -47.19418 67.23398
#
# Poissons Ratio (x) = 1.56705 0.14783
# Poissons Ratio (y) = 1.56705 0.14783
# Poissons Ratio (z) = -0.10377 -0.10377
#
# Static dielectric constant tensor:
#      x y z
#    x 1.677270 0.000000 0.000000 
#    y 0.000000 1.677270 0.000000 
#    z 0.000000 0.000000 1.710500 
# 
# From -- ./inp_files/3534.got.cif
#   From: 2010.05.17/outbox.cif.g08.bks.cpg/sg162_2_cif.got.tgz:3534.got - 2010.05.20 10:53:12.
