data_PCOD9577399
_publ_section_title
;
Structure prediction by ZEFSAII (Michael W. Deem and Ramdas Pophale) SiO2 
 PCOD9577399
Probable space group: P 3 1 C
;
_chemical_formula_sum "Si O2"
_cell_formula_units_Z 48
_cell_length_a 16.626321
_cell_length_b 16.626321
_cell_length_c 9.584747
_cell_angle_alpha 90.000000
_cell_angle_beta 90.000000
_cell_angle_gamma 120.000000
_cell_volume 2294.582133
_symmetry_space_group_name_H-M "P 3 1 C"
_symmetry_group_IT_number 159
_symmetry_cell_setting 'hexagonal'
loop_
_space_group_symop_operation_xyz
x,y,z
-y,x-y,z
-x+y,-x,z
y,x,1/2+z
x-y,-y,1/2+z
-x,-x+y,1/2+z
loop_
_atom_site_type_symbol
_atom_site_label
_atom_site_fract_x
_atom_site_fract_y
_atom_site_fract_z
Si Si1 0.032858 0.266293 0.535130
Si Si2 0.741405 0.952901 0.634994
Si Si3 0.598363 0.012307 0.519499
Si Si4 0.788706 0.542330 0.577595
Si Si5 0.851236 0.111874 0.440358
Si Si6 0.228552 0.568322 0.853519
Si Si7 0.527748 0.492504 0.253026
Si Si8 0.913266 0.298044 0.771835
O O1 0.121132 0.260691 0.584513
O O2 0.068785 0.351421 0.429532
O O3 0.961266 0.177748 0.442547
O O4 0.976045 0.276563 0.663888
O O5 0.659088 0.965879 0.566851
O O6 0.745417 0.945650 0.802214
O O7 0.828459 0.043597 0.571163
O O8 0.501843 0.955874 0.598986
O O9 0.653602 0.119015 0.577270
O O10 0.575182 0.021361 0.359737
O O11 0.820992 0.629743 0.471280
O O12 0.692880 0.460263 0.513798
O O13 0.766783 0.574597 0.722323
O O14 0.327589 0.577569 0.812615
O O15 0.126603 0.502682 0.796875
O O16 0.542107 0.594330 0.255578
#
# Coordination Sequence:
#
# PCOD9577399 Si02
#       8
#     6   6   6   6   6   6   6   6
#     4  11  23  43  62  96 126 171 214 270 328 387
#     4  11  24  38  68  94 125 170 214 265 329 386
#     4  11  23  39  66  93 135 162 218 271 324 391
#     4  10  21  41  63  92 127 173 220 263 326 392
#     4  10  23  41  63  92 127 165 214 268 318 395
#     4  10  21  36  63  90 127 172 214 262 327 400
#     4  12  23  41  62 103 126 173 219 276 330 394
#     4  11  24  39  69  90 131 168 221 269 326 399
#
# _framework density 20.918842999999999
#
# number of rings (size 3 to 8) (size 9 to 14) (size 15 to 20)
#    0.250    1.000    2.500    4.500    7.000    0.000 
#    0.750    0.000    0.000    0.000    0.000    0.000 
#    0.000    0.000    0.000    0.000    0.000    0.000 
#
# Total GULP energy -267428.516393 kJ/mol
# GULP energy per Si atom -5571.427425 kJ/mol
# Density = 2.087123 g / cm^3
# Si number density = 20.918843 Si / 1000 Ang^3
#
#
#
# Elastic Constant Matrix: (Units=GPa)
#
#
# Indices 1 2 3 4 5 6 
#
# 1 59.9628 20.3084 9.5577 0.0000 -0.3849 0.0000
# 2 20.3084 59.9628 9.5577 0.0000 0.3849 0.0000
# 3 9.5577 9.5577 61.1728 0.0000 0.0000 0.0000
# 4 0.0000 0.0000 0.0000 33.0692 0.0000 0.3849
# 5 -0.3849 0.3849 0.0000 0.0000 33.0692 0.0000
# 6 0.0000 0.0000 0.0000 0.3849 0.0000 19.8272
#
#
#
# Elastic Compliance Matrix: (Units=1/GPa)
#
#
# Indices 1 2 3 4 5 6 
#
# 1 0.019081 -0.006142 -0.002022 0.000000 0.000294 0.000000
# 2 -0.006142 0.019081 -0.002022 0.000000 -0.000294 0.000000
# 3 -0.002022 -0.002022 0.016979 0.000000 0.000000 0.000000
# 4 0.000000 0.000000 0.000000 0.030246 0.000000 -0.000587
# 5 0.000294 -0.000294 0.000000 0.000000 0.030246 0.000000
# 6 0.000000 0.000000 0.000000 -0.000587 0.000000 0.050447
#
#
# Mechanical properties :
#
#
# Convention : Reuss Voigt Hill
#
# Bulk Modulus (GPa) = 28.75987 28.88292 28.82139
# Shear Modulus (GPa) = 25.24706 26.63809 25.94257
#
# Velocity S-wave (km/s) = 3.47782 3.57235 3.52540
# Velocity P-wave (km/s) = 5.46856 5.55452 5.51171
#
# Compressibility (1/GPa) = 0.03477067
#
# Stress axis : x y z
#
# Youngs Moduli (GPa) = 52.40708 52.40708 58.89678
#
# Poissons Ratio (x) = 0.32189 0.11907
# Poissons Ratio (y) = 0.32189 0.11907
# Poissons Ratio (z) = 0.10595 0.10595
#
# Static dielectric constant tensor:
#      x y z
#    x 1.780750 0.000000 0.000000 
#    y 0.000000 1.780750 0.000000 
#    z 0.000000 0.000000 1.758540 
# 
# From -- ./inp_files/489.got.cif
#   From: 2010.05.17/outbox.cif.g08.bks.cpg/sg159_cif.got.tgz:489.got - 2010.05.20 10:50:30.
