data_PCOD9577184
_publ_section_title
;
Structure prediction by ZEFSAII (Michael W. Deem and Ramdas Pophale) SiO2 
 PCOD9577184
Probable space group: R 3 2
;
_chemical_formula_sum "Si O2"
_cell_formula_units_Z 27
_cell_length_a 21.000000
_cell_length_b 21.000000
_cell_length_c 12.000000
_cell_angle_alpha 90.000000
_cell_angle_beta 90.000000
_cell_angle_gamma 120.000000
_cell_volume 4583.006437
_symmetry_space_group_name_H-M "R 3 2"
_symmetry_group_IT_number 155
_symmetry_cell_setting 'hexagonal'
loop_
_space_group_symop_operation_xyz
x,y,z
-y,x-y,z
-x+y,-x,z
x-y,-y,-z
-x,-x+y,-z
y,x,-z
2/3+x,1/3+y,1/3+z
2/3-y,1/3+x-y,1/3+z
2/3-x+y,1/3-x,1/3+z
2/3+x-y,1/3-y,1/3-z
2/3-x,1/3-x+y,1/3-z
2/3+y,1/3+x,1/3-z
1/3+x,2/3+y,2/3+z
1/3-y,2/3+x-y,2/3+z
1/3-x+y,2/3-x,2/3+z
1/3+x-y,2/3-y,2/3-z
1/3-x,2/3-x+y,2/3-z
1/3+y,2/3+x,2/3-z
loop_
_atom_site_type_symbol
_atom_site_label
_atom_site_fract_x
_atom_site_fract_y
_atom_site_fract_z
Si Si1 0.623566 0.666667 0.166667
Si Si2 0.218133 0.997591 0.261024
Si Si3 0.293723 0.212718 0.499414
Si Si4 0.097579 0.836059 0.755498
Si Si5 0.929619 0.782686 0.722960
O O1 0.705386 0.736536 0.186473
O O2 0.579092 0.663123 0.278778
O O3 0.130933 0.938171 0.256314
O O4 0.237237 0.078857 0.224824
O O5 0.285071 0.285071 0.500000
O O6 0.284353 0.183225 0.374556
O O7 0.232243 0.160312 0.589519
O O8 0.370431 0.229703 0.550463
O O9 0.118859 0.785525 0.833334
O O10 0.014641 0.824337 0.764421
#
# Coordination Sequence:
#
# PCOD9577184 Si02
#       5
#     9  18  18  18  18
#     4  10  20  34  62  80 116 144 194 246 286 348
#     4  11  20  36  54  86 109 152 190 240 293 338
#     4   9  18  35  57  80 106 141 183 234 286 341
#     4  11  22  36  55  84 116 147 193 238 287 348
#     4  10  20  35  56  79 110 149 187 231 290 341
#
# _framework density 5.8913289999999998
#
# number of rings (size 3 to 8) (size 9 to 14) (size 15 to 20)
#    0.000    1.778    1.111    6.000    0.000    2.667 
#    1.333    0.000    0.000    0.000    0.000    0.000 
#    0.000    0.000    0.000    0.000    0.000    0.000 
#
# Total GULP energy -150558.558489 kJ/mol
# GULP energy per Si atom -5576.242907 kJ/mol
# Density = 0.587792 g / cm^3
# Si number density = 5.891329 Si / 1000 Ang^3
#
#
#
# Elastic Constant Matrix: (Units=GPa)
#
#
# Indices 1 2 3 4 5 6 
#
# 1 113.1067 44.4118 23.3358 0.9726 -0.0001 0.0000
# 2 44.4118 113.1067 23.3358 -0.9726 0.0001 0.0000
# 3 23.3358 23.3358 58.7471 0.0000 0.0000 0.0000
# 4 0.9726 -0.9726 0.0000 19.7452 0.0000 0.0001
# 5 -0.0001 0.0001 0.0000 0.0000 19.7452 0.9726
# 6 0.0000 0.0000 0.0000 0.0001 0.9726 34.3475
#
#
#
# Elastic Compliance Matrix: (Units=1/GPa)
#
#
# Indices 1 2 3 4 5 6 
#
# 1 0.010886 -0.003691 -0.002858 -0.000718 0.000000 0.000000
# 2 -0.003691 0.010886 -0.002858 0.000718 0.000000 0.000000
# 3 -0.002858 -0.002858 0.019293 0.000000 0.000000 0.000000
# 4 -0.000718 0.000718 0.000000 0.050716 0.000000 0.000000
# 5 0.000000 0.000000 0.000000 0.000000 0.050716 -0.001436
# 6 0.000000 0.000000 0.000000 0.000000 -0.001436 0.029155
#
#
# Mechanical properties :
#
#
# Convention : Reuss Voigt Hill
#
# Bulk Modulus (GPa) = 44.94224 51.90302 48.42263
# Shear Modulus (GPa) = 25.26730 27.69270 26.48000
#
# Velocity S-wave (km/s) = 3.78515 3.96266 3.87492
# Velocity P-wave (km/s) = 6.67734 7.09701 6.89037
#
# Compressibility (1/GPa) = 0.02225078
#
# Stress axis : x y z
#
# Youngs Moduli (GPa) = 91.85789 91.85789 51.83291
#
# Poissons Ratio (x) = 0.33905 0.14815
# Poissons Ratio (y) = 0.33905 0.14815
# Poissons Ratio (z) = 0.26254 0.26254
#
# Static dielectric constant tensor:
#      x y z
#    x 1.624600 0.000000 0.000000 
#    y 0.000000 1.624600 0.000000 
#    z 0.000000 0.000000 1.611700 
# 
# From -- ./inp_files/3789.got.cif
#   From: 2010.05.17/outbox.ucp.g08.bks.cvg/sg155_2_cif.got.tgz:3789.got - 2010.06.11 15:13:48.
