data_PCOD9577155
_publ_section_title
;
Structure prediction by ZEFSAII (Michael W. Deem and Ramdas Pophale) SiO2 
 PCOD9577155
Probable space group: R 3 2
;
_chemical_formula_sum "Si O2"
_cell_formula_units_Z 69
_cell_length_a 11.585934
_cell_length_b 11.585934
_cell_length_c 26.365786
_cell_angle_alpha 90.000000
_cell_angle_beta 90.000000
_cell_angle_gamma 120.000000
_cell_volume 3065.021003
_symmetry_space_group_name_H-M "R 3 2"
_symmetry_group_IT_number 155
_symmetry_cell_setting 'hexagonal'
loop_
_space_group_symop_operation_xyz
x,y,z
-y,x-y,z
-x+y,-x,z
x-y,-y,-z
-x,-x+y,-z
y,x,-z
2/3+x,1/3+y,1/3+z
2/3-y,1/3+x-y,1/3+z
2/3-x+y,1/3-x,1/3+z
2/3+x-y,1/3-y,1/3-z
2/3-x,1/3-x+y,1/3-z
2/3+y,1/3+x,1/3-z
1/3+x,2/3+y,2/3+z
1/3-y,2/3+x-y,2/3+z
1/3-x+y,2/3-x,2/3+z
1/3+x-y,2/3-y,2/3-z
1/3-x,2/3-x+y,2/3-z
1/3+y,2/3+x,2/3-z
loop_
_atom_site_type_symbol
_atom_site_label
_atom_site_fract_x
_atom_site_fract_y
_atom_site_fract_z
Si Si1 0.093837 0.745002 0.929820
Si Si2 0.453214 0.965781 0.696514
Si Si3 0.000000 0.000000 0.440374
Si Si4 0.333334 0.078749 0.166667
Si Si5 0.302682 0.112806 0.572933
O O1 0.164532 0.839999 0.881646
O O2 0.952542 0.739199 0.938650
O O3 0.063203 0.594850 0.924433
O O4 0.177211 0.793896 0.981827
O O5 0.391259 0.040438 0.728108
O O6 0.333334 0.842985 0.666667
O O7 0.091584 0.154076 0.426754
O O8 0.000000 0.000000 0.500000
O O9 0.226052 0.930218 0.186531
#
# Coordination Sequence:
#
# PCOD9577155 Si02
#       5
#    18  18   6   9  18
#     4  11  28  47  74 111 149 204 251 322 391 454
#     4  11  25  49  74 107 153 199 255 310 378 482
#     4  12  24  42  84 111 147 207 252 327 375 460
#     4  12  28  48  74 110 156 184 254 332 372 474
#     4  12  26  49  78 114 150 198 263 320 394 459
#
# _framework density 22.512080999999998
#
# number of rings (size 3 to 8) (size 9 to 14) (size 15 to 20)
#    0.000    0.522    6.522    0.000    9.130    0.000 
#    7.826    5.217    0.000    0.000    0.000    0.000 
#    0.000    0.000    0.000    0.000    0.000    0.000 
#
# Total GULP energy -128153.459985 kJ/mol
# GULP energy per Si atom -5571.889565 kJ/mol
# Density = 2.246084 g / cm^3
# Si number density = 22.512081 Si / 1000 Ang^3
#
#
#
# Elastic Constant Matrix: (Units=GPa)
#
#
# Indices 1 2 3 4 5 6 
#
# 1 80.1300 14.1610 25.4248 5.1470 0.0004 0.0000
# 2 14.1610 80.1300 25.4248 -5.1470 -0.0004 0.0000
# 3 25.4248 25.4248 101.9793 0.0000 0.0000 0.0000
# 4 5.1470 -5.1470 0.0000 47.5876 0.0000 -0.0004
# 5 0.0004 -0.0004 0.0000 0.0000 47.5876 5.1470
# 6 0.0000 0.0000 0.0000 -0.0004 5.1470 32.9845
#
#
#
# Elastic Compliance Matrix: (Units=1/GPa)
#
#
# Indices 1 2 3 4 5 6 
#
# 1 0.013836 -0.001583 -0.003055 -0.001668 0.000000 0.000000
# 2 -0.001583 0.013836 -0.003055 0.001668 0.000000 0.000000
# 3 -0.003055 -0.003055 0.011329 0.000000 0.000000 0.000000
# 4 -0.001668 0.001668 0.000000 0.021375 0.000000 0.000000
# 5 0.000000 0.000000 0.000000 0.000000 0.021375 -0.003335
# 6 0.000000 0.000000 0.000000 0.000000 -0.003335 0.030838
#
#
# Mechanical properties :
#
#
# Convention : Reuss Voigt Hill
#
# Bulk Modulus (GPa) = 42.34483 43.58452 42.96467
# Shear Modulus (GPa) = 36.80669 38.78053 37.79361
#
# Velocity S-wave (km/s) = 4.04787 4.15499 4.10178
# Velocity P-wave (km/s) = 6.37947 6.51315 6.44666
#
# Compressibility (1/GPa) = 0.02361564
#
# Stress axis : x y z
#
# Youngs Moduli (GPa) = 72.27594 72.27594 88.26804
#
# Poissons Ratio (x) = 0.11441 0.26964
# Poissons Ratio (y) = 0.11441 0.26964
# Poissons Ratio (z) = 0.22079 0.22079
#
# Static dielectric constant tensor:
#      x y z
#    x 1.853680 0.000000 0.000000 
#    y 0.000000 1.853680 0.000000 
#    z 0.000000 0.000000 1.856860 
# 
# From -- ./inp_files/8271.got.cif
#   From: 2010.05.17/outbox.cif.g08.bks.cpg/sg155_5_cif.got.tgz:8271.got - 2010.05.20 10:44:35.
