data_PCOD9577953
_publ_section_title
;
Structure prediction by ZEFSAII (Michael W. Deem and Ramdas Pophale) SiO2 
 PCOD9577953
Probable space group: P -3 1 M 
;
_chemical_formula_sum "Si O2"
_cell_formula_units_Z 48
_cell_length_a 16.797841
_cell_length_b 16.797841
_cell_length_c 8.706760
_cell_angle_alpha 90.000000
_cell_angle_beta 90.000000
_cell_angle_gamma 120.000000
_cell_volume 2127.620359
_symmetry_space_group_name_H-M "P -3 1 M "
_symmetry_group_IT_number 162
_symmetry_cell_setting 'hexagonal'
loop_
_space_group_symop_operation_xyz
x,y,z
-y,x-y,z
-x+y,-x,z
-y,-x,-z
-x+y,y,-z
x,x-y,-z
-x,-y,-z
y,-x+y,-z
x-y,x,-z
y,x,z
x-y,-y,z
-x,-x+y,z
loop_
_atom_site_type_symbol
_atom_site_label
_atom_site_fract_x
_atom_site_fract_y
_atom_site_fract_z
Si Si1 0.786148 0.893751 0.812530
Si Si2 0.421777 0.421777 0.769907
Si Si3 0.674773 0.485114 0.400007
Si Si4 0.601874 0.000000 0.117141
Si Si5 0.229780 0.809574 0.821910
O O1 0.831860 0.831860 0.766129
O O2 0.679753 0.850892 0.763217
O O3 0.847820 0.000000 0.764385
O O4 0.785304 0.892652 0.000000
O O5 0.457138 0.370388 0.659003
O O6 0.509586 0.509586 0.841750
O O7 0.374585 0.374585 0.933862
O O8 0.602388 0.397613 0.500000
O O9 0.767734 0.535468 0.500000
O O10 0.726139 0.484652 0.244077
O O11 0.587917 0.907808 0.192871
O O12 0.211126 0.788875 0.000000
#
# Coordination Sequence:
#
# PCOD9577953 Si02
#       5
#    12   6  12   6  12
#     4   9  17  29  54  91 135 176 219 275 336 403
#     4  11  25  46  74 102 137 185 236 301 363 430
#     4  12  27  47  70 100 143 186 234 292 367 437
#     4  11  22  44  74 106 134 178 244 306 357 422
#     4  11  22  40  69 101 138 185 237 292 357 428
#
# _framework density 22.560416
#
# number of rings (size 3 to 8) (size 9 to 14) (size 15 to 20)
#    0.000    1.250    3.750    2.375    3.500    2.000 
#    0.000    0.000    5.500    0.000    0.000    0.000 
#    0.000    2.000    0.000    0.000    0.000    0.000 
#
# Total GULP energy -267251.308518 kJ/mol
# GULP energy per Si atom -5567.735594 kJ/mol
# Density = 2.250907 g / cm^3
# Si number density = 22.560416 Si / 1000 Ang^3
#
#
#
# Elastic Constant Matrix: (Units=GPa)
#
#
# Indices 1 2 3 4 5 6 
#
# 1 90.9871 95.4240 52.8938 0.0006 -3.6641 0.0000
# 2 95.4240 90.9871 52.8938 -0.0006 3.6641 0.0000
# 3 52.8938 52.8938 56.7000 0.0000 0.0000 0.0000
# 4 0.0006 -0.0006 0.0000 25.7587 0.0000 3.6641
# 5 -3.6641 3.6641 0.0000 0.0000 25.7587 0.0006
# 6 0.0000 0.0000 0.0000 3.6641 0.0006 -2.2185
#
#
#
# Elastic Compliance Matrix: (Units=1/GPa)
#
#
# Indices 1 2 3 4 5 6 
#
# 1 -0.085552 0.096951 -0.010634 0.000004 -0.025961 0.000000
# 2 0.096951 -0.085552 -0.010634 -0.000004 0.025961 0.000000
# 3 -0.010634 -0.010634 0.037477 0.000000 0.000000 0.000000
# 4 0.000004 -0.000004 0.000000 0.031436 0.000000 0.051921
# 5 -0.025961 0.025961 0.000000 0.000000 0.031436 0.000008
# 6 0.000000 0.000000 0.000000 0.051921 0.000008 -0.365007
#
#
# Mechanical properties :
#
#
# Convention : Reuss Voigt Hill
#
# Bulk Modulus (GPa) = 56.37159 71.23303 63.80231
# Shear Modulus (GPa) = -8.60266 12.35728 1.87731
#
# Velocity S-wave (km/s) = -1.95485 2.34293 0.91320
# Velocity P-wave (km/s) = 4.46609 6.24195 5.42715
#
# Compressibility (1/GPa) = 0.01773943
#
# Stress axis : x y z
#
# Youngs Moduli (GPa) = -11.68877 -11.68877 26.68293
#
# Poissons Ratio (x) = 1.13324 0.28375
# Poissons Ratio (y) = 1.13324 0.28375
# Poissons Ratio (z) = -0.12430 -0.12430
#
# Static dielectric constant tensor:
#      x y z
#    x 2.058590 0.000000 0.000000 
#    y 0.000000 2.058590 0.000000 
#    z 0.000000 0.000000 1.923440 
# 
# From -- ./inp_files/1252.got.cif
#   From: 2010.05.17/outbox.cif.g08.bks.cpg/sg162_1_cif.got.tgz:1252.got - 2010.05.20 10:53:12.
