data_PCOD9577130
_publ_section_title
;
Structure prediction by ZEFSAII (Michael W. Deem and Ramdas Pophale) SiO2 
 PCOD9577130
Probable space group: R 3 2
;
_chemical_formula_sum "Si O2"
_cell_formula_units_Z 75
_cell_length_a 10.739261
_cell_length_b 10.739261
_cell_length_c 35.893441
_cell_angle_alpha 90.000000
_cell_angle_beta 90.000000
_cell_angle_gamma 120.000000
_cell_volume 3585.044256
_symmetry_space_group_name_H-M "R 3 2"
_symmetry_group_IT_number 155
_symmetry_cell_setting 'hexagonal'
loop_
_space_group_symop_operation_xyz
x,y,z
-y,x-y,z
-x+y,-x,z
x-y,-y,-z
-x,-x+y,-z
y,x,-z
2/3+x,1/3+y,1/3+z
2/3-y,1/3+x-y,1/3+z
2/3-x+y,1/3-x,1/3+z
2/3+x-y,1/3-y,1/3-z
2/3-x,1/3-x+y,1/3-z
2/3+y,1/3+x,1/3-z
1/3+x,2/3+y,2/3+z
1/3-y,2/3+x-y,2/3+z
1/3-x+y,2/3-x,2/3+z
1/3+x-y,2/3-y,2/3-z
1/3-x,2/3-x+y,2/3-z
1/3+y,2/3+x,2/3-z
loop_
_atom_site_type_symbol
_atom_site_label
_atom_site_fract_x
_atom_site_fract_y
_atom_site_fract_z
Si Si1 0.932036 0.332544 0.748005
Si Si2 0.333334 0.666667 0.897189
Si Si3 0.666668 0.333334 0.652286
Si Si4 0.840548 0.179323 0.125883
Si Si5 0.796320 0.666667 0.666667
Si Si6 0.771214 0.000714 0.457004
O O1 0.930630 0.289771 0.705315
O O2 0.822897 0.191304 0.771824
O O3 0.878722 0.441367 0.760953
O O4 0.092011 0.393155 0.763333
O O5 0.333334 0.666667 0.941408
O O6 0.494940 0.752922 0.883453
O O7 0.775781 0.503306 0.663237
O O8 0.901541 0.234875 0.166667
O O9 0.732351 0.009967 0.126409
O O10 0.818307 0.000000 0.500000
#
# Coordination Sequence:
#
# PCOD9577130 Si02
#       6
#    18   6   6  18   9  18
#     4  12  24  43  64 101 133 184 231 290 360 427
#     4  12  21  45  69  93 132 179 227 282 363 435
#     4  12  24  48  75 111 142 199 256 313 372 444
#     4  11  23  39  66  96 131 174 224 284 360 434
#     4  12  26  44  76 102 148 196 254 306 358 466
#     4  11  23  41  67 100 134 173 228 302 359 423
#
# _framework density 20.920242999999999
#
# number of rings (size 3 to 8) (size 9 to 14) (size 15 to 20)
#    0.000    0.480    4.800    4.080    3.360    0.000 
#    1.440    0.000    0.000    0.480    0.000    0.000 
#    0.000    0.000    0.000    0.000    0.000    0.000 
#
# Total GULP energy -139345.202913 kJ/mol
# GULP energy per Si atom -5573.808117 kJ/mol
# Density = 2.087263 g / cm^3
# Si number density = 20.920243 Si / 1000 Ang^3
#
#
#
# Elastic Constant Matrix: (Units=GPa)
#
#
# Indices 1 2 3 4 5 6 
#
# 1 53.6615 41.4000 18.9809 13.6282 -0.0078 0.0000
# 2 41.4000 53.6610 18.9800 -13.6285 0.0078 0.0000
# 3 18.9809 18.9800 163.0161 -0.0004 0.0000 0.0000
# 4 13.6282 -13.6285 -0.0004 18.9694 0.0000 0.0078
# 5 -0.0078 0.0078 0.0000 0.0000 18.9606 13.6376
# 6 0.0000 0.0000 0.0000 0.0078 13.6376 6.1220
#
#
#
# Elastic Compliance Matrix: (Units=1/GPa)
#
#
# Indices 1 2 3 4 5 6 
#
# 1 -0.062779 0.073812 -0.001284 0.098132 -0.000056 0.000000
# 2 0.073812 -0.062780 -0.001285 -0.098133 0.000056 0.000000
# 3 -0.001284 -0.001285 0.006433 -0.000001 0.000000 0.000000
# 4 0.098132 -0.098133 -0.000001 -0.088288 0.000000 0.000112
# 5 -0.000056 0.000056 0.000000 0.000000 -0.087570 0.195077
# 6 0.000000 0.000000 0.000000 0.000112 0.195077 -0.271218
#
#
# Mechanical properties :
#
#
# Convention : Reuss Voigt Hill
#
# Bulk Modulus (GPa) = 42.80769 47.67339 45.24054
# Shear Modulus (GPa) = -7.13368 21.54225 7.20429
#
# Velocity S-wave (km/s) = -1.84861 3.21243 1.85773
# Velocity P-wave (km/s) = 3.99378 6.04956 5.12579
#
# Compressibility (1/GPa) = 0.02336029
#
# Stress axis : x y z
#
# Youngs Moduli (GPa) = -15.92889 -15.92869 155.43662
#
# Poissons Ratio (x) = 1.17573 0.19958
# Poissons Ratio (y) = 1.17574 0.19975
# Poissons Ratio (z) = -0.02045 -0.02047
#
# Static dielectric constant tensor:
#      x y z
#    x 1.822310 0.000000 0.000000 
#    y 0.000000 1.822320 0.000000 
#    z 0.000000 0.000000 1.733230 
# 
# From -- ./inp_files/8323.got.cif
#   From: 2010.05.17/outbox.cif.g08.bks.cpg/sg155_5_cif.got.tgz:8323.got - 2010.05.20 10:44:35.
