data_PCOD9577774
_publ_section_title
;
Structure prediction by ZEFSAII (Michael W. Deem and Ramdas Pophale) SiO2 
 PCOD9577774
Probable space group: P -3 1 M 
;
_chemical_formula_sum "Si O2"
_cell_formula_units_Z 80
_cell_length_a 18.746572
_cell_length_b 18.746572
_cell_length_c 17.222846
_cell_angle_alpha 90.000000
_cell_angle_beta 90.000000
_cell_angle_gamma 120.000000
_cell_volume 5241.785901
_symmetry_space_group_name_H-M "P -3 1 M "
_symmetry_group_IT_number 162
_symmetry_cell_setting 'hexagonal'
loop_
_space_group_symop_operation_xyz
x,y,z
-y,x-y,z
-x+y,-x,z
-y,-x,-z
-x+y,y,-z
x,x-y,-z
-x,-y,-z
y,-x+y,-z
x-y,x,-z
y,x,z
x-y,-y,z
-x,-x+y,z
loop_
_atom_site_type_symbol
_atom_site_label
_atom_site_fract_x
_atom_site_fract_y
_atom_site_fract_z
Si Si1 0.524740 0.759268 0.410213
Si Si2 0.528064 0.620034 0.678330
Si Si3 0.666667 0.333334 0.185483
Si Si4 0.275688 0.477019 0.845407
Si Si5 0.693212 0.601644 0.839300
Si Si6 0.640031 0.096701 0.694107
Si Si7 0.535205 0.629746 0.011207
Si Si8 0.666668 0.333334 0.626279
O O1 0.547686 0.773843 0.500000
O O2 0.542018 0.841122 0.364745
O O3 0.565318 0.713469 0.365636
O O4 0.425830 0.700953 0.402689
O O5 0.591427 0.591427 0.650814
O O6 0.541889 0.635748 0.770749
O O7 0.437065 0.543776 0.667185
O O8 0.709049 0.429235 0.158849
O O9 0.666668 0.333334 0.279605
O O10 0.180877 0.407122 0.830251
O O11 0.330944 0.470825 0.777538
O O12 0.305160 0.461942 0.927877
O O13 0.682541 0.682541 0.831182
O O14 0.664006 0.568662 0.925884
O O15 0.607451 0.000000 0.697886
O O16 0.586375 0.586375 0.040759
O O17 0.441809 0.558192 0.000000
#
# Coordination Sequence:
#
# PCOD9577774 Si02
#       8
#    12  12   4  12  12  12  12   4
#     4  12  22  34  52  72  96 127 167 216 257 297
#     4  10  20  36  52  69  95 134 169 204 252 305
#     4  12  21  31  53  70  94 134 178 219 251 302
#     4  12  20  33  50  72  99 131 172 213 258 294
#     4  10  20  34  50  67  91 129 171 210 252 301
#     4  11  22  34  51  73 100 128 165 209 255 301
#     4  10  20  32  47  70 101 134 168 207 251 295
#     4  12  19  34  48  73  92 131 172 208 256 298
#
# _framework density 15.261974
#
# number of rings (size 3 to 8) (size 9 to 14) (size 15 to 20)
#    0.000    1.050    4.500    4.050    0.000    3.000 
#    0.000    3.000    0.000    0.000    0.000    0.000 
#    0.000    0.000    0.000    8.100    0.000   32.850 
#
# Total GULP energy -446281.762530 kJ/mol
# GULP energy per Si atom -5578.522032 kJ/mol
# Density = 1.522724 g / cm^3
# Si number density = 15.261974 Si / 1000 Ang^3
#
#
#
# Elastic Constant Matrix: (Units=GPa)
#
#
# Indices 1 2 3 4 5 6 
#
# 1 81.1145 41.3462 26.1845 -0.0005 4.0016 0.0001
# 2 41.3462 81.1148 26.1848 -0.0002 -4.0019 0.0001
# 3 26.1845 26.1848 82.1100 0.0003 0.0002 0.0002
# 4 -0.0005 -0.0002 0.0003 -7.2828 0.0003 -4.0018
# 5 4.0016 -4.0019 0.0002 0.0003 -7.2831 -0.0002
# 6 0.0001 0.0001 0.0002 -4.0018 -0.0002 19.8842
#
#
#
# Elastic Compliance Matrix: (Units=1/GPa)
#
#
# Indices 1 2 3 4 5 6 
#
# 1 0.016049 -0.006593 -0.003015 0.000000 0.012440 0.000000
# 2 -0.006593 0.016049 -0.003015 -0.000001 -0.012441 0.000000
# 3 -0.003015 -0.003015 0.014102 0.000001 0.000000 0.000000
# 4 0.000000 -0.000001 0.000001 -0.123637 -0.000004 -0.024882
# 5 0.012440 -0.012441 0.000000 -0.000004 -0.123632 -0.000002
# 6 0.000000 0.000000 0.000000 -0.024882 -0.000002 0.045283
#
#
# Mechanical properties :
#
#
# Convention : Reuss Voigt Hill
#
# Bulk Modulus (GPa) = 47.72937 47.97448 47.85192
# Shear Modulus (GPa) = -40.46768 11.10524 -14.68122
#
# Velocity S-wave (km/s) = -5.15489 2.70041 -3.10489
# Velocity P-wave (km/s) = 2.02220 6.42068 4.30905
#
# Compressibility (1/GPa) = 0.02095146
#
# Stress axis : x y z
#
# Youngs Moduli (GPa) = 62.31053 62.31102 70.91236
#
# Poissons Ratio (x) = 0.41083 0.21382
# Poissons Ratio (y) = 0.41083 0.21382
# Poissons Ratio (z) = 0.18788 0.18788
#
# Static dielectric constant tensor:
#      x y z
#    x 1.521570 0.000000 0.000000 
#    y 0.000000 1.521570 0.000000 
#    z 0.000000 0.000000 1.530690 
# 
# From -- ./inp_files/3642.got.cif
#   From: 2010.05.17/outbox.cif.g08.bks.cpg/sg162_2_cif.got.tgz:3642.got - 2010.05.20 10:53:12.
