data_PCOD9577828
_publ_section_title
;
Structure prediction by ZEFSAII (Michael W. Deem and Ramdas Pophale) SiO2 
 PCOD9577828
Probable space group: P -3 1 M 
;
_chemical_formula_sum "Si O2"
_cell_formula_units_Z 48
_cell_length_a 12.781762
_cell_length_b 12.781762
_cell_length_c 17.944711
_cell_angle_alpha 90.000000
_cell_angle_beta 90.000000
_cell_angle_gamma 120.000000
_cell_volume 2538.917291
_symmetry_space_group_name_H-M "P -3 1 M "
_symmetry_group_IT_number 162
_symmetry_cell_setting 'hexagonal'
loop_
_space_group_symop_operation_xyz
x,y,z
-y,x-y,z
-x+y,-x,z
-y,-x,-z
-x+y,y,-z
x,x-y,-z
-x,-y,-z
y,-x+y,-z
x-y,x,-z
y,x,z
x-y,-y,z
-x,-x+y,z
loop_
_atom_site_type_symbol
_atom_site_label
_atom_site_fract_x
_atom_site_fract_y
_atom_site_fract_z
Si Si1 0.253087 0.511050 0.411127
Si Si2 0.709265 0.854027 0.700181
Si Si3 0.139566 0.426872 0.847766
Si Si4 0.489887 0.859105 0.925745
O O1 0.396729 0.599319 0.393609
O O2 0.245713 0.491426 0.500000
O O3 0.187818 0.386573 0.367395
O O4 0.799558 0.799558 0.691619
O O5 0.624511 0.785798 0.771712
O O6 0.783780 0.000000 0.707876
O O7 0.162839 0.563675 0.855081
O O8 0.230101 0.429170 0.908947
O O9 0.000000 0.343190 0.867817
O O10 0.575100 0.000000 0.933187
O O11 0.409647 0.819293 0.000000
#
# Coordination Sequence:
#
# PCOD9577828 Si02
#       4
#    12  12  12  12
#     4   8  19  40  64  94 123 157 208 266 322 371
#     4  11  24  40  61  90 128 172 215 258 308 375
#     4  10  22  37  57  86 118 160 202 243 308 373
#     4  10  20  35  58  87 117 151 198 256 309 361
#
# _framework density 18.905697
#
# number of rings (size 3 to 8) (size 9 to 14) (size 15 to 20)
#    0.500    1.750    0.000    2.250    3.500    2.000 
#    0.000    3.750    0.000    2.000    0.000    0.000 
#    0.000   24.000    0.000    0.000    0.000    0.000 
#
# Total GULP energy -267246.507428 kJ/mol
# GULP energy per Si atom -5567.635571 kJ/mol
# Density = 1.886267 g / cm^3
# Si number density = 18.905697 Si / 1000 Ang^3
#
#
#
# Elastic Constant Matrix: (Units=GPa)
#
#
# Indices 1 2 3 4 5 6 
#
# 1 97.7283 52.7114 57.4618 0.0000 -3.1058 0.0000
# 2 52.7114 97.7283 57.4618 0.0000 3.1058 0.0000
# 3 57.4618 57.4618 84.7256 0.0000 0.0000 0.0000
# 4 0.0000 0.0000 0.0000 26.3180 0.0000 3.1058
# 5 -3.1058 3.1058 0.0000 0.0000 26.3180 0.0000
# 6 0.0000 0.0000 0.0000 3.1058 0.0000 22.5084
#
#
#
# Elastic Compliance Matrix: (Units=1/GPa)
#
#
# Indices 1 2 3 4 5 6 
#
# 1 0.018188 -0.004394 -0.009355 0.000000 0.002665 0.000000
# 2 -0.004394 0.018188 -0.009355 0.000000 -0.002665 0.000000
# 3 -0.009355 -0.009355 0.024492 0.000000 0.000000 0.000000
# 4 0.000000 0.000000 0.000000 0.038626 0.000000 -0.005330
# 5 0.002665 -0.002665 0.000000 0.000000 0.038626 0.000000
# 6 0.000000 0.000000 0.000000 -0.005330 0.000000 0.045163
#
#
# Mechanical properties :
#
#
# Convention : Reuss Voigt Hill
#
# Bulk Modulus (GPa) = 68.21551 68.38358 68.29954
# Shear Modulus (GPa) = 21.33320 22.53203 21.93261
#
# Velocity S-wave (km/s) = 3.36281 3.45601 3.40973
# Velocity P-wave (km/s) = 7.15809 7.22321 7.19072
#
# Compressibility (1/GPa) = 0.01465942
#
# Stress axis : x y z
#
# Youngs Moduli (GPa) = 54.98250 54.98250 40.82953
#
# Poissons Ratio (x) = 0.24159 0.38196
# Poissons Ratio (y) = 0.24159 0.38196
# Poissons Ratio (z) = 0.51436 0.51436
#
# Static dielectric constant tensor:
#      x y z
#    x 1.673300 0.000000 0.000000 
#    y 0.000000 1.673300 0.000000 
#    z 0.000000 0.000000 1.677110 
# 
# From -- ./inp_files/3732.got.cif
#   From: 2010.05.17/outbox.cif.g08.bks.cpg/sg162_2_cif.got.tgz:3732.got - 2010.05.20 10:53:12.
