data_PCOD9577786
_publ_section_title
;
Structure prediction by ZEFSAII (Michael W. Deem and Ramdas Pophale) SiO2 
 PCOD9577786
Probable space group: P -3 1 M 
;
_chemical_formula_sum "Si O2"
_cell_formula_units_Z 96
_cell_length_a 17.531162
_cell_length_b 17.531162
_cell_length_c 19.842720
_cell_angle_alpha 90.000000
_cell_angle_beta 90.000000
_cell_angle_gamma 120.000000
_cell_volume 5281.450840
_symmetry_space_group_name_H-M "P -3 1 M "
_symmetry_group_IT_number 162
_symmetry_cell_setting 'hexagonal'
loop_
_space_group_symop_operation_xyz
x,y,z
-y,x-y,z
-x+y,-x,z
-y,-x,-z
-x+y,y,-z
x,x-y,-z
-x,-y,-z
y,-x+y,-z
x-y,x,-z
y,x,z
x-y,-y,z
-x,-x+y,z
loop_
_atom_site_type_symbol
_atom_site_label
_atom_site_fract_x
_atom_site_fract_y
_atom_site_fract_z
Si Si1 0.101817 0.462852 0.234134
Si Si2 0.634151 0.734416 0.105003
Si Si3 0.468413 0.366738 0.532986
Si Si4 0.786039 0.685551 0.556263
Si Si5 0.236180 0.790488 0.352902
Si Si6 0.162860 0.495330 0.983408
Si Si7 0.725616 0.102509 0.142232
Si Si8 0.101016 0.634147 0.279261
O O1 0.116892 0.442651 0.158318
O O2 0.162210 0.446866 0.284970
O O3 0.115214 0.558882 0.246311
O O4 0.000000 0.395564 0.250307
O O5 0.710324 0.710324 0.112123
O O6 0.661054 0.833518 0.124075
O O7 0.589818 0.705089 0.031943
O O8 0.557795 0.442206 0.500000
O O9 0.416211 0.416211 0.559834
O O10 0.401764 0.294739 0.479145
O O11 0.485137 0.311609 0.590015
O O12 0.861765 0.723530 0.500000
O O13 0.749858 0.749858 0.574103
O O14 0.816746 0.650754 0.619172
O O15 0.174672 0.687687 0.335124
O O16 0.137831 0.461070 0.907426
O O17 0.265619 0.531238 0.000000
O O18 0.137728 0.568864 0.000000
O O19 0.699713 0.108785 0.219137
O O20 0.688872 0.000000 0.128152
O O21 0.000000 0.586744 0.306051
#
# Coordination Sequence:
#
# PCOD9577786 Si02
#       8
#    12  12  12  12  12  12  12  12
#     4  10  21  36  53  74 106 145 184 221 265 322
#     4  10  20  36  55  79 107 140 187 237 282 331
#     4   9  19  35  56  78 103 136 175 220 263 309
#     4   9  19  35  56  80 103 130 170 215 261 314
#     4  11  20  34  54  79 105 139 182 217 263 315
#     4  10  20  33  54  81 112 151 193 239 283 325
#     4  10  20  36  55  79 108 143 187 232 283 336
#     4  10  21  36  53  75 109 149 186 226 272 324
#
# _framework density 18.176824
#
# number of rings (size 3 to 8) (size 9 to 14) (size 15 to 20)
#    0.000    2.125    1.250    2.000    1.750    2.500 
#    0.750    0.000    0.000    0.375    0.000    0.000 
#    0.000    4.000    0.000    0.000    0.000    0.000 
#
# Total GULP energy -535536.032072 kJ/mol
# GULP energy per Si atom -5578.500334 kJ/mol
# Density = 1.813545 g / cm^3
# Si number density = 18.176824 Si / 1000 Ang^3
#
#
#
# Elastic Constant Matrix: (Units=GPa)
#
#
# Indices 1 2 3 4 5 6 
#
# 1 78.9805 39.4366 15.0019 -0.0002 -4.2044 0.0000
# 2 39.4366 78.9805 15.0019 0.0002 4.2044 0.0000
# 3 15.0019 15.0019 42.5197 0.0000 0.0000 0.0000
# 4 -0.0002 0.0002 0.0000 19.1415 0.0000 4.2044
# 5 -4.2044 4.2044 0.0000 0.0000 19.1415 -0.0002
# 6 0.0000 0.0000 0.0000 4.2044 -0.0002 19.7720
#
#
#
# Elastic Compliance Matrix: (Units=1/GPa)
#
#
# Indices 1 2 3 4 5 6 
#
# 1 0.017901 -0.008627 -0.003272 0.000000 0.005827 0.000000
# 2 -0.008627 0.017901 -0.003272 0.000000 -0.005827 0.000000
# 3 -0.003272 -0.003272 0.025827 0.000000 0.000000 0.000000
# 4 0.000000 0.000000 0.000000 0.054802 0.000000 -0.011653
# 5 0.005827 -0.005827 0.000000 0.000000 0.054802 0.000001
# 6 0.000000 0.000000 0.000000 -0.011653 0.000001 0.053055
#
#
# Mechanical properties :
#
#
# Convention : Reuss Voigt Hill
#
# Bulk Modulus (GPa) = 31.96226 37.70686 34.83456
# Shear Modulus (GPa) = 18.86380 20.34700 19.60540
#
# Velocity S-wave (km/s) = 3.22498 3.34936 3.28776
# Velocity P-wave (km/s) = 5.61155 5.97889 5.79813
#
# Compressibility (1/GPa) = 0.03128690
#
# Stress axis : x y z
#
# Youngs Moduli (GPa) = 55.86424 55.86424 38.71861
#
# Poissons Ratio (x) = 0.48193 0.12669
# Poissons Ratio (y) = 0.48193 0.12669
# Poissons Ratio (z) = 0.18279 0.18279
#
# Static dielectric constant tensor:
#      x y z
#    x 1.623620 0.000000 0.000000 
#    y 0.000000 1.623620 0.000000 
#    z 0.000000 0.000000 1.658020 
# 
# From -- ./inp_files/3885.got.cif
#   From: 2010.05.17/outbox.cif.g08.bks.cpg/sg162_2_cif.got.tgz:3885.got - 2010.05.20 10:53:12.
