data_PCOD9577100
_publ_section_title
;
Structure prediction by ZEFSAII (Michael W. Deem and Ramdas Pophale) SiO2 
 PCOD9577100
Probable space group: R 3 2
;
_chemical_formula_sum "Si O2"
_cell_formula_units_Z 72
_cell_length_a 22.715187
_cell_length_b 22.715187
_cell_length_c 9.931538
_cell_angle_alpha 90.000000
_cell_angle_beta 90.000000
_cell_angle_gamma 120.000000
_cell_volume 4437.923107
_symmetry_space_group_name_H-M "R 3 2"
_symmetry_group_IT_number 155
_symmetry_cell_setting 'hexagonal'
loop_
_space_group_symop_operation_xyz
x,y,z
-y,x-y,z
-x+y,-x,z
x-y,-y,-z
-x,-x+y,-z
y,x,-z
2/3+x,1/3+y,1/3+z
2/3-y,1/3+x-y,1/3+z
2/3-x+y,1/3-x,1/3+z
2/3+x-y,1/3-y,1/3-z
2/3-x,1/3-x+y,1/3-z
2/3+y,1/3+x,1/3-z
1/3+x,2/3+y,2/3+z
1/3-y,2/3+x-y,2/3+z
1/3-x+y,2/3-x,2/3+z
1/3+x-y,2/3-y,2/3-z
1/3-x,2/3-x+y,2/3-z
1/3+y,2/3+x,2/3-z
loop_
_atom_site_type_symbol
_atom_site_label
_atom_site_fract_x
_atom_site_fract_y
_atom_site_fract_z
Si Si1 0.051336 0.468311 0.895431
Si Si2 0.920389 0.080464 0.352881
Si Si3 0.927698 0.218360 0.301545
Si Si4 0.591846 0.180138 0.008864
O O1 0.075646 0.418854 0.963148
O O2 0.118170 0.542033 0.895087
O O3 0.009701 0.435655 0.759310
O O4 0.000000 0.471900 0.000000
O O5 0.906419 0.139254 0.302057
O O6 0.913612 0.083578 0.515160
O O7 0.997681 0.100294 0.316779
O O8 0.874574 0.004274 0.299703
O O9 0.903408 0.236741 0.166667
#
# Coordination Sequence:
#
# PCOD9577100 Si02
#       4
#    18  18  18  18
#     4  11  19  32  50  77 103 137 168 207 252 308
#     4   9  17  31  50  77 101 130 167 213 254 302
#     4  11  21  32  50  76 109 136 168 207 258 308
#     4   9  17  30  52  75 101 130 169 210 257 299
#
# _framework density 16.223804999999999
#
# number of rings (size 3 to 8) (size 9 to 14) (size 15 to 20)
#    0.000    2.000    2.500    3.500    0.000    2.000 
#    0.000    1.250    0.000    3.000    0.000    3.500 
#    0.000    0.000    0.000    0.000    0.000    0.000 
#
# Total GULP energy -133656.762695 kJ/mol
# GULP energy per Si atom -5569.031779 kJ/mol
# Density = 1.618688 g / cm^3
# Si number density = 16.223805 Si / 1000 Ang^3
#
#
#
# Elastic Constant Matrix: (Units=GPa)
#
#
# Indices 1 2 3 4 5 6 
#
# 1 89.8495 43.7398 10.8203 -0.1465 -0.0003 0.0001
# 2 43.7398 89.8495 10.8202 0.1464 0.0003 0.0001
# 3 10.8203 10.8202 37.4855 -0.0008 0.0009 0.0005
# 4 -0.1465 0.1464 -0.0008 3.6810 -0.0002 0.0002
# 5 -0.0003 0.0003 0.0009 -0.0002 3.6809 -0.1462
# 6 0.0001 0.0001 0.0005 0.0002 -0.1462 23.0550
#
#
#
# Elastic Compliance Matrix: (Units=1/GPa)
#
#
# Indices 1 2 3 4 5 6 
#
# 1 0.014773 -0.006920 -0.002267 0.000863 0.000002 0.000000
# 2 -0.006920 0.014773 -0.002267 -0.000863 -0.000001 0.000000
# 3 -0.002267 -0.002267 0.027986 0.000006 -0.000007 -0.000001
# 4 0.000863 -0.000863 0.000006 0.271737 0.000017 -0.000003
# 5 0.000002 -0.000001 -0.000007 0.000017 0.271740 0.001723
# 6 0.000000 0.000000 -0.000001 -0.000003 0.001723 0.043385
#
#
# Mechanical properties :
#
#
# Convention : Reuss Voigt Hill
#
# Bulk Modulus (GPa) = 28.88146 38.66058 33.77102
# Shear Modulus (GPa) = 7.36549 16.20365 11.78457
#
# Velocity S-wave (km/s) = 2.13302 3.16374 2.69806
# Velocity P-wave (km/s) = 4.88947 6.10139 5.52874
#
# Compressibility (1/GPa) = 0.03462429
#
# Stress axis : x y z
#
# Youngs Moduli (GPa) = 67.69172 67.69167 35.73267
#
# Poissons Ratio (x) = 0.46843 0.08100
# Poissons Ratio (y) = 0.46843 0.08100
# Poissons Ratio (z) = 0.15344 0.15344
#
# Static dielectric constant tensor:
#      x y z
#    x 1.573550 0.000000 0.000000 
#    y 0.000000 1.573550 0.000000 
#    z 0.000000 0.000000 1.538490 
# 
# From -- ./inp_files/2102.got.cif
#   From: 2010.05.17/outbox.cif.g08.bks.cpg/sg155_2_cif.got.tgz:2102.got - 2010.05.20 10:44:35.
