data_PCOD9577028
_publ_section_title
;
Structure prediction by ZEFSAII (Michael W. Deem and Ramdas Pophale) SiO2 
 PCOD9577028
Probable space group: R 3 2
;
_chemical_formula_sum "Si O2"
_cell_formula_units_Z 117
_cell_length_a 14.422067
_cell_length_b 14.422067
_cell_length_c 30.358468
_cell_angle_alpha 90.000000
_cell_angle_beta 90.000000
_cell_angle_gamma 120.000000
_cell_volume 5468.465808
_symmetry_space_group_name_H-M "R 3 2"
_symmetry_group_IT_number 155
_symmetry_cell_setting 'hexagonal'
loop_
_space_group_symop_operation_xyz
x,y,z
-y,x-y,z
-x+y,-x,z
x-y,-y,-z
-x,-x+y,-z
y,x,-z
2/3+x,1/3+y,1/3+z
2/3-y,1/3+x-y,1/3+z
2/3-x+y,1/3-x,1/3+z
2/3+x-y,1/3-y,1/3-z
2/3-x,1/3-x+y,1/3-z
2/3+y,1/3+x,1/3-z
1/3+x,2/3+y,2/3+z
1/3-y,2/3+x-y,2/3+z
1/3-x+y,2/3-x,2/3+z
1/3+x-y,2/3-y,2/3-z
1/3-x,2/3-x+y,2/3-z
1/3+y,2/3+x,2/3-z
loop_
_atom_site_type_symbol
_atom_site_label
_atom_site_fract_x
_atom_site_fract_y
_atom_site_fract_z
Si Si1 0.000000 0.232039 0.500000
Si Si2 0.461694 0.345200 0.703799
Si Si3 0.651976 0.528943 0.929822
Si Si4 0.410157 0.528485 0.486719
Si Si5 0.567990 0.961844 0.395024
Si Si6 0.755861 0.775888 0.948723
Si Si7 0.587545 0.465352 0.195802
O O1 0.968221 0.165834 0.544845
O O2 0.101802 0.343470 0.514438
O O3 0.444637 0.228161 0.711908
O O4 0.573374 0.438237 0.722268
O O5 0.462370 0.364285 0.651764
O O6 0.363348 0.350449 0.727087
O O7 0.672809 0.649141 0.939008
O O8 0.502930 0.502930 0.500000
O O9 0.373776 0.486659 0.437374
O O10 0.311688 0.461047 0.519183
O O11 0.456630 0.652211 0.497943
O O12 0.517793 0.039264 0.393948
O O13 0.849620 0.806961 0.913160
O O14 0.786357 0.786357 0.000000
#
# Coordination Sequence:
#
# PCOD9577028 Si02
#       7
#     9  18  18  18  18  18  18
#     4  10  22  42  66  92 138 182 232 278 372 412
#     4  11  26  43  68 108 142 184 253 287 367 448
#     4  11  24  44  68 101 143 189 230 301 359 444
#     4  12  24  43  71 101 144 182 242 303 361 424
#     4  11  25  43  71 103 138 185 245 298 358 441
#     4  11  23  44  72  96 141 193 236 294 373 423
#     4  11  24  44  67 102 138 185 235 301 359 435
#
# _framework density 21.395398
#
# number of rings (size 3 to 8) (size 9 to 14) (size 15 to 20)
#    0.000    0.923    3.846    2.462    6.462    1.846 
#    0.000    0.000    0.000    1.231    4.000    0.000 
#    0.000    0.000    0.000    0.000    0.000    0.000 
#
# Total GULP energy -218048.506853 kJ/mol
# GULP energy per Si atom -5590.987355 kJ/mol
# Density = 2.134670 g / cm^3
# Si number density = 21.395398 Si / 1000 Ang^3
#
#
#
# Elastic Constant Matrix: (Units=GPa)
#
#
# Indices 1 2 3 4 5 6 
#
# 1 61.2819 44.0590 18.1594 -2.7878 0.0000 0.0000
# 2 44.0590 61.2819 18.1594 2.7878 0.0000 0.0000
# 3 18.1594 18.1594 173.4681 0.0000 0.0000 0.0000
# 4 -2.7878 2.7878 0.0000 27.3406 0.0000 0.0000
# 5 0.0000 0.0000 0.0000 0.0000 27.3406 -2.7878
# 6 0.0000 0.0000 0.0000 0.0000 -2.7878 8.6114
#
#
#
# Elastic Compliance Matrix: (Units=1/GPa)
#
#
# Indices 1 2 3 4 5 6 
#
# 1 0.034946 -0.025098 -0.001031 0.006123 0.000000 0.000000
# 2 -0.025098 0.034946 -0.001031 -0.006123 0.000000 0.000000
# 3 -0.001031 -0.001031 0.005981 0.000000 0.000000 0.000000
# 4 0.006123 -0.006123 0.000000 0.037824 0.000000 0.000000
# 5 0.000000 0.000000 0.000000 0.000000 0.037824 0.012245
# 6 0.000000 0.000000 0.000000 0.000000 0.012245 0.120089
#
#
# Mechanical properties :
#
#
# Convention : Reuss Voigt Hill
#
# Bulk Modulus (GPa) = 46.39599 50.75415 48.57507
# Shear Modulus (GPa) = 15.00981 27.03545 21.02263
#
# Velocity S-wave (km/s) = 2.65154 3.55859 3.13801
# Velocity P-wave (km/s) = 5.57731 6.37638 5.99018
#
# Compressibility (1/GPa) = 0.02155359
#
# Stress axis : x y z
#
# Youngs Moduli (GPa) = 28.61519 28.61519 167.20726
#
# Poissons Ratio (x) = 0.71818 0.17239
# Poissons Ratio (y) = 0.71818 0.17239
# Poissons Ratio (z) = 0.02950 0.02950
#
# Static dielectric constant tensor:
#      x y z
#    x 1.756480 0.000000 0.000000 
#    y 0.000000 1.756480 0.000000 
#    z 0.000000 0.000000 1.786580 
# 
# From -- ./inp_files/8484.got.cif
#   From: 2010.05.17/outbox.cif.g08.bks.cpg/sg155_5_cif.got.tgz:8484.got - 2010.05.20 10:44:35.
