data_PCOD9577966
_publ_section_title
;
Structure prediction by ZEFSAII (Michael W. Deem and Ramdas Pophale) SiO2 
 PCOD9577966
Probable space group: P -3 1 M 
;
_chemical_formula_sum "Si O2"
_cell_formula_units_Z 72
_cell_length_a 24.000000
_cell_length_b 24.000000
_cell_length_c 9.000000
_cell_angle_alpha 90.000000
_cell_angle_beta 90.000000
_cell_angle_gamma 120.000000
_cell_volume 4489.475693
_symmetry_space_group_name_H-M "P -3 1 M "
_symmetry_group_IT_number 162
_symmetry_cell_setting 'hexagonal'
loop_
_space_group_symop_operation_xyz
x,y,z
-y,x-y,z
-x+y,-x,z
-y,-x,-z
-x+y,y,-z
x,x-y,-z
-x,-y,-z
y,-x+y,-z
x-y,x,-z
y,x,z
x-y,-y,z
-x,-x+y,z
loop_
_atom_site_type_symbol
_atom_site_label
_atom_site_fract_x
_atom_site_fract_y
_atom_site_fract_z
Si Si1 0.424986 0.923977 0.854497
Si Si2 0.803534 0.409652 0.321799
Si Si3 0.375588 0.189158 0.680427
Si Si4 0.731417 0.481621 0.180896
Si Si5 0.196450 0.276318 0.906456
Si Si6 0.369899 0.296115 0.147164
O O1 0.421581 0.878079 0.721682
O O2 0.352984 0.910910 0.886498
O O3 0.468936 0.000000 0.821959
O O4 0.454788 0.909576 0.000000
O O5 0.794019 0.397010 0.500000
O O6 0.767744 0.447087 0.258401
O O7 0.779293 0.342827 0.231884
O O8 0.375783 0.187892 0.500000
O O9 0.445881 0.240868 0.751415
O O10 0.315867 0.193935 0.758940
O O11 0.368915 0.121967 0.733103
O O12 0.742146 0.484292 0.000000
O O13 0.222457 0.222457 0.888440
O O14 0.127955 0.255910 0.000000
O O15 0.252384 0.332256 0.006047
O O16 0.331004 0.331004 0.198520
#
# Coordination Sequence:
#
# PCOD9577966 Si02
#       6
#    12  12  12  12  12  12
#     4  10  21  37  57  80 106 143 188 228 278 343
#     4  12  25  39  58  81 109 137 179 241 297 346
#     4  11  22  35  55  85 118 147 182 234 286 332
#     4  12  24  41  58  76 102 145 193 235 289 351
#     4   9  19  36  61  90 120 155 193 230 270 325
#     4   9  18  36  58  80 108 146 188 230 274 333
#
# _framework density 16.037507000000002
#
# number of rings (size 3 to 8) (size 9 to 14) (size 15 to 20)
#    0.000    1.500    1.667    4.833    2.333    1.000 
#    0.000    0.000    0.000    0.167    0.000    0.000 
#    0.000    0.667    0.000    0.000    0.000    0.000 
#
# Total GULP energy -401149.470075 kJ/mol
# GULP energy per Si atom -5571.520418 kJ/mol
# Density = 1.600101 g / cm^3
# Si number density = 16.037507 Si / 1000 Ang^3
#
#
#
# Elastic Constant Matrix: (Units=GPa)
#
#
# Indices 1 2 3 4 5 6 
#
# 1 105.1532 39.1095 40.2169 0.0000 -0.0015 0.0000
# 2 39.1095 105.1532 40.2169 0.0000 0.0015 0.0000
# 3 40.2169 40.2169 130.3475 0.0000 0.0000 0.0000
# 4 0.0000 0.0000 0.0000 27.1839 0.0000 0.0015
# 5 -0.0015 0.0015 0.0000 0.0000 27.1839 0.0000
# 6 0.0000 0.0000 0.0000 0.0015 0.0000 33.0219
#
#
#
# Elastic Compliance Matrix: (Units=1/GPa)
#
#
# Indices 1 2 3 4 5 6 
#
# 1 0.011757 -0.003385 -0.002583 0.000000 0.000001 0.000000
# 2 -0.003385 0.011757 -0.002583 0.000000 -0.000001 0.000000
# 3 -0.002583 -0.002583 0.009266 0.000000 0.000000 0.000000
# 4 0.000000 0.000000 0.000000 0.036786 0.000000 -0.000002
# 5 0.000001 -0.000001 0.000000 0.000000 0.036786 0.000000
# 6 0.000000 0.000000 0.000000 -0.000002 0.000000 0.030283
#
#
# Mechanical properties :
#
#
# Convention : Reuss Voigt Hill
#
# Bulk Modulus (GPa) = 63.78579 64.41559 64.10069
# Shear Modulus (GPa) = 31.45394 32.21866 31.83630
#
# Velocity S-wave (km/s) = 4.43343 4.48700 4.46030
# Velocity P-wave (km/s) = 8.12812 8.19128 8.15976
#
# Compressibility (1/GPa) = 0.01567747
#
# Stress axis : x y z
#
# Youngs Moduli (GPa) = 85.05765 85.05765 107.92462
#
# Poissons Ratio (x) = 0.28790 0.27878
# Poissons Ratio (y) = 0.28790 0.27878
# Poissons Ratio (z) = 0.21971 0.21971
#
# Static dielectric constant tensor:
#      x y z
#    x 1.564890 0.000000 0.000000 
#    y 0.000000 1.564890 0.000000 
#    z 0.000000 0.000000 1.535020 
# 
# From -- ./inp_files/1765.got.cif
#   From: 2010.05.17/outbox.ucp.g08.bks.cvg/sg162_1_cif.got.tgz:1765.got - 2010.06.11 15:15:45.
