data_PCOD9577541
_publ_section_title
;
Structure prediction by ZEFSAII (Michael W. Deem and Ramdas Pophale) SiO2 
 PCOD9577541
Probable space group: R 3 C
;
_chemical_formula_sum "Si O2"
_cell_formula_units_Z 66
_cell_length_a 15.738853
_cell_length_b 15.738853
_cell_length_c 13.916868
_cell_angle_alpha 90.000000
_cell_angle_beta 90.000000
_cell_angle_gamma 120.000000
_cell_volume 2985.508403
_symmetry_space_group_name_H-M "R 3 C"
_symmetry_group_IT_number 161
_symmetry_cell_setting 'hexagonal'
loop_
_space_group_symop_operation_xyz
x,y,z
-y,x-y,z
-x+y,-x,z
-x+y,y,1/2+z
x,x-y,1/2+z
-y,-x,1/2+z
2/3+x,1/3+y,1/3+z
2/3-y,1/3+x-y,1/3+z
2/3-x+y,1/3-x,1/3+z
2/3-x+y,1/3+y,5/6+z
2/3+x,1/3+x-y,5/6+z
2/3-y,1/3-x,5/6+z
1/3+x,2/3+y,2/3+z
1/3-y,2/3+x-y,2/3+z
1/3-x+y,2/3-x,2/3+z
1/3-x+y,2/3+y,1/6+z
1/3+x,2/3+x-y,1/6+z
1/3-y,2/3-x,1/6+z
loop_
_atom_site_type_symbol
_atom_site_label
_atom_site_fract_x
_atom_site_fract_y
_atom_site_fract_z
Si Si1 0.029815 0.629108 0.085468
Si Si2 0.333334 0.666668 0.292185
Si Si3 0.903067 0.627472 0.248147
Si Si4 0.509058 0.746011 0.652621
Si Si5 0.666668 0.333335 0.184016
O O1 0.024581 0.524228 0.086420
O O2 0.050409 0.676211 0.980309
O O3 0.122769 0.706916 0.149146
O O4 0.936387 0.622620 0.139876
O O5 0.270187 0.711978 0.247171
O O6 0.333334 0.666667 0.404969
O O7 0.880118 0.525257 0.298014
O O8 0.434932 0.688069 0.564378
#
# Coordination Sequence:
#
# PCOD9577541 Si02
#       5
#    18   6  18  18   6
#     4  12  27  48  73 107 149 189 238 300 361 424
#     4  10  20  37  76 104 148 193 236 283 382 416
#     4  12  27  48  73 107 149 189 238 300 361 424
#     4  10  22  46  65 111 149 179 245 302 341 448
#     4  10  20  37  73 101 151 190 233 289 379 410
#
# _framework density 22.106788000000002
#
# number of rings (size 3 to 8) (size 9 to 14) (size 15 to 20)
#    0.000    1.091    8.182    0.000    3.818    4.364 
#    0.000    0.000    0.000    0.000    0.000    0.000 
#    0.000    0.000    0.000    0.000    0.000    0.000 
#
# Total GULP energy -122998.727781 kJ/mol
# GULP energy per Si atom -5590.851263 kJ/mol
# Density = 2.205647 g / cm^3
# Si number density = 22.106788 Si / 1000 Ang^3
#
#
#
# Elastic Constant Matrix: (Units=GPa)
#
#
# Indices 1 2 3 4 5 6 
#
# 1 65.6755 38.6913 32.9167 -6.8317 0.0000 0.0000
# 2 38.6913 65.6744 32.9162 6.8311 0.0000 0.0000
# 3 32.9167 32.9162 123.2085 -0.0001 0.0000 0.0000
# 4 -6.8317 6.8311 -0.0001 9.7042 0.0000 0.0000
# 5 0.0000 0.0000 0.0000 0.0000 9.7037 -6.8320
# 6 0.0000 0.0000 0.0000 0.0000 -6.8320 13.4917
#
#
#
# Elastic Compliance Matrix: (Units=1/GPa)
#
#
# Indices 1 2 3 4 5 6 
#
# 1 0.034554 -0.023031 -0.003079 0.040538 0.000000 0.000000
# 2 -0.023031 0.034554 -0.003079 -0.040538 0.000000 0.000000
# 3 -0.003079 -0.003079 0.009761 0.000000 0.000000 0.000000
# 4 0.040538 -0.040538 0.000000 0.160122 0.000000 0.000000
# 5 0.000000 0.000000 0.000000 0.000000 0.160152 0.081099
# 6 0.000000 0.000000 0.000000 0.000000 0.081099 0.115188
#
#
# Mechanical properties :
#
#
# Convention : Reuss Voigt Hill
#
# Bulk Modulus (GPa) = 48.79496 51.51188 50.15342
# Shear Modulus (GPa) = 8.62753 16.58220 12.60487
#
# Velocity S-wave (km/s) = 1.97766 2.74176 2.39044
# Velocity P-wave (km/s) = 5.22830 5.77711 5.50954
#
# Compressibility (1/GPa) = 0.02049392
#
# Stress axis : x y z
#
# Youngs Moduli (GPa) = 28.93988 28.93981 102.44520
#
# Poissons Ratio (x) = 0.66651 0.31540
# Poissons Ratio (y) = 0.66651 0.31539
# Poissons Ratio (z) = 0.08910 0.08909
#
# Static dielectric constant tensor:
#      x y z
#    x 1.852910 0.000000 0.000000 
#    y 0.000000 1.852920 0.000000 
#    z 0.000000 0.000000 1.783340 
# 
# From -- ./inp_files/806.got.cif
#   From: 2010.05.17/outbox.cif.g08.bks.cpg/sg161_cif.got.tgz:806.got - 2010.05.20 10:52:32.
