data_PCOD9577410
_publ_section_title
;
Structure prediction by ZEFSAII (Michael W. Deem and Ramdas Pophale) SiO2 
 PCOD9577410
Probable space group: P 3 1 C
;
_chemical_formula_sum "Si O2"
_cell_formula_units_Z 48
_cell_length_a 15.389322
_cell_length_b 15.389322
_cell_length_c 14.045933
_cell_angle_alpha 90.000000
_cell_angle_beta 90.000000
_cell_angle_gamma 120.000000
_cell_volume 2880.847026
_symmetry_space_group_name_H-M "P 3 1 C"
_symmetry_group_IT_number 159
_symmetry_cell_setting 'hexagonal'
loop_
_space_group_symop_operation_xyz
x,y,z
-y,x-y,z
-x+y,-x,z
y,x,1/2+z
x-y,-y,1/2+z
-x,-x+y,1/2+z
loop_
_atom_site_type_symbol
_atom_site_label
_atom_site_fract_x
_atom_site_fract_y
_atom_site_fract_z
Si Si1 0.302927 0.452411 0.770270
Si Si2 0.850516 0.547589 0.498715
Si Si3 0.692645 0.692645 0.134493
Si Si4 0.056382 0.131771 0.884493
Si Si5 0.516248 0.631995 0.771166
Si Si6 0.115747 0.483752 0.997819
Si Si7 0.096194 0.848418 0.076850
Si Si8 0.752224 0.903806 0.692135
O O1 0.305383 0.441602 0.884493
O O2 0.413571 0.535284 0.738555
O O3 0.221701 0.488298 0.751848
O O4 0.256217 0.343574 0.723258
O O5 0.733403 0.511702 0.517137
O O6 0.878287 0.464716 0.530430
O O7 0.912643 0.656426 0.545727
O O8 0.644666 0.615272 0.221105
O O9 0.711630 0.804974 0.141497
O O10 0.804974 0.711630 0.127488
O O11 0.615272 0.644666 0.047880
O O12 0.089622 0.198579 0.789313
O O13 0.108007 0.061271 0.884493
O O14 0.089622 0.198579 0.979672
O O15 0.524219 0.626010 0.884493
O O16 1.000000 0.831396 0.134493
#
# Coordination Sequence:
#
# PCOD9577410 Si02
#       8
#     6   6   6   6   6   6   6   6
#     4   9  17  32  54  78 107 136 173 222 265 324
#     4   9  17  32  54  78 107 136 173 222 265 324
#     4  10  22  34  54  78 108 138 178 220 280 328
#     4  10  22  36  56  72 104 150 186 232 274 324
#     4   9  18  33  54  81 107 138 175 221 276 326
#     4   9  18  33  54  81 107 138 175 221 276 326
#     4  11  21  36  52  79 109 143 188 227 274 328
#     4  11  21  36  52  79 109 143 188 227 274 328
#
# _framework density 16.661766
#
# number of rings (size 3 to 8) (size 9 to 14) (size 15 to 20)
#    0.250    2.000    1.250    2.000    3.500    2.000 
#    3.000    0.000    0.000    0.000    0.000    0.000 
#    0.000    0.000    0.000    0.000    0.000    0.000 
#
# Total GULP energy -267372.093040 kJ/mol
# GULP energy per Si atom -5570.251938 kJ/mol
# Density = 1.662384 g / cm^3
# Si number density = 16.661766 Si / 1000 Ang^3
#
#
#
# Elastic Constant Matrix: (Units=GPa)
#
#
# Indices 1 2 3 4 5 6 
#
# 1 78.3002 20.1283 31.5935 0.0000 0.0000 0.0000
# 2 20.1283 78.3002 31.5935 0.0000 0.0000 0.0000
# 3 31.5935 31.5935 44.8451 0.0000 0.0000 0.0000
# 4 0.0000 0.0000 0.0000 22.1296 0.0000 0.0000
# 5 0.0000 0.0000 0.0000 0.0000 22.1296 0.0000
# 6 0.0000 0.0000 0.0000 0.0000 0.0000 29.0859
#
#
#
# Elastic Compliance Matrix: (Units=1/GPa)
#
#
# Indices 1 2 3 4 5 6 
#
# 1 0.017869 0.000679 -0.013067 0.000000 0.000000 0.000000
# 2 0.000679 0.017869 -0.013067 0.000000 0.000000 0.000000
# 3 -0.013067 -0.013067 0.040711 0.000000 0.000000 0.000000
# 4 0.000000 0.000000 0.000000 0.045188 0.000000 0.000000
# 5 0.000000 0.000000 0.000000 0.000000 0.045188 0.000000
# 6 0.000000 0.000000 0.000000 0.000000 0.000000 0.034381
#
#
# Mechanical properties :
#
#
# Convention : Reuss Voigt Hill
#
# Bulk Modulus (GPa) = 39.15701 40.89735 40.02718
# Shear Modulus (GPa) = 19.18419 22.54438 20.86428
#
# Velocity S-wave (km/s) = 3.39689 3.68239 3.54252
# Velocity P-wave (km/s) = 6.23998 6.53291 6.38812
#
# Compressibility (1/GPa) = 0.02553821
#
# Stress axis : x y z
#
# Youngs Moduli (GPa) = 55.96160 55.96160 24.56344
#
# Poissons Ratio (x) = -0.03799 0.32098
# Poissons Ratio (y) = -0.03799 0.32098
# Poissons Ratio (z) = 0.73127 0.73127
#
# Static dielectric constant tensor:
#      x y z
#    x 1.571590 0.000000 0.000000 
#    y 0.000000 1.571590 0.000000 
#    z 0.000000 0.000000 1.544550 
# 
# From -- ./inp_files/974.got.cif
#   From: 2010.05.17/outbox.cif.g08.bks.cpg/sg159_cif.got.tgz:974.got - 2010.05.20 10:50:30.
