data_PCOD9577858
_publ_section_title
;
Structure prediction by ZEFSAII (Michael W. Deem and Ramdas Pophale) SiO2 
 PCOD9577858
Probable space group: P -3 1 M 
;
_chemical_formula_sum "Si O2"
_cell_formula_units_Z 36
_cell_length_a 21.326758
_cell_length_b 21.326758
_cell_length_c 5.044493
_cell_angle_alpha 90.000000
_cell_angle_beta 90.000000
_cell_angle_gamma 120.000000
_cell_volume 1986.999863
_symmetry_space_group_name_H-M "P -3 1 M "
_symmetry_group_IT_number 162
_symmetry_cell_setting 'hexagonal'
loop_
_space_group_symop_operation_xyz
x,y,z
-y,x-y,z
-x+y,-x,z
-y,-x,-z
-x+y,y,-z
x,x-y,-z
-x,-y,-z
y,-x+y,-z
x-y,x,-z
y,x,z
x-y,-y,z
-x,-x+y,z
loop_
_atom_site_type_symbol
_atom_site_label
_atom_site_fract_x
_atom_site_fract_y
_atom_site_fract_z
Si Si1 0.162653 0.754993 0.233853
Si Si2 0.500035 0.084712 0.759840
Si Si3 0.134505 0.865496 0.000000
Si Si4 0.915438 0.084563 0.500000
O O1 0.200536 0.799465 0.500000
O O2 0.123506 0.670231 0.276639
O O3 0.221821 0.778180 0.000000
O O4 0.111982 0.785494 0.113734
O O5 0.544848 0.089695 0.500000
O O6 0.444789 0.000000 0.815490
O O7 0.556959 0.113918 0.000000
O O8 0.092529 0.873432 0.752065
O O9 0.000000 0.120044 0.568235
#
# Coordination Sequence:
#
# PCOD9577858 Si02
#       4
#    12  12   6   6
#     4  10  20  39  59  88 116 154 190 240 293 340
#     4  10  21  36  58  87 115 150 187 231 285 343
#     4  10  22  42  61  88 112 156 196 242 298 354
#     4  12  25  42  60  84 118 158 204 250 300 356
#
# _framework density 18.117768000000002
#
# number of rings (size 3 to 8) (size 9 to 14) (size 15 to 20)
#    1.000    0.667    1.667    3.167    0.000    2.667 
#    0.000    1.667    0.000   13.333    0.000    0.000 
#    0.000    0.000    0.000    0.000    0.000    0.000 
#
# Total GULP energy -200521.390312 kJ/mol
# GULP energy per Si atom -5570.038620 kJ/mol
# Density = 1.807653 g / cm^3
# Si number density = 18.117768 Si / 1000 Ang^3
#
#
#
# Elastic Constant Matrix: (Units=GPa)
#
#
# Indices 1 2 3 4 5 6 
#
# 1 92.8083 65.2963 29.0958 0.0001 -5.5220 0.0000
# 2 65.2963 92.8083 29.0958 -0.0001 5.5220 0.0000
# 3 29.0958 29.0958 109.7635 0.0000 0.0000 0.0000
# 4 0.0001 -0.0001 0.0000 8.8837 0.0000 5.5220
# 5 -5.5220 5.5220 0.0000 0.0000 8.8837 0.0001
# 6 0.0000 0.0000 0.0000 5.5220 0.0001 13.7560
#
#
#
# Elastic Compliance Matrix: (Units=1/GPa)
#
#
# Indices 1 2 3 4 5 6 
#
# 1 0.027721 -0.020712 -0.001858 0.000000 0.030105 0.000000
# 2 -0.020712 0.027721 -0.001858 0.000000 -0.030105 0.000000
# 3 -0.001858 -0.001858 0.010095 0.000000 0.000000 0.000000
# 4 0.000000 0.000000 0.000000 0.149991 0.000000 -0.060210
# 5 0.030105 -0.030105 0.000000 0.000000 0.149991 -0.000001
# 6 0.000000 0.000000 0.000000 -0.060210 -0.000001 0.096865
#
#
# Mechanical properties :
#
#
# Convention : Reuss Voigt Hill
#
# Bulk Modulus (GPa) = 59.94671 60.26177 60.10424
# Shear Modulus (GPa) = 9.67494 17.76418 13.71956
#
# Velocity S-wave (km/s) = 2.31336 3.13466 2.75479
# Velocity P-wave (km/s) = 6.34780 6.81431 6.58519
#
# Compressibility (1/GPa) = 0.01668148
#
# Stress axis : x y z
#
# Youngs Moduli (GPa) = 36.07431 36.07431 99.05460
#
# Poissons Ratio (x) = 0.74717 0.18403
# Poissons Ratio (y) = 0.74717 0.18403
# Poissons Ratio (z) = 0.06702 0.06702
#
# Static dielectric constant tensor:
#      x y z
#    x 1.617200 0.000000 0.000000 
#    y 0.000000 1.617200 0.000000 
#    z 0.000000 0.000000 1.631880 
# 
# From -- ./inp_files/297.got.cif
#   From: 2010.05.17/outbox.cif.g08.bks.cpg/sg162_1_cif.got.tgz:297.got - 2010.05.20 10:53:12.
