data_PCOD9577223
_publ_section_title
;
Structure prediction by ZEFSAII (Michael W. Deem and Ramdas Pophale) SiO2 
 PCOD9577223
Probable space group: P 3 M 1
;
_chemical_formula_sum "Si O2"
_cell_formula_units_Z 48
_cell_length_a 12.817630
_cell_length_b 12.817630
_cell_length_c 20.714729
_cell_angle_alpha 90.000000
_cell_angle_beta 90.000000
_cell_angle_gamma 120.000000
_cell_volume 2947.306823
_symmetry_space_group_name_H-M "P 3 M 1"
_symmetry_group_IT_number 156
_symmetry_cell_setting 'hexagonal'
loop_
_space_group_symop_operation_xyz
x,y,z
-y,x-y,z
-x+y,-x,z
-x+y,y,z
x,x-y,z
-y,-x,z
loop_
_atom_site_type_symbol
_atom_site_label
_atom_site_fract_x
_atom_site_fract_y
_atom_site_fract_z
Si Si1 0.246792 0.000015 0.285210
Si Si2 0.419900 0.332953 0.551664
Si Si3 0.913435 0.579721 0.402869
Si Si4 0.333348 0.419891 0.669323
Si Si5 0.581044 0.666641 0.039056
Si Si6 0.666459 0.085717 0.162585
Si Si7 0.419051 0.085925 0.791947
Si Si8 0.247736 0.247710 0.915477
O O1 0.127188 0.872813 0.278539
O O2 0.216699 0.108350 0.286025
O O3 0.317578 0.010690 0.351249
O O4 0.336982 0.027358 0.225476
O O5 0.413910 0.206955 0.564693
O O6 0.557748 0.442252 0.557620
O O7 0.383271 0.333335 0.477267
O O8 0.344025 0.359781 0.603285
O O9 0.775587 0.551174 0.396914
O O10 0.919422 0.459711 0.389840
O O11 0.206146 0.412291 0.675993
O O12 0.441682 0.558319 0.668508
O O13 0.360691 0.357044 0.729058
O O14 0.568398 0.784199 0.049649
O O15 0.451074 0.548927 0.028052
O O16 0.639431 0.640218 0.101190
O O17 0.666667 0.693197 0.977266
O O18 0.550622 0.101243 0.172491
O O19 0.785486 0.214515 0.151623
O O20 0.547849 0.095697 0.802909
O O21 0.434578 0.217289 0.782040
O O22 0.332548 0.026452 0.853343
O O23 0.235477 0.117739 0.926480
O O24 0.117534 0.235067 0.904882
#
# Coordination Sequence:
#
# PCOD9577223 Si02
#       8
#     6   6   6   6   6   6   6   6
#     4  10  20  33  49  69  95 128 164 200 238 283
#     4   9  17  30  50  75 100 126 158 199 246 292
#     4   9  17  30  50  75 100 126 158 199 246 292
#     4  10  20  33  49  69  95 128 164 200 238 283
#     4  10  20  34  52  74 101 133 168 204 243 288
#     4  10  20  34  53  76 100 126 158 199 247 295
#     4  10  20  34  53  76 100 126 158 199 247 295
#     4  10  20  34  52  74 101 133 168 204 243 288
#
# _framework density 16.286055000000001
#
# number of rings (size 3 to 8) (size 9 to 14) (size 15 to 20)
#    0.000    2.250    0.000    3.250    0.000    1.500 
#    0.000    2.500    0.000   17.500    0.000    0.000 
#    0.000    0.000    0.000    0.000    0.000    0.000 
#
# Total GULP energy -267848.799064 kJ/mol
# GULP energy per Si atom -5580.183314 kJ/mol
# Density = 1.624899 g / cm^3
# Si number density = 16.286055 Si / 1000 Ang^3
#
#
#
# Elastic Constant Matrix: (Units=GPa)
#
#
# Indices 1 2 3 4 5 6 
#
# 1 131.6939 92.1229 86.0218 3.0916 0.0001 0.0000
# 2 92.1229 131.6939 86.0218 -3.0916 -0.0001 0.0000
# 3 86.0218 86.0218 111.4506 0.0000 0.0000 0.0000
# 4 3.0916 -3.0916 0.0000 22.8050 0.0000 -0.0001
# 5 0.0001 -0.0001 0.0000 0.0000 22.8050 3.0916
# 6 0.0000 0.0000 0.0000 -0.0001 3.0916 19.7855
#
#
#
# Elastic Compliance Matrix: (Units=1/GPa)
#
#
# Indices 1 2 3 4 5 6 
#
# 1 0.018402 -0.007416 -0.008479 -0.003500 0.000000 0.000000
# 2 -0.007416 0.018402 -0.008479 0.003500 0.000000 0.000000
# 3 -0.008479 -0.008479 0.022062 0.000000 0.000000 0.000000
# 4 -0.003500 0.003500 0.000000 0.044799 0.000000 0.000000
# 5 0.000000 0.000000 0.000000 0.000000 0.044799 -0.007000
# 6 0.000000 0.000000 0.000000 0.000000 -0.007000 0.051636
#
#
# Mechanical properties :
#
#
# Convention : Reuss Voigt Hill
#
# Bulk Modulus (GPa) = 98.84962 100.35238 99.60100
# Shear Modulus (GPa) = 19.82393 20.45724 20.14058
#
# Velocity S-wave (km/s) = 3.49267 3.54802 3.52046
# Velocity P-wave (km/s) = 8.78024 8.86211 8.82127
#
# Compressibility (1/GPa) = 0.01011638
#
# Stress axis : x y z
#
# Youngs Moduli (GPa) = 54.34235 54.34235 45.32729
#
# Poissons Ratio (x) = 0.40301 0.38434
# Poissons Ratio (y) = 0.40301 0.38434
# Poissons Ratio (z) = 0.46078 0.46078
#
# Static dielectric constant tensor:
#      x y z
#    x 1.515500 0.000000 0.000000 
#    y 0.000000 1.515500 0.000000 
#    z 0.000000 0.000000 1.536080 
# 
# From -- ./inp_files/1078.got.cif
#   From: 2010.05.17/outbox.cif.g08.bks.cpg/sg156_cif.got.tgz:1078.got - 2010.05.20 10:49:08.
