data_PCOD9577136
_publ_section_title
;
Structure prediction by ZEFSAII (Michael W. Deem and Ramdas Pophale) SiO2 
 PCOD9577136
Probable space group: R 3 2
;
_chemical_formula_sum "Si O2"
_cell_formula_units_Z 135
_cell_length_a 17.780577
_cell_length_b 17.780577
_cell_length_c 23.904221
_cell_angle_alpha 90.000000
_cell_angle_beta 90.000000
_cell_angle_gamma 120.000000
_cell_volume 6544.808255
_symmetry_space_group_name_H-M "R 3 2"
_symmetry_group_IT_number 155
_symmetry_cell_setting 'hexagonal'
loop_
_space_group_symop_operation_xyz
x,y,z
-y,x-y,z
-x+y,-x,z
x-y,-y,-z
-x,-x+y,-z
y,x,-z
2/3+x,1/3+y,1/3+z
2/3-y,1/3+x-y,1/3+z
2/3-x+y,1/3-x,1/3+z
2/3+x-y,1/3-y,1/3-z
2/3-x,1/3-x+y,1/3-z
2/3+y,1/3+x,1/3-z
1/3+x,2/3+y,2/3+z
1/3-y,2/3+x-y,2/3+z
1/3-x+y,2/3-x,2/3+z
1/3+x-y,2/3-y,2/3-z
1/3-x,2/3-x+y,2/3-z
1/3+y,2/3+x,2/3-z
loop_
_atom_site_type_symbol
_atom_site_label
_atom_site_fract_x
_atom_site_fract_y
_atom_site_fract_z
Si Si1 0.143459 0.296769 0.660419
Si Si2 0.363149 0.333334 0.833334
Si Si3 0.909533 0.083373 0.968552
Si Si4 0.618666 0.128707 0.183001
Si Si5 0.055241 0.248790 0.372058
Si Si6 0.458934 0.535672 0.453179
Si Si7 0.741727 0.964878 0.381343
Si Si8 0.046968 0.288485 0.197521
O O1 0.171711 0.394413 0.641899
O O2 0.167468 0.294316 0.725311
O O3 0.196995 0.263036 0.626281
O O4 0.042995 0.232976 0.646298
O O5 0.356075 0.411020 0.803925
O O6 0.379880 0.288000 0.779824
O O7 0.898781 0.053096 0.904238
O O8 0.000000 0.111863 0.000000
O O9 0.834986 0.000000 0.000000
O O10 0.697524 0.185691 0.139556
O O11 0.518425 0.076481 0.163582
O O12 0.096770 0.333334 0.333334
O O13 0.119980 0.210851 0.370001
O O14 0.067763 0.295183 0.431262
O O15 0.494892 0.494892 0.500000
O O16 0.530159 0.636991 0.445441
O O17 0.666667 0.932225 0.333334
O O18 0.990317 0.323650 0.166667
#
# Coordination Sequence:
#
# PCOD9577136 Si02
#       8
#    18   9  18  18  18  18  18  18
#     4  12  24  43  73 104 135 189 244 303 366 442
#     4  12  22  44  68 106 130 180 238 292 354 422
#     4  12  28  45  69 102 146 194 244 303 371 448
#     4  12  25  44  71 100 139 186 241 300 362 438
#     4  11  23  44  68  97 137 181 231 297 364 430
#     4  11  25  41  68  98 140 179 236 296 356 425
#     4  11  25  43  69 100 140 178 235 294 357 430
#     4  11  25  44  68 101 135 181 235 294 355 435
#
# _framework density 20.627034999999999
#
# number of rings (size 3 to 8) (size 9 to 14) (size 15 to 20)
#    0.000    0.533    4.667    3.333    7.467    0.000 
#    1.600    0.000    0.000    0.000    1.733    0.000 
#    0.000    0.000    0.000    0.000    0.000    0.000 
#
# Total GULP energy -250704.156264 kJ/mol
# GULP energy per Si atom -5571.203473 kJ/mol
# Density = 2.058009 g / cm^3
# Si number density = 20.627035 Si / 1000 Ang^3
#
#
#
# Elastic Constant Matrix: (Units=GPa)
#
#
# Indices 1 2 3 4 5 6 
#
# 1 79.6977 19.8797 14.6574 9.2560 -0.0002 0.0000
# 2 19.8797 79.6977 14.6574 -9.2560 0.0002 0.0000
# 3 14.6574 14.6574 89.2065 0.0000 0.0000 0.0000
# 4 9.2560 -9.2560 0.0000 28.1776 0.0000 0.0002
# 5 -0.0002 0.0002 0.0000 0.0000 28.1776 9.2560
# 6 0.0000 0.0000 0.0000 0.0002 9.2560 29.9090
#
#
#
# Elastic Compliance Matrix: (Units=1/GPa)
#
#
# Indices 1 2 3 4 5 6 
#
# 1 0.014581 -0.004028 -0.001734 -0.006113 0.000000 0.000000
# 2 -0.004028 0.014581 -0.001734 0.006113 0.000000 0.000000
# 3 -0.001734 -0.001734 0.011780 0.000000 0.000000 0.000000
# 4 -0.006113 0.006113 0.000000 0.039505 0.000000 0.000000
# 5 0.000000 0.000000 0.000000 0.000000 0.039505 -0.012226
# 6 0.000000 0.000000 0.000000 0.000000 -0.012226 0.037218
#
#
# Mechanical properties :
#
#
# Convention : Reuss Voigt Hill
#
# Bulk Modulus (GPa) = 38.53593 38.55454 38.54524
# Shear Modulus (GPa) = 27.65297 30.54666 29.09981
#
# Velocity S-wave (km/s) = 3.66542 3.85243 3.76008
# Velocity P-wave (km/s) = 6.05281 6.20646 6.13011
#
# Compressibility (1/GPa) = 0.02594981
#
# Stress axis : x y z
#
# Youngs Moduli (GPa) = 68.58230 68.58230 84.89144
#
# Poissons Ratio (x) = 0.27626 0.14720
# Poissons Ratio (y) = 0.27626 0.14720
# Poissons Ratio (z) = 0.11892 0.11892
#
# Static dielectric constant tensor:
#      x y z
#    x 1.793970 0.000000 0.000000 
#    y 0.000000 1.793970 0.000000 
#    z 0.000000 0.000000 1.828080 
# 
# From -- ./inp_files/7585.got.cif
#   From: 2010.05.17/outbox.cif.g08.bks.cpg/sg155_4_cif.got.tgz:7585.got - 2010.05.20 10:44:35.
