data_PCOD9577987
_publ_section_title
;
Structure prediction by ZEFSAII (Michael W. Deem and Ramdas Pophale) SiO2 
 PCOD9577987
Probable space group: P -3 1 C
;
_chemical_formula_sum "Si O2"
_cell_formula_units_Z 60
_cell_length_a 28.421360
_cell_length_b 28.421360
_cell_length_c 5.213234
_cell_angle_alpha 90.000000
_cell_angle_beta 90.000000
_cell_angle_gamma 120.000000
_cell_volume 3646.931130
_symmetry_space_group_name_H-M "P -3 1 C"
_symmetry_group_IT_number 163
_symmetry_cell_setting 'hexagonal'
loop_
_space_group_symop_operation_xyz
x,y,z
-y,x-y,z
-x+y,-x,z
-y,-x,1/2-z
-x+y,y,1/2-z
x,x-y,1/2-z
-x,-y,-z
y,-x+y,-z
x-y,x,-z
y,x,1/2+z
x-y,-y,1/2+z
-x,-x+y,1/2+z
loop_
_atom_site_type_symbol
_atom_site_label
_atom_site_fract_x
_atom_site_fract_y
_atom_site_fract_z
Si Si1 0.407766 0.259910 0.760309
Si Si2 0.132922 0.535609 0.996089
Si Si3 0.977411 0.564681 0.063728
Si Si4 0.476474 0.292746 0.255463
Si Si5 0.694588 0.022969 0.628905
O O1 0.393445 0.196723 0.750000
O O2 0.455128 0.292646 0.543817
O O3 0.362466 0.275878 0.692618
O O4 0.427597 0.276425 0.052592
O O5 0.144553 0.572277 0.250000
O O6 0.081714 0.475537 0.046555
O O7 0.117715 0.558858 0.750000
O O8 0.178636 0.524958 0.872348
O O9 0.016869 0.564022 0.847830
O O10 0.995820 0.628324 0.097522
O O11 0.490507 0.245254 0.250000
O O12 0.701235 0.989926 0.858740
#
# Coordination Sequence:
#
# PCOD9577987 Si02
#       5
#    12  12  12  12  12
#     4  10  19  33  54  75  94 123 164 204 236 273
#     4  12  24  35  49  71  97 121 151 188 231 295
#     4  10  19  31  45  62  93 127 152 174 211 272
#     4  10  20  36  55  71  90 117 152 196 243 287
#     4  10  18  29  47  68  96 128 157 192 236 281
#
# _framework density 16.452190000000002
#
# number of rings (size 3 to 8) (size 9 to 14) (size 15 to 20)
#    0.000    1.600    0.000    8.400    0.000    2.400 
#    0.000    0.000    0.000    0.400    0.000    4.200 
#    0.000    0.000    0.000    0.000    0.000    0.000 
#
# Total GULP energy -334023.537659 kJ/mol
# GULP energy per Si atom -5567.058961 kJ/mol
# Density = 1.641474 g / cm^3
# Si number density = 16.452190 Si / 1000 Ang^3
#
#
#
# Elastic Constant Matrix: (Units=GPa)
#
#
# Indices 1 2 3 4 5 6 
#
# 1 53.6762 22.3199 9.1519 0.0001 -6.1541 0.0000
# 2 22.3199 53.6762 9.1519 -0.0001 6.1541 0.0000
# 3 9.1519 9.1519 117.7049 0.0000 0.0000 0.0000
# 4 0.0001 -0.0001 0.0000 19.5908 0.0000 6.1541
# 5 -6.1541 6.1541 0.0000 0.0000 19.5908 0.0001
# 6 0.0000 0.0000 0.0000 6.1541 0.0001 15.6781
#
#
#
# Elastic Compliance Matrix: (Units=1/GPa)
#
#
# Indices 1 2 3 4 5 6 
#
# 1 0.024893 -0.011484 -0.001043 0.000000 0.011427 0.000000
# 2 -0.011484 0.024893 -0.001043 0.000000 -0.011427 0.000000
# 3 -0.001043 -0.001043 0.008658 0.000000 0.000000 0.000000
# 4 0.000000 0.000000 0.000000 0.058224 0.000000 -0.022854
# 5 0.011427 -0.011427 0.000000 0.000000 0.058224 0.000000
# 6 0.000000 0.000000 0.000000 -0.022854 0.000000 0.072754
#
#
# Mechanical properties :
#
#
# Convention : Reuss Voigt Hill
#
# Bulk Modulus (GPa) = 31.94198 34.03388 32.98793
# Shear Modulus (GPa) = 17.53036 23.26753 20.39894
#
# Velocity S-wave (km/s) = 3.26779 3.76473 3.52503
# Velocity P-wave (km/s) = 5.80475 6.29516 6.05492
#
# Compressibility (1/GPa) = 0.03130676
#
# Stress axis : x y z
#
# Youngs Moduli (GPa) = 40.17134 40.17134 115.50066
#
# Poissons Ratio (x) = 0.46131 0.12043
# Poissons Ratio (y) = 0.46131 0.12043
# Poissons Ratio (z) = 0.04188 0.04188
#
# Static dielectric constant tensor:
#      x y z
#    x 1.679220 0.000000 0.000000 
#    y 0.000000 1.679220 0.000000 
#    z 0.000000 0.000000 1.952740 
# 
# From -- ./inp_files/370.got.cif
#   From: 2010.05.17/outbox.cif.g08.bks.cpg/sg163_1_cif.got.tgz:370.got - 2010.05.20 10:56:03.
