data_PCOD9577097
_publ_section_title
;
Structure prediction by ZEFSAII (Michael W. Deem and Ramdas Pophale) SiO2 
 PCOD9577097
Probable space group: R 3 2
;
_chemical_formula_sum "Si O2"
_cell_formula_units_Z 81
_cell_length_a 13.738981
_cell_length_b 13.738981
_cell_length_c 17.845867
_cell_angle_alpha 90.000000
_cell_angle_beta 90.000000
_cell_angle_gamma 120.000000
_cell_volume 2917.274726
_symmetry_space_group_name_H-M "R 3 2"
_symmetry_group_IT_number 155
_symmetry_cell_setting 'hexagonal'
loop_
_space_group_symop_operation_xyz
x,y,z
-y,x-y,z
-x+y,-x,z
x-y,-y,-z
-x,-x+y,-z
y,x,-z
2/3+x,1/3+y,1/3+z
2/3-y,1/3+x-y,1/3+z
2/3-x+y,1/3-x,1/3+z
2/3+x-y,1/3-y,1/3-z
2/3-x,1/3-x+y,1/3-z
2/3+y,1/3+x,1/3-z
1/3+x,2/3+y,2/3+z
1/3-y,2/3+x-y,2/3+z
1/3-x+y,2/3-x,2/3+z
1/3+x-y,2/3-y,2/3-z
1/3-x,2/3-x+y,2/3-z
1/3+y,2/3+x,2/3-z
loop_
_atom_site_type_symbol
_atom_site_label
_atom_site_fract_x
_atom_site_fract_y
_atom_site_fract_z
Si Si1 0.333334 0.119542 0.666667
Si Si2 0.000000 0.873046 0.000000
Si Si3 0.205977 0.894141 0.583598
Si Si4 0.189697 0.217456 0.718777
Si Si5 0.731494 0.000000 0.500000
Si Si6 0.129276 0.924993 0.856010
O O1 0.225436 0.135346 0.678570
O O2 0.361881 0.316194 0.565811
O O3 0.033402 0.851946 0.918152
O O4 0.896613 0.896613 0.000000
O O5 0.132796 0.839663 0.661662
O O6 0.288788 0.853157 0.549334
O O7 0.102941 0.848984 0.526960
O O8 0.290349 0.023935 0.602485
O O9 0.088385 0.154383 0.777784
O O10 0.191877 0.858544 0.833334
#
# Coordination Sequence:
#
# PCOD9577097 Si02
#       6
#     9   9  18  18   9  18
#     4  12  30  58  90 138 190 240 314 403 469 572
#     4  10  30  48  78 124 174 212 302 375 447 546
#     4  12  31  57  93 130 185 248 317 383 473 576
#     4  12  29  56  87 133 187 238 308 397 474 550
#     4  12  28  54  98 128 188 250 316 388 482 550
#     4  12  30  49  91 130 173 243 308 375 479 545
#
# _framework density 27.765637999999999
#
# number of rings (size 3 to 8) (size 9 to 14) (size 15 to 20)
#    0.222    0.000    3.333    1.333   14.000    2.667 
#    1.333    0.000    2.444    0.000    0.000    0.000 
#    0.000    0.000    0.000    0.000    0.000    0.000 
#
# Total GULP energy -150556.377726 kJ/mol
# GULP energy per Si atom -5576.162138 kJ/mol
# Density = 2.770244 g / cm^3
# Si number density = 27.765638 Si / 1000 Ang^3
#
#
#
# Elastic Constant Matrix: (Units=GPa)
#
#
# Indices 1 2 3 4 5 6 
#
# 1 229.2286 -4.1914 80.7756 -50.1087 0.0001 0.0000
# 2 -4.1914 229.2286 80.7756 50.1087 -0.0001 0.0000
# 3 80.7756 80.7756 176.8092 0.0000 0.0000 0.0000
# 4 -50.1087 50.1087 0.0000 106.7526 0.0000 -0.0001
# 5 0.0001 -0.0001 0.0000 0.0000 106.7526 -50.1087
# 6 0.0000 0.0000 0.0000 -0.0001 -50.1087 116.7100
#
#
#
# Elastic Compliance Matrix: (Units=1/GPa)
#
#
# Indices 1 2 3 4 5 6 
#
# 1 0.005989 0.000623 -0.003021 0.002518 0.000000 0.000000
# 2 0.000623 0.005989 -0.003021 -0.002518 0.000000 0.000000
# 3 -0.003021 -0.003021 0.008416 0.000000 0.000000 0.000000
# 4 0.002518 -0.002518 0.000000 0.011732 0.000000 0.000000
# 5 0.000000 0.000000 0.000000 0.000000 0.011732 0.005037
# 6 0.000000 0.000000 0.000000 0.000000 0.005037 0.010731
#
#
# Mechanical properties :
#
#
# Convention : Reuss Voigt Hill
#
# Bulk Modulus (GPa) = 104.63281 105.55399 105.09340
# Shear Modulus (GPa) = 72.87534 97.90349 85.38942
#
# Velocity S-wave (km/s) = 5.12870 5.94451 5.55161
# Velocity P-wave (km/s) = 8.53449 9.23119 8.88967
#
# Compressibility (1/GPa) = 0.00955723
#
# Stress axis : x y z
#
# Youngs Moduli (GPa) = 166.97617 166.97617 118.82152
#
# Poissons Ratio (x) = -0.10410 0.35894
# Poissons Ratio (y) = -0.10410 0.35894
# Poissons Ratio (z) = 0.50441 0.50441
#
# Static dielectric constant tensor:
#      x y z
#    x 2.165490 0.000000 0.000000 
#    y 0.000000 2.165490 0.000000 
#    z 0.000000 0.000000 2.533280 
# 
# From -- ./inp_files/6903.got.cif
#   From: 2010.05.17/outbox.cif.g08.bks.cpg/sg155_4_cif.got.tgz:6903.got - 2010.05.20 10:44:35.
