data_PCOD9577357
_publ_section_title
;
Structure prediction by ZEFSAII (Michael W. Deem and Ramdas Pophale) SiO2 
 PCOD9577357
Probable space group: P 3 1 C
;
_chemical_formula_sum "Si O2"
_cell_formula_units_Z 28
_cell_length_a 14.189885
_cell_length_b 14.189885
_cell_length_c 8.699887
_cell_angle_alpha 90.000000
_cell_angle_beta 90.000000
_cell_angle_gamma 120.000000
_cell_volume 1517.057336
_symmetry_space_group_name_H-M "P 3 1 C"
_symmetry_group_IT_number 159
_symmetry_cell_setting 'hexagonal'
loop_
_space_group_symop_operation_xyz
x,y,z
-y,x-y,z
-x+y,-x,z
y,x,1/2+z
x-y,-y,1/2+z
-x,-x+y,1/2+z
loop_
_atom_site_type_symbol
_atom_site_label
_atom_site_fract_x
_atom_site_fract_y
_atom_site_fract_z
Si Si1 0.664815 0.117503 0.356090
Si Si2 0.765153 0.881258 0.486970
Si Si3 0.664815 0.117503 0.985905
Si Si4 0.333334 0.666668 0.483045
Si Si5 0.333334 0.666668 0.858947
Si Si6 0.116105 0.234847 0.855026
O O1 0.658214 0.112250 0.170998
O O2 0.650131 0.217304 0.408392
O O3 0.784870 0.138772 0.398714
O O4 0.578534 0.000000 0.420998
O O5 0.646098 0.861228 0.443281
O O6 0.772760 0.883582 0.670998
O O7 0.793788 0.793788 0.420998
O O8 0.850357 0.000000 0.420998
O O9 0.650132 0.217303 0.933601
O O10 0.333334 0.666667 0.670996
#
# Coordination Sequence:
#
# PCOD9577357 Si02
#       6
#     6   6   6   2   2   6
#     4   9  19  35  54  75 102 133 167 206 249 296
#     4  10  19  31  48  72 101 134 169 208 251 297
#     4   9  19  35  54  75 102 133 167 206 249 296
#     4   9  18  36  58  77 100 135 169 200 247 303
#     4   9  18  36  58  77 100 135 169 200 247 303
#     4  10  19  31  48  72 101 134 169 208 251 297
#
# _framework density 18.456786000000001
#
# number of rings (size 3 to 8) (size 9 to 14) (size 15 to 20)
#    0.000    2.571    0.000    1.714    0.000    3.429 
#    0.000    2.143    0.000    0.000    0.000    0.000 
#    0.000    0.000    0.000    0.000    0.000    0.000 
#
# Total GULP energy -156238.826305 kJ/mol
# GULP energy per Si atom -5579.958082 kJ/mol
# Density = 1.841478 g / cm^3
# Si number density = 18.456786 Si / 1000 Ang^3
#
#
#
# Elastic Constant Matrix: (Units=GPa)
#
#
# Indices 1 2 3 4 5 6 
#
# 1 135.5823 97.3698 24.8205 0.0001 0.0001 0.0001
# 2 97.3698 135.5832 24.8205 0.0001 0.0000 0.0007
# 3 24.8205 24.8205 18.8929 0.0000 0.0000 0.0000
# 4 0.0001 0.0001 0.0000 21.0107 -0.0001 0.0000
# 5 0.0001 0.0000 0.0000 -0.0001 21.0108 0.0000
# 6 0.0001 0.0007 0.0000 0.0000 0.0000 19.1068
#
#
#
# Elastic Compliance Matrix: (Units=1/GPa)
#
#
# Indices 1 2 3 4 5 6 
#
# 1 0.016065 -0.010104 -0.007832 0.000000 0.000000 0.000000
# 2 -0.010104 0.016065 -0.007832 0.000000 0.000000 -0.000001
# 3 -0.007832 -0.007832 0.073509 0.000000 0.000000 0.000000
# 4 0.000000 0.000000 0.000000 0.047595 0.000000 0.000000
# 5 0.000000 0.000000 0.000000 0.000000 0.047595 0.000000
# 6 0.000000 -0.000001 0.000000 0.000000 0.000000 0.052337
#
#
# Mechanical properties :
#
#
# Convention : Reuss Voigt Hill
#
# Bulk Modulus (GPa) = 18.48306 64.89779 41.69043
# Shear Modulus (GPa) = 15.49248 21.76217 18.62733
#
# Velocity S-wave (km/s) = 2.90037 3.43751 3.18030
# Velocity P-wave (km/s) = 4.61001 7.14098 6.01023
#
# Compressibility (1/GPa) = 0.05410359
#
# Stress axis : x y z
#
# Youngs Moduli (GPa) = 62.24520 62.24569 13.60379
#
# Poissons Ratio (x) = 0.62891 0.10655
# Poissons Ratio (y) = 0.62891 0.10655
# Poissons Ratio (z) = 0.48752 0.48752
#
# Static dielectric constant tensor:
#      x y z
#    x 1.628190 0.000000 0.000000 
#    y 0.000000 1.628190 0.000000 
#    z 0.000000 0.000000 1.627590 
# 
# From -- ./inp_files/365.got.cif
#   From: 2010.05.17/outbox.cif.g08.bks.cpg/sg159_cif.got.tgz:365.got - 2010.05.20 10:50:30.
