data_PCOD9577865
_publ_section_title
;
Structure prediction by ZEFSAII (Michael W. Deem and Ramdas Pophale) SiO2 
 PCOD9577865
Probable space group: P -3 1 M 
;
_chemical_formula_sum "Si O2"
_cell_formula_units_Z 42
_cell_length_a 21.925782
_cell_length_b 21.925782
_cell_length_c 5.922184
_cell_angle_alpha 90.000000
_cell_angle_beta 90.000000
_cell_angle_gamma 120.000000
_cell_volume 2465.600514
_symmetry_space_group_name_H-M "P -3 1 M "
_symmetry_group_IT_number 162
_symmetry_cell_setting 'hexagonal'
loop_
_space_group_symop_operation_xyz
x,y,z
-y,x-y,z
-x+y,-x,z
-y,-x,-z
-x+y,y,-z
x,x-y,-z
-x,-y,-z
y,-x+y,-z
x-y,x,-z
y,x,z
x-y,-y,z
-x,-x+y,z
loop_
_atom_site_type_symbol
_atom_site_label
_atom_site_fract_x
_atom_site_fract_y
_atom_site_fract_z
Si Si1 0.635767 0.834240 0.743426
Si Si2 0.509503 0.203093 0.837297
Si Si3 0.155542 0.577771 0.500000
Si Si4 0.082343 0.639281 0.809858
O O1 0.671229 0.835615 0.500000
O O2 0.561560 0.760002 0.740499
O O3 0.614393 0.894743 0.744210
O O4 0.664931 0.832466 0.000000
O O5 0.563639 0.204963 0.661505
O O6 0.539660 0.269830 0.000000
O O7 0.482527 0.131044 0.975975
O O8 0.106889 0.603330 0.622760
O O9 0.000000 0.594029 0.854651
#
# Coordination Sequence:
#
# PCOD9577865 Si02
#       4
#    12  12   6  12
#     4   9  17  36  53  67  89 130 155 183 236 297
#     4   9  21  35  52  66  90 126 156 194 251 307
#     4  12  19  32  54  72  90 120 162 196 264 306
#     4  10  21  33  49  75  99 118 152 202 254 301
#
# _framework density 17.034389000000001
#
# number of rings (size 3 to 8) (size 9 to 14) (size 15 to 20)
#    0.000    2.857    2.857    1.286    0.000    3.429 
#    0.000    0.000    0.000   91.429    0.000    0.000 
#    0.000    0.000    0.000    0.000    0.000    0.000 
#
# Total GULP energy -233955.979973 kJ/mol
# GULP energy per Si atom -5570.380476 kJ/mol
# Density = 1.699562 g / cm^3
# Si number density = 17.034389 Si / 1000 Ang^3
#
#
#
# Elastic Constant Matrix: (Units=GPa)
#
#
# Indices 1 2 3 4 5 6 
#
# 1 54.1522 50.9010 34.4868 -0.0002 -7.0555 0.0000
# 2 50.9010 54.1522 34.4868 0.0002 7.0555 0.0000
# 3 34.4868 34.4868 111.2104 0.0000 0.0000 0.0000
# 4 -0.0002 0.0002 0.0000 3.9795 0.0000 7.0555
# 5 -7.0555 7.0555 0.0000 0.0000 3.9795 -0.0002
# 6 0.0000 0.0000 0.0000 7.0555 -0.0002 1.6256
#
#
#
# Elastic Compliance Matrix: (Units=1/GPa)
#
#
# Indices 1 2 3 4 5 6 
#
# 1 -0.016994 0.028947 -0.003707 -0.000002 -0.081452 0.000000
# 2 0.028947 -0.016994 -0.003707 0.000002 0.081452 0.000000
# 3 -0.003707 -0.003707 0.011291 0.000000 0.000000 0.000000
# 4 -0.000002 0.000002 0.000000 -0.037533 0.000000 0.162903
# 5 -0.081452 0.081452 0.000000 0.000000 -0.037533 -0.000004
# 6 0.000000 0.000000 0.000000 0.162903 -0.000004 -0.091881
#
#
# Mechanical properties :
#
#
# Convention : Reuss Voigt Hill
#
# Bulk Modulus (GPa) = 49.09241 51.02933 50.06087
# Shear Modulus (GPa) = -22.13146 8.55959 -6.78594
#
# Velocity S-wave (km/s) = -3.60838 2.24406 -1.99808
# Velocity P-wave (km/s) = 3.39435 6.06103 4.91211
#
# Compressibility (1/GPa) = 0.02036975
#
# Stress axis : x y z
#
# Youngs Moduli (GPa) = -58.84401 -58.84401 88.56771
#
# Poissons Ratio (x) = 1.70334 0.32828
# Poissons Ratio (y) = 1.70334 0.32828
# Poissons Ratio (z) = -0.21811 -0.21811
#
# Static dielectric constant tensor:
#      x y z
#    x 1.558010 0.000000 0.000000 
#    y 0.000000 1.558010 0.000000 
#    z 0.000000 0.000000 1.721290 
# 
# From -- ./inp_files/337.got.cif
#   From: 2010.05.17/outbox.cif.g08.bks.cpg/sg162_1_cif.got.tgz:337.got - 2010.05.20 10:53:12.
