data_PCOD9577880
_publ_section_title
;
Structure prediction by ZEFSAII (Michael W. Deem and Ramdas Pophale) SiO2 
 PCOD9577880
Probable space group: P -3 1 M 
;
_chemical_formula_sum "Si O2"
_cell_formula_units_Z 44
_cell_length_a 13.889140
_cell_length_b 13.889140
_cell_length_c 14.197104
_cell_angle_alpha 90.000000
_cell_angle_beta 90.000000
_cell_angle_gamma 120.000000
_cell_volume 2371.816612
_symmetry_space_group_name_H-M "P -3 1 M "
_symmetry_group_IT_number 162
_symmetry_cell_setting 'hexagonal'
loop_
_space_group_symop_operation_xyz
x,y,z
-y,x-y,z
-x+y,-x,z
-y,-x,-z
-x+y,y,-z
x,x-y,-z
-x,-y,-z
y,-x+y,-z
x-y,x,-z
y,x,z
x-y,-y,z
-x,-x+y,z
loop_
_atom_site_type_symbol
_atom_site_label
_atom_site_fract_x
_atom_site_fract_y
_atom_site_fract_z
Si Si1 0.874308 0.564875 0.137098
Si Si2 0.666668 0.333335 0.635598
Si Si3 0.333335 0.666667 0.864403
Si Si4 0.564874 0.874308 0.362902
Si Si5 0.130414 0.260828 0.500000
Si Si6 0.739173 0.869587 0.000000
O O1 0.779379 0.443127 0.106424
O O2 0.866721 0.572637 0.250000
O O3 0.000000 0.594061 0.114941
O O4 0.857527 0.658261 0.085917
O O5 0.666668 0.333334 0.750000
O O6 0.556873 0.220620 0.606425
O O7 0.658260 0.857527 0.414083
O O8 0.594060 0.000000 0.385059
O O9 0.185391 0.185391 0.521210
O O10 0.814609 0.814609 0.021210
#
# Coordination Sequence:
#
# PCOD9577880 Si02
#       6
#    12   4   4  12   6   6
#     4   9  19  35  53  76 105 135 171 213 255 304
#     4   9  18  34  56  79 106 140 172 208 257 307
#     4   9  18  34  56  79 106 140 172 208 257 307
#     4   9  19  35  53  76 105 135 171 213 255 304
#     4  10  21  36  54  76 103 136 174 216 260 306
#     4  10  21  36  54  76 103 136 174 216 260 306
#
# _framework density 18.551183000000002
#
# number of rings (size 3 to 8) (size 9 to 14) (size 15 to 20)
#    0.000    2.727    0.000    0.273    0.000    5.455 
#    0.000   10.909    0.000    3.273    0.000    0.000 
#    0.000    0.000    0.000    0.000    0.000    0.000 
#
# Total GULP energy -245503.675769 kJ/mol
# GULP energy per Si atom -5579.628995 kJ/mol
# Density = 1.850896 g / cm^3
# Si number density = 18.551183 Si / 1000 Ang^3
#
#
#
# Elastic Constant Matrix: (Units=GPa)
#
#
# Indices 1 2 3 4 5 6 
#
# 1 175.2992 129.7114 42.1031 0.0000 0.0002 -0.0001
# 2 129.7114 175.2978 42.1030 0.0000 -0.0001 -0.0011
# 3 42.1031 42.1030 50.6069 0.0000 0.0000 -0.0002
# 4 0.0000 0.0000 0.0000 22.8373 0.0000 -0.0002
# 5 0.0002 -0.0001 0.0000 0.0000 22.8373 0.0000
# 6 -0.0001 -0.0011 -0.0002 -0.0002 0.0000 22.7930
#
#
#
# Elastic Compliance Matrix: (Units=1/GPa)
#
#
# Indices 1 2 3 4 5 6 
#
# 1 0.013096 -0.008840 -0.003541 0.000000 0.000000 0.000000
# 2 -0.008840 0.013096 -0.003541 0.000000 0.000000 0.000001
# 3 -0.003541 -0.003541 0.025652 0.000000 0.000000 0.000000
# 4 0.000000 0.000000 0.000000 0.043788 0.000000 0.000000
# 5 0.000000 0.000000 0.000000 0.000000 0.043788 0.000000
# 6 0.000000 0.000001 0.000000 0.000000 0.000000 0.043873
#
#
# Mechanical properties :
#
#
# Convention : Reuss Voigt Hill
#
# Bulk Modulus (GPa) = 49.99876 92.11545 71.05711
# Shear Modulus (GPa) = 22.54243 26.17928 24.36086
#
# Velocity S-wave (km/s) = 3.48968 3.76066 3.62770
# Velocity P-wave (km/s) = 6.57628 8.28368 7.47886
#
# Compressibility (1/GPa) = 0.02000049
#
# Stress axis : x y z
#
# Youngs Moduli (GPa) = 76.35895 76.35835 38.98329
#
# Poissons Ratio (x) = 0.67500 0.13804
# Poissons Ratio (y) = 0.67501 0.13804
# Poissons Ratio (z) = 0.27038 0.27038
#
# Static dielectric constant tensor:
#      x y z
#    x 1.620330 0.000000 0.000000 
#    y 0.000000 1.620330 0.000000 
#    z 0.000000 0.000000 1.651260 
# 
# From -- ./inp_files/3402.got.cif
#   From: 2010.05.17/outbox.cif.g08.bks.cpg/sg162_2_cif.got.tgz:3402.got - 2010.05.20 10:53:12.
