data_PCOD9577456
_publ_section_title
;
Structure prediction by ZEFSAII (Michael W. Deem and Ramdas Pophale) SiO2 
 PCOD9577456
Probable space group: P 3 1 C
;
_chemical_formula_sum "Si O2"
_cell_formula_units_Z 18
_cell_length_a 11.069692
_cell_length_b 11.069692
_cell_length_c 7.000941
_cell_angle_alpha 90.000000
_cell_angle_beta 90.000000
_cell_angle_gamma 120.000000
_cell_volume 742.947497
_symmetry_space_group_name_H-M "P 3 1 C"
_symmetry_group_IT_number 159
_symmetry_cell_setting 'hexagonal'
loop_
_space_group_symop_operation_xyz
x,y,z
-y,x-y,z
-x+y,-x,z
y,x,1/2+z
x-y,-y,1/2+z
-x,-x+y,1/2+z
loop_
_atom_site_type_symbol
_atom_site_label
_atom_site_fract_x
_atom_site_fract_y
_atom_site_fract_z
Si Si1 0.091828 0.670729 0.545550
Si Si2 0.578902 0.670729 0.315099
Si Si3 0.207487 0.792513 0.930324
O O1 0.193023 0.806977 0.430324
O O2 0.086791 0.543396 0.430325
O O3 0.162958 0.684510 0.753096
O O4 0.941031 0.660146 0.542437
O O5 0.719116 0.660147 0.318211
O O6 0.521552 0.684510 0.107553
#
# Coordination Sequence:
#
# PCOD9577456 Si02
#       3
#     6   6   6
#     4  12  27  50  79 121 156 210 267 326 399 469
#     4  12  27  50  79 121 156 210 267 326 399 469
#     4  12  26  48  78 114 166 202 264 324 396 472
#
# _framework density 24.227824999999999
#
# number of rings (size 3 to 8) (size 9 to 14) (size 15 to 20)
#    0.000    0.000    6.667    2.667    0.000    0.000 
#    4.000    3.333    0.000    0.000    0.000    0.000 
#    0.000    0.000    0.000    0.000    0.000    0.000 
#
# Total GULP energy -100410.099029 kJ/mol
# GULP energy per Si atom -5578.338835 kJ/mol
# Density = 2.417268 g / cm^3
# Si number density = 24.227825 Si / 1000 Ang^3
#
#
#
# Elastic Constant Matrix: (Units=GPa)
#
#
# Indices 1 2 3 4 5 6 
#
# 1 136.5030 71.2351 53.7281 0.0000 8.7438 0.0000
# 2 71.2351 136.5030 53.7281 0.0000 -8.7438 0.0000
# 3 53.7281 53.7281 233.4222 0.0000 0.0000 0.0000
# 4 0.0000 0.0000 0.0000 42.9126 0.0000 -8.7438
# 5 8.7438 -8.7438 0.0000 0.0000 42.9126 0.0000
# 6 0.0000 0.0000 0.0000 -8.7438 0.0000 32.6340
#
#
#
# Elastic Compliance Matrix: (Units=1/GPa)
#
#
# Indices 1 2 3 4 5 6 
#
# 1 0.010835 -0.005371 -0.001258 0.000000 -0.003302 0.000000
# 2 -0.005371 0.010835 -0.001258 0.000000 0.003302 0.000000
# 3 -0.001258 -0.001258 0.004863 0.000000 0.000000 0.000000
# 4 0.000000 0.000000 0.000000 0.024649 0.000000 0.006604
# 5 -0.003302 0.003302 0.000000 0.000000 0.024649 0.000000
# 6 0.000000 0.000000 0.000000 0.006604 0.000000 0.032412
#
#
# Mechanical properties :
#
#
# Convention : Reuss Voigt Hill
#
# Bulk Modulus (GPa) = 92.93026 95.97896 94.45461
# Shear Modulus (GPa) = 39.18380 45.54094 42.36237
#
# Velocity S-wave (km/s) = 4.02594 4.34025 4.18604
# Velocity P-wave (km/s) = 7.74926 8.05098 7.90156
#
# Compressibility (1/GPa) = 0.01076076
#
# Stress axis : x y z
#
# Youngs Moduli (GPa) = 92.29100 92.29100 205.63041
#
# Poissons Ratio (x) = 0.49569 0.25863
# Poissons Ratio (y) = 0.49569 0.25863
# Poissons Ratio (z) = 0.11608 0.11608
#
# Static dielectric constant tensor:
#      x y z
#    x 1.939620 0.000000 0.000000 
#    y 0.000000 1.939620 0.000000 
#    z 0.000000 0.000000 2.056610 
# 
# From -- ./inp_files/236.got.cif
#   From: 2010.05.17/outbox.cif.g08.bks.cpg/sg159_cif.got.tgz:236.got - 2010.05.20 10:50:30.
