data_PCOD9577259
_publ_section_title
;
Structure prediction by ZEFSAII (Michael W. Deem and Ramdas Pophale) SiO2 
 PCOD9577259
Probable space group: P 3 1 M
;
_chemical_formula_sum "Si O2"
_cell_formula_units_Z 36
_cell_length_a 21.172180
_cell_length_b 21.172180
_cell_length_c 5.144918
_cell_angle_alpha 90.000000
_cell_angle_beta 90.000000
_cell_angle_gamma 120.000000
_cell_volume 1997.285937
_symmetry_space_group_name_H-M "P 3 1 M"
_symmetry_group_IT_number 157
_symmetry_cell_setting 'hexagonal'
loop_
_space_group_symop_operation_xyz
x,y,z
-y,x-y,z
-x+y,-x,z
y,x,z
x-y,-y,z
-x,-x+y,z
loop_
_atom_site_type_symbol
_atom_site_label
_atom_site_fract_x
_atom_site_fract_y
_atom_site_fract_z
Si Si1 0.224546 0.722484 0.845830
Si Si2 0.914352 0.085045 0.000939
Si Si3 0.389921 0.837460 0.897538
Si Si4 0.630288 0.543275 0.390785
Si Si5 0.205911 0.411608 0.341776
Si Si6 0.831747 0.084848 0.508451
O O1 0.311299 0.763186 0.900765
O O2 0.184724 0.636175 0.877259
O O3 0.214289 0.743255 0.555261
O O4 0.196548 0.759198 0.057780
O O5 0.889009 0.091522 0.288480
O O6 0.000000 0.134668 0.968463
O O7 0.888580 0.000000 0.956688
O O8 0.870726 0.103834 0.787644
O O9 0.387449 0.884160 0.654764
O O10 0.397516 0.883506 0.154284
O O11 0.593360 0.593360 0.389262
O O12 0.718180 0.589135 0.355767
O O13 0.196651 0.335198 0.425787
O O14 0.769127 0.000000 0.513745
#
# Coordination Sequence:
#
# PCOD9577259 Si02
#       6
#     6   6   6   6   6   6
#     4  10  20  36  58  82 107 138 176 221 267 317
#     4  10  20  34  54  78 104 134 172 222 272 315
#     4  10  20  36  58  82 109 138 177 223 271 320
#     4  10  21  36  54  79 113 146 177 223 272 320
#     4  10  21  37  56  79 109 144 183 221 263 319
#     4  10  21  37  54  76 108 142 179 222 263 311
#
# _framework density 18.024460000000001
#
# number of rings (size 3 to 8) (size 9 to 14) (size 15 to 20)
#    0.000    2.000    0.000    3.500    0.000    1.333 
#    0.000   10.000    0.000    0.000    0.000    0.000 
#    0.000    0.000    0.000    0.000    0.000    0.000 
#
# Total GULP energy -201014.721726 kJ/mol
# GULP energy per Si atom -5583.742270 kJ/mol
# Density = 1.798344 g / cm^3
# Si number density = 18.024460 Si / 1000 Ang^3
#
#
#
# Elastic Constant Matrix: (Units=GPa)
#
#
# Indices 1 2 3 4 5 6 
#
# 1 60.0222 37.4919 -15.0045 0.0000 -1.3746 0.0000
# 2 37.4919 60.0222 -15.0045 0.0000 1.3746 0.0000
# 3 -15.0045 -15.0045 59.9906 0.0000 0.0000 0.0000
# 4 0.0000 0.0000 0.0000 14.6487 0.0000 1.3746
# 5 -1.3746 1.3746 0.0000 0.0000 14.6487 0.0000
# 6 0.0000 0.0000 0.0000 1.3746 0.0000 11.2652
#
#
#
# Elastic Compliance Matrix: (Units=1/GPa)
#
#
# Indices 1 2 3 4 5 6 
#
# 1 0.028004 -0.016894 0.002779 0.000000 0.004213 0.000000
# 2 -0.016894 0.028004 0.002779 0.000000 -0.004213 0.000000
# 3 0.002779 0.002779 0.018059 0.000000 0.000000 0.000000
# 4 0.000000 0.000000 0.000000 0.069056 0.000000 -0.008426
# 5 0.004213 -0.004213 0.000000 0.000000 0.069056 0.000000
# 6 0.000000 0.000000 0.000000 -0.008426 0.000000 0.089797
#
#
# Mechanical properties :
#
#
# Convention : Reuss Voigt Hill
#
# Bulk Modulus (GPa) = 19.45729 21.66675 20.56202
# Shear Modulus (GPa) = 14.62919 19.61601 17.12260
#
# Velocity S-wave (km/s) = 2.85200 3.30252 3.08549
# Velocity P-wave (km/s) = 4.65442 5.15645 4.91185
#
# Compressibility (1/GPa) = 0.05139463
#
# Stress axis : x y z
#
# Youngs Moduli (GPa) = 35.70870 35.70870 55.37306
#
# Poissons Ratio (x) = 0.60327 -0.15387
# Poissons Ratio (y) = 0.60327 -0.15387
# Poissons Ratio (z) = -0.09923 -0.09923
#
# Static dielectric constant tensor:
#      x y z
#    x 1.589290 0.000000 0.000000 
#    y 0.000000 1.589290 0.000000 
#    z 0.000000 0.000000 1.615840 
# 
# From -- ./inp_files/180.got.cif
#   From: 2010.05.17/outbox.cif.g08.bks.cpg/sg157_cif.got.tgz:180.got - 2010.05.20 10:49:36.
