data_PCOD9577804
_publ_section_title
;
Structure prediction by ZEFSAII (Michael W. Deem and Ramdas Pophale) SiO2 
 PCOD9577804
Probable space group: P -3 1 M 
;
_chemical_formula_sum "Si O2"
_cell_formula_units_Z 84
_cell_length_a 19.383908
_cell_length_b 19.383908
_cell_length_c 13.718257
_cell_angle_alpha 90.000000
_cell_angle_beta 90.000000
_cell_angle_gamma 120.000000
_cell_volume 4463.877276
_symmetry_space_group_name_H-M "P -3 1 M "
_symmetry_group_IT_number 162
_symmetry_cell_setting 'hexagonal'
loop_
_space_group_symop_operation_xyz
x,y,z
-y,x-y,z
-x+y,-x,z
-y,-x,-z
-x+y,y,-z
x,x-y,-z
-x,-y,-z
y,-x+y,-z
x-y,x,-z
y,x,z
x-y,-y,z
-x,-x+y,z
loop_
_atom_site_type_symbol
_atom_site_label
_atom_site_fract_x
_atom_site_fract_y
_atom_site_fract_z
Si Si1 0.089918 0.758176 0.456114
Si Si2 0.909945 0.179432 0.083784
Si Si3 0.572015 0.906442 0.946297
Si Si4 0.902741 0.516004 0.739426
Si Si5 0.677512 0.908535 0.225863
Si Si6 0.173119 0.666564 0.529661
Si Si7 0.376511 0.903358 0.848678
O O1 0.159868 0.840133 0.500000
O O2 0.090793 0.772524 0.341417
O O3 0.113904 0.690539 0.475947
O O4 0.000000 0.725791 0.493434
O O5 0.900763 0.250343 0.033855
O O6 0.852046 0.144021 0.174278
O O7 0.000000 0.217982 0.115451
O O8 0.885771 0.114230 0.000000
O O9 0.546631 0.878365 0.836006
O O10 0.599473 0.000000 0.940631
O O11 0.513581 0.873546 0.038954
O O12 0.852923 0.510556 0.643644
O O13 0.883583 0.429164 0.777350
O O14 0.000000 0.570665 0.722259
O O15 0.587083 0.878998 0.196591
O O16 0.729825 0.000000 0.190396
O O17 0.261263 0.738738 0.500000
O O18 0.164375 0.582188 0.500000
O O19 0.425996 0.000000 0.854385
#
# Coordination Sequence:
#
# PCOD9577804 Si02
#       7
#    12  12  12  12  12  12  12
#     4  10  23  40  62  90 122 155 200 260 315 365
#     4  11  21  34  56  84 119 158 194 236 288 353
#     4   9  18  31  51  84 118 145 178 230 293 357
#     4  10  20  34  57  85 114 149 194 246 303 361
#     4  10  20  36  56  82 113 151 194 239 300 358
#     4  11  24  41  59  82 116 161 212 261 309 362
#     4   9  16  31  55  83 115 146 180 231 296 364
#
# _framework density 18.817722
#
# number of rings (size 3 to 8) (size 9 to 14) (size 15 to 20)
#    0.000    2.000    1.429    2.286    4.000    4.571 
#    0.000    0.000    0.000    2.714    0.000    0.000 
#    0.000    0.000    0.000    0.000    0.000    0.000 
#
# Total GULP energy -468340.275642 kJ/mol
# GULP energy per Si atom -5575.479472 kJ/mol
# Density = 1.877489 g / cm^3
# Si number density = 18.817722 Si / 1000 Ang^3
#
#
#
# Elastic Constant Matrix: (Units=GPa)
#
#
# Indices 1 2 3 4 5 6 
#
# 1 82.2034 42.5641 29.0573 0.0000 6.1874 0.0000
# 2 42.5641 82.2034 29.0573 0.0000 -6.1874 0.0000
# 3 29.0573 29.0573 95.9212 0.0000 0.0000 0.0000
# 4 0.0000 0.0000 0.0000 27.8212 0.0000 -6.1874
# 5 6.1874 -6.1874 0.0000 0.0000 27.8212 0.0000
# 6 0.0000 0.0000 0.0000 -6.1874 0.0000 19.8196
#
#
#
# Elastic Compliance Matrix: (Units=1/GPa)
#
#
# Indices 1 2 3 4 5 6 
#
# 1 0.018221 -0.008889 -0.002827 0.000000 -0.006029 0.000000
# 2 -0.008889 0.018221 -0.002827 0.000000 0.006029 0.000000
# 3 -0.002827 -0.002827 0.012138 0.000000 0.000000 0.000000
# 4 0.000000 0.000000 0.000000 0.038626 0.000000 0.012058
# 5 -0.006029 0.006029 0.000000 0.000000 0.038626 0.000000
# 6 0.000000 0.000000 0.000000 0.012058 0.000000 0.054219
#
#
# Mechanical properties :
#
#
# Convention : Reuss Voigt Hill
#
# Bulk Modulus (GPa) = 51.29831 51.29836 51.29833
# Shear Modulus (GPa) = 23.18754 25.73568 24.46161
#
# Velocity S-wave (km/s) = 3.51411 3.70216 3.60936
# Velocity P-wave (km/s) = 6.61703 6.75237 6.68504
#
# Compressibility (1/GPa) = 0.01949382
#
# Stress axis : x y z
#
# Youngs Moduli (GPa) = 54.88281 54.88281 82.38680
#
# Poissons Ratio (x) = 0.48786 0.23289
# Poissons Ratio (y) = 0.48786 0.23289
# Poissons Ratio (z) = 0.15514 0.15514
#
# Static dielectric constant tensor:
#      x y z
#    x 1.673220 0.000000 0.000000 
#    y 0.000000 1.673220 0.000000 
#    z 0.000000 0.000000 1.689720 
# 
# From -- ./inp_files/3182.got.cif
#   From: 2010.05.17/outbox.cif.g08.bks.cpg/sg162_2_cif.got.tgz:3182.got - 2010.05.20 10:53:12.
