data_PCOD9577287
_publ_section_title
;
Structure prediction by ZEFSAII (Michael W. Deem and Ramdas Pophale) SiO2 
 PCOD9577287
Probable space group: P 3 C 1
;
_chemical_formula_sum "Si O2"
_cell_formula_units_Z 24
_cell_length_a 15.564561
_cell_length_b 15.564561
_cell_length_c 5.251388
_cell_angle_alpha 90.000000
_cell_angle_beta 90.000000
_cell_angle_gamma 120.000000
_cell_volume 1101.738411
_symmetry_space_group_name_H-M "P 3 C 1"
_symmetry_group_IT_number 158
_symmetry_cell_setting 'hexagonal'
loop_
_space_group_symop_operation_xyz
x,y,z
-y,x-y,z
-x+y,-x,z
-x+y,y,1/2+z
x,x-y,1/2+z
-y,-x,1/2+z
loop_
_atom_site_type_symbol
_atom_site_label
_atom_site_fract_x
_atom_site_fract_y
_atom_site_fract_z
Si Si1 0.343136 0.224240 0.685840
Si Si2 0.142381 0.219671 0.788250
Si Si3 0.557576 0.009803 0.498419
Si Si4 0.553023 0.743965 0.895980
O O1 0.351875 0.153514 0.477282
O O2 0.236481 0.217408 0.676920
O O3 0.422195 0.333332 0.592125
O O4 0.059690 0.173630 0.569313
O O5 0.166658 0.333323 0.842116
O O6 0.531689 0.018540 0.206984
O O7 0.550752 0.903151 0.507328
O O8 0.506984 0.726364 0.614914
#
# Coordination Sequence:
#
# PCOD9577287 Si02
#       4
#     6   6   6   6
#     4  12  25  41  67 103 132 178 234 283 329 413
#     4  10  19  36  67  93 129 166 218 259 333 380
#     4  12  25  41  67 103 132 178 234 283 329 413
#     4  10  19  36  67  93 129 166 218 259 333 380
#
# _framework density 21.783756
#
# number of rings (size 3 to 8) (size 9 to 14) (size 15 to 20)
#    0.000    1.000    5.000    4.500    7.000    0.000 
#    0.000    0.000    0.000   30.000    0.000    0.000 
#    0.000    0.000    0.000    0.000    0.000    0.000 
#
# Total GULP energy -133903.028801 kJ/mol
# GULP energy per Si atom -5579.292867 kJ/mol
# Density = 2.173418 g / cm^3
# Si number density = 21.783756 Si / 1000 Ang^3
#
#
#
# Elastic Constant Matrix: (Units=GPa)
#
#
# Indices 1 2 3 4 5 6 
#
# 1 42.1081 6.6207 -1.7070 6.8161 0.0000 0.0000
# 2 6.6207 42.1081 -1.7070 -6.8161 0.0000 0.0000
# 3 -1.7070 -1.7070 163.0783 0.0000 0.0000 0.0000
# 4 6.8161 -6.8161 0.0000 38.7218 0.0000 0.0000
# 5 0.0000 0.0000 0.0000 0.0000 38.7218 6.8161
# 6 0.0000 0.0000 0.0000 0.0000 6.8161 17.7437
#
#
#
# Elastic Compliance Matrix: (Units=1/GPa)
#
#
# Indices 1 2 3 4 5 6 
#
# 1 0.025380 -0.004843 0.000215 -0.005320 0.000000 0.000000
# 2 -0.004843 0.025380 0.000215 0.005320 0.000000 0.000000
# 3 0.000215 0.000215 0.006137 0.000000 0.000000 0.000000
# 4 -0.005320 0.005320 0.000000 0.027698 0.000000 0.000000
# 5 0.000000 0.000000 0.000000 0.000000 0.027698 -0.010640
# 6 0.000000 0.000000 0.000000 0.000000 -0.010640 0.060445
#
#
# Mechanical properties :
#
#
# Convention : Reuss Voigt Hill
#
# Bulk Modulus (GPa) = 20.80299 28.18977 24.49638
# Shear Modulus (GPa) = 25.30527 35.30997 30.30762
#
# Velocity S-wave (km/s) = 3.41201 4.03045 3.73405
# Velocity P-wave (km/s) = 5.00928 5.88457 5.46448
#
# Compressibility (1/GPa) = 0.04807000
#
# Stress axis : x y z
#
# Youngs Moduli (GPa) = 39.40146 39.40146 162.95874
#
# Poissons Ratio (x) = 0.19082 -0.03503
# Poissons Ratio (y) = 0.19082 -0.03503
# Poissons Ratio (z) = -0.00847 -0.00847
#
# Static dielectric constant tensor:
#      x y z
#    x 1.851940 0.000000 0.000000 
#    y 0.000000 1.851940 0.000000 
#    z 0.000000 0.000000 1.984530 
# 
# From -- ./inp_files/9.got.cif
#   From: 2010.05.17/outbox.cif.g08.bks.cpg/sg158_cif.got.tgz:9.got - 2010.05.20 10:49:59.
