data_PCOD9577330
_publ_section_title
;
Structure prediction by ZEFSAII (Michael W. Deem and Ramdas Pophale) SiO2 
 PCOD9577330
Probable space group: P 3 C 1
;
_chemical_formula_sum "Si O2"
_cell_formula_units_Z 42
_cell_length_a 8.434225
_cell_length_b 8.434225
_cell_length_c 31.572831
_cell_angle_alpha 90.000000
_cell_angle_beta 90.000000
_cell_angle_gamma 120.000000
_cell_volume 1945.066803
_symmetry_space_group_name_H-M "P 3 C 1"
_symmetry_group_IT_number 158
_symmetry_cell_setting 'hexagonal'
loop_
_space_group_symop_operation_xyz
x,y,z
-y,x-y,z
-x+y,-x,z
-x+y,y,1/2+z
x,x-y,1/2+z
-y,-x,1/2+z
loop_
_atom_site_type_symbol
_atom_site_label
_atom_site_fract_x
_atom_site_fract_y
_atom_site_fract_z
Si Si1 0.367611 0.364334 0.251580
Si Si2 0.998343 0.316778 0.120553
Si Si3 0.998391 0.682749 0.718603
Si Si4 0.471914 0.120459 0.421510
Si Si5 0.004426 0.348101 0.584137
Si Si6 0.473643 0.565470 0.338142
Si Si7 0.014083 0.796760 0.994406
O O1 0.522159 0.473776 0.216897
O O2 0.300655 0.152288 0.246085
O O3 0.473959 0.468028 0.294323
O O4 0.195080 0.388680 0.240613
O O5 0.000789 0.269948 0.169743
O O6 0.201645 0.401814 0.102846
O O7 0.938111 0.462646 0.106354
O O8 0.860123 0.130487 0.097569
O O9 0.681527 0.171105 0.429528
O O10 0.450321 0.050259 0.373500
O O11 0.308704 0.985963 0.451913
O O12 0.013551 0.339047 0.533456
O O13 0.527569 0.778993 0.341810
O O14 0.835809 0.825712 0.996502
#
# Coordination Sequence:
#
# PCOD9577330 Si02
#       7
#     6   6   6   6   6   6   6
#     4  12  25  45  69 103 138 189 235 295 356 430
#     4  12  24  42  67 100 141 190 236 294 342 416
#     4  12  24  42  68 100 141 185 242 288 350 415
#     4  10  26  40  72 105 131 171 226 291 343 428
#     4  12  25  45  68 102 144 189 239 290 357 418
#     4  10  23  46  70  97 137 176 222 285 360 418
#     4  10  23  46  72  97 138 184 224 283 352 423
#
# _framework density 21.593088999999999
#
# number of rings (size 3 to 8) (size 9 to 14) (size 15 to 20)
#    0.857    0.000    2.857    4.286    6.000    0.000 
#    0.000    0.000    3.143    0.000    0.000    0.000 
#    0.000    0.000    0.000    0.000    0.000    0.000 
#
# Total GULP energy -233923.507117 kJ/mol
# GULP energy per Si atom -5569.607312 kJ/mol
# Density = 2.154394 g / cm^3
# Si number density = 21.593089 Si / 1000 Ang^3
#
#
#
# Elastic Constant Matrix: (Units=GPa)
#
#
# Indices 1 2 3 4 5 6 
#
# 1 80.8592 -10.4325 24.2343 -55.1331 0.0000 0.0000
# 2 -10.4325 80.8593 24.2343 55.1331 0.0000 0.0000
# 3 24.2343 24.2343 132.2931 0.0000 0.0000 0.0000
# 4 -55.1331 55.1331 0.0000 180.9295 0.0000 0.0000
# 5 0.0000 0.0000 0.0000 0.0000 180.9295 -55.1331
# 6 0.0000 0.0000 0.0000 0.0000 -55.1331 45.6459
#
#
#
# Elastic Compliance Matrix: (Units=1/GPa)
#
#
# Indices 1 2 3 4 5 6 
#
# 1 0.016791 -0.000543 -0.002976 0.005282 0.000000 0.000000
# 2 -0.000543 0.016791 -0.002976 -0.005282 0.000000 0.000000
# 3 -0.002976 -0.002976 0.008649 0.000000 0.000000 0.000000
# 4 0.005282 -0.005282 0.000000 0.008746 0.000000 0.000000
# 5 0.000000 0.000000 0.000000 0.000000 0.008746 0.010564
# 6 0.000000 0.000000 0.000000 0.000000 0.010564 0.034667
#
#
# Mechanical properties :
#
#
# Convention : Reuss Voigt Hill
#
# Bulk Modulus (GPa) = 34.20077 41.12043 37.66060
# Shear Modulus (GPa) = 42.68841 98.56600 70.62720
#
# Velocity S-wave (km/s) = 4.45111 6.76359 5.72532
# Velocity P-wave (km/s) = 6.50305 8.94871 7.82206
#
# Compressibility (1/GPa) = 0.02923911
#
# Stress axis : x y z
#
# Youngs Moduli (GPa) = 59.55724 59.55724 115.61470
#
# Poissons Ratio (x) = 0.03234 0.34411
# Poissons Ratio (y) = 0.03234 0.34411
# Poissons Ratio (z) = 0.17726 0.17726
#
# Static dielectric constant tensor:
#      x y z
#    x 1.754060 0.000000 0.000000 
#    y 0.000000 1.754060 0.000000 
#    z 0.000000 0.000000 1.786060 
# 
# From -- ./inp_files/783.got.cif
#   From: 2010.05.17/outbox.cif.g08.bks.cpg/sg158_cif.got.tgz:783.got - 2010.05.20 10:49:59.
