data_PCOD9577176
_publ_section_title
;
Structure prediction by ZEFSAII (Michael W. Deem and Ramdas Pophale) SiO2 
 PCOD9577176
Probable space group: R 3 2
;
_chemical_formula_sum "Si O2"
_cell_formula_units_Z 54
_cell_length_a 14.505511
_cell_length_b 14.505511
_cell_length_c 13.217690
_cell_angle_alpha 90.000000
_cell_angle_beta 90.000000
_cell_angle_gamma 120.000000
_cell_volume 2408.531104
_symmetry_space_group_name_H-M "R 3 2"
_symmetry_group_IT_number 155
_symmetry_cell_setting 'hexagonal'
loop_
_space_group_symop_operation_xyz
x,y,z
-y,x-y,z
-x+y,-x,z
x-y,-y,-z
-x,-x+y,-z
y,x,-z
2/3+x,1/3+y,1/3+z
2/3-y,1/3+x-y,1/3+z
2/3-x+y,1/3-x,1/3+z
2/3+x-y,1/3-y,1/3-z
2/3-x,1/3-x+y,1/3-z
2/3+y,1/3+x,1/3-z
1/3+x,2/3+y,2/3+z
1/3-y,2/3+x-y,2/3+z
1/3-x+y,2/3-x,2/3+z
1/3+x-y,2/3-y,2/3-z
1/3-x,2/3-x+y,2/3-z
1/3+y,2/3+x,2/3-z
loop_
_atom_site_type_symbol
_atom_site_label
_atom_site_fract_x
_atom_site_fract_y
_atom_site_fract_z
Si Si1 0.269545 0.455698 0.062995
Si Si2 0.858598 0.784080 0.705553
Si Si3 0.234824 0.778028 0.604556
O O1 0.333334 0.502189 0.166667
O O2 0.195070 0.329743 0.068421
O O3 0.361402 0.488841 0.981551
O O4 0.199601 0.507592 0.027975
O O5 0.771459 0.666667 0.666667
O O6 0.869093 0.815158 0.823271
O O7 0.195582 0.666667 0.666667
O O8 0.333334 0.867290 0.666667
#
# Coordination Sequence:
#
# PCOD9577176 Si02
#       3
#    18  18  18
#     4  12  26  46  78 112 154 201 264 329 386 461
#     4  12  26  47  75 115 156 204 264 322 395 468
#     4  12  28  49  77 111 159 206 257 321 399 470
#
# _framework density 22.420303000000001
#
# number of rings (size 3 to 8) (size 9 to 14) (size 15 to 20)
#    0.000    0.000    3.333    6.000    0.000    6.667 
#    0.000    0.000    0.000    0.000    0.000    0.000 
#    0.000    0.000    0.000    0.000    0.000    0.000 
#
# Total GULP energy -100613.115878 kJ/mol
# GULP energy per Si atom -5589.617549 kJ/mol
# Density = 2.236927 g / cm^3
# Si number density = 22.420303 Si / 1000 Ang^3
#
#
#
# Elastic Constant Matrix: (Units=GPa)
#
#
# Indices 1 2 3 4 5 6 
#
# 1 104.8201 45.2516 45.5832 -3.2362 -0.0009 0.0000
# 2 45.2516 104.8201 45.5832 3.2362 0.0009 0.0000
# 3 45.5832 45.5832 181.0663 0.0000 0.0000 0.0000
# 4 -3.2362 3.2362 0.0000 32.0017 0.0000 0.0009
# 5 -0.0009 0.0009 0.0000 0.0000 32.0017 -3.2362
# 6 0.0000 0.0000 0.0000 0.0009 -3.2362 29.7842
#
#
#
# Elastic Compliance Matrix: (Units=1/GPa)
#
#
# Indices 1 2 3 4 5 6 
#
# 1 0.012420 -0.004554 -0.001980 0.001717 0.000000 0.000000
# 2 -0.004554 0.012420 -0.001980 -0.001717 0.000000 0.000000
# 3 -0.001980 -0.001980 0.006520 0.000000 0.000000 0.000000
# 4 0.001717 -0.001717 0.000000 0.031596 0.000000 -0.000001
# 5 0.000000 0.000000 0.000000 0.000000 0.031596 0.003433
# 6 0.000000 0.000000 0.000000 -0.000001 0.003433 0.033948
#
#
# Mechanical properties :
#
#
# Convention : Reuss Voigt Hill
#
# Bulk Modulus (GPa) = 69.77648 73.72695 71.75171
# Shear Modulus (GPa) = 33.26559 35.71006 34.48782
#
# Velocity S-wave (km/s) = 3.85610 3.99526 3.92630
# Velocity P-wave (km/s) = 7.14252 7.36466 7.25444
#
# Compressibility (1/GPa) = 0.01433148
#
# Stress axis : x y z
#
# Youngs Moduli (GPa) = 80.51379 80.51379 153.37517
#
# Poissons Ratio (x) = 0.36663 0.30374
# Poissons Ratio (y) = 0.36663 0.30374
# Poissons Ratio (z) = 0.15945 0.15945
#
# Static dielectric constant tensor:
#      x y z
#    x 1.829230 0.000000 0.000000 
#    y 0.000000 1.829230 0.000000 
#    z 0.000000 0.000000 2.151210 
# 
# From -- ./inp_files/4657.got.cif
#   From: 2010.05.17/outbox.cif.g08.bks.cpg/sg155_3_cif.got.tgz:4657.got - 2010.05.20 10:44:35.
