data_PCOD9577385
_publ_section_title
;
Structure prediction by ZEFSAII (Michael W. Deem and Ramdas Pophale) SiO2 
 PCOD9577385
Probable space group: P 3 1 C
;
_chemical_formula_sum "Si O2"
_cell_formula_units_Z 42
_cell_length_a 17.886047
_cell_length_b 17.886047
_cell_length_c 8.192402
_cell_angle_alpha 90.000000
_cell_angle_beta 90.000000
_cell_angle_gamma 120.000000
_cell_volume 2269.711311
_symmetry_space_group_name_H-M "P 3 1 C"
_symmetry_group_IT_number 159
_symmetry_cell_setting 'hexagonal'
loop_
_space_group_symop_operation_xyz
x,y,z
-y,x-y,z
-x+y,-x,z
y,x,1/2+z
x-y,-y,1/2+z
-x,-x+y,1/2+z
loop_
_atom_site_type_symbol
_atom_site_label
_atom_site_fract_x
_atom_site_fract_y
_atom_site_fract_z
Si Si1 0.100273 0.185111 0.084180
Si Si2 0.995379 0.414239 0.493852
Si Si3 0.623881 0.763980 0.586939
Si Si4 0.218242 0.851561 0.943147
Si Si5 0.085241 0.188787 0.472518
Si Si6 0.227152 0.755516 0.263808
Si Si7 0.552680 0.126209 0.739810
O O1 0.095199 0.199221 0.277190
O O2 0.120662 0.268741 0.979704
O O3 0.170469 0.157360 0.046001
O O4 0.006265 0.113890 0.021274
O O5 0.935072 0.314156 0.443820
O O6 0.926511 0.436262 0.574139
O O7 0.070510 0.408759 0.595072
O O8 0.053214 0.488246 0.366035
O O9 0.605693 0.792578 0.761746
O O10 0.726268 0.818078 0.553421
O O11 0.581666 0.782340 0.429175
O O12 0.210642 0.792989 0.097327
O O13 0.163826 0.653392 0.265552
O O14 0.329948 0.791594 0.254100
#
# Coordination Sequence:
#
# PCOD9577385 Si02
#       7
#     6   6   6   6   6   6   6
#     4  12  24  39  58  88 127 174 222 270 317 373
#     4  10  20  38  70  96 122 168 230 272 320 394
#     4  11  21  40  65  94 127 170 220 271 321 392
#     4  11  21  40  65  94 127 170 220 271 321 392
#     4  12  24  39  58  88 127 174 222 270 317 373
#     4  10  23  42  64  93 129 165 211 269 350 393
#     4  10  21  42  66  95 129 167 217 277 338 401
#
# _framework density 18.504555
#
# number of rings (size 3 to 8) (size 9 to 14) (size 15 to 20)
#    0.000    1.143    4.286    3.143    0.000    0.000 
#    5.143    0.000    0.000    0.000    0.000    0.000 
#    0.000    0.000    0.000    0.000    0.000    0.000 
#
# Total GULP energy -234123.248724 kJ/mol
# GULP energy per Si atom -5574.363065 kJ/mol
# Density = 1.846244 g / cm^3
# Si number density = 18.504555 Si / 1000 Ang^3
#
#
#
# Elastic Constant Matrix: (Units=GPa)
#
#
# Indices 1 2 3 4 5 6 
#
# 1 81.5767 31.3814 14.1137 0.0000 5.7069 0.0000
# 2 31.3814 81.5767 14.1137 0.0000 -5.7069 0.0000
# 3 14.1137 14.1137 106.2440 0.0000 0.0000 0.0000
# 4 0.0000 0.0000 0.0000 11.5771 0.0000 -5.7069
# 5 5.7069 -5.7069 0.0000 0.0000 11.5771 0.0000
# 6 0.0000 0.0000 0.0000 -5.7069 0.0000 25.0976
#
#
#
# Elastic Compliance Matrix: (Units=1/GPa)
#
#
# Indices 1 2 3 4 5 6 
#
# 1 0.015797 -0.006640 -0.001216 0.000000 -0.011060 0.000000
# 2 -0.006640 0.015797 -0.001216 0.000000 0.011060 0.000000
# 3 -0.001216 -0.001216 0.009735 0.000000 0.000000 0.000000
# 4 0.000000 0.000000 0.000000 0.097282 0.000000 0.022121
# 5 -0.011060 0.011060 0.000000 0.000000 0.097282 0.000000
# 6 0.000000 0.000000 0.000000 0.022121 0.000000 0.044874
#
#
# Mechanical properties :
#
#
# Convention : Reuss Voigt Hill
#
# Bulk Modulus (GPa) = 43.13425 43.17948 43.15686
# Shear Modulus (GPa) = 16.30568 23.63625 19.97097
#
# Velocity S-wave (km/s) = 2.97167 3.57784 3.28875
# Velocity P-wave (km/s) = 5.92749 6.36027 6.14769
#
# Compressibility (1/GPa) = 0.02318344
#
# Stress axis : x y z
#
# Youngs Moduli (GPa) = 63.30320 63.30320 102.71707
#
# Poissons Ratio (x) = 0.42034 0.12495
# Poissons Ratio (y) = 0.42034 0.12495
# Poissons Ratio (z) = 0.07700 0.07700
#
# Static dielectric constant tensor:
#      x y z
#    x 1.625700 0.000000 0.000000 
#    y 0.000000 1.625700 0.000000 
#    z 0.000000 0.000000 1.688390 
# 
# From -- ./inp_files/460.got.cif
#   From: 2010.05.17/outbox.cif.g08.bks.cpg/sg159_cif.got.tgz:460.got - 2010.05.20 10:50:30.
