data_PCOD9577279
_publ_section_title
;
Structure prediction by ZEFSAII (Michael W. Deem and Ramdas Pophale) SiO2 
 PCOD9577279
Probable space group: P 3 C 1
;
_chemical_formula_sum "Si O2"
_cell_formula_units_Z 42
_cell_length_a 14.185177
_cell_length_b 14.185177
_cell_length_c 10.113592
_cell_angle_alpha 90.000000
_cell_angle_beta 90.000000
_cell_angle_gamma 120.000000
_cell_volume 1762.404445
_symmetry_space_group_name_H-M "P 3 C 1"
_symmetry_group_IT_number 158
_symmetry_cell_setting 'hexagonal'
loop_
_space_group_symop_operation_xyz
x,y,z
-y,x-y,z
-x+y,-x,z
-x+y,y,1/2+z
x,x-y,1/2+z
-y,-x,1/2+z
loop_
_atom_site_type_symbol
_atom_site_label
_atom_site_fract_x
_atom_site_fract_y
_atom_site_fract_z
Si Si1 0.234225 0.192055 0.396310
Si Si2 0.835027 0.518439 0.471053
Si Si3 0.042507 0.819179 0.900577
Si Si4 0.581832 0.650779 0.254117
Si Si5 0.469949 0.522138 0.499303
Si Si6 0.806976 0.283931 0.238312
Si Si7 0.340845 0.032377 0.647423
O O1 0.347737 0.236808 0.476525
O O2 0.129364 0.191346 0.454551
O O3 0.270222 0.278855 0.278404
O O4 0.192348 0.069569 0.343893
O O5 0.734580 0.478499 0.373296
O O6 0.800516 0.456459 0.609797
O O7 0.941533 0.513720 0.432183
O O8 0.095507 0.769966 0.800191
O O9 0.996841 0.739063 0.024981
O O10 0.491124 0.600559 0.372608
O O11 0.534154 0.631830 0.103642
O O12 0.655141 0.591280 0.261121
O O13 0.567600 0.585484 0.604108
O O14 0.748275 0.159798 0.184309
#
# Coordination Sequence:
#
# PCOD9577279 Si02
#       7
#     6   6   6   6   6   6   6
#     4  11  22  37  57  90 127 173 211 256 298 370
#     4  10  19  34  58  79 117 154 201 254 305 353
#     4  11  22  37  57  89 129 171 213 253 304 362
#     4  10  19  36  58  84 116 155 199 259 304 362
#     4  10  21  34  59  84 102 151 211 246 311 366
#     4  10  17  33  57  76 110 159 189 236 319 351
#     4  10  20  37  56  82 117 155 206 264 307 364
#
# _framework density 23.83108
#
# number of rings (size 3 to 8) (size 9 to 14) (size 15 to 20)
#    0.000    1.714    4.286    2.857    0.000    3.429 
#    0.000    0.000    0.000   36.000    0.000    0.000 
#   90.000    0.000    0.000    0.000    0.000    0.000 
#
# Total GULP energy -233928.444650 kJ/mol
# GULP energy per Si atom -5569.724873 kJ/mol
# Density = 2.377684 g / cm^3
# Si number density = 23.831080 Si / 1000 Ang^3
#
#
#
# Elastic Constant Matrix: (Units=GPa)
#
#
# Indices 1 2 3 4 5 6 
#
# 1 62.8504 27.4310 4.1189 -2.4251 0.0000 0.0000
# 2 27.4310 62.8504 4.1189 2.4251 0.0000 0.0000
# 3 4.1189 4.1189 95.5761 0.0000 0.0000 0.0000
# 4 -2.4251 2.4251 0.0000 13.2389 0.0000 0.0000
# 5 0.0000 0.0000 0.0000 0.0000 13.2389 -2.4251
# 6 0.0000 0.0000 0.0000 0.0000 -2.4251 17.7097
#
#
#
# Elastic Compliance Matrix: (Units=1/GPa)
#
#
# Indices 1 2 3 4 5 6 
#
# 1 0.020040 -0.008920 -0.000479 0.005305 0.000000 0.000000
# 2 -0.008920 0.020040 -0.000479 -0.005305 0.000000 0.000000
# 3 -0.000479 -0.000479 0.010504 0.000000 0.000000 0.000000
# 4 0.005305 -0.005305 0.000000 0.077478 0.000000 0.000000
# 5 0.000000 0.000000 0.000000 0.000000 0.077478 0.010609
# 6 0.000000 0.000000 0.000000 0.000000 0.010609 0.057919
#
#
# Mechanical properties :
#
#
# Convention : Reuss Voigt Hill
#
# Bulk Modulus (GPa) = 32.43837 32.51269 32.47553
# Shear Modulus (GPa) = 17.03626 21.21138 19.12382
#
# Velocity S-wave (km/s) = 2.67662 2.98664 2.83587
# Velocity P-wave (km/s) = 4.81598 5.05628 4.93760
#
# Compressibility (1/GPa) = 0.03082769
#
# Stress axis : x y z
#
# Youngs Moduli (GPa) = 49.90052 49.90052 95.20025
#
# Poissons Ratio (x) = 0.44510 0.04562
# Poissons Ratio (y) = 0.44510 0.04562
# Poissons Ratio (z) = 0.02391 0.02391
#
# Static dielectric constant tensor:
#      x y z
#    x 1.966640 0.000000 0.000000 
#    y 0.000000 1.966640 0.000000 
#    z 0.000000 0.000000 2.064700 
# 
# From -- ./inp_files/364.got.cif
#   From: 2010.05.17/outbox.cif.g08.bks.cpg/sg158_cif.got.tgz:364.got - 2010.05.20 10:49:59.
