data_PCOD9577268
_publ_section_title
;
Structure prediction by ZEFSAII (Michael W. Deem and Ramdas Pophale) SiO2 
 PCOD9577268
Probable space group: P 3 1 M
;
_chemical_formula_sum "Si O2"
_cell_formula_units_Z 24
_cell_length_a 14.208108
_cell_length_b 14.208108
_cell_length_c 6.629715
_cell_angle_alpha 90.000000
_cell_angle_beta 90.000000
_cell_angle_gamma 120.000000
_cell_volume 1159.038842
_symmetry_space_group_name_H-M "P 3 1 M"
_symmetry_group_IT_number 157
_symmetry_cell_setting 'hexagonal'
loop_
_space_group_symop_operation_xyz
x,y,z
-y,x-y,z
-x+y,-x,z
y,x,z
x-y,-y,z
-x,-x+y,z
loop_
_atom_site_type_symbol
_atom_site_label
_atom_site_fract_x
_atom_site_fract_y
_atom_site_fract_z
Si Si1 0.698718 0.570175 0.351640
Si Si2 0.125606 0.876270 0.049028
Si Si3 0.126619 0.557288 0.002119
Si Si4 0.223818 0.434198 0.766265
O O1 0.625086 0.625086 0.419148
O O2 0.788836 0.656891 0.198105
O O3 0.767180 0.555802 0.529039
O O4 0.621257 0.458922 0.226639
O O5 0.000000 0.794773 0.096211
O O6 0.153212 0.000000 0.054547
O O7 0.157735 0.848591 0.832504
O O8 0.179534 0.509533 0.853389
O O9 0.144538 0.665952 0.895692
O O10 0.000000 0.475056 0.009023
#
# Coordination Sequence:
#
# PCOD9577268 Si02
#       4
#     6   6   6   6
#     4   9  20  39  60  85 123 164 199 245 303 359
#     4  10  21  37  58  86 120 158 201 248 298 353
#     4  10  22  38  57  86 121 155 196 248 303 356
#     4  11  21  38  61  85 116 157 204 247 294 358
#
# _framework density 20.706814999999999
#
# number of rings (size 3 to 8) (size 9 to 14) (size 15 to 20)
#    0.000    2.000    0.000    5.250    0.000    6.000 
#    0.000    0.000    0.000    3.000    0.000    0.000 
#    0.000    2.000    0.000    0.000    0.000    0.000 
#
# Total GULP energy -133666.991262 kJ/mol
# GULP energy per Si atom -5569.457969 kJ/mol
# Density = 2.065969 g / cm^3
# Si number density = 20.706815 Si / 1000 Ang^3
#
#
#
# Elastic Constant Matrix: (Units=GPa)
#
#
# Indices 1 2 3 4 5 6 
#
# 1 79.0007 13.0783 40.1156 0.0000 0.1205 0.0000
# 2 13.0783 79.0007 40.1156 0.0000 -0.1205 0.0000
# 3 40.1156 40.1156 121.2570 0.0000 0.0000 0.0000
# 4 0.0000 0.0000 0.0000 12.7358 0.0000 -0.1205
# 5 0.1205 -0.1205 0.0000 0.0000 12.7358 0.0000
# 6 0.0000 0.0000 0.0000 -0.1205 0.0000 32.9612
#
#
#
# Elastic Compliance Matrix: (Units=1/GPa)
#
#
# Indices 1 2 3 4 5 6 
#
# 1 0.015214 0.000044 -0.005048 0.000000 -0.000144 0.000000
# 2 0.000044 0.015214 -0.005048 0.000000 0.000144 0.000000
# 3 -0.005048 -0.005048 0.011587 0.000000 0.000000 0.000000
# 4 0.000000 0.000000 0.000000 0.078521 0.000000 0.000287
# 5 -0.000144 0.000144 0.000000 0.000000 0.078521 0.000000
# 6 0.000000 0.000000 0.000000 0.000287 0.000000 0.030340
#
#
# Mechanical properties :
#
#
# Convention : Reuss Voigt Hill
#
# Bulk Modulus (GPa) = 45.63646 51.76416 48.70031
# Shear Modulus (GPa) = 19.46995 24.08315 21.77655
#
# Velocity S-wave (km/s) = 3.06971 3.41406 3.24645
# Velocity P-wave (km/s) = 5.88654 6.37134 6.13373
#
# Compressibility (1/GPa) = 0.02191230
#
# Stress axis : x y z
#
# Youngs Moduli (GPa) = 65.72751 65.72751 86.30304
#
# Poissons Ratio (x) = -0.00292 0.43566
# Poissons Ratio (y) = -0.00292 0.43566
# Poissons Ratio (z) = 0.33180 0.33180
#
# Static dielectric constant tensor:
#      x y z
#    x 1.762950 0.000000 0.000000 
#    y 0.000000 1.762950 0.000000 
#    z 0.000000 0.000000 1.779740 
# 
# From -- ./inp_files/63.got.cif
#   From: 2010.05.17/outbox.cif.g08.bks.cpg/sg157_cif.got.tgz:63.got - 2010.05.20 10:49:36.
