data_PCOD9577779
_publ_section_title
;
Structure prediction by ZEFSAII (Michael W. Deem and Ramdas Pophale) SiO2 
 PCOD9577779
Probable space group: P -3 1 M 
;
_chemical_formula_sum "Si O2"
_cell_formula_units_Z 96
_cell_length_a 17.776834
_cell_length_b 17.776834
_cell_length_c 20.988829
_cell_angle_alpha 90.000000
_cell_angle_beta 90.000000
_cell_angle_gamma 120.000000
_cell_volume 5744.175165
_symmetry_space_group_name_H-M "P -3 1 M "
_symmetry_group_IT_number 162
_symmetry_cell_setting 'hexagonal'
loop_
_space_group_symop_operation_xyz
x,y,z
-y,x-y,z
-x+y,-x,z
-y,-x,-z
-x+y,y,-z
x,x-y,-z
-x,-y,-z
y,-x+y,-z
x-y,x,-z
y,x,z
x-y,-y,z
-x,-x+y,z
loop_
_atom_site_type_symbol
_atom_site_label
_atom_site_fract_x
_atom_site_fract_y
_atom_site_fract_z
Si Si1 0.726778 0.098434 0.875101
Si Si2 0.895173 0.532492 0.499999
Si Si3 0.628344 0.726778 0.875102
Si Si4 0.488941 0.332639 0.750163
Si Si5 0.489106 0.156561 0.000000
Si Si6 0.371581 0.270724 0.374095
Si Si7 0.488941 0.332639 0.249836
Si Si8 0.628419 0.899142 0.625904
O O1 0.827974 0.172026 0.874927
O O2 0.683984 0.115035 0.812931
O O3 0.684427 0.115245 0.937440
O O4 0.705766 0.000000 0.875092
O O5 0.859638 0.429819 0.500000
O O6 0.873477 0.567082 0.436250
O O7 0.873477 0.567084 0.563749
O O8 0.000000 0.579399 0.499999
O O9 0.705766 0.705766 0.875092
O O10 0.568948 0.683984 0.812933
O O11 0.569184 0.684428 0.937442
O O12 0.572981 0.427018 0.750058
O O13 0.515311 0.257656 0.749995
O O14 0.430224 0.316152 0.687859
O O15 0.572910 0.145820 0.000000
O O16 0.516396 0.258198 0.000000
O O17 0.299124 0.299124 0.379550
O O18 0.430223 0.316152 0.312139
O O19 0.336858 0.168429 0.368703
O O20 0.700876 0.000000 0.620450
#
# Coordination Sequence:
#
# PCOD9577779 Si02
#       8
#    12  12  12  12  12  12  12  12
#     4  10  21  35  51  72  97 127 162 201 244 286
#     4   9  17  30  49  72  96 122 154 191 231 280
#     4  10  21  35  51  72  97 127 162 201 244 286
#     4  10  20  33  50  73 101 131 161 194 234 281
#     4  10  20  33  50  73 102 134 165 196 232 277
#     4  10  20  33  50  72  97 127 163 203 245 286
#     4  10  20  33  50  73 101 131 161 194 234 281
#     4  10  20  33  50  72  97 127 163 203 245 286
#
# _framework density 16.712582000000001
#
# number of rings (size 3 to 8) (size 9 to 14) (size 15 to 20)
#    0.000    2.125    0.000    3.375    0.000    5.000 
#    0.000    2.500    0.000    4.000    0.000    0.000 
#    0.000   12.000    0.000    0.000    0.000    2.000 
#
# Total GULP energy -535804.200898 kJ/mol
# GULP energy per Si atom -5581.293759 kJ/mol
# Density = 1.667454 g / cm^3
# Si number density = 16.712582 Si / 1000 Ang^3
#
#
#
# Elastic Constant Matrix: (Units=GPa)
#
#
# Indices 1 2 3 4 5 6 
#
# 1 103.8072 88.0126 43.0687 0.0000 0.0007 0.0000
# 2 88.0126 103.8072 43.0687 0.0000 -0.0007 0.0000
# 3 43.0687 43.0687 149.4993 0.0000 0.0000 0.0000
# 4 0.0000 0.0000 0.0000 23.2186 0.0000 -0.0007
# 5 0.0007 -0.0007 0.0000 0.0000 23.2186 0.0000
# 6 0.0000 0.0000 0.0000 -0.0007 0.0000 7.8973
#
#
#
# Elastic Compliance Matrix: (Units=1/GPa)
#
#
# Indices 1 2 3 4 5 6 
#
# 1 0.034650 -0.028663 -0.001725 0.000000 -0.000002 0.000000
# 2 -0.028663 0.034650 -0.001725 0.000000 0.000002 0.000000
# 3 -0.001725 -0.001725 0.007683 0.000000 0.000000 0.000000
# 4 0.000000 0.000000 0.000000 0.043069 0.000000 0.000004
# 5 -0.000002 0.000002 0.000000 0.000000 0.043069 0.000000
# 6 0.000000 0.000000 0.000000 0.000004 0.000000 0.126626
#
#
# Mechanical properties :
#
#
# Convention : Reuss Voigt Hill
#
# Bulk Modulus (GPa) = 78.37887 78.37926 78.37907
# Shear Modulus (GPa) = 13.95771 23.06449 18.51110
#
# Velocity S-wave (km/s) = 2.89305 3.71896 3.33170
# Velocity P-wave (km/s) = 7.62624 8.08956 7.86132
#
# Compressibility (1/GPa) = 0.01275854
#
# Stress axis : x y z
#
# Youngs Moduli (GPa) = 28.85973 28.85973 130.15915
#
# Poissons Ratio (x) = 0.82719 0.22453
# Poissons Ratio (y) = 0.82719 0.22453
# Poissons Ratio (z) = 0.04978 0.04978
#
# Static dielectric constant tensor:
#      x y z
#    x 1.549360 0.000000 0.000000 
#    y 0.000000 1.549360 0.000000 
#    z 0.000000 0.000000 1.561520 
# 
# From -- ./inp_files/3912.got.cif
#   From: 2010.05.17/outbox.cif.g08.bks.cpg/sg162_2_cif.got.tgz:3912.got - 2010.05.20 10:53:12.
