data_PCOD9577724
_publ_section_title
;
Structure prediction by ZEFSAII (Michael W. Deem and Ramdas Pophale) SiO2 
 PCOD9577724
Probable space group: P -3 1 M 
;
_chemical_formula_sum "Si O2"
_cell_formula_units_Z 54
_cell_length_a 14.536006
_cell_length_b 14.536006
_cell_length_c 15.435267
_cell_angle_alpha 90.000000
_cell_angle_beta 90.000000
_cell_angle_gamma 120.000000
_cell_volume 2824.456986
_symmetry_space_group_name_H-M "P -3 1 M "
_symmetry_group_IT_number 162
_symmetry_cell_setting 'hexagonal'
loop_
_space_group_symop_operation_xyz
x,y,z
-y,x-y,z
-x+y,-x,z
-y,-x,-z
-x+y,y,-z
x,x-y,-z
-x,-y,-z
y,-x+y,-z
x-y,x,-z
y,x,z
x-y,-y,z
-x,-x+y,z
loop_
_atom_site_type_symbol
_atom_site_label
_atom_site_fract_x
_atom_site_fract_y
_atom_site_fract_z
Si Si1 0.317054 0.872907 0.738937
Si Si2 0.334060 0.461978 0.460729
Si Si3 0.436724 0.877238 0.902802
Si Si4 0.249846 0.124923 0.000000
Si Si5 0.766144 0.645448 0.165409
O O1 0.337169 0.850639 0.641953
O O2 0.355209 0.832310 0.822392
O O3 0.191830 0.817826 0.751886
O O4 0.376110 0.000000 0.746732
O O5 0.430248 0.569753 0.500000
O O6 0.219246 0.438492 0.500000
O O7 0.371178 0.371178 0.471081
O O8 0.541472 0.880379 0.866898
O O9 0.465744 0.000000 0.915076
O O10 0.414605 0.829210 0.000000
O O11 0.320328 0.152852 0.914572
O O12 0.179018 0.179018 0.992091
O O13 0.733995 0.733995 0.181021
#
# Coordination Sequence:
#
# PCOD9577724 Si02
#       5
#    12  12  12   6  12
#     4  10  21  37  57  83 115 147 186 238 291 344
#     4  10  23  42  66  93 123 159 201 256 316 376
#     4   9  18  33  52  75 108 150 192 233 278 336
#     4  10  19  32  52  80 114 154 199 244 286 334
#     4  10  20  33  54  79 108 152 194 233 287 347
#
# _framework density 19.11872
#
# number of rings (size 3 to 8) (size 9 to 14) (size 15 to 20)
#    0.000    2.222    0.000    2.333    3.111    4.444 
#    1.333    0.000    2.444    0.667    0.000    0.000 
#    0.000    0.000    0.000    0.000    0.000    0.000 
#
# Total GULP energy -300808.665630 kJ/mol
# GULP energy per Si atom -5570.530845 kJ/mol
# Density = 1.907520 g / cm^3
# Si number density = 19.118720 Si / 1000 Ang^3
#
#
#
# Elastic Constant Matrix: (Units=GPa)
#
#
# Indices 1 2 3 4 5 6 
#
# 1 63.3155 21.7310 49.7519 -0.0002 0.1783 0.0000
# 2 21.7310 63.3155 49.7519 0.0002 -0.1783 0.0000
# 3 49.7519 49.7519 157.5498 0.0000 0.0000 0.0000
# 4 -0.0002 0.0002 0.0000 28.2243 0.0000 -0.1783
# 5 0.1783 -0.1783 0.0000 0.0000 28.2243 -0.0002
# 6 0.0000 0.0000 0.0000 -0.1783 -0.0002 20.7922
#
#
#
# Elastic Compliance Matrix: (Units=1/GPa)
#
#
# Indices 1 2 3 4 5 6 
#
# 1 0.021348 -0.002700 -0.005889 0.000000 -0.000152 0.000000
# 2 -0.002700 0.021348 -0.005889 0.000000 0.000152 0.000000
# 3 -0.005889 -0.005889 0.010066 0.000000 0.000000 0.000000
# 4 0.000000 0.000000 0.000000 0.035432 0.000000 0.000304
# 5 -0.000152 0.000152 0.000000 0.000000 0.035432 0.000000
# 6 0.000000 0.000000 0.000000 0.000304 0.000000 0.048097
#
#
# Mechanical properties :
#
#
# Convention : Reuss Voigt Hill
#
# Bulk Modulus (GPa) = 42.00371 58.51673 50.26022
# Shear Modulus (GPa) = 23.96737 26.31125 25.13931
#
# Velocity S-wave (km/s) = 3.54447 3.71375 3.63010
# Velocity P-wave (km/s) = 6.22645 7.00448 6.62689
#
# Compressibility (1/GPa) = 0.02380742
#
# Stress axis : x y z
#
# Youngs Moduli (GPa) = 46.84187 46.84187 99.34041
#
# Poissons Ratio (x) = 0.12649 0.58500
# Poissons Ratio (y) = 0.12649 0.58500
# Poissons Ratio (z) = 0.27584 0.27584
#
# Static dielectric constant tensor:
#      x y z
#    x 1.708870 0.000000 0.000000 
#    y 0.000000 1.708870 0.000000 
#    z 0.000000 0.000000 3.720680 
# 
# From -- ./inp_files/2885.got.cif
#   From: 2010.05.17/outbox.cif.g08.bks.cpg/sg162_2_cif.got.tgz:2885.got - 2010.05.20 10:53:12.
