data_PCOD9577510
_publ_section_title
;
Structure prediction by ZEFSAII (Michael W. Deem and Ramdas Pophale) SiO2 
 PCOD9577510
Probable space group: R 3 M
;
_chemical_formula_sum "Si O2"
_cell_formula_units_Z 48
_cell_length_a 30.000000
_cell_length_b 30.000000
_cell_length_c 9.000000
_cell_angle_alpha 90.000000
_cell_angle_beta 90.000000
_cell_angle_gamma 120.000000
_cell_volume 7014.805771
_symmetry_space_group_name_H-M "R 3 M"
_symmetry_group_IT_number 160
_symmetry_cell_setting 'hexagonal'
loop_
_space_group_symop_operation_xyz
x,y,z
-y,x-y,z
-x+y,-x,z
-x+y,y,z
x,x-y,z
-y,-x,z
2/3+x,1/3+y,1/3+z
2/3-y,1/3+x-y,1/3+z
2/3-x+y,1/3-x,1/3+z
2/3-x+y,1/3+y,1/3+z
2/3+x,1/3+x-y,1/3+z
2/3-y,1/3-x,1/3+z
1/3+x,2/3+y,2/3+z
1/3-y,2/3+x-y,2/3+z
1/3-x+y,2/3-x,2/3+z
1/3-x+y,2/3+y,2/3+z
1/3+x,2/3+x-y,2/3+z
1/3-y,2/3-x,2/3+z
loop_
_atom_site_type_symbol
_atom_site_label
_atom_site_fract_x
_atom_site_fract_y
_atom_site_fract_z
Si Si1 0.504878 0.637256 0.241243
Si Si2 0.482355 0.414878 0.897872
Si Si3 0.205153 0.301334 0.073317
Si Si4 0.874325 0.640502 0.066840
Si Si5 0.485371 0.411472 0.240286
Si Si6 0.152364 0.204082 0.243316
Si Si7 0.232475 0.565591 0.796523
Si Si8 0.208062 0.686840 0.483298
O O1 0.548251 0.695292 0.208828
O O2 0.531408 0.607297 0.310801
O O3 0.468135 0.645674 0.354951
O O4 0.482935 0.611495 0.085215
O O5 0.538239 0.461762 0.858267
O O6 0.439882 0.418357 0.803347
O O7 0.473936 0.421403 0.071772
O O8 0.151554 0.303108 0.085820
O O9 0.198268 0.254440 0.172730
O O10 0.214547 0.296767 0.902877
O O11 0.820980 0.641960 0.054916
O O12 0.919228 0.695861 0.009469
O O13 0.540316 0.459685 0.287554
O O14 0.498387 0.366040 0.218279
O O15 0.100506 0.201012 0.178537
O O16 0.148680 0.151625 0.195588
O O17 0.281346 0.562691 0.843005
O O18 0.238052 0.619026 0.847174
O O19 0.227015 0.560637 0.618542
O O20 0.257956 0.742045 0.434865
#
# Coordination Sequence:
#
# PCOD9577510 Si02
#       8
#    18  18  18  18  18  18  18  18
#     4  11  20  31  52  81 110 141 180 225 270 324
#     4   9  18  33  53  75 102 136 171 214 266 314
#     4   9  18  34  54  76 101 131 175 222 260 308
#     4  10  19  31  53  80 104 135 173 218 268 314
#     4   8  15  30  51  74  98 126 165 208 253 306
#     4  10  21  35  53  77 106 142 181 222 267 319
#     4  10  21  37  57  81 110 145 183 228 281 333
#     4   9  19  35  55  78 106 140 179 225 272 322
#
# _framework density 6.84267
#
# number of rings (size 3 to 8) (size 9 to 14) (size 15 to 20)
#    0.000    2.500    0.000    3.125    0.000    6.000 
#    0.000    2.500    0.000   18.000    0.000    4.375 
#    0.000    0.000    0.000    0.000    0.000    0.000 
#
# Total GULP energy -267292.856911 kJ/mol
# GULP energy per Si atom -5568.601186 kJ/mol
# Density = 0.682710 g / cm^3
# Si number density = 6.842670 Si / 1000 Ang^3
#
#
#
# Elastic Constant Matrix: (Units=GPa)
#
#
# Indices 1 2 3 4 5 6 
#
# 1 46.8714 14.7611 22.2393 -17.9142 -0.1929 -3.3916
# 2 14.7611 46.4278 21.6900 17.9409 0.1508 3.3995
# 3 22.2393 21.6900 37.9357 -0.0018 -0.0210 -0.2588
# 4 -17.9142 17.9409 -0.0018 21.8262 -0.0658 -0.5385
# 5 -0.1929 0.1508 -0.0210 -0.0658 21.8352 -17.5813
# 6 -3.3916 3.3995 -0.2588 -0.5385 -17.5813 16.9577
#
#
#
# Elastic Compliance Matrix: (Units=1/GPa)
#
#
# Indices 1 2 3 4 5 6 
#
# 1 -0.039545 0.068409 -0.017078 -0.092957 -0.127810 -0.157345
# 2 0.068409 -0.041676 -0.015126 0.094675 0.127968 0.157486
# 3 -0.017078 -0.015126 0.045031 -0.001540 0.001194 0.001492
# 4 -0.092957 0.094675 -0.001540 -0.115385 -0.212126 -0.261185
# 5 -0.127810 0.127968 0.001194 -0.212126 -0.021187 -0.079900
# 6 -0.157345 0.157486 0.001492 -0.261185 -0.079900 -0.095180
#
#
# Mechanical properties :
#
#
# Convention : Reuss Voigt Hill
#
# Bulk Modulus (GPa) = 27.60979 27.62397 27.61688
# Shear Modulus (GPa) = -15.23103 16.96012 0.86454
#
# Velocity S-wave (km/s) = -2.72686 2.87748 0.64967
# Velocity P-wave (km/s) = 1.88804 4.95235 3.74770
#
# Compressibility (1/GPa) = 0.03621904
#
# Stress axis : x y z
#
# Youngs Moduli (GPa) = -25.28749 -23.99456 22.20670
#
# Poissons Ratio (x) = 1.64144 0.37926
# Poissons Ratio (y) = 1.72989 0.33589
# Poissons Ratio (z) = -0.43187 -0.36294
#
# Static dielectric constant tensor:
#      x y z
#    x 1.745780 0.000190 -0.000050 
#    y 0.000190 1.746120 -0.000020 
#    z -0.000050 -0.000020 1.756200 
# 
# From -- ./inp_files/1218.got.cif
#   From: 2010.05.17/outbox.ucp.g08.bks.cvg/sg160_1_cif.got.tgz:1218.got - 2010.06.11 15:14:33.
