data_PCOD9577390
_publ_section_title
;
Structure prediction by ZEFSAII (Michael W. Deem and Ramdas Pophale) SiO2 
 PCOD9577390
Probable space group: P 3 1 C
;
_chemical_formula_sum "Si O2"
_cell_formula_units_Z 34
_cell_length_a 10.988315
_cell_length_b 10.988315
_cell_length_c 15.221588
_cell_angle_alpha 90.000000
_cell_angle_beta 90.000000
_cell_angle_gamma 120.000000
_cell_volume 1591.669140
_symmetry_space_group_name_H-M "P 3 1 C"
_symmetry_group_IT_number 159
_symmetry_cell_setting 'hexagonal'
loop_
_space_group_symop_operation_xyz
x,y,z
-y,x-y,z
-x+y,-x,z
y,x,1/2+z
x-y,-y,1/2+z
-x,-x+y,1/2+z
loop_
_atom_site_type_symbol
_atom_site_label
_atom_site_fract_x
_atom_site_fract_y
_atom_site_fract_z
Si Si1 0.396161 0.065373 0.938600
Si Si2 0.099710 0.674000 0.524267
Si Si3 0.237582 0.746729 0.712576
Si Si4 0.027714 0.278211 0.253387
Si Si5 0.000000 0.000000 0.526336
Si Si6 0.000000 0.000000 0.315346
Si Si7 0.675108 0.825424 0.066924
O O1 0.549350 0.105101 0.973501
O O2 0.358507 0.184739 0.966898
O O3 0.381948 0.059194 0.834480
O O4 0.287204 0.921084 0.988495
O O5 0.198626 0.723565 0.610076
O O6 0.939934 0.626585 0.551618
O O7 0.182721 0.585879 0.738833
O O8 0.196022 0.857918 0.743360
O O9 0.104361 0.352225 0.162464
O O10 0.061893 0.157953 0.280807
O O11 0.917799 0.843234 0.561908
O O12 0.000000 0.000000 0.420825
#
# Coordination Sequence:
#
# PCOD9577390 Si02
#       7
#     6   6   6   6   2   2   6
#     4  12  26  45  70 103 133 190 236 283 360 426
#     4  12  22  47  74  92 144 185 233 288 352 437
#     4  10  20  42  72  94 130 188 235 266 343 431
#     4  12  24  41  68 107 136 174 240 290 351 410
#     4  12  19  44  70 100 134 175 226 287 364 418
#     4  12  22  38  67 100 140 175 223 299 355 400
#     4  12  23  43  69 102 137 175 227 299 347 412
#
# _framework density 21.361222999999999
#
# number of rings (size 3 to 8) (size 9 to 14) (size 15 to 20)
#    0.353    0.000    7.059    2.471    0.000    1.412 
#    7.412    0.000    0.000    0.000    0.000    0.000 
#    0.000    0.000    0.000    0.000    0.000    0.000 
#
# Total GULP energy -189667.602312 kJ/mol
# GULP energy per Si atom -5578.458892 kJ/mol
# Density = 2.131260 g / cm^3
# Si number density = 21.361223 Si / 1000 Ang^3
#
#
#
# Elastic Constant Matrix: (Units=GPa)
#
#
# Indices 1 2 3 4 5 6 
#
# 1 75.1843 13.1021 19.5925 0.0000 7.2580 0.0000
# 2 13.1021 75.1843 19.5925 0.0000 -7.2580 0.0000
# 3 19.5925 19.5925 88.7142 0.0000 0.0000 0.0000
# 4 0.0000 0.0000 0.0000 22.1145 0.0000 -7.2580
# 5 7.2580 -7.2580 0.0000 0.0000 22.1145 0.0000
# 6 0.0000 0.0000 0.0000 -7.2580 0.0000 31.0411
#
#
#
# Elastic Compliance Matrix: (Units=1/GPa)
#
#
# Indices 1 2 3 4 5 6 
#
# 1 0.015002 -0.002444 -0.002773 0.000000 -0.005726 0.000000
# 2 -0.002444 0.015002 -0.002773 0.000000 0.005726 0.000000
# 3 -0.002773 -0.002773 0.012497 0.000000 0.000000 0.000000
# 4 0.000000 0.000000 0.000000 0.048978 0.000000 0.011452
# 5 -0.005726 0.005726 0.000000 0.000000 0.048978 0.000000
# 6 0.000000 0.000000 0.000000 0.011452 0.000000 0.034893
#
#
# Mechanical properties :
#
#
# Convention : Reuss Voigt Hill
#
# Bulk Modulus (GPa) = 37.70869 38.18412 37.94640
# Shear Modulus (GPa) = 24.97857 27.50708 26.24282
#
# Velocity S-wave (km/s) = 3.42327 3.59236 3.50884
# Velocity P-wave (km/s) = 5.77202 5.92630 5.84967
#
# Compressibility (1/GPa) = 0.02651909
#
# Stress axis : x y z
#
# Youngs Moduli (GPa) = 66.65736 66.65736 80.01822
#
# Poissons Ratio (x) = 0.16294 0.22192
# Poissons Ratio (y) = 0.16294 0.22192
# Poissons Ratio (z) = 0.18487 0.18487
#
# Static dielectric constant tensor:
#      x y z
#    x 1.789100 0.000000 0.000000 
#    y 0.000000 1.789100 0.000000 
#    z 0.000000 0.000000 1.786900 
# 
# From -- ./inp_files/915.got.cif
#   From: 2010.05.17/outbox.cif.g08.bks.cpg/sg159_cif.got.tgz:915.got - 2010.05.20 10:50:30.
