data_PCOD9577894
_publ_section_title
;
Structure prediction by ZEFSAII (Michael W. Deem and Ramdas Pophale) SiO2 
 PCOD9577894
Probable space group: P -3 1 M 
;
_chemical_formula_sum "Si O2"
_cell_formula_units_Z 72
_cell_length_a 14.668202
_cell_length_b 14.668202
_cell_length_c 19.951934
_cell_angle_alpha 90.000000
_cell_angle_beta 90.000000
_cell_angle_gamma 120.000000
_cell_volume 3717.657661
_symmetry_space_group_name_H-M "P -3 1 M "
_symmetry_group_IT_number 162
_symmetry_cell_setting 'hexagonal'
loop_
_space_group_symop_operation_xyz
x,y,z
-y,x-y,z
-x+y,-x,z
-y,-x,-z
-x+y,y,-z
x,x-y,-z
-x,-y,-z
y,-x+y,-z
x-y,x,-z
y,x,z
x-y,-y,z
-x,-x+y,z
loop_
_atom_site_type_symbol
_atom_site_label
_atom_site_fract_x
_atom_site_fract_y
_atom_site_fract_z
Si Si1 0.428627 0.551941 0.926531
Si Si2 0.878699 0.214264 0.426496
Si Si3 0.296537 0.875263 0.825103
Si Si4 0.875263 0.578726 0.325104
Si Si5 0.571374 0.123314 0.573469
Si Si6 0.878699 0.214265 0.073504
O O1 0.519649 0.519649 0.933368
O O2 0.472831 0.640832 0.869870
O O3 0.322195 0.444829 0.912532
O O4 0.413527 0.586474 0.000000
O O5 0.830651 0.169350 0.500000
O O6 0.802653 0.140268 0.368482
O O7 0.877366 0.322195 0.412532
O O8 0.000000 0.244227 0.424451
O O9 0.268875 0.830057 0.750000
O O10 0.197347 0.859731 0.868482
O O11 0.374056 0.000000 0.818274
O O12 0.831999 0.472831 0.369870
O O13 0.000000 0.625943 0.318273
O O14 0.586474 0.172947 0.500000
O O15 0.480352 0.000000 0.566632
O O16 0.000000 0.244228 0.075548
O O17 0.830650 0.169351 0.000000
#
# Coordination Sequence:
#
# PCOD9577894 Si02
#       6
#    12  12  12  12  12  12
#     4   9  17  33  56  79 106 141 181 229 285 344
#     4  11  21  35  60  88 117 154 199 244 292 351
#     4  10  21  38  58  82 117 157 195 241 297 354
#     4  10  21  38  58  82 117 157 195 241 297 354
#     4   9  17  33  56  79 106 141 181 229 285 344
#     4  11  21  35  60  88 117 154 199 244 292 351
#
# _framework density 19.367032999999999
#
# number of rings (size 3 to 8) (size 9 to 14) (size 15 to 20)
#    0.000    2.000    3.333    1.000    0.000    2.000 
#    2.000    5.000    0.000    6.000    0.000    0.000 
#    0.000    0.000    0.000    0.000    0.000    0.000 
#
# Total GULP energy -401150.180628 kJ/mol
# GULP energy per Si atom -5571.530286 kJ/mol
# Density = 1.932295 g / cm^3
# Si number density = 19.367033 Si / 1000 Ang^3
#
#
#
# Elastic Constant Matrix: (Units=GPa)
#
#
# Indices 1 2 3 4 5 6 
#
# 1 50.1984 8.5513 38.0100 0.0000 0.0000 0.0000
# 2 8.5513 50.1984 38.0100 0.0000 0.0000 0.0000
# 3 38.0100 38.0100 184.9016 0.0000 0.0000 0.0000
# 4 0.0000 0.0000 0.0000 15.3833 0.0000 0.0000
# 5 0.0000 0.0000 0.0000 0.0000 15.3833 0.0000
# 6 0.0000 0.0000 0.0000 0.0000 0.0000 20.8235
#
#
#
# Elastic Compliance Matrix: (Units=1/GPa)
#
#
# Indices 1 2 3 4 5 6 
#
# 1 0.023601 -0.000411 -0.004767 0.000000 0.000000 0.000000
# 2 -0.000411 0.023601 -0.004767 0.000000 0.000000 0.000000
# 3 -0.004767 -0.004767 0.007368 0.000000 0.000000 0.000000
# 4 0.000000 0.000000 0.000000 0.065005 0.000000 0.000000
# 5 0.000000 0.000000 0.000000 0.000000 0.065005 0.000000
# 6 0.000000 0.000000 0.000000 0.000000 0.000000 0.048023
#
#
# Mechanical properties :
#
#
# Convention : Reuss Voigt Hill
#
# Bulk Modulus (GPa) = 28.83553 50.49346 39.66450
# Shear Modulus (GPa) = 18.93563 23.69984 21.31774
#
# Velocity S-wave (km/s) = 3.13025 3.50197 3.32131
# Velocity P-wave (km/s) = 5.29017 6.51768 5.93574
#
# Compressibility (1/GPa) = 0.03467944
#
# Stress axis : x y z
#
# Youngs Moduli (GPa) = 42.37189 42.37189 135.71802
#
# Poissons Ratio (x) = 0.01740 0.64698
# Poissons Ratio (y) = 0.01740 0.64698
# Poissons Ratio (z) = 0.20199 0.20199
#
# Static dielectric constant tensor:
#      x y z
#    x 1.712890 0.000000 0.000000 
#    y 0.000000 1.712890 0.000000 
#    z 0.000000 0.000000 1.717550 
# 
# From -- ./inp_files/3509.got.cif
#   From: 2010.05.17/outbox.cif.g08.bks.cpg/sg162_2_cif.got.tgz:3509.got - 2010.05.20 10:53:12.
