data_PCOD9577565
_publ_section_title
;
Structure prediction by ZEFSAII (Michael W. Deem and Ramdas Pophale) SiO2 
 PCOD9577565
Probable space group: R 3 C
;
_chemical_formula_sum "Si O2"
_cell_formula_units_Z 102
_cell_length_a 18.350396
_cell_length_b 18.350396
_cell_length_c 17.822867
_cell_angle_alpha 90.000000
_cell_angle_beta 90.000000
_cell_angle_gamma 120.000000
_cell_volume 5197.554829
_symmetry_space_group_name_H-M "R 3 C"
_symmetry_group_IT_number 161
_symmetry_cell_setting 'hexagonal'
loop_
_space_group_symop_operation_xyz
x,y,z
-y,x-y,z
-x+y,-x,z
-x+y,y,1/2+z
x,x-y,1/2+z
-y,-x,1/2+z
2/3+x,1/3+y,1/3+z
2/3-y,1/3+x-y,1/3+z
2/3-x+y,1/3-x,1/3+z
2/3-x+y,1/3+y,5/6+z
2/3+x,1/3+x-y,5/6+z
2/3-y,1/3-x,5/6+z
1/3+x,2/3+y,2/3+z
1/3-y,2/3+x-y,2/3+z
1/3-x+y,2/3-x,2/3+z
1/3-x+y,2/3+y,1/6+z
1/3+x,2/3+x-y,1/6+z
1/3-y,2/3-x,1/6+z
loop_
_atom_site_type_symbol
_atom_site_label
_atom_site_fract_x
_atom_site_fract_y
_atom_site_fract_z
Si Si1 0.649953 0.576851 0.658295
Si Si2 0.612124 0.146124 0.013903
Si Si3 0.662505 0.564105 0.939680
Si Si4 0.752284 0.164377 0.907156
Si Si5 0.699298 0.189352 0.289517
Si Si6 0.666668 0.333334 0.308925
Si Si7 0.000000 0.000000 0.658681
O O1 0.614852 0.510766 0.590930
O O2 0.698559 0.671040 0.625499
O O3 0.574109 0.564634 0.711019
O O4 0.708519 0.557177 0.712294
O O5 0.519074 0.118326 0.985335
O O6 0.658856 0.247139 0.019177
O O7 0.666854 0.128854 0.953329
O O8 0.760620 0.591235 0.953194
O O9 0.653324 0.537654 0.851897
O O10 0.749827 0.213623 0.832603
O O11 0.654711 0.244752 0.281597
O O12 0.666668 0.333334 0.400468
#
# Coordination Sequence:
#
# PCOD9577565 Si02
#       7
#    18  18  18  18  18   6   6
#     4  12  26  40  64 110 138 169 231 290 338 406
#     4  12  22  44  73  97 133 178 236 279 336 410
#     4  10  23  45  67  94 136 183 222 277 348 413
#     4  10  23  44  69  89 133 192 216 270 354 415
#     4  10  22  42  68  96 132 176 225 276 340 405
#     4  12  18  43  68  94 117 187 230 265 336 412
#     4  12  18  46  71  94 123 181 236 265 336 397
#
# _framework density 19.624611000000002
#
# number of rings (size 3 to 8) (size 9 to 14) (size 15 to 20)
#    1.059    0.000    5.294    2.118    0.000    5.647 
#    0.000    1.765    0.000    0.000    0.000    0.000 
#    0.000    0.000    0.000    0.000    0.000    0.000 
#
# Total GULP energy -189652.741921 kJ/mol
# GULP energy per Si atom -5578.021821 kJ/mol
# Density = 1.957994 g / cm^3
# Si number density = 19.624611 Si / 1000 Ang^3
#
#
#
# Elastic Constant Matrix: (Units=GPa)
#
#
# Indices 1 2 3 4 5 6 
#
# 1 60.3415 18.8601 27.5610 4.8848 0.0000 0.0000
# 2 18.8601 60.3427 27.5618 -4.8841 0.0000 0.0000
# 3 27.5610 27.5618 61.9828 0.0001 0.0000 0.0000
# 4 4.8848 -4.8841 0.0001 4.8237 0.0000 0.0000
# 5 0.0000 0.0000 0.0000 0.0000 4.8236 4.8846
# 6 0.0000 0.0000 0.0000 0.0000 4.8846 20.7412
#
#
#
# Elastic Compliance Matrix: (Units=1/GPa)
#
#
# Indices 1 2 3 4 5 6 
#
# 1 0.024970 -0.006685 -0.008130 -0.032055 0.000000 0.000000
# 2 -0.006685 0.024970 -0.008130 0.032053 0.000000 0.000000
# 3 -0.008130 -0.008130 0.023364 0.000000 0.000000 0.000000
# 4 -0.032055 0.032053 0.000000 0.272223 0.000000 0.000000
# 5 0.000000 0.000000 0.000000 0.000000 0.272233 -0.064111
# 6 0.000000 0.000000 0.000000 0.000000 -0.064111 0.063311
#
#
# Mechanical properties :
#
#
# Convention : Reuss Voigt Hill
#
# Bulk Modulus (GPa) = 36.48119 36.73697 36.60908
# Shear Modulus (GPa) = 6.79255 13.32332 10.05793
#
# Velocity S-wave (km/s) = 1.86246 2.60841 2.26634
# Velocity P-wave (km/s) = 4.82233 5.27563 5.05406
#
# Compressibility (1/GPa) = 0.02741139
#
# Stress axis : x y z
#
# Youngs Moduli (GPa) = 40.04743 40.04882 42.80073
#
# Poissons Ratio (x) = 0.26775 0.34798
# Poissons Ratio (y) = 0.26774 0.34799
# Poissons Ratio (z) = 0.32560 0.32562
#
# Static dielectric constant tensor:
#      x y z
#    x 1.711410 0.000000 0.000000 
#    y 0.000000 1.711410 0.000000 
#    z 0.000000 0.000000 1.684940 
# 
# From -- ./inp_files/1734.got.cif
#   From: 2010.05.17/outbox.cif.g08.bks.cpg/sg161_cif.got.tgz:1734.got - 2010.05.20 10:52:32.
