data_PCOD9577442
_publ_section_title
;
Structure prediction by ZEFSAII (Michael W. Deem and Ramdas Pophale) SiO2 
 PCOD9577442
Probable space group: P 3 1 C
;
_chemical_formula_sum "Si O2"
_cell_formula_units_Z 28
_cell_length_a 11.135281
_cell_length_b 11.135281
_cell_length_c 13.025991
_cell_angle_alpha 90.000000
_cell_angle_beta 90.000000
_cell_angle_gamma 120.000000
_cell_volume 1398.761813
_symmetry_space_group_name_H-M "P 3 1 C"
_symmetry_group_IT_number 159
_symmetry_cell_setting 'hexagonal'
loop_
_space_group_symop_operation_xyz
x,y,z
-y,x-y,z
-x+y,-x,z
y,x,1/2+z
x-y,-y,1/2+z
-x,-x+y,1/2+z
loop_
_atom_site_type_symbol
_atom_site_label
_atom_site_fract_x
_atom_site_fract_y
_atom_site_fract_z
Si Si1 0.478837 0.016682 0.584870
Si Si2 0.666669 0.333335 0.334847
Si Si3 0.333335 0.666668 0.084296
Si Si4 0.629402 0.777678 0.741145
Si Si5 0.975614 0.238505 0.453377
Si Si6 0.027621 0.758175 0.557240
O O1 0.576495 0.175110 0.619689
O O2 0.397750 0.016501 0.483690
O O3 0.358454 0.931857 0.668287
O O4 0.581491 0.961706 0.553153
O O5 0.666668 0.333334 0.458748
O O6 0.762818 0.489431 0.291676
O O7 0.724506 0.785579 0.835061
O O8 0.721418 0.911440 0.670752
O O9 0.119918 0.249619 0.481572
O O10 0.854312 0.123395 0.526345
#
# Coordination Sequence:
#
# PCOD9577442 Si02
#       6
#     6   2   2   6   6   6
#     4  11  22  40  67  99 133 172 224 281 335 403
#     4  12  18  39  69  91 131 181 219 264 333 421
#     4  12  21  42  69  94 131 175 225 273 339 406
#     4  11  24  41  69 100 133 180 226 274 346 402
#     4  11  25  44  68  99 132 184 225 281 344 398
#     4  11  24  44  68  97 140 172 231 287 331 406
#
# _framework density 20.017704999999999
#
# number of rings (size 3 to 8) (size 9 to 14) (size 15 to 20)
#    0.000    0.857    6.429    0.429    0.000    3.429 
#    5.143    0.000    0.000    0.000    0.000    0.000 
#    0.000    0.000    0.000    0.000    0.000    0.000 
#
# Total GULP energy -156336.746975 kJ/mol
# GULP energy per Si atom -5583.455249 kJ/mol
# Density = 1.997214 g / cm^3
# Si number density = 20.017705 Si / 1000 Ang^3
#
#
#
# Elastic Constant Matrix: (Units=GPa)
#
#
# Indices 1 2 3 4 5 6 
#
# 1 74.8442 11.8684 52.6439 0.0002 -1.2873 -0.0001
# 2 11.8684 74.8442 52.6435 -0.0001 1.2874 0.0001
# 3 52.6439 52.6435 106.0041 0.0000 0.0000 -0.0004
# 4 0.0002 -0.0001 0.0000 13.0743 0.0003 1.2872
# 5 -1.2873 1.2874 0.0000 0.0003 13.0740 -0.0001
# 6 -0.0001 0.0001 -0.0004 1.2872 -0.0001 31.4880
#
#
#
# Elastic Compliance Matrix: (Units=1/GPa)
#
#
# Indices 1 2 3 4 5 6 
#
# 1 0.022496 0.006553 -0.014426 0.000000 0.001570 0.000000
# 2 0.006553 0.022496 -0.014426 0.000000 -0.001570 0.000000
# 3 -0.014426 -0.014426 0.023762 0.000000 0.000000 0.000000
# 4 0.000000 0.000000 0.000000 0.076795 -0.000002 -0.003139
# 5 0.001570 -0.001570 0.000000 -0.000002 0.076797 0.000000
# 6 0.000000 0.000000 0.000000 -0.003139 0.000000 0.031886
#
#
# Mechanical properties :
#
#
# Convention : Reuss Voigt Hill
#
# Bulk Modulus (GPa) = 41.39922 54.44491 47.92207
# Shear Modulus (GPa) = 16.29284 20.76305 18.52794
#
# Velocity S-wave (km/s) = 2.85603 3.22411 3.04563
# Velocity P-wave (km/s) = 5.62157 6.41227 6.02990
#
# Compressibility (1/GPa) = 0.02415504
#
# Stress axis : x y z
#
# Youngs Moduli (GPa) = 44.45210 44.45249 42.08360
#
# Poissons Ratio (x) = -0.29128 0.60711
# Poissons Ratio (y) = -0.29128 0.60710
# Poissons Ratio (z) = 0.64128 0.64128
#
# Static dielectric constant tensor:
#      x y z
#    x 1.741570 0.000000 0.000000 
#    y 0.000000 1.741570 0.000000 
#    z 0.000000 0.000000 1.678340 
# 
# From -- ./inp_files/782.got.cif
#   From: 2010.05.17/outbox.cif.g08.bks.cpg/sg159_cif.got.tgz:782.got - 2010.05.20 10:50:30.
