data_PCOD9577300
_publ_section_title
;
Structure prediction by ZEFSAII (Michael W. Deem and Ramdas Pophale) SiO2 
 PCOD9577300
Probable space group: P 3 C 1
;
_chemical_formula_sum "Si O2"
_cell_formula_units_Z 42
_cell_length_a 8.866095
_cell_length_b 8.866095
_cell_length_c 30.993621
_cell_angle_alpha 90.000000
_cell_angle_beta 90.000000
_cell_angle_gamma 120.000000
_cell_volume 2109.928365
_symmetry_space_group_name_H-M "P 3 C 1"
_symmetry_group_IT_number 158
_symmetry_cell_setting 'hexagonal'
loop_
_space_group_symop_operation_xyz
x,y,z
-y,x-y,z
-x+y,-x,z
-x+y,y,1/2+z
x,x-y,1/2+z
-y,-x,1/2+z
loop_
_atom_site_type_symbol
_atom_site_label
_atom_site_fract_x
_atom_site_fract_y
_atom_site_fract_z
Si Si1 0.666455 0.999244 0.266770
Si Si2 0.003631 0.670016 0.628248
Si Si3 0.000756 0.667211 0.731513
Si Si4 0.666462 0.003344 0.093076
Si Si5 0.666385 0.670017 0.870035
Si Si6 0.665782 0.533073 0.499142
Si Si7 0.666462 0.663118 0.405208
O O1 0.851684 0.148316 0.249142
O O2 0.628055 0.814027 0.249142
O O3 0.518911 0.037822 0.249142
O O4 0.667515 0.992683 0.318396
O O5 0.007316 0.674830 0.679887
O O6 0.148527 0.851287 0.607577
O O7 0.037891 0.518361 0.612044
O O8 0.814954 0.629913 0.612616
O O9 0.665137 0.032930 0.041954
O O10 0.814959 0.629914 0.885668
O O11 0.480471 0.518361 0.886240
O O12 0.702760 0.851287 0.890706
O O13 0.503955 0.332618 0.499142
O O14 0.665137 0.632206 0.456330
#
# Coordination Sequence:
#
# PCOD9577300 Si02
#       7
#     6   6   6   6   6   6   6
#     4  12  25  43  67  95 137 180 229 279 331 390
#     4  12  24  44  66 103 132 182 224 276 335 391
#     4  12  25  43  67  95 137 180 229 279 331 390
#     4  12  25  43  72  98 139 172 222 278 329 404
#     4  12  24  44  66 103 132 182 224 276 335 391
#     4  10  20  46  72 100 130 170 214 268 342 388
#     4  12  25  43  72  98 139 172 222 278 329 404
#
# _framework density 19.905887
#
# number of rings (size 3 to 8) (size 9 to 14) (size 15 to 20)
#    0.286    0.000    2.857    7.714    0.000    2.286 
#    0.000    0.000    0.000    0.000    0.000    0.000 
#    0.000    0.000    0.000    0.000    0.000    0.000 
#
# Total GULP energy -235106.684899 kJ/mol
# GULP energy per Si atom -5597.778212 kJ/mol
# Density = 1.986058 g / cm^3
# Si number density = 19.905887 Si / 1000 Ang^3
#
#
#
# Elastic Constant Matrix: (Units=GPa)
#
#
# Indices 1 2 3 4 5 6 
#
# 1 65.2240 -22.3561 30.4211 0.0008 0.0000 0.0000
# 2 -22.3561 65.2240 30.4211 -0.0008 0.0000 0.0000
# 3 30.4211 30.4211 240.9177 0.0000 0.0000 0.0000
# 4 0.0008 -0.0008 0.0000 -11.3144 0.0000 0.0000
# 5 0.0000 0.0000 0.0000 0.0000 -11.3144 0.0008
# 6 0.0000 0.0000 0.0000 0.0000 0.0008 43.7901
#
#
#
# Elastic Compliance Matrix: (Units=1/GPa)
#
#
# Indices 1 2 3 4 5 6 
#
# 1 0.019920 0.008501 -0.003589 0.000001 0.000000 0.000000
# 2 0.008501 0.019920 -0.003589 -0.000001 0.000000 0.000000
# 3 -0.003589 -0.003589 0.005057 0.000000 0.000000 0.000000
# 4 0.000001 -0.000001 0.000000 -0.088383 0.000000 0.000000
# 5 0.000000 0.000000 0.000000 0.000000 -0.088383 0.000002
# 6 0.000000 0.000000 0.000000 0.000000 0.000002 0.022836
#
#
# Mechanical properties :
#
#
# Convention : Reuss Voigt Hill
#
# Bulk Modulus (GPa) = 21.03312 49.81531 35.42421
# Shear Modulus (GPa) = -52.17414 26.42423 -12.87496
#
# Velocity S-wave (km/s) = -5.12516 3.64738 -2.54597
# Velocity P-wave (km/s) = 4.94306 6.54352 3.03181
#
# Compressibility (1/GPa) = 0.04754407
#
# Stress axis : x y z
#
# Youngs Moduli (GPa) = 50.20189 50.20189 197.74114
#
# Poissons Ratio (x) = -0.42679 0.70965
# Poissons Ratio (y) = -0.42679 0.70965
# Poissons Ratio (z) = 0.18016 0.18016
#
# Static dielectric constant tensor:
#      x y z
#    x 1.669400 0.000000 0.000000 
#    y 0.000000 1.669400 0.000000 
#    z 0.000000 0.000000 1.675330 
# 
# From -- ./inp_files/780.got.cif
#   From: 2010.05.17/outbox.cif.g08.bks.cpg/sg158_cif.got.tgz:780.got - 2010.05.20 10:49:59.
