data_PCOD9577945
_publ_section_title
;
Structure prediction by ZEFSAII (Michael W. Deem and Ramdas Pophale) SiO2 
 PCOD9577945
Probable space group: P -3 1 M 
;
_chemical_formula_sum "Si O2"
_cell_formula_units_Z 72
_cell_length_a 23.402501
_cell_length_b 23.402501
_cell_length_c 8.267979
_cell_angle_alpha 90.000000
_cell_angle_beta 90.000000
_cell_angle_gamma 120.000000
_cell_volume 3921.520968
_symmetry_space_group_name_H-M "P -3 1 M "
_symmetry_group_IT_number 162
_symmetry_cell_setting 'hexagonal'
loop_
_space_group_symop_operation_xyz
x,y,z
-y,x-y,z
-x+y,-x,z
-y,-x,-z
-x+y,y,-z
x,x-y,-z
-x,-y,-z
y,-x+y,-z
x-y,x,-z
y,x,z
x-y,-y,z
-x,-x+y,z
loop_
_atom_site_type_symbol
_atom_site_label
_atom_site_fract_x
_atom_site_fract_y
_atom_site_fract_z
Si Si1 0.926164 0.202056 0.444716
Si Si2 0.074154 0.407781 0.052705
Si Si3 0.202056 0.926164 0.055282
Si Si4 0.666537 0.203781 0.943546
Si Si5 0.333627 0.407781 0.552707
Si Si6 0.537245 0.333464 0.556454
O O1 0.867885 0.132116 0.500000
O O2 0.926726 0.202695 0.249999
O O3 0.914187 0.261855 0.496612
O O4 0.000000 0.222640 0.500008
O O5 0.085813 0.347668 0.003386
O O6 0.133781 0.477243 0.996061
O O7 0.074220 0.408678 0.249999
O O8 0.000000 0.387387 0.000979
O O9 0.222640 0.000000 0.999989
O O10 0.132116 0.867885 0.000000
O O11 0.666664 0.202623 0.750000
O O12 0.736069 0.263932 0.000000
O O13 0.606909 0.213817 0.000000
O O14 0.387387 0.387387 0.500980
O O15 0.343462 0.477243 0.496062
O O16 0.606909 0.393092 0.500000
O O17 0.527863 0.263932 0.500000
#
# Coordination Sequence:
#
# PCOD9577945 Si02
#       6
#    12  12  12  12  12  12
#     4   9  17  30  49  73 100 129 161 197 240 290
#     4   8  16  32  53  76 101 128 157 196 249 299
#     4   9  17  30  49  73 100 129 161 197 240 290
#     4  11  22  36  54  74  99 131 168 206 243 288
#     4   8  16  32  53  76 101 128 157 196 249 299
#     4  11  22  36  54  74  99 131 168 206 243 288
#
# _framework density 18.360222
#
# number of rings (size 3 to 8) (size 9 to 14) (size 15 to 20)
#    0.000    2.667    0.000    4.333    0.000    1.333 
#    0.000    1.667    0.000    7.333    0.000    0.000 
#    0.000    0.000    0.000    0.000    0.000    0.000 
#
# Total GULP energy -401618.361538 kJ/mol
# GULP energy per Si atom -5578.032799 kJ/mol
# Density = 1.831843 g / cm^3
# Si number density = 18.360222 Si / 1000 Ang^3
#
#
#
# Elastic Constant Matrix: (Units=GPa)
#
#
# Indices 1 2 3 4 5 6 
#
# 1 123.9981 80.4156 16.0086 0.0015 -0.0003 0.0000
# 2 80.4156 123.9981 16.0086 -0.0015 0.0003 0.0000
# 3 16.0086 16.0086 19.6471 0.0000 0.0000 0.0000
# 4 0.0015 -0.0015 0.0000 10.2016 0.0000 0.0003
# 5 -0.0003 0.0003 0.0000 0.0000 10.2016 0.0015
# 6 0.0000 0.0000 0.0000 0.0003 0.0015 21.7912
#
#
#
# Elastic Compliance Matrix: (Units=1/GPa)
#
#
# Indices 1 2 3 4 5 6 
#
# 1 0.014276 -0.008669 -0.004569 -0.000003 0.000001 0.000000
# 2 -0.008669 0.014276 -0.004569 0.000003 -0.000001 0.000000
# 3 -0.004569 -0.004569 0.058344 0.000000 0.000000 0.000000
# 4 -0.000003 0.000003 0.000000 0.098023 0.000000 -0.000001
# 5 0.000001 -0.000001 0.000000 0.000000 0.098023 -0.000007
# 6 0.000000 0.000000 0.000000 -0.000001 -0.000007 0.045890
#
#
# Mechanical properties :
#
#
# Convention : Reuss Voigt Hill
#
# Bulk Modulus (GPa) = 19.49977 54.72320 37.11148
# Shear Modulus (GPa) = 13.10473 18.78628 15.94550
#
# Velocity S-wave (km/s) = 2.67452 3.20223 2.95020
# Velocity P-wave (km/s) = 4.49234 6.59866 5.64462
#
# Compressibility (1/GPa) = 0.05128266
#
# Stress axis : x y z
#
# Youngs Moduli (GPa) = 70.04590 70.04590 17.13973
#
# Poissons Ratio (x) = 0.60720 0.07831
# Poissons Ratio (y) = 0.60720 0.07831
# Poissons Ratio (z) = 0.32005 0.32005
#
# Static dielectric constant tensor:
#      x y z
#    x 1.623160 0.000000 0.000000 
#    y 0.000000 1.623160 0.000000 
#    z 0.000000 0.000000 1.644980 
# 
# From -- ./inp_files/1742.got.cif
#   From: 2010.05.17/outbox.cif.g08.bks.cpg/sg162_1_cif.got.tgz:1742.got - 2010.05.20 10:53:12.
