data_PCOD9577985
_publ_section_title
;
Structure prediction by ZEFSAII (Michael W. Deem and Ramdas Pophale) SiO2 
 PCOD9577985
Probable space group: P -3 1 C
;
_chemical_formula_sum "Si O2"
_cell_formula_units_Z 82
_cell_length_a 20.551396
_cell_length_b 20.551396
_cell_length_c 11.605334
_cell_angle_alpha 90.000000
_cell_angle_beta 90.000000
_cell_angle_gamma 120.000000
_cell_volume 4244.933889
_symmetry_space_group_name_H-M "P -3 1 C"
_symmetry_group_IT_number 163
_symmetry_cell_setting 'hexagonal'
loop_
_space_group_symop_operation_xyz
x,y,z
-y,x-y,z
-x+y,-x,z
-y,-x,1/2-z
-x+y,y,1/2-z
x,x-y,1/2-z
-x,-y,-z
y,-x+y,-z
x-y,x,-z
y,x,1/2+z
x-y,-y,1/2+z
-x,-x+y,1/2+z
loop_
_atom_site_type_symbol
_atom_site_label
_atom_site_fract_x
_atom_site_fract_y
_atom_site_fract_z
Si Si1 0.324377 0.278026 0.284656
Si Si2 0.114590 0.229180 0.750000
Si Si3 0.765415 0.584082 0.035248
Si Si4 0.666668 0.333334 0.388665
Si Si5 0.807080 0.696629 0.635079
Si Si6 0.528923 0.659924 0.836513
Si Si7 0.091243 0.929530 0.979564
Si Si8 0.832931 0.452105 0.413724
O O1 0.276200 0.201285 0.213071
O O2 0.358282 0.248528 0.386392
O O3 0.272441 0.309807 0.331544
O O4 0.393137 0.333710 0.203292
O O5 0.069076 0.183319 0.640624
O O6 0.808957 0.548992 0.107543
O O7 0.680135 0.518740 0.006917
O O8 0.820576 0.626247 0.929336
O O9 0.666668 0.333334 0.250000
O O10 0.750939 0.381701 0.430279
O O11 0.856147 0.712293 0.750000
O O12 0.848720 0.765253 0.546447
O O13 0.485753 0.648483 0.714824
O O14 0.471387 0.587426 0.911660
O O15 0.015298 0.893952 0.050934
#
# Coordination Sequence:
#
# PCOD9577985 Si02
#       8
#    12   6  12   4  12  12  12  12
#     4  11  20  36  59  89 118 159 205 260 318 377
#     4  12  20  38  64  84 124 162 208 262 320 388
#     4  11  20  36  58  90 125 161 205 255 319 383
#     4  12  12  21  48  96 127 146 172 237 321 382
#     4  12  25  42  61  82 118 171 229 265 303 380
#     4  10  18  30  56  92 130 152 185 252 327 385
#     4  12  25  40  60  90 121 162 212 275 336 381
#     4  10  18  27  55  97 131 150 187 253 326 389
#
# _framework density 19.317145
#
# number of rings (size 3 to 8) (size 9 to 14) (size 15 to 20)
#    0.000    0.878    7.317    2.341    0.000    1.171 
#    0.000    0.000    0.000   16.683    0.000    0.000 
#    0.000    0.000    0.000    0.000    0.000    0.000 
#
# Total GULP energy -457015.736539 kJ/mol
# GULP energy per Si atom -5573.362641 kJ/mol
# Density = 1.927318 g / cm^3
# Si number density = 19.317145 Si / 1000 Ang^3
#
#
#
# Elastic Constant Matrix: (Units=GPa)
#
#
# Indices 1 2 3 4 5 6 
#
# 1 102.0903 41.0007 23.1031 0.0001 1.1227 0.0000
# 2 41.0007 102.0902 23.1032 -0.0001 -1.1227 0.0000
# 3 23.1031 23.1032 42.4798 0.0001 0.0000 0.0001
# 4 0.0001 -0.0001 0.0001 16.1931 0.0000 -1.1227
# 5 1.1227 -1.1227 0.0000 0.0000 16.1931 0.0001
# 6 0.0000 0.0000 0.0001 -1.1227 0.0001 30.5448
#
#
#
# Elastic Compliance Matrix: (Units=1/GPa)
#
#
# Indices 1 2 3 4 5 6 
#
# 1 0.012444 -0.003967 -0.004610 0.000000 -0.001138 0.000000
# 2 -0.003967 0.012444 -0.004611 0.000000 0.001138 0.000000
# 3 -0.004610 -0.004611 0.028556 0.000000 0.000000 0.000000
# 4 0.000000 0.000000 0.000000 0.061913 0.000000 0.002276
# 5 -0.001138 0.001138 0.000000 0.000000 0.061913 0.000000
# 6 0.000000 0.000000 0.000000 0.002276 0.000000 0.032822
#
#
# Mechanical properties :
#
#
# Convention : Reuss Voigt Hill
#
# Bulk Modulus (GPa) = 36.94367 46.78605 41.86486
# Shear Modulus (GPa) = 20.36737 23.21639 21.79188
#
# Velocity S-wave (km/s) = 3.25063 3.47054 3.36238
# Velocity P-wave (km/s) = 5.76672 6.35075 6.06577
#
# Compressibility (1/GPa) = 0.02706824
#
# Stress axis : x y z
#
# Youngs Moduli (GPa) = 80.35813 80.35796 35.01941
#
# Poissons Ratio (x) = 0.31877 0.16146
# Poissons Ratio (y) = 0.31878 0.16146
# Poissons Ratio (z) = 0.37049 0.37049
#
# Static dielectric constant tensor:
#      x y z
#    x 1.731480 0.000000 0.000000 
#    y 0.000000 1.731480 0.000000 
#    z 0.000000 0.000000 1.670790 
# 
# From -- ./inp_files/1871.got.cif
#   From: 2010.05.17/outbox.cif.g08.bks.cpg/sg163_1_cif.got.tgz:1871.got - 2010.05.20 10:56:03.
