data_PCOD9577056
_publ_section_title
;
Structure prediction by ZEFSAII (Michael W. Deem and Ramdas Pophale) SiO2 
 PCOD9577056
Probable space group: R 3 2
;
_chemical_formula_sum "Si O2"
_cell_formula_units_Z 114
_cell_length_a 20.202322
_cell_length_b 20.202322
_cell_length_c 14.445613
_cell_angle_alpha 90.000000
_cell_angle_beta 90.000000
_cell_angle_gamma 120.000000
_cell_volume 5105.863327
_symmetry_space_group_name_H-M "R 3 2"
_symmetry_group_IT_number 155
_symmetry_cell_setting 'hexagonal'
loop_
_space_group_symop_operation_xyz
x,y,z
-y,x-y,z
-x+y,-x,z
x-y,-y,-z
-x,-x+y,-z
y,x,-z
2/3+x,1/3+y,1/3+z
2/3-y,1/3+x-y,1/3+z
2/3-x+y,1/3-x,1/3+z
2/3+x-y,1/3-y,1/3-z
2/3-x,1/3-x+y,1/3-z
2/3+y,1/3+x,1/3-z
1/3+x,2/3+y,2/3+z
1/3-y,2/3+x-y,2/3+z
1/3-x+y,2/3-x,2/3+z
1/3+x-y,2/3-y,2/3-z
1/3-x,2/3-x+y,2/3-z
1/3+y,2/3+x,2/3-z
loop_
_atom_site_type_symbol
_atom_site_label
_atom_site_fract_x
_atom_site_fract_y
_atom_site_fract_z
Si Si1 0.000000 0.000000 0.107421
Si Si2 0.570108 0.993684 0.175201
Si Si3 0.160121 0.028865 0.879935
Si Si4 0.209449 0.391794 0.687184
Si Si5 0.708378 0.180828 0.604537
Si Si6 0.762257 0.874957 0.780985
Si Si7 0.422025 0.578483 0.136825
O O1 0.932469 0.915047 0.125814
O O2 0.000000 0.000000 0.000000
O O3 0.612767 0.946101 0.166667
O O4 0.479803 0.929989 0.171626
O O5 0.582858 0.035258 0.274486
O O6 0.600746 0.052732 0.089511
O O7 0.209008 0.072724 0.971985
O O8 0.174129 0.098506 0.816105
O O9 0.178093 0.971465 0.823488
O O10 0.135987 0.312984 0.720872
O O11 0.245432 0.417954 0.789503
O O12 0.617384 0.146662 0.612617
O O13 0.749690 0.231351 0.693475
O O14 0.473722 0.666667 0.166667
O O15 0.333334 0.545267 0.166667
#
# Coordination Sequence:
#
# PCOD9577056 Si02
#       7
#     6  18  18  18  18  18  18
#     4  12  21  36  63  99 145 176 211 291 369 420
#     4  10  23  45  69 102 140 182 238 299 354 431
#     4  11  24  41  67 102 142 178 233 289 357 431
#     4  10  24  41  68 100 137 186 230 278 359 428
#     4  11  25  41  70 106 134 183 237 290 368 424
#     4  11  22  43  69 101 145 182 231 293 351 444
#     4  11  25  44  69  99 140 185 237 294 354 429
#
# _framework density 22.327272000000001
#
# number of rings (size 3 to 8) (size 9 to 14) (size 15 to 20)
#    0.000    1.263    1.579    3.947    6.632    1.895 
#    2.842    0.000   20.842    0.000    0.000    0.000 
#    0.000    0.000    0.000    0.000    0.000    0.000 
#
# Total GULP energy -211642.067055 kJ/mol
# GULP energy per Si atom -5569.528080 kJ/mol
# Density = 2.227645 g / cm^3
# Si number density = 22.327272 Si / 1000 Ang^3
#
#
#
# Elastic Constant Matrix: (Units=GPa)
#
#
# Indices 1 2 3 4 5 6 
#
# 1 87.8638 44.4780 30.0059 1.6349 -0.0002 0.0000
# 2 44.4780 87.8638 30.0059 -1.6349 0.0002 0.0000
# 3 30.0059 30.0059 91.5472 0.0000 0.0000 0.0000
# 4 1.6349 -1.6349 0.0000 33.3516 0.0000 0.0002
# 5 -0.0002 0.0002 0.0000 0.0000 33.3516 1.6349
# 6 0.0000 0.0000 0.0000 0.0002 1.6349 21.6929
#
#
#
# Elastic Compliance Matrix: (Units=1/GPa)
#
#
# Indices 1 2 3 4 5 6 
#
# 1 0.016005 -0.007130 -0.002909 -0.001134 0.000000 0.000000
# 2 -0.007130 0.016005 -0.002909 0.001134 0.000000 0.000000
# 3 -0.002909 -0.002909 0.012830 0.000000 0.000000 0.000000
# 4 -0.001134 0.001134 0.000000 0.030095 0.000000 0.000000
# 5 0.000000 0.000000 0.000000 0.000000 0.030095 -0.002268
# 6 0.000000 0.000000 0.000000 0.000000 -0.002268 0.046269
#
#
# Mechanical properties :
#
#
# Convention : Reuss Voigt Hill
#
# Bulk Modulus (GPa) = 52.78479 52.91715 52.85097
# Shear Modulus (GPa) = 27.24664 28.53154 27.88909
#
# Velocity S-wave (km/s) = 3.49711 3.57862 3.53810
# Velocity P-wave (km/s) = 6.32448 6.38964 6.35715
#
# Compressibility (1/GPa) = 0.01894485
#
# Stress axis : x y z
#
# Youngs Moduli (GPa) = 62.48079 62.48079 77.94066
#
# Poissons Ratio (x) = 0.44546 0.22673
# Poissons Ratio (y) = 0.44546 0.22673
# Poissons Ratio (z) = 0.18176 0.18176
#
# Static dielectric constant tensor:
#      x y z
#    x 1.908690 0.000000 0.000000 
#    y 0.000000 1.908690 0.000000 
#    z 0.000000 0.000000 1.882610 
# 
# From -- ./inp_files/5203.got.cif
#   From: 2010.05.17/outbox.cif.g08.bks.cpg/sg155_3_cif.got.tgz:5203.got - 2010.05.20 10:44:35.
