data_PCOD9577935
_publ_section_title
;
Structure prediction by ZEFSAII (Michael W. Deem and Ramdas Pophale) SiO2 
 PCOD9577935
Probable space group: P -3 1 M 
;
_chemical_formula_sum "Si O2"
_cell_formula_units_Z 48
_cell_length_a 18.850641
_cell_length_b 18.850641
_cell_length_c 7.778700
_cell_angle_alpha 90.000000
_cell_angle_beta 90.000000
_cell_angle_gamma 120.000000
_cell_volume 2393.811226
_symmetry_space_group_name_H-M "P -3 1 M "
_symmetry_group_IT_number 162
_symmetry_cell_setting 'hexagonal'
loop_
_space_group_symop_operation_xyz
x,y,z
-y,x-y,z
-x+y,-x,z
-y,-x,-z
-x+y,y,-z
x,x-y,-z
-x,-y,-z
y,-x+y,-z
x-y,x,-z
y,x,z
x-y,-y,z
-x,-x+y,z
loop_
_atom_site_type_symbol
_atom_site_label
_atom_site_fract_x
_atom_site_fract_y
_atom_site_fract_z
Si Si1 0.650478 0.740723 0.318376
Si Si2 0.205476 0.514742 0.836636
Si Si3 0.180100 0.540104 0.332996
Si Si4 0.757146 0.092848 0.267156
O O1 0.707072 0.707072 0.249423
O O2 0.555310 0.671305 0.303490
O O3 0.662000 0.752349 0.524716
O O4 0.673922 0.827646 0.233441
O O5 0.273051 0.537469 0.683911
O O6 0.181940 0.584209 0.819707
O O7 0.125834 0.427058 0.804208
O O8 0.255778 0.511555 0.000000
O O9 0.165880 0.582940 0.500000
O O10 0.728010 0.000000 0.210203
#
# Coordination Sequence:
#
# PCOD9577935 Si02
#       4
#    12  12  12  12
#     4   9  18  33  57  88 112 138 186 244 293 342
#     4  11  22  35  50  78 116 153 192 235 276 326
#     4  11  20  34  53  77 107 150 196 236 278 331
#     4   9  18  35  57  80 109 148 186 230 288 349
#
# _framework density 20.051708000000001
#
# number of rings (size 3 to 8) (size 9 to 14) (size 15 to 20)
#    0.000    2.000    2.500    2.000    0.000    1.500 
#    0.000    5.000    0.000    8.000    0.000    3.500 
#    0.000    1.000    0.000    0.000    0.000    0.000 
#
# Total GULP energy -267432.203901 kJ/mol
# GULP energy per Si atom -5571.504248 kJ/mol
# Density = 2.000607 g / cm^3
# Si number density = 20.051708 Si / 1000 Ang^3
#
#
#
# Elastic Constant Matrix: (Units=GPa)
#
#
# Indices 1 2 3 4 5 6 
#
# 1 105.4788 127.7872 12.6380 -0.0001 11.8694 0.0000
# 2 127.7872 105.4788 12.6380 0.0001 -11.8694 0.0000
# 3 12.6380 12.6380 77.2406 0.0000 0.0000 0.0000
# 4 -0.0001 0.0001 0.0000 5.2181 0.0000 -11.8694
# 5 11.8694 -11.8694 0.0000 0.0000 5.2181 -0.0001
# 6 0.0000 0.0000 0.0000 -11.8694 -0.0001 -11.1542
#
#
#
# Elastic Compliance Matrix: (Units=1/GPa)
#
#
# Indices 1 2 3 4 5 6 
#
# 1 -0.004370 0.008735 -0.000714 0.000000 0.029810 0.000000
# 2 0.008735 -0.004370 -0.000714 0.000000 -0.029810 0.000000
# 3 -0.000714 -0.000714 0.013180 0.000000 0.000000 0.000000
# 4 0.000000 0.000000 0.000000 0.056027 0.000000 -0.059619
# 5 0.029810 -0.029810 0.000000 0.000000 0.056027 0.000000
# 6 0.000000 0.000000 0.000000 -0.059619 0.000000 -0.026210
#
#
# Mechanical properties :
#
#
# Convention : Reuss Voigt Hill
#
# Bulk Modulus (GPa) = 52.48639 66.03604 59.26122
# Shear Modulus (GPa) = 60.96051 8.86541 34.91296
#
# Velocity S-wave (km/s) = 5.51975 2.10496 4.17723
# Velocity P-wave (km/s) = 8.17654 6.23796 7.27214
#
# Compressibility (1/GPa) = 0.01905256
#
# Stress axis : x y z
#
# Youngs Moduli (GPa) = -228.81186 -228.81186 75.87116
#
# Poissons Ratio (x) = 1.99861 0.05418
# Poissons Ratio (y) = 1.99861 0.05418
# Poissons Ratio (z) = -0.16339 -0.16339
#
# Static dielectric constant tensor:
#      x y z
#    x 1.710800 0.000000 0.000000 
#    y 0.000000 1.710800 0.000000 
#    z 0.000000 0.000000 1.764780 
# 
# From -- ./inp_files/1219.got.cif
#   From: 2010.05.17/outbox.cif.g08.bks.cpg/sg162_1_cif.got.tgz:1219.got - 2010.05.20 10:53:12.
