data_PCOD9577938
_publ_section_title
;
Structure prediction by ZEFSAII (Michael W. Deem and Ramdas Pophale) SiO2 
 PCOD9577938
Probable space group: P -3 1 M 
;
_chemical_formula_sum "Si O2"
_cell_formula_units_Z 60
_cell_length_a 14.632955
_cell_length_b 14.632955
_cell_length_c 14.292036
_cell_angle_alpha 90.000000
_cell_angle_beta 90.000000
_cell_angle_gamma 120.000000
_cell_volume 2650.261986
_symmetry_space_group_name_H-M "P -3 1 M "
_symmetry_group_IT_number 162
_symmetry_cell_setting 'hexagonal'
loop_
_space_group_symop_operation_xyz
x,y,z
-y,x-y,z
-x+y,-x,z
-y,-x,-z
-x+y,y,-z
x,x-y,-z
-x,-y,-z
y,-x+y,-z
x-y,x,-z
y,x,z
x-y,-y,z
-x,-x+y,z
loop_
_atom_site_type_symbol
_atom_site_label
_atom_site_fract_x
_atom_site_fract_y
_atom_site_fract_z
Si Si1 0.302383 0.116976 0.397559
Si Si2 0.571671 0.447825 0.798378
Si Si3 0.876882 0.400359 0.403968
Si Si4 0.332284 0.217215 0.205569
Si Si5 0.878854 0.588541 0.928793
O O1 0.272277 0.136139 0.500000
O O2 0.414088 0.122000 0.408776
O O3 0.318055 0.197951 0.316406
O O4 0.217689 0.000000 0.365516
O O5 0.482654 0.482654 0.791951
O O6 0.574780 0.403467 0.696076
O O7 0.680875 0.553561 0.813585
O O8 0.526619 0.365561 0.883105
O O9 0.829062 0.414531 0.500000
O O10 0.000000 0.495365 0.402306
O O11 0.244675 0.244675 0.170733
O O12 0.338713 0.123220 0.155744
O O13 0.000000 0.638815 0.964534
O O14 0.793793 0.587586 0.000000
#
# Coordination Sequence:
#
# PCOD9577938 Si02
#       5
#    12  12  12  12  12
#     4  11  21  35  58  89 128 178 228 272 322 391
#     4   9  19  37  60  90 125 162 211 268 330 397
#     4   9  16  30  54  82 117 163 211 262 320 381
#     4  11  22  39  65  94 129 173 218 269 333 405
#     4  11  23  43  69  96 129 171 220 273 330 395
#
# _framework density 22.639271999999998
#
# number of rings (size 3 to 8) (size 9 to 14) (size 15 to 20)
#    0.000    1.800    2.000    3.000    0.000    4.000 
#    1.200    3.000    0.000   13.600    0.000    0.000 
#    0.000    0.000    0.000    0.000    0.000    0.000 
#
# Total GULP energy -335191.676962 kJ/mol
# GULP energy per Si atom -5586.527949 kJ/mol
# Density = 2.258774 g / cm^3
# Si number density = 22.639272 Si / 1000 Ang^3
#
#
#
# Elastic Constant Matrix: (Units=GPa)
#
#
# Indices 1 2 3 4 5 6 
#
# 1 69.4187 30.9829 29.8934 0.0001 8.9001 0.0000
# 2 30.9829 69.4187 29.8934 -0.0001 -8.9001 0.0000
# 3 29.8934 29.8934 125.1468 0.0000 0.0000 0.0000
# 4 0.0001 -0.0001 0.0000 26.9504 0.0000 -8.9001
# 5 8.9001 -8.9001 0.0000 0.0000 26.9504 0.0001
# 6 0.0000 0.0000 0.0000 -8.9001 0.0001 19.2179
#
#
#
# Elastic Compliance Matrix: (Units=1/GPa)
#
#
# Indices 1 2 3 4 5 6 
#
# 1 0.021163 -0.009552 -0.002774 0.000000 -0.010143 0.000000
# 2 -0.009552 0.021163 -0.002774 0.000000 0.010143 0.000000
# 3 -0.002774 -0.002774 0.009316 0.000000 0.000000 0.000000
# 4 0.000000 0.000000 0.000000 0.043805 0.000000 0.020287
# 5 -0.010143 0.010143 0.000000 0.000000 0.043805 0.000000
# 6 0.000000 0.000000 0.000000 0.020287 0.000000 0.061430
#
#
# Mechanical properties :
#
#
# Convention : Reuss Voigt Hill
#
# Bulk Modulus (GPa) = 46.63220 49.50264 48.06742
# Shear Modulus (GPa) = 21.00592 26.17135 23.58864
#
# Velocity S-wave (km/s) = 3.04937 3.40371 3.23140
# Velocity P-wave (km/s) = 5.74812 6.11231 5.93301
#
# Compressibility (1/GPa) = 0.02144441
#
# Stress axis : x y z
#
# Youngs Moduli (GPa) = 47.25152 47.25152 107.34598
#
# Poissons Ratio (x) = 0.45133 0.29774
# Poissons Ratio (y) = 0.45133 0.29774
# Poissons Ratio (z) = 0.13106 0.13106
#
# Static dielectric constant tensor:
#      x y z
#    x 1.847330 0.000000 0.000000 
#    y 0.000000 1.847330 0.000000 
#    z 0.000000 0.000000 1.907790 
# 
# From -- ./inp_files/2925.got.cif
#   From: 2010.05.17/outbox.cif.g08.bks.cpg/sg162_2_cif.got.tgz:2925.got - 2010.05.20 10:53:12.
