data_PCOD9577759
_publ_section_title
;
Structure prediction by ZEFSAII (Michael W. Deem and Ramdas Pophale) SiO2 
 PCOD9577759
Probable space group: P -3 1 M 
;
_chemical_formula_sum "Si O2"
_cell_formula_units_Z 76
_cell_length_a 17.514054
_cell_length_b 17.514054
_cell_length_c 15.998433
_cell_angle_alpha 90.000000
_cell_angle_beta 90.000000
_cell_angle_gamma 120.000000
_cell_volume 4249.926775
_symmetry_space_group_name_H-M "P -3 1 M "
_symmetry_group_IT_number 162
_symmetry_cell_setting 'hexagonal'
loop_
_space_group_symop_operation_xyz
x,y,z
-y,x-y,z
-x+y,-x,z
-y,-x,-z
-x+y,y,-z
x,x-y,-z
-x,-y,-z
y,-x+y,-z
x-y,x,-z
y,x,z
x-y,-y,z
-x,-x+y,z
loop_
_atom_site_type_symbol
_atom_site_label
_atom_site_fract_x
_atom_site_fract_y
_atom_site_fract_z
Si Si1 0.788659 0.529001 0.370739
Si Si2 0.180925 0.386021 0.097889
Si Si3 0.193462 0.096360 0.101650
Si Si4 0.553253 0.896302 0.207412
Si Si5 0.358161 0.461721 0.525827
Si Si6 0.589578 0.106105 0.908310
Si Si7 0.666668 0.333335 0.600534
O O1 0.838782 0.557846 0.283527
O O2 0.704798 0.538946 0.399141
O O3 0.860271 0.565637 0.445070
O O4 0.746786 0.423920 0.369944
O O5 0.112705 0.288197 0.129548
O O6 0.274319 0.406004 0.132756
O O7 0.153434 0.459879 0.110667
O O8 0.190120 0.380241 0.000000
O O9 0.170426 0.170426 0.129171
O O10 0.118606 0.000000 0.128589
O O11 0.192915 0.096458 0.000000
O O12 0.459445 0.875522 0.168345
O O13 0.606622 0.000000 0.227448
O O14 0.442268 0.557733 0.500000
O O15 0.399042 0.399042 0.542050
O O16 0.548231 0.000000 0.912415
O O17 0.565646 0.131291 0.000000
O O18 0.666668 0.333334 0.500000
#
# Coordination Sequence:
#
# PCOD9577759 Si02
#       7
#    12  12  12  12  12  12   4
#     4  11  20  36  56  84 119 153 193 237 289 346
#     4  11  21  36  56  78 102 148 194 243 298 358
#     4   9  17  29  50  77 103 129 167 219 280 348
#     4  11  25  40  56  81 115 153 198 253 305 352
#     4  10  19  34  59  87 119 155 190 230 281 348
#     4  10  21  39  57  77 108 149 199 254 306 356
#     4  12  18  36  57  87 112 149 190 225 279 336
#
# _framework density 17.882662
#
# number of rings (size 3 to 8) (size 9 to 14) (size 15 to 20)
#    0.000    1.579    4.737    1.579    2.211    1.895 
#    0.947    2.368    0.000    0.000    0.000    0.000 
#    0.000    0.000    0.000   48.947    0.000    0.000 
#
# Total GULP energy -423103.743558 kJ/mol
# GULP energy per Si atom -5567.154520 kJ/mol
# Density = 1.784196 g / cm^3
# Si number density = 17.882662 Si / 1000 Ang^3
#
#
#
# Elastic Constant Matrix: (Units=GPa)
#
#
# Indices 1 2 3 4 5 6 
#
# 1 90.0554 44.6509 21.2142 0.0026 0.0576 0.0023
# 2 44.6509 90.0541 21.2140 -0.0026 -0.0579 -0.0027
# 3 21.2142 21.2140 59.4016 0.0000 -0.0001 0.0000
# 4 0.0026 -0.0026 0.0000 11.6481 -0.0031 -0.0596
# 5 0.0576 -0.0579 -0.0001 -0.0031 11.6503 -0.0028
# 6 0.0023 -0.0027 0.0000 -0.0596 -0.0028 22.7002
#
#
#
# Elastic Compliance Matrix: (Units=1/GPa)
#
#
# Indices 1 2 3 4 5 6 
#
# 1 0.015195 -0.006830 -0.002987 -0.000005 -0.000109 -0.000002
# 2 -0.006830 0.015195 -0.002987 0.000005 0.000109 0.000003
# 3 -0.002987 -0.002987 0.018968 0.000000 0.000000 0.000000
# 4 -0.000005 0.000005 0.000000 0.085852 0.000023 0.000225
# 5 -0.000109 0.000109 0.000000 0.000023 0.085836 0.000011
# 6 -0.000002 0.000003 0.000000 0.000225 0.000011 0.044053
#
#
# Mechanical properties :
#
#
# Convention : Reuss Voigt Hill
#
# Bulk Modulus (GPa) = 42.10821 45.96325 44.03573
# Shear Modulus (GPa) = 16.74346 19.36184 18.05265
#
# Velocity S-wave (km/s) = 3.06321 3.29403 3.18072
# Velocity P-wave (km/s) = 6.00909 6.34240 6.17799
#
# Compressibility (1/GPa) = 0.02374834
#
# Stress axis : x y z
#
# Youngs Moduli (GPa) = 65.81301 65.81211 52.71978
#
# Poissons Ratio (x) = 0.44951 0.15748
# Poissons Ratio (y) = 0.44952 0.15749
# Poissons Ratio (z) = 0.19660 0.19659
#
# Static dielectric constant tensor:
#      x y z
#    x 1.670420 -0.000010 0.000000 
#    y -0.000010 1.670420 0.000000 
#    z 0.000000 0.000000 1.618270 
# 
# From -- ./inp_files/3140.got.cif
#   From: 2010.05.17/outbox.cif.g08.bks.cpg/sg162_2_cif.got.tgz:3140.got - 2010.05.20 10:53:12.
