data_PCOD9577531
_publ_section_title
;
Structure prediction by ZEFSAII (Michael W. Deem and Ramdas Pophale) SiO2 
 PCOD9577531
Probable space group: R 3 C
;
_chemical_formula_sum "Si O2"
_cell_formula_units_Z 108
_cell_length_a 19.967954
_cell_length_b 19.967954
_cell_length_c 14.554813
_cell_angle_alpha 90.000000
_cell_angle_beta 90.000000
_cell_angle_gamma 120.000000
_cell_volume 5025.790681
_symmetry_space_group_name_H-M "R 3 C"
_symmetry_group_IT_number 161
_symmetry_cell_setting 'hexagonal'
loop_
_space_group_symop_operation_xyz
x,y,z
-y,x-y,z
-x+y,-x,z
-x+y,y,1/2+z
x,x-y,1/2+z
-y,-x,1/2+z
2/3+x,1/3+y,1/3+z
2/3-y,1/3+x-y,1/3+z
2/3-x+y,1/3-x,1/3+z
2/3-x+y,1/3+y,5/6+z
2/3+x,1/3+x-y,5/6+z
2/3-y,1/3-x,5/6+z
1/3+x,2/3+y,2/3+z
1/3-y,2/3+x-y,2/3+z
1/3-x+y,2/3-x,2/3+z
1/3-x+y,2/3+y,1/6+z
1/3+x,2/3+x-y,1/6+z
1/3-y,2/3-x,1/6+z
loop_
_atom_site_type_symbol
_atom_site_label
_atom_site_fract_x
_atom_site_fract_y
_atom_site_fract_z
Si Si1 0.423469 0.540104 0.821535
Si Si2 0.314039 0.322694 0.405626
Si Si3 0.246372 0.360782 0.238819
Si Si4 0.820549 0.999784 0.793605
Si Si5 0.569424 0.754607 0.375794
Si Si6 0.520945 0.928920 0.634132
O O1 0.471792 0.501409 0.859678
O O2 0.452803 0.616318 0.881028
O O3 0.333636 0.479821 0.844829
O O4 0.440307 0.543485 0.713697
O O5 0.258174 0.311777 0.320229
O O6 0.287094 0.263247 0.491693
O O7 0.332045 0.406020 0.441361
O O8 0.383290 0.316501 0.356384
O O9 0.235353 0.424740 0.291427
O O10 0.804140 0.962423 0.892650
O O11 0.891703 0.085888 0.789286
O O12 0.656582 0.787548 0.415196
#
# Coordination Sequence:
#
# PCOD9577531 Si02
#       6
#    18  18  18  18  18  18
#     4  11  24  42  60  96 135 174 223 269 326 409
#     4  10  19  36  60  96 128 169 204 280 334 400
#     4  10  20  35  64  92 136 159 220 268 341 390
#     4  11  24  41  66  96 135 175 220 274 337 398
#     4  11  24  42  63 100 131 181 218 275 339 398
#     4  11  21  38  65  96 131 166 219 272 345 397
#
# _framework density 21.489156999999999
#
# number of rings (size 3 to 8) (size 9 to 14) (size 15 to 20)
#    0.000    1.333    5.000    1.000    2.333    2.667 
#    1.000    0.000    0.000    0.000    0.000    0.000 
#    0.000    0.000    0.000    0.000    0.000    0.000 
#
# Total GULP energy -200656.082774 kJ/mol
# GULP energy per Si atom -5573.780077 kJ/mol
# Density = 2.144025 g / cm^3
# Si number density = 21.489157 Si / 1000 Ang^3
#
#
#
# Elastic Constant Matrix: (Units=GPa)
#
#
# Indices 1 2 3 4 5 6 
#
# 1 54.3457 10.2389 19.7986 7.8795 0.0000 0.0000
# 2 10.2389 54.3457 19.7986 -7.8795 0.0000 0.0000
# 3 19.7986 19.7986 115.3739 0.0000 0.0000 0.0000
# 4 7.8795 -7.8795 0.0000 6.8927 0.0000 0.0000
# 5 0.0000 0.0000 0.0000 0.0000 6.8927 7.8795
# 6 0.0000 0.0000 0.0000 0.0000 7.8795 22.0534
#
#
#
# Elastic Compliance Matrix: (Units=1/GPa)
#
#
# Indices 1 2 3 4 5 6 
#
# 1 0.027815 -0.010511 -0.002969 -0.043813 0.000000 0.000000
# 2 -0.010511 0.027815 -0.002969 0.043813 0.000000 0.000000
# 3 -0.002969 -0.002969 0.009687 0.000000 0.000000 0.000000
# 4 -0.043813 0.043813 0.000000 0.245251 0.000000 0.000000
# 5 0.000000 0.000000 0.000000 0.000000 0.245251 -0.087626
# 6 0.000000 0.000000 0.000000 0.000000 -0.087626 0.076653
#
#
# Mechanical properties :
#
#
# Convention : Reuss Voigt Hill
#
# Bulk Modulus (GPa) = 30.84793 35.97085 33.40939
# Shear Modulus (GPa) = 7.39451 18.78306 13.08878
#
# Velocity S-wave (km/s) = 1.85702 2.95968 2.47065
# Velocity P-wave (km/s) = 4.35710 5.33432 4.87028
#
# Compressibility (1/GPa) = 0.03241709
#
# Stress axis : x y z
#
# Youngs Moduli (GPa) = 35.95154 35.95154 103.23517
#
# Poissons Ratio (x) = 0.37789 0.30655
# Poissons Ratio (y) = 0.37789 0.30655
# Poissons Ratio (z) = 0.10676 0.10676
#
# Static dielectric constant tensor:
#      x y z
#    x 1.814330 0.000000 0.000000 
#    y 0.000000 1.814330 0.000000 
#    z 0.000000 0.000000 1.854700 
# 
# From -- ./inp_files/943.got.cif
#   From: 2010.05.17/outbox.cif.g08.bks.cpg/sg161_cif.got.tgz:943.got - 2010.05.20 10:52:32.
