data_PCOD9577635
_publ_section_title
;
Structure prediction by ZEFSAII (Michael W. Deem and Ramdas Pophale) SiO2 
 PCOD9577635
Probable space group: P -3 1 M 
;
_chemical_formula_sum "Si O2"
_cell_formula_units_Z 78
_cell_length_a 19.812285
_cell_length_b 19.812285
_cell_length_c 15.420465
_cell_angle_alpha 90.000000
_cell_angle_beta 90.000000
_cell_angle_gamma 120.000000
_cell_volume 5242.002636
_symmetry_space_group_name_H-M "P -3 1 M "
_symmetry_group_IT_number 162
_symmetry_cell_setting 'hexagonal'
loop_
_space_group_symop_operation_xyz
x,y,z
-y,x-y,z
-x+y,-x,z
-y,-x,-z
-x+y,y,-z
x,x-y,-z
-x,-y,-z
y,-x+y,-z
x-y,x,-z
y,x,z
x-y,-y,z
-x,-x+y,z
loop_
_atom_site_type_symbol
_atom_site_label
_atom_site_fract_x
_atom_site_fract_y
_atom_site_fract_z
Si Si1 0.664956 0.089623 0.010878
Si Si2 0.908327 0.091960 0.600498
Si Si3 0.590270 0.242785 0.187330
Si Si4 0.716404 0.808052 0.244322
Si Si5 0.722337 0.814975 0.920100
Si Si6 0.400426 0.599575 0.000000
Si Si7 0.910430 0.344172 0.197553
O O1 0.745872 0.110038 0.054638
O O2 0.603771 0.000000 0.031774
O O3 0.631286 0.144513 0.037917
O O4 0.673892 0.094477 0.906109
O O5 0.895327 0.104674 0.500000
O O6 0.856173 0.108297 0.667132
O O7 0.000000 0.143465 0.620156
O O8 0.880068 0.000000 0.608345
O O9 0.678978 0.267078 0.213229
O O10 0.520394 0.160015 0.216853
O O11 0.588550 0.241619 0.081990
O O12 0.772373 0.772373 0.223316
O O13 0.720990 0.863816 0.167098
O O14 0.630199 0.733112 0.246525
O O15 0.775692 0.775692 0.912198
O O16 0.749592 0.874796 0.000000
O O17 0.000000 0.412065 0.213487
#
# Coordination Sequence:
#
# PCOD9577635 Si02
#       7
#    12  12  12  12  12   6  12
#     4   9  18  28  40  58  82 117 157 195 231 271
#     4   9  17  30  49  72  96 120 148 189 245 301
#     4   9  19  28  41  61  86 117 152 195 241 275
#     4  10  19  31  47  64  86 118 155 192 227 276
#     4  11  20  29  42  58  82 118 156 192 226 264
#     4  10  17  26  42  60  80 114 156 200 240 282
#     4   9  17  31  46  60  84 121 157 189 228 280
#
# _framework density 14.879809
#
# number of rings (size 3 to 8) (size 9 to 14) (size 15 to 20)
#    0.308    2.154    1.538    1.769    2.154    1.231 
#    0.000    0.000    0.000    3.692    0.000    0.000 
#    0.000    1.231    0.000    7.692    2.769    0.000 
#
# Total GULP energy -434348.556797 kJ/mol
# GULP energy per Si atom -5568.571241 kJ/mol
# Density = 1.484594 g / cm^3
# Si number density = 14.879809 Si / 1000 Ang^3
#
#
#
# Elastic Constant Matrix: (Units=GPa)
#
#
# Indices 1 2 3 4 5 6 
#
# 1 94.0156 62.1831 27.7166 0.0000 1.7775 0.0000
# 2 62.1831 94.0156 27.7166 0.0000 -1.7775 0.0000
# 3 27.7166 27.7166 33.7381 0.0000 0.0000 0.0000
# 4 0.0000 0.0000 0.0000 14.2955 0.0000 -1.7775
# 5 1.7775 -1.7775 0.0000 0.0000 14.2955 0.0000
# 6 0.0000 0.0000 0.0000 -1.7775 0.0000 15.9162
#
#
#
# Elastic Compliance Matrix: (Units=1/GPa)
#
#
# Indices 1 2 3 4 5 6 
#
# 1 0.020447 -0.011410 -0.007424 0.000000 -0.003961 0.000000
# 2 -0.011410 0.020447 -0.007424 0.000000 0.003961 0.000000
# 3 -0.007424 -0.007424 0.041838 0.000000 0.000000 0.000000
# 4 0.000000 0.000000 0.000000 0.070937 0.000000 0.007922
# 5 -0.003961 0.003961 0.000000 0.000000 0.070937 0.000000
# 6 0.000000 0.000000 0.000000 0.007922 0.000000 0.063714
#
#
# Mechanical properties :
#
#
# Convention : Reuss Voigt Hill
#
# Bulk Modulus (GPa) = 33.09528 50.77799 41.93664
# Shear Modulus (GPa) = 14.24878 15.84496 15.04687
#
# Velocity S-wave (km/s) = 3.09786 3.26676 3.18343
# Velocity P-wave (km/s) = 5.92331 6.95906 6.46197
#
# Compressibility (1/GPa) = 0.03021579
#
# Stress axis : x y z
#
# Youngs Moduli (GPa) = 48.90743 48.90743 23.90177
#
# Poissons Ratio (x) = 0.55803 0.17744
# Poissons Ratio (y) = 0.55803 0.17744
# Poissons Ratio (z) = 0.36308 0.36308
#
# Static dielectric constant tensor:
#      x y z
#    x 1.518130 0.000000 0.000000 
#    y 0.000000 1.518130 0.000000 
#    z 0.000000 0.000000 1.464550 
# 
# From -- ./inp_files/3267.got.cif
#   From: 2010.05.17/outbox.cif.g08.bks.cpg/sg162_2_cif.got.tgz:3267.got - 2010.05.20 10:53:12.
