data_PCOD9577816
_publ_section_title
;
Structure prediction by ZEFSAII (Michael W. Deem and Ramdas Pophale) SiO2 
 PCOD9577816
Probable space group: P -3 1 M 
;
_chemical_formula_sum "Si O2"
_cell_formula_units_Z 72
_cell_length_a 14.485532
_cell_length_b 14.485532
_cell_length_c 18.460798
_cell_angle_alpha 90.000000
_cell_angle_beta 90.000000
_cell_angle_gamma 120.000000
_cell_volume 3354.671520
_symmetry_space_group_name_H-M "P -3 1 M "
_symmetry_group_IT_number 162
_symmetry_cell_setting 'hexagonal'
loop_
_space_group_symop_operation_xyz
x,y,z
-y,x-y,z
-x+y,-x,z
-y,-x,-z
-x+y,y,-z
x,x-y,-z
-x,-y,-z
y,-x+y,-z
x-y,x,-z
y,x,z
x-y,-y,z
-x,-x+y,z
loop_
_atom_site_type_symbol
_atom_site_label
_atom_site_fract_x
_atom_site_fract_y
_atom_site_fract_z
Si Si1 0.614038 0.123277 0.269580
Si Si2 0.167958 0.721043 0.802486
Si Si3 0.124604 0.339298 0.421693
Si Si4 0.874812 0.542292 0.970651
Si Si5 0.554506 0.428731 0.580257
Si Si6 0.881138 0.760007 0.276717
O O1 0.707278 0.201995 0.216361
O O2 0.508622 0.124429 0.245362
O O3 0.634498 0.166030 0.352450
O O4 0.585207 0.000000 0.266700
O O5 0.141176 0.681359 0.884306
O O6 0.120524 0.794419 0.776964
O O7 0.175547 0.351093 0.500000
O O8 0.131102 0.449663 0.401492
O O9 0.163814 0.297996 0.354415
O O10 0.000000 0.254520 0.430249
O O11 0.000000 0.627641 0.987842
O O12 0.782219 0.564437 0.000000
O O13 0.856447 0.428224 0.000000
O O14 0.586629 0.413372 0.500000
O O15 0.517487 0.517487 0.574688
O O16 0.852692 0.852692 0.287156
O O17 0.000000 0.807245 0.249670
#
# Coordination Sequence:
#
# PCOD9577816 Si02
#       6
#    12  12  12  12  12  12
#     4  11  23  41  62  93 134 174 219 276 336 391
#     4  12  24  42  68  99 131 168 215 265 332 411
#     4  10  20  35  55  82 119 168 223 282 339 392
#     4  11  25  46  75 109 145 185 227 279 346 425
#     4   9  19  34  54  81 121 170 220 276 337 395
#     4  11  23  40  62  92 130 177 230 283 335 389
#
# _framework density 21.462609
#
# number of rings (size 3 to 8) (size 9 to 14) (size 15 to 20)
#    0.000    1.333    1.667    4.167    2.333    2.667 
#    0.000    0.000    0.000    3.167    0.000    0.000 
#    0.000    0.000    0.000    0.000    0.000    0.000 
#
# Total GULP energy -402416.280721 kJ/mol
# GULP energy per Si atom -5589.115010 kJ/mol
# Density = 2.141376 g / cm^3
# Si number density = 21.462609 Si / 1000 Ang^3
#
#
#
# Elastic Constant Matrix: (Units=GPa)
#
#
# Indices 1 2 3 4 5 6 
#
# 1 102.0386 47.8084 35.4950 -0.0001 -1.1048 0.0000
# 2 47.8084 102.0386 35.4950 0.0001 1.1048 0.0000
# 3 35.4950 35.4950 126.3460 0.0000 0.0000 0.0000
# 4 -0.0001 0.0001 0.0000 25.1355 0.0000 1.1048
# 5 -1.1048 1.1048 0.0000 0.0000 25.1355 -0.0001
# 6 0.0000 0.0000 0.0000 1.1048 -0.0001 27.1151
#
#
#
# Elastic Compliance Matrix: (Units=1/GPa)
#
#
# Indices 1 2 3 4 5 6 
#
# 1 0.013086 -0.005387 -0.002163 0.000000 0.000812 0.000000
# 2 -0.005387 0.013086 -0.002163 0.000000 -0.000812 0.000000
# 3 -0.002163 -0.002163 0.009130 0.000000 0.000000 0.000000
# 4 0.000000 0.000000 0.000000 0.039856 0.000000 -0.001624
# 5 0.000812 -0.000812 0.000000 0.000000 0.039856 0.000000
# 6 0.000000 0.000000 0.000000 -0.001624 0.000000 0.036946
#
#
# Mechanical properties :
#
#
# Convention : Reuss Voigt Hill
#
# Bulk Modulus (GPa) = 62.99066 63.11335 63.05200
# Shear Modulus (GPa) = 28.30043 29.58553 28.94298
#
# Velocity S-wave (km/s) = 3.63518 3.71680 3.67622
# Velocity P-wave (km/s) = 6.85800 6.92022 6.88918
#
# Compressibility (1/GPa) = 0.01587537
#
# Stress axis : x y z
#
# Youngs Moduli (GPa) = 76.42038 76.42038 109.53027
#
# Poissons Ratio (x) = 0.41171 0.23687
# Poissons Ratio (y) = 0.41171 0.23687
# Poissons Ratio (z) = 0.16527 0.16527
#
# Static dielectric constant tensor:
#      x y z
#    x 1.800550 0.000000 0.000000 
#    y 0.000000 1.800550 0.000000 
#    z 0.000000 0.000000 1.794820 
# 
# From -- ./inp_files/3535.got.cif
#   From: 2010.05.17/outbox.cif.g08.bks.cpg/sg162_2_cif.got.tgz:3535.got - 2010.05.20 10:53:12.
