data_PCOD9577590
_publ_section_title
;
Structure prediction by ZEFSAII (Michael W. Deem and Ramdas Pophale) SiO2 
 PCOD9577590
Probable space group: R 3 C
;
_chemical_formula_sum "Si O2"
_cell_formula_units_Z 84
_cell_length_a 14.736161
_cell_length_b 14.736161
_cell_length_c 18.725036
_cell_angle_alpha 90.000000
_cell_angle_beta 90.000000
_cell_angle_gamma 120.000000
_cell_volume 3521.453910
_symmetry_space_group_name_H-M "R 3 C"
_symmetry_group_IT_number 161
_symmetry_cell_setting 'hexagonal'
loop_
_space_group_symop_operation_xyz
x,y,z
-y,x-y,z
-x+y,-x,z
-x+y,y,1/2+z
x,x-y,1/2+z
-y,-x,1/2+z
2/3+x,1/3+y,1/3+z
2/3-y,1/3+x-y,1/3+z
2/3-x+y,1/3-x,1/3+z
2/3-x+y,1/3+y,5/6+z
2/3+x,1/3+x-y,5/6+z
2/3-y,1/3-x,5/6+z
1/3+x,2/3+y,2/3+z
1/3-y,2/3+x-y,2/3+z
1/3-x+y,2/3-x,2/3+z
1/3-x+y,2/3+y,1/6+z
1/3+x,2/3+x-y,1/6+z
1/3-y,2/3-x,1/6+z
loop_
_atom_site_type_symbol
_atom_site_label
_atom_site_fract_x
_atom_site_fract_y
_atom_site_fract_z
Si Si1 0.409310 0.002446 0.432376
Si Si2 0.106860 0.227518 0.637185
Si Si3 0.162178 0.206511 0.396543
Si Si4 0.464415 0.470431 0.664058
Si Si5 0.000000 0.000000 0.639557
Si Si6 0.333334 0.666668 0.132166
O O1 0.443022 0.120441 0.454067
O O2 0.451006 0.981589 0.359190
O O3 0.435271 0.939323 0.492687
O O4 0.282103 0.942871 0.439454
O O5 0.230817 0.154423 0.373179
O O6 0.069757 0.246547 0.560771
O O7 0.024752 0.113191 0.665764
O O8 0.206724 0.295287 0.458186
O O9 0.217039 0.607914 0.599096
O O10 0.000000 0.000000 0.552000
#
# Coordination Sequence:
#
# PCOD9577590 Si02
#       6
#    18  18  18  18   6   6
#     4  10  29  43  79 107 155 200 264 316 395 469
#     4  12  26  49  77 112 156 202 257 328 391 477
#     4  10  25  43  74 107 153 193 256 311 391 454
#     4  10  24  45  71 110 144 204 245 317 379 472
#     4  12  30  43  77 112 159 196 263 319 417 445
#     4  12  24  49  74 112 147 199 251 325 387 469
#
# _framework density 23.853781999999999
#
# number of rings (size 3 to 8) (size 9 to 14) (size 15 to 20)
#    1.286    0.000    2.143    1.286    9.000    3.429 
#    0.000    0.000    0.000    0.000    0.000    0.000 
#    0.000    0.000    0.000    0.000    0.000    0.000 
#
# Total GULP energy -155974.007808 kJ/mol
# GULP energy per Si atom -5570.500279 kJ/mol
# Density = 2.379949 g / cm^3
# Si number density = 23.853782 Si / 1000 Ang^3
#
#
#
# Elastic Constant Matrix: (Units=GPa)
#
#
# Indices 1 2 3 4 5 6 
#
# 1 72.2221 16.0159 32.1834 0.8909 0.0000 0.0000
# 2 16.0159 72.2227 32.1834 -0.8912 0.0000 0.0000
# 3 32.1834 32.1834 119.6756 -0.0001 0.0000 0.0000
# 4 0.8909 -0.8912 -0.0001 34.5940 0.0000 0.0000
# 5 0.0000 0.0000 0.0000 0.0000 34.5942 0.8909
# 6 0.0000 0.0000 0.0000 0.0000 0.8909 28.1031
#
#
#
# Elastic Compliance Matrix: (Units=1/GPa)
#
#
# Indices 1 2 3 4 5 6 
#
# 1 0.015952 -0.001854 -0.003791 -0.000459 0.000000 0.000000
# 2 -0.001854 0.015952 -0.003791 0.000459 0.000000 0.000000
# 3 -0.003791 -0.003791 0.010395 0.000000 0.000000 0.000000
# 4 -0.000459 0.000459 0.000000 0.028930 0.000000 0.000000
# 5 0.000000 0.000000 0.000000 0.000000 0.028930 -0.000917
# 6 0.000000 0.000000 0.000000 0.000000 -0.000917 0.035612
#
#
# Mechanical properties :
#
#
# Convention : Reuss Voigt Hill
#
# Bulk Modulus (GPa) = 42.68636 47.20955 44.94795
# Shear Modulus (GPa) = 30.77777 31.70743 31.24260
#
# Velocity S-wave (km/s) = 3.59593 3.64983 3.62298
# Velocity P-wave (km/s) = 5.93083 6.13155 6.03203
#
# Compressibility (1/GPa) = 0.02342669
#
# Stress axis : x y z
#
# Youngs Moduli (GPa) = 62.68630 62.68688 96.19896
#
# Poissons Ratio (x) = 0.11620 0.36473
# Poissons Ratio (y) = 0.11620 0.36473
# Poissons Ratio (z) = 0.23767 0.23767
#
# Static dielectric constant tensor:
#      x y z
#    x 1.928180 0.000000 0.000000 
#    y 0.000000 1.928180 0.000000 
#    z 0.000000 0.000000 1.919920 
# 
# From -- ./inp_files/1647.got.cif
#   From: 2010.05.17/outbox.cif.g08.bks.cpg/sg161_cif.got.tgz:1647.got - 2010.05.20 10:52:32.
