data_PCOD9577241
_publ_section_title
;
Structure prediction by ZEFSAII (Michael W. Deem and Ramdas Pophale) SiO2 
 PCOD9577241
Probable space group: P 3 M 1
;
_chemical_formula_sum "Si O2"
_cell_formula_units_Z 24
_cell_length_a 12.635743
_cell_length_b 12.635743
_cell_length_c 10.479417
_cell_angle_alpha 90.000000
_cell_angle_beta 90.000000
_cell_angle_gamma 120.000000
_cell_volume 1449.003126
_symmetry_space_group_name_H-M "P 3 M 1"
_symmetry_group_IT_number 156
_symmetry_cell_setting 'hexagonal'
loop_
_space_group_symop_operation_xyz
x,y,z
-y,x-y,z
-x+y,-x,z
-x+y,y,z
x,x-y,z
-y,-x,z
loop_
_atom_site_type_symbol
_atom_site_label
_atom_site_fract_x
_atom_site_fract_y
_atom_site_fract_z
Si Si1 0.332849 0.917672 0.143020
Si Si2 0.415179 0.332848 0.643021
Si Si3 0.252106 0.252106 0.893021
Si Si4 0.000000 0.252105 0.393021
O O1 0.462687 0.925373 0.143019
O O2 0.222906 0.777095 0.143013
O O3 0.313716 0.979456 0.268491
O O4 0.313720 0.979468 0.017557
O O5 0.445818 0.222909 0.643023
O O6 0.537313 0.462688 0.643017
O O7 0.334260 0.313718 0.768489
O O8 0.334255 0.313712 0.517556
O O9 0.239297 0.119649 0.908587
O O10 0.119657 0.239313 0.877451
O O11 0.880348 0.119652 0.377444
O O12 0.119651 0.239301 0.408593
#
# Coordination Sequence:
#
# PCOD9577241 Si02
#       4
#     6   6   6   6
#     4  10  20  34  52  74 102 136 172 210 252 300
#     4  10  20  34  52  74 102 136 172 210 252 300
#     4  10  20  34  54  78 104 134 168 210 256 302
#     4  10  20  34  54  78 104 134 168 210 256 302
#
# _framework density 16.563112
#
# number of rings (size 3 to 8) (size 9 to 14) (size 15 to 20)
#    0.000    2.000    0.000    4.000    0.000    0.000 
#    0.000    5.000    0.000   14.000    0.000    0.000 
#    0.000    0.000    0.000    0.000    0.000    0.000 
#
# Total GULP energy -134009.603781 kJ/mol
# GULP energy per Si atom -5583.733491 kJ/mol
# Density = 1.652541 g / cm^3
# Si number density = 16.563112 Si / 1000 Ang^3
#
#
#
# Elastic Constant Matrix: (Units=GPa)
#
#
# Indices 1 2 3 4 5 6 
#
# 1 146.5352 109.1580 106.3016 0.0002 0.0000 0.0000
# 2 109.1580 146.5352 106.3016 -0.0002 0.0000 0.0000
# 3 106.3016 106.3016 180.4934 0.0000 0.0000 0.0000
# 4 0.0002 -0.0002 0.0000 15.8409 0.0000 0.0000
# 5 0.0000 0.0000 0.0000 0.0000 15.8409 0.0002
# 6 0.0000 0.0000 0.0000 0.0000 0.0002 18.6886
#
#
#
# Elastic Compliance Matrix: (Units=1/GPa)
#
#
# Indices 1 2 3 4 5 6 
#
# 1 0.017209 -0.009545 -0.004514 0.000000 0.000000 0.000000
# 2 -0.009545 0.017209 -0.004514 0.000000 0.000000 0.000000
# 3 -0.004514 -0.004514 0.010857 0.000000 0.000000 0.000000
# 4 0.000000 0.000000 0.000000 0.063128 0.000000 0.000000
# 5 0.000000 0.000000 0.000000 0.000000 0.063128 -0.000001
# 6 0.000000 0.000000 0.000000 0.000000 -0.000001 0.053509
#
#
# Mechanical properties :
#
#
# Convention : Reuss Voigt Hill
#
# Bulk Modulus (GPa) = 122.99805 124.12071 123.55938
# Shear Modulus (GPa) = 18.87543 20.19424 19.53484
#
# Velocity S-wave (km/s) = 3.37947 3.49554 3.43799
# Velocity P-wave (km/s) = 9.46833 9.55994 9.51424
#
# Compressibility (1/GPa) = 0.00813021
#
# Stress axis : x y z
#
# Youngs Moduli (GPa) = 58.10871 58.10871 92.10595
#
# Poissons Ratio (x) = 0.55466 0.41574
# Poissons Ratio (y) = 0.55466 0.41574
# Poissons Ratio (z) = 0.26229 0.26229
#
# Static dielectric constant tensor:
#      x y z
#    x 1.522970 0.000000 0.000000 
#    y 0.000000 1.522970 0.000000 
#    z 0.000000 0.000000 1.539020 
# 
# From -- ./inp_files/596.got.cif
#   From: 2010.05.17/outbox.cif.g08.bks.cpg/sg156_cif.got.tgz:596.got - 2010.05.20 10:49:08.
