data_PCOD9577092
_publ_section_title
;
Structure prediction by ZEFSAII (Michael W. Deem and Ramdas Pophale) SiO2 
 PCOD9577092
Probable space group: R 3 2
;
_chemical_formula_sum "Si O2"
_cell_formula_units_Z 51
_cell_length_a 17.013907
_cell_length_b 17.013907
_cell_length_c 7.941727
_cell_angle_alpha 90.000000
_cell_angle_beta 90.000000
_cell_angle_gamma 120.000000
_cell_volume 1990.919475
_symmetry_space_group_name_H-M "R 3 2"
_symmetry_group_IT_number 155
_symmetry_cell_setting 'hexagonal'
loop_
_space_group_symop_operation_xyz
x,y,z
-y,x-y,z
-x+y,-x,z
x-y,-y,-z
-x,-x+y,-z
y,x,-z
2/3+x,1/3+y,1/3+z
2/3-y,1/3+x-y,1/3+z
2/3-x+y,1/3-x,1/3+z
2/3+x-y,1/3-y,1/3-z
2/3-x,1/3-x+y,1/3-z
2/3+y,1/3+x,1/3-z
1/3+x,2/3+y,2/3+z
1/3-y,2/3+x-y,2/3+z
1/3-x+y,2/3-x,2/3+z
1/3+x-y,2/3-y,2/3-z
1/3-x,2/3-x+y,2/3-z
1/3+y,2/3+x,2/3-z
loop_
_atom_site_type_symbol
_atom_site_label
_atom_site_fract_x
_atom_site_fract_y
_atom_site_fract_z
Si Si1 0.162578 0.875180 0.610725
Si Si2 0.333334 0.666667 0.865399
Si Si3 0.874128 0.394688 0.069334
Si Si4 0.333334 0.272762 0.166667
O O1 0.221630 0.827448 0.561343
O O2 0.120807 0.877254 0.431120
O O3 0.085168 0.822357 0.748869
O O4 0.219362 0.975609 0.685527
O O5 0.333334 0.666668 0.666667
O O6 0.407619 0.639127 0.917616
O O7 0.364697 0.333334 0.333334
#
# Coordination Sequence:
#
# PCOD9577092 Si02
#       4
#    18   6  18   9
#     4  10  26  50  84 115 167 210 287 344 425 503
#     4  12  30  49  80 127 175 221 283 355 443 505
#     4  10  26  51  81 124 163 222 280 353 425 517
#     4  12  32  50  80 120 166 218 282 344 430 508
#
# _framework density 25.616304
#
# number of rings (size 3 to 8) (size 9 to 14) (size 15 to 20)
#    0.000    1.412    0.000    0.000   14.824   14.118 
#    0.000    0.000    0.000    0.000    0.000    0.000 
#    0.000    0.000    0.000    0.000    0.000    0.000 
#
# Total GULP energy -95073.956746 kJ/mol
# GULP energy per Si atom -5592.585691 kJ/mol
# Density = 2.555800 g / cm^3
# Si number density = 25.616304 Si / 1000 Ang^3
#
#
#
# Elastic Constant Matrix: (Units=GPa)
#
#
# Indices 1 2 3 4 5 6 
#
# 1 115.0731 90.0019 64.2278 12.0181 -0.0007 0.0002
# 2 90.0019 115.0717 64.2283 -12.0181 0.0012 -0.0007
# 3 64.2278 64.2283 208.1926 0.0004 0.0005 -0.0002
# 4 12.0181 -12.0181 0.0004 30.8330 -0.0001 0.0008
# 5 -0.0007 0.0012 0.0005 -0.0001 30.8342 12.0183
# 6 0.0002 -0.0007 -0.0002 0.0008 12.0183 12.5330
#
#
#
# Elastic Compliance Matrix: (Units=1/GPa)
#
#
# Indices 1 2 3 4 5 6 
#
# 1 0.034865 -0.028822 -0.001864 -0.024824 0.000003 -0.000004
# 2 -0.028822 0.034866 -0.001865 0.024824 -0.000003 0.000004
# 3 -0.001864 -0.001865 0.005954 0.000000 0.000000 0.000000
# 4 -0.024824 0.024824 0.000000 0.051785 -0.000001 0.000000
# 5 0.000003 -0.000003 0.000000 -0.000001 0.051788 -0.049661
# 6 -0.000004 0.000004 0.000000 0.000000 -0.049661 0.127411
#
#
# Mechanical properties :
#
#
# Convention : Reuss Voigt Hill
#
# Bulk Modulus (GPa) = 94.48561 97.25040 95.86801
# Shear Modulus (GPa) = 13.32273 29.49868 21.41070
#
# Velocity S-wave (km/s) = 2.28302 3.39714 2.89420
# Velocity P-wave (km/s) = 6.62681 7.30986 6.97670
#
# Compressibility (1/GPa) = 0.01058362
#
# Stress axis : x y z
#
# Youngs Moduli (GPa) = 28.68169 28.68109 167.96092
#
# Poissons Ratio (x) = 0.82663 0.31315
# Poissons Ratio (y) = 0.82665 0.31323
# Poissons Ratio (z) = 0.05348 0.05349
#
# Static dielectric constant tensor:
#      x y z
#    x 2.148120 0.000000 0.000000 
#    y 0.000000 2.148120 0.000000 
#    z 0.000000 0.000000 2.033360 
# 
# From -- ./inp_files/1695.got.cif
#   From: 2010.05.17/outbox.cif.g08.bks.cpg/sg155_1_cif.got.tgz:1695.got - 2010.05.20 10:44:35.
