data_PCOD9577744
_publ_section_title
;
Structure prediction by ZEFSAII (Michael W. Deem and Ramdas Pophale) SiO2 
 PCOD9577744
Probable space group: P -3 1 M 
;
_chemical_formula_sum "Si O2"
_cell_formula_units_Z 48
_cell_length_a 17.669424
_cell_length_b 17.669424
_cell_length_c 8.466179
_cell_angle_alpha 90.000000
_cell_angle_beta 90.000000
_cell_angle_gamma 120.000000
_cell_volume 2289.089972
_symmetry_space_group_name_H-M "P -3 1 M "
_symmetry_group_IT_number 162
_symmetry_cell_setting 'hexagonal'
loop_
_space_group_symop_operation_xyz
x,y,z
-y,x-y,z
-x+y,-x,z
-y,-x,-z
-x+y,y,-z
x,x-y,-z
-x,-y,-z
y,-x+y,-z
x-y,x,-z
y,x,z
x-y,-y,z
-x,-x+y,z
loop_
_atom_site_type_symbol
_atom_site_label
_atom_site_fract_x
_atom_site_fract_y
_atom_site_fract_z
Si Si1 0.104724 0.367069 0.342308
Si Si2 0.648371 0.102457 0.344147
Si Si3 0.405699 0.893149 0.160324
Si Si4 0.691761 0.794821 0.843969
O O1 0.132176 0.423761 0.502130
O O2 0.131335 0.439218 0.202612
O O3 0.144276 0.305550 0.300486
O O4 0.000000 0.308156 0.344898
O O5 0.584900 0.138558 0.298933
O O6 0.707173 0.107972 0.192907
O O7 0.584426 0.000000 0.374597
O O8 0.459091 0.000000 0.158186
O O9 0.432228 0.864455 0.000000
O O10 0.762336 0.762336 0.843809
O O11 0.697270 0.848635 0.000000
#
# Coordination Sequence:
#
# PCOD9577744 Si02
#       4
#    12  12  12  12
#     4  10  19  33  55  81 111 150 197 250 306 366
#     4   9  18  32  52  81 113 145 186 237 297 369
#     4   9  16  28  50  81 114 143 173 217 279 355
#     4  11  22  36  54  78 112 154 205 263 318 370
#
# _framework density 20.969031999999999
#
# number of rings (size 3 to 8) (size 9 to 14) (size 15 to 20)
#    0.000    2.250    0.000    3.750    0.000    7.000 
#    0.000    1.250    0.000    5.500    0.000    7.000 
#    0.000   24.000    0.000    0.000    0.000    0.000 
#
# Total GULP energy -267470.060537 kJ/mol
# GULP energy per Si atom -5572.292928 kJ/mol
# Density = 2.092131 g / cm^3
# Si number density = 20.969032 Si / 1000 Ang^3
#
#
#
# Elastic Constant Matrix: (Units=GPa)
#
#
# Indices 1 2 3 4 5 6 
#
# 1 86.7057 39.4182 30.2452 -0.0001 5.2955 0.0000
# 2 39.4182 86.7057 30.2452 0.0001 -5.2955 0.0000
# 3 30.2452 30.2452 108.8748 0.0000 0.0000 0.0000
# 4 -0.0001 0.0001 0.0000 25.2972 0.0000 -5.2955
# 5 5.2955 -5.2955 0.0000 0.0000 25.2972 -0.0001
# 6 0.0000 0.0000 0.0000 -5.2955 -0.0001 23.6437
#
#
#
# Elastic Compliance Matrix: (Units=1/GPa)
#
#
# Indices 1 2 3 4 5 6 
#
# 1 0.015667 -0.006520 -0.002541 0.000000 -0.004644 0.000000
# 2 -0.006520 0.015667 -0.002541 0.000000 0.004644 0.000000
# 3 -0.002541 -0.002541 0.010597 0.000000 0.000000 0.000000
# 4 0.000000 0.000000 0.000000 0.041475 0.000000 0.009289
# 5 -0.004644 0.004644 0.000000 0.000000 0.041475 0.000000
# 6 0.000000 0.000000 0.000000 0.009289 0.000000 0.044375
#
#
# Mechanical properties :
#
#
# Convention : Reuss Voigt Hill
#
# Bulk Modulus (GPa) = 53.39863 53.56703 53.48283
# Shear Modulus (GPa) = 25.16323 27.00613 26.08468
#
# Velocity S-wave (km/s) = 3.46789 3.59263 3.53081
# Velocity P-wave (km/s) = 6.44637 6.54298 6.49486
#
# Compressibility (1/GPa) = 0.01872707
#
# Stress axis : x y z
#
# Youngs Moduli (GPa) = 63.82650 63.82650 94.36887
#
# Poissons Ratio (x) = 0.41615 0.23981
# Poissons Ratio (y) = 0.41615 0.23981
# Poissons Ratio (z) = 0.16219 0.16219
#
# Static dielectric constant tensor:
#      x y z
#    x 1.769050 0.000000 0.000000 
#    y 0.000000 1.769050 0.000000 
#    z 0.000000 0.000000 1.893920 
# 
# From -- ./inp_files/1180.got.cif
#   From: 2010.05.17/outbox.cif.g08.bks.cpg/sg162_1_cif.got.tgz:1180.got - 2010.05.20 10:53:12.
