data_PCOD9577706
_publ_section_title
;
Structure prediction by ZEFSAII (Michael W. Deem and Ramdas Pophale) SiO2 
 PCOD9577706
Probable space group: P -3 1 M 
;
_chemical_formula_sum "Si O2"
_cell_formula_units_Z 72
_cell_length_a 14.883554
_cell_length_b 14.883554
_cell_length_c 17.435063
_cell_angle_alpha 90.000000
_cell_angle_beta 90.000000
_cell_angle_gamma 120.000000
_cell_volume 3344.779153
_symmetry_space_group_name_H-M "P -3 1 M "
_symmetry_group_IT_number 162
_symmetry_cell_setting 'hexagonal'
loop_
_space_group_symop_operation_xyz
x,y,z
-y,x-y,z
-x+y,-x,z
-y,-x,-z
-x+y,y,-z
x,x-y,-z
-x,-y,-z
y,-x+y,-z
x-y,x,-z
y,x,z
x-y,-y,z
-x,-x+y,z
loop_
_atom_site_type_symbol
_atom_site_label
_atom_site_fract_x
_atom_site_fract_y
_atom_site_fract_z
Si Si1 0.117264 0.700284 0.479747
Si Si2 0.879122 0.755480 0.214866
Si Si3 0.559345 0.436483 0.913029
Si Si4 0.127165 0.447750 0.231234
Si Si5 0.244475 0.362069 0.070077
Si Si6 0.878281 0.431178 0.374830
O O1 0.181131 0.818870 0.500000
O O2 0.120149 0.638990 0.555300
O O3 0.166699 0.665795 0.411560
O O4 0.000000 0.661921 0.460969
O O5 0.832823 0.832823 0.222507
O O6 0.795917 0.643568 0.250141
O O7 0.874813 0.718607 0.126737
O O8 0.000000 0.810037 0.239187
O O9 0.477915 0.477915 0.920327
O O10 0.507287 0.345623 0.850464
O O11 0.667095 0.536118 0.886535
O O12 0.583025 0.416976 0.000000
O O13 0.165655 0.532351 0.298227
O O14 0.000000 0.385672 0.230142
O O15 0.305914 0.305914 0.039094
O O16 0.194763 0.389525 0.000000
O O17 0.000000 0.511284 0.358684
#
# Coordination Sequence:
#
# PCOD9577706 Si02
#       6
#    12  12  12  12  12  12
#     4   9  17  33  57  87 120 155 193 235 292 358
#     4  10  20  34  54  82 119 162 202 242 292 358
#     4   9  17  30  51  75  97 135 194 252 308 358
#     4   9  17  33  56  79 109 148 191 245 297 342
#     4  10  19  31  49  75 106 147 200 255 312 369
#     4   8  16  33  56  80 112 150 188 236 293 351
#
# _framework density 21.526085999999999
#
# number of rings (size 3 to 8) (size 9 to 14) (size 15 to 20)
#    0.000    2.833    0.000    2.667    0.000    2.667 
#    7.000    0.833    0.000    8.833    0.000    0.000 
#    0.000    0.000    0.000    0.000    0.000    0.000 
#
# Total GULP energy -401255.240237 kJ/mol
# GULP energy per Si atom -5572.989448 kJ/mol
# Density = 2.147709 g / cm^3
# Si number density = 21.526086 Si / 1000 Ang^3
#
#
#
# Elastic Constant Matrix: (Units=GPa)
#
#
# Indices 1 2 3 4 5 6 
#
# 1 80.8308 42.0884 28.5186 0.0003 -1.8679 0.0000
# 2 42.0884 80.8308 28.5186 -0.0003 1.8679 0.0000
# 3 28.5186 28.5186 86.8796 0.0000 0.0000 0.0000
# 4 0.0003 -0.0003 0.0000 13.0822 0.0000 1.8679
# 5 -1.8679 1.8679 0.0000 0.0000 13.0822 0.0003
# 6 0.0000 0.0000 0.0000 1.8679 0.0003 19.3712
#
#
#
# Elastic Compliance Matrix: (Units=1/GPa)
#
#
# Indices 1 2 3 4 5 6 
#
# 1 0.017885 -0.008287 -0.003150 -0.000001 0.003737 0.000000
# 2 -0.008287 0.017885 -0.003150 0.000001 -0.003737 0.000000
# 3 -0.003150 -0.003150 0.013578 0.000000 0.000000 0.000000
# 4 -0.000001 0.000001 0.000000 0.077507 0.000000 -0.007474
# 5 0.003737 -0.003737 0.000000 0.000000 0.077507 -0.000001
# 6 0.000000 0.000000 0.000000 -0.007474 -0.000001 0.052344
#
#
# Mechanical properties :
#
#
# Convention : Reuss Voigt Hill
#
# Bulk Modulus (GPa) = 49.57476 49.64360 49.60918
# Shear Modulus (GPa) = 17.08789 19.06816 18.07803
#
# Velocity S-wave (km/s) = 2.82054 2.97950 2.90111
# Velocity P-wave (km/s) = 5.80408 5.91174 5.85816
#
# Compressibility (1/GPa) = 0.02017155
#
# Stress axis : x y z
#
# Youngs Moduli (GPa) = 55.91416 55.91416 73.64639
#
# Poissons Ratio (x) = 0.46338 0.23201
# Poissons Ratio (y) = 0.46338 0.23201
# Poissons Ratio (z) = 0.17615 0.17615
#
# Static dielectric constant tensor:
#      x y z
#    x 1.801860 0.000000 0.000000 
#    y 0.000000 1.801860 0.000000 
#    z 0.000000 0.000000 1.792920 
# 
# From -- ./inp_files/3521.got.cif
#   From: 2010.05.17/outbox.cif.g08.bks.cpg/sg162_2_cif.got.tgz:3521.got - 2010.05.20 10:53:12.
