data_PCOD9577452
_publ_section_title
;
Structure prediction by ZEFSAII (Michael W. Deem and Ramdas Pophale) SiO2 
 PCOD9577452
Probable space group: P 3 1 C
;
_chemical_formula_sum "Si O2"
_cell_formula_units_Z 34
_cell_length_a 10.618679
_cell_length_b 10.618679
_cell_length_c 14.294848
_cell_angle_alpha 90.000000
_cell_angle_beta 90.000000
_cell_angle_gamma 120.000000
_cell_volume 1395.889879
_symmetry_space_group_name_H-M "P 3 1 C"
_symmetry_group_IT_number 159
_symmetry_cell_setting 'hexagonal'
loop_
_space_group_symop_operation_xyz
x,y,z
-y,x-y,z
-x+y,-x,z
y,x,1/2+z
x-y,-y,1/2+z
-x,-x+y,1/2+z
loop_
_atom_site_type_symbol
_atom_site_label
_atom_site_fract_x
_atom_site_fract_y
_atom_site_fract_z
Si Si1 0.333334 0.666668 0.952826
Si Si2 0.808121 0.645315 0.451266
Si Si3 0.900026 0.621005 0.933248
Si Si4 0.919573 0.227366 0.656531
Si Si5 0.666667 0.333335 0.231833
Si Si6 0.558718 0.611138 0.330576
Si Si7 0.096561 0.747262 0.655368
O O1 0.333334 0.666667 0.842285
O O2 0.491202 0.791364 0.983527
O O3 0.755079 0.685966 0.544590
O O4 0.702467 0.612192 0.365244
O O5 0.971449 0.758975 0.422859
O O6 0.892382 0.606685 0.045224
O O7 0.745953 0.572592 0.889504
O O8 0.952408 0.529731 0.871224
O O9 0.915405 0.349782 0.721580
O O10 0.079801 0.252422 0.677787
O O11 0.770117 0.074128 0.675338
O O12 0.684102 0.194689 0.200702
#
# Coordination Sequence:
#
# PCOD9577452 Si02
#       7
#     2   6   6   6   2   6   6
#     4  12  24  42  72 100 149 181 249 306 387 433
#     4  11  25  47  68 106 147 193 243 315 377 453
#     4  11  25  46  74 103 152 193 246 314 384 452
#     4  11  27  45  75 110 154 199 261 311 394 462
#     4  12  27  42  84 115 152 208 276 318 390 475
#     4  12  25  46  74 109 143 195 252 307 380 459
#     4  11  25  50  75 113 157 211 257 325 390 478
#
# _framework density 24.357220999999999
#
# number of rings (size 3 to 8) (size 9 to 14) (size 15 to 20)
#    0.000    0.706    3.529    2.824    4.941    1.412 
#    1.059    0.000    0.000    0.706    0.000    0.000 
#    0.000    0.000    0.000    0.000    0.000    0.000 
#
# Total GULP energy -189749.844333 kJ/mol
# GULP energy per Si atom -5580.877775 kJ/mol
# Density = 2.430178 g / cm^3
# Si number density = 24.357221 Si / 1000 Ang^3
#
#
#
# Elastic Constant Matrix: (Units=GPa)
#
#
# Indices 1 2 3 4 5 6 
#
# 1 63.2271 8.4087 25.3719 -0.0002 3.7770 -0.0001
# 2 8.4087 63.2271 25.3717 -0.0001 -3.7772 0.0000
# 3 25.3719 25.3717 100.7821 -0.0002 -0.0001 -0.0001
# 4 -0.0002 -0.0001 -0.0002 31.3095 0.0000 -3.7770
# 5 3.7770 -3.7772 -0.0001 0.0000 31.3095 0.0001
# 6 -0.0001 0.0000 -0.0001 -3.7770 0.0001 27.4093
#
#
#
# Elastic Compliance Matrix: (Units=1/GPa)
#
#
# Indices 1 2 3 4 5 6 
#
# 1 0.017770 -0.000781 -0.004277 0.000000 -0.002238 0.000000
# 2 -0.000781 0.017770 -0.004277 0.000000 0.002238 0.000000
# 3 -0.004277 -0.004277 0.012076 0.000000 0.000000 0.000000
# 4 0.000000 0.000000 0.000000 0.032479 0.000000 0.004476
# 5 -0.002238 0.002238 0.000000 0.000000 0.032479 0.000000
# 6 0.000000 0.000000 0.000000 0.004476 0.000000 0.037101
#
#
# Mechanical properties :
#
#
# Convention : Reuss Voigt Hill
#
# Bulk Modulus (GPa) = 34.54695 38.39344 36.47019
# Shear Modulus (GPa) = 28.09110 29.21127 28.65118
#
# Velocity S-wave (km/s) = 3.39971 3.46683 3.43343
# Velocity P-wave (km/s) = 5.44288 5.64110 5.54288
#
# Compressibility (1/GPa) = 0.02894612
#
# Stress axis : x y z
#
# Youngs Moduli (GPa) = 56.27531 56.27531 82.80986
#
# Poissons Ratio (x) = 0.04393 0.35418
# Poissons Ratio (y) = 0.04393 0.35418
# Poissons Ratio (z) = 0.24069 0.24069
#
# Static dielectric constant tensor:
#      x y z
#    x 2.029460 0.000000 0.000000 
#    y 0.000000 2.029450 0.000000 
#    z 0.000000 0.000000 1.921710 
# 
# From -- ./inp_files/894.got.cif
#   From: 2010.05.17/outbox.cif.g08.bks.cpg/sg159_cif.got.tgz:894.got - 2010.05.20 10:50:30.
