data_PCOD9577792
_publ_section_title
;
Structure prediction by ZEFSAII (Michael W. Deem and Ramdas Pophale) SiO2 
 PCOD9577792
Probable space group: P -3 1 M 
;
_chemical_formula_sum "Si O2"
_cell_formula_units_Z 60
_cell_length_a 13.034814
_cell_length_b 13.034814
_cell_length_c 21.917766
_cell_angle_alpha 90.000000
_cell_angle_beta 90.000000
_cell_angle_gamma 120.000000
_cell_volume 3225.051057
_symmetry_space_group_name_H-M "P -3 1 M "
_symmetry_group_IT_number 162
_symmetry_cell_setting 'hexagonal'
loop_
_space_group_symop_operation_xyz
x,y,z
-y,x-y,z
-x+y,-x,z
-y,-x,-z
-x+y,y,-z
x,x-y,-z
-x,-y,-z
y,-x+y,-z
x-y,x,-z
y,x,z
x-y,-y,z
-x,-x+y,z
loop_
_atom_site_type_symbol
_atom_site_label
_atom_site_fract_x
_atom_site_fract_y
_atom_site_fract_z
Si Si1 0.860537 0.561574 0.324550
Si Si2 0.860900 0.357676 0.260767
Si Si3 0.488452 0.139040 0.124894
Si Si4 0.860953 0.139335 0.427961
Si Si5 0.697983 0.556157 0.943988
O O1 0.830212 0.426948 0.312229
O O2 0.779848 0.576107 0.274843
O O3 0.835243 0.607874 0.387714
O O4 0.000000 0.640461 0.313177
O O5 0.833032 0.379191 0.192054
O O6 0.000000 0.412012 0.263982
O O7 0.424825 0.214508 0.112178
O O8 0.586834 0.159982 0.073614
O O9 0.395944 0.000000 0.122641
O O10 0.846787 0.153214 0.500000
O O11 0.000000 0.221702 0.412050
O O12 0.818419 0.000000 0.418433
O O13 0.643107 0.643107 0.949957
O O14 0.781600 0.563200 0.000000
#
# Coordination Sequence:
#
# PCOD9577792 Si02
#       5
#    12  12  12  12  12
#     4  10  20  34  53  77 107 142 179 223 274 325
#     4  10  20  34  53  78 107 140 179 222 268 321
#     4  10  21  36  55  80 109 141 178 220 266 318
#     4   9  17  31  53  81 112 147 188 232 275 319
#     4  11  22  37  59  85 112 141 175 218 266 315
#
# _framework density 18.604357
#
# number of rings (size 3 to 8) (size 9 to 14) (size 15 to 20)
#    0.000    2.000    0.000    4.000    0.000    4.800 
#    0.000    1.000    0.000    8.800    0.000    0.000 
#    0.000    0.000    0.000    0.000    0.000    0.000 
#
# Total GULP energy -334051.480774 kJ/mol
# GULP energy per Si atom -5567.524680 kJ/mol
# Density = 1.856201 g / cm^3
# Si number density = 18.604357 Si / 1000 Ang^3
#
#
#
# Elastic Constant Matrix: (Units=GPa)
#
#
# Indices 1 2 3 4 5 6 
#
# 1 83.9637 50.4612 45.0525 0.0000 -0.6354 0.0000
# 2 50.4612 83.9637 45.0525 0.0000 0.6354 0.0000
# 3 45.0525 45.0525 82.4853 0.0000 0.0000 0.0000
# 4 0.0000 0.0000 0.0000 27.6016 0.0000 0.6354
# 5 -0.6354 0.6354 0.0000 0.0000 27.6016 0.0000
# 6 0.0000 0.0000 0.0000 0.6354 0.0000 16.7513
#
#
#
# Elastic Compliance Matrix: (Units=1/GPa)
#
#
# Indices 1 2 3 4 5 6 
#
# 1 0.020805 -0.009069 -0.006410 0.000000 0.000688 0.000000
# 2 -0.009069 0.020805 -0.006410 0.000000 -0.000688 0.000000
# 3 -0.006410 -0.006410 0.019125 0.000000 0.000000 0.000000
# 4 0.000000 0.000000 0.000000 0.036261 0.000000 -0.001375
# 5 0.000688 -0.000688 0.000000 0.000000 0.036261 0.000000
# 6 0.000000 0.000000 0.000000 -0.001375 0.000000 0.059749
#
#
# Mechanical properties :
#
#
# Convention : Reuss Voigt Hill
#
# Bulk Modulus (GPa) = 58.97214 59.06058 59.01636
# Shear Modulus (GPa) = 20.62381 21.71401 21.16891
#
# Velocity S-wave (km/s) = 3.33310 3.42006 3.37686
# Velocity P-wave (km/s) = 6.82492 6.88551 6.85528
#
# Compressibility (1/GPa) = 0.01695716
#
# Stress axis : x y z
#
# Youngs Moduli (GPa) = 48.06514 48.06514 52.28659
#
# Poissons Ratio (x) = 0.43592 0.33515
# Poissons Ratio (y) = 0.43592 0.33515
# Poissons Ratio (z) = 0.30809 0.30809
#
# Static dielectric constant tensor:
#      x y z
#    x 1.656570 0.000000 0.000000 
#    y 0.000000 1.656570 0.000000 
#    z 0.000000 0.000000 1.690820 
# 
# From -- ./inp_files/4026.got.cif
#   From: 2010.05.17/outbox.cif.g08.bks.cpg/sg162_3_cif.got.tgz:4026.got - 2010.05.20 10:53:12.
