data_PCOD9577088
_publ_section_title
;
Structure prediction by ZEFSAII (Michael W. Deem and Ramdas Pophale) SiO2 
 PCOD9577088
Probable space group: R 3 2
;
_chemical_formula_sum "Si O2"
_cell_formula_units_Z 72
_cell_length_a 13.407978
_cell_length_b 13.407978
_cell_length_c 16.706848
_cell_angle_alpha 90.000000
_cell_angle_beta 90.000000
_cell_angle_gamma 120.000000
_cell_volume 2601.068146
_symmetry_space_group_name_H-M "R 3 2"
_symmetry_group_IT_number 155
_symmetry_cell_setting 'hexagonal'
loop_
_space_group_symop_operation_xyz
x,y,z
-y,x-y,z
-x+y,-x,z
x-y,-y,-z
-x,-x+y,-z
y,x,-z
2/3+x,1/3+y,1/3+z
2/3-y,1/3+x-y,1/3+z
2/3-x+y,1/3-x,1/3+z
2/3+x-y,1/3-y,1/3-z
2/3-x,1/3-x+y,1/3-z
2/3+y,1/3+x,1/3-z
1/3+x,2/3+y,2/3+z
1/3-y,2/3+x-y,2/3+z
1/3-x+y,2/3-x,2/3+z
1/3+x-y,2/3-y,2/3-z
1/3-x,2/3-x+y,2/3-z
1/3+y,2/3+x,2/3-z
loop_
_atom_site_type_symbol
_atom_site_label
_atom_site_fract_x
_atom_site_fract_y
_atom_site_fract_z
Si Si1 0.905178 0.699514 0.295772
Si Si2 0.905787 0.851750 0.132771
Si Si3 0.781953 0.567167 0.866827
Si Si4 0.159845 0.909330 0.257470
O O1 0.857664 0.729590 0.089304
O O2 0.871195 0.748384 0.373020
O O3 0.950838 0.617505 0.333334
O O4 0.028613 0.805280 0.264705
O O5 0.861531 0.834182 0.226684
O O6 0.880224 0.956229 0.113252
O O7 0.666667 0.460248 0.833334
O O8 0.885532 0.552199 0.833334
O O9 0.786691 0.671525 0.819929
O O10 0.225733 0.892400 0.333334
#
# Coordination Sequence:
#
# PCOD9577088 Si02
#       4
#    18  18  18  18
#     4  11  24  51  90 112 172 228 272 352 439 514
#     4  10  26  48  82 130 160 208 295 353 420 514
#     4  12  26  51  81 119 165 223 289 345 431 522
#     4  11  25  52  80 117 171 223 275 345 436 518
#
# _framework density 27.680934000000001
#
# number of rings (size 3 to 8) (size 9 to 14) (size 15 to 20)
#    0.500    0.500    5.000    1.750    0.000    6.000 
#    9.000    0.000    0.000    1.500    0.000    0.000 
#    0.000    0.000    0.000    0.000    0.000    0.000 
#
# Total GULP energy -133868.047625 kJ/mol
# GULP energy per Si atom -5577.835318 kJ/mol
# Density = 2.761793 g / cm^3
# Si number density = 27.680934 Si / 1000 Ang^3
#
#
#
# Elastic Constant Matrix: (Units=GPa)
#
#
# Indices 1 2 3 4 5 6 
#
# 1 149.0126 36.2915 76.2927 -13.4804 -0.0005 0.0000
# 2 36.2915 149.0126 76.2927 13.4804 0.0005 0.0000
# 3 76.2927 76.2927 202.3097 0.0000 0.0000 0.0000
# 4 -13.4804 13.4804 0.0000 103.9990 0.0000 0.0005
# 5 -0.0005 0.0005 0.0000 0.0000 103.9990 -13.4804
# 6 0.0000 0.0000 0.0000 0.0005 -13.4804 56.3605
#
#
#
# Elastic Compliance Matrix: (Units=1/GPa)
#
#
# Indices 1 2 3 4 5 6 
#
# 1 0.008491 -0.000664 -0.002952 0.001187 0.000000 0.000000
# 2 -0.000664 0.008491 -0.002952 -0.001187 0.000000 0.000000
# 3 -0.002952 -0.002952 0.007169 0.000000 0.000000 0.000000
# 4 0.001187 -0.001187 0.000000 0.009923 0.000000 0.000000
# 5 0.000000 0.000000 0.000000 0.000000 0.009923 0.002373
# 6 0.000000 0.000000 0.000000 0.000000 0.002373 0.018311
#
#
# Mechanical properties :
#
#
# Convention : Reuss Voigt Hill
#
# Bulk Modulus (GPa) = 90.77231 97.56541 94.16886
# Shear Modulus (GPa) = 63.19895 73.63558 68.41727
#
# Velocity S-wave (km/s) = 4.78339 5.16326 4.97695
# Velocity P-wave (km/s) = 7.96061 8.41835 8.19268
#
# Compressibility (1/GPa) = 0.01101658
#
# Stress axis : x y z
#
# Youngs Moduli (GPa) = 117.76965 117.76965 139.48774
#
# Poissons Ratio (x) = 0.07822 0.41172
# Poissons Ratio (y) = 0.07822 0.41172
# Poissons Ratio (z) = 0.34761 0.34761
#
# Static dielectric constant tensor:
#      x y z
#    x 1.579340 0.000000 0.000000 
#    y 0.000000 1.579340 0.000000 
#    z 0.000000 0.000000 1.717210 
# 
# From -- ./inp_files/5890.got.cif
#   From: 2010.05.17/outbox.cif.g08.bks.cpg/sg155_3_cif.got.tgz:5890.got - 2010.05.20 10:44:35.
