data_PCOD9577592
_publ_section_title
;
Structure prediction by ZEFSAII (Michael W. Deem and Ramdas Pophale) SiO2 
 PCOD9577592
Probable space group: R 3 C
;
_chemical_formula_sum "Si O2"
_cell_formula_units_Z 54
_cell_length_a 15.098543
_cell_length_b 15.098543
_cell_length_c 10.698701
_cell_angle_alpha 90.000000
_cell_angle_beta 90.000000
_cell_angle_gamma 120.000000
_cell_volume 2112.184068
_symmetry_space_group_name_H-M "R 3 C"
_symmetry_group_IT_number 161
_symmetry_cell_setting 'hexagonal'
loop_
_space_group_symop_operation_xyz
x,y,z
-y,x-y,z
-x+y,-x,z
-x+y,y,1/2+z
x,x-y,1/2+z
-y,-x,1/2+z
2/3+x,1/3+y,1/3+z
2/3-y,1/3+x-y,1/3+z
2/3-x+y,1/3-x,1/3+z
2/3-x+y,1/3+y,5/6+z
2/3+x,1/3+x-y,5/6+z
2/3-y,1/3-x,5/6+z
1/3+x,2/3+y,2/3+z
1/3-y,2/3+x-y,2/3+z
1/3-x+y,2/3-x,2/3+z
1/3-x+y,2/3+y,1/6+z
1/3+x,2/3+x-y,1/6+z
1/3-y,2/3-x,1/6+z
loop_
_atom_site_type_symbol
_atom_site_label
_atom_site_fract_x
_atom_site_fract_y
_atom_site_fract_z
Si Si1 0.330111 0.214084 0.289605
Si Si2 0.903813 0.872042 0.925517
Si Si3 0.579863 0.568167 0.396842
O O1 0.206668 0.141936 0.310886
O O2 0.337797 0.319847 0.245386
O O3 0.357819 0.158388 0.184214
O O4 0.370314 0.228920 0.431241
O O5 0.026342 0.921235 0.926290
O O6 0.845154 0.797531 0.040455
#
# Coordination Sequence:
#
# PCOD9577592 Si02
#       3
#    18  18  18
#     4  10  24  47  69 102 146 183 245 291 382 413
#     4   8  20  46  70 100 135 195 237 291 354 447
#     4  10  24  47  69 108 141 194 232 314 352 452
#
# _framework density 25.565954000000001
#
# number of rings (size 3 to 8) (size 9 to 14) (size 15 to 20)
#    2.667    0.000    0.000    0.000    0.000    8.000 
#   18.000    0.000    0.000    0.000    0.000    0.000 
#    0.000    0.000    0.000    0.000    0.000    0.000 
#
# Total GULP energy -100450.162195 kJ/mol
# GULP energy per Si atom -5580.564566 kJ/mol
# Density = 2.550776 g / cm^3
# Si number density = 25.565954 Si / 1000 Ang^3
#
#
#
# Elastic Constant Matrix: (Units=GPa)
#
#
# Indices 1 2 3 4 5 6 
#
# 1 89.0188 3.4056 30.0559 8.4994 0.0000 0.0000
# 2 3.4056 89.0188 30.0559 -8.4994 0.0000 0.0000
# 3 30.0559 30.0559 176.1414 0.0000 0.0000 0.0000
# 4 8.4994 -8.4994 0.0000 24.3521 0.0000 0.0000
# 5 0.0000 0.0000 0.0000 0.0000 24.3521 8.4994
# 6 0.0000 0.0000 0.0000 0.0000 8.4994 42.8066
#
#
#
# Elastic Compliance Matrix: (Units=1/GPa)
#
#
# Indices 1 2 3 4 5 6 
#
# 1 0.012360 -0.000190 -0.002077 -0.004380 0.000000 0.000000
# 2 -0.000190 0.012360 -0.002077 0.004380 0.000000 0.000000
# 3 -0.002077 -0.002077 0.006386 0.000000 0.000000 0.000000
# 4 -0.004380 0.004380 0.000000 0.044122 0.000000 0.000000
# 5 0.000000 0.000000 0.000000 0.000000 0.044122 -0.008761
# 6 0.000000 0.000000 0.000000 0.000000 -0.008761 0.025100
#
#
# Mechanical properties :
#
#
# Convention : Reuss Voigt Hill
#
# Bulk Modulus (GPa) = 44.60332 53.46820 49.03576
# Shear Modulus (GPa) = 31.13126 37.67960 34.40543
#
# Velocity S-wave (km/s) = 3.49332 3.84320 3.67243
# Velocity P-wave (km/s) = 5.80993 6.37596 6.09951
#
# Compressibility (1/GPa) = 0.02241986
#
# Stress axis : x y z
#
# Youngs Moduli (GPa) = 80.90462 80.90462 156.59339
#
# Poissons Ratio (x) = 0.01537 0.32519
# Poissons Ratio (y) = 0.01537 0.32519
# Poissons Ratio (z) = 0.16801 0.16801
#
# Static dielectric constant tensor:
#      x y z
#    x 2.107550 0.000000 0.000000 
#    y 0.000000 2.107550 0.000000 
#    z 0.000000 0.000000 1.935080 
# 
# From -- ./inp_files/166.got.cif
#   From: 2010.05.17/outbox.cif.g08.bks.cpg/sg161_cif.got.tgz:166.got - 2010.05.20 10:52:32.
