data_PCOD9577067
_publ_section_title
;
Structure prediction by ZEFSAII (Michael W. Deem and Ramdas Pophale) SiO2 
 PCOD9577067
Probable space group: R 3 2
;
_chemical_formula_sum "Si O2"
_cell_formula_units_Z 54
_cell_length_a 18.257673
_cell_length_b 18.257673
_cell_length_c 8.082187
_cell_angle_alpha 90.000000
_cell_angle_beta 90.000000
_cell_angle_gamma 120.000000
_cell_volume 2333.191445
_symmetry_space_group_name_H-M "R 3 2"
_symmetry_group_IT_number 155
_symmetry_cell_setting 'hexagonal'
loop_
_space_group_symop_operation_xyz
x,y,z
-y,x-y,z
-x+y,-x,z
x-y,-y,-z
-x,-x+y,-z
y,x,-z
2/3+x,1/3+y,1/3+z
2/3-y,1/3+x-y,1/3+z
2/3-x+y,1/3-x,1/3+z
2/3+x-y,1/3-y,1/3-z
2/3-x,1/3-x+y,1/3-z
2/3+y,1/3+x,1/3-z
1/3+x,2/3+y,2/3+z
1/3-y,2/3+x-y,2/3+z
1/3-x+y,2/3-x,2/3+z
1/3+x-y,2/3-y,2/3-z
1/3-x,2/3-x+y,2/3-z
1/3+y,2/3+x,2/3-z
loop_
_atom_site_type_symbol
_atom_site_label
_atom_site_fract_x
_atom_site_fract_y
_atom_site_fract_z
Si Si1 0.500049 0.066884 0.352192
Si Si2 0.222333 0.616659 0.440300
Si Si3 0.495382 0.162049 0.833334
Si Si4 0.201466 0.868132 0.333334
O O1 0.429891 0.096557 0.333334
O O2 0.581151 0.150038 0.424879
O O3 0.471010 0.000000 0.500000
O O4 0.511469 0.027391 0.180416
O O5 0.284945 0.576513 0.451928
O O6 0.180093 0.579636 0.263464
O O7 0.418139 0.130552 0.708691
#
# Coordination Sequence:
#
# PCOD9577067 Si02
#       4
#    18  18   9   9
#     4  12  24  41  68 103 150 193 250 325 391 461
#     4  10  24  44  69 105 160 206 254 317 407 473
#     4  12  22  42  64 108 156 200 256 340 376 472
#     4  12  24  36  64 102 144 196 258 308 402 444
#
# _framework density 23.144264
#
# number of rings (size 3 to 8) (size 9 to 14) (size 15 to 20)
#    0.667    0.000    6.667    1.000    7.000    1.333 
#    0.000    0.000    0.000    0.000    0.000    9.333 
#    0.000    0.000    0.000    0.000    0.000    0.000 
#
# Total GULP energy -100382.707963 kJ/mol
# GULP energy per Si atom -5576.817109 kJ/mol
# Density = 2.309159 g / cm^3
# Si number density = 23.144264 Si / 1000 Ang^3
#
#
#
# Elastic Constant Matrix: (Units=GPa)
#
#
# Indices 1 2 3 4 5 6 
#
# 1 99.4654 22.5684 35.3217 -3.0549 -0.0005 -0.0001
# 2 22.5684 99.4656 35.3225 3.0547 0.0001 0.0000
# 3 35.3217 35.3225 185.6703 -0.0005 -0.0021 -0.0004
# 4 -3.0549 3.0547 -0.0005 38.2014 -0.0005 -0.0001
# 5 -0.0005 0.0001 -0.0021 -0.0005 38.1998 -3.0551
# 6 -0.0001 0.0000 -0.0004 -0.0001 -3.0551 38.4486
#
#
#
# Elastic Compliance Matrix: (Units=1/GPa)
#
#
# Indices 1 2 3 4 5 6 
#
# 1 0.011148 -0.001939 -0.001752 0.001047 0.000000 0.000000
# 2 -0.001939 0.011148 -0.001752 -0.001047 0.000000 0.000000
# 3 -0.001752 -0.001752 0.006052 0.000000 0.000000 0.000000
# 4 0.001047 -0.001047 0.000000 0.026344 0.000000 0.000000
# 5 0.000000 0.000000 0.000000 0.000000 0.026346 0.002093
# 6 0.000000 0.000000 0.000000 0.000000 0.002093 0.026175
#
#
# Mechanical properties :
#
#
# Convention : Reuss Voigt Hill
#
# Bulk Modulus (GPa) = 57.26660 63.44740 60.35700
# Shear Modulus (GPa) = 40.34836 42.39587 41.37211
#
# Velocity S-wave (km/s) = 4.17986 4.28461 4.23256
# Velocity P-wave (km/s) = 6.93484 7.20767 7.07257
#
# Compressibility (1/GPa) = 0.01746218
#
# Stress axis : x y z
#
# Youngs Moduli (GPa) = 89.70181 89.70169 165.22272
#
# Poissons Ratio (x) = 0.17398 0.28944
# Poissons Ratio (y) = 0.17398 0.28945
# Poissons Ratio (z) = 0.15714 0.15715
#
# Static dielectric constant tensor:
#      x y z
#    x 1.876710 0.000000 0.000000 
#    y 0.000000 1.876710 0.000000 
#    z 0.000000 0.000000 2.003890 
# 
# From -- ./inp_files/1920.got.cif
#   From: 2010.05.17/outbox.cif.g08.bks.cpg/sg155_1_cif.got.tgz:1920.got - 2010.05.20 10:44:35.
