data_PCOD9577421
_publ_section_title
;
Structure prediction by ZEFSAII (Michael W. Deem and Ramdas Pophale) SiO2 
 PCOD9577421
Probable space group: P 3 1 C
;
_chemical_formula_sum "Si O2"
_cell_formula_units_Z 40
_cell_length_a 14.089133
_cell_length_b 14.089133
_cell_length_c 10.930989
_cell_angle_alpha 90.000000
_cell_angle_beta 90.000000
_cell_angle_gamma 120.000000
_cell_volume 1879.137791
_symmetry_space_group_name_H-M "P 3 1 C"
_symmetry_group_IT_number 159
_symmetry_cell_setting 'hexagonal'
loop_
_space_group_symop_operation_xyz
x,y,z
-y,x-y,z
-x+y,-x,z
y,x,1/2+z
x-y,-y,1/2+z
-x,-x+y,1/2+z
loop_
_atom_site_type_symbol
_atom_site_label
_atom_site_fract_x
_atom_site_fract_y
_atom_site_fract_z
Si Si1 0.698623 0.153758 0.903570
Si Si2 0.313597 0.860718 0.033936
Si Si3 0.666667 0.333334 0.494388
Si Si4 0.677690 0.734051 0.805359
Si Si5 0.333333 0.666667 0.292817
Si Si6 0.492191 0.511199 0.234979
Si Si7 0.092931 0.739506 0.661598
Si Si8 0.165845 0.294974 0.206336
O O1 0.725179 0.270064 0.848566
O O2 0.571543 0.079194 0.860604
O O3 0.763967 0.107620 0.828151
O O4 0.739579 0.156639 0.039473
O O5 0.312926 0.764296 0.955410
O O6 0.422520 0.906111 0.117790
O O7 0.210211 0.811717 0.123761
O O8 0.291994 0.942396 0.949540
O O9 0.666668 0.333334 0.645414
O O10 0.580096 0.621442 0.751079
O O11 0.660690 0.831927 0.760387
O O12 0.793925 0.753716 0.751711
O O13 0.434255 0.384625 0.203607
O O14 0.989066 0.759487 0.640272
#
# Coordination Sequence:
#
# PCOD9577421 Si02
#       8
#     6   6   2   6   2   6   6   6
#     4  11  22  39  68  94 136 180 227 274 337 423
#     4  11  22  39  68  94 136 180 227 274 337 423
#     4  12  18  36  61 104 133 174 213 259 329 427
#     4  11  26  42  67  98 135 183 231 299 356 412
#     4  12  18  36  61 104 133 174 213 259 329 427
#     4  10  22  43  62  98 136 175 228 274 350 420
#     4  11  26  42  67  98 135 183 231 299 356 412
#     4  10  24  45  64  92 130 179 238 280 348 410
#
# _framework density 21.286358
#
# number of rings (size 3 to 8) (size 9 to 14) (size 15 to 20)
#    0.000    1.200    3.000    2.700   12.600    0.000 
#    1.800    0.000    0.000    1.800    0.000    0.000 
#    0.000    0.000    0.000    0.000    0.000    0.000 
#
# Total GULP energy -222685.254635 kJ/mol
# GULP energy per Si atom -5567.131366 kJ/mol
# Density = 2.123791 g / cm^3
# Si number density = 21.286358 Si / 1000 Ang^3
#
#
#
# Elastic Constant Matrix: (Units=GPa)
#
#
# Indices 1 2 3 4 5 6 
#
# 1 90.4167 22.8305 9.4482 -0.0001 -8.9277 -0.0001
# 2 22.8305 90.4165 9.4480 0.0001 8.9277 -0.0001
# 3 9.4482 9.4480 48.6076 0.0000 0.0000 -0.0001
# 4 -0.0001 0.0001 0.0000 23.0847 0.0000 8.9278
# 5 -8.9277 8.9277 0.0000 0.0000 23.0847 0.0001
# 6 -0.0001 -0.0001 -0.0001 8.9278 0.0001 33.7930
#
#
#
# Elastic Compliance Matrix: (Units=1/GPa)
#
#
# Indices 1 2 3 4 5 6 
#
# 1 0.012803 -0.003677 -0.001774 0.000000 0.006373 0.000000
# 2 -0.003677 0.012803 -0.001774 0.000000 -0.006373 0.000000
# 3 -0.001774 -0.001774 0.021263 0.000000 0.000000 0.000000
# 4 0.000000 0.000000 0.000000 0.048248 0.000000 -0.012747
# 5 0.006373 -0.006373 0.000000 0.000000 0.048248 0.000000
# 6 0.000000 0.000000 0.000000 -0.012747 0.000000 0.032959
#
#
# Mechanical properties :
#
#
# Convention : Reuss Voigt Hill
#
# Bulk Modulus (GPa) = 30.84578 34.76602 32.80590
# Shear Modulus (GPa) = 24.80405 28.50677 26.65541
#
# Velocity S-wave (km/s) = 3.41729 3.66348 3.54252
# Velocity P-wave (km/s) = 5.48569 5.85344 5.67255
#
# Compressibility (1/GPa) = 0.03241935
#
# Stress axis : x y z
#
# Youngs Moduli (GPa) = 78.10696 78.10683 47.03113
#
# Poissons Ratio (x) = 0.28718 0.08343
# Poissons Ratio (y) = 0.28718 0.08343
# Poissons Ratio (z) = 0.13856 0.13855
#
# Static dielectric constant tensor:
#      x y z
#    x 1.821010 0.000000 0.000000 
#    y 0.000000 1.821010 0.000000 
#    z 0.000000 0.000000 1.875210 
# 
# From -- ./inp_files/693.got.cif
#   From: 2010.05.17/outbox.cif.g08.bks.cpg/sg159_cif.got.tgz:693.got - 2010.05.20 10:50:30.
