data_PCOD9577570
_publ_section_title
;
Structure prediction by ZEFSAII (Michael W. Deem and Ramdas Pophale) SiO2 
 PCOD9577570
Probable space group: R 3 C
;
_chemical_formula_sum "Si O2"
_cell_formula_units_Z 120
_cell_length_a 19.079361
_cell_length_b 19.079361
_cell_length_c 18.340861
_cell_angle_alpha 90.000000
_cell_angle_beta 90.000000
_cell_angle_gamma 120.000000
_cell_volume 5781.998863
_symmetry_space_group_name_H-M "R 3 C"
_symmetry_group_IT_number 161
_symmetry_cell_setting 'hexagonal'
loop_
_space_group_symop_operation_xyz
x,y,z
-y,x-y,z
-x+y,-x,z
-x+y,y,1/2+z
x,x-y,1/2+z
-y,-x,1/2+z
2/3+x,1/3+y,1/3+z
2/3-y,1/3+x-y,1/3+z
2/3-x+y,1/3-x,1/3+z
2/3-x+y,1/3+y,5/6+z
2/3+x,1/3+x-y,5/6+z
2/3-y,1/3-x,5/6+z
1/3+x,2/3+y,2/3+z
1/3-y,2/3+x-y,2/3+z
1/3-x+y,2/3-x,2/3+z
1/3-x+y,2/3+y,1/6+z
1/3+x,2/3+x-y,1/6+z
1/3-y,2/3-x,1/6+z
loop_
_atom_site_type_symbol
_atom_site_label
_atom_site_fract_x
_atom_site_fract_y
_atom_site_fract_z
Si Si1 0.666667 0.333334 0.200385
Si Si2 0.505077 0.283899 0.127546
Si Si3 0.055270 0.268465 0.880279
Si Si4 0.077897 0.906897 0.621522
Si Si5 0.000000 0.000000 0.044103
Si Si6 0.140654 0.349615 0.608463
Si Si7 0.958798 0.568570 0.175176
Si Si8 0.762968 0.720538 0.083209
O O1 0.592088 0.338643 0.165082
O O2 0.666668 0.333334 0.288697
O O3 0.462464 0.202890 0.176283
O O4 0.453324 0.329135 0.136392
O O5 0.510905 0.264670 0.042513
O O6 0.104518 0.311752 0.953253
O O7 0.081755 0.340079 0.823487
O O8 0.962059 0.232158 0.902341
O O9 0.162903 0.910927 0.603785
O O10 0.057114 0.966935 0.577201
O O11 0.012986 0.815307 0.597688
O O12 0.228669 0.385521 0.574138
O O13 0.149854 0.370551 0.693768
O O14 0.009995 0.657854 0.208706
#
# Coordination Sequence:
#
# PCOD9577570 Si02
#       8
#     6  18  18  18   6  18  18  18
#     4  12  31  44  70  96 139 176 238 285 361 413
#     4  12  24  46  69 100 138 185 226 291 338 429
#     4  11  23  42  69 104 134 178 236 269 355 403
#     4  11  24  49  70  98 142 177 236 277 351 416
#     4  12  31  47  70 105 130 194 226 291 361 419
#     4  10  23  44  69  99 139 177 222 296 334 416
#     4  10  24  40  68 101 137 173 229 280 345 406
#     4  10  22  44  67 101 133 176 225 283 339 416
#
# _framework density 20.754068
#
# number of rings (size 3 to 8) (size 9 to 14) (size 15 to 20)
#    0.000    1.200    3.000    1.800   10.500    0.000 
#    8.100    0.000    0.000    0.000    0.000    0.000 
#    0.000    0.000    0.000    0.000    0.000    0.000 
#
# Total GULP energy -223359.457905 kJ/mol
# GULP energy per Si atom -5583.986448 kJ/mol
# Density = 2.070683 g / cm^3
# Si number density = 20.754068 Si / 1000 Ang^3
#
#
#
# Elastic Constant Matrix: (Units=GPa)
#
#
# Indices 1 2 3 4 5 6 
#
# 1 47.4413 8.7756 5.2352 8.1275 0.0000 0.0000
# 2 8.7756 47.4400 5.2350 -8.1276 0.0000 0.0000
# 3 5.2352 5.2350 84.1515 0.0001 0.0000 0.0000
# 4 8.1275 -8.1276 0.0001 33.0647 0.0000 0.0000
# 5 0.0000 0.0000 0.0000 0.0000 33.0647 8.1275
# 6 0.0000 0.0000 0.0000 0.0000 8.1275 19.3325
#
#
#
# Elastic Compliance Matrix: (Units=1/GPa)
#
#
# Indices 1 2 3 4 5 6 
#
# 1 0.023420 -0.005423 -0.001120 -0.007090 0.000000 0.000000
# 2 -0.005423 0.023421 -0.001120 0.007090 0.000000 0.000000
# 3 -0.001120 -0.001120 0.012023 0.000000 0.000000 0.000000
# 4 -0.007090 0.007090 0.000000 0.033729 0.000000 0.000000
# 5 0.000000 0.000000 0.000000 0.000000 0.033729 -0.014180
# 6 0.000000 0.000000 0.000000 0.000000 -0.014180 0.057688
#
#
# Mechanical properties :
#
#
# Convention : Reuss Voigt Hill
#
# Bulk Modulus (GPa) = 22.96836 24.16939 23.56888
# Shear Modulus (GPa) = 23.38111 27.74484 25.56298
#
# Velocity S-wave (km/s) = 3.36010 3.66025 3.51338
# Velocity P-wave (km/s) = 5.11318 5.43453 5.27630
#
# Compressibility (1/GPa) = 0.04353815
#
# Stress axis : x y z
#
# Youngs Moduli (GPa) = 42.69841 42.69715 83.17648
#
# Poissons Ratio (x) = 0.23157 0.09312
# Poissons Ratio (y) = 0.23157 0.09312
# Poissons Ratio (z) = 0.04781 0.04780
#
# Static dielectric constant tensor:
#      x y z
#    x 1.760880 0.000000 0.000000 
#    y 0.000000 1.760880 0.000000 
#    z 0.000000 0.000000 1.753350 
# 
# From -- ./inp_files/1477.got.cif
#   From: 2010.05.17/outbox.cif.g08.bks.cpg/sg161_cif.got.tgz:1477.got - 2010.05.20 10:52:32.
