data_PCOD9577711
_publ_section_title
;
Structure prediction by ZEFSAII (Michael W. Deem and Ramdas Pophale) SiO2 
 PCOD9577711
Probable space group: P -3 1 M 
;
_chemical_formula_sum "Si O2"
_cell_formula_units_Z 96
_cell_length_a 15.124832
_cell_length_b 15.124832
_cell_length_c 27.214029
_cell_angle_alpha 90.000000
_cell_angle_beta 90.000000
_cell_angle_gamma 120.000000
_cell_volume 5391.437732
_symmetry_space_group_name_H-M "P -3 1 M "
_symmetry_group_IT_number 162
_symmetry_cell_setting 'hexagonal'
loop_
_space_group_symop_operation_xyz
x,y,z
-y,x-y,z
-x+y,-x,z
-y,-x,-z
-x+y,y,-z
x,x-y,-z
-x,-y,-z
y,-x+y,-z
x-y,x,-z
y,x,z
x-y,-y,z
-x,-x+y,z
loop_
_atom_site_type_symbol
_atom_site_label
_atom_site_fract_x
_atom_site_fract_y
_atom_site_fract_z
Si Si1 0.121590 0.539458 0.112901
Si Si2 0.883023 0.765402 0.812828
Si Si3 0.436796 0.558398 0.772776
Si Si4 0.461488 0.210372 0.945096
Si Si5 0.114616 0.885722 0.068998
Si Si6 0.123380 0.876741 0.662007
Si Si7 0.878202 0.121812 0.552662
Si Si8 0.420281 0.211705 0.255162
O O1 0.153157 0.571372 0.169560
O O2 0.151153 0.638471 0.079771
O O3 0.180297 0.486194 0.089679
O O4 0.000000 0.464049 0.111686
O O5 0.820737 0.820737 0.796109
O O6 0.884465 0.766466 0.871638
O O7 0.829269 0.651196 0.793120
O O8 0.000000 0.827927 0.795310
O O9 0.491971 0.491971 0.771935
O O10 0.511006 0.667054 0.748640
O O11 0.329193 0.496076 0.745574
O O12 0.339679 0.139837 0.948049
O O13 0.500760 0.250380 0.000000
O O14 0.000000 0.855737 0.055483
O O15 0.195679 0.000000 0.052938
O O16 0.146725 0.853451 0.606523
O O17 0.170514 0.832359 0.701021
O O18 0.000000 0.821965 0.667648
O O19 0.176145 0.000000 0.667308
O O20 0.849187 0.150814 0.500000
O O21 0.000000 0.172853 0.552292
O O22 0.827080 0.000000 0.552409
#
# Coordination Sequence:
#
# PCOD9577711 Si02
#       8
#    12  12  12  12  12  12  12  12
#     4  11  24  42  62  81 102 130 165 206 255 312
#     4  10  19  33  54  80 109 138 168 203 248 308
#     4  11  23  39  58  77  99 132 172 213 258 309
#     4  12  25  40  60  84 107 130 160 205 260 309
#     4  10  21  37  57  81 110 144 176 202 233 287
#     4  10  19  31  50  80 118 154 183 214 257 310
#     4   8  13  22  39  67 106 151 191 219 246 291
#     4  12  23  36  53  76 104 135 175 222 270 315
#
# _framework density 17.806011000000002
#
# number of rings (size 3 to 8) (size 9 to 14) (size 15 to 20)
#    0.000    1.500    0.000    6.625    0.000    9.000 
#    0.000    1.250    0.000    0.750    0.000    0.875 
#    0.000    5.000    0.000    0.000    0.000    0.000 
#
# Total GULP energy -536171.858382 kJ/mol
# GULP energy per Si atom -5585.123525 kJ/mol
# Density = 1.776548 g / cm^3
# Si number density = 17.806011 Si / 1000 Ang^3
#
#
#
# Elastic Constant Matrix: (Units=GPa)
#
#
# Indices 1 2 3 4 5 6 
#
# 1 82.7147 24.9295 29.3315 -0.0003 -4.0566 0.0000
# 2 24.9295 82.7147 29.3315 0.0003 4.0566 0.0000
# 3 29.3315 29.3315 120.5588 0.0000 0.0000 0.0000
# 4 -0.0003 0.0003 0.0000 -34.9283 0.0000 4.0566
# 5 -4.0566 4.0566 0.0000 0.0000 -34.9283 -0.0003
# 6 0.0000 0.0000 0.0000 4.0566 -0.0003 28.8926
#
#
#
# Elastic Compliance Matrix: (Units=1/GPa)
#
#
# Indices 1 2 3 4 5 6 
#
# 1 0.013869 -0.003159 -0.002606 0.000000 -0.001978 0.000000
# 2 -0.003159 0.013869 -0.002606 0.000000 0.001978 0.000000
# 3 -0.002606 -0.002606 0.009563 0.000000 0.000000 0.000000
# 4 0.000000 0.000000 0.000000 -0.028171 0.000000 0.003955
# 5 -0.001978 0.001978 0.000000 0.000000 -0.028171 0.000000
# 6 0.000000 0.000000 0.000000 0.003955 0.000000 0.034056
#
#
# Mechanical properties :
#
#
# Convention : Reuss Voigt Hill
#
# Bulk Modulus (GPa) = 48.63891 50.35260 49.49575
# Shear Modulus (GPa) = 129.50544 5.30023 67.40283
#
# Velocity S-wave (km/s) = 8.53752 1.72717 6.15923
# Velocity P-wave (km/s) = 11.16069 5.68483 8.85659
#
# Compressibility (1/GPa) = 0.02055967
#
# Stress axis : x y z
#
# Youngs Moduli (GPa) = 72.10401 72.10401 104.57391
#
# Poissons Ratio (x) = 0.22777 0.27249
# Poissons Ratio (y) = 0.22777 0.27249
# Poissons Ratio (z) = 0.18788 0.18788
#
# Static dielectric constant tensor:
#      x y z
#    x 1.587310 0.000000 0.000000 
#    y 0.000000 1.587310 0.000000 
#    z 0.000000 0.000000 1.662260 
# 
# From -- ./inp_files/4118.got.cif
#   From: 2010.05.17/outbox.cif.g08.bks.cpg/sg162_3_cif.got.tgz:4118.got - 2010.05.20 10:53:12.
