data_PCOD9577160
_publ_section_title
;
Structure prediction by ZEFSAII (Michael W. Deem and Ramdas Pophale) SiO2 
 PCOD9577160
Probable space group: R 3 2
;
_chemical_formula_sum "Si O2"
_cell_formula_units_Z 108
_cell_length_a 21.758627
_cell_length_b 21.758627
_cell_length_c 12.720933
_cell_angle_alpha 90.000000
_cell_angle_beta 90.000000
_cell_angle_gamma 120.000000
_cell_volume 5215.699617
_symmetry_space_group_name_H-M "R 3 2"
_symmetry_group_IT_number 155
_symmetry_cell_setting 'hexagonal'
loop_
_space_group_symop_operation_xyz
x,y,z
-y,x-y,z
-x+y,-x,z
x-y,-y,-z
-x,-x+y,-z
y,x,-z
2/3+x,1/3+y,1/3+z
2/3-y,1/3+x-y,1/3+z
2/3-x+y,1/3-x,1/3+z
2/3+x-y,1/3-y,1/3-z
2/3-x,1/3-x+y,1/3-z
2/3+y,1/3+x,1/3-z
1/3+x,2/3+y,2/3+z
1/3-y,2/3+x-y,2/3+z
1/3-x+y,2/3-x,2/3+z
1/3+x-y,2/3-y,2/3-z
1/3-x,2/3-x+y,2/3-z
1/3+y,2/3+x,2/3-z
loop_
_atom_site_type_symbol
_atom_site_label
_atom_site_fract_x
_atom_site_fract_y
_atom_site_fract_z
Si Si1 0.632983 0.814151 0.219188
Si Si2 0.666667 0.601155 0.833334
Si Si3 0.155918 0.684253 0.943253
Si Si4 0.803966 0.216380 0.209381
Si Si5 0.080794 0.593881 0.759047
Si Si6 0.995919 0.662585 0.333334
Si Si7 0.508487 0.841820 0.166667
Si Si8 0.061732 0.395066 0.666667
O O1 0.666667 0.841522 0.333334
O O2 0.593410 0.729818 0.216546
O O3 0.694957 0.848399 0.133765
O O4 0.581695 0.842646 0.183778
O O5 0.630776 0.625186 0.743833
O O6 0.213091 0.758732 0.891908
O O7 0.138663 0.628493 0.849911
O O8 0.075524 0.673682 0.970436
O O9 0.188990 0.674310 0.050075
O O10 0.832286 0.165619 0.166667
O O11 0.749678 0.182565 0.307644
O O12 0.871417 0.285451 0.257204
O O13 0.038832 0.638079 0.753142
#
# Coordination Sequence:
#
# PCOD9577160 Si02
#       8
#    18   9  18  18  18   9   9   9
#     4  12  24  40  61  94 136 180 230 287 357 436
#     4  12  26  44  66  88 134 188 238 304 354 410
#     4  12  23  35  57  93 143 179 215 271 349 440
#     4  12  22  39  59  89 130 179 237 287 343 417
#     4  12  21  33  55  88 126 171 216 267 349 419
#     4  12  20  28  53  88 128 175 196 254 336 420
#     4  12  24  36  62  94 132 174 222 278 348 436
#     4  12  26  42  67  90 128 191 250 300 352 412
#
# _framework density 20.706713000000001
#
# number of rings (size 3 to 8) (size 9 to 14) (size 15 to 20)
#    0.000    0.000   10.000    1.500    0.000    0.000 
#    0.000    0.000    0.000    0.333    0.000    0.000 
#    6.667    0.000    0.000    0.000    0.000    0.000 
#
# Total GULP energy -200469.100148 kJ/mol
# GULP energy per Si atom -5568.586115 kJ/mol
# Density = 2.065958 g / cm^3
# Si number density = 20.706713 Si / 1000 Ang^3
#
#
#
# Elastic Constant Matrix: (Units=GPa)
#
#
# Indices 1 2 3 4 5 6 
#
# 1 60.1988 32.3729 19.6475 -0.4440 0.0000 0.0000
# 2 32.3729 60.1988 19.6475 0.4440 0.0000 0.0000
# 3 19.6475 19.6475 138.7402 0.0000 0.0000 0.0000
# 4 -0.4440 0.4440 0.0000 24.2190 0.0000 0.0000
# 5 0.0000 0.0000 0.0000 0.0000 24.2191 -0.4440
# 6 0.0000 0.0000 0.0000 0.0000 -0.4440 13.9130
#
#
#
# Elastic Compliance Matrix: (Units=1/GPa)
#
#
# Indices 1 2 3 4 5 6 
#
# 1 0.023726 -0.012233 -0.001628 0.000659 0.000000 0.000000
# 2 -0.012233 0.023726 -0.001628 -0.000659 0.000000 0.000000
# 3 -0.001628 -0.001628 0.007669 0.000000 0.000000 0.000000
# 4 0.000659 -0.000659 0.000000 0.041314 0.000000 0.000000
# 5 0.000000 0.000000 0.000000 0.000000 0.041314 0.001318
# 6 0.000000 0.000000 0.000000 0.000000 0.001318 0.071918
#
#
# Mechanical properties :
#
#
# Convention : Reuss Voigt Hill
#
# Bulk Modulus (GPa) = 41.41660 44.71930 43.06795
# Shear Modulus (GPa) = 20.10531 24.96820 22.53676
#
# Velocity S-wave (km/s) = 3.11940 3.47623 3.30264
# Velocity P-wave (km/s) = 5.74623 6.14456 5.94873
#
# Compressibility (1/GPa) = 0.02414491
#
# Stress axis : x y z
#
# Youngs Moduli (GPa) = 42.14777 42.14777 130.40014
#
# Poissons Ratio (x) = 0.51558 0.21224
# Poissons Ratio (y) = 0.51558 0.21224
# Poissons Ratio (z) = 0.06860 0.06860
#
# Static dielectric constant tensor:
#      x y z
#    x 1.770620 0.000000 0.000000 
#    y 0.000000 1.770620 0.000000 
#    z 0.000000 0.000000 1.786350 
# 
# From -- ./inp_files/4158.got.cif
#   From: 2010.05.17/outbox.cif.g08.bks.cpg/sg155_3_cif.got.tgz:4158.got - 2010.05.20 10:44:35.
