data_PCOD9577801
_publ_section_title
;
Structure prediction by ZEFSAII (Michael W. Deem and Ramdas Pophale) SiO2 
 PCOD9577801
Probable space group: P -3 1 M 
;
_chemical_formula_sum "Si O2"
_cell_formula_units_Z 84
_cell_length_a 17.779325
_cell_length_b 17.779325
_cell_length_c 16.253133
_cell_angle_alpha 90.000000
_cell_angle_beta 90.000000
_cell_angle_gamma 120.000000
_cell_volume 4449.367297
_symmetry_space_group_name_H-M "P -3 1 M "
_symmetry_group_IT_number 162
_symmetry_cell_setting 'hexagonal'
loop_
_space_group_symop_operation_xyz
x,y,z
-y,x-y,z
-x+y,-x,z
-y,-x,-z
-x+y,y,-z
x,x-y,-z
-x,-y,-z
y,-x+y,-z
x-y,x,-z
y,x,z
x-y,-y,z
-x,-x+y,z
loop_
_atom_site_type_symbol
_atom_site_label
_atom_site_fract_x
_atom_site_fract_y
_atom_site_fract_z
Si Si1 0.608078 0.775204 0.144483
Si Si2 0.360202 0.462746 0.200109
Si Si3 0.734492 0.631788 0.323918
Si Si4 0.103482 0.596373 0.916594
Si Si5 0.375806 0.102115 0.634490
Si Si6 0.895161 0.365982 0.474775
Si Si7 0.097092 0.194439 0.900908
O O1 0.571393 0.840030 0.156129
O O2 0.602949 0.725809 0.229691
O O3 0.550090 0.699402 0.082192
O O4 0.708752 0.832698 0.123075
O O5 0.401529 0.401529 0.181881
O O6 0.428817 0.555625 0.162104
O O7 0.333991 0.447647 0.296668
O O8 0.700785 0.700785 0.334428
O O9 0.834717 0.661925 0.344525
O O10 0.678400 0.551824 0.385737
O O11 0.000000 0.557826 0.913199
O O12 0.122476 0.561238 0.000000
O O13 0.421816 0.125650 0.546232
O O14 0.304411 0.000000 0.635809
O O15 0.859612 0.429806 0.500000
O O16 0.000000 0.424591 0.474859
O O17 0.128660 0.128660 0.871099
O O18 0.000000 0.164321 0.871529
O O19 0.095264 0.190527 0.000000
#
# Coordination Sequence:
#
# PCOD9577801 Si02
#       7
#    12  12  12  12  12  12  12
#     4  11  22  37  58  84 111 150 193 240 287 342
#     4   9  20  37  57  81 112 150 189 233 280 336
#     4  10  20  34  55  85 116 146 188 236 279 331
#     4  10  22  37  55  78 107 143 188 238 289 340
#     4   9  18  34  56  83 115 152 190 226 279 336
#     4   9  18  31  53  81 107 138 179 226 277 334
#     4  10  21  36  58  86 119 155 196 247 300 353
#
# _framework density 18.879087999999999
#
# number of rings (size 3 to 8) (size 9 to 14) (size 15 to 20)
#    0.000    2.286    0.000    2.286    4.000    1.143 
#    0.857    0.000    0.000    2.571    0.000    0.000 
#    0.000    3.429    0.000    0.000    0.000    0.000 
#
# Total GULP energy -468440.861417 kJ/mol
# GULP energy per Si atom -5576.676922 kJ/mol
# Density = 1.883612 g / cm^3
# Si number density = 18.879088 Si / 1000 Ang^3
#
#
#
# Elastic Constant Matrix: (Units=GPa)
#
#
# Indices 1 2 3 4 5 6 
#
# 1 86.8442 38.3681 26.8114 0.0000 2.1917 0.0000
# 2 38.3681 86.8442 26.8114 0.0000 -2.1917 0.0000
# 3 26.8114 26.8114 36.0146 0.0000 0.0000 0.0000
# 4 0.0000 0.0000 0.0000 21.9886 0.0000 -2.1917
# 5 2.1917 -2.1917 0.0000 0.0000 21.9886 0.0000
# 6 0.0000 0.0000 0.0000 -2.1917 0.0000 24.2380
#
#
#
# Elastic Compliance Matrix: (Units=1/GPa)
#
#
# Indices 1 2 3 4 5 6 
#
# 1 0.016270 -0.004546 -0.008728 0.000000 -0.002075 0.000000
# 2 -0.004546 0.016270 -0.008728 0.000000 0.002075 0.000000
# 3 -0.008728 -0.008728 0.040762 0.000000 0.000000 0.000000
# 4 0.000000 0.000000 0.000000 0.045892 0.000000 0.004150
# 5 -0.002075 0.002075 0.000000 0.000000 0.045892 0.000000
# 6 0.000000 0.000000 0.000000 0.004150 0.000000 0.041633
#
#
# Mechanical properties :
#
#
# Convention : Reuss Voigt Hill
#
# Bulk Modulus (GPa) = 34.13231 43.74276 38.93754
# Shear Modulus (GPa) = 19.19458 21.49053 20.34255
#
# Velocity S-wave (km/s) = 3.19205 3.37757 3.28612
# Velocity P-wave (km/s) = 5.63065 6.19926 5.92179
#
# Compressibility (1/GPa) = 0.02929775
#
# Stress axis : x y z
#
# Youngs Moduli (GPa) = 61.46145 61.46145 24.53249
#
# Poissons Ratio (x) = 0.27940 0.21413
# Poissons Ratio (y) = 0.27940 0.21413
# Poissons Ratio (z) = 0.53646 0.53646
#
# Static dielectric constant tensor:
#      x y z
#    x 1.650780 0.000000 0.000000 
#    y 0.000000 1.650780 0.000000 
#    z 0.000000 0.000000 1.699030 
# 
# From -- ./inp_files/3190.got.cif
#   From: 2010.05.17/outbox.cif.g08.bks.cpg/sg162_2_cif.got.tgz:3190.got - 2010.05.20 10:53:12.
