data_PCOD9577825
_publ_section_title
;
Structure prediction by ZEFSAII (Michael W. Deem and Ramdas Pophale) SiO2 
 PCOD9577825
Probable space group: P -3 1 M 
;
_chemical_formula_sum "Si O2"
_cell_formula_units_Z 96
_cell_length_a 14.792677
_cell_length_b 14.792677
_cell_length_c 26.346376
_cell_angle_alpha 90.000000
_cell_angle_beta 90.000000
_cell_angle_gamma 120.000000
_cell_volume 4992.810308
_symmetry_space_group_name_H-M "P -3 1 M "
_symmetry_group_IT_number 162
_symmetry_cell_setting 'hexagonal'
loop_
_space_group_symop_operation_xyz
x,y,z
-y,x-y,z
-x+y,-x,z
-y,-x,-z
-x+y,y,-z
x,x-y,-z
-x,-y,-z
y,-x+y,-z
x-y,x,-z
y,x,z
x-y,-y,z
-x,-x+y,z
loop_
_atom_site_type_symbol
_atom_site_label
_atom_site_fract_x
_atom_site_fract_y
_atom_site_fract_z
Si Si1 0.421721 0.543374 0.324211
Si Si2 0.235489 0.418666 0.641948
Si Si3 0.761425 0.883654 0.844753
Si Si4 0.219083 0.746320 0.120132
Si Si5 0.496849 0.376622 0.217287
Si Si6 0.432863 0.879181 0.059078
Si Si7 0.877686 0.755243 0.439526
Si Si8 0.294856 0.115826 0.733327
O O1 0.457407 0.457407 0.323012
O O2 0.505147 0.641556 0.355695
O O3 0.306561 0.491826 0.347016
O O4 0.424084 0.575769 0.264671
O O5 0.189171 0.350324 0.591943
O O6 0.199193 0.336849 0.688815
O O7 0.809890 0.809890 0.855941
O O8 0.644405 0.831779 0.865364
O O9 0.754866 0.887418 0.783506
O O10 0.833109 0.000000 0.864513
O O11 0.200280 0.676947 0.171230
O O12 0.330075 0.803322 0.091768
O O13 0.136464 0.660900 0.081900
O O14 0.458793 0.458793 0.200056
O O15 0.395869 0.281149 0.243749
O O16 0.464187 0.000000 0.063257
O O17 0.425079 0.850157 0.000000
O O18 0.867868 0.735736 0.500000
O O19 0.832523 0.832523 0.428655
O O20 0.000000 0.810249 0.426131
O O21 0.217806 0.000000 0.712399
#
# Coordination Sequence:
#
# PCOD9577825 Si02
#       8
#    12  12  12  12  12  12  12  12
#     4  10  21  35  53  82 118 152 189 234 278 331
#     4  11  20  36  58  80 113 157 198 235 285 344
#     4  10  20  35  57  87 121 153 184 223 277 342
#     4  11  21  38  59  80 111 148 187 232 281 337
#     4   8  16  32  53  78 109 144 180 221 271 322
#     4  11  24  40  59  84 111 144 190 240 290 338
#     4  10  21  38  61  88 115 145 188 246 307 358
#     4   8  16  31  50  73 106 148 189 227 265 312
#
# _framework density 19.227647999999999
#
# number of rings (size 3 to 8) (size 9 to 14) (size 15 to 20)
#    0.000    2.125    0.000    5.625    0.000    4.500 
#    0.000    3.125    0.000    3.750    0.000    0.000 
#    0.000    6.000    0.000    0.000    0.000    0.000 
#
# Total GULP energy -535561.550919 kJ/mol
# GULP energy per Si atom -5578.766155 kJ/mol
# Density = 1.918388 g / cm^3
# Si number density = 19.227648 Si / 1000 Ang^3
#
#
#
# Elastic Constant Matrix: (Units=GPa)
#
#
# Indices 1 2 3 4 5 6 
#
# 1 58.2539 45.6017 36.6718 0.0000 -0.5585 0.0000
# 2 45.6017 58.2539 36.6718 0.0000 0.5585 0.0000
# 3 36.6718 36.6718 76.1266 0.0000 0.0000 0.0000
# 4 0.0000 0.0000 0.0000 23.3195 0.0000 0.5585
# 5 -0.5585 0.5585 0.0000 0.0000 23.3195 0.0000
# 6 0.0000 0.0000 0.0000 0.5585 0.0000 6.3261
#
#
#
# Elastic Compliance Matrix: (Units=1/GPa)
#
#
# Indices 1 2 3 4 5 6 
#
# 1 0.046899 -0.032306 -0.007030 0.000000 0.001897 0.000000
# 2 -0.032306 0.046899 -0.007030 0.000000 -0.001897 0.000000
# 3 -0.007030 -0.007030 0.019909 0.000000 0.000000 0.000000
# 4 0.000000 0.000000 0.000000 0.042973 0.000000 -0.003794
# 5 0.001897 -0.001897 0.000000 0.000000 0.042973 0.000000
# 6 0.000000 0.000000 0.000000 -0.003794 0.000000 0.158410
#
#
# Mechanical properties :
#
#
# Convention : Reuss Voigt Hill
#
# Bulk Modulus (GPa) = 47.67369 47.83610 47.75489
# Shear Modulus (GPa) = 10.92210 15.50565 13.21387
#
# Velocity S-wave (km/s) = 2.38595 2.84284 2.62436
# Velocity P-wave (km/s) = 5.69548 5.97566 5.83725
#
# Compressibility (1/GPa) = 0.02097593
#
# Stress axis : x y z
#
# Youngs Moduli (GPa) = 21.32232 21.32232 50.22873
#
# Poissons Ratio (x) = 0.68884 0.35310
# Poissons Ratio (y) = 0.68884 0.35310
# Poissons Ratio (z) = 0.14989 0.14989
#
# Static dielectric constant tensor:
#      x y z
#    x 1.676550 0.000000 0.000000 
#    y 0.000000 1.676550 0.000000 
#    z 0.000000 0.000000 1.688420 
# 
# From -- ./inp_files/4070.got.cif
#   From: 2010.05.17/outbox.cif.g08.bks.cpg/sg162_3_cif.got.tgz:4070.got - 2010.05.20 10:53:12.
