data_PCOD9577450
_publ_section_title
;
Structure prediction by ZEFSAII (Michael W. Deem and Ramdas Pophale) SiO2 
 PCOD9577450
Probable space group: P 3 1 C
;
_chemical_formula_sum "Si O2"
_cell_formula_units_Z 48
_cell_length_a 16.871912
_cell_length_b 16.871912
_cell_length_c 8.813016
_cell_angle_alpha 90.000000
_cell_angle_beta 90.000000
_cell_angle_gamma 120.000000
_cell_volume 2172.620101
_symmetry_space_group_name_H-M "P 3 1 C"
_symmetry_group_IT_number 159
_symmetry_cell_setting 'hexagonal'
loop_
_space_group_symop_operation_xyz
x,y,z
-y,x-y,z
-x+y,-x,z
y,x,1/2+z
x-y,-y,1/2+z
-x,-x+y,1/2+z
loop_
_atom_site_type_symbol
_atom_site_label
_atom_site_fract_x
_atom_site_fract_y
_atom_site_fract_z
Si Si1 0.381648 0.221927 0.566080
Si Si2 0.688406 0.506765 0.106405
Si Si3 0.924101 0.808761 0.438884
Si Si4 0.867200 0.507655 0.141683
Si Si5 0.116332 0.924605 0.583405
Si Si6 0.410072 0.071492 0.393808
Si Si7 0.354862 0.121601 0.879762
Si Si8 0.954637 0.532380 0.466128
O O1 0.288481 0.201894 0.481881
O O2 0.413205 0.157929 0.477776
O O3 0.354704 0.176070 0.732404
O O4 0.449861 0.331421 0.559419
O O5 0.788252 0.531523 0.160017
O O6 0.601786 0.407365 0.118451
O O7 0.657848 0.560657 0.219660
O O8 0.704756 0.541474 0.935441
O O9 0.853153 0.821996 0.543182
O O10 0.903790 0.811656 0.261544
O O11 0.023291 0.888284 0.488363
O O12 0.927633 0.535154 0.292754
O O13 0.942373 0.551156 0.009582
O O14 0.165046 0.872492 0.511997
O O15 0.484774 0.052038 0.476532
O O16 0.308206 0.985982 0.375405
#
# Coordination Sequence:
#
# PCOD9577450 Si02
#       8
#     6   6   6   6   6   6   6   6
#     4  12  26  45  71 108 146 188 249 301 370 443
#     4  11  24  45  72 104 139 187 240 297 365 445
#     4  12  26  45  70 103 148 193 243 295 358 424
#     4  11  25  46  74 103 146 189 241 303 375 444
#     4  12  26  44  70 104 145 194 243 296 353 430
#     4  11  23  49  74 102 140 197 243 303 369 449
#     4  12  25  43  74 105 140 190 247 297 359 440
#     4  11  27  45  73 105 148 190 242 308 375 435
#
# _framework density 22.093139000000001
#
# number of rings (size 3 to 8) (size 9 to 14) (size 15 to 20)
#    0.000    0.500    3.750    4.250    5.250    0.000 
#    0.750    0.000    0.000    0.000    0.000    0.000 
#    0.000    0.000    0.000    0.000    0.000    0.000 
#
# Total GULP energy -268092.542107 kJ/mol
# GULP energy per Si atom -5585.261294 kJ/mol
# Density = 2.204285 g / cm^3
# Si number density = 22.093139 Si / 1000 Ang^3
#
#
#
# Elastic Constant Matrix: (Units=GPa)
#
#
# Indices 1 2 3 4 5 6 
#
# 1 81.7972 28.6639 42.4732 0.0000 1.4642 0.0000
# 2 28.6639 81.7972 42.4732 0.0000 -1.4642 0.0000
# 3 42.4732 42.4732 89.4849 0.0000 0.0000 0.0000
# 4 0.0000 0.0000 0.0000 27.7713 0.0000 -1.4642
# 5 1.4642 -1.4642 0.0000 0.0000 27.7713 0.0000
# 6 0.0000 0.0000 0.0000 -1.4642 0.0000 26.5666
#
#
#
# Elastic Compliance Matrix: (Units=1/GPa)
#
#
# Indices 1 2 3 4 5 6 
#
# 1 0.016566 -0.002309 -0.006767 0.000000 -0.000995 0.000000
# 2 -0.002309 0.016566 -0.006767 0.000000 0.000995 0.000000
# 3 -0.006767 -0.006767 0.017599 0.000000 0.000000 0.000000
# 4 0.000000 0.000000 0.000000 0.036113 0.000000 0.001990
# 5 -0.000995 0.000995 0.000000 0.000000 0.036113 0.000000
# 6 0.000000 0.000000 0.000000 0.001990 0.000000 0.037751
#
#
# Mechanical properties :
#
#
# Convention : Reuss Voigt Hill
#
# Bulk Modulus (GPa) = 52.50759 53.36667 52.93713
# Shear Modulus (GPa) = 25.15811 25.71976 25.43894
#
# Velocity S-wave (km/s) = 3.37817 3.41567 3.39697
# Velocity P-wave (km/s) = 6.24773 6.30583 6.27684
#
# Compressibility (1/GPa) = 0.01904487
#
# Stress axis : x y z
#
# Youngs Moduli (GPa) = 60.36416 60.36416 56.82229
#
# Poissons Ratio (x) = 0.13940 0.38451
# Poissons Ratio (y) = 0.13940 0.38451
# Poissons Ratio (z) = 0.40848 0.40848
#
# Static dielectric constant tensor:
#      x y z
#    x 1.868570 0.000000 0.000000 
#    y 0.000000 1.868570 0.000000 
#    z 0.000000 0.000000 1.807820 
# 
# From -- ./inp_files/494.got.cif
#   From: 2010.05.17/outbox.cif.g08.bks.cpg/sg159_cif.got.tgz:494.got - 2010.05.20 10:50:30.
