data_PCOD9577977
_publ_section_title
;
Structure prediction by ZEFSAII (Michael W. Deem and Ramdas Pophale) SiO2 
 PCOD9577977
Probable space group: P -3 1 C
;
_chemical_formula_sum "Si O2"
_cell_formula_units_Z 96
_cell_length_a 16.561050
_cell_length_b 16.561050
_cell_length_c 27.221310
_cell_angle_alpha 90.000000
_cell_angle_beta 90.000000
_cell_angle_gamma 120.000000
_cell_volume 6465.697614
_symmetry_space_group_name_H-M "P -3 1 C"
_symmetry_group_IT_number 163
_symmetry_cell_setting 'hexagonal'
loop_
_space_group_symop_operation_xyz
x,y,z
-y,x-y,z
-x+y,-x,z
-y,-x,1/2-z
-x+y,y,1/2-z
x,x-y,1/2-z
-x,-y,-z
y,-x+y,-z
x-y,x,-z
y,x,1/2+z
x-y,-y,1/2+z
-x,-x+y,1/2+z
loop_
_atom_site_type_symbol
_atom_site_label
_atom_site_fract_x
_atom_site_fract_y
_atom_site_fract_z
Si Si1 0.287980 1.000000 0.000000
Si Si2 0.478711 0.334473 0.046940
Si Si3 0.380678 0.092664 0.148670
Si Si4 0.711986 0.619322 0.351330
Si Si5 0.002269 0.192248 0.101013
Si Si6 0.139483 0.664951 0.750000
Si Si7 0.521289 0.665527 0.546940
Si Si8 0.810021 0.807752 0.898987
O O1 0.225190 0.986930 0.047392
O O2 0.390005 0.087061 0.011610
O O3 0.238260 0.013070 0.952608
O O4 0.302944 0.912939 0.988390
O O5 0.442862 0.341962 0.101394
O O6 0.568498 0.431502 0.033012
O O7 0.502079 0.251039 0.048444
O O8 0.381772 0.190886 0.149010
O O9 0.274043 0.016212 0.137677
O O10 0.421809 0.086250 0.200471
O O11 0.442862 0.100900 0.101394
O O12 0.664441 0.578191 0.299529
O O13 0.742169 0.725957 0.362323
O O14 0.092689 0.185377 0.112980
O O15 0.909296 0.090704 0.100552
O O16 0.239137 0.760864 0.750000
O O17 0.155787 0.577894 0.750000
#
# Coordination Sequence:
#
# PCOD9577977 Si02
#       8
#    12  12  12  12  12  12  12  12
#     4  10  19  30  43  62  90 118 146 184 233 270
#     4  10  18  29  43  62  86 117 150 181 214 260
#     4   8  17  29  42  61  88 113 137 172 218 256
#     4   8  17  29  42  61  88 113 137 172 218 256
#     4  10  18  30  46  65  86 114 149 186 222 265
#     4  10  17  28  45  66  88 114 144 176 209 252
#     4  10  18  29  43  62  86 117 150 181 214 260
#     4  10  18  30  46  65  86 114 149 186 222 265
#
# _framework density 14.847586
#
# number of rings (size 3 to 8) (size 9 to 14) (size 15 to 20)
#    0.000    2.500    0.000    5.500    0.000    0.000 
#    0.000    4.375    0.000    0.000    0.000    1.750 
#    0.000    0.000    0.000   14.500    0.000    0.000 
#
# Total GULP energy -534891.828061 kJ/mol
# GULP energy per Si atom -5571.789876 kJ/mol
# Density = 1.481379 g / cm^3
# Si number density = 14.847586 Si / 1000 Ang^3
#
#
#
# Elastic Constant Matrix: (Units=GPa)
#
#
# Indices 1 2 3 4 5 6 
#
# 1 78.7667 29.4702 21.0031 0.0000 0.0000 0.0000
# 2 29.4702 78.7667 21.0031 0.0000 0.0000 0.0000
# 3 21.0031 21.0031 57.9615 0.0000 0.0000 0.0000
# 4 0.0000 0.0000 0.0000 13.4077 0.0000 0.0000
# 5 0.0000 0.0000 0.0000 0.0000 13.4077 0.0000
# 6 0.0000 0.0000 0.0000 0.0000 0.0000 24.6483
#
#
#
# Elastic Compliance Matrix: (Units=1/GPa)
#
#
# Indices 1 2 3 4 5 6 
#
# 1 0.015518 -0.004767 -0.003896 0.000000 0.000000 0.000000
# 2 -0.004767 0.015518 -0.003896 0.000000 0.000000 0.000000
# 3 -0.003896 -0.003896 0.020076 0.000000 0.000000 0.000000
# 4 0.000000 0.000000 0.000000 0.074584 0.000000 0.000000
# 5 0.000000 0.000000 0.000000 0.000000 0.074584 0.000000
# 6 0.000000 0.000000 0.000000 0.000000 0.000000 0.040571
#
#
# Mechanical properties :
#
#
# Convention : Reuss Voigt Hill
#
# Bulk Modulus (GPa) = 38.46885 39.82752 39.14818
# Shear Modulus (GPa) = 18.20606 19.89396 19.05001
#
# Velocity S-wave (km/s) = 3.50551 3.66441 3.58584
# Velocity P-wave (km/s) = 6.50770 6.69226 6.60062
#
# Compressibility (1/GPa) = 0.02599506
#
# Stress axis : x y z
#
# Youngs Moduli (GPa) = 64.44063 64.44063 49.81024
#
# Poissons Ratio (x) = 0.30720 0.19405
# Poissons Ratio (y) = 0.30720 0.19405
# Poissons Ratio (z) = 0.25104 0.25104
#
# Static dielectric constant tensor:
#      x y z
#    x 1.484360 0.000000 0.000000 
#    y 0.000000 1.484360 0.000000 
#    z 0.000000 0.000000 1.493930 
# 
# From -- ./inp_files/4208.got.cif
#   From: 2010.05.17/outbox.cif.g08.bks.cpg/sg163_3_cif.got.tgz:4208.got - 2010.05.20 10:56:03.
