data_PCOD9577253
_publ_section_title
;
Structure prediction by ZEFSAII (Michael W. Deem and Ramdas Pophale) SiO2 
 PCOD9577253
Probable space group: P 3 1 M
;
_chemical_formula_sum "Si O2"
_cell_formula_units_Z 42
_cell_length_a 14.722677
_cell_length_b 14.722677
_cell_length_c 11.686680
_cell_angle_alpha 90.000000
_cell_angle_beta 90.000000
_cell_angle_gamma 120.000000
_cell_volume 2193.791516
_symmetry_space_group_name_H-M "P 3 1 M"
_symmetry_group_IT_number 157
_symmetry_cell_setting 'hexagonal'
loop_
_space_group_symop_operation_xyz
x,y,z
-y,x-y,z
-x+y,-x,z
y,x,z
x-y,-y,z
-x,-x+y,z
loop_
_atom_site_type_symbol
_atom_site_label
_atom_site_fract_x
_atom_site_fract_y
_atom_site_fract_z
Si Si1 0.121572 0.876609 0.612030
Si Si2 0.273107 0.744663 0.225443
Si Si3 0.878634 0.311352 0.002234
Si Si4 0.568269 0.361697 0.566715
Si Si5 0.325381 0.207249 0.861651
Si Si6 0.882801 0.612513 0.410494
Si Si7 0.415342 0.535802 0.819192
O O1 0.138176 0.828609 0.729307
O O2 0.133288 0.817486 0.502938
O O3 0.000000 0.846611 0.614455
O O4 0.197911 0.000000 0.608766
O O5 0.221408 0.617696 0.236641
O O6 0.271340 0.796679 0.105883
O O7 0.209324 0.770753 0.317699
O O8 0.000000 0.392080 0.035846
O O9 0.873481 0.211359 0.940467
O O10 0.844423 0.370382 0.908716
O O11 0.559099 0.248893 0.540881
O O12 0.481672 0.360777 0.486658
O O13 0.558111 0.376914 0.700225
O O14 0.235317 0.235317 0.890182
O O15 0.436015 0.315050 0.872694
O O16 0.000000 0.680530 0.360027
O O17 0.498742 0.498742 0.789304
#
# Coordination Sequence:
#
# PCOD9577253 Si02
#       7
#     6   6   6   6   6   6   6
#     4  10  21  38  61  89 121 156 194 241 299 360
#     4  10  24  44  61  81 118 158 202 244 298 359
#     4  11  23  38  61  92 118 153 208 256 295 352
#     4  10  20  32  54  83 122 157 192 233 298 355
#     4  10  20  37  58  86 127 163 194 239 300 361
#     4  11  22  40  62  85 114 153 203 252 298 357
#     4  10  19  33  55  86 123 160 197 239 292 356
#
# _framework density 19.144936000000001
#
# number of rings (size 3 to 8) (size 9 to 14) (size 15 to 20)
#    0.571    1.143    1.429    3.571    0.000    1.714 
#    0.857    2.143    0.000    0.286    0.000    1.000 
#    0.000    0.000    0.000    0.000    0.000    0.000 
#
# Total GULP energy -234044.854774 kJ/mol
# GULP energy per Si atom -5572.496542 kJ/mol
# Density = 1.910136 g / cm^3
# Si number density = 19.144936 Si / 1000 Ang^3
#
#
#
# Elastic Constant Matrix: (Units=GPa)
#
#
# Indices 1 2 3 4 5 6 
#
# 1 79.6839 35.1677 43.6327 0.0000 -2.2521 0.0000
# 2 35.1677 79.6839 43.6327 0.0000 2.2521 0.0000
# 3 43.6327 43.6327 89.3601 0.0000 0.0000 0.0000
# 4 0.0000 0.0000 0.0000 22.3447 0.0000 2.2521
# 5 -2.2521 2.2521 0.0000 0.0000 22.3447 0.0000
# 6 0.0000 0.0000 0.0000 2.2521 0.0000 22.2581
#
#
#
# Elastic Compliance Matrix: (Units=1/GPa)
#
#
# Indices 1 2 3 4 5 6 
#
# 1 0.018269 -0.004426 -0.006759 0.000000 0.002287 0.000000
# 2 -0.004426 0.018269 -0.006759 0.000000 -0.002287 0.000000
# 3 -0.006759 -0.006759 0.017791 0.000000 0.000000 0.000000
# 4 0.000000 0.000000 0.000000 0.045215 0.000000 -0.004575
# 5 0.002287 -0.002287 0.000000 0.000000 0.045215 0.000000
# 6 0.000000 0.000000 0.000000 -0.004575 0.000000 0.045390
#
#
# Mechanical properties :
#
#
# Convention : Reuss Voigt Hill
#
# Bulk Modulus (GPa) = 54.22943 54.84379 54.53661
# Shear Modulus (GPa) = 21.53470 21.80914 21.67192
#
# Velocity S-wave (km/s) = 3.35748 3.37881 3.36816
# Velocity P-wave (km/s) = 6.58919 6.62802 6.60863
#
# Compressibility (1/GPa) = 0.01844017
#
# Stress axis : x y z
#
# Youngs Moduli (GPa) = 54.73817 54.73817 56.20760
#
# Poissons Ratio (x) = 0.24229 0.37990
# Poissons Ratio (y) = 0.24229 0.37990
# Poissons Ratio (z) = 0.36997 0.36997
#
# Static dielectric constant tensor:
#      x y z
#    x 1.683880 0.000000 0.000000 
#    y 0.000000 1.683880 0.000000 
#    z 0.000000 0.000000 1.660420 
# 
# From -- ./inp_files/594.got.cif
#   From: 2010.05.17/outbox.cif.g08.bks.cpg/sg157_cif.got.tgz:594.got - 2010.05.20 10:49:36.
