data_PCOD9577447
_publ_section_title
;
Structure prediction by ZEFSAII (Michael W. Deem and Ramdas Pophale) SiO2 
 PCOD9577447
Probable space group: P 3 1 C
;
_chemical_formula_sum "Si O2"
_cell_formula_units_Z 28
_cell_length_a 10.989007
_cell_length_b 10.989007
_cell_length_c 13.758474
_cell_angle_alpha 90.000000
_cell_angle_beta 90.000000
_cell_angle_gamma 120.000000
_cell_volume 1438.857548
_symmetry_space_group_name_H-M "P 3 1 C"
_symmetry_group_IT_number 159
_symmetry_cell_setting 'hexagonal'
loop_
_space_group_symop_operation_xyz
x,y,z
-y,x-y,z
-x+y,-x,z
y,x,1/2+z
x-y,-y,1/2+z
-x,-x+y,1/2+z
loop_
_atom_site_type_symbol
_atom_site_label
_atom_site_fract_x
_atom_site_fract_y
_atom_site_fract_z
Si Si1 0.288029 0.997279 0.035530
Si Si2 0.333335 0.666668 0.731555
Si Si3 0.964858 0.482429 0.901279
Si Si4 0.333334 0.666668 0.500069
Si Si5 0.002720 0.711971 0.035530
Si Si6 0.489614 0.510386 0.695845
O O1 0.291116 0.145558 0.025485
O O2 0.385340 0.006730 0.127538
O O3 0.131007 0.868992 0.048566
O O4 0.359106 0.966189 0.942098
O O5 0.333334 0.666667 0.614728
O O6 0.415173 0.584830 0.754095
O O7 0.822255 0.411128 0.962767
O O8 0.921360 0.460681 0.789015
O O9 0.033810 0.640894 0.942098
O O10 0.993268 0.614659 0.127538
#
# Coordination Sequence:
#
# PCOD9577447 Si02
#       6
#     6   2   6   2   6   6
#     4  11  23  42  62  90 123 161 206 254 306 365
#     4  12  18  45  69  82 116 175 210 237 306 385
#     4  11  23  40  65  91 122 160 206 252 306 373
#     4  12  18  45  69  82 116 175 210 237 306 385
#     4  11  23  42  62  90 123 161 206 254 306 365
#     4  11  23  40  65  91 122 160 206 252 306 373
#
# _framework density 19.459883999999999
#
# number of rings (size 3 to 8) (size 9 to 14) (size 15 to 20)
#    0.000    0.857    8.571    0.429    6.000    0.000 
#   10.286    0.000    0.000    5.143    0.000    0.000 
#    0.000    0.000    0.000    0.000    0.000    0.000 
#
# Total GULP energy -156135.210952 kJ/mol
# GULP energy per Si atom -5576.257534 kJ/mol
# Density = 1.941559 g / cm^3
# Si number density = 19.459884 Si / 1000 Ang^3
#
#
#
# Elastic Constant Matrix: (Units=GPa)
#
#
# Indices 1 2 3 4 5 6 
#
# 1 105.2872 39.7794 22.3493 -0.0009 0.0000 0.0000
# 2 39.7794 105.2871 22.3493 0.0006 -0.0002 0.0000
# 3 22.3493 22.3493 103.7979 0.0006 0.0004 0.0000
# 4 -0.0009 0.0006 0.0006 -4.9346 0.0001 0.0008
# 5 0.0000 -0.0002 0.0004 0.0001 -4.9347 0.0007
# 6 0.0000 0.0000 0.0000 0.0008 0.0007 32.7538
#
#
#
# Elastic Compliance Matrix: (Units=1/GPa)
#
#
# Indices 1 2 3 4 5 6 
#
# 1 0.011324 -0.003941 -0.001590 -0.000003 0.000000 0.000000
# 2 -0.003941 0.011324 -0.001590 0.000002 -0.000001 0.000000
# 3 -0.001590 -0.001590 0.010319 0.000001 0.000001 0.000000
# 4 -0.000003 0.000002 0.000001 -0.202651 -0.000005 0.000005
# 5 0.000000 -0.000001 0.000001 -0.000005 -0.202645 0.000005
# 6 0.000000 0.000000 0.000000 0.000005 0.000005 0.030531
#
#
# Mechanical properties :
#
#
# Convention : Reuss Voigt Hill
#
# Bulk Modulus (GPa) = 53.40100 53.70313 53.55207
# Shear Modulus (GPa) = -15.56106 19.90318 2.17106
#
# Velocity S-wave (km/s) = -2.83087 3.20156 1.05739
# Velocity P-wave (km/s) = 4.10074 6.42833 5.39164
#
# Compressibility (1/GPa) = 0.01872624
#
# Stress axis : x y z
#
# Youngs Moduli (GPa) = 88.30574 88.30571 96.91154
#
# Poissons Ratio (x) = 0.34802 0.15406
# Poissons Ratio (y) = 0.34802 0.15406
# Poissons Ratio (z) = 0.14038 0.14038
#
# Static dielectric constant tensor:
#      x y z
#    x 1.720930 0.000000 0.000000 
#    y 0.000000 1.720930 0.000000 
#    z 0.000000 0.000000 1.667110 
# 
# From -- ./inp_files/784.got.cif
#   From: 2010.05.17/outbox.cif.g08.bks.cpg/sg159_cif.got.tgz:784.got - 2010.05.20 10:50:30.
