data_PCOD9577140
_publ_section_title
;
Structure prediction by ZEFSAII (Michael W. Deem and Ramdas Pophale) SiO2 
 PCOD9577140
Probable space group: R 3 2
;
_chemical_formula_sum "Si O2"
_cell_formula_units_Z 63
_cell_length_a 14.230466
_cell_length_b 14.230466
_cell_length_c 16.815835
_cell_angle_alpha 90.000000
_cell_angle_beta 90.000000
_cell_angle_gamma 120.000000
_cell_volume 2949.085155
_symmetry_space_group_name_H-M "R 3 2"
_symmetry_group_IT_number 155
_symmetry_cell_setting 'hexagonal'
loop_
_space_group_symop_operation_xyz
x,y,z
-y,x-y,z
-x+y,-x,z
x-y,-y,-z
-x,-x+y,-z
y,x,-z
2/3+x,1/3+y,1/3+z
2/3-y,1/3+x-y,1/3+z
2/3-x+y,1/3-x,1/3+z
2/3+x-y,1/3-y,1/3-z
2/3-x,1/3-x+y,1/3-z
2/3+y,1/3+x,1/3-z
1/3+x,2/3+y,2/3+z
1/3-y,2/3+x-y,2/3+z
1/3-x+y,2/3-x,2/3+z
1/3+x-y,2/3-y,2/3-z
1/3-x,2/3-x+y,2/3-z
1/3+y,2/3+x,2/3-z
loop_
_atom_site_type_symbol
_atom_site_label
_atom_site_fract_x
_atom_site_fract_y
_atom_site_fract_z
Si Si1 0.939837 0.209235 0.304224
Si Si2 0.113908 0.229608 0.528220
Si Si3 0.175348 0.771094 0.413329
Si Si4 0.117655 0.784322 0.833334
O O1 0.881698 0.134313 0.379845
O O2 0.849575 0.194404 0.240801
O O3 0.004751 0.333334 0.333334
O O4 0.033489 0.180380 0.278761
O O5 0.205699 0.205699 0.500000
O O6 0.132876 0.329790 0.474701
O O7 0.000000 0.132050 0.500000
O O8 0.114946 0.781613 0.333334
O O9 0.101127 0.661474 0.464335
#
# Coordination Sequence:
#
# PCOD9577140 Si02
#       4
#    18  18  18   9
#     4  11  24  44  72  99 139 182 229 282 348 413
#     4  12  22  40  69  99 133 169 224 286 338 396
#     4  11  23  45  70 100 134 182 234 279 349 422
#     4  12  26  44  74 102 142 188 234 292 350 418
#
# _framework density 21.362556000000001
#
# number of rings (size 3 to 8) (size 9 to 14) (size 15 to 20)
#    0.000    0.571    7.143    3.714    0.000    0.000 
#    1.714    0.000    0.000    1.714    0.000    0.000 
#    0.000    0.000    0.000    0.000    0.000    0.000 
#
# Total GULP energy -116950.051541 kJ/mol
# GULP energy per Si atom -5569.050073 kJ/mol
# Density = 2.131393 g / cm^3
# Si number density = 21.362556 Si / 1000 Ang^3
#
#
#
# Elastic Constant Matrix: (Units=GPa)
#
#
# Indices 1 2 3 4 5 6 
#
# 1 66.3870 32.7201 47.1816 12.2185 0.0001 0.0000
# 2 32.7201 66.3870 47.1816 -12.2185 -0.0001 0.0000
# 3 47.1816 47.1816 191.2085 0.0000 0.0000 0.0000
# 4 12.2185 -12.2185 0.0000 42.7691 0.0000 -0.0001
# 5 0.0001 -0.0001 0.0000 0.0000 42.7691 12.2185
# 6 0.0000 0.0000 0.0000 -0.0001 12.2185 16.8335
#
#
#
# Elastic Compliance Matrix: (Units=1/GPa)
#
#
# Indices 1 2 3 4 5 6 
#
# 1 0.025331 -0.012142 -0.003254 -0.010706 0.000000 0.000000
# 2 -0.012142 0.025331 -0.003254 0.010706 0.000000 0.000000
# 3 -0.003254 -0.003254 0.006836 0.000000 0.000000 0.000000
# 4 -0.010706 0.010706 0.000000 0.029498 0.000000 0.000000
# 5 0.000000 0.000000 0.000000 0.000000 0.029498 -0.021411
# 6 0.000000 0.000000 0.000000 0.000000 -0.021411 0.074947
#
#
# Mechanical properties :
#
#
# Convention : Reuss Voigt Hill
#
# Bulk Modulus (GPa) = 49.51514 64.23880 56.87697
# Shear Modulus (GPa) = 21.23366 33.60094 27.41730
#
# Velocity S-wave (km/s) = 3.15614 3.97027 3.58638
# Velocity P-wave (km/s) = 6.04239 7.15216 6.62057
#
# Compressibility (1/GPa) = 0.02019584
#
# Stress axis : x y z
#
# Youngs Moduli (GPa) = 39.47732 39.47732 146.28535
#
# Poissons Ratio (x) = 0.47935 0.47607
# Poissons Ratio (y) = 0.47935 0.47607
# Poissons Ratio (z) = 0.12847 0.12847
#
# Static dielectric constant tensor:
#      x y z
#    x 2.061720 0.000000 0.000000 
#    y 0.000000 2.061720 0.000000 
#    z 0.000000 0.000000 1.741190 
# 
# From -- ./inp_files/5786.got.cif
#   From: 2010.05.17/outbox.cif.g08.bks.cpg/sg155_3_cif.got.tgz:5786.got - 2010.05.20 10:44:35.
