data_PCOD9577499
_publ_section_title
;
Structure prediction by ZEFSAII (Michael W. Deem and Ramdas Pophale) SiO2 
 PCOD9577499
Probable space group: R 3 M
;
_chemical_formula_sum "Si O2"
_cell_formula_units_Z 126
_cell_length_a 21.401420
_cell_length_b 21.401420
_cell_length_c 16.300005
_cell_angle_alpha 90.000000
_cell_angle_beta 90.000000
_cell_angle_gamma 120.000000
_cell_volume 6465.521340
_symmetry_space_group_name_H-M "R 3 M"
_symmetry_group_IT_number 160
_symmetry_cell_setting 'hexagonal'
loop_
_space_group_symop_operation_xyz
x,y,z
-y,x-y,z
-x+y,-x,z
-x+y,y,z
x,x-y,z
-y,-x,z
2/3+x,1/3+y,1/3+z
2/3-y,1/3+x-y,1/3+z
2/3-x+y,1/3-x,1/3+z
2/3-x+y,1/3+y,1/3+z
2/3+x,1/3+x-y,1/3+z
2/3-y,1/3-x,1/3+z
1/3+x,2/3+y,2/3+z
1/3-y,2/3+x-y,2/3+z
1/3-x+y,2/3-x,2/3+z
1/3-x+y,2/3+y,2/3+z
1/3+x,2/3+x-y,2/3+z
1/3-y,2/3-x,2/3+z
loop_
_atom_site_type_symbol
_atom_site_label
_atom_site_fract_x
_atom_site_fract_y
_atom_site_fract_z
Si Si1 0.894155 0.643279 0.079325
Si Si2 0.190728 0.666817 0.668277
Si Si3 0.280572 0.858591 0.128213
Si Si4 0.000490 0.150339 0.296956
Si Si5 0.365698 0.110897 0.898507
Si Si6 0.877156 0.508273 0.155015
Si Si7 0.893414 0.305375 0.475985
O O1 0.831894 0.663788 0.083625
O O2 0.861192 0.559320 0.099049
O O3 0.956767 0.694163 0.141406
O O4 0.925846 0.655934 0.987568
O O5 0.215063 0.607532 0.670377
O O6 0.255553 0.744448 0.693891
O O7 0.169791 0.674749 0.575874
O O8 0.125705 0.643466 0.730622
O O9 0.221966 0.778035 0.153607
O O10 0.344556 0.901099 0.191566
O O11 0.239871 0.905197 0.129531
O O12 0.313241 0.850818 0.041497
O O13 0.069956 0.139911 0.313285
O O14 0.023548 0.207652 0.221978
O O15 0.927492 0.072509 0.278912
O O16 0.384825 0.192413 0.913370
O O17 0.296076 0.075522 0.840280
O O18 0.859925 0.429963 0.123650
#
# Coordination Sequence:
#
# PCOD9577499 Si02
#       7
#    18  18  18  18  18  18  18
#     4  11  22  38  62  89 120 159 199 246 305 367
#     4  11  22  38  58  84 118 158 201 246 296 359
#     4  11  25  41  62  94 127 163 205 258 313 366
#     4  11  25  45  68  94 128 171 217 264 319 382
#     4  10  21  40  62  86 118 157 203 249 300 366
#     4  10  21  37  58  86 117 154 200 246 299 360
#     4  12  24  39  58  93 126 162 205 255 308 370
#
# _framework density 19.487987
#
# number of rings (size 3 to 8) (size 9 to 14) (size 15 to 20)
#    0.000    1.143    2.857    3.714    4.000    0.571 
#    0.000    1.429    0.000    0.571    0.000    0.000 
#    0.000    0.000    0.000    0.000    0.000    0.000 
#
# Total GULP energy -234458.784695 kJ/mol
# GULP energy per Si atom -5582.352017 kJ/mol
# Density = 1.944363 g / cm^3
# Si number density = 19.487987 Si / 1000 Ang^3
#
#
#
# Elastic Constant Matrix: (Units=GPa)
#
#
# Indices 1 2 3 4 5 6 
#
# 1 85.2034 25.3163 25.4676 -7.0051 0.0017 0.0000
# 2 25.3163 85.2034 25.4676 7.0051 -0.0017 0.0000
# 3 25.4676 25.4676 32.7600 0.0000 0.0000 0.0000
# 4 -7.0051 7.0051 0.0000 119.4332 0.0000 -0.0017
# 5 0.0017 -0.0017 0.0000 0.0000 119.4332 -7.0051
# 6 0.0000 0.0000 0.0000 -0.0017 -7.0051 29.9435
#
#
#
# Elastic Compliance Matrix: (Units=1/GPa)
#
#
# Indices 1 2 3 4 5 6 
#
# 1 0.015515 -0.001415 -0.010961 0.000993 0.000000 0.000000
# 2 -0.001415 0.015515 -0.010961 -0.000993 0.000000 0.000000
# 3 -0.010961 -0.010961 0.047567 0.000000 0.000000 0.000000
# 4 0.000993 -0.000993 0.000000 0.008489 0.000000 0.000000
# 5 0.000000 0.000000 0.000000 0.000000 0.008489 0.001986
# 6 0.000000 0.000000 0.000000 0.000000 0.001986 0.033861
#
#
# Mechanical properties :
#
#
# Convention : Reuss Voigt Hill
#
# Bulk Modulus (GPa) = 31.32600 39.51886 35.42243
# Shear Modulus (GPa) = 26.77328 62.22301 44.49815
#
# Velocity S-wave (km/s) = 3.71055 5.65670 4.78364
# Velocity P-wave (km/s) = 5.87086 7.93643 6.98047
#
# Compressibility (1/GPa) = 0.03192237
#
# Stress axis : x y z
#
# Youngs Moduli (GPa) = 64.45327 64.45327 21.02278
#
# Poissons Ratio (x) = 0.09122 0.23043
# Poissons Ratio (y) = 0.09122 0.23043
# Poissons Ratio (z) = 0.70648 0.70648
#
# Static dielectric constant tensor:
#      x y z
#    x 1.695410 0.000000 0.000000 
#    y 0.000000 1.695410 0.000000 
#    z 0.000000 0.000000 1.670390 
# 
# From -- ./inp_files/2919.got.cif
#   From: 2010.05.17/outbox.cif.g08.bks.cpg/sg160_2_cif.got.tgz:2919.got - 2010.05.20 10:51:19.
