data_PCOD9577240
_publ_section_title
;
Structure prediction by ZEFSAII (Michael W. Deem and Ramdas Pophale) SiO2 
 PCOD9577240
Probable space group: P 3 M 1
;
_chemical_formula_sum "Si O2"
_cell_formula_units_Z 48
_cell_length_a 12.645320
_cell_length_b 12.645320
_cell_length_c 20.927669
_cell_angle_alpha 90.000000
_cell_angle_beta 90.000000
_cell_angle_gamma 120.000000
_cell_volume 2898.085122
_symmetry_space_group_name_H-M "P 3 M 1"
_symmetry_group_IT_number 156
_symmetry_cell_setting 'hexagonal'
loop_
_space_group_symop_operation_xyz
x,y,z
-y,x-y,z
-x+y,-x,z
-x+y,y,z
x,x-y,z
-y,-x,z
loop_
_atom_site_type_symbol
_atom_site_label
_atom_site_fract_x
_atom_site_fract_y
_atom_site_fract_z
Si Si1 0.332880 0.917607 0.632870
Si Si2 0.584727 0.917606 0.881998
Si Si3 0.414880 0.333063 0.132638
Si Si4 0.082083 0.415850 0.257434
Si Si5 0.251662 0.000154 0.507817
Si Si6 0.918183 0.585121 0.382229
Si Si7 0.748493 0.748339 0.007051
Si Si8 0.251445 0.999746 0.757434
O O1 0.462220 0.924440 0.633683
O O2 0.222867 0.777134 0.634416
O O3 0.313939 0.976959 0.569075
O O4 0.313879 0.981804 0.694635
O O5 0.462222 0.924443 0.881185
O O6 0.554261 0.777131 0.880453
O O7 0.667926 0.981800 0.820234
O O8 0.663021 0.976956 0.945793
O O9 0.428574 0.214287 0.141599
O O10 0.546605 0.453396 0.124719
O O11 0.352566 0.354061 0.194565
O O12 0.332625 0.310543 0.070074
O O13 0.204295 0.408589 0.257433
O O14 0.112470 0.556235 0.257434
O O15 0.001497 0.354060 0.320303
O O16 0.118886 0.881115 0.500089
O O17 0.240177 0.120089 0.517657
O O18 0.332625 0.022084 0.444794
O O19 0.785713 0.571425 0.373267
O O20 0.906793 0.453397 0.390148
O O21 0.762233 0.881117 0.014781
O O22 0.879911 0.759821 0.997211
O O23 0.111332 0.888668 0.757432
O O24 0.256319 0.128160 0.757435
#
# Coordination Sequence:
#
# PCOD9577240 Si02
#       8
#     6   6   6   6   6   6   6   6
#     4  10  20  34  53  76 102 132 167 208 253 300
#     4  10  20  34  53  76 102 132 167 208 253 300
#     4  10  20  34  53  76 103 135 170 208 250 299
#     4  10  20  34  52  74 100 130 166 208 254 300
#     4  10  20  34  53  76 103 135 170 210 254 301
#     4  10  20  34  53  76 103 135 170 208 250 299
#     4  10  20  34  53  76 103 135 170 210 254 301
#     4  10  20  34  54  78 104 134 168 208 252 300
#
# _framework density 16.562660000000001
#
# number of rings (size 3 to 8) (size 9 to 14) (size 15 to 20)
#    0.000    2.000    0.000    4.000    0.000    0.000 
#    0.000    5.000    0.000   20.000    0.000    0.000 
#    0.000    0.000    0.000    0.000    0.000    0.000 
#
# Total GULP energy -268023.372727 kJ/mol
# GULP energy per Si atom -5583.820265 kJ/mol
# Density = 1.652496 g / cm^3
# Si number density = 16.562660 Si / 1000 Ang^3
#
#
#
# Elastic Constant Matrix: (Units=GPa)
#
#
# Indices 1 2 3 4 5 6 
#
# 1 149.3372 111.1098 106.3470 -0.0006 0.0003 0.0000
# 2 111.1098 149.3372 106.3470 0.0006 -0.0003 0.0000
# 3 106.3470 106.3470 167.2007 0.0000 0.0000 0.0000
# 4 -0.0006 0.0006 0.0000 23.0086 0.0000 -0.0003
# 5 0.0003 -0.0003 0.0000 0.0000 23.0086 -0.0006
# 6 0.0000 0.0000 0.0000 -0.0003 -0.0006 19.1137
#
#
#
# Elastic Compliance Matrix: (Units=1/GPa)
#
#
# Indices 1 2 3 4 5 6 
#
# 1 0.017074 -0.009085 -0.005082 0.000001 0.000000 0.000000
# 2 -0.009085 0.017074 -0.005082 -0.000001 0.000000 0.000000
# 3 -0.005082 -0.005082 0.012445 0.000000 0.000000 0.000000
# 4 0.000001 -0.000001 0.000000 0.043462 0.000000 0.000001
# 5 0.000000 0.000000 0.000000 0.000000 0.043462 0.000001
# 6 0.000000 0.000000 0.000000 0.000001 0.000001 0.052319
#
#
# Mechanical properties :
#
#
# Convention : Reuss Voigt Hill
#
# Bulk Modulus (GPa) = 123.49521 123.72027 123.60774
# Shear Modulus (GPa) = 22.02334 22.49762 22.26048
#
# Velocity S-wave (km/s) = 3.65046 3.68956 3.67006
# Velocity P-wave (km/s) = 9.61728 9.64422 9.63076
#
# Compressibility (1/GPa) = 0.00809748
#
# Stress axis : x y z
#
# Youngs Moduli (GPa) = 58.56729 58.56729 80.35247
#
# Poissons Ratio (x) = 0.53208 0.40832
# Poissons Ratio (y) = 0.53208 0.40832
# Poissons Ratio (z) = 0.29762 0.29762
#
# Static dielectric constant tensor:
#      x y z
#    x 1.523390 0.000000 0.000000 
#    y 0.000000 1.523390 0.000000 
#    z 0.000000 0.000000 1.539430 
# 
# From -- ./inp_files/1088.got.cif
#   From: 2010.05.17/outbox.cif.g08.bks.cpg/sg156_cif.got.tgz:1088.got - 2010.05.20 10:49:08.
