data_PCOD9577267
_publ_section_title
;
Structure prediction by ZEFSAII (Michael W. Deem and Ramdas Pophale) SiO2 
 PCOD9577267
Probable space group: P 3 1 M
;
_chemical_formula_sum "Si O2"
_cell_formula_units_Z 30
_cell_length_a 17.157261
_cell_length_b 17.157261
_cell_length_c 5.684492
_cell_angle_alpha 90.000000
_cell_angle_beta 90.000000
_cell_angle_gamma 120.000000
_cell_volume 1449.166237
_symmetry_space_group_name_H-M "P 3 1 M"
_symmetry_group_IT_number 157
_symmetry_cell_setting 'hexagonal'
loop_
_space_group_symop_operation_xyz
x,y,z
-y,x-y,z
-x+y,-x,z
y,x,z
x-y,-y,z
-x,-x+y,z
loop_
_atom_site_type_symbol
_atom_site_label
_atom_site_fract_x
_atom_site_fract_y
_atom_site_fract_z
Si Si1 0.104632 0.580628 0.971170
Si Si2 0.245944 0.902737 0.365948
Si Si3 0.902739 0.656801 0.084727
Si Si4 0.895369 0.419405 0.479180
Si Si5 0.898977 0.797952 0.725336
O O1 0.102382 0.672999 0.963398
O O2 0.146478 0.573272 0.725157
O O3 0.000000 0.499426 0.971906
O O4 0.142134 0.571068 0.225160
O O5 0.327038 0.897623 0.487111
O O6 0.171966 0.903976 0.535073
O O7 0.294246 0.000000 0.233860
O O8 0.188260 0.811730 0.225352
O O9 0.903983 0.732043 0.915692
O O10 0.000000 0.705731 0.216816
O O11 0.000000 0.500609 0.478393
O O12 0.860614 0.860614 0.820575
O O13 0.000000 0.860581 0.630022
#
# Coordination Sequence:
#
# PCOD9577267 Si02
#       5
#     6   6   6   6   6
#     4   9  19  35  57  85 114 145 191 254 317 375
#     4  10  21  35  57  87 122 163 214 267 318 380
#     4  10  21  35  57  87 122 163 214 267 318 380
#     4   9  19  35  57  85 114 145 191 254 317 375
#     4  10  21  36  56  86 128 176 226 276 327 376
#
# _framework density 20.701559
#
# number of rings (size 3 to 8) (size 9 to 14) (size 15 to 20)
#    0.000    2.400    0.000    1.400    5.600    0.000 
#    0.000    0.000    0.000    7.200    5.200    0.000 
#    0.000    0.000    0.000    0.000    0.000    0.000 
#
# Total GULP energy -167019.427679 kJ/mol
# GULP energy per Si atom -5567.314256 kJ/mol
# Density = 2.065444 g / cm^3
# Si number density = 20.701559 Si / 1000 Ang^3
#
#
#
# Elastic Constant Matrix: (Units=GPa)
#
#
# Indices 1 2 3 4 5 6 
#
# 1 45.0143 82.0135 32.6590 0.0000 12.8186 0.0000
# 2 82.0135 45.0143 32.6590 0.0000 -12.8186 0.0000
# 3 32.6590 32.6590 108.3451 0.0000 0.0000 0.0000
# 4 0.0000 0.0000 0.0000 17.1112 0.0000 -12.8186
# 5 12.8186 -12.8186 0.0000 0.0000 17.1112 0.0000
# 6 0.0000 0.0000 0.0000 -12.8186 0.0000 -18.4996
#
#
#
# Elastic Compliance Matrix: (Units=1/GPa)
#
#
# Indices 1 2 3 4 5 6 
#
# 1 -0.004238 0.013554 -0.002808 0.000000 0.013329 0.000000
# 2 0.013554 -0.004238 -0.002808 0.000000 -0.013329 0.000000
# 3 -0.002808 -0.002808 0.010923 0.000000 0.000000 0.000000
# 4 0.000000 0.000000 0.000000 0.038471 0.000000 -0.026657
# 5 0.013329 -0.013329 0.000000 0.000000 0.038471 0.000000
# 6 0.000000 0.000000 0.000000 -0.026657 0.000000 -0.035584
#
#
# Mechanical properties :
#
#
# Convention : Reuss Voigt Hill
#
# Bulk Modulus (GPa) = 54.57815 54.78186 54.68000
# Shear Modulus (GPa) = 146.89535 6.54738 76.72136
#
# Velocity S-wave (km/s) = 8.43283 1.78034 6.09435
# Velocity P-wave (km/s) = 11.01083 5.54493 8.71736
#
# Compressibility (1/GPa) = 0.01832235
#
# Stress axis : x y z
#
# Youngs Moduli (GPa) = -235.96894 -235.96894 91.55183
#
# Poissons Ratio (x) = 3.19836 0.25710
# Poissons Ratio (y) = 3.19836 0.25710
# Poissons Ratio (z) = -0.66266 -0.66266
#
# Static dielectric constant tensor:
#      x y z
#    x 1.742580 0.000000 0.000000 
#    y 0.000000 1.742580 0.000000 
#    z 0.000000 0.000000 1.811350 
# 
# From -- ./inp_files/121.got.cif
#   From: 2010.05.17/outbox.cif.g08.bks.cpg/sg157_cif.got.tgz:121.got - 2010.05.20 10:49:36.
