data_PCOD9577318
_publ_section_title
;
Structure prediction by ZEFSAII (Michael W. Deem and Ramdas Pophale) SiO2 
 PCOD9577318
Probable space group: P 3 C 1
;
_chemical_formula_sum "Si O2"
_cell_formula_units_Z 48
_cell_length_a 17.194516
_cell_length_b 17.194516
_cell_length_c 9.098031
_cell_angle_alpha 90.000000
_cell_angle_beta 90.000000
_cell_angle_gamma 120.000000
_cell_volume 2329.474470
_symmetry_space_group_name_H-M "P 3 C 1"
_symmetry_group_IT_number 158
_symmetry_cell_setting 'hexagonal'
loop_
_space_group_symop_operation_xyz
x,y,z
-y,x-y,z
-x+y,-x,z
-x+y,y,1/2+z
x,x-y,1/2+z
-y,-x,1/2+z
loop_
_atom_site_type_symbol
_atom_site_label
_atom_site_fract_x
_atom_site_fract_y
_atom_site_fract_z
Si Si1 0.919380 0.161679 0.846360
Si Si2 0.164249 0.534804 0.329809
Si Si3 0.069438 0.288208 0.057217
Si Si4 0.802026 0.992272 0.042492
Si Si5 0.302367 0.497876 0.498257
Si Si6 0.737486 0.289696 0.984021
Si Si7 0.004932 0.666981 0.850573
Si Si8 0.430586 0.242772 0.741128
O O1 0.844789 0.181656 0.777740
O O2 0.977163 0.164752 0.707156
O O3 0.980137 0.239838 0.960088
O O4 0.874340 0.066424 0.931167
O O5 0.237010 0.531911 0.438022
O O6 0.153837 0.617989 0.379359
O O7 0.073346 0.442364 0.355370
O O8 0.193040 0.534494 0.160909
O O9 0.115760 0.227752 0.034317
O O10 0.041469 0.296776 0.223588
O O11 0.139004 0.389766 0.006812
O O12 0.713052 0.997773 0.999908
O O13 0.762545 0.392175 0.010552
O O14 0.751977 0.268753 0.818975
O O15 0.794709 0.256286 0.074257
O O16 0.907650 0.588444 0.802183
#
# Coordination Sequence:
#
# PCOD9577318 Si02
#       8
#     6   6   6   6   6   6   6   6
#     4  11  24  39  71 100 129 183 223 282 351 405
#     4  11  23  43  63 100 131 182 234 284 348 418
#     4  11  23  44  69 100 137 182 229 286 363 421
#     4  11  22  42  68  98 138 172 228 280 345 425
#     4  11  24  41  69  94 141 182 232 293 350 419
#     4  10  22  39  62  90 126 170 216 254 333 384
#     4  10  22  40  66  95 132 178 225 283 345 411
#     4  11  20  42  62  91 130 167 217 274 319 409
#
# _framework density 20.605508
#
# number of rings (size 3 to 8) (size 9 to 14) (size 15 to 20)
#    0.250    1.000    1.250    6.250    1.750    1.000 
#    9.750    0.000    5.500    0.000    0.000    0.000 
#    0.000    0.000    0.000    0.000    0.000    0.000 
#
# Total GULP energy -268020.971367 kJ/mol
# GULP energy per Si atom -5583.770237 kJ/mol
# Density = 2.055861 g / cm^3
# Si number density = 20.605508 Si / 1000 Ang^3
#
#
#
# Elastic Constant Matrix: (Units=GPa)
#
#
# Indices 1 2 3 4 5 6 
#
# 1 57.4014 23.2493 18.6945 8.2174 0.0000 0.0000
# 2 23.2493 57.4014 18.6945 -8.2174 0.0000 0.0000
# 3 18.6945 18.6945 50.4587 0.0000 0.0000 0.0000
# 4 8.2174 -8.2174 0.0000 -10.7451 0.0000 0.0000
# 5 0.0000 0.0000 0.0000 0.0000 -10.7451 8.2174
# 6 0.0000 0.0000 0.0000 0.0000 8.2174 17.0761
#
#
#
# Elastic Compliance Matrix: (Units=1/GPa)
#
#
# Indices 1 2 3 4 5 6 
#
# 1 0.018187 -0.003217 -0.005546 0.016369 0.000000 0.000000
# 2 -0.003217 0.018187 -0.005546 -0.016369 0.000000 0.000000
# 3 -0.005546 -0.005546 0.023928 0.000000 0.000000 0.000000
# 4 0.016369 -0.016369 0.000000 -0.068030 0.000000 0.000000
# 5 0.000000 0.000000 0.000000 0.000000 -0.068030 0.032737
# 6 0.000000 0.000000 0.000000 0.000000 0.032737 0.042808
#
#
# Mechanical properties :
#
#
# Convention : Reuss Voigt Hill
#
# Bulk Modulus (GPa) = 31.56251 31.83759 31.70005
# Shear Modulus (GPa) = 802.48559 6.09205 404.28882
#
# Velocity S-wave (km/s) = 19.75595 1.72132 14.02249
# Velocity P-wave (km/s) = 23.14622 4.40853 16.66107
#
# Compressibility (1/GPa) = 0.03168316
#
# Stress axis : x y z
#
# Youngs Moduli (GPa) = 54.98399 54.98399 41.79209
#
# Poissons Ratio (x) = 0.17687 0.23180
# Poissons Ratio (y) = 0.17687 0.23180
# Poissons Ratio (z) = 0.30496 0.30496
#
# Static dielectric constant tensor:
#      x y z
#    x 1.723620 0.000000 0.000000 
#    y 0.000000 1.723620 0.000000 
#    z 0.000000 0.000000 1.754780 
# 
# From -- ./inp_files/234.got.cif
#   From: 2010.05.17/outbox.cif.g08.bks.cpg/sg158_cif.got.tgz:234.got - 2010.05.20 10:49:59.
