data_PCOD9577389
_publ_section_title
;
Structure prediction by ZEFSAII (Michael W. Deem and Ramdas Pophale) SiO2 
 PCOD9577389
Probable space group: P 3 1 C
;
_chemical_formula_sum "Si O2"
_cell_formula_units_Z 42
_cell_length_a 8.548508
_cell_length_b 8.548508
_cell_length_c 33.021665
_cell_angle_alpha 90.000000
_cell_angle_beta 90.000000
_cell_angle_gamma 120.000000
_cell_volume 2089.826557
_symmetry_space_group_name_H-M "P 3 1 C"
_symmetry_group_IT_number 159
_symmetry_cell_setting 'hexagonal'
loop_
_space_group_symop_operation_xyz
x,y,z
-y,x-y,z
-x+y,-x,z
y,x,1/2+z
x-y,-y,1/2+z
-x,-x+y,1/2+z
loop_
_atom_site_type_symbol
_atom_site_label
_atom_site_fract_x
_atom_site_fract_y
_atom_site_fract_z
Si Si1 0.670851 0.541879 0.608920
Si Si2 0.325309 0.333409 0.484162
Si Si3 0.997883 0.330515 0.273057
Si Si4 0.999041 0.206661 0.684539
Si Si5 0.659374 0.666207 0.018461
Si Si6 0.200394 0.213326 0.394501
Si Si7 0.336331 0.334133 0.807562
O O1 0.500432 0.337508 0.610884
O O2 0.694083 0.673767 0.645497
O O3 0.664903 0.625722 0.566139
O O4 0.472334 0.531119 0.498517
O O5 0.138403 0.276083 0.506928
O O6 0.286887 0.309081 0.436482
O O7 0.390995 0.196939 0.498509
O O8 0.996968 0.308961 0.224880
O O9 0.136161 0.271329 0.290022
O O10 0.058876 0.528614 0.289357
O O11 0.802858 0.196283 0.291538
O O12 0.167328 0.168960 0.684870
O O13 0.312132 0.324572 0.355838
O O14 0.989706 0.163069 0.392994
#
# Coordination Sequence:
#
# PCOD9577389 Si02
#       7
#     6   6   6   6   6   6   6
#     4  10  23  41  65 101 138 173 226 289 341 418
#     4  12  24  42  72  97 141 189 234 289 351 413
#     4  12  24  45  65 105 135 188 224 285 352 418
#     4  10  23  41  68  99 132 183 227 283 342 409
#     4  12  24  45  65 106 140 188 231 287 355 418
#     4  10  20  42  69 100 132 183 237 293 346 404
#     4  12  24  42  72  94 144 180 229 290 347 412
#
# _framework density 20.097359999999998
#
# number of rings (size 3 to 8) (size 9 to 14) (size 15 to 20)
#    0.857    0.000    5.714    1.714    4.000    2.286 
#    0.000    0.000    0.000    0.571    0.000    0.000 
#    0.000    0.000    0.000    0.000    0.000    0.000 
#
# Total GULP energy -234509.354885 kJ/mol
# GULP energy per Si atom -5583.556069 kJ/mol
# Density = 2.005162 g / cm^3
# Si number density = 20.097360 Si / 1000 Ang^3
#
#
#
# Elastic Constant Matrix: (Units=GPa)
#
#
# Indices 1 2 3 4 5 6 
#
# 1 65.3160 6.4305 41.7924 0.0000 3.9172 0.0000
# 2 6.4305 65.3160 41.7924 0.0000 -3.9172 0.0000
# 3 41.7924 41.7924 202.6353 0.0000 0.0000 0.0000
# 4 0.0000 0.0000 0.0000 -2.1474 0.0000 -3.9172
# 5 3.9172 -3.9172 0.0000 0.0000 -2.1474 0.0000
# 6 0.0000 0.0000 0.0000 -3.9172 0.0000 29.4428
#
#
#
# Elastic Compliance Matrix: (Units=1/GPa)
#
#
# Indices 1 2 3 4 5 6 
#
# 1 0.016006 0.002340 -0.003784 0.000000 0.024928 0.000000
# 2 0.002340 0.016006 -0.003784 0.000000 -0.024928 0.000000
# 3 -0.003784 -0.003784 0.006496 0.000000 0.000000 0.000000
# 4 0.000000 0.000000 0.000000 -0.374733 0.000000 -0.049856
# 5 0.024928 -0.024928 0.000000 0.000000 -0.374733 0.000000
# 6 0.000000 0.000000 0.000000 -0.049856 0.000000 0.027331
#
#
# Mechanical properties :
#
#
# Convention : Reuss Voigt Hill
#
# Bulk Modulus (GPa) = 35.64709 57.03311 46.34010
# Shear Modulus (GPa) = -7.53214 21.24638 6.85712
#
# Velocity S-wave (km/s) = -1.93803 3.25495 1.84915
# Velocity P-wave (km/s) = 3.57320 6.52428 5.25994
#
# Compressibility (1/GPa) = 0.02805278
#
# Stress axis : x y z
#
# Youngs Moduli (GPa) = 62.47712 62.47712 153.94699
#
# Poissons Ratio (x) = -0.14621 0.58250
# Poissons Ratio (y) = -0.14621 0.58250
# Poissons Ratio (z) = 0.23640 0.23640
#
# Static dielectric constant tensor:
#      x y z
#    x 1.413970 0.000000 0.000000 
#    y 0.000000 1.413970 0.000000 
#    z 0.000000 0.000000 1.672640 
# 
# From -- ./inp_files/1313.got.cif
#   From: 2010.05.17/outbox.cif.g08.bks.cpg/sg159_cif.got.tgz:1313.got - 2010.05.20 10:50:30.
