data_PCOD9577820
_publ_section_title
;
Structure prediction by ZEFSAII (Michael W. Deem and Ramdas Pophale) SiO2 
 PCOD9577820
Probable space group: P -3 1 M 
;
_chemical_formula_sum "Si O2"
_cell_formula_units_Z 84
_cell_length_a 18.925521
_cell_length_b 18.925521
_cell_length_c 14.306224
_cell_angle_alpha 90.000000
_cell_angle_beta 90.000000
_cell_angle_gamma 120.000000
_cell_volume 4437.632571
_symmetry_space_group_name_H-M "P -3 1 M "
_symmetry_group_IT_number 162
_symmetry_cell_setting 'hexagonal'
loop_
_space_group_symop_operation_xyz
x,y,z
-y,x-y,z
-x+y,-x,z
-y,-x,-z
-x+y,y,-z
x,x-y,-z
-x,-y,-z
y,-x+y,-z
x-y,x,-z
y,x,z
x-y,-y,z
-x,-x+y,z
loop_
_atom_site_type_symbol
_atom_site_label
_atom_site_fract_x
_atom_site_fract_y
_atom_site_fract_z
Si Si1 0.092263 0.427976 0.617631
Si Si2 0.212560 0.840607 0.895134
Si Si3 0.498053 0.903149 0.088640
Si Si4 0.674407 0.910216 0.547883
Si Si5 0.757105 0.180160 0.713027
Si Si6 0.905507 0.425900 0.289582
Si Si7 0.814590 0.908201 0.113549
O O1 0.098256 0.402708 0.511802
O O2 0.165993 0.429513 0.675275
O O3 0.098196 0.513904 0.634374
O O4 0.000000 0.361373 0.651200
O O5 0.309883 0.876264 0.899343
O O6 0.177174 0.765978 0.823178
O O7 0.167415 0.890578 0.862163
O O8 0.184129 0.815872 0.000000
O O9 0.451783 0.889088 0.187458
O O10 0.549998 0.000000 0.075164
O O11 0.435054 0.870107 0.000000
O O12 0.694071 0.847036 0.500000
O O13 0.652114 0.888825 0.654984
O O14 0.745976 0.000000 0.535134
O O15 0.666771 0.161497 0.691689
O O16 0.000000 0.445843 0.288842
O O17 0.843207 0.843207 0.143121
O O18 0.879099 0.000000 0.144967
O O19 0.816617 0.908309 0.000000
#
# Coordination Sequence:
#
# PCOD9577820 Si02
#       7
#    12  12  12  12  12  12  12
#     4   9  19  38  60  82 111 151 196 239 296 368
#     4  11  22  35  54  81 116 154 204 248 298 357
#     4  10  20  36  57  78 108 153 202 247 296 355
#     4   9  19  36  61  90 119 154 201 254 310 373
#     4  11  21  35  57  86 118 149 193 249 303 353
#     4  10  20  35  56  82 113 150 194 244 303 365
#     4   9  18  32  51  76 108 147 191 243 301 358
#
# _framework density 18.929013000000001
#
# number of rings (size 3 to 8) (size 9 to 14) (size 15 to 20)
#    0.000    2.143    1.429    1.857    0.000    3.429 
#    0.857    2.143    0.000    1.286    0.000    0.000 
#    0.000    0.000    0.000    0.000    0.000    0.000 
#
# Total GULP energy -467620.790219 kJ/mol
# GULP energy per Si atom -5566.914169 kJ/mol
# Density = 1.888593 g / cm^3
# Si number density = 18.929013 Si / 1000 Ang^3
#
#
#
# Elastic Constant Matrix: (Units=GPa)
#
#
# Indices 1 2 3 4 5 6 
#
# 1 96.1671 67.6477 21.7649 0.0005 -2.3521 0.0000
# 2 67.6477 96.1671 21.7649 -0.0005 2.3521 0.0000
# 3 21.7649 21.7649 60.4479 0.0000 0.0000 0.0000
# 4 0.0005 -0.0005 0.0000 -5.0761 0.0000 2.3521
# 5 -2.3521 2.3521 0.0000 0.0000 -5.0761 0.0005
# 6 0.0000 0.0000 0.0000 2.3521 0.0005 14.2597
#
#
#
# Elastic Compliance Matrix: (Units=1/GPa)
#
#
# Indices 1 2 3 4 5 6 
#
# 1 0.019662 -0.012912 -0.002431 0.000003 -0.015094 0.000000
# 2 -0.012912 0.019662 -0.002431 -0.000003 0.015094 0.000000
# 3 -0.002431 -0.002431 0.018293 0.000000 0.000000 0.000000
# 4 0.000003 -0.000003 0.000000 -0.183015 0.000000 0.030187
# 5 -0.015094 0.015094 0.000000 0.000000 -0.183015 0.000006
# 6 0.000000 0.000000 0.000000 0.030187 0.000006 0.065149
#
#
# Mechanical properties :
#
#
# Convention : Reuss Voigt Hill
#
# Bulk Modulus (GPa) = 45.30633 52.79302 49.04968
# Shear Modulus (GPa) = -24.95509 10.26182 -7.34664
#
# Velocity S-wave (km/s) = -3.63485 2.33088 -1.97220
# Velocity P-wave (km/s) = 2.52401 5.93250 4.55879
#
# Compressibility (1/GPa) = 0.02207197
#
# Stress axis : x y z
#
# Youngs Moduli (GPa) = 50.85880 50.85880 54.66446
#
# Poissons Ratio (x) = 0.65669 0.13286
# Poissons Ratio (y) = 0.65669 0.13286
# Poissons Ratio (z) = 0.12361 0.12361
#
# Static dielectric constant tensor:
#      x y z
#    x 1.672400 0.000000 0.000000 
#    y 0.000000 1.672400 0.000000 
#    z 0.000000 0.000000 1.678520 
# 
# From -- ./inp_files/3179.got.cif
#   From: 2010.05.17/outbox.cif.g08.bks.cpg/sg162_2_cif.got.tgz:3179.got - 2010.05.20 10:53:12.
