data_PCOD9577661
_publ_section_title
;
Structure prediction by ZEFSAII (Michael W. Deem and Ramdas Pophale) SiO2 
 PCOD9577661
Probable space group: P -3 1 M 
;
_chemical_formula_sum "Si O2"
_cell_formula_units_Z 72
_cell_length_a 23.494845
_cell_length_b 23.494845
_cell_length_c 7.248139
_cell_angle_alpha 90.000000
_cell_angle_beta 90.000000
_cell_angle_gamma 120.000000
_cell_volume 3464.992617
_symmetry_space_group_name_H-M "P -3 1 M "
_symmetry_group_IT_number 162
_symmetry_cell_setting 'hexagonal'
loop_
_space_group_symop_operation_xyz
x,y,z
-y,x-y,z
-x+y,-x,z
-y,-x,-z
-x+y,y,-z
x,x-y,-z
-x,-y,-z
y,-x+y,-z
x-y,x,-z
y,x,z
x-y,-y,z
-x,-x+y,z
loop_
_atom_site_type_symbol
_atom_site_label
_atom_site_fract_x
_atom_site_fract_y
_atom_site_fract_z
Si Si1 0.821028 0.071601 0.239140
Si Si2 0.323006 0.531178 0.214168
Si Si3 0.203452 0.275617 0.670095
Si Si4 0.604997 0.738793 0.903779
Si Si5 0.197922 0.655663 0.764219
Si Si6 0.672408 0.077425 0.727195
O O1 0.888872 0.138787 0.207812
O O2 0.816093 0.067826 0.461823
O O3 0.767511 0.090321 0.175084
O O4 0.804347 0.000000 0.172493
O O5 0.295079 0.453789 0.243088
O O6 0.392474 0.588265 0.283769
O O7 0.266196 0.545281 0.282806
O O8 0.334303 0.536004 0.989381
O O9 0.246973 0.246973 0.749642
O O10 0.253609 0.353340 0.658508
O O11 0.599488 0.799744 0.000000
O O12 0.597231 0.685132 0.053366
O O13 0.133309 0.654051 0.682983
O O14 0.623162 0.000000 0.681008
#
# Coordination Sequence:
#
# PCOD9577661 Si02
#       6
#    12  12  12  12  12  12
#     4  10  19  31  49  72  95 121 155 188 225 275
#     4   9  15  25  41  61  92 119 151 194 236 276
#     4   9  18  32  50  70  94 123 153 189 227 270
#     4  11  17  30  44  69  96 119 148 191 234 273
#     4   9  15  25  40  64  87 119 155 191 235 279
#     4  10  18  30  47  67  94 122 152 191 234 278
#
# _framework density 20.779264999999999
#
# number of rings (size 3 to 8) (size 9 to 14) (size 15 to 20)
#    0.000    2.333    5.000    0.833    0.000    1.333 
#    0.000    7.500    0.000    1.333    0.000    5.833 
#    0.000    3.333    0.000    0.000    0.000    0.000 
#
# Total GULP energy -400982.544675 kJ/mol
# GULP energy per Si atom -5569.202009 kJ/mol
# Density = 2.073197 g / cm^3
# Si number density = 20.779265 Si / 1000 Ang^3
#
#
#
# Elastic Constant Matrix: (Units=GPa)
#
#
# Indices 1 2 3 4 5 6 
#
# 1 110.3438 56.3689 -6.2410 0.0000 0.8288 0.0000
# 2 56.3689 110.3438 -6.2410 0.0000 -0.8288 0.0000
# 3 -6.2410 -6.2410 40.8362 0.0000 0.0000 0.0000
# 4 0.0000 0.0000 0.0000 5.1932 0.0000 -0.8288
# 5 0.8288 -0.8288 0.0000 0.0000 5.1932 0.0000
# 6 0.0000 0.0000 0.0000 -0.8288 0.0000 26.9874
#
#
#
# Elastic Compliance Matrix: (Units=1/GPa)
#
#
# Indices 1 2 3 4 5 6 
#
# 1 0.012343 -0.006275 0.000927 0.000000 -0.002971 0.000000
# 2 -0.006275 0.012343 0.000927 0.000000 0.002971 0.000000
# 3 0.000927 0.000927 0.024771 0.000000 0.000000 0.000000
# 4 0.000000 0.000000 0.000000 0.193510 0.000000 0.005943
# 5 -0.002971 0.002971 0.000000 0.000000 0.193510 0.000000
# 6 0.000000 0.000000 0.000000 0.005943 0.000000 0.037237
#
#
# Mechanical properties :
#
#
# Convention : Reuss Voigt Hill
#
# Bulk Modulus (GPa) = 24.62062 38.81087 31.71575
# Shear Modulus (GPa) = 10.07874 21.98387 16.03131
#
# Velocity S-wave (km/s) = 2.20475 3.25618 2.78061
# Velocity P-wave (km/s) = 4.28434 5.73194 5.06017
#
# Compressibility (1/GPa) = 0.04061636
#
# Stress axis : x y z
#
# Youngs Moduli (GPa) = 81.01705 81.01705 40.36898
#
# Poissons Ratio (x) = 0.50841 -0.03744
# Poissons Ratio (y) = 0.50841 -0.03744
# Poissons Ratio (z) = -0.07513 -0.07513
#
# Static dielectric constant tensor:
#      x y z
#    x 1.790880 0.000000 0.000000 
#    y 0.000000 1.790880 0.000000 
#    z 0.000000 0.000000 1.863930 
# 
# From -- ./inp_files/1700.got.cif
#   From: 2010.05.17/outbox.cif.g08.bks.cpg/sg162_1_cif.got.tgz:1700.got - 2010.05.20 10:53:12.
