data_PCOD9577805
_publ_section_title
;
Structure prediction by ZEFSAII (Michael W. Deem and Ramdas Pophale) SiO2 
 PCOD9577805
Probable space group: P -3 1 M 
;
_chemical_formula_sum "Si O2"
_cell_formula_units_Z 96
_cell_length_a 14.172949
_cell_length_b 14.172949
_cell_length_c 28.445713
_cell_angle_alpha 90.000000
_cell_angle_beta 90.000000
_cell_angle_gamma 120.000000
_cell_volume 4948.435392
_symmetry_space_group_name_H-M "P -3 1 M "
_symmetry_group_IT_number 162
_symmetry_cell_setting 'hexagonal'
loop_
_space_group_symop_operation_xyz
x,y,z
-y,x-y,z
-x+y,-x,z
-y,-x,-z
-x+y,y,-z
x,x-y,-z
-x,-y,-z
y,-x+y,-z
x-y,x,-z
y,x,z
x-y,-y,z
-x,-x+y,z
loop_
_atom_site_type_symbol
_atom_site_label
_atom_site_fract_x
_atom_site_fract_y
_atom_site_fract_z
Si Si1 0.126229 0.536826 0.352713
Si Si2 0.678439 0.800736 0.553525
Si Si3 0.546437 0.124629 0.550126
Si Si4 0.439004 0.315073 0.282327
Si Si5 0.327909 0.458783 0.175255
Si Si6 0.540824 0.874463 0.867116
Si Si7 0.800672 0.117663 0.657213
Si Si8 0.125628 0.667230 0.979783
O O1 0.177176 0.558252 0.404442
O O2 0.178068 0.637459 0.317878
O O3 0.117549 0.428895 0.332891
O O4 0.000000 0.506880 0.361623
O O5 0.676917 0.838459 0.500000
O O6 0.777619 0.777619 0.556017
O O7 0.566984 0.686686 0.558791
O O8 0.686427 0.866595 0.600857
O O9 0.588982 0.177964 0.500000
O O10 0.524452 0.000000 0.545534
O O11 0.411318 0.411318 0.275894
O O12 0.463078 0.296220 0.229697
O O13 0.338165 0.217251 0.309802
O O14 0.372499 0.372499 0.170541
O O15 0.218390 0.431688 0.147775
O O16 0.427947 0.574030 0.156952
O O17 0.529838 0.867949 0.923458
O O18 0.630313 0.000000 0.854871
O O19 0.782565 0.000000 0.669771
O O20 0.000000 0.630406 0.992126
O O21 0.216498 0.783503 0.000000
O O22 0.146826 0.573413 0.000000
#
# Coordination Sequence:
#
# PCOD9577805 Si02
#       8
#    12  12  12  12  12  12  12  12
#     4   9  18  34  52  74 101 129 168 214 264 321
#     4  11  21  35  55  78 106 139 172 211 264 330
#     4   9  16  29  50  70  94 129 164 203 254 316
#     4  10  21  39  58  78 108 147 184 226 283 335
#     4  10  22  38  58  84 121 162 203 257 314 362
#     4  10  21  37  59  90 124 164 213 254 300 365
#     4  11  22  36  58  83 107 140 180 220 269 335
#     4  10  20  34  57  89 126 168 210 254 304 359
#
# _framework density 19.400071000000001
#
# number of rings (size 3 to 8) (size 9 to 14) (size 15 to 20)
#    0.000    2.000    1.250    2.625    1.750    4.000 
#    0.750    0.000    0.000    6.125    0.000    0.000 
#    0.000    0.000    0.000    0.000    0.000    0.000 
#
# Total GULP energy -535012.254244 kJ/mol
# GULP energy per Si atom -5573.044315 kJ/mol
# Density = 1.935592 g / cm^3
# Si number density = 19.400071 Si / 1000 Ang^3
#
#
#
# Elastic Constant Matrix: (Units=GPa)
#
#
# Indices 1 2 3 4 5 6 
#
# 1 81.9174 36.5742 30.8650 0.0000 -3.7157 0.0000
# 2 36.5742 81.9174 30.8650 0.0000 3.7157 0.0000
# 3 30.8650 30.8650 99.9248 0.0000 0.0000 0.0000
# 4 0.0000 0.0000 0.0000 18.0678 0.0000 3.7157
# 5 -3.7157 3.7157 0.0000 0.0000 18.0678 0.0000
# 6 0.0000 0.0000 0.0000 3.7157 0.0000 22.6716
#
#
#
# Elastic Compliance Matrix: (Units=1/GPa)
#
#
# Indices 1 2 3 4 5 6 
#
# 1 0.016441 -0.006383 -0.003107 0.000000 0.004694 0.000000
# 2 -0.006383 0.016441 -0.003107 0.000000 -0.004694 0.000000
# 3 -0.003107 -0.003107 0.011927 0.000000 0.000000 0.000000
# 4 0.000000 0.000000 0.000000 0.057278 0.000000 -0.009387
# 5 0.004694 -0.004694 0.000000 0.000000 0.057278 0.000000
# 6 0.000000 0.000000 0.000000 -0.009387 0.000000 0.045647
#
#
# Mechanical properties :
#
#
# Convention : Reuss Voigt Hill
#
# Bulk Modulus (GPa) = 50.97956 51.15203 51.06579
# Shear Modulus (GPa) = 21.12018 22.79181 21.95600
#
# Velocity S-wave (km/s) = 3.30307 3.43130 3.36780
# Velocity P-wave (km/s) = 6.39391 6.49019 6.44223
#
# Compressibility (1/GPa) = 0.01961570
#
# Stress axis : x y z
#
# Youngs Moduli (GPa) = 60.82503 60.82503 83.84518
#
# Poissons Ratio (x) = 0.38823 0.26048
# Poissons Ratio (y) = 0.38823 0.26048
# Poissons Ratio (z) = 0.18897 0.18897
#
# Static dielectric constant tensor:
#      x y z
#    x 1.704930 0.000000 0.000000 
#    y 0.000000 1.704930 0.000000 
#    z 0.000000 0.000000 1.773170 
# 
# From -- ./inp_files/4083.got.cif
#   From: 2010.05.17/outbox.cif.g08.bks.cpg/sg162_3_cif.got.tgz:4083.got - 2010.05.20 10:53:12.
