data_PCOD9577870
_publ_section_title
;
Structure prediction by ZEFSAII (Michael W. Deem and Ramdas Pophale) SiO2 
 PCOD9577870
Probable space group: P -3 1 M 
;
_chemical_formula_sum "Si O2"
_cell_formula_units_Z 84
_cell_length_a 32.811802
_cell_length_b 32.811802
_cell_length_c 5.108561
_cell_angle_alpha 90.000000
_cell_angle_beta 90.000000
_cell_angle_gamma 120.000000
_cell_volume 4763.096491
_symmetry_space_group_name_H-M "P -3 1 M "
_symmetry_group_IT_number 162
_symmetry_cell_setting 'hexagonal'
loop_
_space_group_symop_operation_xyz
x,y,z
-y,x-y,z
-x+y,-x,z
-y,-x,-z
-x+y,y,-z
x,x-y,-z
-x,-y,-z
y,-x+y,-z
x-y,x,-z
y,x,z
x-y,-y,z
-x,-x+y,z
loop_
_atom_site_type_symbol
_atom_site_label
_atom_site_fract_x
_atom_site_fract_y
_atom_site_fract_z
Si Si1 0.689187 0.802193 0.138333
Si Si2 0.411042 0.463583 0.585032
Si Si3 0.050809 0.378877 0.720634
Si Si4 0.290421 0.054190 0.621327
Si Si5 0.761410 0.578364 0.245443
Si Si6 0.336139 0.874210 0.037604
Si Si7 0.460178 0.592881 0.739533
O O1 0.713992 0.801606 0.408490
O O2 0.633599 0.778040 0.204905
O O3 0.702726 0.851363 0.000000
O O4 0.701502 0.775262 0.916238
O O5 0.451683 0.451683 0.653759
O O6 0.368144 0.416343 0.465415
O O7 0.384802 0.473526 0.820001
O O8 0.423652 0.503467 0.366824
O O9 0.056173 0.339955 0.562997
O O10 0.000000 0.350868 0.864492
O O11 0.094904 0.411275 0.900731
O O12 0.250088 0.000000 0.605414
O O13 0.787114 0.574228 0.500000
O O14 0.704986 0.546245 0.235552
O O15 0.782281 0.564562 0.000000
O O16 0.353070 0.849438 0.824040
O O17 0.422873 0.577128 0.500000
O O18 0.432172 0.567829 0.000000
#
# Coordination Sequence:
#
# PCOD9577870 Si02
#       7
#    12  12  12  12  12  12  12
#     4  11  21  36  52  73 105 137 174 224 284 337
#     4  10  21  34  54  76 102 137 181 223 263 302
#     4   9  19  31  48  74 101 134 175 221 275 322
#     4  11  21  34  52  75 101 135 182 231 279 330
#     4  11  24  36  56  79 103 136 178 214 269 332
#     4  11  21  37  58  71 109 133 177 220 270 310
#     4  11  23  40  54  75  99 139 180 219 259 303
#
# _framework density 17.635584999999999
#
# number of rings (size 3 to 8) (size 9 to 14) (size 15 to 20)
#    0.000    1.429    2.857    3.857    4.000    1.143 
#    0.000    0.000    0.000    0.000    0.000    0.000 
#    0.000    0.000    0.000    0.429    9.429    1.429 
#
# Total GULP energy -468387.286942 kJ/mol
# GULP energy per Si atom -5576.039130 kJ/mol
# Density = 1.759545 g / cm^3
# Si number density = 17.635585 Si / 1000 Ang^3
#
#
#
# Elastic Constant Matrix: (Units=GPa)
#
#
# Indices 1 2 3 4 5 6 
#
# 1 46.2405 26.1981 27.1158 -0.0002 -2.4212 0.0000
# 2 26.1981 46.2405 27.1158 0.0002 2.4212 0.0000
# 3 27.1158 27.1158 103.1738 0.0000 0.0000 0.0000
# 4 -0.0002 0.0002 0.0000 32.2701 0.0000 2.4212
# 5 -2.4212 2.4212 0.0000 0.0000 32.2701 -0.0002
# 6 0.0000 0.0000 0.0000 2.4212 -0.0002 10.0212
#
#
#
# Elastic Compliance Matrix: (Units=1/GPa)
#
#
# Indices 1 2 3 4 5 6 
#
# 1 0.034001 -0.016814 -0.004517 0.000000 0.003813 0.000000
# 2 -0.016814 0.034001 -0.004517 0.000000 -0.003813 0.000000
# 3 -0.004517 -0.004517 0.012067 0.000000 0.000000 0.000000
# 4 0.000000 0.000000 0.000000 0.031561 0.000000 -0.007625
# 5 0.003813 -0.003813 0.000000 0.000000 0.031561 0.000001
# 6 0.000000 0.000000 0.000000 -0.007625 0.000001 0.101631
#
#
# Mechanical properties :
#
#
# Convention : Reuss Voigt Hill
#
# Bulk Modulus (GPa) = 35.24617 39.61268 37.42942
# Shear Modulus (GPa) = 16.34127 22.59398 19.46762
#
# Velocity S-wave (km/s) = 3.04733 3.58321 3.32608
# Velocity P-wave (km/s) = 5.69305 6.29522 6.00169
#
# Compressibility (1/GPa) = 0.02837188
#
# Stress axis : x y z
#
# Youngs Moduli (GPa) = 29.41103 29.41103 82.87341
#
# Poissons Ratio (x) = 0.49453 0.37433
# Poissons Ratio (y) = 0.49453 0.37433
# Poissons Ratio (z) = 0.13285 0.13285
#
# Static dielectric constant tensor:
#      x y z
#    x 1.630560 0.000000 0.000000 
#    y 0.000000 1.630560 0.000000 
#    z 0.000000 0.000000 1.683330 
# 
# From -- ./inp_files/775.got.cif
#   From: 2010.05.17/outbox.cif.g08.bks.cpg/sg162_1_cif.got.tgz:775.got - 2010.05.20 10:53:12.
