data_PCOD9577272
_publ_section_title
;
Structure prediction by ZEFSAII (Michael W. Deem and Ramdas Pophale) SiO2 
 PCOD9577272
Probable space group: P 3 1 M
;
_chemical_formula_sum "Si O2"
_cell_formula_units_Z 42
_cell_length_a 14.097356
_cell_length_b 14.097356
_cell_length_c 12.520768
_cell_angle_alpha 90.000000
_cell_angle_beta 90.000000
_cell_angle_gamma 120.000000
_cell_volume 2154.948692
_symmetry_space_group_name_H-M "P 3 1 M"
_symmetry_group_IT_number 157
_symmetry_cell_setting 'hexagonal'
loop_
_space_group_symop_operation_xyz
x,y,z
-y,x-y,z
-x+y,-x,z
y,x,z
x-y,-y,z
-x,-x+y,z
loop_
_atom_site_type_symbol
_atom_site_label
_atom_site_fract_x
_atom_site_fract_y
_atom_site_fract_z
Si Si1 0.874166 0.573897 0.178300
Si Si2 0.129275 0.558407 0.771194
Si Si3 0.273071 0.523599 0.386856
Si Si4 0.129275 0.558407 0.002517
Si Si5 0.329143 0.127208 0.766391
Si Si6 0.125834 0.699731 0.595411
Si Si7 0.798065 0.670857 0.007320
O O1 0.798254 0.546963 0.280948
O O2 0.829188 0.464587 0.104901
O O3 0.870154 0.662164 0.099823
O O4 0.000000 0.617991 0.210722
O O5 0.133711 0.447565 0.763148
O O6 0.170812 0.635399 0.668810
O O7 0.000000 0.518742 0.774140
O O8 0.176581 0.611284 0.886856
O O9 0.402537 0.617870 0.386856
O O10 0.251291 0.453037 0.492764
O O11 0.133711 0.447565 0.010564
O O12 0.000000 0.518742 0.999571
O O13 0.337836 0.207990 0.673888
O O14 0.239866 0.000000 0.750143
O O15 0.315507 0.159035 0.886856
O O16 0.000000 0.617991 0.562989
O O17 0.760135 0.760135 0.023568
#
# Coordination Sequence:
#
# PCOD9577272 Si02
#       7
#     6   6   6   6   6   6   6
#     4  11  20  33  54  78 105 140 185 231 268 314
#     4   8  15  28  47  72 101 133 172 218 270 324
#     4  10  23  38  52  72 107 142 184 222 272 324
#     4   8  15  28  47  72 101 133 172 218 270 324
#     4   9  18  33  52  77 110 143 174 215 272 333
#     4  11  20  33  54  78 105 140 185 231 268 314
#     4   9  18  33  52  77 110 143 174 215 272 333
#
# _framework density 19.490022
#
# number of rings (size 3 to 8) (size 9 to 14) (size 15 to 20)
#    0.286    2.286    0.000    4.714    0.000    1.714 
#    1.714    2.143    0.000    0.571    0.000    0.000 
#    0.000    0.000    0.000    0.000    0.000    0.000 
#
# Total GULP energy -234224.619481 kJ/mol
# GULP energy per Si atom -5576.776654 kJ/mol
# Density = 1.944566 g / cm^3
# Si number density = 19.490022 Si / 1000 Ang^3
#
#
#
# Elastic Constant Matrix: (Units=GPa)
#
#
# Indices 1 2 3 4 5 6 
#
# 1 40.2068 -0.9733 14.7063 0.0000 0.0000 0.0000
# 2 -0.9733 40.2068 14.7063 0.0000 0.0000 0.0000
# 3 14.7063 14.7063 111.0113 0.0000 0.0000 0.0000
# 4 0.0000 0.0000 0.0000 17.1277 0.0000 0.0000
# 5 0.0000 0.0000 0.0000 0.0000 17.1277 0.0000
# 6 0.0000 0.0000 0.0000 0.0000 0.0000 20.5901
#
#
#
# Elastic Compliance Matrix: (Units=1/GPa)
#
#
# Indices 1 2 3 4 5 6 
#
# 1 0.026291 0.002008 -0.003749 0.000000 0.000000 0.000000
# 2 0.002008 0.026291 -0.003749 0.000000 0.000000 0.000000
# 3 -0.003749 -0.003749 0.010001 0.000000 0.000000 0.000000
# 4 0.000000 0.000000 0.000000 0.058385 0.000000 0.000000
# 5 0.000000 0.000000 0.000000 0.000000 0.058385 0.000000
# 6 0.000000 0.000000 0.000000 0.000000 0.000000 0.048567
#
#
# Mechanical properties :
#
#
# Convention : Reuss Voigt Hill
#
# Bulk Modulus (GPa) = 19.37853 27.58927 23.48390
# Shear Modulus (GPa) = 19.52348 21.83484 20.67916
#
# Velocity S-wave (km/s) = 3.16842 3.35073 3.26085
# Velocity P-wave (km/s) = 4.83214 5.39965 5.12376
#
# Compressibility (1/GPa) = 0.05160351
#
# Stress axis : x y z
#
# Youngs Moduli (GPa) = 38.03553 38.03553 99.98636
#
# Poissons Ratio (x) = -0.07636 0.37484
# Poissons Ratio (y) = -0.07636 0.37484
# Poissons Ratio (z) = 0.14259 0.14259
#
# Static dielectric constant tensor:
#      x y z
#    x 1.686920 0.000000 0.000000 
#    y 0.000000 1.686920 0.000000 
#    z 0.000000 0.000000 1.698940 
# 
# From -- ./inp_files/581.got.cif
#   From: 2010.05.17/outbox.cif.g08.bks.cpg/sg157_cif.got.tgz:581.got - 2010.05.20 10:49:36.
