data_PCOD9577387
_publ_section_title
;
Structure prediction by ZEFSAII (Michael W. Deem and Ramdas Pophale) SiO2 
 PCOD9577387
Probable space group: P 3 1 C
;
_chemical_formula_sum "Si O2"
_cell_formula_units_Z 48
_cell_length_a 14.359812
_cell_length_b 14.359812
_cell_length_c 12.460281
_cell_angle_alpha 90.000000
_cell_angle_beta 90.000000
_cell_angle_gamma 120.000000
_cell_volume 2225.133009
_symmetry_space_group_name_H-M "P 3 1 C"
_symmetry_group_IT_number 159
_symmetry_cell_setting 'hexagonal'
loop_
_space_group_symop_operation_xyz
x,y,z
-y,x-y,z
-x+y,-x,z
y,x,1/2+z
x-y,-y,1/2+z
-x,-x+y,1/2+z
loop_
_atom_site_type_symbol
_atom_site_label
_atom_site_fract_x
_atom_site_fract_y
_atom_site_fract_z
Si Si1 0.739540 0.668368 0.821020
Si Si2 0.178187 0.758768 0.681476
Si Si3 0.547936 0.095872 0.887286
Si Si4 0.928828 0.668368 0.953552
Si Si5 0.715806 0.857903 0.887286
Si Si6 0.413323 0.538310 0.150616
Si Si7 0.875013 0.413323 0.123956
Si Si8 0.821813 0.241232 0.593097
O O1 0.618724 0.580265 0.862614
O O2 0.823638 0.647275 0.887286
O O3 0.769720 0.791284 0.840215
O O4 0.748491 0.641542 0.697054
O O5 0.106949 0.748491 0.577518
O O6 0.136628 0.783331 0.789004
O O7 0.299319 0.852573 0.663024
O O8 0.183760 0.649817 0.686688
O O9 0.618724 0.038459 0.911958
O O10 0.596048 0.157529 0.775934
O O11 0.561481 0.157529 0.998638
O O12 0.021564 0.791284 0.934357
O O13 0.646703 0.783331 0.985569
O O14 0.500000 0.500000 0.137286
O O15 0.466057 0.649817 0.087885
O O16 0.299319 0.446746 0.111548
#
# Coordination Sequence:
#
# PCOD9577387 Si02
#       8
#     6   6   6   6   6   6   6   6
#     4  11  24  45  72 100 143 186 252 307 364 433
#     4  11  24  42  67 103 141 189 236 299 365 436
#     4  10  20  40  68  99 132 175 226 298 352 418
#     4  11  24  45  72 100 143 186 252 307 364 433
#     4  12  28  44  70 101 144 199 242 306 372 440
#     4  11  22  38  63  96 136 178 230 283 352 432
#     4  11  22  38  63  96 136 178 230 283 352 432
#     4  11  24  42  67 103 141 189 236 299 365 436
#
# _framework density 21.571745
#
# number of rings (size 3 to 8) (size 9 to 14) (size 15 to 20)
#    0.000    1.000    2.500    5.000    3.500    1.000 
#    1.500    0.000    0.000    2.000    0.000    0.000 
#    0.000    0.000    0.000    0.000    0.000    0.000 
#
# Total GULP energy -268001.715078 kJ/mol
# GULP energy per Si atom -5583.369064 kJ/mol
# Density = 2.152265 g / cm^3
# Si number density = 21.571745 Si / 1000 Ang^3
#
#
#
# Elastic Constant Matrix: (Units=GPa)
#
#
# Indices 1 2 3 4 5 6 
#
# 1 98.3295 36.0008 18.7741 0.0000 7.4508 0.0000
# 2 36.0008 98.3295 18.7741 0.0000 -7.4508 0.0000
# 3 18.7741 18.7741 116.6646 0.0000 0.0000 0.0000
# 4 0.0000 0.0000 0.0000 23.0490 0.0000 -7.4508
# 5 7.4508 -7.4508 0.0000 0.0000 23.0490 0.0000
# 6 0.0000 0.0000 0.0000 -7.4508 0.0000 31.1643
#
#
#
# Elastic Compliance Matrix: (Units=1/GPa)
#
#
# Indices 1 2 3 4 5 6 
#
# 1 0.012591 -0.004796 -0.001254 0.000000 -0.005621 0.000000
# 2 -0.004796 0.012591 -0.001254 0.000000 0.005621 0.000000
# 3 -0.001254 -0.001254 0.008975 0.000000 0.000000 0.000000
# 4 0.000000 0.000000 0.000000 0.047020 0.000000 0.011241
# 5 -0.005621 0.005621 0.000000 0.000000 0.047020 0.000000
# 6 0.000000 0.000000 0.000000 0.011241 0.000000 0.034776
#
#
# Mechanical properties :
#
#
# Convention : Reuss Voigt Hill
#
# Bulk Modulus (GPa) = 51.15703 51.15796 51.15749
# Shear Modulus (GPa) = 27.15923 31.43743 29.29833
#
# Velocity S-wave (km/s) = 3.55211 3.82166 3.68935
# Velocity P-wave (km/s) = 6.37100 6.57573 6.47417
#
# Compressibility (1/GPa) = 0.01954766
#
# Stress axis : x y z
#
# Youngs Moduli (GPa) = 79.41941 79.41941 111.41682
#
# Poissons Ratio (x) = 0.38093 0.13976
# Poissons Ratio (y) = 0.38093 0.13976
# Poissons Ratio (z) = 0.09962 0.09962
#
# Static dielectric constant tensor:
#      x y z
#    x 2.027670 0.000000 0.000000 
#    y 0.000000 2.027670 0.000000 
#    z 0.000000 0.000000 1.788410 
# 
# From -- ./inp_files/735.got.cif
#   From: 2010.05.17/outbox.cif.g08.bks.cpg/sg159_cif.got.tgz:735.got - 2010.05.20 10:50:30.
