data_PCOD9577836
_publ_section_title
;
Structure prediction by ZEFSAII (Michael W. Deem and Ramdas Pophale) SiO2 
 PCOD9577836
Probable space group: P -3 1 M 
;
_chemical_formula_sum "Si O2"
_cell_formula_units_Z 84
_cell_length_a 18.065219
_cell_length_b 18.065219
_cell_length_c 15.259376
_cell_angle_alpha 90.000000
_cell_angle_beta 90.000000
_cell_angle_gamma 120.000000
_cell_volume 4312.745867
_symmetry_space_group_name_H-M "P -3 1 M "
_symmetry_group_IT_number 162
_symmetry_cell_setting 'hexagonal'
loop_
_space_group_symop_operation_xyz
x,y,z
-y,x-y,z
-x+y,-x,z
-y,-x,-z
-x+y,y,-z
x,x-y,-z
-x,-y,-z
y,-x+y,-z
x-y,x,-z
y,x,z
x-y,-y,z
-x,-x+y,z
loop_
_atom_site_type_symbol
_atom_site_label
_atom_site_fract_x
_atom_site_fract_y
_atom_site_fract_z
Si Si1 0.373239 0.897994 0.204426
Si Si2 0.503263 0.171476 0.519114
Si Si3 0.100923 0.364796 0.367281
Si Si4 0.207710 0.305571 0.264307
Si Si5 0.499731 0.830701 0.985221
Si Si6 0.623751 0.525957 0.706944
Si Si7 0.680424 0.782227 0.926040
O O1 0.312567 0.881531 0.287634
O O2 0.324922 0.853032 0.115885
O O3 0.443059 0.871429 0.233321
O O4 0.424963 0.000000 0.188074
O O5 0.570076 0.140151 0.500000
O O6 0.542579 0.271290 0.500000
O O7 0.420038 0.127522 0.456728
O O8 0.486657 0.153277 0.621208
O O9 0.154243 0.318702 0.340382
O O10 0.000000 0.299113 0.369854
O O11 0.233103 0.233103 0.282945
O O12 0.298029 0.392747 0.249642
O O13 0.169797 0.298369 0.167785
O O14 0.429584 0.859168 0.000000
O O15 0.459800 0.729900 0.000000
O O16 0.582624 0.872246 0.048305
O O17 0.555304 0.555304 0.679645
O O18 0.734557 0.734557 0.928189
O O19 0.705304 0.852652 0.000000
#
# Coordination Sequence:
#
# PCOD9577836 Si02
#       7
#    12  12  12  12  12  12  12
#     4  10  21  35  55  83 110 144 194 249 297 349
#     4  12  23  39  58  85 122 159 198 238 289 348
#     4  11  22  37  61  88 114 151 197 244 294 352
#     4  10  21  38  58  84 118 156 196 243 297 356
#     4  11  22  36  52  76 112 154 202 246 293 344
#     4  10  20  36  58  83 113 151 195 243 294 346
#     4  10  21  37  60  86 116 153 194 245 303 357
#
# _framework density 19.477150999999999
#
# number of rings (size 3 to 8) (size 9 to 14) (size 15 to 20)
#    0.000    1.429    2.857    3.714    0.000    4.571 
#    0.000    0.000    0.000    0.429    0.000    0.000 
#    0.000    0.571    0.000    0.000    0.000    0.000 
#
# Total GULP energy -468683.505974 kJ/mol
# GULP energy per Si atom -5579.565547 kJ/mol
# Density = 1.943282 g / cm^3
# Si number density = 19.477151 Si / 1000 Ang^3
#
#
#
# Elastic Constant Matrix: (Units=GPa)
#
#
# Indices 1 2 3 4 5 6 
#
# 1 53.8961 17.4939 16.7701 0.0002 -1.3331 0.0000
# 2 17.4939 53.8961 16.7701 -0.0002 1.3331 0.0000
# 3 16.7701 16.7701 80.4023 0.0000 0.0000 0.0000
# 4 0.0002 -0.0002 0.0000 26.4041 0.0000 1.3331
# 5 -1.3331 1.3331 0.0000 0.0000 26.4041 0.0002
# 6 0.0000 0.0000 0.0000 1.3331 0.0002 18.2011
#
#
#
# Elastic Compliance Matrix: (Units=1/GPa)
#
#
# Indices 1 2 3 4 5 6 
#
# 1 0.021551 -0.006022 -0.003239 0.000000 0.001392 0.000000
# 2 -0.006022 0.021551 -0.003239 0.000000 -0.001392 0.000000
# 3 -0.003239 -0.003239 0.013789 0.000000 0.000000 0.000000
# 4 0.000000 0.000000 0.000000 0.038013 0.000000 -0.002784
# 5 0.001392 -0.001392 0.000000 0.000000 0.038013 0.000000
# 6 0.000000 0.000000 0.000000 -0.002784 0.000000 0.055146
#
#
# Mechanical properties :
#
#
# Convention : Reuss Voigt Hill
#
# Bulk Modulus (GPa) = 31.35675 32.25139 31.80407
# Shear Modulus (GPa) = 22.35205 23.34592 22.84898
#
# Velocity S-wave (km/s) = 3.39130 3.46588 3.42880
# Velocity P-wave (km/s) = 5.60971 5.71060 5.66038
#
# Compressibility (1/GPa) = 0.03189106
#
# Stress axis : x y z
#
# Youngs Moduli (GPa) = 46.40145 46.40145 72.52346
#
# Poissons Ratio (x) = 0.27942 0.23491
# Poissons Ratio (y) = 0.27942 0.23491
# Poissons Ratio (z) = 0.15030 0.15030
#
# Static dielectric constant tensor:
#      x y z
#    x 1.703120 0.000000 0.000000 
#    y 0.000000 1.703120 0.000000 
#    z 0.000000 0.000000 1.728260 
# 
# From -- ./inp_files/3160.got.cif
#   From: 2010.05.17/outbox.cif.g08.bks.cpg/sg162_2_cif.got.tgz:3160.got - 2010.05.20 10:53:12.
