data_PCOD9577363
_publ_section_title
;
Structure prediction by ZEFSAII (Michael W. Deem and Ramdas Pophale) SiO2 
 PCOD9577363
Probable space group: P 3 1 C
;
_chemical_formula_sum "Si O2"
_cell_formula_units_Z 24
_cell_length_a 13.959113
_cell_length_b 13.959113
_cell_length_c 5.272010
_cell_angle_alpha 90.000000
_cell_angle_beta 90.000000
_cell_angle_gamma 120.000000
_cell_volume 889.656801
_symmetry_space_group_name_H-M "P 3 1 C"
_symmetry_group_IT_number 159
_symmetry_cell_setting 'hexagonal'
loop_
_space_group_symop_operation_xyz
x,y,z
-y,x-y,z
-x+y,-x,z
y,x,1/2+z
x-y,-y,1/2+z
-x,-x+y,1/2+z
loop_
_atom_site_type_symbol
_atom_site_label
_atom_site_fract_x
_atom_site_fract_y
_atom_site_fract_z
Si Si1 0.261073 0.521139 0.599130
Si Si2 0.821420 0.872501 0.828866
Si Si3 0.657968 0.610878 0.823597
Si Si4 0.294963 0.361468 0.926355
O O1 0.391536 0.608012 0.576433
O O2 0.174567 0.432805 0.400063
O O3 0.263443 0.454531 0.846011
O O4 0.872780 0.899786 0.550039
O O5 0.731446 0.742372 0.788298
O O6 0.751130 0.928164 0.913673
O O7 0.595921 0.575316 0.554710
O O8 0.365591 0.350842 0.694218
#
# Coordination Sequence:
#
# PCOD9577363 Si02
#       4
#     6   6   6   6
#     4  10  25  48  71 114 151 193 254 305 358 464
#     4  10  19  39  75 102 139 183 242 292 372 421
#     4  10  20  40  77  98 137 189 236 287 377 413
#     4  12  26  45  73 112 149 197 252 306 371 448
#
# _framework density 26.976693000000001
#
# number of rings (size 3 to 8) (size 9 to 14) (size 15 to 20)
#    0.500    1.000    5.000    1.500    3.500    2.000 
#    0.000    7.500    0.000   10.000    0.000    0.000 
#    0.000    0.000    0.000    0.000    0.000    0.000 
#
# Total GULP energy -133909.248018 kJ/mol
# GULP energy per Si atom -5579.552001 kJ/mol
# Density = 2.691529 g / cm^3
# Si number density = 26.976693 Si / 1000 Ang^3
#
#
#
# Elastic Constant Matrix: (Units=GPa)
#
#
# Indices 1 2 3 4 5 6 
#
# 1 110.6037 9.7593 -0.4057 0.0000 -9.9767 0.0000
# 2 9.7593 110.6037 -0.4057 0.0000 9.9767 0.0000
# 3 -0.4057 -0.4057 134.8754 0.0000 0.0000 0.0000
# 4 0.0000 0.0000 0.0000 21.8393 0.0000 9.9767
# 5 -9.9767 9.9767 0.0000 0.0000 21.8393 0.0000
# 6 0.0000 0.0000 0.0000 9.9767 0.0000 50.4222
#
#
#
# Elastic Compliance Matrix: (Units=1/GPa)
#
#
# Indices 1 2 3 4 5 6 
#
# 1 0.009605 -0.001297 0.000025 0.000000 0.004980 0.000000
# 2 -0.001297 0.009605 0.000025 0.000000 -0.004980 0.000000
# 3 0.000025 0.000025 0.007414 0.000000 0.000000 0.000000
# 4 0.000000 0.000000 0.000000 0.050339 0.000000 -0.009960
# 5 0.004980 -0.004980 0.000000 0.000000 0.050339 0.000000
# 6 0.000000 0.000000 0.000000 -0.009960 0.000000 0.021803
#
#
# Mechanical properties :
#
#
# Convention : Reuss Voigt Hill
#
# Bulk Modulus (GPa) = 41.44028 41.55316 41.49672
# Shear Modulus (GPa) = 31.31986 41.96248 36.64117
#
# Velocity S-wave (km/s) = 3.41104 3.94827 3.68945
# Velocity P-wave (km/s) = 5.55953 6.01847 5.79355
#
# Compressibility (1/GPa) = 0.02413111
#
# Stress axis : x y z
#
# Youngs Moduli (GPa) = 104.11232 104.11232 134.87262
#
# Poissons Ratio (x) = 0.13500 -0.00337
# Poissons Ratio (y) = 0.13500 -0.00337
# Poissons Ratio (z) = -0.00260 -0.00260
#
# Static dielectric constant tensor:
#      x y z
#    x 2.148390 0.000000 0.000000 
#    y 0.000000 2.148390 0.000000 
#    z 0.000000 0.000000 2.242460 
# 
# From -- ./inp_files/53.got.cif
#   From: 2010.05.17/outbox.cif.g08.bks.cpg/sg159_cif.got.tgz:53.got - 2010.05.20 10:50:30.
