data_PCOD9577451
_publ_section_title
;
Structure prediction by ZEFSAII (Michael W. Deem and Ramdas Pophale) SiO2 
 PCOD9577451
Probable space group: P 3 1 C
;
_chemical_formula_sum "Si O2"
_cell_formula_units_Z 28
_cell_length_a 10.893972
_cell_length_b 10.893972
_cell_length_c 14.388145
_cell_angle_alpha 90.000000
_cell_angle_beta 90.000000
_cell_angle_gamma 120.000000
_cell_volume 1478.794910
_symmetry_space_group_name_H-M "P 3 1 C"
_symmetry_group_IT_number 159
_symmetry_cell_setting 'hexagonal'
loop_
_space_group_symop_operation_xyz
x,y,z
-y,x-y,z
-x+y,-x,z
y,x,1/2+z
x-y,-y,1/2+z
-x,-x+y,1/2+z
loop_
_atom_site_type_symbol
_atom_site_label
_atom_site_fract_x
_atom_site_fract_y
_atom_site_fract_z
Si Si1 0.333333 0.666667 0.703296
Si Si2 0.333334 0.666667 0.930182
Si Si3 0.184149 0.079731 0.316739
Si Si4 0.373589 0.058194 0.465428
Si Si5 0.519987 0.162572 0.816740
Si Si6 0.058192 0.373590 0.668051
O O1 0.333334 0.666667 0.816739
O O2 0.189238 0.532553 0.667954
O O3 0.189242 0.532550 0.965524
O O4 0.279631 0.108287 0.407127
O O5 0.279635 0.108288 0.226352
O O6 0.088004 0.152634 0.316738
O O7 0.370357 0.931976 0.405015
O O8 0.314606 0.000001 0.566740
O O9 0.686473 0.211988 0.816741
O O10 0.438382 0.068026 0.728464
#
# Coordination Sequence:
#
# PCOD9577451 Si02
#       6
#     2   2   6   6   6   6
#     4  12  24  45  63  97 128 172 216 261 327 385
#     4  12  24  45  63  97 128 172 216 261 327 385
#     4   9  22  45  66  94 128 168 210 255 324 381
#     4  11  25  42  67  97 128 168 216 269 314 380
#     4   9  22  41  64  90 132 170 212 259 324 379
#     4  11  25  42  67  97 128 168 216 269 314 380
#
# _framework density 18.934335999999998
#
# number of rings (size 3 to 8) (size 9 to 14) (size 15 to 20)
#    0.857    0.857    4.286    0.000    6.000    8.571 
#    0.000    0.000    0.000    0.000    0.000    0.000 
#    0.000    0.000    0.000    0.000    0.000    0.000 
#
# Total GULP energy -156212.642020 kJ/mol
# GULP energy per Si atom -5579.022929 kJ/mol
# Density = 1.889124 g / cm^3
# Si number density = 18.934336 Si / 1000 Ang^3
#
#
#
# Elastic Constant Matrix: (Units=GPa)
#
#
# Indices 1 2 3 4 5 6 
#
# 1 61.6601 -21.3891 3.3594 0.0000 0.0007 0.0001
# 2 -21.3891 61.6601 3.3594 0.0003 -0.0006 0.0000
# 3 3.3594 3.3594 126.9392 0.0000 0.0000 0.0000
# 4 0.0000 0.0003 0.0000 0.1232 0.0001 -0.0005
# 5 0.0007 -0.0006 0.0000 0.0001 0.1231 0.0002
# 6 0.0001 0.0000 0.0000 -0.0005 0.0002 41.5246
#
#
#
# Elastic Compliance Matrix: (Units=1/GPa)
#
#
# Indices 1 2 3 4 5 6 
#
# 1 0.018491 0.006450 -0.000660 -0.000010 -0.000080 0.000000
# 2 0.006450 0.018491 -0.000660 -0.000041 0.000050 0.000000
# 3 -0.000660 -0.000660 0.007913 0.000004 0.000003 0.000000
# 4 -0.000010 -0.000041 0.000004 8.115432 -0.004350 0.000094
# 5 -0.000080 0.000050 0.000003 -0.004350 8.120455 -0.000031
# 6 0.000000 0.000000 0.000000 0.000094 -0.000031 0.024082
#
#
# Mechanical properties :
#
#
# Convention : Reuss Voigt Hill
#
# Bulk Modulus (GPa) = 18.13034 24.54655 21.33845
# Shear Modulus (GPa) = 0.30650 26.01616 13.16133
#
# Velocity S-wave (km/s) = 0.40278 3.71080 2.63934
# Velocity P-wave (km/s) = 3.13249 5.59931 4.53678
#
# Compressibility (1/GPa) = 0.05515615
#
# Stress axis : x y z
#
# Youngs Moduli (GPa) = 54.07896 54.07903 126.37874
#
# Poissons Ratio (x) = -0.34883 0.08342
# Poissons Ratio (y) = -0.34883 0.08342
# Poissons Ratio (z) = 0.03570 0.03570
#
# Static dielectric constant tensor:
#      x y z
#    x 1.650760 0.000000 0.000000 
#    y 0.000000 1.650760 0.000000 
#    z 0.000000 0.000000 1.633760 
# 
# From -- ./inp_files/786.got.cif
#   From: 2010.05.17/outbox.cif.g08.bks.cpg/sg159_cif.got.tgz:786.got - 2010.05.20 10:50:30.
