data_PCOD9577077
_publ_section_title
;
Structure prediction by ZEFSAII (Michael W. Deem and Ramdas Pophale) SiO2 
 PCOD9577077
Probable space group: R 3 2
;
_chemical_formula_sum "Si O2"
_cell_formula_units_Z 51
_cell_length_a 16.774750
_cell_length_b 16.774750
_cell_length_c 9.114775
_cell_angle_alpha 90.000000
_cell_angle_beta 90.000000
_cell_angle_gamma 120.000000
_cell_volume 2221.205280
_symmetry_space_group_name_H-M "R 3 2"
_symmetry_group_IT_number 155
_symmetry_cell_setting 'hexagonal'
loop_
_space_group_symop_operation_xyz
x,y,z
-y,x-y,z
-x+y,-x,z
x-y,-y,-z
-x,-x+y,-z
y,x,-z
2/3+x,1/3+y,1/3+z
2/3-y,1/3+x-y,1/3+z
2/3-x+y,1/3-x,1/3+z
2/3+x-y,1/3-y,1/3-z
2/3-x,1/3-x+y,1/3-z
2/3+y,1/3+x,1/3-z
1/3+x,2/3+y,2/3+z
1/3-y,2/3+x-y,2/3+z
1/3-x+y,2/3-x,2/3+z
1/3+x-y,2/3-y,2/3-z
1/3-x,2/3-x+y,2/3-z
1/3+y,2/3+x,2/3-z
loop_
_atom_site_type_symbol
_atom_site_label
_atom_site_fract_x
_atom_site_fract_y
_atom_site_fract_z
Si Si1 0.333333 0.666666 0.341699
Si Si2 0.137131 0.303529 0.066004
Si Si3 0.150985 0.952943 0.785983
Si Si4 0.000000 0.700040 0.500000
O O1 0.397903 0.627415 0.398908
O O2 0.333334 0.666668 0.166667
O O3 0.231042 0.351562 0.157444
O O4 0.050652 0.230039 0.156533
O O5 0.123671 0.243228 0.916363
O O6 0.134374 0.391026 0.003280
O O7 0.998098 0.664764 0.333334
#
# Coordination Sequence:
#
# PCOD9577077 Si02
#       4
#     6  18  18   9
#     4  12  30  49  77 112 162 208 269 334 412 470
#     4  10  25  50  79 111 157 208 269 322 406 479
#     4  10  25  53  75 114 156 211 263 328 407 482
#     4  12  28  48  82 118 162 206 270 332 396 472
#
# _framework density 22.960507
#
# number of rings (size 3 to 8) (size 9 to 14) (size 15 to 20)
#    0.000    1.412    0.000    2.118   12.353    4.235 
#   38.118    0.000    0.000    0.000    0.000    0.000 
#    0.000    0.000    0.000    0.000    0.000    0.000 
#
# Total GULP energy -94738.372128 kJ/mol
# GULP energy per Si atom -5572.845419 kJ/mol
# Density = 2.290825 g / cm^3
# Si number density = 22.960507 Si / 1000 Ang^3
#
#
#
# Elastic Constant Matrix: (Units=GPa)
#
#
# Indices 1 2 3 4 5 6 
#
# 1 83.2361 77.4079 57.0615 41.3981 -0.0002 -0.0002
# 2 77.4079 83.2361 57.0608 -41.3973 0.0003 0.0002
# 3 57.0615 57.0608 117.9682 -0.0004 0.0000 0.0000
# 4 41.3981 -41.3973 -0.0004 -0.2808 -0.0001 0.0007
# 5 -0.0002 0.0003 0.0000 -0.0001 -0.2809 41.3980
# 6 -0.0002 0.0002 0.0000 0.0007 41.3980 2.9137
#
#
#
# Elastic Compliance Matrix: (Units=1/GPa)
#
#
# Indices 1 2 3 4 5 6 
#
# 1 0.004783 0.004701 -0.004587 0.012072 0.000000 0.000000
# 2 0.004701 0.004783 -0.004587 -0.012072 0.000000 0.000000
# 3 -0.004587 -0.004587 0.012915 0.000000 0.000000 0.000000
# 4 0.012072 -0.012072 0.000000 -0.001700 0.000000 0.000000
# 5 0.000000 0.000000 0.000000 0.000000 -0.001699 0.024144
# 6 0.000000 0.000000 0.000000 0.000000 0.024144 0.000164
#
#
# Mechanical properties :
#
#
# Convention : Reuss Voigt Hill
#
# Bulk Modulus (GPa) = 73.89358 74.16677 74.03017
# Shear Modulus (GPa) = 152.88909 6.66443 79.77676
#
# Velocity S-wave (km/s) = 8.16899 1.70554 5.90090
# Velocity P-wave (km/s) = 11.01042 6.02084 8.87355
#
# Compressibility (1/GPa) = 0.01353297
#
# Stress axis : x y z
#
# Youngs Moduli (GPa) = 209.08675 209.07517 77.43166
#
# Poissons Ratio (x) = -0.98285 0.35519
# Poissons Ratio (y) = -0.98291 0.35521
# Poissons Ratio (z) = 0.95912 0.95911
#
# Static dielectric constant tensor:
#      x y z
#    x 1.864820 0.000000 0.000000 
#    y 0.000000 1.864820 0.000000 
#    z 0.000000 0.000000 1.861840 
# 
# From -- ./inp_files/1704.got.cif
#   From: 2010.05.17/outbox.cif.g08.bks.cpg/sg155_1_cif.got.tgz:1704.got - 2010.05.20 10:44:35.
