data_PCOD9577813
_publ_section_title
;
Structure prediction by ZEFSAII (Michael W. Deem and Ramdas Pophale) SiO2 
 PCOD9577813
Probable space group: P -3 1 M 
;
_chemical_formula_sum "Si O2"
_cell_formula_units_Z 48
_cell_length_a 20.804032
_cell_length_b 20.804032
_cell_length_c 7.823464
_cell_angle_alpha 90.000000
_cell_angle_beta 90.000000
_cell_angle_gamma 120.000000
_cell_volume 2932.410368
_symmetry_space_group_name_H-M "P -3 1 M "
_symmetry_group_IT_number 162
_symmetry_cell_setting 'hexagonal'
loop_
_space_group_symop_operation_xyz
x,y,z
-y,x-y,z
-x+y,-x,z
-y,-x,-z
-x+y,y,-z
x,x-y,-z
-x,-y,-z
y,-x+y,-z
x-y,x,-z
y,x,z
x-y,-y,z
-x,-x+y,z
loop_
_atom_site_type_symbol
_atom_site_label
_atom_site_fract_x
_atom_site_fract_y
_atom_site_fract_z
Si Si1 0.543522 0.087043 0.294140
Si Si2 0.859002 0.290358 0.194731
Si Si3 0.709642 0.140997 0.194729
Si Si4 0.083296 0.316199 0.500000
O O1 0.545339 0.090677 0.500000
O O2 0.498122 0.125283 0.226875
O O3 0.627161 0.125282 0.226874
O O4 0.499999 0.000000 0.244858
O O5 0.772732 0.227268 0.216600
O O6 0.903202 0.271151 0.334629
O O7 0.880254 0.284744 0.000001
O O8 0.728849 0.096797 0.334626
O O9 0.147369 0.294737 0.500000
O O10 0.000000 0.249374 0.499999
#
# Coordination Sequence:
#
# PCOD9577813 Si02
#       4
#    12  12  12  12
#     4  11  21  33  53  78 103 135 176 217 261 310
#     4  10  21  36  53  75 103 136 175 216 259 304
#     4  10  21  36  53  75 103 136 175 216 259 304
#     4  10  20  35  55  78 105 133 165 207 253 305
#
# _framework density 16.368784999999999
#
# number of rings (size 3 to 8) (size 9 to 14) (size 15 to 20)
#    0.000    1.750    2.500    2.250    0.000    5.000 
#    1.500    0.000    0.000    0.250    0.000    0.000 
#    0.000    0.000    0.000   12.500    0.000    0.000 
#
# Total GULP energy -267973.338253 kJ/mol
# GULP energy per Si atom -5582.777880 kJ/mol
# Density = 1.633153 g / cm^3
# Si number density = 16.368785 Si / 1000 Ang^3
#
#
#
# Elastic Constant Matrix: (Units=GPa)
#
#
# Indices 1 2 3 4 5 6 
#
# 1 92.7020 68.8939 44.2708 0.0000 -0.0007 0.0000
# 2 68.8939 92.7020 44.2708 0.0000 0.0007 0.0000
# 3 44.2708 44.2708 112.6443 0.0000 0.0000 0.0000
# 4 0.0000 0.0000 0.0000 -18.0754 0.0000 0.0007
# 5 -0.0007 0.0007 0.0000 0.0000 -18.0754 0.0000
# 6 0.0000 0.0000 0.0000 0.0007 0.0000 11.9040
#
#
#
# Elastic Compliance Matrix: (Units=1/GPa)
#
#
# Indices 1 2 3 4 5 6 
#
# 1 0.024945 -0.017058 -0.003100 0.000000 -0.000002 0.000000
# 2 -0.017058 0.024945 -0.003100 0.000000 0.000002 0.000000
# 3 -0.003100 -0.003100 0.011314 0.000000 0.000000 0.000000
# 4 0.000000 0.000000 0.000000 -0.055324 0.000000 0.000003
# 5 -0.000002 0.000002 0.000000 0.000000 -0.055324 0.000000
# 6 0.000000 0.000000 0.000000 0.000003 0.000000 0.084005
#
#
# Mechanical properties :
#
#
# Convention : Reuss Voigt Hill
#
# Bulk Modulus (GPa) = 68.07890 68.10211 68.09050
# Shear Modulus (GPa) = 58.15933 4.52483 31.34208
#
# Velocity S-wave (km/s) = 5.96722 1.66442 4.38053
# Velocity P-wave (km/s) = 9.44235 6.73713 8.20204
#
# Compressibility (1/GPa) = 0.01468884
#
# Stress axis : x y z
#
# Youngs Moduli (GPa) = 40.08891 40.08891 88.38743
#
# Poissons Ratio (x) = 0.68384 0.27396
# Poissons Ratio (y) = 0.68384 0.27396
# Poissons Ratio (z) = 0.12426 0.12426
#
# Static dielectric constant tensor:
#      x y z
#    x 1.526040 0.000000 0.000000 
#    y 0.000000 1.526040 0.000000 
#    z 0.000000 0.000000 1.578270 
# 
# From -- ./inp_files/1380.got.cif
#   From: 2010.05.17/outbox.cif.g08.bks.cpg/sg162_1_cif.got.tgz:1380.got - 2010.05.20 10:53:12.
