data_PCOD9577026
_publ_section_title
;
Structure prediction by ZEFSAII (Michael W. Deem and Ramdas Pophale) SiO2 
 PCOD9577026
Probable space group: R 3 2
;
_chemical_formula_sum "Si O2"
_cell_formula_units_Z 69
_cell_length_a 22.888262
_cell_length_b 22.888262
_cell_length_c 7.717225
_cell_angle_alpha 90.000000
_cell_angle_beta 90.000000
_cell_angle_gamma 120.000000
_cell_volume 3501.204085
_symmetry_space_group_name_H-M "R 3 2"
_symmetry_group_IT_number 155
_symmetry_cell_setting 'hexagonal'
loop_
_space_group_symop_operation_xyz
x,y,z
-y,x-y,z
-x+y,-x,z
x-y,-y,-z
-x,-x+y,-z
y,x,-z
2/3+x,1/3+y,1/3+z
2/3-y,1/3+x-y,1/3+z
2/3-x+y,1/3-x,1/3+z
2/3+x-y,1/3-y,1/3-z
2/3-x,1/3-x+y,1/3-z
2/3+y,1/3+x,1/3-z
1/3+x,2/3+y,2/3+z
1/3-y,2/3+x-y,2/3+z
1/3-x+y,2/3-x,2/3+z
1/3+x-y,2/3-y,2/3-z
1/3-x,2/3-x+y,2/3-z
1/3+y,2/3+x,2/3-z
loop_
_atom_site_type_symbol
_atom_site_label
_atom_site_fract_x
_atom_site_fract_y
_atom_site_fract_z
Si Si1 0.193067 0.932858 0.910666
Si Si2 0.154063 0.216803 0.136437
Si Si3 0.545528 0.203367 0.037668
Si Si4 0.333334 0.666667 0.954353
Si Si5 0.616646 0.000000 0.000000
O O1 0.226747 0.893414 0.833334
O O2 0.161401 0.967082 0.788167
O O3 0.132045 0.878627 0.027481
O O4 0.251468 0.000000 0.000000
O O5 0.088047 0.166108 0.247978
O O6 0.213909 0.270288 0.260144
O O7 0.182387 0.182387 0.000000
O O8 0.537195 0.203862 0.833334
O O9 0.592295 0.279412 0.103671
O O10 0.333334 0.666668 0.166667
O O11 0.666667 0.023410 0.833334
#
# Coordination Sequence:
#
# PCOD9577026 Si02
#       5
#    18  18  18   6   9
#     4  10  24  43  64  95 133 178 229 283 345 415
#     4  11  25  43  69 101 139 186 233 297 361 426
#     4  10  22  41  68 103 135 182 231 287 361 427
#     4   9  18  36  61  95 130 159 217 281 340 415
#     4  12  28  48  68 104 142 194 248 298 362 436
#
# _framework density 19.707504
#
# number of rings (size 3 to 8) (size 9 to 14) (size 15 to 20)
#    0.000    1.565    1.304    1.565    7.304    4.174 
#    4.696    3.913    0.000    0.000    0.000    0.000 
#    0.000    0.000    0.000    0.000    0.000    0.000 
#
# Total GULP energy -128263.123107 kJ/mol
# GULP energy per Si atom -5576.657526 kJ/mol
# Density = 1.966265 g / cm^3
# Si number density = 19.707504 Si / 1000 Ang^3
#
#
#
# Elastic Constant Matrix: (Units=GPa)
#
#
# Indices 1 2 3 4 5 6 
#
# 1 112.4695 90.6676 59.6234 18.1837 0.0317 0.0233
# 2 90.6676 112.3565 59.4643 -18.2961 -0.0358 -0.0448
# 3 59.6234 59.4643 104.8492 -0.1094 0.0048 -0.0348
# 4 18.1837 -18.2961 -0.1094 8.5168 -0.0775 -0.0280
# 5 0.0317 -0.0358 0.0048 -0.0775 8.6405 18.2129
# 6 0.0233 -0.0448 -0.0348 -0.0280 18.2129 10.8594
#
#
#
# Elastic Compliance Matrix: (Units=1/GPa)
#
#
# Indices 1 2 3 4 5 6 
#
# 1 -0.005184 0.012559 -0.004135 0.037995 -0.000041 0.000216
# 2 0.012559 -0.005169 -0.004250 -0.037972 0.000027 -0.000205
# 3 -0.004135 -0.004250 0.014299 -0.000118 0.000035 -0.000022
# 4 0.037995 -0.037972 -0.000118 -0.045283 -0.000018 -0.000325
# 5 -0.000041 0.000027 0.000035 -0.000018 -0.045651 0.076564
# 6 0.000216 -0.000205 -0.000022 -0.000325 0.076564 -0.036325
#
#
# Mechanical properties :
#
#
# Convention : Reuss Voigt Hill
#
# Bulk Modulus (GPa) = 81.33905 83.24289 82.29097
# Shear Modulus (GPa) = -39.19666 13.59799 -12.79933
#
# Velocity S-wave (km/s) = -4.46457 2.62962 -2.55122
# Velocity P-wave (km/s) = 3.84529 7.17988 5.75921
#
# Compressibility (1/GPa) = 0.01229422
#
# Stress axis : x y z
#
# Youngs Moduli (GPa) = -192.89534 -193.47668 69.93350
#
# Poissons Ratio (x) = 2.42990 0.28918
# Poissons Ratio (y) = 2.42260 0.29723
# Poissons Ratio (z) = -0.79763 -0.82232
#
# Static dielectric constant tensor:
#      x y z
#    x 1.743430 0.000020 -0.000020 
#    y 0.000020 1.743180 -0.000030 
#    z -0.000020 -0.000030 1.713740 
# 
# From -- ./inp_files/2167.got.cif
#   From: 2010.05.17/outbox.cif.g08.bks.cpg/sg155_2_cif.got.tgz:2167.got - 2010.05.20 10:44:35.
