data_PCOD9577951
_publ_section_title
;
Structure prediction by ZEFSAII (Michael W. Deem and Ramdas Pophale) SiO2 
 PCOD9577951
Probable space group: P -3 1 M 
;
_chemical_formula_sum "Si O2"
_cell_formula_units_Z 36
_cell_length_a 19.876050
_cell_length_b 19.876050
_cell_length_c 4.817993
_cell_angle_alpha 90.000000
_cell_angle_beta 90.000000
_cell_angle_gamma 120.000000
_cell_volume 1648.378562
_symmetry_space_group_name_H-M "P -3 1 M "
_symmetry_group_IT_number 162
_symmetry_cell_setting 'hexagonal'
loop_
_space_group_symop_operation_xyz
x,y,z
-y,x-y,z
-x+y,-x,z
-y,-x,-z
-x+y,y,-z
x,x-y,-z
-x,-y,-z
y,-x+y,-z
x-y,x,-z
y,x,z
x-y,-y,z
-x,-x+y,z
loop_
_atom_site_type_symbol
_atom_site_label
_atom_site_fract_x
_atom_site_fract_y
_atom_site_fract_z
Si Si1 0.732209 0.821201 0.766700
Si Si2 0.333251 0.509810 0.436096
Si Si3 0.586769 0.910459 0.940705
O O1 0.711732 0.855866 0.500000
O O2 0.782548 0.782548 0.674280
O O3 0.774490 0.887245 0.000000
O O4 0.658510 0.754855 0.937120
O O5 0.413398 0.586603 0.500000
O O6 0.260670 0.521339 0.500000
O O7 0.321694 0.437329 0.625338
O O8 0.336215 0.485860 0.121922
O O9 0.610273 0.000000 0.973937
#
# Coordination Sequence:
#
# PCOD9577951 Si02
#       3
#    12  12  12
#     4  11  22  39  64  93 125 161 205 254 309 368
#     4  12  25  42  63  88 124 165 205 245 295 364
#     4  11  24  41  65  93 120 155 200 258 313 353
#
# _framework density 21.839642999999999
#
# number of rings (size 3 to 8) (size 9 to 14) (size 15 to 20)
#    0.000    0.667    0.000    9.333    0.000    9.333 
#    0.000    3.333    0.000    6.667    0.000    0.000 
#    0.000    0.000    0.000    0.000    0.000    0.000 
#
# Total GULP energy -201529.779664 kJ/mol
# GULP energy per Si atom -5598.049435 kJ/mol
# Density = 2.178993 g / cm^3
# Si number density = 21.839643 Si / 1000 Ang^3
#
#
#
# Elastic Constant Matrix: (Units=GPa)
#
#
# Indices 1 2 3 4 5 6 
#
# 1 67.7504 53.4822 0.4988 -0.0014 7.9258 0.0000
# 2 53.4822 67.7504 0.4988 0.0014 -7.9258 0.0000
# 3 0.4988 0.4988 79.3887 0.0000 0.0000 0.0000
# 4 -0.0014 0.0014 0.0000 22.6902 0.0000 -7.9258
# 5 7.9258 -7.9258 0.0000 0.0000 22.6902 -0.0014
# 6 0.0000 0.0000 0.0000 -7.9258 -0.0014 7.1341
#
#
#
# Elastic Compliance Matrix: (Units=1/GPa)
#
#
# Indices 1 2 3 4 5 6 
#
# 1 0.061392 -0.053143 -0.000052 0.000007 -0.040008 0.000000
# 2 -0.053143 0.061392 -0.000052 -0.000007 0.040008 0.000000
# 3 -0.000052 -0.000052 0.012597 0.000000 0.000000 0.000000
# 4 0.000007 -0.000007 0.000000 0.072022 0.000000 0.080015
# 5 -0.040008 0.040008 0.000000 0.000000 0.072022 0.000015
# 6 0.000000 0.000000 0.000000 0.080015 0.000015 0.229068
#
#
# Mechanical properties :
#
#
# Convention : Reuss Voigt Hill
#
# Bulk Modulus (GPa) = 34.61686 35.98322 35.30004
# Shear Modulus (GPa) = 8.00494 21.19685 14.60090
#
# Velocity S-wave (km/s) = 1.91658 3.11877 2.58844
# Velocity P-wave (km/s) = 4.55879 5.42963 5.01316
#
# Compressibility (1/GPa) = 0.02888766
#
# Stress axis : x y z
#
# Youngs Moduli (GPa) = 16.28886 16.28886 79.38464
#
# Poissons Ratio (x) = 0.86563 0.00411
# Poissons Ratio (y) = 0.86563 0.00411
# Poissons Ratio (z) = 0.00084 0.00084
#
# Static dielectric constant tensor:
#      x y z
#    x 1.788380 0.000000 0.000000 
#    y 0.000000 1.788380 0.000000 
#    z 0.000000 0.000000 1.761630 
# 
# From -- ./inp_files/275.got.cif
#   From: 2010.05.17/outbox.cif.g08.bks.cpg/sg162_1_cif.got.tgz:275.got - 2010.05.20 10:53:12.
