data_PCOD9577167
_publ_section_title
;
Structure prediction by ZEFSAII (Michael W. Deem and Ramdas Pophale) SiO2 
 PCOD9577167
Probable space group: R 3 2
;
_chemical_formula_sum "Si O2"
_cell_formula_units_Z 54
_cell_length_a 22.444534
_cell_length_b 22.444534
_cell_length_c 5.585306
_cell_angle_alpha 90.000000
_cell_angle_beta 90.000000
_cell_angle_gamma 120.000000
_cell_volume 2436.681629
_symmetry_space_group_name_H-M "R 3 2"
_symmetry_group_IT_number 155
_symmetry_cell_setting 'hexagonal'
loop_
_space_group_symop_operation_xyz
x,y,z
-y,x-y,z
-x+y,-x,z
x-y,-y,-z
-x,-x+y,-z
y,x,-z
2/3+x,1/3+y,1/3+z
2/3-y,1/3+x-y,1/3+z
2/3-x+y,1/3-x,1/3+z
2/3+x-y,1/3-y,1/3-z
2/3-x,1/3-x+y,1/3-z
2/3+y,1/3+x,1/3-z
1/3+x,2/3+y,2/3+z
1/3-y,2/3+x-y,2/3+z
1/3-x+y,2/3-x,2/3+z
1/3+x-y,2/3-y,2/3-z
1/3-x,2/3-x+y,2/3-z
1/3+y,2/3+x,2/3-z
loop_
_atom_site_type_symbol
_atom_site_label
_atom_site_fract_x
_atom_site_fract_y
_atom_site_fract_z
Si Si1 0.532022 0.157398 0.084385
Si Si2 0.000000 0.481601 0.000000
Si Si3 0.786534 0.060645 0.313091
Si Si4 0.522282 0.333334 0.333334
O O1 0.506290 0.172956 0.333334
O O2 0.614595 0.192869 0.141919
O O3 0.489055 0.073872 0.056035
O O4 0.520001 0.186668 0.833334
O O5 0.020402 0.533666 0.221418
O O6 0.759581 0.000000 0.500000
O O7 0.724997 0.058330 0.166667
O O8 0.838784 0.051415 0.146452
#
# Coordination Sequence:
#
# PCOD9577167 Si02
#       4
#    18   9  18   9
#     4  12  29  52  82 111 162 212 267 333 387 472
#     4  12  26  47  78 116 154 201 264 320 406 466
#     4  12  23  41  73 119 166 194 234 324 411 485
#     4  12  26  47  80 116 154 207 268 324 406 470
#
# _framework density 22.161287000000002
#
# number of rings (size 3 to 8) (size 9 to 14) (size 15 to 20)
#    0.000    0.000    6.667    2.000    0.000    6.667 
#    4.000    0.000    7.333    0.000    0.000    0.000 
#    0.000    0.000    0.000    0.000    0.000    0.000 
#
# Total GULP energy -100477.886592 kJ/mol
# GULP energy per Si atom -5582.104811 kJ/mol
# Density = 2.211085 g / cm^3
# Si number density = 22.161287 Si / 1000 Ang^3
#
#
#
# Elastic Constant Matrix: (Units=GPa)
#
#
# Indices 1 2 3 4 5 6 
#
# 1 251.5591 -87.1078 68.7232 -147.2070 11.8912 -13.5445
# 2 -87.1078 253.3565 73.7593 148.2467 -11.8515 13.5743
# 3 68.7232 73.7593 175.7108 2.8206 -1.7510 1.6552
# 4 -147.2070 148.2467 2.8206 212.7480 -13.8337 15.6108
# 5 11.8912 -11.8515 -1.7510 -13.8337 256.1490 -190.1160
# 6 -13.5445 13.5743 1.6552 15.6108 -190.1160 210.9420
#
#
#
# Elastic Compliance Matrix: (Units=1/GPa)
#
#
# Indices 1 2 3 4 5 6 
#
# 1 0.008352 0.000926 -0.003739 0.005174 0.000001 0.000124
# 2 0.000926 0.008388 -0.003800 -0.005149 -0.000032 -0.000098
# 3 -0.003739 -0.003800 0.008750 -0.000051 0.000030 -0.000033
# 4 0.005174 -0.005149 -0.000051 0.011885 0.000009 -0.000207
# 5 0.000001 -0.000032 0.000030 0.000009 0.011792 0.010629
# 6 0.000124 -0.000098 -0.000033 -0.000207 0.010629 0.014350
#
#
# Mechanical properties :
#
#
# Convention : Reuss Voigt Hill
#
# Bulk Modulus (GPa) = 81.54411 87.93065 84.73738
# Shear Modulus (GPa) = 61.85599 177.65126 119.75362
#
# Velocity S-wave (km/s) = 5.28889 8.96309 7.35898
# Velocity P-wave (km/s) = 8.61232 12.11939 10.51313
#
# Compressibility (1/GPa) = 0.01226330
#
# Stress axis : x y z
#
# Youngs Moduli (GPa) = 119.73268 119.21544 114.28106
#
# Poissons Ratio (x) = -0.11039 0.42735
# Poissons Ratio (y) = -0.11087 0.43428
# Poissons Ratio (z) = 0.44774 0.45303
#
# Static dielectric constant tensor:
#      x y z
#    x 1.842280 -0.001450 0.000100 
#    y -0.001450 1.838410 0.000820 
#    z 0.000100 0.000820 1.806470 
# 
# From -- ./inp_files/669.got.cif
#   From: 2010.05.17/outbox.cif.g08.bks.cpg/sg155_1_cif.got.tgz:669.got - 2010.05.20 10:44:35.
