data_PCOD9577265
_publ_section_title
;
Structure prediction by ZEFSAII (Michael W. Deem and Ramdas Pophale) SiO2 
 PCOD9577265
Probable space group: P 3 1 M
;
_chemical_formula_sum "Si O2"
_cell_formula_units_Z 42
_cell_length_a 14.687975
_cell_length_b 14.687975
_cell_length_c 12.086679
_cell_angle_alpha 90.000000
_cell_angle_beta 90.000000
_cell_angle_gamma 120.000000
_cell_volume 2258.195144
_symmetry_space_group_name_H-M "P 3 1 M"
_symmetry_group_IT_number 157
_symmetry_cell_setting 'hexagonal'
loop_
_space_group_symop_operation_xyz
x,y,z
-y,x-y,z
-x+y,-x,z
y,x,z
x-y,-y,z
-x,-x+y,z
loop_
_atom_site_type_symbol
_atom_site_label
_atom_site_fract_x
_atom_site_fract_y
_atom_site_fract_z
Si Si1 0.247304 0.717949 0.718930
Si Si2 0.697890 0.122920 0.934555
Si Si3 0.755992 0.196414 0.477166
Si Si4 0.122918 0.551874 0.111474
Si Si5 0.122280 0.543543 0.358915
Si Si6 0.664736 0.785995 0.093682
Si Si7 0.123404 0.875053 0.328829
O O1 0.221187 0.596073 0.719445
O O2 0.194349 0.734617 0.826012
O O3 0.208808 0.746222 0.607242
O O4 0.620729 0.000000 0.906909
O O5 0.637426 0.164331 0.015292
O O6 0.795831 0.135420 0.006012
O O7 0.640006 0.130006 0.426820
O O8 0.809930 0.311912 0.421456
O O9 0.823845 0.146007 0.434642
O O10 0.165446 0.583816 0.235441
O O11 0.127293 0.447666 0.084399
O O12 0.000000 0.517472 0.119932
O O13 0.000000 0.451537 0.349505
O O14 0.752733 0.752733 0.074497
O O15 0.680184 0.829849 0.218499
O O16 0.000000 0.826233 0.313096
O O17 0.182467 0.000000 0.339722
#
# Coordination Sequence:
#
# PCOD9577265 Si02
#       7
#     6   6   6   6   6   6   6
#     4  10  22  42  58  82 120 160 206 247 294 368
#     4  11  22  37  59  88 119 157 207 255 305 363
#     4  12  21  39  60  86 119 161 203 252 303 369
#     4   9  19  34  53  84 118 150 191 243 305 367
#     4  11  21  36  57  86 121 152 194 249 302 367
#     4  10  20  38  59  84 121 158 199 251 311 376
#     4  11  23  40  63  92 126 164 207 257 313 370
#
# _framework density 18.598924
#
# number of rings (size 3 to 8) (size 9 to 14) (size 15 to 20)
#    0.286    1.143    2.857    3.429    0.000    2.286 
#    0.857    1.429    0.000    0.286    0.000    0.000 
#    0.000    0.000    0.000    0.000    0.000    0.000 
#
# Total GULP energy -234508.074079 kJ/mol
# GULP energy per Si atom -5583.525573 kJ/mol
# Density = 1.855659 g / cm^3
# Si number density = 18.598924 Si / 1000 Ang^3
#
#
#
# Elastic Constant Matrix: (Units=GPa)
#
#
# Indices 1 2 3 4 5 6 
#
# 1 54.1694 9.6732 33.5031 0.0000 0.1864 0.0000
# 2 9.6732 54.1694 33.5031 0.0000 -0.1864 0.0000
# 3 33.5031 33.5031 136.7539 0.0000 0.0000 0.0000
# 4 0.0000 0.0000 0.0000 14.0011 0.0000 -0.1864
# 5 0.1864 -0.1864 0.0000 0.0000 14.0011 0.0000
# 6 0.0000 0.0000 0.0000 -0.1864 0.0000 22.2481
#
#
#
# Elastic Compliance Matrix: (Units=1/GPa)
#
#
# Indices 1 2 3 4 5 6 
#
# 1 0.021781 -0.000696 -0.005166 0.000000 -0.000299 0.000000
# 2 -0.000696 0.021781 -0.005166 0.000000 0.000299 0.000000
# 3 -0.005166 -0.005166 0.009843 0.000000 0.000000 0.000000
# 4 0.000000 0.000000 0.000000 0.071431 0.000000 0.000598
# 5 -0.000299 0.000299 0.000000 0.000000 0.071431 0.000000
# 6 0.000000 0.000000 0.000000 0.000598 0.000000 0.044953
#
#
# Mechanical properties :
#
#
# Convention : Reuss Voigt Hill
#
# Bulk Modulus (GPa) = 31.89671 44.27240 38.08456
# Shear Modulus (GPa) = 18.26664 21.27763 19.77214
#
# Velocity S-wave (km/s) = 3.13730 3.38601 3.26403
# Velocity P-wave (km/s) = 5.50550 6.25637 5.89291
#
# Compressibility (1/GPa) = 0.03135120
#
# Stress axis : x y z
#
# Youngs Moduli (GPa) = 45.91219 45.91219 101.59060
#
# Poissons Ratio (x) = 0.03194 0.52478
# Poissons Ratio (y) = 0.03194 0.52478
# Poissons Ratio (z) = 0.23716 0.23716
#
# Static dielectric constant tensor:
#      x y z
#    x 1.652290 0.000000 0.000000 
#    y 0.000000 1.652290 0.000000 
#    z 0.000000 0.000000 1.623540 
# 
# From -- ./inp_files/583.got.cif
#   From: 2010.05.17/outbox.cif.g08.bks.cpg/sg157_cif.got.tgz:583.got - 2010.05.20 10:49:36.
