data_PCOD9577672
_publ_section_title
;
Structure prediction by ZEFSAII (Michael W. Deem and Ramdas Pophale) SiO2 
 PCOD9577672
Probable space group: P -3 1 M 
;
_chemical_formula_sum "Si O2"
_cell_formula_units_Z 60
_cell_length_a 18.480671
_cell_length_b 18.480671
_cell_length_c 11.047377
_cell_angle_alpha 90.000000
_cell_angle_beta 90.000000
_cell_angle_gamma 120.000000
_cell_volume 3267.572842
_symmetry_space_group_name_H-M "P -3 1 M "
_symmetry_group_IT_number 162
_symmetry_cell_setting 'hexagonal'
loop_
_space_group_symop_operation_xyz
x,y,z
-y,x-y,z
-x+y,-x,z
-y,-x,-z
-x+y,y,-z
x,x-y,-z
-x,-y,-z
y,-x+y,-z
x-y,x,-z
y,x,z
x-y,-y,z
-x,-x+y,z
loop_
_atom_site_type_symbol
_atom_site_label
_atom_site_fract_x
_atom_site_fract_y
_atom_site_fract_z
Si Si1 0.514246 0.899591 0.418363
Si Si2 0.906530 0.599388 0.077293
Si Si3 0.846979 0.589218 0.820838
Si Si4 0.556102 0.098413 0.839063
Si Si5 0.659465 0.901585 0.552094
O O1 0.432353 0.864706 0.500000
O O2 0.484109 0.885575 0.281592
O O3 0.577065 0.871404 0.468321
O O4 0.565936 0.000000 0.434983
O O5 0.828654 0.590703 0.152660
O O6 0.895290 0.506681 0.064312
O O7 0.000000 0.657863 0.128398
O O8 0.901057 0.629964 0.942614
O O9 0.843903 0.499665 0.823696
O O10 0.883281 0.631514 0.692290
O O11 0.530747 0.000000 0.834990
O O12 0.701195 0.850598 0.500000
O O13 0.717659 0.000000 0.537931
#
# Coordination Sequence:
#
# PCOD9577672 Si02
#       5
#    12  12  12  12  12
#     4   9  16  29  51  76 103 136 174 217 267 325
#     4  10  22  37  54  81 116 150 188 235 285 332
#     4  11  21  35  57  82 107 149 195 230 275 337
#     4  10  18  33  56  79 107 145 184 225 278 335
#     4  11  22  36  57  84 112 145 189 237 287 340
#
# _framework density 18.362254
#
# number of rings (size 3 to 8) (size 9 to 14) (size 15 to 20)
#    0.000    1.800    2.000    3.600    0.000    4.000 
#    1.200    0.000    0.000    0.600    0.000    0.000 
#    0.000    0.000    0.000   23.200    0.000    0.000 
#
# Total GULP energy -334233.783905 kJ/mol
# GULP energy per Si atom -5570.563065 kJ/mol
# Density = 1.832046 g / cm^3
# Si number density = 18.362254 Si / 1000 Ang^3
#
#
#
# Elastic Constant Matrix: (Units=GPa)
#
#
# Indices 1 2 3 4 5 6 
#
# 1 107.8391 58.5089 28.2635 -0.0001 -3.4351 0.0000
# 2 58.5089 107.8391 28.2635 0.0001 3.4351 0.0000
# 3 28.2635 28.2635 49.3984 0.0000 0.0000 0.0000
# 4 -0.0001 0.0001 0.0000 25.7161 0.0000 3.4351
# 5 -3.4351 3.4351 0.0000 0.0000 25.7161 -0.0001
# 6 0.0000 0.0000 0.0000 3.4351 -0.0001 24.6651
#
#
#
# Elastic Compliance Matrix: (Units=1/GPa)
#
#
# Indices 1 2 3 4 5 6 
#
# 1 0.014059 -0.006597 -0.004270 0.000000 0.002759 0.000000
# 2 -0.006597 0.014059 -0.004270 0.000000 -0.002759 0.000000
# 3 -0.004270 -0.004270 0.025129 0.000000 0.000000 0.000000
# 4 0.000000 0.000000 0.000000 0.039623 0.000000 -0.005518
# 5 0.002759 -0.002759 0.000000 0.000000 0.039623 0.000000
# 6 0.000000 0.000000 0.000000 -0.005518 0.000000 0.041312
#
#
# Mechanical properties :
#
#
# Convention : Reuss Voigt Hill
#
# Bulk Modulus (GPa) = 43.52452 55.01650 49.27051
# Shear Modulus (GPa) = 23.61428 25.22215 24.41821
#
# Velocity S-wave (km/s) = 3.59001 3.71021 3.65061
# Velocity P-wave (km/s) = 6.39835 6.95565 6.68281
#
# Compressibility (1/GPa) = 0.02297556
#
# Stress axis : x y z
#
# Youngs Moduli (GPa) = 71.12832 71.12832 39.79417
#
# Poissons Ratio (x) = 0.46921 0.16991
# Poissons Ratio (y) = 0.46921 0.16991
# Poissons Ratio (z) = 0.30369 0.30369
#
# Static dielectric constant tensor:
#      x y z
#    x 1.629470 0.000000 0.000000 
#    y 0.000000 1.629470 0.000000 
#    z 0.000000 0.000000 1.813290 
# 
# From -- ./inp_files/2344.got.cif
#   From: 2010.05.17/outbox.cif.g08.bks.cpg/sg162_2_cif.got.tgz:2344.got - 2010.05.20 10:53:12.
