data_PCOD9577572
_publ_section_title
;
Structure prediction by ZEFSAII (Michael W. Deem and Ramdas Pophale) SiO2 
 PCOD9577572
Probable space group: R 3 C
;
_chemical_formula_sum "Si O2"
_cell_formula_units_Z 108
_cell_length_a 16.311992
_cell_length_b 16.311992
_cell_length_c 19.825078
_cell_angle_alpha 90.000000
_cell_angle_beta 90.000000
_cell_angle_gamma 120.000000
_cell_volume 4568.351750
_symmetry_space_group_name_H-M "R 3 C"
_symmetry_group_IT_number 161
_symmetry_cell_setting 'hexagonal'
loop_
_space_group_symop_operation_xyz
x,y,z
-y,x-y,z
-x+y,-x,z
-x+y,y,1/2+z
x,x-y,1/2+z
-y,-x,1/2+z
2/3+x,1/3+y,1/3+z
2/3-y,1/3+x-y,1/3+z
2/3-x+y,1/3-x,1/3+z
2/3-x+y,1/3+y,5/6+z
2/3+x,1/3+x-y,5/6+z
2/3-y,1/3-x,5/6+z
1/3+x,2/3+y,2/3+z
1/3-y,2/3+x-y,2/3+z
1/3-x+y,2/3-x,2/3+z
1/3-x+y,2/3+y,1/6+z
1/3+x,2/3+x-y,1/6+z
1/3-y,2/3-x,1/6+z
loop_
_atom_site_type_symbol
_atom_site_label
_atom_site_fract_x
_atom_site_fract_y
_atom_site_fract_z
Si Si1 0.742488 0.518221 0.762543
Si Si2 0.913150 0.028239 0.146856
Si Si3 0.890662 0.468192 0.787998
Si Si4 0.758546 0.690920 0.825734
Si Si5 0.110450 0.177278 0.281980
Si Si6 0.784742 0.095913 0.070429
O O1 0.832635 0.521878 0.796614
O O2 0.642215 0.455729 0.797744
O O3 0.761563 0.624613 0.767526
O O4 0.734680 0.474137 0.688924
O O5 0.845400 0.065194 0.118848
O O6 0.023607 0.098121 0.126557
O O7 0.894761 0.006313 0.227240
O O8 0.968947 0.491151 0.843439
O O9 0.933528 0.488184 0.712614
O O10 0.753425 0.778374 0.796178
O O11 0.667352 0.628658 0.871283
O O12 0.073321 0.248278 0.261823
#
# Coordination Sequence:
#
# PCOD9577572 Si02
#       6
#    18  18  18  18  18  18
#     4  10  23  39  65  92 128 168 221 273 333 402
#     4  10  26  41  69 102 140 184 234 294 352 435
#     4  10  23  39  65  92 128 168 221 273 333 402
#     4  10  24  41  61 100 128 172 224 280 342 419
#     4  11  24  42  68  96 137 179 225 283 354 415
#     4  11  24  42  68  96 137 179 225 283 354 415
#
# _framework density 23.640913000000001
#
# number of rings (size 3 to 8) (size 9 to 14) (size 15 to 20)
#    0.333    1.333    0.000    2.333   11.667    5.333 
#    0.000    0.000    0.000    0.000    0.000    0.000 
#    0.000    0.000    0.000    0.000    0.000    0.000 
#
# Total GULP energy -200789.936730 kJ/mol
# GULP energy per Si atom -5577.498243 kJ/mol
# Density = 2.358710 g / cm^3
# Si number density = 23.640913 Si / 1000 Ang^3
#
#
#
# Elastic Constant Matrix: (Units=GPa)
#
#
# Indices 1 2 3 4 5 6 
#
# 1 52.8534 -5.6336 -3.6546 -1.4675 0.0000 0.0000
# 2 -5.6336 52.8534 -3.6546 1.4675 0.0000 0.0000
# 3 -3.6546 -3.6546 57.3085 0.0000 0.0000 0.0000
# 4 -1.4675 1.4675 0.0000 30.0819 0.0000 0.0000
# 5 0.0000 0.0000 0.0000 0.0000 30.0819 -1.4675
# 6 0.0000 0.0000 0.0000 0.0000 -1.4675 29.2435
#
#
#
# Elastic Compliance Matrix: (Units=1/GPa)
#
#
# Indices 1 2 3 4 5 6 
#
# 1 0.019264 0.002124 0.001364 0.000836 0.000000 0.000000
# 2 0.002124 0.019264 0.001364 -0.000836 0.000000 0.000000
# 3 0.001364 0.001364 0.017623 0.000000 0.000000 0.000000
# 4 0.000836 -0.000836 0.000000 0.033324 0.000000 0.000000
# 5 0.000000 0.000000 0.000000 0.000000 0.033324 0.001672
# 6 0.000000 0.000000 0.000000 0.000000 0.001672 0.034280
#
#
# Mechanical properties :
#
#
# Convention : Reuss Voigt Hill
#
# Bulk Modulus (GPa) = 15.18448 15.23662 15.21055
# Shear Modulus (GPa) = 29.52867 29.61203 29.57035
#
# Velocity S-wave (km/s) = 3.53802 3.54301 3.54052
# Velocity P-wave (km/s) = 4.80906 4.81625 4.81266
#
# Compressibility (1/GPa) = 0.06585671
#
# Stress axis : x y z
#
# Youngs Moduli (GPa) = 51.90969 51.90969 56.74276
#
# Poissons Ratio (x) = -0.11028 -0.07740
# Poissons Ratio (y) = -0.11028 -0.07740
# Poissons Ratio (z) = -0.07080 -0.07080
#
# Static dielectric constant tensor:
#      x y z
#    x 1.886110 0.000000 0.000000 
#    y 0.000000 1.886110 0.000000 
#    z 0.000000 0.000000 1.948570 
# 
# From -- ./inp_files/1681.got.cif
#   From: 2010.05.17/outbox.cif.g08.bks.cpg/sg161_cif.got.tgz:1681.got - 2010.05.20 10:52:32.
