data_PCOD9577350
_publ_section_title
;
Structure prediction by ZEFSAII (Michael W. Deem and Ramdas Pophale) SiO2 
 PCOD9577350
Probable space group: P 3 1 C
;
_chemical_formula_sum "Si O2"
_cell_formula_units_Z 48
_cell_length_a 15.308154
_cell_length_b 15.308154
_cell_length_c 11.419835
_cell_angle_alpha 90.000000
_cell_angle_beta 90.000000
_cell_angle_gamma 120.000000
_cell_volume 2317.587319
_symmetry_space_group_name_H-M "P 3 1 C"
_symmetry_group_IT_number 159
_symmetry_cell_setting 'hexagonal'
loop_
_space_group_symop_operation_xyz
x,y,z
-y,x-y,z
-x+y,-x,z
y,x,1/2+z
x-y,-y,1/2+z
-x,-x+y,1/2+z
loop_
_atom_site_type_symbol
_atom_site_label
_atom_site_fract_x
_atom_site_fract_y
_atom_site_fract_z
Si Si1 0.907020 0.557971 0.938560
Si Si2 0.140675 0.997082 0.079788
Si Si3 0.387659 0.951332 0.484267
Si Si4 0.658884 0.914061 0.852347
Si Si5 0.823775 0.178060 0.119311
Si Si6 0.144319 0.381300 0.039105
Si Si7 0.174601 0.104865 0.830904
Si Si8 0.238446 0.826902 0.301865
O O1 0.805245 0.524356 0.864967
O O2 0.998029 0.629685 0.853280
O O3 0.927074 0.476555 0.999265
O O4 0.895015 0.626887 0.036148
O O5 0.236231 0.098425 0.124226
O O6 0.183040 0.923335 0.048651
O O7 0.074006 0.944444 0.200402
O O8 0.124214 0.036721 0.949961
O O9 0.291544 0.884583 0.569306
O O10 0.343278 0.908796 0.356267
O O11 0.415587 0.066913 0.492919
O O12 0.615227 0.836548 0.746409
O O13 0.782605 0.973178 0.848385
O O14 0.608275 0.843666 0.963058
O O15 0.181449 0.426527 0.165517
O O16 0.291127 0.128174 0.826895
#
# Coordination Sequence:
#
# PCOD9577350 Si02
#       8
#     6   6   6   6   6   6   6   6
#     4  10  22  39  64  96 127 167 219 272 331 401
#     4  10  18  35  60  90 121 170 220 257 324 397
#     4  10  21  41  66  93 125 171 228 262 330 409
#     4  11  23  38  62  94 129 173 221 278 337 386
#     4  10  21  40  62  94 128 171 215 273 335 400
#     4  10  21  36  65  87 122 173 219 267 327 395
#     4  10  19  34  62  92 128 170 223 268 324 401
#     4   9  19  39  59  96 122 165 217 271 326 395
#
# _framework density 20.711193999999999
#
# number of rings (size 3 to 8) (size 9 to 14) (size 15 to 20)
#    0.000    2.000    5.000    0.750    8.750    1.000 
#    6.000    0.000    0.000   16.500    0.000    0.000 
#    0.000    0.000    0.000    0.000    0.000    0.000 
#
# Total GULP energy -267334.461813 kJ/mol
# GULP energy per Si atom -5569.467954 kJ/mol
# Density = 2.066405 g / cm^3
# Si number density = 20.711194 Si / 1000 Ang^3
#
#
#
# Elastic Constant Matrix: (Units=GPa)
#
#
# Indices 1 2 3 4 5 6 
#
# 1 61.5635 5.6834 -1.4092 0.0000 -15.3589 0.0000
# 2 5.6834 61.5635 -1.4092 0.0000 15.3589 0.0000
# 3 -1.4092 -1.4092 99.2033 0.0000 0.0000 0.0000
# 4 0.0000 0.0000 0.0000 25.8932 0.0000 15.3589
# 5 -15.3589 15.3589 0.0000 0.0000 25.8932 0.0000
# 6 0.0000 0.0000 0.0000 15.3589 0.0000 27.9400
#
#
#
# Elastic Compliance Matrix: (Units=1/GPa)
#
#
# Indices 1 2 3 4 5 6 
#
# 1 0.020717 -0.005837 0.000211 0.000000 0.015751 0.000000
# 2 -0.005837 0.020717 0.000211 0.000000 -0.015751 0.000000
# 3 0.000211 0.000211 0.010086 0.000000 0.000000 0.000000
# 4 0.000000 0.000000 0.000000 0.057306 0.000000 -0.031502
# 5 0.015751 -0.015751 0.000000 0.000000 0.057306 0.000000
# 6 0.000000 0.000000 0.000000 -0.031502 0.000000 0.053108
#
#
# Mechanical properties :
#
#
# Convention : Reuss Voigt Hill
#
# Bulk Modulus (GPa) = 24.57566 25.34002 24.95784
# Shear Modulus (GPa) = 20.52276 30.57628 25.54952
#
# Velocity S-wave (km/s) = 3.15127 3.84646 3.51609
# Velocity P-wave (km/s) = 5.01322 5.65583 5.34419
#
# Compressibility (1/GPa) = 0.04069066
#
# Stress axis : x y z
#
# Youngs Moduli (GPa) = 48.27031 48.27031 99.14426
#
# Poissons Ratio (x) = 0.28177 -0.02096
# Poissons Ratio (y) = 0.28177 -0.02096
# Poissons Ratio (z) = -0.01020 -0.01020
#
# Static dielectric constant tensor:
#      x y z
#    x 1.750120 0.000000 0.000000 
#    y 0.000000 1.750120 0.000000 
#    z 0.000000 0.000000 1.822570 
# 
# From -- ./inp_files/738.got.cif
#   From: 2010.05.17/outbox.cif.g08.bks.cpg/sg159_cif.got.tgz:738.got - 2010.05.20 10:50:30.
