data_PCOD9577503
_publ_section_title
;
Structure prediction by ZEFSAII (Michael W. Deem and Ramdas Pophale) SiO2 
 PCOD9577503
Probable space group: R 3 M
;
_chemical_formula_sum "Si O2"
_cell_formula_units_Z 81
_cell_length_a 22.500100
_cell_length_b 22.500100
_cell_length_c 8.355963
_cell_angle_alpha 90.000000
_cell_angle_beta 90.000000
_cell_angle_gamma 120.000000
_cell_volume 3663.498656
_symmetry_space_group_name_H-M "R 3 M"
_symmetry_group_IT_number 160
_symmetry_cell_setting 'hexagonal'
loop_
_space_group_symop_operation_xyz
x,y,z
-y,x-y,z
-x+y,-x,z
-x+y,y,z
x,x-y,z
-y,-x,z
2/3+x,1/3+y,1/3+z
2/3-y,1/3+x-y,1/3+z
2/3-x+y,1/3-x,1/3+z
2/3-x+y,1/3+y,1/3+z
2/3+x,1/3+x-y,1/3+z
2/3-y,1/3-x,1/3+z
1/3+x,2/3+y,2/3+z
1/3-y,2/3+x-y,2/3+z
1/3-x+y,2/3-x,2/3+z
1/3-x+y,2/3+y,2/3+z
1/3+x,2/3+x-y,2/3+z
1/3-y,2/3-x,2/3+z
loop_
_atom_site_type_symbol
_atom_site_label
_atom_site_fract_x
_atom_site_fract_y
_atom_site_fract_z
Si Si1 0.592442 0.407559 0.051003
Si Si2 0.136770 0.474418 0.568257
Si Si3 0.649935 0.824968 0.376802
Si Si4 0.895939 0.447970 0.477470
Si Si5 0.954909 0.045092 0.358802
Si Si6 0.989115 0.362931 0.075190
Si Si7 0.483726 0.516275 0.687002
O O1 0.550247 0.449754 0.048161
O O2 0.608981 0.391020 0.876782
O O3 0.658886 0.459765 0.153906
O O4 0.162369 0.438585 0.695441
O O5 0.089235 0.425577 0.427384
O O6 0.084653 0.489015 0.661400
O O7 0.679620 0.776738 0.437628
O O8 0.667550 0.833775 0.192632
O O9 0.825518 0.412759 0.583288
O O10 0.966711 0.483356 0.572489
O O11 0.037051 0.074101 0.331700
O O12 0.012192 0.333845 0.226760
#
# Coordination Sequence:
#
# PCOD9577503 Si02
#       7
#     9  18   9   9   9  18   9
#     4   9  20  47  62  95 143 178 233 311 352 430
#     4  10  24  40  69  99 139 185 237 296 378 435
#     4  10  23  41  64  96 140 183 225 297 363 427
#     4  11  24  49  70 102 156 178 243 322 346 449
#     4  10  24  42  78 101 135 201 246 301 377 426
#     4  11  23  44  69  98 139 187 237 293 357 446
#     4  12  23  39  72 108 134 194 237 295 388 434
#
# _framework density 22.110012999999999
#
# number of rings (size 3 to 8) (size 9 to 14) (size 15 to 20)
#    0.222    1.333    1.111    3.333    3.111    2.667 
#    0.000    1.111    0.000    0.000    0.000    0.000 
#    0.000    0.000    0.000    0.000    0.000    0.000 
#
# Total GULP energy -150371.025075 kJ/mol
# GULP energy per Si atom -5569.297225 kJ/mol
# Density = 2.205969 g / cm^3
# Si number density = 22.110013 Si / 1000 Ang^3
#
#
#
# Elastic Constant Matrix: (Units=GPa)
#
#
# Indices 1 2 3 4 5 6 
#
# 1 91.8194 63.3010 49.6910 3.4952 0.0119 0.0014
# 2 63.3010 91.8100 49.6714 -3.4910 -0.0006 0.0004
# 3 49.6910 49.6714 131.6101 0.0080 0.0341 0.0015
# 4 3.4952 -3.4910 0.0080 33.8885 0.0032 0.0014
# 5 0.0119 -0.0006 0.0341 0.0032 33.9104 3.4924
# 6 0.0014 0.0004 0.0015 0.0014 3.4924 14.2558
#
#
#
# Elastic Compliance Matrix: (Units=1/GPa)
#
#
# Indices 1 2 3 4 5 6 
#
# 1 0.022242 -0.013738 -0.003212 -0.003708 -0.000004 0.000000
# 2 -0.013738 0.022240 -0.003207 0.003709 0.000008 -0.000001
# 3 -0.003212 -0.003207 0.010021 -0.000001 -0.000009 0.000002
# 4 -0.003708 0.003709 -0.000001 0.030273 -0.000001 -0.000002
# 5 -0.000004 0.000008 -0.000009 -0.000001 0.030253 -0.007411
# 6 0.000000 -0.000001 0.000002 -0.000002 -0.007411 0.071963
#
#
# Mechanical properties :
#
#
# Convention : Reuss Voigt Hill
#
# Bulk Modulus (GPa) = 70.48072 71.17404 70.82738
# Shear Modulus (GPa) = 21.54826 26.58268 24.06547
#
# Velocity S-wave (km/s) = 3.12523 3.47117 3.30273
# Velocity P-wave (km/s) = 6.70591 6.95170 6.82991
#
# Compressibility (1/GPa) = 0.01418828
#
# Stress axis : x y z
#
# Youngs Moduli (GPa) = 44.96017 44.96325 99.78577
#
# Poissons Ratio (x) = 0.61772 0.32056
# Poissons Ratio (y) = 0.61768 0.32001
# Poissons Ratio (z) = 0.14443 0.14420
#
# Static dielectric constant tensor:
#      x y z
#    x 1.924850 0.000000 0.000000 
#    y 0.000000 1.924840 0.000000 
#    z 0.000000 0.000000 1.784990 
# 
# From -- ./inp_files/912.got.cif
#   From: 2010.05.17/outbox.cif.g08.bks.cpg/sg160_1_cif.got.tgz:912.got - 2010.05.20 10:51:19.
