data_PCOD9577040
_publ_section_title
;
Structure prediction by ZEFSAII (Michael W. Deem and Ramdas Pophale) SiO2 
 PCOD9577040
Probable space group: R 3 2
;
_chemical_formula_sum "Si O2"
_cell_formula_units_Z 81
_cell_length_a 23.651737
_cell_length_b 23.651737
_cell_length_c 7.708404
_cell_angle_alpha 90.000000
_cell_angle_beta 90.000000
_cell_angle_gamma 120.000000
_cell_volume 3734.402990
_symmetry_space_group_name_H-M "R 3 2"
_symmetry_group_IT_number 155
_symmetry_cell_setting 'hexagonal'
loop_
_space_group_symop_operation_xyz
x,y,z
-y,x-y,z
-x+y,-x,z
x-y,-y,-z
-x,-x+y,-z
y,x,-z
2/3+x,1/3+y,1/3+z
2/3-y,1/3+x-y,1/3+z
2/3-x+y,1/3-x,1/3+z
2/3+x-y,1/3-y,1/3-z
2/3-x,1/3-x+y,1/3-z
2/3+y,1/3+x,1/3-z
1/3+x,2/3+y,2/3+z
1/3-y,2/3+x-y,2/3+z
1/3-x+y,2/3-x,2/3+z
1/3+x-y,2/3-y,2/3-z
1/3-x,2/3-x+y,2/3-z
1/3+y,2/3+x,2/3-z
loop_
_atom_site_type_symbol
_atom_site_label
_atom_site_fract_x
_atom_site_fract_y
_atom_site_fract_z
Si Si1 0.000000 0.145555 0.000000
Si Si2 0.519696 0.511271 0.298277
Si Si3 0.529930 0.333334 0.833334
Si Si4 0.471702 0.609635 0.291460
Si Si5 0.666667 0.621989 0.333334
Si Si6 0.857970 0.055558 0.859790
O O1 0.935166 0.085502 0.911221
O O2 0.033864 0.188981 0.824754
O O3 0.500306 0.500306 0.500000
O O4 0.483174 0.550012 0.242858
O O5 0.598354 0.557912 0.285550
O O6 0.506567 0.445532 0.208640
O O7 0.591936 0.398064 0.755043
O O8 0.484391 0.306863 0.665158
O O9 0.519587 0.666667 0.166667
O O10 0.649631 0.649631 0.500000
O O11 0.818161 0.000000 0.000000
#
# Coordination Sequence:
#
# PCOD9577040 Si02
#       6
#     9  18   9  18   9  18
#     4  12  23  46  76 100 150 192 242 323 376 444
#     4  11  23  42  72 104 151 196 245 315 389 461
#     4  12  26  46  72 100 152 194 256 316 384 464
#     4  12  26  46  73 112 146 193 254 319 389 466
#     4  10  23  36  62 106 148 190 238 299 386 466
#     4  12  25  46  72 105 149 203 258 317 387 465
#
# _framework density 21.690211999999999
#
# number of rings (size 3 to 8) (size 9 to 14) (size 15 to 20)
#    0.000    0.444    6.667    1.333    3.111    2.667 
#    1.333    2.222    7.333    0.000    0.000    0.000 
#    0.000    0.000    0.000    0.000    0.000    0.000 
#
# Total GULP energy -150642.302413 kJ/mol
# GULP energy per Si atom -5579.344534 kJ/mol
# Density = 2.164084 g / cm^3
# Si number density = 21.690212 Si / 1000 Ang^3
#
#
#
# Elastic Constant Matrix: (Units=GPa)
#
#
# Indices 1 2 3 4 5 6 
#
# 1 106.4679 39.1040 51.7380 -5.4052 0.0255 0.0039
# 2 39.1040 106.4390 51.7028 5.4109 -0.0017 0.0033
# 3 51.7380 51.7028 156.1903 0.0082 -0.0004 -0.0019
# 4 -5.4052 5.4109 0.0082 25.6939 -0.0122 -0.0016
# 5 0.0255 -0.0017 -0.0004 -0.0122 25.6916 -5.3991
# 6 0.0039 0.0033 -0.0019 -0.0016 -5.3991 33.6652
#
#
#
# Elastic Compliance Matrix: (Units=1/GPa)
#
#
# Indices 1 2 3 4 5 6 
#
# 1 0.012175 -0.003192 -0.002977 0.003234 -0.000011 -0.000003
# 2 -0.003192 0.012176 -0.002973 -0.003235 0.000002 -0.000001
# 3 -0.002977 -0.002973 0.008373 -0.000003 0.000003 0.000002
# 4 0.003234 -0.003235 -0.000003 0.040281 0.000017 0.000004
# 5 -0.000011 0.000002 0.000003 0.000017 0.040281 0.006460
# 6 -0.000003 -0.000001 0.000002 0.000004 0.006460 0.030740
#
#
# Mechanical properties :
#
#
# Convention : Reuss Voigt Hill
#
# Bulk Modulus (GPa) = 69.24602 72.68743 70.96673
# Shear Modulus (GPa) = 29.91789 32.11362 31.01575
#
# Velocity S-wave (km/s) = 3.71796 3.85198 3.78556
# Velocity P-wave (km/s) = 7.10107 7.30534 7.20393
#
# Compressibility (1/GPa) = 0.01444126
#
# Stress axis : x y z
#
# Youngs Moduli (GPa) = 82.13223 82.12692 119.43509
#
# Poissons Ratio (x) = 0.26211 0.35554
# Poissons Ratio (y) = 0.26213 0.35512
# Poissons Ratio (z) = 0.24449 0.24419
#
# Static dielectric constant tensor:
#      x y z
#    x 1.866490 0.000030 -0.000040 
#    y 0.000030 1.866560 0.000000 
#    z -0.000040 0.000000 1.779070 
# 
# From -- ./inp_files/2608.got.cif
#   From: 2010.05.17/outbox.cif.g08.bks.cpg/sg155_2_cif.got.tgz:2608.got - 2010.05.20 10:44:35.
