data_PCOD9577832
_publ_section_title
;
Structure prediction by ZEFSAII (Michael W. Deem and Ramdas Pophale) SiO2 
 PCOD9577832
Probable space group: P -3 1 M 
;
_chemical_formula_sum "Si O2"
_cell_formula_units_Z 60
_cell_length_a 14.561643
_cell_length_b 14.561643
_cell_length_c 15.277947
_cell_angle_alpha 90.000000
_cell_angle_beta 90.000000
_cell_angle_gamma 120.000000
_cell_volume 2805.539514
_symmetry_space_group_name_H-M "P -3 1 M "
_symmetry_group_IT_number 162
_symmetry_cell_setting 'hexagonal'
loop_
_space_group_symop_operation_xyz
x,y,z
-y,x-y,z
-x+y,-x,z
-y,-x,-z
-x+y,y,-z
x,x-y,-z
-x,-y,-z
y,-x+y,-z
x-y,x,-z
y,x,z
x-y,-y,z
-x,-x+y,z
loop_
_atom_site_type_symbol
_atom_site_label
_atom_site_fract_x
_atom_site_fract_y
_atom_site_fract_z
Si Si1 0.230752 0.818267 0.911351
Si Si2 0.426195 0.874047 0.675500
Si Si3 0.538461 0.121933 0.130238
Si Si4 0.124447 0.786475 0.285041
Si Si5 0.879099 0.598644 0.570616
O O1 0.358159 0.877619 0.906297
O O2 0.194466 0.694212 0.914426
O O3 0.198400 0.846855 0.818304
O O4 0.174230 0.825771 0.000000
O O5 0.437367 0.834869 0.770524
O O6 0.311720 0.862958 0.677760
O O7 0.476960 0.836864 0.600943
O O8 0.505700 0.000000 0.676672
O O9 0.445379 0.000000 0.129409
O O10 0.211863 0.878423 0.345224
O O11 0.000000 0.749568 0.295418
O O12 0.802460 0.604919 0.500000
O O13 0.000000 0.649665 0.537027
#
# Coordination Sequence:
#
# PCOD9577832 Si02
#       5
#    12  12  12  12  12
#     4  11  21  32  53  83 116 159 205 245 293 349
#     4   8  17  35  57  82 114 153 191 234 287 350
#     4  10  20  36  54  79 118 159 202 250 296 349
#     4  10  21  39  60  85 123 162 201 247 295 354
#     4  11  22  39  63  90 117 150 195 244 304 365
#
# _framework density 21.386261999999999
#
# number of rings (size 3 to 8) (size 9 to 14) (size 15 to 20)
#    0.000    2.000    2.000    3.400    0.000    3.200 
#    1.200    3.000    0.000    3.600    0.000    0.000 
#    0.000    0.800    0.000    0.000    0.000    0.000 
#
# Total GULP energy -334585.480595 kJ/mol
# GULP energy per Si atom -5576.424677 kJ/mol
# Density = 2.133759 g / cm^3
# Si number density = 21.386262 Si / 1000 Ang^3
#
#
#
# Elastic Constant Matrix: (Units=GPa)
#
#
# Indices 1 2 3 4 5 6 
#
# 1 45.1639 20.3810 27.3655 -0.0001 10.0104 0.0000
# 2 20.3810 45.1639 27.3655 0.0001 -10.0104 0.0000
# 3 27.3655 27.3655 110.6749 0.0000 0.0000 0.0000
# 4 -0.0001 0.0001 0.0000 14.4137 0.0000 -10.0104
# 5 10.0104 -10.0104 0.0000 0.0000 14.4137 -0.0001
# 6 0.0000 0.0000 0.0000 -10.0104 -0.0001 12.3915
#
#
#
# Elastic Compliance Matrix: (Units=1/GPa)
#
#
# Indices 1 2 3 4 5 6 
#
# 1 0.055576 -0.036350 -0.004754 0.000001 -0.063843 0.000000
# 2 -0.036350 0.055576 -0.004754 -0.000001 0.063843 0.000000
# 3 -0.004754 -0.004754 0.011386 0.000000 0.000000 0.000000
# 4 0.000001 -0.000001 0.000000 0.158058 0.000000 0.127686
# 5 -0.063843 0.063843 0.000000 0.000000 0.158058 0.000002
# 6 0.000000 0.000000 0.000000 0.127686 0.000002 0.183852
#
#
# Mechanical properties :
#
#
# Convention : Reuss Voigt Hill
#
# Bulk Modulus (GPa) = 32.44289 39.02516 35.73403
# Shear Modulus (GPa) = 6.90136 16.63649 11.76893
#
# Velocity S-wave (km/s) = 1.79834 2.79212 2.34840
# Velocity P-wave (km/s) = 4.41757 5.35556 4.90902
#
# Compressibility (1/GPa) = 0.03082340
#
# Stress axis : x y z
#
# Youngs Moduli (GPa) = 17.99334 17.99334 87.82432
#
# Poissons Ratio (x) = 0.65405 0.41751
# Poissons Ratio (y) = 0.65405 0.41751
# Poissons Ratio (z) = 0.08554 0.08554
#
# Static dielectric constant tensor:
#      x y z
#    x 1.769710 0.000000 0.000000 
#    y 0.000000 1.769710 0.000000 
#    z 0.000000 0.000000 1.901490 
# 
# From -- ./inp_files/2917.got.cif
#   From: 2010.05.17/outbox.cif.g08.bks.cpg/sg162_2_cif.got.tgz:2917.got - 2010.05.20 10:53:12.
