data_PCOD9577015
_publ_section_title
;
Structure prediction by ZEFSAII (Michael W. Deem and Ramdas Pophale) SiO2 
 PCOD9577015
Probable space group: R 3 2
;
_chemical_formula_sum "Si O2"
_cell_formula_units_Z 108
_cell_length_a 16.107548
_cell_length_b 16.107548
_cell_length_c 22.286418
_cell_angle_alpha 90.000000
_cell_angle_beta 90.000000
_cell_angle_gamma 120.000000
_cell_volume 5007.601628
_symmetry_space_group_name_H-M "R 3 2"
_symmetry_group_IT_number 155
_symmetry_cell_setting 'hexagonal'
loop_
_space_group_symop_operation_xyz
x,y,z
-y,x-y,z
-x+y,-x,z
x-y,-y,-z
-x,-x+y,-z
y,x,-z
2/3+x,1/3+y,1/3+z
2/3-y,1/3+x-y,1/3+z
2/3-x+y,1/3-x,1/3+z
2/3+x-y,1/3-y,1/3-z
2/3-x,1/3-x+y,1/3-z
2/3+y,1/3+x,1/3-z
1/3+x,2/3+y,2/3+z
1/3-y,2/3+x-y,2/3+z
1/3-x+y,2/3-x,2/3+z
1/3+x-y,2/3-y,2/3-z
1/3-x,2/3-x+y,2/3-z
1/3+y,2/3+x,2/3-z
loop_
_atom_site_type_symbol
_atom_site_label
_atom_site_fract_x
_atom_site_fract_y
_atom_site_fract_z
Si Si1 0.000000 0.442015 0.500000
Si Si2 0.961258 0.527912 0.700504
Si Si3 0.548911 0.000000 0.000000
Si Si4 0.222188 0.747717 0.567333
Si Si5 0.788805 0.237948 0.269874
Si Si6 0.230101 0.463963 0.144034
Si Si7 0.482456 0.060371 0.118766
O O1 0.070853 0.532531 0.537581
O O2 0.062152 0.415913 0.454805
O O3 0.904698 0.582425 0.684128
O O4 0.888649 0.435520 0.739319
O O5 0.044020 0.586363 0.749820
O O6 0.028373 0.524304 0.647632
O O7 0.513238 0.040667 0.054473
O O8 0.313497 0.837493 0.599964
O O9 0.205049 0.651891 0.599444
O O10 0.240147 0.767578 0.496244
O O11 0.333334 0.484784 0.166667
O O12 0.216711 0.550045 0.166667
O O13 0.149232 0.371018 0.177850
#
# Coordination Sequence:
#
# PCOD9577015 Si02
#       7
#     9  18   9  18  18  18  18
#     4  10  24  44  62  98 134 182 220 286 352 412
#     4  11  23  38  63 100 127 166 225 280 333 393
#     4  12  22  40  68  98 126 170 222 284 332 398
#     4  10  22  39  63  94 135 177 224 277 332 406
#     4  11  22  40  66  98 136 183 229 280 343 409
#     4  11  22  41  65  92 128 173 222 276 335 402
#     4  10  23  41  64  95 131 171 223 277 344 400
#
# _framework density 21.567209999999999
#
# number of rings (size 3 to 8) (size 9 to 14) (size 15 to 20)
#    0.000    1.333    4.167    1.000    2.333    1.333 
#    0.000    1.667    0.000    0.000    0.000    0.000 
#    0.000    0.000    0.000    0.000    0.000    0.000 
#
# Total GULP energy -200458.248524 kJ/mol
# GULP energy per Si atom -5568.284681 kJ/mol
# Density = 2.151812 g / cm^3
# Si number density = 21.567210 Si / 1000 Ang^3
#
#
#
# Elastic Constant Matrix: (Units=GPa)
#
#
# Indices 1 2 3 4 5 6 
#
# 1 62.5661 16.9805 43.1894 -4.9208 0.0002 0.0000
# 2 16.9805 62.5661 43.1894 4.9208 -0.0002 0.0000
# 3 43.1894 43.1894 141.4592 0.0000 0.0000 0.0000
# 4 -4.9208 4.9208 0.0000 15.1808 0.0000 -0.0002
# 5 0.0002 -0.0002 0.0000 0.0000 15.1808 -4.9208
# 6 0.0000 0.0000 0.0000 -0.0002 -4.9208 22.7928
#
#
#
# Elastic Compliance Matrix: (Units=1/GPa)
#
#
# Indices 1 2 3 4 5 6 
#
# 1 0.021197 -0.002391 -0.005742 0.007646 0.000000 0.000000
# 2 -0.002391 0.021197 -0.005742 -0.007646 0.000000 0.000000
# 3 -0.005742 -0.005742 0.010575 0.000000 0.000000 0.000000
# 4 0.007646 -0.007646 0.000000 0.070829 0.000000 0.000001
# 5 0.000000 0.000000 0.000000 0.000000 0.070829 0.015292
# 6 0.000000 0.000000 0.000000 0.000001 0.015292 0.047175
#
#
# Mechanical properties :
#
#
# Convention : Reuss Voigt Hill
#
# Bulk Modulus (GPa) = 39.65025 52.59001 46.12013
# Shear Modulus (GPa) = 17.98838 21.51304 19.75071
#
# Velocity S-wave (km/s) = 2.89115 3.16173 3.02946
# Velocity P-wave (km/s) = 5.43777 6.14540 5.80238
#
# Compressibility (1/GPa) = 0.02522052
#
# Stress axis : x y z
#
# Youngs Moduli (GPa) = 47.17692 47.17692 94.56027
#
# Poissons Ratio (x) = 0.11278 0.54295
# Poissons Ratio (y) = 0.11278 0.54295
# Poissons Ratio (z) = 0.27088 0.27088
#
# Static dielectric constant tensor:
#      x y z
#    x 1.832350 0.000000 0.000000 
#    y 0.000000 1.832350 0.000000 
#    z 0.000000 0.000000 1.888480 
# 
# From -- ./inp_files/7505.got.cif
#   From: 2010.05.17/outbox.cif.g08.bks.cpg/sg155_4_cif.got.tgz:7505.got - 2010.05.20 10:44:35.
