data_PCOD9577013
_publ_section_title
;
Structure prediction by ZEFSAII (Michael W. Deem and Ramdas Pophale) SiO2 
 PCOD9577013
Probable space group: R 3 2
;
_chemical_formula_sum "Si O2"
_cell_formula_units_Z 69
_cell_length_a 14.254519
_cell_length_b 14.254519
_cell_length_c 18.640532
_cell_angle_alpha 90.000000
_cell_angle_beta 90.000000
_cell_angle_gamma 120.000000
_cell_volume 3280.152755
_symmetry_space_group_name_H-M "R 3 2"
_symmetry_group_IT_number 155
_symmetry_cell_setting 'hexagonal'
loop_
_space_group_symop_operation_xyz
x,y,z
-y,x-y,z
-x+y,-x,z
x-y,-y,-z
-x,-x+y,-z
y,x,-z
2/3+x,1/3+y,1/3+z
2/3-y,1/3+x-y,1/3+z
2/3-x+y,1/3-x,1/3+z
2/3+x-y,1/3-y,1/3-z
2/3-x,1/3-x+y,1/3-z
2/3+y,1/3+x,1/3-z
1/3+x,2/3+y,2/3+z
1/3-y,2/3+x-y,2/3+z
1/3-x+y,2/3-x,2/3+z
1/3+x-y,2/3-y,2/3-z
1/3-x,2/3-x+y,2/3-z
1/3+y,2/3+x,2/3-z
loop_
_atom_site_type_symbol
_atom_site_label
_atom_site_fract_x
_atom_site_fract_y
_atom_site_fract_z
Si Si1 0.188352 0.002544 0.732731
Si Si2 0.666667 0.333334 0.250447
Si Si3 0.600416 0.933749 0.166667
Si Si4 0.937625 0.165660 0.574308
Si Si5 0.158007 0.175122 0.821766
O O1 0.170095 0.003088 0.647618
O O2 0.316585 0.066839 0.749099
O O3 0.150000 0.079843 0.770447
O O4 0.122537 0.886229 0.771128
O O5 0.666668 0.333334 0.333334
O O6 0.741797 0.452777 0.219410
O O7 0.565108 0.843673 0.228737
O O8 0.721060 0.959594 0.147714
O O9 0.000000 0.180617 0.500000
#
# Coordination Sequence:
#
# PCOD9577013 Si02
#       5
#    18   6   9  18  18
#     4   9  20  39  61  85 122 163 190 249 319 363
#     4   9  18  39  60  93 118 155 202 258 312 363
#     4  10  22  40  60  92 122 156 214 256 290 368
#     4  10  22  39  58  88 127 153 206 255 301 369
#     4   9  19  39  64  83 123 159 202 248 311 376
#
# _framework density 21.035606000000001
#
# number of rings (size 3 to 8) (size 9 to 14) (size 15 to 20)
#    0.000    2.609    0.000    0.522    5.478    0.000 
#   10.174    2.609    0.000    0.000    0.000    0.000 
#    0.000    0.000    0.000    0.000    0.000    0.000 
#
# Total GULP energy -128165.674341 kJ/mol
# GULP energy per Si atom -5572.420624 kJ/mol
# Density = 2.098773 g / cm^3
# Si number density = 21.035606 Si / 1000 Ang^3
#
#
#
# Elastic Constant Matrix: (Units=GPa)
#
#
# Indices 1 2 3 4 5 6 
#
# 1 53.5887 18.4648 39.5169 -6.7599 -0.0007 0.0000
# 2 18.4648 53.5890 39.5180 6.7598 0.0008 0.0002
# 3 39.5169 39.5180 171.0574 -0.0004 0.0001 0.0002
# 4 -6.7599 6.7598 -0.0004 17.3437 0.0001 0.0007
# 5 -0.0007 0.0008 0.0001 0.0001 17.3436 -6.7599
# 6 0.0000 0.0002 0.0002 0.0007 -6.7599 17.5619
#
#
#
# Elastic Compliance Matrix: (Units=1/GPa)
#
#
# Indices 1 2 3 4 5 6 
#
# 1 0.026042 -0.007453 -0.004294 0.013055 0.000001 0.000000
# 2 -0.007453 0.026042 -0.004295 -0.013055 -0.000001 0.000000
# 3 -0.004294 -0.004295 0.007830 0.000000 0.000000 0.000000
# 4 0.013055 -0.013055 0.000000 0.067835 0.000000 -0.000003
# 5 0.000001 -0.000001 0.000000 0.000000 0.067835 0.026111
# 6 0.000000 0.000000 0.000000 -0.000003 0.026111 0.066992
#
#
# Mechanical properties :
#
#
# Convention : Reuss Voigt Hill
#
# Bulk Modulus (GPa) = 35.93167 52.58159 44.25663
# Shear Modulus (GPa) = 16.45069 22.49885 19.47477
#
# Velocity S-wave (km/s) = 2.79953 3.27396 3.04600
# Velocity P-wave (km/s) = 5.25055 6.27236 5.78406
#
# Compressibility (1/GPa) = 0.02783061
#
# Stress axis : x y z
#
# Youngs Moduli (GPa) = 38.39903 38.39886 127.71115
#
# Poissons Ratio (x) = 0.28620 0.54843
# Poissons Ratio (y) = 0.28620 0.54846
# Poissons Ratio (z) = 0.16490 0.16491
#
# Static dielectric constant tensor:
#      x y z
#    x 1.806970 0.000000 0.000000 
#    y 0.000000 1.806960 0.000000 
#    z 0.000000 0.000000 1.720960 
# 
# From -- ./inp_files/5910.got.cif
#   From: 2010.05.17/outbox.cif.g08.bks.cpg/sg155_3_cif.got.tgz:5910.got - 2010.05.20 10:44:35.
