data_PCOD9577005
_publ_section_title
;
Structure prediction by ZEFSAII (Michael W. Deem and Ramdas Pophale) SiO2 
 PCOD9577005
Probable space group: R 3 2
;
_chemical_formula_sum "Si O2"
_cell_formula_units_Z 54
_cell_length_a 16.542982
_cell_length_b 16.542982
_cell_length_c 11.200575
_cell_angle_alpha 90.000000
_cell_angle_beta 90.000000
_cell_angle_gamma 120.000000
_cell_volume 2654.596666
_symmetry_space_group_name_H-M "R 3 2"
_symmetry_group_IT_number 155
_symmetry_cell_setting 'hexagonal'
loop_
_space_group_symop_operation_xyz
x,y,z
-y,x-y,z
-x+y,-x,z
x-y,-y,-z
-x,-x+y,-z
y,x,-z
2/3+x,1/3+y,1/3+z
2/3-y,1/3+x-y,1/3+z
2/3-x+y,1/3-x,1/3+z
2/3+x-y,1/3-y,1/3-z
2/3-x,1/3-x+y,1/3-z
2/3+y,1/3+x,1/3-z
1/3+x,2/3+y,2/3+z
1/3-y,2/3+x-y,2/3+z
1/3-x+y,2/3-x,2/3+z
1/3+x-y,2/3-y,2/3-z
1/3-x,2/3-x+y,2/3-z
1/3+y,2/3+x,2/3-z
loop_
_atom_site_type_symbol
_atom_site_label
_atom_site_fract_x
_atom_site_fract_y
_atom_site_fract_z
Si Si1 0.044851 0.560299 0.128245
Si Si2 0.923898 0.882204 0.659599
Si Si3 0.525576 0.760154 0.594065
O O1 0.093171 0.666667 0.166667
O O2 0.967177 0.494042 0.223902
O O3 0.124266 0.537344 0.085995
O O4 0.000000 0.556908 0.000000
O O5 0.915204 0.857758 0.799122
O O6 0.900558 0.964043 0.636138
O O7 0.501356 0.666667 0.666667
O O8 0.482133 0.815466 0.666667
#
# Coordination Sequence:
#
# PCOD9577005 Si02
#       3
#    18  18  18
#     4  10  22  36  56  94 130 168 212 260 324 388
#     4   9  18  35  62  93 116 161 211 263 310 383
#     4  11  18  34  65  95 128 159 215 269 318 379
#
# _framework density 20.342074
#
# number of rings (size 3 to 8) (size 9 to 14) (size 15 to 20)
#    0.667    1.333    3.333    1.333    0.000    1.333 
#    0.000    0.000    0.000   18.000    0.000    0.000 
#    0.000    0.000    0.000    0.000    0.000    0.000 
#
# Total GULP energy -100295.760761 kJ/mol
# GULP energy per Si atom -5571.986709 kJ/mol
# Density = 2.029577 g / cm^3
# Si number density = 20.342074 Si / 1000 Ang^3
#
#
#
# Elastic Constant Matrix: (Units=GPa)
#
#
# Indices 1 2 3 4 5 6 
#
# 1 107.8356 57.5344 67.1582 -10.9023 0.0004 0.0000
# 2 57.5344 107.8356 67.1582 10.9023 -0.0004 0.0000
# 3 67.1582 67.1582 144.6338 0.0000 0.0000 0.0000
# 4 -10.9023 10.9023 0.0000 35.0849 0.0000 -0.0004
# 5 0.0004 -0.0004 0.0000 0.0000 35.0849 -10.9023
# 6 0.0000 0.0000 0.0000 -0.0004 -10.9023 25.1506
#
#
#
# Elastic Compliance Matrix: (Units=1/GPa)
#
#
# Indices 1 2 3 4 5 6 
#
# 1 0.016342 -0.006633 -0.004508 0.007139 0.000000 0.000000
# 2 -0.006633 0.016342 -0.004508 -0.007139 0.000000 0.000000
# 3 -0.004508 -0.004508 0.011100 0.000000 0.000000 0.000000
# 4 0.007139 -0.007139 0.000000 0.032939 0.000000 0.000001
# 5 0.000000 0.000000 0.000000 0.000000 0.032939 0.014279
# 6 0.000000 0.000000 0.000000 0.000001 0.014279 0.045950
#
#
# Mechanical properties :
#
#
# Convention : Reuss Voigt Hill
#
# Bulk Modulus (GPa) = 80.09279 82.66739 81.38009
# Shear Modulus (GPa) = 26.16809 30.29436 28.23122
#
# Velocity S-wave (km/s) = 3.59054 3.86326 3.72939
# Velocity P-wave (km/s) = 7.52647 7.78631 7.65749
#
# Compressibility (1/GPa) = 0.01248552
#
# Stress axis : x y z
#
# Youngs Moduli (GPa) = 61.19302 61.19302 90.08684
#
# Poissons Ratio (x) = 0.40591 0.40611
# Poissons Ratio (y) = 0.40591 0.40611
# Poissons Ratio (z) = 0.27586 0.27586
#
# Static dielectric constant tensor:
#      x y z
#    x 1.766040 0.000000 0.000000 
#    y 0.000000 1.766040 0.000000 
#    z 0.000000 0.000000 1.743570 
# 
# From -- ./inp_files/3473.got.cif
#   From: 2010.05.17/outbox.cif.g08.bks.cpg/sg155_2_cif.got.tgz:3473.got - 2010.05.20 10:44:35.
