data_PCOD9577518
_publ_section_title
;
Structure prediction by ZEFSAII (Michael W. Deem and Ramdas Pophale) SiO2 
 PCOD9577518
Probable space group: R 3 M
;
_chemical_formula_sum "Si O2"
_cell_formula_units_Z 30
_cell_length_a 18.000000
_cell_length_b 18.000000
_cell_length_c 18.000000
_cell_angle_alpha 90.000000
_cell_angle_beta 90.000000
_cell_angle_gamma 120.000000
_cell_volume 5050.660155
_symmetry_space_group_name_H-M "R 3 M"
_symmetry_group_IT_number 160
_symmetry_cell_setting 'hexagonal'
loop_
_space_group_symop_operation_xyz
x,y,z
-y,x-y,z
-x+y,-x,z
-x+y,y,z
x,x-y,z
-y,-x,z
2/3+x,1/3+y,1/3+z
2/3-y,1/3+x-y,1/3+z
2/3-x+y,1/3-x,1/3+z
2/3-x+y,1/3+y,1/3+z
2/3+x,1/3+x-y,1/3+z
2/3-y,1/3-x,1/3+z
1/3+x,2/3+y,2/3+z
1/3-y,2/3+x-y,2/3+z
1/3-x+y,2/3-x,2/3+z
1/3-x+y,2/3+y,2/3+z
1/3+x,2/3+x-y,2/3+z
1/3-y,2/3-x,2/3+z
loop_
_atom_site_type_symbol
_atom_site_label
_atom_site_fract_x
_atom_site_fract_y
_atom_site_fract_z
Si Si1 0.841877 0.333207 0.725265
Si Si2 0.666717 0.510266 0.553139
Si Si3 0.436082 0.049325 0.405500
Si Si4 0.844333 0.333726 0.258268
Si Si5 0.305676 0.238932 0.784773
O O1 0.852063 0.426032 0.741683
O O2 0.741615 0.258386 0.726344
O O3 0.872085 0.335305 0.639106
O O4 0.891099 0.300725 0.780073
O O5 0.756342 0.512683 0.542013
O O6 0.587144 0.412857 0.547200
O O7 0.652528 0.561576 0.486314
O O8 0.518948 0.037896 0.402634
O O9 0.448014 0.113091 0.337846
O O10 0.350058 0.957769 0.400191
O O11 0.820953 0.410477 0.260316
O O12 0.759045 0.240956 0.244511
O O13 0.918400 0.363372 0.194858
O O14 0.290712 0.145356 0.761108
#
# Coordination Sequence:
#
# PCOD9577518 Si02
#       5
#    18  18  18  18  18
#     4   9  18  33  54  80 112 150 192 236 285 342
#     4   9  17  30  51  82 118 152 185 225 282 351
#     4  10  21  35  55  84 113 147 187 235 292 341
#     4  10  21  38  61  87 118 153 190 231 280 342
#     4  10  22  38  54  77 111 154 198 235 276 328
#
# _framework density 5.9398179999999998
#
# number of rings (size 3 to 8) (size 9 to 14) (size 15 to 20)
#    0.000    2.400    0.000    1.800    2.800    3.200 
#    0.000    3.000    0.000    0.400    0.000    0.000 
#    0.000    0.000    0.000    0.000    0.000    0.000 
#
# Total GULP energy -167200.978686 kJ/mol
# GULP energy per Si atom -5573.365956 kJ/mol
# Density = 0.592630 g / cm^3
# Si number density = 5.939818 Si / 1000 Ang^3
#
#
#
# Elastic Constant Matrix: (Units=GPa)
#
#
# Indices 1 2 3 4 5 6 
#
# 1 108.6251 48.3710 47.6271 -2.7248 -0.0034 -0.0029
# 2 48.3710 108.6205 47.6256 2.7274 -0.0011 -0.0010
# 3 47.6271 47.6256 74.3990 0.0009 -0.0015 -0.0013
# 4 -2.7248 2.7274 0.0009 29.5007 -0.0013 -0.0011
# 5 -0.0034 -0.0011 -0.0015 -0.0013 29.5022 -2.7248
# 6 -0.0029 -0.0010 -0.0013 -0.0011 -2.7248 30.1271
#
#
#
# Elastic Compliance Matrix: (Units=1/GPa)
#
#
# Indices 1 2 3 4 5 6 
#
# 1 0.013576 -0.003161 -0.006667 0.001546 0.000001 0.000001
# 2 -0.003161 0.013576 -0.006667 -0.001547 0.000000 0.000000
# 3 -0.006667 -0.006667 0.021977 0.000000 0.000000 0.000000
# 4 0.001546 -0.001547 0.000000 0.034183 0.000002 0.000001
# 5 0.000001 0.000000 0.000000 0.000002 0.034181 0.003091
# 6 0.000001 0.000000 0.000000 0.000001 0.003091 0.033472
#
#
# Mechanical properties :
#
#
# Convention : Reuss Voigt Hill
#
# Bulk Modulus (GPa) = 61.96432 64.32133 63.14282
# Shear Modulus (GPa) = 26.40825 27.69407 27.05116
#
# Velocity S-wave (km/s) = 3.85384 3.94655 3.90047
# Velocity P-wave (km/s) = 7.39268 7.54596 7.46971
#
# Compressibility (1/GPa) = 0.01613832
#
# Stress axis : x y z
#
# Youngs Moduli (GPa) = 73.66166 73.65895 45.50274
#
# Poissons Ratio (x) = 0.23284 0.30337
# Poissons Ratio (y) = 0.23285 0.30336
# Poissons Ratio (z) = 0.49110 0.49108
#
# Static dielectric constant tensor:
#      x y z
#    x 1.618490 0.000000 0.000000 
#    y 0.000000 1.618490 0.000000 
#    z 0.000000 0.000000 1.616550 
# 
# From -- ./inp_files/2756.got.cif
#   From: 2010.05.17/outbox.ucp.g08.bks.cvg/sg160_2_cif.got.tgz:2756.got - 2010.06.11 15:14:33.
