data_PCOD9577665
_publ_section_title
;
Structure prediction by ZEFSAII (Michael W. Deem and Ramdas Pophale) SiO2 
 PCOD9577665
Probable space group: P -3 1 M 
;
_chemical_formula_sum "Si O2"
_cell_formula_units_Z 84
_cell_length_a 17.475294
_cell_length_b 17.475294
_cell_length_c 15.716307
_cell_angle_alpha 90.000000
_cell_angle_beta 90.000000
_cell_angle_gamma 120.000000
_cell_volume 4156.522323
_symmetry_space_group_name_H-M "P -3 1 M "
_symmetry_group_IT_number 162
_symmetry_cell_setting 'hexagonal'
loop_
_space_group_symop_operation_xyz
x,y,z
-y,x-y,z
-x+y,-x,z
-y,-x,-z
-x+y,y,-z
x,x-y,-z
-x,-y,-z
y,-x+y,-z
x-y,x,-z
y,x,z
x-y,-y,z
-x,-x+y,z
loop_
_atom_site_type_symbol
_atom_site_label
_atom_site_fract_x
_atom_site_fract_y
_atom_site_fract_z
Si Si1 0.096972 0.284106 0.618648
Si Si2 0.412425 0.521093 0.722158
Si Si3 0.599955 0.705315 0.411380
Si Si4 0.099501 0.202731 0.799268
Si Si5 0.360110 0.461304 0.412308
Si Si6 0.517244 0.413530 0.911570
Si Si7 0.900289 0.666094 0.933952
O O1 0.194344 0.321982 0.579978
O O2 0.098542 0.238129 0.705771
O O3 0.097170 0.375929 0.630766
O O4 0.000000 0.218121 0.577817
O O5 0.467697 0.467697 0.726889
O O6 0.319118 0.452718 0.677684
O O7 0.459406 0.599486 0.653676
O O8 0.414119 0.554791 0.817656
O O9 0.646197 0.646197 0.414615
O O10 0.535511 0.675024 0.493668
O O11 0.129805 0.129805 0.796051
O O12 0.172990 0.283677 0.853629
O O13 0.000000 0.159575 0.834898
O O14 0.436930 0.436930 0.425750
O O15 0.489471 0.489471 0.910575
O O16 0.426867 0.320088 0.914401
O O17 0.570654 0.429347 0.000000
O O18 0.000000 0.729207 0.967317
O O19 0.826799 0.653598 0.000000
#
# Coordination Sequence:
#
# PCOD9577665 Si02
#       7
#    12  12  12  12  12  12  12
#     4  10  20  32  48  75 112 152 194 241 292 347
#     4   9  17  31  52  77 103 130 168 224 286 349
#     4  10  18  31  53  78 107 146 192 242 293 344
#     4  10  20  34  52  76 110 157 213 270 323 367
#     4   9  18  31  49  76 106 137 178 231 291 348
#     4   9  18  32  51  76 105 137 172 216 279 352
#     4  10  20  34  53  79 110 146 193 250 309 365
#
# _framework density 20.209202000000001
#
# number of rings (size 3 to 8) (size 9 to 14) (size 15 to 20)
#    0.000    2.429    0.000    2.714    0.000    5.143 
#    0.000    5.000    0.000    3.429    0.000    4.000 
#    0.000   13.714    0.000    0.000    0.000    0.000 
#
# Total GULP energy -467720.532139 kJ/mol
# GULP energy per Si atom -5568.101573 kJ/mol
# Density = 2.016321 g / cm^3
# Si number density = 20.209202 Si / 1000 Ang^3
#
#
#
# Elastic Constant Matrix: (Units=GPa)
#
#
# Indices 1 2 3 4 5 6 
#
# 1 48.5993 10.2428 36.2656 0.0001 -3.7714 0.0000
# 2 10.2428 48.5993 36.2656 -0.0001 3.7714 0.0000
# 3 36.2656 36.2656 128.4103 0.0000 0.0000 0.0000
# 4 0.0001 -0.0001 0.0000 25.3035 0.0000 3.7714
# 5 -3.7714 3.7714 0.0000 0.0000 25.3035 0.0001
# 6 0.0000 0.0000 0.0000 3.7714 0.0001 19.1783
#
#
#
# Elastic Compliance Matrix: (Units=1/GPa)
#
#
# Indices 1 2 3 4 5 6 
#
# 1 0.026464 -0.000394 -0.007363 0.000000 0.004003 0.000000
# 2 -0.000394 0.026464 -0.007363 0.000000 -0.004003 0.000000
# 3 -0.007363 -0.007363 0.011946 0.000000 0.000000 0.000000
# 4 0.000000 0.000000 0.000000 0.040714 0.000000 -0.008006
# 5 0.004003 -0.004003 0.000000 0.000000 0.040714 0.000000
# 6 0.000000 0.000000 0.000000 -0.008006 0.000000 0.053717
#
#
# Mechanical properties :
#
#
# Convention : Reuss Voigt Hill
#
# Bulk Modulus (GPa) = 28.87180 43.46186 36.16683
# Shear Modulus (GPa) = 20.67795 23.47937 22.07866
#
# Velocity S-wave (km/s) = 3.20221 3.41224 3.30889
# Velocity P-wave (km/s) = 5.29053 6.08910 5.70381
#
# Compressibility (1/GPa) = 0.03463587
#
# Stress axis : x y z
#
# Youngs Moduli (GPa) = 37.78667 37.78667 83.70775
#
# Poissons Ratio (x) = 0.01489 0.61632
# Poissons Ratio (y) = 0.01489 0.61632
# Poissons Ratio (z) = 0.27821 0.27821
#
# Static dielectric constant tensor:
#      x y z
#    x 1.772520 0.000000 0.000000 
#    y 0.000000 1.772520 0.000000 
#    z 0.000000 0.000000 1.773630 
# 
# From -- ./inp_files/3216.got.cif
#   From: 2010.05.17/outbox.cif.g08.bks.cpg/sg162_2_cif.got.tgz:3216.got - 2010.05.20 10:53:12.
