data_PCOD9577860
_publ_section_title
;
Structure prediction by ZEFSAII (Michael W. Deem and Ramdas Pophale) SiO2 
 PCOD9577860
Probable space group: P -3 1 M 
;
_chemical_formula_sum "Si O2"
_cell_formula_units_Z 48
_cell_length_a 17.836272
_cell_length_b 17.836272
_cell_length_c 8.937641
_cell_angle_alpha 90.000000
_cell_angle_beta 90.000000
_cell_angle_gamma 120.000000
_cell_volume 2462.417626
_symmetry_space_group_name_H-M "P -3 1 M "
_symmetry_group_IT_number 162
_symmetry_cell_setting 'hexagonal'
loop_
_space_group_symop_operation_xyz
x,y,z
-y,x-y,z
-x+y,-x,z
-y,-x,-z
-x+y,y,-z
x,x-y,-z
-x,-y,-z
y,-x+y,-z
x-y,x,-z
y,x,z
x-y,-y,z
-x,-x+y,z
loop_
_atom_site_type_symbol
_atom_site_label
_atom_site_fract_x
_atom_site_fract_y
_atom_site_fract_z
Si Si1 0.617168 0.787259 0.172289
Si Si2 0.394316 0.490967 0.690024
Si Si3 0.500399 0.320202 0.396460
Si Si4 0.100486 0.900070 0.323091
O O1 0.565386 0.684259 0.199897
O O2 0.566980 0.821198 0.278679
O O3 0.715327 0.834745 0.230026
O O4 0.613835 0.806918 0.000000
O O5 0.471004 0.471004 0.715568
O O6 0.428672 0.593540 0.687352
O O7 0.355658 0.461147 0.522405
O O8 0.531945 0.265973 0.500000
O O9 0.111649 0.888352 0.500000
O O10 0.000000 0.837188 0.283587
O O11 0.127291 0.000000 0.303232
#
# Coordination Sequence:
#
# PCOD9577860 Si02
#       4
#    12  12  12  12
#     4  11  24  39  55  86 124 161 194 237 298 360
#     4  10  20  39  64  86 112 150 203 252 295 349
#     4   9  19  37  60  88 115 146 195 251 297 348
#     4  10  21  39  64  90 117 152 199 252 303 357
#
# _framework density 19.493037000000001
#
# number of rings (size 3 to 8) (size 9 to 14) (size 15 to 20)
#    0.000    2.000    0.000    4.750    0.000    8.000 
#   39.000    1.250    0.000    1.500    0.000    0.000 
#    0.000    0.000    0.000    0.000    0.000    0.000 
#
# Total GULP energy -267731.524493 kJ/mol
# GULP energy per Si atom -5577.740094 kJ/mol
# Density = 1.944867 g / cm^3
# Si number density = 19.493037 Si / 1000 Ang^3
#
#
#
# Elastic Constant Matrix: (Units=GPa)
#
#
# Indices 1 2 3 4 5 6 
#
# 1 91.6112 34.2483 25.3355 -0.0001 4.1760 0.0000
# 2 34.2483 91.6112 25.3355 0.0001 -4.1760 0.0000
# 3 25.3355 25.3355 54.8713 0.0000 0.0000 0.0000
# 4 -0.0001 0.0001 0.0000 3.5297 0.0000 -4.1760
# 5 4.1760 -4.1760 0.0000 0.0000 3.5297 -0.0001
# 6 0.0000 0.0000 0.0000 -4.1760 -0.0001 28.6814
#
#
#
# Elastic Compliance Matrix: (Units=1/GPa)
#
#
# Indices 1 2 3 4 5 6 
#
# 1 0.015410 -0.005651 -0.004506 0.000000 -0.024918 0.000000
# 2 -0.005651 0.015410 -0.004506 0.000000 0.024918 0.000000
# 3 -0.004506 -0.004506 0.022386 0.000000 0.000000 0.000000
# 4 0.000000 0.000000 0.000000 0.342272 0.000000 0.049835
# 5 -0.024918 0.024918 0.000000 0.000000 0.342272 0.000001
# 6 0.000000 0.000000 0.000000 0.049835 0.000001 0.042122
#
#
# Mechanical properties :
#
#
# Convention : Reuss Voigt Hill
#
# Bulk Modulus (GPa) = 41.87620 45.32584 43.60102
# Shear Modulus (GPa) = 6.11876 17.35979 11.73927
#
# Velocity S-wave (km/s) = 1.77363 2.98747 2.45670
# Velocity P-wave (km/s) = 5.07185 5.93319 5.51935
#
# Compressibility (1/GPa) = 0.02387991
#
# Stress axis : x y z
#
# Youngs Moduli (GPa) = 64.89196 64.89196 44.67126
#
# Poissons Ratio (x) = 0.36668 0.20130
# Poissons Ratio (y) = 0.36668 0.20130
# Poissons Ratio (z) = 0.29242 0.29242
#
# Static dielectric constant tensor:
#      x y z
#    x 1.707960 0.000000 0.000000 
#    y 0.000000 1.707960 0.000000 
#    z 0.000000 0.000000 1.656550 
# 
# From -- ./inp_files/1196.got.cif
#   From: 2010.05.17/outbox.cif.g08.bks.cpg/sg162_1_cif.got.tgz:1196.got - 2010.05.20 10:53:12.
