data_PCOD9577185
_publ_section_title
;
Structure prediction by ZEFSAII (Michael W. Deem and Ramdas Pophale) SiO2 
 PCOD9577185
Probable space group: R 3 2
;
_chemical_formula_sum "Si O2"
_cell_formula_units_Z 28
_cell_length_a 15.000000
_cell_length_b 15.000000
_cell_length_c 24.000000
_cell_angle_alpha 90.000000
_cell_angle_beta 90.000000
_cell_angle_gamma 120.000000
_cell_volume 4676.537180
_symmetry_space_group_name_H-M "R 3 2"
_symmetry_group_IT_number 155
_symmetry_cell_setting 'hexagonal'
loop_
_space_group_symop_operation_xyz
x,y,z
-y,x-y,z
-x+y,-x,z
x-y,-y,-z
-x,-x+y,-z
y,x,-z
2/3+x,1/3+y,1/3+z
2/3-y,1/3+x-y,1/3+z
2/3-x+y,1/3-x,1/3+z
2/3+x-y,1/3-y,1/3-z
2/3-x,1/3-x+y,1/3-z
2/3+y,1/3+x,1/3-z
1/3+x,2/3+y,2/3+z
1/3-y,2/3+x-y,2/3+z
1/3-x+y,2/3-x,2/3+z
1/3+x-y,2/3-y,2/3-z
1/3-x,2/3-x+y,2/3-z
1/3+y,2/3+x,2/3-z
loop_
_atom_site_type_symbol
_atom_site_label
_atom_site_fract_x
_atom_site_fract_y
_atom_site_fract_z
Si Si1 0.000000 0.000000 0.721162
Si Si2 0.000000 0.479667 0.500000
Si Si3 0.826045 0.159378 0.666667
Si Si4 0.193214 0.906826 0.154573
Si Si5 0.660059 0.130666 0.098888
Si Si6 0.666668 0.333334 0.746175
Si Si7 0.669933 0.542059 0.753036
O O1 0.893405 0.986335 0.743700
O O2 0.000000 0.000000 0.654390
O O3 0.906980 0.363744 0.485740
O O4 0.959269 0.523670 0.549275
O O5 0.739870 0.124737 0.617814
O O6 0.850130 0.267829 0.694935
O O7 0.254545 0.883922 0.203349
O O8 0.228407 0.872292 0.098319
O O9 0.077803 0.845482 0.178435
O O10 0.657442 0.431223 0.764728
#
# Coordination Sequence:
#
# PCOD9577185 Si02
#       7
#     6   9   9  18  18   6  18
#     4  12  21  36  61  88 114 151 202 246 291 349
#     4  10  20  36  60  82 108 158 204 246 294 342
#     4  10  20  36  56  88 120 152 188 240 296 360
#     4   9  21  37  54  80 114 158 193 239 296 346
#     4  11  21  38  61  85 118 152 203 251 290 362
#     4  12  21  31  58  93 111 153 181 229 303 358
#     4   9  20  34  52  80 119 148 185 226 291 357
#
# _framework density 5.987336
#
# number of rings (size 3 to 8) (size 9 to 14) (size 15 to 20)
#    0.000    2.143    4.286    0.000    0.000    6.857 
#    0.000    0.000    0.000    0.000    0.000    0.000 
#    0.000   17.143    0.000    0.000    0.000    0.000 
#
# Total GULP energy -155955.528372 kJ/mol
# GULP energy per Si atom -5569.840299 kJ/mol
# Density = 0.597371 g / cm^3
# Si number density = 5.987336 Si / 1000 Ang^3
#
#
#
# Elastic Constant Matrix: (Units=GPa)
#
#
# Indices 1 2 3 4 5 6 
#
# 1 79.6698 33.1503 41.1592 11.2629 0.0000 0.0000
# 2 33.1503 79.6689 41.1591 -11.2628 0.0000 0.0000
# 3 41.1592 41.1591 73.7078 0.0000 0.0000 0.0000
# 4 11.2629 -11.2628 0.0000 31.3385 0.0000 0.0000
# 5 0.0000 0.0000 0.0000 0.0000 31.3386 11.2629
# 6 0.0000 0.0000 0.0000 0.0000 11.2629 23.2594
#
#
#
# Elastic Compliance Matrix: (Units=1/GPa)
#
#
# Indices 1 2 3 4 5 6 
#
# 1 0.020492 -0.005534 -0.008353 -0.009353 0.000000 0.000000
# 2 -0.005534 0.020492 -0.008353 0.009353 0.000000 0.000000
# 3 -0.008353 -0.008353 0.022896 0.000000 0.000000 0.000000
# 4 -0.009353 0.009353 0.000000 0.038633 0.000000 0.000000
# 5 0.000000 0.000000 0.000000 0.000000 0.038633 -0.018707
# 6 0.000000 0.000000 0.000000 0.000000 -0.018707 0.052052
#
#
# Mechanical properties :
#
#
# Convention : Reuss Voigt Hill
#
# Bulk Modulus (GPa) = 51.54398 51.55373 51.54885
# Shear Modulus (GPa) = 20.47981 25.02584 22.75283
#
# Velocity S-wave (km/s) = 3.38031 3.73670 3.56296
# Velocity P-wave (km/s) = 6.63278 6.88339 6.75924
#
# Compressibility (1/GPa) = 0.01940091
#
# Stress axis : x y z
#
# Youngs Moduli (GPa) = 48.79978 48.79911 43.67626
#
# Poissons Ratio (x) = 0.27004 0.36482
# Poissons Ratio (y) = 0.27004 0.36483
# Poissons Ratio (z) = 0.40762 0.40762
#
# Static dielectric constant tensor:
#      x y z
#    x 1.640290 0.000000 0.000000 
#    y 0.000000 1.640300 0.000000 
#    z 0.000000 0.000000 1.656610 
# 
# From -- ./inp_files/7433.got.cif
#   From: 2010.05.17/outbox.ucp.g08.bks.cvg/sg155_4_cif.got.tgz:7433.got - 2010.06.11 15:13:48.
