data_PCOD9577761
_publ_section_title
;
Structure prediction by ZEFSAII (Michael W. Deem and Ramdas Pophale) SiO2 
 PCOD9577761
Probable space group: P -3 1 M 
;
_chemical_formula_sum "Si O2"
_cell_formula_units_Z 46
_cell_length_a 18.566849
_cell_length_b 18.566849
_cell_length_c 9.066207
_cell_angle_alpha 90.000000
_cell_angle_beta 90.000000
_cell_angle_gamma 120.000000
_cell_volume 2706.653570
_symmetry_space_group_name_H-M "P -3 1 M "
_symmetry_group_IT_number 162
_symmetry_cell_setting 'hexagonal'
loop_
_space_group_symop_operation_xyz
x,y,z
-y,x-y,z
-x+y,-x,z
-y,-x,-z
-x+y,y,-z
x,x-y,-z
-x,-y,-z
y,-x+y,-z
x-y,x,-z
y,x,z
x-y,-y,z
-x,-x+y,z
loop_
_atom_site_type_symbol
_atom_site_label
_atom_site_fract_x
_atom_site_fract_y
_atom_site_fract_z
Si Si1 0.430428 0.860856 0.000000
Si Si2 0.333334 0.666667 0.673845
Si Si3 0.371032 0.466467 0.537479
Si Si4 0.728379 0.506736 0.208371
Si Si5 0.329053 0.909691 0.798005
O O1 0.342543 0.810262 0.083919
O O2 0.500626 0.907902 0.124482
O O3 0.333334 0.666667 0.500000
O O4 0.270355 0.574599 0.731341
O O5 0.438369 0.561632 0.500000
O O6 0.422146 0.422146 0.592614
O O7 0.306898 0.462226 0.658837
O O8 0.333214 0.427456 0.379207
O O9 0.821844 0.573779 0.162923
O O10 0.341981 0.000000 0.838740
#
# Coordination Sequence:
#
# PCOD9577761 Si02
#       5
#     6   4  12  12  12
#     4  12  23  34  48  70  96 128 162 212 252 296
#     4  12  21  31  50  70  90 124 164 211 249 286
#     4  10  19  35  53  72  96 128 163 206 251 300
#     4  12  22  35  50  73  96 125 168 209 253 290
#     4  11  23  36  51  68  95 127 165 205 254 296
#
# _framework density 16.995156999999999
#
# number of rings (size 3 to 8) (size 9 to 14) (size 15 to 20)
#    0.000    0.783    5.217    4.304    0.000    1.043 
#    0.000    0.000    0.000    0.000    0.000    0.000 
#    0.000    0.000    0.000    0.783    0.000   17.478 
#
# Total GULP energy -256659.813654 kJ/mol
# GULP energy per Si atom -5579.561166 kJ/mol
# Density = 1.695648 g / cm^3
# Si number density = 16.995157 Si / 1000 Ang^3
#
#
#
# Elastic Constant Matrix: (Units=GPa)
#
#
# Indices 1 2 3 4 5 6 
#
# 1 82.4579 43.3723 30.9648 0.0001 2.7237 -0.0001
# 2 43.3723 82.4577 30.9647 0.0000 -2.7237 -0.0001
# 3 30.9648 30.9647 86.1808 0.0000 0.0001 -0.0001
# 4 0.0001 0.0000 0.0000 1.5091 0.0000 -2.7237
# 5 2.7237 -2.7237 0.0001 0.0000 1.5092 0.0001
# 6 -0.0001 -0.0001 -0.0001 -2.7237 0.0001 19.5428
#
#
#
# Elastic Compliance Matrix: (Units=1/GPa)
#
#
# Indices 1 2 3 4 5 6 
#
# 1 0.021919 -0.012264 -0.003469 -0.000001 -0.061691 0.000000
# 2 -0.012264 0.021919 -0.003469 0.000000 0.061691 -0.000001
# 3 -0.003469 -0.003469 0.014096 0.000000 -0.000001 0.000000
# 4 -0.000001 0.000000 0.000000 0.885329 -0.000008 0.123387
# 5 -0.061691 0.061691 -0.000001 -0.000008 0.885275 -0.000008
# 6 0.000000 -0.000001 0.000000 0.123387 -0.000008 0.068366
#
#
# Mechanical properties :
#
#
# Convention : Reuss Voigt Hill
#
# Bulk Modulus (GPa) = 51.20387 51.30001 51.25194
# Shear Modulus (GPa) = 2.57491 14.23185 8.40338
#
# Velocity S-wave (km/s) = 1.23222 2.89694 2.22605
# Velocity P-wave (km/s) = 5.67613 6.43741 6.06872
#
# Compressibility (1/GPa) = 0.01952977
#
# Stress axis : x y z
#
# Youngs Moduli (GPa) = 45.62333 45.62327 70.94095
#
# Poissons Ratio (x) = 0.55953 0.24608
# Poissons Ratio (y) = 0.55953 0.24609
# Poissons Ratio (z) = 0.15826 0.15826
#
# Static dielectric constant tensor:
#      x y z
#    x 1.608260 0.000000 0.000000 
#    y 0.000000 1.608260 0.000000 
#    z 0.000000 0.000000 1.666170 
# 
# From -- ./inp_files/1245.got.cif
#   From: 2010.05.17/outbox.cif.g08.bks.cpg/sg162_1_cif.got.tgz:1245.got - 2010.05.20 10:53:12.
