data_PCOD9577981
_publ_section_title
;
Structure prediction by ZEFSAII (Michael W. Deem and Ramdas Pophale) SiO2 
 PCOD9577981
Probable space group: P -3 1 C
;
_chemical_formula_sum "Si O2"
_cell_formula_units_Z 60
_cell_length_a 27.549260
_cell_length_b 27.549260
_cell_length_c 5.694743
_cell_angle_alpha 90.000000
_cell_angle_beta 90.000000
_cell_angle_gamma 120.000000
_cell_volume 3743.041452
_symmetry_space_group_name_H-M "P -3 1 C"
_symmetry_group_IT_number 163
_symmetry_cell_setting 'hexagonal'
loop_
_space_group_symop_operation_xyz
x,y,z
-y,x-y,z
-x+y,-x,z
-y,-x,1/2-z
-x+y,y,1/2-z
x,x-y,1/2-z
-x,-y,-z
y,-x+y,-z
x-y,x,-z
y,x,1/2+z
x-y,-y,1/2+z
-x,-x+y,1/2+z
loop_
_atom_site_type_symbol
_atom_site_label
_atom_site_fract_x
_atom_site_fract_y
_atom_site_fract_z
Si Si1 0.149352 0.753765 0.350562
Si Si2 0.479382 0.422862 0.148547
Si Si3 0.236165 0.763836 0.750000
Si Si4 0.668952 0.027795 0.017044
Si Si5 0.334630 0.486279 0.994554
Si Si6 0.433762 0.867524 0.250000
O O1 0.182101 0.817900 0.250000
O O2 0.194763 0.759368 0.541333
O O3 0.089548 0.722825 0.480054
O O4 0.140975 0.708654 0.146985
O O5 0.513017 0.486984 0.250000
O O6 0.474655 0.377433 0.343677
O O7 0.418298 0.390779 0.028254
O O8 0.523380 0.428034 0.952651
O O9 0.205578 0.701451 0.839031
O O10 0.666681 0.995406 0.775659
O O11 0.371986 0.538316 0.156222
#
# Coordination Sequence:
#
# PCOD9577981 Si02
#       6
#    12  12   6  12  12   6
#     4  10  21  36  56  75 102 133 175 210 255 317
#     4  10  21  34  49  68 107 141 170 199 254 327
#     4  10  18  30  58  70  96 112 179 206 264 298
#     4  12  25  38  54  79 113 141 173 221 268 305
#     4  10  17  32  50  76  96 126 166 217 251 312
#     4  10  18  30  52  66 108 122 175 198 262 310
#
# _framework density 16.029745999999999
#
# number of rings (size 3 to 8) (size 9 to 14) (size 15 to 20)
#    0.000    1.600    4.000    1.200    5.600    0.800 
#    0.000    0.000    0.000    0.000    0.000    0.000 
#  630.000    0.000    0.000    0.000    0.000    0.000 
#
# Total GULP energy -334018.929189 kJ/mol
# GULP energy per Si atom -5566.982153 kJ/mol
# Density = 1.599326 g / cm^3
# Si number density = 16.029746 Si / 1000 Ang^3
#
#
#
# Elastic Constant Matrix: (Units=GPa)
#
#
# Indices 1 2 3 4 5 6 
#
# 1 63.6098 29.4851 26.9146 -0.0001 6.6897 0.0000
# 2 29.4851 63.6098 26.9146 0.0001 -6.6897 0.0000
# 3 26.9146 26.9146 82.5120 0.0000 0.0000 0.0000
# 4 -0.0001 0.0001 0.0000 26.6591 0.0000 -6.6897
# 5 6.6897 -6.6897 0.0000 0.0000 26.6591 -0.0001
# 6 0.0000 0.0000 0.0000 -6.6897 -0.0001 17.0624
#
#
#
# Elastic Compliance Matrix: (Units=1/GPa)
#
#
# Indices 1 2 3 4 5 6 
#
# 1 0.022870 -0.009632 -0.004318 0.000000 -0.008156 0.000000
# 2 -0.009632 0.022870 -0.004318 0.000000 0.008156 0.000000
# 3 -0.004318 -0.004318 0.014937 0.000000 0.000000 0.000000
# 4 0.000000 0.000000 0.000000 0.041604 0.000000 0.016312
# 5 -0.008156 0.008156 0.000000 0.000000 0.041604 0.000000
# 6 0.000000 0.000000 0.000000 0.016312 0.000000 0.065004
#
#
# Mechanical properties :
#
#
# Convention : Reuss Voigt Hill
#
# Bulk Modulus (GPa) = 41.42385 41.81779 41.62082
# Shear Modulus (GPa) = 19.72601 22.50394 21.11498
#
# Velocity S-wave (km/s) = 3.51178 3.75091 3.63331
# Velocity P-wave (km/s) = 6.50703 6.70100 6.60473
#
# Compressibility (1/GPa) = 0.02414068
#
# Stress axis : x y z
#
# Youngs Moduli (GPa) = 43.72478 43.72478 66.94952
#
# Poissons Ratio (x) = 0.42114 0.28911
# Poissons Ratio (y) = 0.42114 0.28911
# Poissons Ratio (z) = 0.18882 0.18882
#
# Static dielectric constant tensor:
#      x y z
#    x 1.544700 0.000000 0.000000 
#    y 0.000000 1.544700 0.000000 
#    z 0.000000 0.000000 1.695950 
# 
# From -- ./inp_files/382.got.cif
#   From: 2010.05.17/outbox.cif.g08.bks.cpg/sg163_1_cif.got.tgz:382.got - 2010.05.20 10:56:03.
