data_PCOD9577322
_publ_section_title
;
Structure prediction by ZEFSAII (Michael W. Deem and Ramdas Pophale) SiO2 
 PCOD9577322
Probable space group: P 3 C 1
;
_chemical_formula_sum "Si O2"
_cell_formula_units_Z 34
_cell_length_a 11.109838
_cell_length_b 11.109838
_cell_length_c 13.462036
_cell_angle_alpha 90.000000
_cell_angle_beta 90.000000
_cell_angle_gamma 120.000000
_cell_volume 1438.986872
_symmetry_space_group_name_H-M "P 3 C 1"
_symmetry_group_IT_number 158
_symmetry_cell_setting 'hexagonal'
loop_
_space_group_symop_operation_xyz
x,y,z
-y,x-y,z
-x+y,-x,z
-x+y,y,1/2+z
x,x-y,1/2+z
-y,-x,1/2+z
loop_
_atom_site_type_symbol
_atom_site_label
_atom_site_fract_x
_atom_site_fract_y
_atom_site_fract_z
Si Si1 0.541367 0.541368 0.781420
Si Si2 0.194204 0.871201 0.920753
Si Si3 0.323003 0.194204 0.142086
Si Si4 0.000000 0.000000 0.148646
Si Si5 0.420962 0.045701 0.453919
Si Si6 0.045701 0.420961 0.108921
Si Si7 0.000000 0.000000 0.914194
O O1 0.589127 0.671970 0.854005
O O2 0.671969 0.589127 0.708835
O O3 0.516521 0.415572 0.856258
O O4 0.415571 0.516521 0.706582
O O5 0.086533 0.711008 0.908056
O O6 0.113793 0.953975 0.890533
O O7 0.239292 0.884119 0.038172
O O8 0.159817 0.113793 0.172306
O O9 0.375524 0.086533 0.154785
O O10 0.355174 0.239293 0.024668
O O11 0.000000 0.000000 0.031420
O O12 0.500000 1.000000 0.531420
#
# Coordination Sequence:
#
# PCOD9577322 Si02
#       7
#     6   6   6   2   6   6   2
#     4  10  26  42  66 102 140 188 228 282 328 428
#     4  11  22  44  73 107 138 176 240 283 372 400
#     4  11  22  44  73 107 138 176 240 283 372 400
#     4  12  21  40  83 112 132 174 220 340 365 397
#     4  10  22  43  68  95 142 184 226 283 332 416
#     4  10  22  43  68  95 142 184 226 283 332 416
#     4  12  21  40  83 112 132 174 220 340 365 397
#
# _framework density 23.627735000000001
#
# number of rings (size 3 to 8) (size 9 to 14) (size 15 to 20)
#    0.000    1.412    3.529    0.000    0.000    9.882 
#   16.941    0.000    7.765    0.000    0.000    0.000 
#    0.000    0.000    0.000    0.000    0.000    0.000 
#
# Total GULP energy -189572.039005 kJ/mol
# GULP energy per Si atom -5575.648206 kJ/mol
# Density = 2.357396 g / cm^3
# Si number density = 23.627735 Si / 1000 Ang^3
#
#
#
# Elastic Constant Matrix: (Units=GPa)
#
#
# Indices 1 2 3 4 5 6 
#
# 1 74.8378 47.9229 38.7445 -9.5275 0.0000 0.0000
# 2 47.9229 74.8378 38.7445 9.5275 0.0000 0.0000
# 3 38.7445 38.7445 160.6604 0.0000 0.0000 0.0000
# 4 -9.5275 9.5275 0.0000 27.6172 0.0000 0.0000
# 5 0.0000 0.0000 0.0000 0.0000 27.6172 -9.5275
# 6 0.0000 0.0000 0.0000 0.0000 -9.5275 13.4575
#
#
#
# Elastic Compliance Matrix: (Units=1/GPa)
#
#
# Indices 1 2 3 4 5 6 
#
# 1 0.029385 -0.019776 -0.002317 0.016960 0.000000 0.000000
# 2 -0.019776 0.029385 -0.002317 -0.016960 0.000000 0.000000
# 3 -0.002317 -0.002317 0.007342 0.000000 0.000000 0.000000
# 4 0.016960 -0.016960 0.000000 0.047911 0.000000 0.000000
# 5 0.000000 0.000000 0.000000 0.000000 0.047911 0.033920
# 6 0.000000 0.000000 0.000000 0.000000 0.033920 0.098322
#
#
# Mechanical properties :
#
#
# Convention : Reuss Voigt Hill
#
# Bulk Modulus (GPa) = 57.83572 62.35109 60.09341
# Shear Modulus (GPa) = 15.88102 26.06663 20.97382
#
# Velocity S-wave (km/s) = 2.59537 3.32508 2.98263
# Velocity P-wave (km/s) = 5.78898 6.41777 6.11147
#
# Compressibility (1/GPa) = 0.01729035
#
# Stress axis : x y z
#
# Youngs Moduli (GPa) = 34.03108 34.03108 136.20410
#
# Poissons Ratio (x) = 0.67301 0.31561
# Poissons Ratio (y) = 0.67301 0.31561
# Poissons Ratio (z) = 0.07886 0.07886
#
# Static dielectric constant tensor:
#      x y z
#    x 1.890560 0.000000 0.000000 
#    y 0.000000 1.890560 0.000000 
#    z 0.000000 0.000000 2.025280 
# 
# From -- ./inp_files/507.got.cif
#   From: 2010.05.17/outbox.cif.g08.bks.cpg/sg158_cif.got.tgz:507.got - 2010.05.20 10:49:59.
