data_PCOD9577631
_publ_section_title
;
Structure prediction by ZEFSAII (Michael W. Deem and Ramdas Pophale) SiO2 
 PCOD9577631
Probable space group: R 3 C
;
_chemical_formula_sum "Si O2"
_cell_formula_units_Z 40
_cell_length_a 18.000000
_cell_length_b 18.000000
_cell_length_c 24.000000
_cell_angle_alpha 90.000000
_cell_angle_beta 90.000000
_cell_angle_gamma 120.000000
_cell_volume 6734.213540
_symmetry_space_group_name_H-M "R 3 C"
_symmetry_group_IT_number 161
_symmetry_cell_setting 'hexagonal'
loop_
_space_group_symop_operation_xyz
x,y,z
-y,x-y,z
-x+y,-x,z
-x+y,y,1/2+z
x,x-y,1/2+z
-y,-x,1/2+z
2/3+x,1/3+y,1/3+z
2/3-y,1/3+x-y,1/3+z
2/3-x+y,1/3-x,1/3+z
2/3-x+y,1/3+y,5/6+z
2/3+x,1/3+x-y,5/6+z
2/3-y,1/3-x,5/6+z
1/3+x,2/3+y,2/3+z
1/3-y,2/3+x-y,2/3+z
1/3-x+y,2/3-x,2/3+z
1/3-x+y,2/3+y,1/6+z
1/3+x,2/3+x-y,1/6+z
1/3-y,2/3-x,1/6+z
loop_
_atom_site_type_symbol
_atom_site_label
_atom_site_fract_x
_atom_site_fract_y
_atom_site_fract_z
Si Si1 0.396067 0.382389 0.526191
Si Si2 0.460169 0.862190 0.587624
Si Si3 0.069105 0.404428 0.600837
Si Si4 0.000000 0.000000 0.579843
Si Si5 0.258235 0.159917 0.987614
Si Si6 0.000000 0.000000 0.937899
Si Si7 0.313916 0.959996 0.811010
Si Si8 0.573036 0.129811 0.449115
O O1 0.402834 0.474831 0.540346
O O2 0.322532 0.333537 0.479850
O O3 0.369465 0.333759 0.587075
O O4 0.478124 0.384899 0.494617
O O5 0.411819 0.910503 0.609901
O O6 0.518765 0.845293 0.630324
O O7 0.383631 0.763564 0.579916
O O8 0.156479 0.403676 0.618463
O O9 0.035257 0.378670 0.536104
O O10 0.000000 0.000000 0.508836
O O11 0.946800 0.900619 0.603789
O O12 0.341493 0.251928 0.980590
O O13 0.240278 0.139341 0.052970
O O14 0.271184 0.858127 0.804409
#
# Coordination Sequence:
#
# PCOD9577631 Si02
#       8
#    18  18  18   6  18   6  18  18
#     4  11  26  43  69 100 139 190 236 289 365 432
#     4  11  23  42  67 103 137 179 233 297 359 421
#     4  12  23  45  69  99 143 184 239 296 354 436
#     4  12  27  39  75 103 143 187 234 298 362 424
#     4  11  24  41  71  99 135 181 235 298 358 426
#     4  12  21  45  69 109 143 175 240 307 362 418
#     4  11  26  43  70 100 137 187 235 299 356 430
#     4  12  24  46  66 103 141 181 234 298 360 431
#
# _framework density 5.9398179999999998
#
# number of rings (size 3 to 8) (size 9 to 14) (size 15 to 20)
#    0.000    0.600    7.500    0.000    2.100    4.800 
#    0.000    0.000    0.000    1.800    0.000    0.000 
#    0.000    0.000    0.000    0.000    0.000    0.000 
#
# Total GULP energy -222688.376499 kJ/mol
# GULP energy per Si atom -5567.209412 kJ/mol
# Density = 0.592630 g / cm^3
# Si number density = 5.939818 Si / 1000 Ang^3
#
#
#
# Elastic Constant Matrix: (Units=GPa)
#
#
# Indices 1 2 3 4 5 6 
#
# 1 137.1703 55.3819 54.6920 -2.9541 0.0000 0.0000
# 2 55.3819 137.1703 54.6920 2.9541 0.0000 0.0000
# 3 54.6920 54.6920 147.8537 0.0000 0.0000 0.0000
# 4 -2.9541 2.9541 0.0000 35.4766 0.0000 0.0000
# 5 0.0000 0.0000 0.0000 0.0000 35.4766 -2.9541
# 6 0.0000 0.0000 0.0000 0.0000 -2.9541 40.8942
#
#
#
# Elastic Compliance Matrix: (Units=1/GPa)
#
#
# Indices 1 2 3 4 5 6 
#
# 1 0.009438 -0.002863 -0.002432 0.001024 0.000000 0.000000
# 2 -0.002863 0.009438 -0.002432 -0.001024 0.000000 0.000000
# 3 -0.002432 -0.002432 0.008563 0.000000 0.000000 0.000000
# 4 0.001024 -0.001024 0.000000 0.028358 0.000000 0.000000
# 5 0.000000 0.000000 0.000000 0.000000 0.028358 0.002048
# 6 0.000000 0.000000 0.000000 0.000000 0.002048 0.024601
#
#
# Mechanical properties :
#
#
# Convention : Reuss Voigt Hill
#
# Bulk Modulus (GPa) = 83.44276 83.52511 83.48393
# Shear Modulus (GPa) = 39.00004 39.53141 39.26573
#
# Velocity S-wave (km/s) = 4.68335 4.71514 4.69927
# Velocity P-wave (km/s) = 8.72774 8.75318 8.74047
#
# Compressibility (1/GPa) = 0.01198426
#
# Stress axis : x y z
#
# Youngs Moduli (GPa) = 105.95639 105.95639 116.78466
#
# Poissons Ratio (x) = 0.30333 0.28404
# Poissons Ratio (y) = 0.30333 0.28404
# Poissons Ratio (z) = 0.25770 0.25770
#
# Static dielectric constant tensor:
#      x y z
#    x 1.659170 0.000000 0.000000 
#    y 0.000000 1.659170 0.000000 
#    z 0.000000 0.000000 1.597950 
# 
# From -- ./inp_files/1960.got.cif
#   From: 2010.05.17/outbox.ucp.g08.bks.cvg/sg161_cif.got.tgz:1960.got - 2010.06.11 15:15:21.
