data_PCOD9577853
_publ_section_title
;
Structure prediction by ZEFSAII (Michael W. Deem and Ramdas Pophale) SiO2 
 PCOD9577853
Probable space group: P -3 1 M 
;
_chemical_formula_sum "Si O2"
_cell_formula_units_Z 96
_cell_length_a 13.976020
_cell_length_b 13.976020
_cell_length_c 27.562100
_cell_angle_alpha 90.000000
_cell_angle_beta 90.000000
_cell_angle_gamma 120.000000
_cell_volume 4662.404644
_symmetry_space_group_name_H-M "P -3 1 M "
_symmetry_group_IT_number 162
_symmetry_cell_setting 'hexagonal'
loop_
_space_group_symop_operation_xyz
x,y,z
-y,x-y,z
-x+y,-x,z
-y,-x,-z
-x+y,y,-z
x,x-y,-z
-x,-y,-z
y,-x+y,-z
x-y,x,-z
y,x,z
x-y,-y,z
-x,-x+y,z
loop_
_atom_site_type_symbol
_atom_site_label
_atom_site_fract_x
_atom_site_fract_y
_atom_site_fract_z
Si Si1 0.565938 0.437993 0.717534
Si Si2 0.667212 0.794100 0.724496
Si Si3 0.879439 0.126204 0.376134
Si Si4 0.696668 0.127149 0.800060
Si Si5 0.874221 0.455043 0.388904
Si Si6 0.866113 0.555924 0.908881
Si Si7 0.810031 0.245981 0.444226
Si Si8 0.362001 0.870174 0.954086
O O1 0.468410 0.468410 0.715830
O O2 0.679507 0.551538 0.724378
O O3 0.535566 0.358207 0.763689
O O4 0.569288 0.397780 0.663271
O O5 0.762866 0.762866 0.728959
O O6 0.681640 0.853218 0.672904
O O7 0.661054 0.863590 0.768678
O O8 0.875042 0.188692 0.423430
O O9 0.000000 0.143168 0.370355
O O10 0.788151 0.000000 0.380334
O O11 0.733529 0.169600 0.854187
O O12 0.605165 0.000000 0.808671
O O13 0.874061 0.372465 0.428883
O O14 0.805201 0.504985 0.411912
O O15 0.000000 0.550829 0.379860
O O16 0.860551 0.437604 0.912261
O O17 0.767949 0.551839 0.943311
O O18 0.000000 0.646904 0.918472
O O19 0.778560 0.221441 0.500000
O O20 0.396079 0.000000 0.958122
O O21 0.424277 0.848553 0.000000
#
# Coordination Sequence:
#
# PCOD9577853 Si02
#       8
#    12  12  12  12  12  12  12  12
#     4   9  19  36  56  80 112 148 188 236 289 356
#     4  10  20  37  60  83 114 157 203 248 296 357
#     4  11  23  41  63  88 117 154 198 243 292 351
#     4  10  21  36  55  87 126 159 198 246 309 374
#     4  11  23  42  62  82 111 146 184 233 290 353
#     4  10  22  38  60  93 132 173 219 273 330 391
#     4  12  25  40  61  87 111 142 186 235 299 370
#     4  10  21  39  65  94 128 177 232 283 332 383
#
# _framework density 20.590233000000001
#
# number of rings (size 3 to 8) (size 9 to 14) (size 15 to 20)
#    0.000    1.625    1.250    3.250    1.750    4.000 
#    0.750    0.000    0.000    1.250    0.000    0.000 
#    0.000    3.000    0.000    0.000    0.000    0.000 
#
# Total GULP energy -535219.164483 kJ/mol
# GULP energy per Si atom -5575.199630 kJ/mol
# Density = 2.054337 g / cm^3
# Si number density = 20.590233 Si / 1000 Ang^3
#
#
#
# Elastic Constant Matrix: (Units=GPa)
#
#
# Indices 1 2 3 4 5 6 
#
# 1 81.6349 30.8459 29.1942 0.0000 5.5623 0.0000
# 2 30.8459 81.6349 29.1942 0.0000 -5.5623 0.0000
# 3 29.1942 29.1942 124.7222 0.0000 0.0000 0.0000
# 4 0.0000 0.0000 0.0000 6.9911 0.0000 -5.5623
# 5 5.5623 -5.5623 0.0000 0.0000 6.9911 0.0000
# 6 0.0000 0.0000 0.0000 -5.5623 0.0000 25.3945
#
#
#
# Elastic Compliance Matrix: (Units=1/GPa)
#
#
# Indices 1 2 3 4 5 6 
#
# 1 0.016982 -0.006862 -0.002369 0.000000 -0.018972 0.000000
# 2 -0.006862 0.016982 -0.002369 0.000000 0.018972 0.000000
# 3 -0.002369 -0.002369 0.009127 0.000000 0.000000 0.000000
# 4 0.000000 0.000000 0.000000 0.173229 0.000000 0.037943
# 5 -0.018972 0.018972 0.000000 0.000000 0.173229 0.000000
# 6 0.000000 0.000000 0.000000 0.037943 0.000000 0.047690
#
#
# Mechanical properties :
#
#
# Convention : Reuss Voigt Hill
#
# Bulk Modulus (GPa) = 50.27261 51.82896 51.05078
# Shear Modulus (GPa) = 10.70505 21.12584 15.91544
#
# Velocity S-wave (km/s) = 2.28263 3.20662 2.78323
# Velocity P-wave (km/s) = 5.60499 6.23988 5.93094
#
# Compressibility (1/GPa) = 0.01989155
#
# Stress axis : x y z
#
# Youngs Moduli (GPa) = 58.88442 58.88442 109.56751
#
# Poissons Ratio (x) = 0.40409 0.25955
# Poissons Ratio (y) = 0.40409 0.25955
# Poissons Ratio (z) = 0.13949 0.13949
#
# Static dielectric constant tensor:
#      x y z
#    x 1.774050 0.000000 0.000000 
#    y 0.000000 1.774050 0.000000 
#    z 0.000000 0.000000 1.793790 
# 
# From -- ./inp_files/4087.got.cif
#   From: 2010.05.17/outbox.cif.g08.bks.cpg/sg162_3_cif.got.tgz:4087.got - 2010.05.20 10:53:12.
