data_PCOD9577883
_publ_section_title
;
Structure prediction by ZEFSAII (Michael W. Deem and Ramdas Pophale) SiO2 
 PCOD9577883
Probable space group: P -3 1 M 
;
_chemical_formula_sum "Si O2"
_cell_formula_units_Z 90
_cell_length_a 27.373649
_cell_length_b 27.373649
_cell_length_c 7.833872
_cell_angle_alpha 90.000000
_cell_angle_beta 90.000000
_cell_angle_gamma 120.000000
_cell_volume 5083.613113
_symmetry_space_group_name_H-M "P -3 1 M "
_symmetry_group_IT_number 162
_symmetry_cell_setting 'hexagonal'
loop_
_space_group_symop_operation_xyz
x,y,z
-y,x-y,z
-x+y,-x,z
-y,-x,-z
-x+y,y,-z
x,x-y,-z
-x,-y,-z
y,-x+y,-z
x-y,x,-z
y,x,z
x-y,-y,z
-x,-x+y,z
loop_
_atom_site_type_symbol
_atom_site_label
_atom_site_fract_x
_atom_site_fract_y
_atom_site_fract_z
Si Si1 0.856307 0.677842 0.676165
Si Si2 0.421315 0.067790 0.657856
Si Si3 0.934665 0.538203 0.987617
Si Si4 0.068517 0.491090 0.368098
Si Si5 0.067859 0.932142 0.000000
Si Si6 0.127477 0.933564 0.336205
Si Si7 0.061145 0.710788 0.839652
Si Si8 0.309851 0.246724 0.215463
O O1 0.825657 0.651313 0.500000
O O2 0.909860 0.739720 0.646351
O O3 0.883038 0.642777 0.753480
O O4 0.813139 0.693497 0.767714
O O5 0.451882 0.086465 0.475617
O O6 0.367699 0.075578 0.689894
O O7 0.394031 0.000000 0.662231
O O8 0.463034 0.089655 0.823314
O O9 0.911003 0.494381 0.828856
O O10 0.935255 0.591906 0.898211
O O11 0.000000 0.556019 0.015494
O O12 0.082885 0.541443 0.500000
O O13 0.000000 0.456254 0.353768
O O14 0.090269 0.914747 0.165501
O O15 0.000000 0.902996 0.004411
O O16 0.087817 0.912184 0.500000
O O17 0.162666 0.000000 0.331291
O O18 0.000000 0.686054 0.747741
O O19 0.057847 0.738888 0.016111
O O20 0.260252 0.260252 0.271105
#
# Coordination Sequence:
#
# PCOD9577883 Si02
#       8
#    12  12  12  12   6  12  12  12
#     4  11  23  32  45  69  90 109 141 185 233 286
#     4   8  15  28  42  59  83 113 147 179 216 256
#     4   8  15  27  42  59  82 114 145 178 217 253
#     4   9  16  24  39  63  87 113 143 176 211 241
#     4  10  21  36  56  72  84 104 128 160 210 280
#     4  10  22  38  52  69  91 110 131 169 225 289
#     4   9  18  33  49  63  83 114 150 186 229 276
#     4   9  19  33  49  64  83 115 149 186 232 278
#
# _framework density 17.703944
#
# number of rings (size 3 to 8) (size 9 to 14) (size 15 to 20)
#    0.000    2.800    0.000    2.867    3.733    3.733 
#    0.000    2.667    0.000    2.133    0.000    0.000 
#    0.000    0.000    0.000    0.000    0.000    0.000 
#
# Total GULP energy -501017.008915 kJ/mol
# GULP energy per Si atom -5566.855655 kJ/mol
# Density = 1.766365 g / cm^3
# Si number density = 17.703944 Si / 1000 Ang^3
#
#
#
# Elastic Constant Matrix: (Units=GPa)
#
#
# Indices 1 2 3 4 5 6 
#
# 1 27.2178 10.4824 -8.2720 -0.0001 -0.7287 0.0000
# 2 10.4824 27.2178 -8.2720 0.0001 0.7287 0.0000
# 3 -8.2720 -8.2720 63.5983 0.0000 0.0000 0.0000
# 4 -0.0001 0.0001 0.0000 16.5243 0.0000 0.7287
# 5 -0.7287 0.7287 0.0000 0.0000 16.5243 -0.0001
# 6 0.0000 0.0000 0.0000 0.7287 -0.0001 8.3677
#
#
#
# Elastic Compliance Matrix: (Units=1/GPa)
#
#
# Indices 1 2 3 4 5 6 
#
# 1 0.044057 -0.015927 0.003659 0.000000 0.002645 0.000000
# 2 -0.015927 0.044057 0.003659 0.000000 -0.002645 0.000000
# 3 0.003659 0.003659 0.016675 0.000000 0.000000 0.000000
# 4 0.000000 0.000000 0.000000 0.060750 0.000000 -0.005291
# 5 0.002645 -0.002645 0.000000 0.000000 0.060750 0.000001
# 6 0.000000 0.000000 0.000000 -0.005291 0.000001 0.119968
#
#
# Mechanical properties :
#
#
# Convention : Reuss Voigt Hill
#
# Bulk Modulus (GPa) = 11.41911 11.76782 11.59346
# Shear Modulus (GPa) = 12.73344 16.55631 14.64488
#
# Velocity S-wave (km/s) = 2.68478 3.06138 2.87925
# Velocity P-wave (km/s) = 4.00933 4.37693 4.19716
#
# Compressibility (1/GPa) = 0.08757252
#
# Stress axis : x y z
#
# Youngs Moduli (GPa) = 22.69769 22.69769 59.96829
#
# Poissons Ratio (x) = 0.36150 -0.21942
# Poissons Ratio (y) = 0.36150 -0.21942
# Poissons Ratio (z) = -0.08305 -0.08305
#
# Static dielectric constant tensor:
#      x y z
#    x 1.654790 0.000000 0.000000 
#    y 0.000000 1.654790 0.000000 
#    z 0.000000 0.000000 1.688840 
# 
# From -- ./inp_files/1900.got.cif
#   From: 2010.05.17/outbox.cif.g08.bks.cpg/sg162_1_cif.got.tgz:1900.got - 2010.05.20 10:53:12.
