data_PCOD9577578
_publ_section_title
;
Structure prediction by ZEFSAII (Michael W. Deem and Ramdas Pophale) SiO2 
 PCOD9577578
Probable space group: R 3 C
;
_chemical_formula_sum "Si O2"
_cell_formula_units_Z 102
_cell_length_a 18.398047
_cell_length_b 18.398047
_cell_length_c 17.811044
_cell_angle_alpha 90.000000
_cell_angle_beta 90.000000
_cell_angle_gamma 120.000000
_cell_volume 5221.117370
_symmetry_space_group_name_H-M "R 3 C"
_symmetry_group_IT_number 161
_symmetry_cell_setting 'hexagonal'
loop_
_space_group_symop_operation_xyz
x,y,z
-y,x-y,z
-x+y,-x,z
-x+y,y,1/2+z
x,x-y,1/2+z
-y,-x,1/2+z
2/3+x,1/3+y,1/3+z
2/3-y,1/3+x-y,1/3+z
2/3-x+y,1/3-x,1/3+z
2/3-x+y,1/3+y,5/6+z
2/3+x,1/3+x-y,5/6+z
2/3-y,1/3-x,5/6+z
1/3+x,2/3+y,2/3+z
1/3-y,2/3+x-y,2/3+z
1/3-x+y,2/3-x,2/3+z
1/3-x+y,2/3+y,1/6+z
1/3+x,2/3+x-y,1/6+z
1/3-y,2/3-x,1/6+z
loop_
_atom_site_type_symbol
_atom_site_label
_atom_site_fract_x
_atom_site_fract_y
_atom_site_fract_z
Si Si1 0.507676 0.810299 0.101356
Si Si2 0.387912 0.536013 0.373581
Si Si3 0.561470 0.661740 0.450844
Si Si4 0.918051 0.417280 0.650966
Si Si5 0.070530 0.650266 0.231988
Si Si6 0.666667 0.333333 0.314274
Si Si7 0.333334 0.666667 0.327456
O O1 0.535256 0.750306 0.059524
O O2 0.557911 0.851116 0.177417
O O3 0.409744 0.754493 0.118914
O O4 0.531208 0.881560 0.037776
O O5 0.480763 0.601426 0.401475
O O6 0.332859 0.468074 0.436439
O O7 0.386287 0.487313 0.298751
O O8 0.342513 0.589734 0.357172
O O9 0.591320 0.760493 0.439226
O O10 0.632073 0.638077 0.433189
O O11 0.004827 0.428882 0.679297
O O12 0.666668 0.333334 0.404213
#
# Coordination Sequence:
#
# PCOD9577578 Si02
#       7
#    18  18  18  18  18   6   6
#     4  10  23  42  68 101 132 179 228 282 352 409
#     4  12  23  46  73  99 141 177 237 290 350 411
#     4  10  25  44  67  99 137 183 230 282 352 422
#     4  10  25  43  69  95 135 187 226 278 351 421
#     4  12  24  44  67 105 139 180 229 290 349 424
#     4  12  21  40  71 103 135 166 236 295 333 415
#     4  12  21  43  71 112 123 178 236 295 339 394
#
# _framework density 19.536048000000001
#
# number of rings (size 3 to 8) (size 9 to 14) (size 15 to 20)
#    1.059    0.000    3.529    3.176    0.000    5.647 
#    0.000    1.765    0.000    0.000    0.000    0.000 
#    0.000    0.000    0.000    0.000    0.000    0.000 
#
# Total GULP energy -189719.791334 kJ/mol
# GULP energy per Si atom -5579.993863 kJ/mol
# Density = 1.949158 g / cm^3
# Si number density = 19.536048 Si / 1000 Ang^3
#
#
#
# Elastic Constant Matrix: (Units=GPa)
#
#
# Indices 1 2 3 4 5 6 
#
# 1 66.2238 32.7426 21.8938 9.9482 0.0000 0.0000
# 2 32.7426 66.2236 21.8948 -9.9486 0.0000 0.0000
# 3 21.8938 21.8948 82.9698 0.0001 0.0000 0.0000
# 4 9.9482 -9.9486 0.0001 25.9363 0.0000 0.0000
# 5 0.0000 0.0000 0.0000 0.0000 25.9361 9.9480
# 6 0.0000 0.0000 0.0000 0.0000 9.9480 16.7423
#
#
#
# Elastic Compliance Matrix: (Units=1/GPa)
#
#
# Indices 1 2 3 4 5 6 
#
# 1 0.025063 -0.013623 -0.003019 -0.014839 0.000000 0.000000
# 2 -0.013623 0.025063 -0.003019 0.014839 0.000000 0.000000
# 3 -0.003019 -0.003019 0.013646 0.000000 0.000000 0.000000
# 4 -0.014839 0.014839 0.000000 0.049940 0.000000 0.000000
# 5 0.000000 0.000000 0.000000 0.000000 0.049937 -0.029672
# 6 0.000000 0.000000 0.000000 0.000000 -0.029672 0.077359
#
#
# Mechanical properties :
#
#
# Convention : Reuss Voigt Hill
#
# Bulk Modulus (GPa) = 40.89858 40.94217 40.92037
# Shear Modulus (GPa) = 17.33225 22.98200 20.15712
#
# Velocity S-wave (km/s) = 2.98181 3.43357 3.21564
# Velocity P-wave (km/s) = 5.73021 6.05987 5.89734
#
# Compressibility (1/GPa) = 0.02445073
#
# Stress axis : x y z
#
# Youngs Moduli (GPa) = 39.89978 39.89902 73.28241
#
# Poissons Ratio (x) = 0.54354 0.22121
# Poissons Ratio (y) = 0.54355 0.22125
# Poissons Ratio (z) = 0.12044 0.12046
#
# Static dielectric constant tensor:
#      x y z
#    x 1.688780 0.000000 0.000000 
#    y 0.000000 1.688780 0.000000 
#    z 0.000000 0.000000 1.675410 
# 
# From -- ./inp_files/1722.got.cif
#   From: 2010.05.17/outbox.cif.g08.bks.cpg/sg161_cif.got.tgz:1722.got - 2010.05.20 10:52:32.
