data_PCOD9577478
_publ_section_title
;
Structure prediction by ZEFSAII (Michael W. Deem and Ramdas Pophale) SiO2 
 PCOD9577478
Probable space group: R 3 M
;
_chemical_formula_sum "Si O2"
_cell_formula_units_Z 126
_cell_length_a 17.209436
_cell_length_b 17.209436
_cell_length_c 26.530751
_cell_angle_alpha 90.000000
_cell_angle_beta 90.000000
_cell_angle_gamma 120.000000
_cell_volume 6804.769996
_symmetry_space_group_name_H-M "R 3 M"
_symmetry_group_IT_number 160
_symmetry_cell_setting 'hexagonal'
loop_
_space_group_symop_operation_xyz
x,y,z
-y,x-y,z
-x+y,-x,z
-x+y,y,z
x,x-y,z
-y,-x,z
2/3+x,1/3+y,1/3+z
2/3-y,1/3+x-y,1/3+z
2/3-x+y,1/3-x,1/3+z
2/3-x+y,1/3+y,1/3+z
2/3+x,1/3+x-y,1/3+z
2/3-y,1/3-x,1/3+z
1/3+x,2/3+y,2/3+z
1/3-y,2/3+x-y,2/3+z
1/3-x+y,2/3-x,2/3+z
1/3-x+y,2/3+y,2/3+z
1/3+x,2/3+x-y,2/3+z
1/3-y,2/3-x,2/3+z
loop_
_atom_site_type_symbol
_atom_site_label
_atom_site_fract_x
_atom_site_fract_y
_atom_site_fract_z
Si Si1 0.835039 0.834870 0.716517
Si Si2 0.709946 0.763057 0.481195
Si Si3 0.840618 0.332849 0.170770
Si Si4 0.153838 0.487023 0.840014
Si Si5 0.638668 0.730433 0.236341
Si Si6 0.655635 0.738217 0.655649
Si Si7 0.906798 0.630285 0.408737
O O1 0.874077 0.937039 0.699345
O O2 0.834329 0.835474 0.776799
O O3 0.735992 0.782530 0.696147
O O4 0.898723 0.797446 0.699837
O O5 0.717733 0.858867 0.472252
O O6 0.612363 0.700458 0.507858
O O7 0.777171 0.761906 0.522636
O O8 0.718057 0.715487 0.430772
O O9 0.822974 0.411487 0.190470
O O10 0.765296 0.234704 0.189343
O O11 0.235450 0.470899 0.850980
O O12 0.184313 0.592157 0.840227
O O13 0.112342 0.449658 0.784681
O O14 0.071544 0.439930 0.879071
O O15 0.628504 0.814252 0.254749
O O16 0.620861 0.654474 0.277020
O O17 0.631302 0.815651 0.642118
O O18 0.582527 0.653648 0.687339
O O19 0.825250 0.650499 0.409711
#
# Coordination Sequence:
#
# PCOD9577478 Si02
#       7
#    18  18  18  18  18  18  18
#     4   9  16  26  43  71 104 136 166 203 251 304
#     4  10  19  33  54  77 104 144 187 223 263 315
#     4   9  16  26  44  74 109 140 170 210 260 311
#     4   9  18  34  57  83 109 139 177 223 271 318
#     4  10  22  37  53  77 109 142 178 222 270 316
#     4  11  21  34  55  79 106 140 178 217 262 321
#     4  10  21  36  55  81 111 139 174 222 272 319
#
# _framework density 18.516423
#
# number of rings (size 3 to 8) (size 9 to 14) (size 15 to 20)
#    0.000    2.286    1.429    3.000    0.000    4.571 
#    0.000    0.000    0.000    6.286    0.000    1.000 
#    0.000    0.000    0.000    0.000    0.000    0.000 
#
# Total GULP energy -233912.101734 kJ/mol
# GULP energy per Si atom -5569.335756 kJ/mol
# Density = 1.847428 g / cm^3
# Si number density = 18.516423 Si / 1000 Ang^3
#
#
#
# Elastic Constant Matrix: (Units=GPa)
#
#
# Indices 1 2 3 4 5 6 
#
# 1 77.2013 53.2013 23.4543 2.8217 -0.0004 0.0000
# 2 53.2013 77.2013 23.4543 -2.8217 0.0004 0.0000
# 3 23.4543 23.4543 68.4177 0.0000 0.0000 0.0000
# 4 2.8217 -2.8217 0.0000 15.9505 0.0000 0.0004
# 5 -0.0004 0.0004 0.0000 0.0000 15.9505 2.8217
# 6 0.0000 0.0000 0.0000 0.0004 2.8217 12.0000
#
#
#
# Elastic Compliance Matrix: (Units=1/GPa)
#
#
# Indices 1 2 3 4 5 6 
#
# 1 0.026111 -0.017364 -0.002999 -0.007691 0.000001 0.000000
# 2 -0.017364 0.026111 -0.002999 0.007691 -0.000001 0.000000
# 3 -0.002999 -0.002999 0.016672 0.000000 0.000000 0.000000
# 4 -0.007691 0.007691 0.000000 0.065415 0.000000 -0.000002
# 5 0.000001 -0.000001 0.000000 0.000000 0.065415 -0.015382
# 6 0.000000 0.000000 0.000000 -0.000002 -0.015382 0.086950
#
#
# Mechanical properties :
#
#
# Convention : Reuss Voigt Hill
#
# Bulk Modulus (GPa) = 45.10210 47.00448 46.05329
# Shear Modulus (GPa) = 14.67190 16.96090 15.81640
#
# Velocity S-wave (km/s) = 2.81796 3.02982 2.92581
# Velocity P-wave (km/s) = 5.91597 6.13842 6.02822
#
# Compressibility (1/GPa) = 0.02217192
#
# Stress axis : x y z
#
# Youngs Moduli (GPa) = 38.29777 38.29777 59.98065
#
# Poissons Ratio (x) = 0.66500 0.17986
# Poissons Ratio (y) = 0.66500 0.17986
# Poissons Ratio (z) = 0.11484 0.11484
#
# Static dielectric constant tensor:
#      x y z
#    x 1.675910 0.000000 0.000000 
#    y 0.000000 1.675910 0.000000 
#    z 0.000000 0.000000 1.649670 
# 
# From -- ./inp_files/3779.got.cif
#   From: 2010.05.17/outbox.cif.g08.bks.cpg/sg160_2_cif.got.tgz:3779.got - 2010.05.20 10:51:19.
