data_PCOD9577214
_publ_section_title
;
Structure prediction by ZEFSAII (Michael W. Deem and Ramdas Pophale) SiO2 
 PCOD9577214
Probable space group: P 3 M 1
;
_chemical_formula_sum "Si O2"
_cell_formula_units_Z 42
_cell_length_a 12.751171
_cell_length_b 12.751171
_cell_length_c 18.670294
_cell_angle_alpha 90.000000
_cell_angle_beta 90.000000
_cell_angle_gamma 120.000000
_cell_volume 2628.947591
_symmetry_space_group_name_H-M "P 3 M 1"
_symmetry_group_IT_number 156
_symmetry_cell_setting 'hexagonal'
loop_
_space_group_symop_operation_xyz
x,y,z
-y,x-y,z
-x+y,-x,z
-x+y,y,z
x,x-y,z
-y,-x,z
loop_
_atom_site_type_symbol
_atom_site_label
_atom_site_fract_x
_atom_site_fract_y
_atom_site_fract_z
Si Si1 0.750787 0.750665 0.986100
Si Si2 0.666840 0.083963 0.847699
Si Si3 0.083487 0.417447 0.709649
Si Si4 0.999459 0.250997 0.573615
Si Si5 0.999327 0.748136 0.259472
Si Si6 0.249687 0.249263 0.416686
Si Si7 0.333388 0.915819 0.124113
O O1 0.881976 0.763951 0.996472
O O2 0.690705 0.667284 0.916718
O O3 0.762636 0.881318 0.975989
O O4 0.667967 0.690453 0.055642
O O5 0.546846 0.093692 0.857946
O O6 0.784216 0.215785 0.838268
O O7 0.645917 0.002296 0.777737
O O8 0.210524 0.421047 0.718550
O O9 0.103589 0.551795 0.704299
O O10 0.021290 0.342364 0.637724
O O11 0.114650 0.229299 0.574269
O O12 0.995252 0.301654 0.494326
O O13 0.875754 0.124247 0.583632
O O14 0.876218 0.752436 0.249317
O O15 0.994975 0.693951 0.338925
O O16 0.020273 0.676996 0.195983
O O17 0.115168 0.884833 0.257749
O O18 0.122928 0.245855 0.416499
O O19 0.226382 0.113191 0.416880
O O20 0.460104 0.920208 0.118990
O O21 0.222473 0.777528 0.126163
#
# Coordination Sequence:
#
# PCOD9577214 Si02
#       7
#     6   6   6   6   6   6   6
#     4  10  20  34  53  76 100 123 148 183 229 278
#     4  10  20  34  52  73  97 125 157 192 229 270
#     4  10  20  33  48  66  91 124 161 198 234 273
#     4   9  16  27  45  69  95 120 148 186 234 285
#     4   9  16  27  46  71  96 120 148 187 235 283
#     4   8  13  22  39  65  94 120 146 180 227 281
#     4  10  20  33  48  66  91 124 160 194 226 264
#
# _framework density 15.975975
#
# number of rings (size 3 to 8) (size 9 to 14) (size 15 to 20)
#    0.000    2.571    0.000    2.714    0.000    2.286 
#    0.000    2.143    0.000   12.571    0.000    2.000 
#    0.000    0.000    0.000    0.000    0.000    0.000 
#
# Total GULP energy -233960.662935 kJ/mol
# GULP energy per Si atom -5570.491975 kJ/mol
# Density = 1.593961 g / cm^3
# Si number density = 15.975975 Si / 1000 Ang^3
#
#
#
# Elastic Constant Matrix: (Units=GPa)
#
#
# Indices 1 2 3 4 5 6 
#
# 1 101.9424 42.7200 83.1262 0.3207 0.0006 0.0000
# 2 42.7200 101.9424 83.1262 -0.3207 -0.0006 0.0000
# 3 83.1262 83.1262 169.1549 0.0000 0.0000 0.0000
# 4 0.3207 -0.3207 0.0000 20.6393 0.0000 -0.0006
# 5 0.0006 -0.0006 0.0000 0.0000 20.6393 0.3207
# 6 0.0000 0.0000 0.0000 -0.0006 0.3207 29.6112
#
#
#
# Elastic Compliance Matrix: (Units=1/GPa)
#
#
# Indices 1 2 3 4 5 6 
#
# 1 0.016385 -0.000503 -0.007805 -0.000262 0.000000 0.000000
# 2 -0.000503 0.016385 -0.007805 0.000262 0.000000 0.000000
# 3 -0.007805 -0.007805 0.013583 0.000000 0.000000 0.000000
# 4 -0.000262 0.000262 0.000000 0.048459 0.000000 0.000001
# 5 0.000000 0.000000 0.000000 0.000000 0.048459 -0.000525
# 6 0.000000 0.000000 0.000000 0.000001 -0.000525 0.033777
#
#
# Mechanical properties :
#
#
# Convention : Reuss Voigt Hill
#
# Bulk Modulus (GPa) = 70.78226 87.88717 79.33471
# Shear Modulus (GPa) = 23.36622 25.11578 24.24100
#
# Velocity S-wave (km/s) = 3.82852 3.96927 3.89953
# Velocity P-wave (km/s) = 7.99657 8.72573 8.36909
#
# Compressibility (1/GPa) = 0.01412783
#
# Stress axis : x y z
#
# Youngs Moduli (GPa) = 61.02989 61.02989 73.62258
#
# Poissons Ratio (x) = 0.03070 0.57462
# Poissons Ratio (y) = 0.03070 0.57462
# Poissons Ratio (z) = 0.47634 0.47634
#
# Static dielectric constant tensor:
#      x y z
#    x 1.499670 0.000000 0.000000 
#    y 0.000000 1.499670 0.000000 
#    z 0.000000 0.000000 1.562910 
# 
# From -- ./inp_files/941.got.cif
#   From: 2010.05.17/outbox.cif.g08.bks.cpg/sg156_cif.got.tgz:941.got - 2010.05.20 10:49:08.
