data_PCOD9577750
_publ_section_title
;
Structure prediction by ZEFSAII (Michael W. Deem and Ramdas Pophale) SiO2 
 PCOD9577750
Probable space group: P -3 1 M 
;
_chemical_formula_sum "Si O2"
_cell_formula_units_Z 84
_cell_length_a 19.739557
_cell_length_b 19.739557
_cell_length_c 13.797678
_cell_angle_alpha 90.000000
_cell_angle_beta 90.000000
_cell_angle_gamma 120.000000
_cell_volume 4655.983590
_symmetry_space_group_name_H-M "P -3 1 M "
_symmetry_group_IT_number 162
_symmetry_cell_setting 'hexagonal'
loop_
_space_group_symop_operation_xyz
x,y,z
-y,x-y,z
-x+y,-x,z
-y,-x,-z
-x+y,y,-z
x,x-y,-z
-x,-y,-z
y,-x+y,-z
x-y,x,-z
y,x,z
x-y,-y,z
-x,-x+y,z
loop_
_atom_site_type_symbol
_atom_site_label
_atom_site_fract_x
_atom_site_fract_y
_atom_site_fract_z
Si Si1 0.440757 0.909238 0.683288
Si Si2 0.094126 0.701440 0.406207
Si Si3 0.093486 0.679993 0.624277
Si Si4 0.341789 0.171743 0.248182
Si Si5 0.576983 0.150808 0.890842
Si Si6 0.906251 0.812407 0.885636
Si Si7 0.238981 0.483275 0.891547
O O1 0.354799 0.875457 0.638578
O O2 0.494993 0.874806 0.646329
O O3 0.437649 0.903584 0.799664
O O4 0.486324 0.000000 0.654065
O O5 0.119517 0.716989 0.517953
O O6 0.119676 0.775925 0.338348
O O7 0.000000 0.652717 0.404751
O O8 0.114878 0.745178 0.705625
O O9 0.000000 0.627976 0.622421
O O10 0.262145 0.129758 0.186374
O O11 0.413256 0.228395 0.178647
O O12 0.550679 0.216087 0.890442
O O13 0.669210 0.190087 0.872222
O O14 0.558054 0.116107 0.000000
O O15 0.863197 0.863197 0.869894
O O16 0.000000 0.865281 0.870778
O O17 0.894148 0.788295 0.000000
O O18 0.225252 0.450504 0.000000
#
# Coordination Sequence:
#
# PCOD9577750 Si02
#       7
#    12  12  12  12  12  12  12
#     4  10  19  34  53  74 103 146 188 222 263 319
#     4  10  21  36  54  77 107 145 186 228 276 330
#     4  10  21  36  54  77 107 145 186 228 276 330
#     4  12  20  34  58  85 114 136 182 234 292 331
#     4  10  19  34  51  73 103 143 186 219 262 319
#     4  10  22  41  64  89 117 150 185 225 284 366
#     4  10  20  33  52  75 107 147 188 230 269 322
#
# _framework density 18.0413
#
# number of rings (size 3 to 8) (size 9 to 14) (size 15 to 20)
#    0.000    1.714    2.857    2.571    0.000    3.714 
#    0.000    0.000    0.000    0.000    0.000    4.000 
#    0.000    6.857    0.000    0.000    0.000    0.000 
#
# Total GULP energy -468155.824642 kJ/mol
# GULP energy per Si atom -5573.283627 kJ/mol
# Density = 1.800024 g / cm^3
# Si number density = 18.041300 Si / 1000 Ang^3
#
#
#
# Elastic Constant Matrix: (Units=GPa)
#
#
# Indices 1 2 3 4 5 6 
#
# 1 65.7807 20.5194 31.2390 0.0000 0.2217 0.0000
# 2 20.5194 65.7807 31.2390 0.0000 -0.2217 0.0000
# 3 31.2390 31.2390 95.3214 0.0000 0.0000 0.0000
# 4 0.0000 0.0000 0.0000 29.2514 0.0000 -0.2217
# 5 0.2217 -0.2217 0.0000 0.0000 29.2514 0.0000
# 6 0.0000 0.0000 0.0000 -0.2217 0.0000 22.6306
#
#
#
# Elastic Compliance Matrix: (Units=1/GPa)
#
#
# Indices 1 2 3 4 5 6 
#
# 1 0.018644 -0.003452 -0.004979 0.000000 -0.000167 0.000000
# 2 -0.003452 0.018644 -0.004979 0.000000 0.000167 0.000000
# 3 -0.004979 -0.004979 0.013754 0.000000 0.000000 0.000000
# 4 0.000000 0.000000 0.000000 0.034189 0.000000 0.000335
# 5 -0.000167 0.000167 0.000000 0.000000 0.034189 0.000000
# 6 0.000000 0.000000 0.000000 0.000335 0.000000 0.044191
#
#
# Mechanical properties :
#
#
# Convention : Reuss Voigt Hill
#
# Bulk Modulus (GPa) = 41.28313 43.65306 42.46809
# Shear Modulus (GPa) = 25.18846 25.81904 25.50375
#
# Velocity S-wave (km/s) = 3.74057 3.78710 3.76391
# Velocity P-wave (km/s) = 6.44888 6.58571 6.51765
#
# Compressibility (1/GPa) = 0.02422297
#
# Stress axis : x y z
#
# Youngs Moduli (GPa) = 53.63729 53.63729 72.70556
#
# Poissons Ratio (x) = 0.18515 0.36198
# Poissons Ratio (y) = 0.18515 0.36198
# Poissons Ratio (z) = 0.26705 0.26705
#
# Static dielectric constant tensor:
#      x y z
#    x 1.614310 0.000000 0.000000 
#    y 0.000000 1.614310 0.000000 
#    z 0.000000 0.000000 1.633990 
# 
# From -- ./inp_files/3209.got.cif
#   From: 2010.05.17/outbox.cif.g08.bks.cpg/sg162_2_cif.got.tgz:3209.got - 2010.05.20 10:53:12.
