data_PCOD9577577
_publ_section_title
;
Structure prediction by ZEFSAII (Michael W. Deem and Ramdas Pophale) SiO2 
 PCOD9577577
Probable space group: R 3 C
;
_chemical_formula_sum "Si O2"
_cell_formula_units_Z 84
_cell_length_a 16.521244
_cell_length_b 16.521244
_cell_length_c 13.062413
_cell_angle_alpha 90.000000
_cell_angle_beta 90.000000
_cell_angle_gamma 120.000000
_cell_volume 3087.731534
_symmetry_space_group_name_H-M "R 3 C"
_symmetry_group_IT_number 161
_symmetry_cell_setting 'hexagonal'
loop_
_space_group_symop_operation_xyz
x,y,z
-y,x-y,z
-x+y,-x,z
-x+y,y,1/2+z
x,x-y,1/2+z
-y,-x,1/2+z
2/3+x,1/3+y,1/3+z
2/3-y,1/3+x-y,1/3+z
2/3-x+y,1/3-x,1/3+z
2/3-x+y,1/3+y,5/6+z
2/3+x,1/3+x-y,5/6+z
2/3-y,1/3-x,5/6+z
1/3+x,2/3+y,2/3+z
1/3-y,2/3+x-y,2/3+z
1/3-x+y,2/3-x,2/3+z
1/3-x+y,2/3+y,1/6+z
1/3+x,2/3+x-y,1/6+z
1/3-y,2/3-x,1/6+z
loop_
_atom_site_type_symbol
_atom_site_label
_atom_site_fract_x
_atom_site_fract_y
_atom_site_fract_z
Si Si1 0.144205 0.667438 0.847735
Si Si2 0.785952 0.724674 0.235238
Si Si3 0.500937 0.350518 0.278980
Si Si4 0.666668 0.333335 0.281154
Si Si5 0.631204 0.069419 0.852059
Si Si6 0.666667 0.333335 0.523448
O O1 0.125144 0.650091 0.724374
O O2 0.231610 0.654196 0.879459
O O3 0.039005 0.602424 0.883819
O O4 0.185501 0.776321 0.880701
O O5 0.781275 0.771114 0.342329
O O6 0.708308 0.620776 0.267892
O O7 0.769438 0.772147 0.134260
O O8 0.564318 0.306352 0.250926
O O9 0.570342 0.459473 0.306082
O O10 0.666668 0.333334 0.401831
#
# Coordination Sequence:
#
# PCOD9577577 Si02
#       6
#    18  18  18   6  18   6
#     4  10  23  42  67  99 138 182 230 290 357 433
#     4  11  24  41  65  99 136 181 234 296 361 429
#     4  10  23  42  68  98 135 181 231 291 357 429
#     4   9  21  43  68 100 136 176 226 283 353 430
#     4  11  24  43  68 100 138 183 239 296 360 438
#     4   9  21  43  68 100 139 179 226 280 350 427
#
# _framework density 27.204438
#
# number of rings (size 3 to 8) (size 9 to 14) (size 15 to 20)
#    0.000    1.714    0.000    2.571    0.000   13.714 
#    0.000    2.143    0.000    0.000    0.000    0.000 
#    0.000    0.000    0.000    0.000    0.000    0.000 
#
# Total GULP energy -156591.120611 kJ/mol
# GULP energy per Si atom -5592.540022 kJ/mol
# Density = 2.714252 g / cm^3
# Si number density = 27.204438 Si / 1000 Ang^3
#
#
#
# Elastic Constant Matrix: (Units=GPa)
#
#
# Indices 1 2 3 4 5 6 
#
# 1 30.1235 96.1965 15.8593 22.0729 0.0000 0.0000
# 2 96.1965 30.1421 15.8552 -22.0690 0.0000 0.0000
# 3 15.8593 15.8552 219.8042 -0.0008 0.0000 0.0000
# 4 22.0729 -22.0690 -0.0008 -2.4840 0.0000 0.0000
# 5 0.0000 0.0000 0.0000 0.0000 -2.5119 22.1246
# 6 0.0000 0.0000 0.0000 0.0000 22.1246 -33.1320
#
#
#
# Elastic Compliance Matrix: (Units=1/GPa)
#
#
# Indices 1 2 3 4 5 6 
#
# 1 0.005563 0.002498 -0.000581 0.027244 0.000000 0.000000
# 2 0.002498 0.005565 -0.000582 -0.027242 0.000000 0.000000
# 3 -0.000581 -0.000582 0.004633 0.000000 0.000000 0.000000
# 4 0.027244 -0.027242 0.000000 0.081545 0.000000 0.000000
# 5 0.000000 0.000000 0.000000 0.000000 0.081551 0.054457
# 6 0.000000 0.000000 0.000000 0.000000 0.054457 0.006183
#
#
# Mechanical properties :
#
#
# Convention : Reuss Voigt Hill
#
# Bulk Modulus (GPa) = 54.25740 59.54355 56.90047
# Shear Modulus (GPa) = 26.52317 2.51834 14.52076
#
# Velocity S-wave (km/s) = 3.12582 0.96318 2.31284
# Velocity P-wave (km/s) = 5.74589 4.81372 5.30034
#
# Compressibility (1/GPa) = 0.01843067
#
# Stress axis : x y z
#
# Youngs Moduli (GPa) = 179.74853 179.70628 215.82329
#
# Poissons Ratio (x) = -0.44888 0.12550
# Poissons Ratio (y) = -0.44898 0.12555
# Poissons Ratio (z) = 0.10452 0.10454
#
# Static dielectric constant tensor:
#      x y z
#    x 2.404010 0.000000 0.000000 
#    y 0.000000 2.403530 0.000000 
#    z 0.000000 0.000000 2.123150 
# 
# From -- ./inp_files/886.got.cif
#   From: 2010.05.17/outbox.cif.g08.bks.cpg/sg161_cif.got.tgz:886.got - 2010.05.20 10:52:32.
