data_PCOD9577222
_publ_section_title
;
Structure prediction by ZEFSAII (Michael W. Deem and Ramdas Pophale) SiO2 
 PCOD9577222
Probable space group: P 3 M 1
;
_chemical_formula_sum "Si O2"
_cell_formula_units_Z 42
_cell_length_a 12.797982
_cell_length_b 12.797982
_cell_length_c 18.213724
_cell_angle_alpha 90.000000
_cell_angle_beta 90.000000
_cell_angle_gamma 120.000000
_cell_volume 2583.523242
_symmetry_space_group_name_H-M "P 3 M 1"
_symmetry_group_IT_number 156
_symmetry_cell_setting 'hexagonal'
loop_
_space_group_symop_operation_xyz
x,y,z
-y,x-y,z
-x+y,-x,z
-x+y,y,z
x,x-y,z
-y,-x,z
loop_
_atom_site_type_symbol
_atom_site_label
_atom_site_fract_x
_atom_site_fract_y
_atom_site_fract_z
Si Si1 0.418604 0.333092 0.547030
Si Si2 0.248150 0.248262 0.126230
Si Si3 0.085497 0.667156 0.265311
Si Si4 0.086071 0.666642 0.686953
Si Si5 0.913840 0.580840 0.821827
Si Si6 0.751760 0.751443 0.405890
Si Si7 0.666484 0.086753 0.990025
O O1 0.434893 0.217447 0.557951
O O2 0.547208 0.452793 0.534482
O O3 0.360299 0.356422 0.618862
O O4 0.331427 0.305710 0.477429
O O5 0.244530 0.122265 0.138785
O O6 0.316382 0.340098 0.192655
O O7 0.318640 0.303517 0.050319
O O8 0.114161 0.228322 0.123232
O O9 0.077521 0.538761 0.267774
O O10 0.224481 0.775520 0.264545
O O11 0.024352 0.689987 0.336085
O O12 0.116066 0.558033 0.687785
O O13 0.205998 0.794003 0.679571
O O14 0.015140 0.655795 0.762057
O O15 0.793135 0.586269 0.807703
O O16 0.885443 0.442722 0.815884
O O17 0.953152 0.619462 0.906012
O O18 0.882174 0.764348 0.393373
O O19 0.763999 0.882000 0.416209
O O20 0.539081 0.078161 0.004743
O O21 0.774087 0.225914 0.993927
#
# Coordination Sequence:
#
# PCOD9577222 Si02
#       7
#     6   6   6   6   6   6   6
#     4  10  20  34  53  76 101 129 162 203 249 293
#     4  10  20  33  50  71  97 130 166 203 242 288
#     4  10  20  34  52  73  97 125 159 201 247 292
#     4  10  20  33  49  69  95 127 162 200 242 290
#     4   9  17  30  50  74  98 125 159 201 247 293
#     4  10  20  34  53  76 103 135 168 200 235 281
#     4   9  17  30  49  73  99 127 160 200 246 293
#
# _framework density 16.256868999999998
#
# number of rings (size 3 to 8) (size 9 to 14) (size 15 to 20)
#    0.000    2.286    0.000    3.143    0.000    1.714 
#    0.000    2.857    0.000   12.000    0.000    0.000 
#    0.000    0.000    0.000    0.000    0.000    0.000 
#
# Total GULP energy -234337.014341 kJ/mol
# GULP energy per Si atom -5579.452722 kJ/mol
# Density = 1.621987 g / cm^3
# Si number density = 16.256869 Si / 1000 Ang^3
#
#
#
# Elastic Constant Matrix: (Units=GPa)
#
#
# Indices 1 2 3 4 5 6 
#
# 1 124.1872 87.0473 84.6882 -1.4259 -0.0001 0.0000
# 2 87.0473 124.1872 84.6882 1.4259 0.0001 0.0000
# 3 84.6882 84.6882 124.9340 0.0000 0.0000 0.0000
# 4 -1.4259 1.4259 0.0000 23.2039 0.0000 0.0001
# 5 -0.0001 0.0001 0.0000 0.0000 23.2039 -1.4259
# 6 0.0000 0.0000 0.0000 0.0001 -1.4259 18.5700
#
#
#
# Elastic Compliance Matrix: (Units=1/GPa)
#
#
# Indices 1 2 3 4 5 6 
#
# 1 0.018712 -0.008341 -0.007030 0.001662 0.000000 0.000000
# 2 -0.008341 0.018712 -0.007030 -0.001662 0.000000 0.000000
# 3 -0.007030 -0.007030 0.017535 0.000000 0.000000 0.000000
# 4 0.001662 -0.001662 0.000000 0.043300 0.000000 0.000000
# 5 0.000000 0.000000 0.000000 0.000000 0.043300 0.003325
# 6 0.000000 0.000000 0.000000 0.000000 0.003325 0.054106
#
#
# Mechanical properties :
#
#
# Convention : Reuss Voigt Hill
#
# Bulk Modulus (GPa) = 98.45704 98.46176 98.45940
# Shear Modulus (GPa) = 20.50404 20.78789 20.64596
#
# Velocity S-wave (km/s) = 3.55527 3.57979 3.56755
# Velocity P-wave (km/s) = 8.80614 8.81954 8.81284
#
# Compressibility (1/GPa) = 0.01015671
#
# Stress axis : x y z
#
# Youngs Moduli (GPa) = 53.44150 53.44150 57.02758
#
# Poissons Ratio (x) = 0.44575 0.40092
# Poissons Ratio (y) = 0.44575 0.40092
# Poissons Ratio (z) = 0.37571 0.37571
#
# Static dielectric constant tensor:
#      x y z
#    x 1.514050 0.000000 0.000000 
#    y 0.000000 1.514050 0.000000 
#    z 0.000000 0.000000 1.538090 
# 
# From -- ./inp_files/952.got.cif
#   From: 2010.05.17/outbox.cif.g08.bks.cpg/sg156_cif.got.tgz:952.got - 2010.05.20 10:49:08.
