data_PCOD9577614
_publ_section_title
;
Structure prediction by ZEFSAII (Michael W. Deem and Ramdas Pophale) SiO2 
 PCOD9577614
Probable space group: R 3 C
;
_chemical_formula_sum "Si O2"
_cell_formula_units_Z 48
_cell_length_a 12.728389
_cell_length_b 12.728389
_cell_length_c 13.592859
_cell_angle_alpha 90.000000
_cell_angle_beta 90.000000
_cell_angle_gamma 120.000000
_cell_volume 1907.165241
_symmetry_space_group_name_H-M "R 3 C"
_symmetry_group_IT_number 161
_symmetry_cell_setting 'hexagonal'
loop_
_space_group_symop_operation_xyz
x,y,z
-y,x-y,z
-x+y,-x,z
-x+y,y,1/2+z
x,x-y,1/2+z
-y,-x,1/2+z
2/3+x,1/3+y,1/3+z
2/3-y,1/3+x-y,1/3+z
2/3-x+y,1/3-x,1/3+z
2/3-x+y,1/3+y,5/6+z
2/3+x,1/3+x-y,5/6+z
2/3-y,1/3-x,5/6+z
1/3+x,2/3+y,2/3+z
1/3-y,2/3+x-y,2/3+z
1/3-x+y,2/3-x,2/3+z
1/3-x+y,2/3+y,1/6+z
1/3+x,2/3+x-y,1/6+z
1/3-y,2/3-x,1/6+z
loop_
_atom_site_type_symbol
_atom_site_label
_atom_site_fract_x
_atom_site_fract_y
_atom_site_fract_z
Si Si1 0.000000 0.000000 0.478152
Si Si2 0.666667 0.333333 0.574793
Si Si3 0.802516 0.726443 0.740043
Si Si4 0.999162 0.235108 0.948712
O O1 0.000000 0.000000 0.359584
O O2 0.881061 0.008464 0.502184
O O3 0.632284 0.197772 0.546413
O O4 0.804808 0.709182 0.858767
O O5 0.848032 0.633538 0.712265
O O6 0.676181 0.685825 0.686934
#
# Coordination Sequence:
#
# PCOD9577614 Si02
#       4
#     6   6  18  18
#     4   9  21  42  67  98 134 173 229 291 349 419
#     4   9  21  42  67  98 134 173 229 291 349 419
#     4  11  24  44  68  98 136 179 226 283 347 415
#     4  11  24  44  68  98 136 179 226 283 347 415
#
# _framework density 25.168241999999999
#
# number of rings (size 3 to 8) (size 9 to 14) (size 15 to 20)
#    0.000    1.500    0.000    6.750    0.000   12.000 
#    0.000    3.750    0.000    0.000    0.000    0.000 
#    0.000    0.000    0.000    0.000    0.000    0.000 
#
# Total GULP energy -89483.541988 kJ/mol
# GULP energy per Si atom -5592.721374 kJ/mol
# Density = 2.511096 g / cm^3
# Si number density = 25.168242 Si / 1000 Ang^3
#
#
#
# Elastic Constant Matrix: (Units=GPa)
#
#
# Indices 1 2 3 4 5 6 
#
# 1 132.1549 42.6794 35.1825 0.5560 0.0000 0.0000
# 2 42.6794 132.1562 35.1827 -0.5559 0.0000 0.0000
# 3 35.1825 35.1827 98.4917 0.0000 0.0000 0.0000
# 4 0.5560 -0.5559 0.0000 35.3187 0.0000 0.0000
# 5 0.0000 0.0000 0.0000 0.0000 35.3187 0.5560
# 6 0.0000 0.0000 0.0000 0.0000 0.5560 44.7380
#
#
#
# Elastic Compliance Matrix: (Units=1/GPa)
#
#
# Indices 1 2 3 4 5 6 
#
# 1 0.008929 -0.002249 -0.002386 -0.000176 0.000000 0.000000
# 2 -0.002249 0.008929 -0.002386 0.000176 0.000000 0.000000
# 3 -0.002386 -0.002386 0.011858 0.000000 0.000000 0.000000
# 4 -0.000176 0.000176 0.000000 0.028319 0.000000 0.000000
# 5 0.000000 0.000000 0.000000 0.000000 0.028319 -0.000352
# 6 0.000000 0.000000 0.000000 0.000000 -0.000352 0.022357
#
#
# Mechanical properties :
#
#
# Convention : Reuss Voigt Hill
#
# Bulk Modulus (GPa) = 63.80325 65.43245 64.61785
# Shear Modulus (GPa) = 39.06895 39.72562 39.39728
#
# Velocity S-wave (km/s) = 3.94421 3.97722 3.96075
# Velocity P-wave (km/s) = 6.79324 6.86626 6.82985
#
# Compressibility (1/GPa) = 0.01567318
#
# Stress axis : x y z
#
# Youngs Moduli (GPa) = 111.99153 111.99270 84.33187
#
# Poissons Ratio (x) = 0.25189 0.20123
# Poissons Ratio (y) = 0.25189 0.20123
# Poissons Ratio (z) = 0.26724 0.26724
#
# Static dielectric constant tensor:
#      x y z
#    x 1.916800 0.000000 0.000000 
#    y 0.000000 1.916800 0.000000 
#    z 0.000000 0.000000 2.000930 
# 
# From -- ./inp_files/725.got.cif
#   From: 2010.05.17/outbox.cif.g08.bks.cpg/sg161_cif.got.tgz:725.got - 2010.05.20 10:52:32.
