data_PCOD9577342
_publ_section_title
;
Structure prediction by ZEFSAII (Michael W. Deem and Ramdas Pophale) SiO2 
 PCOD9577342
Probable space group: P 3 C 1
;
_chemical_formula_sum "Si O2"
_cell_formula_units_Z 28
_cell_length_a 8.932632
_cell_length_b 8.932632
_cell_length_c 17.480841
_cell_angle_alpha 90.000000
_cell_angle_beta 90.000000
_cell_angle_gamma 120.000000
_cell_volume 1207.958014
_symmetry_space_group_name_H-M "P 3 C 1"
_symmetry_group_IT_number 158
_symmetry_cell_setting 'hexagonal'
loop_
_space_group_symop_operation_xyz
x,y,z
-y,x-y,z
-x+y,-x,z
-x+y,y,1/2+z
x,x-y,1/2+z
-y,-x,1/2+z
loop_
_atom_site_type_symbol
_atom_site_label
_atom_site_fract_x
_atom_site_fract_y
_atom_site_fract_z
Si Si1 0.376951 0.051307 0.776180
Si Si2 0.238919 0.439783 0.994954
Si Si3 0.560217 0.761080 0.660032
Si Si4 0.666668 0.333334 0.485579
Si Si5 0.376952 0.051308 0.378806
Si Si6 0.666667 0.333333 0.669407
O O1 0.507221 0.014441 0.827493
O O2 0.319992 0.159995 0.827493
O O3 0.490868 0.181670 0.707303
O O4 0.222355 0.885549 0.735612
O O5 0.442462 0.592303 0.993135
O O6 0.222355 0.336804 0.919374
O O7 0.200892 0.350926 0.077493
O O8 0.442463 0.850159 0.661850
O O9 0.490869 0.181670 0.447683
O O10 0.666668 0.333334 0.577493
#
# Coordination Sequence:
#
# PCOD9577342 Si02
#       6
#     6   6   6   2   6   2
#     4   9  17  27  40  66 101 127 162 209 264 313
#     4   8  16  29  46  68  98 132 169 210 260 314
#     4   8  16  29  46  68  98 132 169 210 260 314
#     4   9  16  26  43  60  91 131 163 210 256 299
#     4   9  17  27  40  66 101 127 162 209 264 313
#     4   9  16  26  43  60  91 131 163 210 256 299
#
# _framework density 23.179614999999998
#
# number of rings (size 3 to 8) (size 9 to 14) (size 15 to 20)
#    0.857    2.571    0.000    3.000    0.000    1.714 
#    0.000    0.000    0.000    0.000    0.000    0.000 
#  188.571    0.000   41.143    0.000    0.000    0.000 
#
# Total GULP energy -156065.047391 kJ/mol
# GULP energy per Si atom -5573.751693 kJ/mol
# Density = 2.312686 g / cm^3
# Si number density = 23.179615 Si / 1000 Ang^3
#
#
#
# Elastic Constant Matrix: (Units=GPa)
#
#
# Indices 1 2 3 4 5 6 
#
# 1 30.0060 5.4264 23.1449 0.0001 0.0000 0.0000
# 2 5.4264 30.0056 23.1447 -0.0002 0.0000 0.0000
# 3 23.1449 23.1447 177.5339 -0.0001 0.0000 0.0000
# 4 0.0001 -0.0002 -0.0001 23.4585 0.0000 0.0000
# 5 0.0000 0.0000 0.0000 0.0000 23.4588 0.0001
# 6 0.0000 0.0000 0.0000 0.0000 0.0001 12.2898
#
#
#
# Elastic Compliance Matrix: (Units=1/GPa)
#
#
# Indices 1 2 3 4 5 6 
#
# 1 0.037350 -0.003334 -0.004435 0.000000 0.000000 0.000000
# 2 -0.003334 0.037351 -0.004435 0.000000 0.000000 0.000000
# 3 -0.004435 -0.004435 0.006789 0.000000 0.000000 0.000000
# 4 0.000000 0.000000 0.000000 0.042629 0.000000 0.000000
# 5 0.000000 0.000000 0.000000 0.000000 0.042628 0.000000
# 6 0.000000 0.000000 0.000000 0.000000 0.000000 0.081368
#
#
# Mechanical properties :
#
#
# Convention : Reuss Voigt Hill
#
# Bulk Modulus (GPa) = 17.51824 37.88637 27.70231
# Shear Modulus (GPa) = 17.14975 24.23004 20.68990
#
# Velocity S-wave (km/s) = 2.72299 3.23664 2.99087
# Velocity P-wave (km/s) = 4.17855 5.50890 4.88919
#
# Compressibility (1/GPa) = 0.05708335
#
# Stress axis : x y z
#
# Youngs Moduli (GPa) = 26.77358 26.77325 147.29691
#
# Poissons Ratio (x) = 0.08926 0.65321
# Poissons Ratio (y) = 0.08926 0.65322
# Poissons Ratio (z) = 0.11873 0.11873
#
# Static dielectric constant tensor:
#      x y z
#    x 1.920680 0.000000 0.000000 
#    y 0.000000 1.920680 0.000000 
#    z 0.000000 0.000000 1.932070 
# 
# From -- ./inp_files/403.got.cif
#   From: 2010.05.17/outbox.cif.g08.bks.cpg/sg158_cif.got.tgz:403.got - 2010.05.20 10:49:59.
