data_PCOD9577403
_publ_section_title
;
Structure prediction by ZEFSAII (Michael W. Deem and Ramdas Pophale) SiO2 
 PCOD9577403
Probable space group: P 3 1 C
;
_chemical_formula_sum "Si O2"
_cell_formula_units_Z 48
_cell_length_a 17.946756
_cell_length_b 17.946756
_cell_length_c 8.696173
_cell_angle_alpha 90.000000
_cell_angle_beta 90.000000
_cell_angle_gamma 120.000000
_cell_volume 2425.664427
_symmetry_space_group_name_H-M "P 3 1 C"
_symmetry_group_IT_number 159
_symmetry_cell_setting 'hexagonal'
loop_
_space_group_symop_operation_xyz
x,y,z
-y,x-y,z
-x+y,-x,z
y,x,1/2+z
x-y,-y,1/2+z
-x,-x+y,1/2+z
loop_
_atom_site_type_symbol
_atom_site_label
_atom_site_fract_x
_atom_site_fract_y
_atom_site_fract_z
Si Si1 0.669557 0.778655 0.642220
Si Si2 0.327502 0.520580 0.478435
Si Si3 0.897863 0.593429 0.506715
Si Si4 0.986406 0.327768 0.882410
Si Si5 0.464694 0.658883 0.633973
Si Si6 0.930179 0.650448 0.152334
Si Si7 0.536962 0.729843 0.200484
Si Si8 0.474704 0.585216 0.962041
O O1 0.677415 0.740207 0.799392
O O2 0.703576 0.741056 0.515355
O O3 0.566796 0.721547 0.612737
O O4 0.700024 0.877671 0.627423
O O5 0.427074 0.592182 0.491237
O O6 0.292842 0.560296 0.610441
O O7 0.315889 0.431288 0.537281
O O8 0.269876 0.506211 0.327946
O O9 0.910324 0.620023 0.328264
O O10 0.807436 0.575154 0.576241
O O11 0.909681 0.509572 0.508268
O O12 0.970859 0.667831 0.610915
O O13 0.899249 0.295276 0.780043
O O14 0.029001 0.427680 0.940052
O O15 0.452617 0.612456 0.797143
O O16 0.476347 0.647220 0.097288
#
# Coordination Sequence:
#
# PCOD9577403 Si02
#       8
#     6   6   6   6   6   6   6   6
#     4  10  22  40  66  89 124 161 219 279 331 401
#     4  11  22  38  60  83 120 170 223 279 339 392
#     4  12  27  43  63  92 139 176 227 280 335 404
#     4  11  21  39  66  92 122 164 219 283 336 395
#     4  10  21  39  56  81 120 168 219 273 331 386
#     4  11  24  43  63  91 126 174 215 271 345 399
#     4  12  25  41  62  96 129 167 231 290 331 402
#     4  11  26  41  64  92 128 182 231 277 332 401
#
# _framework density 19.788391000000001
#
# number of rings (size 3 to 8) (size 9 to 14) (size 15 to 20)
#    0.000    1.000    5.000    3.250    5.250    0.000 
#    0.750    0.000    0.000    0.000    0.000    0.000 
#    1.250    2.250    0.000    0.000    0.000    0.000 
#
# Total GULP energy -267595.707408 kJ/mol
# GULP energy per Si atom -5574.910571 kJ/mol
# Density = 1.974335 g / cm^3
# Si number density = 19.788391 Si / 1000 Ang^3
#
#
#
# Elastic Constant Matrix: (Units=GPa)
#
#
# Indices 1 2 3 4 5 6 
#
# 1 58.8164 22.0510 21.7683 0.0000 -4.5858 0.0000
# 2 22.0510 58.8164 21.7683 0.0000 4.5858 0.0000
# 3 21.7683 21.7683 87.2288 0.0000 0.0000 0.0000
# 4 0.0000 0.0000 0.0000 34.5063 0.0000 4.5858
# 5 -4.5858 4.5858 0.0000 0.0000 34.5063 0.0000
# 6 0.0000 0.0000 0.0000 4.5858 0.0000 18.3827
#
#
#
# Elastic Compliance Matrix: (Units=1/GPa)
#
#
# Indices 1 2 3 4 5 6 
#
# 1 0.021209 -0.006924 -0.003565 0.000000 0.003739 0.000000
# 2 -0.006924 0.021209 -0.003565 0.000000 -0.003739 0.000000
# 3 -0.003565 -0.003565 0.013243 0.000000 0.000000 0.000000
# 4 0.000000 0.000000 0.000000 0.029974 0.000000 -0.007477
# 5 0.003739 -0.003739 0.000000 0.000000 0.029974 0.000000
# 6 0.000000 0.000000 0.000000 -0.007477 0.000000 0.056264
#
#
# Mechanical properties :
#
#
# Convention : Reuss Voigt Hill
#
# Bulk Modulus (GPa) = 36.29232 37.33742 36.81487
# Shear Modulus (GPa) = 23.90463 26.76398 25.33430
#
# Velocity S-wave (km/s) = 3.47942 3.68164 3.58195
# Velocity P-wave (km/s) = 5.87553 6.08128 5.97929
#
# Compressibility (1/GPa) = 0.02755404
#
# Stress axis : x y z
#
# Youngs Moduli (GPa) = 47.15047 47.15047 75.50935
#
# Poissons Ratio (x) = 0.32645 0.26919
# Poissons Ratio (y) = 0.32645 0.26919
# Poissons Ratio (z) = 0.16809 0.16809
#
# Static dielectric constant tensor:
#      x y z
#    x 1.787970 0.000000 0.000000 
#    y 0.000000 1.787970 0.000000 
#    z 0.000000 0.000000 1.846730 
# 
# From -- ./inp_files/484.got.cif
#   From: 2010.05.17/outbox.cif.g08.bks.cpg/sg159_cif.got.tgz:484.got - 2010.05.20 10:50:30.
