data_PCOD9577430
_publ_section_title
;
Structure prediction by ZEFSAII (Michael W. Deem and Ramdas Pophale) SiO2 
 PCOD9577430
Probable space group: P 3 1 C
;
_chemical_formula_sum "Si O2"
_cell_formula_units_Z 34
_cell_length_a 14.478067
_cell_length_b 14.478067
_cell_length_c 8.439806
_cell_angle_alpha 90.000000
_cell_angle_beta 90.000000
_cell_angle_gamma 120.000000
_cell_volume 1532.089936
_symmetry_space_group_name_H-M "P 3 1 C"
_symmetry_group_IT_number 159
_symmetry_cell_setting 'hexagonal'
loop_
_space_group_symop_operation_xyz
x,y,z
-y,x-y,z
-x+y,-x,z
y,x,1/2+z
x-y,-y,1/2+z
-x,-x+y,1/2+z
loop_
_atom_site_type_symbol
_atom_site_label
_atom_site_fract_x
_atom_site_fract_y
_atom_site_fract_z
Si Si1 0.666667 0.333333 0.703416
Si Si2 0.513089 0.512890 0.064416
Si Si3 0.094551 0.860419 0.303678
Si Si4 0.860916 0.768345 0.432031
Si Si5 0.666667 0.333335 0.320608
Si Si6 0.532944 0.867833 0.320996
Si Si7 0.864642 0.315511 0.303112
O O1 0.666668 0.333334 0.513044
O O2 0.747514 0.450553 0.769578
O O3 0.411680 0.469695 0.179475
O O4 0.623442 0.570050 0.161237
O O5 0.506083 0.413548 0.970469
O O6 0.511380 0.598091 0.945305
O O7 0.113653 0.763522 0.347660
O O8 0.973712 0.827764 0.343047
O O9 0.170930 0.966746 0.400161
O O10 0.118444 0.883195 0.117606
O O11 0.791215 0.650818 0.360116
O O12 0.748968 0.297256 0.263832
#
# Coordination Sequence:
#
# PCOD9577430 Si02
#       7
#     2   6   6   6   2   6   6
#     4  12  24  43  68 103 147 184 239 298 363 430
#     4  10  24  44  70 102 142 188 244 290 362 434
#     4  12  27  48  76 108 147 196 252 311 372 438
#     4  12  27  48  76 108 147 196 252 311 372 438
#     4  12  24  43  68 103 147 184 239 298 363 430
#     4  11  25  45  71 104 143 192 238 304 362 438
#     4  11  25  45  71 104 143 192 238 304 362 438
#
# _framework density 22.191908000000002
#
# number of rings (size 3 to 8) (size 9 to 14) (size 15 to 20)
#    0.000    0.706    1.765    4.588    9.882    1.412 
#    0.000    0.000    0.000    0.000    0.000    0.000 
#    0.000    0.000    0.000    0.000    0.000    0.000 
#
# Total GULP energy -190609.401115 kJ/mol
# GULP energy per Si atom -5606.158856 kJ/mol
# Density = 2.214140 g / cm^3
# Si number density = 22.191908 Si / 1000 Ang^3
#
#
#
# Elastic Constant Matrix: (Units=GPa)
#
#
# Indices 1 2 3 4 5 6 
#
# 1 72.5858 -21.1812 -3.1983 0.0114 5.5188 0.0000
# 2 -21.1812 72.5858 -3.1985 -0.0034 -5.5142 -0.0001
# 3 -3.1983 -3.1985 45.8088 -0.0242 -0.0140 -0.0002
# 4 0.0114 -0.0034 -0.0242-2342.6007 -4.5773 -5.5251
# 5 5.5188 -5.5142 -0.0140 -4.5773-2337.3153 -0.0074
# 6 0.0000 -0.0001 -0.0002 -5.5251 -0.0074 46.8835
#
#
#
# Elastic Compliance Matrix: (Units=1/GPa)
#
#
# Indices 1 2 3 4 5 6 
#
# 1 0.015143 0.004481 0.001370 0.000000 0.000025 0.000000
# 2 0.004481 0.015143 0.001370 0.000000 -0.000025 0.000000
# 3 0.001370 0.001370 0.022021 0.000000 0.000000 0.000000
# 4 0.000000 0.000000 0.000000 -0.000427 0.000001 -0.000050
# 5 0.000025 -0.000025 0.000000 0.000001 -0.000428 0.000000
# 6 0.000000 0.000000 0.000000 -0.000050 0.000000 0.021324
#
#
# Mechanical properties :
#
#
# Convention : Reuss Voigt Hill
#
# Bulk Modulus (GPa) = 14.98131 15.09161 15.03646
# Shear Modulus (GPa) = 62.04775 -912.03593 -424.99409
#
# Velocity S-wave (km/s) = 5.29342 -20.29456 -13.85368
# Velocity P-wave (km/s) = 6.64273 23.28827 15.78318
#
# Compressibility (1/GPa) = 0.06674985
#
# Stress axis : x y z
#
# Youngs Moduli (GPa) = 66.03764 66.03754 45.41081
#
# Poissons Ratio (x) = -0.29592 -0.06222
# Poissons Ratio (y) = -0.29592 -0.06222
# Poissons Ratio (z) = -0.09048 -0.09048
#
# Static dielectric constant tensor:
#      x y z
#    x 2.429910 0.001260 -0.000010 
#    y 0.001260 2.431360 -0.000010 
#    z -0.000010 -0.000010 1.805330 
# 
# From -- ./inp_files/401.got.cif
#   From: 2010.05.17/outbox.cif.g08.bks.cpg/sg159_cif.got.tgz:401.got - 2010.05.20 10:50:30.
