data_PCOD9577150
_publ_section_title
;
Structure prediction by ZEFSAII (Michael W. Deem and Ramdas Pophale) SiO2 
 PCOD9577150
Probable space group: R 3 2
;
_chemical_formula_sum "Si O2"
_cell_formula_units_Z 63
_cell_length_a 18.486942
_cell_length_b 18.486942
_cell_length_c 9.763301
_cell_angle_alpha 90.000000
_cell_angle_beta 90.000000
_cell_angle_gamma 120.000000
_cell_volume 2889.731338
_symmetry_space_group_name_H-M "R 3 2"
_symmetry_group_IT_number 155
_symmetry_cell_setting 'hexagonal'
loop_
_space_group_symop_operation_xyz
x,y,z
-y,x-y,z
-x+y,-x,z
x-y,-y,-z
-x,-x+y,-z
y,x,-z
2/3+x,1/3+y,1/3+z
2/3-y,1/3+x-y,1/3+z
2/3-x+y,1/3-x,1/3+z
2/3+x-y,1/3-y,1/3-z
2/3-x,1/3-x+y,1/3-z
2/3+y,1/3+x,1/3-z
1/3+x,2/3+y,2/3+z
1/3-y,2/3+x-y,2/3+z
1/3-x+y,2/3-x,2/3+z
1/3+x-y,2/3-y,2/3-z
1/3-x,2/3-x+y,2/3-z
1/3+y,2/3+x,2/3-z
loop_
_atom_site_type_symbol
_atom_site_label
_atom_site_fract_x
_atom_site_fract_y
_atom_site_fract_z
Si Si1 0.760184 0.538091 0.572906
Si Si2 0.855543 0.000000 0.000000
Si Si3 0.185944 0.276897 0.509952
Si Si4 0.145831 0.902125 0.797071
O O1 0.757775 0.468185 0.469711
O O2 0.832992 0.630090 0.521443
O O3 0.788833 0.545233 0.730271
O O4 0.666529 0.518597 0.560191
O O5 0.860938 0.079265 0.079231
O O6 0.269002 0.269002 0.500000
O O7 0.147091 0.249714 0.659192
O O8 0.221297 0.887963 0.833334
#
# Coordination Sequence:
#
# PCOD9577150 Si02
#       4
#    18   9  18  18
#     4  11  26  45  74 106 140 195 237 306 361 431
#     4  12  24  46  68 106 142 196 240 298 372 424
#     4  11  24  46  71 106 147 189 238 293 368 434
#     4  12  26  48  74 109 146 189 248 305 367 434
#
# _framework density 21.801335000000002
#
# number of rings (size 3 to 8) (size 9 to 14) (size 15 to 20)
#    0.000    0.571    5.714    1.714    0.000    8.000 
#    6.857    0.000    0.000    0.000    0.000    0.000 
#    0.000    0.000    0.000    0.000    0.000    0.000 
#
# Total GULP energy -116993.734216 kJ/mol
# GULP energy per Si atom -5571.130201 kJ/mol
# Density = 2.175171 g / cm^3
# Si number density = 21.801335 Si / 1000 Ang^3
#
#
#
# Elastic Constant Matrix: (Units=GPa)
#
#
# Indices 1 2 3 4 5 6 
#
# 1 33.3492 75.8235 6.9709 -21.5679 0.0001 0.0000
# 2 75.8235 33.3492 6.9710 21.5679 0.0000 0.0001
# 3 6.9709 6.9710 146.6031 0.0000 0.0001 0.0002
# 4 -21.5679 21.5679 0.0000 -5.9228 0.0000 -0.0001
# 5 0.0001 0.0000 0.0001 0.0000 -5.9228 -21.5679
# 6 0.0000 0.0001 0.0002 -0.0001 -21.5679 -21.2372
#
#
#
# Elastic Compliance Matrix: (Units=1/GPa)
#
#
# Indices 1 2 3 4 5 6 
#
# 1 0.008971 0.000245 -0.000438 -0.031774 0.000000 0.000000
# 2 0.000245 0.008971 -0.000438 0.031774 0.000000 0.000000
# 3 -0.000438 -0.000438 0.006863 0.000000 0.000000 0.000000
# 4 -0.031774 0.031774 0.000000 0.062574 0.000000 0.000000
# 5 0.000000 0.000000 0.000000 0.000000 0.062575 -0.063549
# 6 0.000000 0.000000 0.000000 0.000000 -0.063549 0.017451
#
#
# Mechanical properties :
#
#
# Convention : Reuss Voigt Hill
#
# Bulk Modulus (GPa) = 42.47816 43.64803 43.06309
# Shear Modulus (GPa) = 28.32633 1.61918 14.97276
#
# Velocity S-wave (km/s) = 3.60848 0.86274 2.62350
# Velocity P-wave (km/s) = 6.07355 4.58876 5.38260
#
# Compressibility (1/GPa) = 0.02354151
#
# Stress axis : x y z
#
# Youngs Moduli (GPa) = 111.47393 111.47401 145.71284
#
# Poissons Ratio (x) = -0.02732 0.06385
# Poissons Ratio (y) = -0.02732 0.06385
# Poissons Ratio (z) = 0.04885 0.04885
#
# Static dielectric constant tensor:
#      x y z
#    x 1.877120 0.000000 0.000000 
#    y 0.000000 1.877120 0.000000 
#    z 0.000000 0.000000 1.807950 
# 
# From -- ./inp_files/2034.got.cif
#   From: 2010.05.17/outbox.cif.g08.bks.cpg/sg155_2_cif.got.tgz:2034.got - 2010.05.20 10:44:35.
