data_PCOD9577685
_publ_section_title
;
Structure prediction by ZEFSAII (Michael W. Deem and Ramdas Pophale) SiO2 
 PCOD9577685
Probable space group: P -3 1 M 
;
_chemical_formula_sum "Si O2"
_cell_formula_units_Z 48
_cell_length_a 18.355788
_cell_length_b 18.355788
_cell_length_c 10.431702
_cell_angle_alpha 90.000000
_cell_angle_beta 90.000000
_cell_angle_gamma 120.000000
_cell_volume 3043.910440
_symmetry_space_group_name_H-M "P -3 1 M "
_symmetry_group_IT_number 162
_symmetry_cell_setting 'hexagonal'
loop_
_space_group_symop_operation_xyz
x,y,z
-y,x-y,z
-x+y,-x,z
-y,-x,-z
-x+y,y,-z
x,x-y,-z
-x,-y,-z
y,-x+y,-z
x-y,x,-z
y,x,z
x-y,-y,z
-x,-x+y,z
loop_
_atom_site_type_symbol
_atom_site_label
_atom_site_fract_x
_atom_site_fract_y
_atom_site_fract_z
Si Si1 0.496543 0.331361 0.777549
Si Si2 0.503457 0.668639 0.777549
Si Si3 0.362044 0.266323 0.000000
Si Si4 0.540201 0.636003 0.500000
O O1 0.574973 0.425027 0.795017
O O2 0.525469 0.262734 0.799194
O O3 0.422162 0.309341 0.877214
O O4 0.462987 0.321948 0.632343
O O5 0.537013 0.678052 0.632343
O O6 0.577838 0.690659 0.877214
O O7 0.287575 0.287575 0.000000
O O8 0.336854 0.168427 0.000000
O O9 0.453433 0.546568 0.500000
O O10 0.615147 0.615147 0.500000
#
# Coordination Sequence:
#
# PCOD9577685 Si02
#       4
#    12  12  12  12
#     4  10  19  30  45  66  94 127 161 194 227 265
#     4  10  19  30  45  66  94 127 161 194 227 265
#     4  10  21  35  51  70  91 117 148 186 231 277
#     4   9  17  28  42  60  84 119 163 205 237 264
#
# _framework density 15.76919
#
# number of rings (size 3 to 8) (size 9 to 14) (size 15 to 20)
#    0.000    2.250    0.000    3.500    0.000    4.000 
#    0.000    5.000    0.000    0.250    0.000    0.000 
#    0.000    0.000    0.000    0.000    0.000   52.000 
#
# Total GULP energy -267654.609562 kJ/mol
# GULP energy per Si atom -5576.137699 kJ/mol
# Density = 1.573330 g / cm^3
# Si number density = 15.769190 Si / 1000 Ang^3
#
#
#
# Elastic Constant Matrix: (Units=GPa)
#
#
# Indices 1 2 3 4 5 6 
#
# 1 74.3862 53.4837 30.2922 0.0000 0.0000 0.0000
# 2 53.4837 74.3862 30.2922 0.0000 0.0000 0.0000
# 3 30.2922 30.2922 104.2786 0.0000 0.0000 0.0000
# 4 0.0000 0.0000 0.0000 16.4736 0.0000 0.0000
# 5 0.0000 0.0000 0.0000 0.0000 16.4736 0.0000
# 6 0.0000 0.0000 0.0000 0.0000 0.0000 10.4512
#
#
#
# Elastic Compliance Matrix: (Units=1/GPa)
#
#
# Indices 1 2 3 4 5 6 
#
# 1 0.028455 -0.019386 -0.002634 0.000000 0.000000 0.000000
# 2 -0.019386 0.028455 -0.002634 0.000000 0.000000 0.000000
# 3 -0.002634 -0.002634 0.011120 0.000000 0.000000 0.000000
# 4 0.000000 0.000000 0.000000 0.060703 0.000000 0.000000
# 5 0.000000 0.000000 0.000000 0.000000 0.060703 0.000000
# 6 0.000000 0.000000 0.000000 0.000000 0.000000 0.095682
#
#
# Mechanical properties :
#
#
# Convention : Reuss Voigt Hill
#
# Bulk Modulus (GPa) = 53.41889 53.46524 53.44207
# Shear Modulus (GPa) = 14.67699 17.94519 16.31109
#
# Velocity S-wave (km/s) = 3.05411 3.37707 3.21964
# Velocity P-wave (km/s) = 6.81071 7.01318 6.91269
#
# Compressibility (1/GPa) = 0.01871997
#
# Stress axis : x y z
#
# Youngs Moduli (GPa) = 35.14331 35.14331 89.92620
#
# Poissons Ratio (x) = 0.68130 0.23690
# Poissons Ratio (y) = 0.68130 0.23690
# Poissons Ratio (z) = 0.09258 0.09258
#
# Static dielectric constant tensor:
#      x y z
#    x 1.516660 0.000000 0.000000 
#    y 0.000000 1.516660 0.000000 
#    z 0.000000 0.000000 1.544110 
# 
# From -- ./inp_files/1184.got.cif
#   From: 2010.05.17/outbox.cif.g08.bks.cpg/sg162_1_cif.got.tgz:1184.got - 2010.05.20 10:53:12.
