data_PCOD9577920
_publ_section_title
;
Structure prediction by ZEFSAII (Michael W. Deem and Ramdas Pophale) SiO2 
 PCOD9577920
Probable space group: P -3 1 M 
;
_chemical_formula_sum "Si O2"
_cell_formula_units_Z 66
_cell_length_a 21.234545
_cell_length_b 21.234545
_cell_length_c 7.892957
_cell_angle_alpha 90.000000
_cell_angle_beta 90.000000
_cell_angle_gamma 120.000000
_cell_volume 3082.167863
_symmetry_space_group_name_H-M "P -3 1 M "
_symmetry_group_IT_number 162
_symmetry_cell_setting 'hexagonal'
loop_
_space_group_symop_operation_xyz
x,y,z
-y,x-y,z
-x+y,-x,z
-y,-x,-z
-x+y,y,-z
x,x-y,-z
-x,-y,-z
y,-x+y,-z
x-y,x,-z
y,x,z
x-y,-y,z
-x,-x+y,z
loop_
_atom_site_type_symbol
_atom_site_label
_atom_site_fract_x
_atom_site_fract_y
_atom_site_fract_z
Si Si1 0.843364 0.686728 0.500000
Si Si2 0.780492 0.464471 0.849762
Si Si3 0.083609 0.836102 0.841235
Si Si4 0.693163 0.082589 0.978510
Si Si5 0.915207 0.318975 0.615020
Si Si6 0.557667 0.208335 0.643493
O O1 0.864382 0.733900 0.328910
O O2 0.756350 0.637426 0.513492
O O3 0.853688 0.537328 0.898061
O O4 0.799081 0.402664 0.797982
O O5 0.733943 0.473685 0.698470
O O6 0.722543 0.445086 0.000000
O O7 0.090046 0.767431 0.908623
O O8 0.000000 0.806407 0.799846
O O9 0.109815 0.890186 0.000000
O O10 0.629730 0.000000 0.941350
O O11 0.697755 0.091222 0.182526
O O12 0.867437 0.357137 0.586070
O O13 0.000000 0.368558 0.573473
O O14 0.618559 0.237117 0.500000
#
# Coordination Sequence:
#
# PCOD9577920 Si02
#       6
#     6  12  12  12  12  12
#     4  12  24  42  72 106 145 188 234 292 371 436
#     4  12  24  45  67  95 124 176 239 292 353 426
#     4  11  23  41  70 107 144 184 232 285 348 422
#     4  10  22  43  72 101 132 173 226 298 367 427
#     4  11  25  45  70 100 139 182 232 298 370 434
#     4  12  28  43  64  92 134 182 238 296 351 422
#
# _framework density 21.413499999999999
#
# number of rings (size 3 to 8) (size 9 to 14) (size 15 to 20)
#    0.000    0.727    3.636    3.636    5.091    1.818 
#    0.000    1.818    0.000    0.182    0.000    0.636 
#    0.000    0.000    0.000    0.000    0.000    0.000 
#
# Total GULP energy -369233.902431 kJ/mol
# GULP energy per Si atom -5594.453067 kJ/mol
# Density = 2.136476 g / cm^3
# Si number density = 21.413500 Si / 1000 Ang^3
#
#
#
# Elastic Constant Matrix: (Units=GPa)
#
#
# Indices 1 2 3 4 5 6 
#
# 1 90.2645 43.6343 8.4473 0.0000 2.3718 0.0000
# 2 43.6343 90.2645 8.4473 0.0000 -2.3718 0.0000
# 3 8.4473 8.4473 77.9613 0.0000 0.0000 0.0000
# 4 0.0000 0.0000 0.0000 22.1119 0.0000 -2.3718
# 5 2.3718 -2.3718 0.0000 0.0000 22.1119 0.0000
# 6 0.0000 0.0000 0.0000 -2.3718 0.0000 23.3151
#
#
#
# Elastic Compliance Matrix: (Units=1/GPa)
#
#
# Indices 1 2 3 4 5 6 
#
# 1 0.014627 -0.007055 -0.000820 0.000000 -0.002326 0.000000
# 2 -0.007055 0.014627 -0.000820 0.000000 0.002326 0.000000
# 3 -0.000820 -0.000820 0.013005 0.000000 0.000000 0.000000
# 4 0.000000 0.000000 0.000000 0.045723 0.000000 0.004651
# 5 -0.002326 0.002326 0.000000 0.000000 0.045723 0.000000
# 6 0.000000 0.000000 0.000000 0.004651 0.000000 0.043364
#
#
# Mechanical properties :
#
#
# Convention : Reuss Voigt Hill
#
# Bulk Modulus (GPa) = 40.21452 42.17202 41.19327
# Shear Modulus (GPa) = 24.66094 26.70522 25.68308
#
# Velocity S-wave (km/s) = 3.39728 3.53529 3.46697
# Velocity P-wave (km/s) = 5.84889 6.03335 5.94183
#
# Compressibility (1/GPa) = 0.02486664
#
# Stress axis : x y z
#
# Youngs Moduli (GPa) = 68.36725 68.36725 76.89552
#
# Poissons Ratio (x) = 0.48233 0.06309
# Poissons Ratio (y) = 0.48233 0.06309
# Poissons Ratio (z) = 0.05609 0.05609
#
# Static dielectric constant tensor:
#      x y z
#    x 1.752280 0.000000 0.000000 
#    y 0.000000 1.752280 0.000000 
#    z 0.000000 0.000000 1.907760 
# 
# From -- ./inp_files/1593.got.cif
#   From: 2010.05.17/outbox.cif.g08.bks.cpg/sg162_1_cif.got.tgz:1593.got - 2010.05.20 10:53:12.
