data_PCOD9577370
_publ_section_title
;
Structure prediction by ZEFSAII (Michael W. Deem and Ramdas Pophale) SiO2 
 PCOD9577370
Probable space group: P 3 1 C
;
_chemical_formula_sum "Si O2"
_cell_formula_units_Z 36
_cell_length_a 7.071877
_cell_length_b 7.071877
_cell_length_c 32.994783
_cell_angle_alpha 90.000000
_cell_angle_beta 90.000000
_cell_angle_gamma 120.000000
_cell_volume 1429.043027
_symmetry_space_group_name_H-M "P 3 1 C"
_symmetry_group_IT_number 159
_symmetry_cell_setting 'hexagonal'
loop_
_space_group_symop_operation_xyz
x,y,z
-y,x-y,z
-x+y,-x,z
y,x,1/2+z
x-y,-y,1/2+z
-x,-x+y,1/2+z
loop_
_atom_site_type_symbol
_atom_site_label
_atom_site_fract_x
_atom_site_fract_y
_atom_site_fract_z
Si Si1 0.727963 0.790186 0.824090
Si Si2 0.915281 0.340931 0.906440
Si Si3 0.063247 0.273945 0.664355
Si Si4 0.457918 0.057473 0.744482
Si Si5 0.563982 0.630257 0.082363
Si Si6 0.578057 0.660718 0.994935
O O1 0.638756 0.701927 0.868529
O O2 0.588654 0.656283 0.785649
O O3 0.825053 0.048233 0.821614
O O4 0.867117 0.540021 0.903085
O O5 0.987076 0.326127 0.951621
O O6 0.070268 0.406667 0.704034
O O7 0.068091 0.384327 0.621881
O O8 0.222925 0.174155 0.665306
O O9 0.718212 0.161753 0.744049
O O10 0.547237 0.852816 0.083643
O O11 0.667587 0.638545 0.038362
O O12 0.540100 0.867533 0.995221
#
# Coordination Sequence:
#
# PCOD9577370 Si02
#       6
#     6   6   6   6   6   6
#     4  10  22  36  59  83 112 146 187 238 280 342
#     4  10  22  36  56  83 119 150 192 236 295 351
#     4  10  20  32  54  88 112 142 183 237 269 339
#     4  10  20  36  63  81 109 150 188 224 289 340
#     4   8  16  36  58  76 107 154 190 224 286 344
#     4   8  18  36  60  79 111 150 198 239 289 338
#
# _framework density 25.191680000000002
#
# number of rings (size 3 to 8) (size 9 to 14) (size 15 to 20)
#    2.000    0.667    0.000    3.000    2.333    0.000 
#    6.000    0.000    0.000   14.000    0.000    0.000 
#    0.000    0.000    0.000    0.000    0.000    0.000 
#
# Total GULP energy -200742.733739 kJ/mol
# GULP energy per Si atom -5576.187048 kJ/mol
# Density = 2.513434 g / cm^3
# Si number density = 25.191680 Si / 1000 Ang^3
#
#
#
# Elastic Constant Matrix: (Units=GPa)
#
#
# Indices 1 2 3 4 5 6 
#
# 1 67.2593 9.6081 48.9669 0.0000 1.4735 0.0000
# 2 9.6081 67.2593 48.9669 0.0000 -1.4735 0.0000
# 3 48.9669 48.9669 281.1447 0.0000 0.0000 0.0000
# 4 0.0000 0.0000 0.0000 29.5884 0.0000 -1.4735
# 5 1.4735 -1.4735 0.0000 0.0000 29.5884 0.0000
# 6 0.0000 0.0000 0.0000 -1.4735 0.0000 28.8256
#
#
#
# Elastic Compliance Matrix: (Units=1/GPa)
#
#
# Indices 1 2 3 4 5 6 
#
# 1 0.017055 -0.000335 -0.002912 0.000000 -0.000866 0.000000
# 2 -0.000335 0.017055 -0.002912 0.000000 0.000866 0.000000
# 3 -0.002912 -0.002912 0.004571 0.000000 0.000000 0.000000
# 4 0.000000 0.000000 0.000000 0.033883 0.000000 0.001732
# 5 -0.000866 0.000866 0.000000 0.000000 0.033883 0.000000
# 6 0.000000 0.000000 0.000000 0.001732 0.000000 0.034780
#
#
# Mechanical properties :
#
#
# Convention : Reuss Voigt Hill
#
# Bulk Modulus (GPa) = 37.93317 70.08303 54.00810
# Shear Modulus (GPa) = 30.80085 38.14191 34.47138
#
# Velocity S-wave (km/s) = 3.50045 3.89532 3.70315
# Velocity P-wave (km/s) = 5.60607 6.93626 6.30634
#
# Compressibility (1/GPa) = 0.02636215
#
# Stress axis : x y z
#
# Youngs Moduli (GPa) = 58.63475 58.63475 218.75794
#
# Poissons Ratio (x) = 0.01966 0.63703
# Poissons Ratio (y) = 0.01966 0.63703
# Poissons Ratio (z) = 0.17075 0.17075
#
# Static dielectric constant tensor:
#      x y z
#    x 2.024710 0.000000 0.000000 
#    y 0.000000 2.024710 0.000000 
#    z 0.000000 0.000000 1.935220 
# 
# From -- ./inp_files/1276.got.cif
#   From: 2010.05.17/outbox.cif.g08.bks.cpg/sg159_cif.got.tgz:1276.got - 2010.05.20 10:50:30.
