data_PCOD9577126
_publ_section_title
;
Structure prediction by ZEFSAII (Michael W. Deem and Ramdas Pophale) SiO2 
 PCOD9577126
Probable space group: R 3 2
;
_chemical_formula_sum "Si O2"
_cell_formula_units_Z 48
_cell_length_a 11.248447
_cell_length_b 11.248447
_cell_length_c 20.462965
_cell_angle_alpha 90.000000
_cell_angle_beta 90.000000
_cell_angle_gamma 120.000000
_cell_volume 2242.251514
_symmetry_space_group_name_H-M "R 3 2"
_symmetry_group_IT_number 155
_symmetry_cell_setting 'hexagonal'
loop_
_space_group_symop_operation_xyz
x,y,z
-y,x-y,z
-x+y,-x,z
x-y,-y,-z
-x,-x+y,-z
y,x,-z
2/3+x,1/3+y,1/3+z
2/3-y,1/3+x-y,1/3+z
2/3-x+y,1/3-x,1/3+z
2/3+x-y,1/3-y,1/3-z
2/3-x,1/3-x+y,1/3-z
2/3+y,1/3+x,1/3-z
1/3+x,2/3+y,2/3+z
1/3-y,2/3+x-y,2/3+z
1/3-x+y,2/3-x,2/3+z
1/3+x-y,2/3-y,2/3-z
1/3-x,2/3-x+y,2/3-z
1/3+y,2/3+x,2/3-z
loop_
_atom_site_type_symbol
_atom_site_label
_atom_site_fract_x
_atom_site_fract_y
_atom_site_fract_z
Si Si1 0.603271 0.838829 0.514835
Si Si2 0.333334 0.666668 0.087264
Si Si3 0.333334 0.666668 0.587624
Si Si4 0.428532 0.050369 0.929864
O O1 0.465715 0.795146 0.555060
O O2 0.597724 0.764734 0.445982
O O3 0.687825 0.786659 0.558330
O O4 0.683863 0.000000 0.500000
O O5 0.333334 0.666668 0.166667
O O6 0.407050 0.823262 0.063991
O O7 0.333334 0.666668 0.666667
O O8 0.364411 0.000000 0.000000
#
# Coordination Sequence:
#
# PCOD9577126 Si02
#       4
#    18   6   6  18
#     4  11  24  47  70 101 143 187 241 303 360 443
#     4  12  18  46  68 103 141 186 247 296 352 423
#     4  12  30  49  71 106 153 190 230 307 393 447
#     4  11  22  40  73 105 142 187 244 301 358 422
#
# _framework density 21.407053000000001
#
# number of rings (size 3 to 8) (size 9 to 14) (size 15 to 20)
#    0.000    0.750    7.500    1.125    5.250    4.500 
#    0.000    0.000    0.000    0.000    0.000    0.000 
#    0.000    0.000    0.000    0.000    0.000    0.000 
#
# Total GULP energy -89346.580655 kJ/mol
# GULP energy per Si atom -5584.161291 kJ/mol
# Density = 2.135833 g / cm^3
# Si number density = 21.407053 Si / 1000 Ang^3
#
#
#
# Elastic Constant Matrix: (Units=GPa)
#
#
# Indices 1 2 3 4 5 6 
#
# 1 70.6394 6.6063 44.2939 -1.3488 -0.0001 0.0000
# 2 6.6063 70.6419 44.2940 1.3486 0.0002 0.0000
# 3 44.2939 44.2940 149.3735 -0.0002 0.0000 0.0000
# 4 -1.3488 1.3486 -0.0002 22.1607 0.0001 0.0001
# 5 -0.0001 0.0002 0.0000 0.0001 22.1603 -1.3488
# 6 0.0000 0.0000 0.0000 0.0001 -1.3488 32.0174
#
#
#
# Elastic Compliance Matrix: (Units=1/GPa)
#
#
# Indices 1 2 3 4 5 6 
#
# 1 0.017637 0.001980 -0.005817 0.000953 0.000000 0.000000
# 2 0.001980 0.017636 -0.005817 -0.000953 0.000000 0.000000
# 3 -0.005817 -0.005817 0.010144 0.000000 0.000000 0.000000
# 4 0.000953 -0.000953 0.000000 0.045241 0.000000 0.000000
# 5 0.000000 0.000000 0.000000 0.000000 0.045242 0.001906
# 6 0.000000 0.000000 0.000000 0.000000 0.001906 0.031313
#
#
# Mechanical properties :
#
#
# Convention : Reuss Voigt Hill
#
# Bulk Modulus (GPa) = 38.30000 53.44926 45.87463
# Shear Modulus (GPa) = 25.61153 28.29839 26.95496
#
# Velocity S-wave (km/s) = 3.46266 3.63976 3.55232
# Velocity P-wave (km/s) = 5.82382 6.53346 6.18882
#
# Compressibility (1/GPa) = 0.02610966
#
# Stress axis : x y z
#
# Youngs Moduli (GPa) = 56.69910 56.70161 98.57646
#
# Poissons Ratio (x) = -0.11226 0.57342
# Poissons Ratio (y) = -0.11225 0.57340
# Poissons Ratio (z) = 0.32982 0.32982
#
# Static dielectric constant tensor:
#      x y z
#    x 1.822180 0.000000 0.000000 
#    y 0.000000 1.822170 0.000000 
#    z 0.000000 0.000000 1.737820 
# 
# From -- ./inp_files/6561.got.cif
#   From: 2010.05.17/outbox.cif.g08.bks.cpg/sg155_4_cif.got.tgz:6561.got - 2010.05.20 10:44:35.
