data_PCOD9577411
_publ_section_title
;
Structure prediction by ZEFSAII (Michael W. Deem and Ramdas Pophale) SiO2 
 PCOD9577411
Probable space group: P 3 1 C
;
_chemical_formula_sum "Si O2"
_cell_formula_units_Z 40
_cell_length_a 8.626655
_cell_length_b 8.626655
_cell_length_c 31.585580
_cell_angle_alpha 90.000000
_cell_angle_beta 90.000000
_cell_angle_gamma 120.000000
_cell_volume 2035.655804
_symmetry_space_group_name_H-M "P 3 1 C"
_symmetry_group_IT_number 159
_symmetry_cell_setting 'hexagonal'
loop_
_space_group_symop_operation_xyz
x,y,z
-y,x-y,z
-x+y,-x,z
y,x,1/2+z
x-y,-y,1/2+z
-x,-x+y,1/2+z
loop_
_atom_site_type_symbol
_atom_site_label
_atom_site_fract_x
_atom_site_fract_y
_atom_site_fract_z
Si Si1 0.961339 0.324422 0.920390
Si Si2 0.038662 0.675579 0.205243
Si Si3 0.343155 0.310827 0.546801
Si Si4 0.333334 0.666668 0.262585
Si Si5 0.339764 0.043970 0.174033
Si Si6 0.333334 0.666668 0.363048
Si Si7 0.043969 0.704206 0.951600
Si Si8 0.032328 0.343156 0.578832
O O1 0.833690 0.314613 0.881346
O O2 0.988950 0.499006 0.944757
O O3 0.160813 0.352651 0.918250
O O4 0.847021 0.137451 0.944739
O O5 0.166313 0.685391 0.244287
O O6 0.011049 0.500994 0.180877
O O7 0.839189 0.647351 0.207383
O O8 0.152979 0.862549 0.180894
O O9 0.366720 0.254651 0.499720
O O10 0.164687 0.322783 0.547339
O O11 0.500000 0.500000 0.562817
O O12 0.322783 0.158095 0.578295
O O13 0.333334 0.666667 0.312817
O O14 0.366722 0.112070 0.125914
#
# Coordination Sequence:
#
# PCOD9577411 Si02
#       8
#     6   6   6   2   6   2   6   6
#     4  10  22  37  63  85 116 157 192 239 296 357
#     4  10  22  37  63  85 116 157 192 239 296 357
#     4  12  24  36  53  80 115 159 206 259 300 329
#     4   9  21  45  69  96 120 141 183 243 306 372
#     4  11  20  38  55  83 116 157 206 243 289 358
#     4   9  21  45  69  96 120 141 183 243 306 372
#     4  11  20  38  55  83 116 157 206 243 289 358
#     4  12  24  36  53  80 115 159 206 259 300 329
#
# _framework density 19.649688000000001
#
# number of rings (size 3 to 8) (size 9 to 14) (size 15 to 20)
#    0.000    1.200    0.000    8.100    0.000    0.000 
#    0.000    6.000    0.000    0.000    0.000    0.000 
#    0.000    0.000    0.000    0.000    0.000    0.000 
#
# Total GULP energy -223131.854493 kJ/mol
# GULP energy per Si atom -5578.296362 kJ/mol
# Density = 1.960496 g / cm^3
# Si number density = 19.649688 Si / 1000 Ang^3
#
#
#
# Elastic Constant Matrix: (Units=GPa)
#
#
# Indices 1 2 3 4 5 6 
#
# 1 89.2917 11.5194 12.6819 0.0000 4.8337 0.0000
# 2 11.5194 89.2917 12.6819 0.0000 -4.8337 0.0000
# 3 12.6819 12.6819 110.8894 0.0000 0.0000 0.0000
# 4 0.0000 0.0000 0.0000 15.3407 0.0000 -4.8337
# 5 4.8337 -4.8337 0.0000 0.0000 15.3407 0.0000
# 6 0.0000 0.0000 0.0000 -4.8337 0.0000 38.8862
#
#
#
# Elastic Compliance Matrix: (Units=1/GPa)
#
#
# Indices 1 2 3 4 5 6 
#
# 1 0.011798 -0.001584 -0.001168 0.000000 -0.004217 0.000000
# 2 -0.001584 0.011798 -0.001168 0.000000 0.004217 0.000000
# 3 -0.001168 -0.001168 0.009285 0.000000 0.000000 0.000000
# 4 0.000000 0.000000 0.000000 0.067843 0.000000 0.008433
# 5 -0.004217 0.004217 0.000000 0.000000 0.067843 0.000000
# 6 0.000000 0.000000 0.000000 0.008433 0.000000 0.026764
#
#
# Mechanical properties :
#
#
# Convention : Reuss Voigt Hill
#
# Bulk Modulus (GPa) = 39.93646 40.35990 40.14818
# Shear Modulus (GPa) = 23.63852 30.75284 27.19568
#
# Velocity S-wave (km/s) = 3.47219 3.96037 3.72429
# Velocity P-wave (km/s) = 6.03681 6.44182 6.24260
#
# Compressibility (1/GPa) = 0.02503978
#
# Stress axis : x y z
#
# Youngs Moduli (GPa) = 84.76153 84.76155 107.69873
#
# Poissons Ratio (x) = 0.13429 0.12580
# Poissons Ratio (y) = 0.13429 0.12580
# Poissons Ratio (z) = 0.09901 0.09901
#
# Static dielectric constant tensor:
#      x y z
#    x 1.708680 0.000000 0.000000 
#    y 0.000000 1.708680 0.000000 
#    z 0.000000 0.000000 1.639590 
# 
# From -- ./inp_files/1295.got.cif
#   From: 2010.05.17/outbox.cif.g08.bks.cpg/sg159_cif.got.tgz:1295.got - 2010.05.20 10:50:30.
