data_PCOD9577526
_publ_section_title
;
Structure prediction by ZEFSAII (Michael W. Deem and Ramdas Pophale) SiO2 
 PCOD9577526
Probable space group: R 3 C
;
_chemical_formula_sum "Si O2"
_cell_formula_units_Z 144
_cell_length_a 21.259976
_cell_length_b 21.259976
_cell_length_c 17.829954
_cell_angle_alpha 90.000000
_cell_angle_beta 90.000000
_cell_angle_gamma 120.000000
_cell_volume 6979.212059
_symmetry_space_group_name_H-M "R 3 C"
_symmetry_group_IT_number 161
_symmetry_cell_setting 'hexagonal'
loop_
_space_group_symop_operation_xyz
x,y,z
-y,x-y,z
-x+y,-x,z
-x+y,y,1/2+z
x,x-y,1/2+z
-y,-x,1/2+z
2/3+x,1/3+y,1/3+z
2/3-y,1/3+x-y,1/3+z
2/3-x+y,1/3-x,1/3+z
2/3-x+y,1/3+y,5/6+z
2/3+x,1/3+x-y,5/6+z
2/3-y,1/3-x,5/6+z
1/3+x,2/3+y,2/3+z
1/3-y,2/3+x-y,2/3+z
1/3-x+y,2/3-x,2/3+z
1/3-x+y,2/3+y,1/6+z
1/3+x,2/3+x-y,1/6+z
1/3-y,2/3-x,1/6+z
loop_
_atom_site_type_symbol
_atom_site_label
_atom_site_fract_x
_atom_site_fract_y
_atom_site_fract_z
Si Si1 0.460498 0.153823 0.640819
Si Si2 0.188392 0.935253 0.769350
Si Si3 0.068417 0.397535 0.129841
Si Si4 0.090655 0.023950 0.389779
Si Si5 0.479382 0.422161 0.669935
Si Si6 0.213115 0.104995 0.493910
Si Si7 0.615078 0.692201 0.703357
Si Si8 0.095460 0.342493 0.917802
O O1 0.445459 0.214742 0.606697
O O2 0.425704 0.118528 0.723110
O O3 0.546279 0.190029 0.659596
O O4 0.429455 0.084739 0.587234
O O5 0.236055 0.931924 0.700485
O O6 0.217364 0.906406 0.837330
O O7 0.215794 0.018781 0.790608
O O8 0.139618 0.413272 0.175549
O O9 0.027113 0.316406 0.096596
O O10 0.011114 0.409463 0.175546
O O11 0.019735 0.943969 0.384038
O O12 0.132009 0.045330 0.469209
O O13 0.518122 0.431467 0.749216
O O14 0.525168 0.497137 0.626094
O O15 0.227317 0.170181 0.549062
O O16 0.589204 0.639733 0.631280
#
# Coordination Sequence:
#
# PCOD9577526 Si02
#       8
#    18  18  18  18  18  18  18  18
#     4  10  19  34  53  82 115 147 186 242 284 343
#     4  11  23  36  58  83 119 156 187 244 298 351
#     4   9  20  35  54  84 111 142 201 227 287 352
#     4   9  19  30  52  86 112 135 192 240 283 338
#     4  11  19  34  57  80 106 152 183 237 293 338
#     4  11  19  36  55  82 116 148 186 244 288 343
#     4  10  22  36  53  85 114 152 191 237 296 352
#     4  11  21  37  58  84 115 154 196 243 291 357
#
# _framework density 20.632701000000001
#
# number of rings (size 3 to 8) (size 9 to 14) (size 15 to 20)
#    0.250    1.500    6.250    0.750    0.000    2.000 
#    0.000    0.000    0.000    0.000    3.250    0.000 
#    0.000    0.000    0.000    0.000    0.000    0.000 
#
# Total GULP energy -267508.200389 kJ/mol
# GULP energy per Si atom -5573.087508 kJ/mol
# Density = 2.058574 g / cm^3
# Si number density = 20.632701 Si / 1000 Ang^3
#
#
#
# Elastic Constant Matrix: (Units=GPa)
#
#
# Indices 1 2 3 4 5 6 
#
# 1 111.5816 32.3723 1.8200 -1.2567 0.0000 0.0000
# 2 32.3723 111.5816 1.8200 1.2567 0.0000 0.0000
# 3 1.8200 1.8200 26.2725 0.0000 0.0000 0.0000
# 4 -1.2567 1.2567 0.0000 21.9848 0.0000 0.0000
# 5 0.0000 0.0000 0.0000 0.0000 21.9848 -1.2567
# 6 0.0000 0.0000 0.0000 0.0000 -1.2567 39.6047
#
#
#
# Elastic Compliance Matrix: (Units=1/GPa)
#
#
# Indices 1 2 3 4 5 6 
#
# 1 0.009803 -0.002844 -0.000482 0.000723 0.000000 0.000000
# 2 -0.002844 0.009803 -0.000482 -0.000723 0.000000 0.000000
# 3 -0.000482 -0.000482 0.038129 0.000000 0.000000 0.000000
# 4 0.000723 -0.000723 0.000000 0.045569 0.000000 0.000000
# 5 0.000000 0.000000 0.000000 0.000000 0.045569 0.001446
# 6 0.000000 0.000000 0.000000 0.000000 0.001446 0.025295
#
#
# Mechanical properties :
#
#
# Convention : Reuss Voigt Hill
#
# Bulk Modulus (GPa) = 19.95260 35.71782 27.83521
# Shear Modulus (GPa) = 25.18991 30.94307 28.06649
#
# Velocity S-wave (km/s) = 3.49789 3.87681 3.69221
# Velocity P-wave (km/s) = 5.09951 6.11461 5.62998
#
# Compressibility (1/GPa) = 0.05011879
#
# Stress axis : x y z
#
# Youngs Moduli (GPa) = 102.00663 102.00663 26.22651
#
# Poissons Ratio (x) = 0.29015 0.01264
# Poissons Ratio (y) = 0.29015 0.01264
# Poissons Ratio (z) = 0.04917 0.04917
#
# Static dielectric constant tensor:
#      x y z
#    x 1.782790 0.000000 0.000000 
#    y 0.000000 1.782790 0.000000 
#    z 0.000000 0.000000 1.786110 
# 
# From -- ./inp_files/1769.got.cif
#   From: 2010.05.17/outbox.cif.g08.bks.cpg/sg161_cif.got.tgz:1769.got - 2010.05.20 10:52:32.
