data_PCOD9577191
_publ_section_title
;
Structure prediction by ZEFSAII (Michael W. Deem and Ramdas Pophale) SiO2 
 PCOD9577191
Probable space group: P 3 M 1
;
_chemical_formula_sum "Si O2"
_cell_formula_units_Z 42
_cell_length_a 20.998657
_cell_length_b 20.998657
_cell_length_c 5.595681
_cell_angle_alpha 90.000000
_cell_angle_beta 90.000000
_cell_angle_gamma 120.000000
_cell_volume 2136.813502
_symmetry_space_group_name_H-M "P 3 M 1"
_symmetry_group_IT_number 156
_symmetry_cell_setting 'hexagonal'
loop_
_space_group_symop_operation_xyz
x,y,z
-y,x-y,z
-x+y,-x,z
-x+y,y,z
x,x-y,z
-y,-x,z
loop_
_atom_site_type_symbol
_atom_site_label
_atom_site_fract_x
_atom_site_fract_y
_atom_site_fract_z
Si Si1 0.188325 0.961468 0.670720
Si Si2 0.270465 0.391533 0.211987
Si Si3 0.062454 0.390431 0.714119
Si Si4 0.461329 0.398437 0.514482
Si Si5 0.386778 0.124354 0.207823
Si Si6 0.779772 0.775595 0.166726
Si Si7 0.525873 0.191350 0.863079
O O1 0.122416 0.877585 0.645030
O O2 0.266610 0.963435 0.700658
O O3 0.193164 0.005295 0.428961
O O4 0.178447 0.991165 0.925626
O O5 0.202865 0.405730 0.222026
O O6 0.315865 0.419196 0.459000
O O7 0.236901 0.302963 0.196411
O O8 0.312515 0.419479 0.959943
O O9 0.994977 0.405902 0.714779
O O10 0.522332 0.477669 0.418633
O O11 0.402831 0.336038 0.343753
O O12 0.504626 0.360100 0.622245
O O13 0.393224 0.196612 0.337935
O O14 0.303257 0.076286 0.125093
O O15 0.451031 0.156713 0.012674
O O16 0.591544 0.183087 0.980094
O O17 0.551874 0.275937 0.822229
#
# Coordination Sequence:
#
# PCOD9577191 Si02
#       7
#     6   6   6   6   6   6   6
#     4  10  17  29  51  76 107 137 163 196 245 315
#     4  10  17  29  51  76 107 137 163 196 245 315
#     4  10  18  30  47  73 106 133 177 199 250 309
#     4  11  22  36  52  71  99 143 186 235 290 356
#     4  11  22  36  52  71  99 143 186 235 290 356
#     4  10  18  30  47  73 106 133 177 199 250 309
#     4  10  21  36  54  72  91 122 182 252 314 360
#
# _framework density 19.655436999999999
#
# number of rings (size 3 to 8) (size 9 to 14) (size 15 to 20)
#    0.000    1.714    2.857    7.000    0.000    0.000 
#    0.000    0.000    0.000    4.571    0.000    0.000 
#    0.000    0.000    0.000   38.571    0.000    0.000 
#
# Total GULP energy -233918.117583 kJ/mol
# GULP energy per Si atom -5569.478990 kJ/mol
# Density = 1.961070 g / cm^3
# Si number density = 19.655437 Si / 1000 Ang^3
#
#
#
# Elastic Constant Matrix: (Units=GPa)
#
#
# Indices 1 2 3 4 5 6 
#
# 1 42.8081 34.0287 12.7356 2.0873 -0.0002 0.0000
# 2 34.0287 42.8081 12.7356 -2.0873 0.0002 0.0000
# 3 12.7356 12.7356 131.1112 0.0000 0.0000 0.0000
# 4 2.0873 -2.0873 0.0000 14.5934 0.0000 0.0002
# 5 -0.0002 0.0002 0.0000 0.0000 14.5934 2.0873
# 6 0.0000 0.0000 0.0000 0.0002 2.0873 4.3897
#
#
#
# Elastic Compliance Matrix: (Units=1/GPa)
#
#
# Indices 1 2 3 4 5 6 
#
# 1 0.067832 -0.054384 -0.001306 -0.017481 0.000002 0.000000
# 2 -0.054384 0.067832 -0.001306 0.017481 -0.000002 0.000000
# 3 -0.001306 -0.001306 0.007881 0.000000 0.000000 0.000000
# 4 -0.017481 0.017481 0.000000 0.073525 0.000000 -0.000003
# 5 0.000002 -0.000002 0.000000 0.000000 0.073525 -0.034961
# 6 0.000000 0.000000 0.000000 -0.000003 -0.034961 0.244432
#
#
# Mechanical properties :
#
#
# Convention : Reuss Voigt Hill
#
# Bulk Modulus (GPa) = 33.83966 37.30303 35.57135
# Shear Modulus (GPa) = 7.58877 17.19713 12.39295
#
# Velocity S-wave (km/s) = 1.96705 2.96113 2.51372
# Velocity P-wave (km/s) = 4.73422 5.54173 5.15381
#
# Compressibility (1/GPa) = 0.02955112
#
# Stress axis : x y z
#
# Youngs Moduli (GPa) = 14.74237 14.74237 126.88935
#
# Poissons Ratio (x) = 0.80175 0.16575
# Poissons Ratio (y) = 0.80175 0.16575
# Poissons Ratio (z) = 0.01926 0.01926
#
# Static dielectric constant tensor:
#      x y z
#    x 1.705480 0.000000 0.000000 
#    y 0.000000 1.705480 0.000000 
#    z 0.000000 0.000000 1.817870 
# 
# From -- ./inp_files/191.got.cif
#   From: 2010.05.17/outbox.cif.g08.bks.cpg/sg156_cif.got.tgz:191.got - 2010.05.20 10:49:08.
