data_PCOD9577164
_publ_section_title
;
Structure prediction by ZEFSAII (Michael W. Deem and Ramdas Pophale) SiO2 
 PCOD9577164
Probable space group: R 3 2
;
_chemical_formula_sum "Si O2"
_cell_formula_units_Z 75
_cell_length_a 11.549528
_cell_length_b 11.549528
_cell_length_c 27.057322
_cell_angle_alpha 90.000000
_cell_angle_beta 90.000000
_cell_angle_gamma 120.000000
_cell_volume 3125.675682
_symmetry_space_group_name_H-M "R 3 2"
_symmetry_group_IT_number 155
_symmetry_cell_setting 'hexagonal'
loop_
_space_group_symop_operation_xyz
x,y,z
-y,x-y,z
-x+y,-x,z
x-y,-y,-z
-x,-x+y,-z
y,x,-z
2/3+x,1/3+y,1/3+z
2/3-y,1/3+x-y,1/3+z
2/3-x+y,1/3-x,1/3+z
2/3+x-y,1/3-y,1/3-z
2/3-x,1/3-x+y,1/3-z
2/3+y,1/3+x,1/3-z
1/3+x,2/3+y,2/3+z
1/3-y,2/3+x-y,2/3+z
1/3-x+y,2/3-x,2/3+z
1/3+x-y,2/3-y,2/3-z
1/3-x,2/3-x+y,2/3-z
1/3+y,2/3+x,2/3-z
loop_
_atom_site_type_symbol
_atom_site_label
_atom_site_fract_x
_atom_site_fract_y
_atom_site_fract_z
Si Si1 0.333334 0.666667 0.738093
Si Si2 0.666667 0.872576 0.333334
Si Si3 0.000000 0.000000 0.190424
Si Si4 0.592919 0.927163 0.601739
Si Si5 0.115490 0.420272 0.919516
Si Si6 0.733757 0.733757 0.500000
Si Si7 0.731799 0.000000 0.500000
O O1 0.333334 0.666667 0.798111
O O2 0.372868 0.557517 0.721070
O O3 0.741912 0.825670 0.294995
O O4 0.737016 0.002689 0.369598
O O5 0.134006 0.013203 0.213742
O O6 0.522842 0.016070 0.610529
O O7 0.628427 0.949001 0.544370
O O8 0.997103 0.315132 0.883702
O O9 0.875061 0.748647 0.513159
#
# Coordination Sequence:
#
# PCOD9577164 Si02
#       7
#     6   9   6  18  18   9   9
#     4  12  27  46  88 120 153 207 268 358 399 472
#     4  12  28  48  70 112 162 206 254 326 402 492
#     4  12  21  48  79 112 141 205 262 324 402 475
#     4  12  26  49  76 114 156 205 270 324 411 481
#     4  12  24  47  75 108 151 205 259 323 402 487
#     4  12  24  44  74 110 146 194 258 330 388 476
#     4  12  24  48  74 116 154 198 262 336 398 476
#
# _framework density 23.994812
#
# number of rings (size 3 to 8) (size 9 to 14) (size 15 to 20)
#    0.000    0.000    4.800    6.720    0.000    4.800 
#    0.000    0.000    0.000    0.000    0.000    0.000 
#    0.000    0.000    0.000    0.000    0.000    0.000 
#
# Total GULP energy -139874.637861 kJ/mol
# GULP energy per Si atom -5594.985514 kJ/mol
# Density = 2.394020 g / cm^3
# Si number density = 23.994812 Si / 1000 Ang^3
#
#
#
# Elastic Constant Matrix: (Units=GPa)
#
#
# Indices 1 2 3 4 5 6 
#
# 1 97.6016 26.5584 17.4408 5.8372 0.0002 0.0000
# 2 26.5584 97.6027 17.4414 -5.8373 -0.0002 0.0000
# 3 17.4408 17.4414 119.8284 0.0000 0.0000 0.0000
# 4 5.8372 -5.8373 0.0000 42.9461 0.0000 -0.0002
# 5 0.0002 -0.0002 0.0000 0.0000 42.9461 5.8372
# 6 0.0000 0.0000 0.0000 -0.0002 5.8372 35.5221
#
#
#
# Elastic Compliance Matrix: (Units=1/GPa)
#
#
# Indices 1 2 3 4 5 6 
#
# 1 0.011397 -0.003000 -0.001222 -0.001957 0.000000 0.000000
# 2 -0.003000 0.011397 -0.001222 0.001957 0.000000 0.000000
# 3 -0.001222 -0.001222 0.008701 0.000000 0.000000 0.000000
# 4 -0.001957 0.001957 0.000000 0.023817 0.000000 0.000000
# 5 0.000000 0.000000 0.000000 0.000000 0.023817 -0.003914
# 6 0.000000 0.000000 0.000000 0.000000 -0.003914 0.028795
#
#
# Mechanical properties :
#
#
# Convention : Reuss Voigt Hill
#
# Bulk Modulus (GPa) = 48.52723 48.65710 48.59217
# Shear Modulus (GPa) = 39.78281 41.18900 40.48591
#
# Velocity S-wave (km/s) = 4.07624 4.14766 4.11210
# Velocity P-wave (km/s) = 6.51324 6.57720 6.54530
#
# Compressibility (1/GPa) = 0.02060699
#
# Stress axis : x y z
#
# Youngs Moduli (GPa) = 87.73860 87.73945 114.92845
#
# Poissons Ratio (x) = 0.26321 0.14047
# Poissons Ratio (y) = 0.26321 0.14047
# Poissons Ratio (z) = 0.10724 0.10724
#
# Static dielectric constant tensor:
#      x y z
#    x 1.939570 0.000000 0.000000 
#    y 0.000000 1.939570 0.000000 
#    z 0.000000 0.000000 1.995190 
# 
# From -- ./inp_files/8332.got.cif
#   From: 2010.05.17/outbox.cif.g08.bks.cpg/sg155_5_cif.got.tgz:8332.got - 2010.05.20 10:44:35.
