data_PCOD9577830
_publ_section_title
;
Structure prediction by ZEFSAII (Michael W. Deem and Ramdas Pophale) SiO2 
 PCOD9577830
Probable space group: P -3 1 M 
;
_chemical_formula_sum "Si O2"
_cell_formula_units_Z 74
_cell_length_a 14.970984
_cell_length_b 14.970984
_cell_length_c 20.980380
_cell_angle_alpha 90.000000
_cell_angle_beta 90.000000
_cell_angle_gamma 120.000000
_cell_volume 4072.346038
_symmetry_space_group_name_H-M "P -3 1 M "
_symmetry_group_IT_number 162
_symmetry_cell_setting 'hexagonal'
loop_
_space_group_symop_operation_xyz
x,y,z
-y,x-y,z
-x+y,-x,z
-y,-x,-z
-x+y,y,-z
x,x-y,-z
-x,-y,-z
y,-x+y,-z
x-y,x,-z
y,x,z
x-y,-y,z
-x,-x+y,z
loop_
_atom_site_type_symbol
_atom_site_label
_atom_site_fract_x
_atom_site_fract_y
_atom_site_fract_z
Si Si1 0.221754 0.462753 0.848046
Si Si2 0.887605 0.501119 0.436702
Si Si3 0.877944 0.446888 0.927356
Si Si4 0.249518 0.125611 0.770861
Si Si5 0.333333 0.666667 0.767841
Si Si6 0.230769 0.117938 0.627288
Si Si7 0.171897 0.343793 0.500000
Si Si8 0.666667 0.333334 0.380916
O O1 0.321143 0.492728 0.892202
O O2 0.148759 0.491410 0.889424
O O3 0.168290 0.348850 0.817324
O O4 0.267640 0.550424 0.793672
O O5 0.894604 0.447302 0.500000
O O6 0.869717 0.589495 0.465354
O O7 0.782540 0.416887 0.402985
O O8 0.000000 0.551905 0.402553
O O9 0.000000 0.520016 0.928724
O O10 0.839092 0.419546 0.000000
O O11 0.182614 0.182614 0.783813
O O12 0.286430 0.150584 0.696201
O O13 0.178675 0.000000 0.775333
O O14 0.333334 0.666667 0.693669
O O15 0.132207 0.132207 0.636735
O O16 0.283234 0.175468 0.562092
O O17 0.196329 0.000000 0.616784
#
# Coordination Sequence:
#
# PCOD9577830 Si02
#       8
#    12  12  12  12   4  12   6   4
#     4  10  20  38  57  86 122 154 188 239 290 345
#     4  11  23  39  60  81 104 142 184 234 299 360
#     4  10  20  35  59  89 118 151 190 229 278 340
#     4  10  21  37  58  84 118 162 207 250 296 352
#     4   9  24  37  59  85 111 150 190 227 295 354
#     4  10  21  36  56  81 112 148 191 244 301 355
#     4  12  22  38  55  82 111 140 188 250 306 364
#     4  12  22  46  60  79 115 147 187 245 283 363
#
# _framework density 18.171343
#
# number of rings (size 3 to 8) (size 9 to 14) (size 15 to 20)
#    0.000    1.622    1.622    3.568    2.270    1.297 
#    0.000    4.865    0.000    0.000    0.000    0.000 
#    0.000    7.784    0.000    0.000    0.000    0.000 
#
# Total GULP energy -412144.830128 kJ/mol
# GULP energy per Si atom -5569.524731 kJ/mol
# Density = 1.812998 g / cm^3
# Si number density = 18.171343 Si / 1000 Ang^3
#
#
#
# Elastic Constant Matrix: (Units=GPa)
#
#
# Indices 1 2 3 4 5 6 
#
# 1 132.4649 -1.9937 45.7700 -0.0002 11.6398 -0.0044
# 2 -1.9937 132.4663 45.7724 -0.0005 -11.6402 0.0057
# 3 45.7700 45.7724 126.5451 -0.0011 -0.0007 0.0021
# 4 -0.0002 -0.0005 -0.0011 17.3373 0.0007 -11.6422
# 5 11.6398 -11.6402 -0.0007 0.0007 17.3365 -0.0036
# 6 -0.0044 0.0057 0.0021 -11.6422 -0.0036 67.2355
#
#
#
# Elastic Compliance Matrix: (Units=1/GPa)
#
#
# Indices 1 2 3 4 5 6 
#
# 1 0.009343 0.000928 -0.003715 0.000000 -0.005650 0.000000
# 2 0.000928 0.009343 -0.003715 0.000000 0.005650 0.000000
# 3 -0.003715 -0.003715 0.010590 0.000000 0.000000 0.000000
# 4 0.000000 0.000000 0.000000 0.065268 -0.000001 0.011302
# 5 -0.005650 0.005650 0.000000 -0.000001 0.065269 0.000003
# 6 0.000000 0.000000 0.000000 0.011302 0.000003 0.016830
#
#
# Mechanical properties :
#
#
# Convention : Reuss Voigt Hill
#
# Bulk Modulus (GPa) = 61.45620 63.39707 62.42664
# Shear Modulus (GPa) = 25.63156 40.51037 33.07097
#
# Velocity S-wave (km/s) = 3.75980 4.72673 4.27072
# Velocity P-wave (km/s) = 7.26237 8.04696 7.66471
#
# Compressibility (1/GPa) = 0.01627175
#
# Stress axis : x y z
#
# Youngs Moduli (GPa) = 107.02924 107.02893 94.43081
#
# Poissons Ratio (x) = -0.09930 0.35081
# Poissons Ratio (y) = -0.09930 0.35082
# Poissons Ratio (z) = 0.39761 0.39762
#
# Static dielectric constant tensor:
#      x y z
#    x 1.613070 0.000000 0.000000 
#    y 0.000000 1.613070 0.000000 
#    z 0.000000 0.000000 1.600010 
# 
# From -- ./inp_files/3852.got.cif
#   From: 2010.05.17/outbox.cif.g08.bks.cpg/sg162_2_cif.got.tgz:3852.got - 2010.05.20 10:53:12.
