data_PCOD9577004
_publ_section_title
;
Structure prediction by ZEFSAII (Michael W. Deem and Ramdas Pophale) SiO2 
 PCOD9577004
Probable space group: R 3 2
;
_chemical_formula_sum "Si O2"
_cell_formula_units_Z 90
_cell_length_a 23.806245
_cell_length_b 23.806245
_cell_length_c 9.148672
_cell_angle_alpha 90.000000
_cell_angle_beta 90.000000
_cell_angle_gamma 120.000000
_cell_volume 4490.249640
_symmetry_space_group_name_H-M "R 3 2"
_symmetry_group_IT_number 155
_symmetry_cell_setting 'hexagonal'
loop_
_space_group_symop_operation_xyz
x,y,z
-y,x-y,z
-x+y,-x,z
x-y,-y,-z
-x,-x+y,-z
y,x,-z
2/3+x,1/3+y,1/3+z
2/3-y,1/3+x-y,1/3+z
2/3-x+y,1/3-x,1/3+z
2/3+x-y,1/3-y,1/3-z
2/3-x,1/3-x+y,1/3-z
2/3+y,1/3+x,1/3-z
1/3+x,2/3+y,2/3+z
1/3-y,2/3+x-y,2/3+z
1/3-x+y,2/3-x,2/3+z
1/3+x-y,2/3-y,2/3-z
1/3-x,2/3-x+y,2/3-z
1/3+y,2/3+x,2/3-z
loop_
_atom_site_type_symbol
_atom_site_label
_atom_site_fract_x
_atom_site_fract_y
_atom_site_fract_z
Si Si1 0.522796 0.455773 0.927568
Si Si2 0.313914 0.543074 0.328824
Si Si3 0.116158 0.021532 0.161132
Si Si4 0.543833 0.559070 0.342004
Si Si5 0.760020 0.784273 0.209530
O O1 0.520686 0.389016 0.970345
O O2 0.533218 0.480064 0.759829
O O3 0.467469 0.467469 0.000000
O O4 0.590353 0.508701 0.999967
O O5 0.333334 0.570545 0.166667
O O6 0.373886 0.576234 0.441915
O O7 0.264983 0.564519 0.393970
O O8 0.179047 0.013805 0.161457
O O9 0.084839 0.000000 0.000000
O O10 0.525487 0.525487 0.500000
O O11 0.597288 0.550589 0.251944
O O12 0.581304 0.635133 0.382054
#
# Coordination Sequence:
#
# PCOD9577004 Si02
#       5
#    18  18  18  18  18
#     4   9  21  39  56  80 116 157 204 254 304 369
#     4  11  22  37  61  87 117 162 209 259 320 388
#     4  11  22  39  57  85 122 159 204 259 316 379
#     4  11  20  32  51  79 114 157 194 234 290 355
#     4  10  22  35  53  81 120 159 195 238 297 373
#
# _framework density 20.043427999999999
#
# number of rings (size 3 to 8) (size 9 to 14) (size 15 to 20)
#    0.000    1.600    0.000    5.200    0.000    9.600 
#    0.000    2.000    0.000    0.000    0.000   16.800 
#    0.000    0.000    0.000    0.000    0.000    0.000 
#
# Total GULP energy -167367.988211 kJ/mol
# GULP energy per Si atom -5578.932940 kJ/mol
# Density = 1.999781 g / cm^3
# Si number density = 20.043428 Si / 1000 Ang^3
#
#
#
# Elastic Constant Matrix: (Units=GPa)
#
#
# Indices 1 2 3 4 5 6 
#
# 1 93.2027 49.2005 51.2443 -4.6703 0.0075 -0.0008
# 2 49.2005 93.1954 51.2311 4.6713 -0.0007 -0.0010
# 3 51.2443 51.2311 171.5225 0.0035 0.0160 -0.0028
# 4 -4.6703 4.6713 0.0035 24.4330 0.0015 -0.0012
# 5 0.0075 -0.0007 0.0160 0.0015 24.4409 -4.6741
# 6 -0.0008 -0.0010 -0.0028 -0.0012 -4.6741 21.9969
#
#
#
# Elastic Compliance Matrix: (Units=1/GPa)
#
#
# Indices 1 2 3 4 5 6 
#
# 1 0.016318 -0.007372 -0.002673 0.004529 -0.000004 -0.000001
# 2 -0.007372 0.016317 -0.002671 -0.004528 0.000005 0.000001
# 3 -0.002673 -0.002671 0.007427 -0.000001 -0.000004 0.000000
# 4 0.004529 -0.004528 -0.000001 0.042660 -0.000004 0.000002
# 5 -0.000004 0.000005 -0.000004 -0.000004 0.042648 0.009062
# 6 -0.000001 0.000001 0.000000 0.000002 0.009062 0.047387
#
#
# Mechanical properties :
#
#
# Convention : Reuss Voigt Hill
#
# Bulk Modulus (GPa) = 68.35845 73.47470 70.91657
# Shear Modulus (GPa) = 24.62263 27.92381 26.27322
#
# Velocity S-wave (km/s) = 3.50875 3.73656 3.62445
# Velocity P-wave (km/s) = 7.11297 7.43997 7.27831
#
# Compressibility (1/GPa) = 0.01462877
#
# Stress axis : x y z
#
# Youngs Moduli (GPa) = 61.28341 61.28422 134.65010
#
# Poissons Ratio (x) = 0.45179 0.35996
# Poissons Ratio (y) = 0.45178 0.35968
# Poissons Ratio (z) = 0.16383 0.16370
#
# Static dielectric constant tensor:
#      x y z
#    x 1.746250 0.000000 0.000000 
#    y 0.000000 1.746250 0.000000 
#    z 0.000000 0.000000 1.765730 
# 
# From -- ./inp_files/2787.got.cif
#   From: 2010.05.17/outbox.cif.g08.bks.cpg/sg155_2_cif.got.tgz:2787.got - 2010.05.20 10:44:35.
