data_PCOD9577429
_publ_section_title
;
Structure prediction by ZEFSAII (Michael W. Deem and Ramdas Pophale) SiO2 
 PCOD9577429
Probable space group: P 3 1 C
;
_chemical_formula_sum "Si O2"
_cell_formula_units_Z 16
_cell_length_a 9.466741
_cell_length_b 9.466741
_cell_length_c 10.275205
_cell_angle_alpha 90.000000
_cell_angle_beta 90.000000
_cell_angle_gamma 120.000000
_cell_volume 797.484256
_symmetry_space_group_name_H-M "P 3 1 C"
_symmetry_group_IT_number 159
_symmetry_cell_setting 'hexagonal'
loop_
_space_group_symop_operation_xyz
x,y,z
-y,x-y,z
-x+y,-x,z
y,x,1/2+z
x-y,-y,1/2+z
-x,-x+y,1/2+z
loop_
_atom_site_type_symbol
_atom_site_label
_atom_site_fract_x
_atom_site_fract_y
_atom_site_fract_z
Si Si1 0.038447 0.201363 0.657100
Si Si2 0.625595 0.625597 0.407099
Si Si3 0.666669 0.333334 0.812795
Si Si4 0.666665 0.333333 0.501376
O O1 0.049286 0.300333 0.785544
O O2 0.049288 0.300359 0.528673
O O3 0.166134 0.135311 0.657092
O O4 0.456045 0.608946 0.363918
O O5 0.608927 0.456033 0.450257
O O6 0.666668 0.333334 0.657086
#
# Coordination Sequence:
#
# PCOD9577429 Si02
#       4
#     6   6   2   2
#     4  10  24  42  76 108 148 190 240 290 358 446
#     4  12  26  46  76 104 152 194 236 304 368 418
#     4  12  30  49  71 109 153 184 248 307 363 430
#     4  12  30  49  71 109 153 184 248 307 363 430
#
# _framework density 20.063091
#
# number of rings (size 3 to 8) (size 9 to 14) (size 15 to 20)
#    0.750    0.000    3.750    2.250   10.500    3.000 
#    0.000    0.000    0.000    0.000    0.000    0.000 
#    0.000    0.000    0.000    0.000    0.000    0.000 
#
# Total GULP energy -89498.957204 kJ/mol
# GULP energy per Si atom -5593.684825 kJ/mol
# Density = 2.001743 g / cm^3
# Si number density = 20.063091 Si / 1000 Ang^3
#
#
#
# Elastic Constant Matrix: (Units=GPa)
#
#
# Indices 1 2 3 4 5 6 
#
# 1 122.9094 61.4048 62.0456 0.0008 0.0054 0.0008
# 2 61.4048 122.9080 62.0457 -0.0005 -0.0052 -0.0020
# 3 62.0456 62.0457 184.7510 0.0006 0.0003 0.0001
# 4 0.0008 -0.0005 0.0006 32.2541 0.0001 -0.0061
# 5 0.0054 -0.0052 0.0003 0.0001 32.2541 -0.0007
# 6 0.0008 -0.0020 0.0001 -0.0061 -0.0007 30.7504
#
#
#
# Elastic Compliance Matrix: (Units=1/GPa)
#
#
# Indices 1 2 3 4 5 6 
#
# 1 0.011635 -0.004624 -0.002354 0.000000 -0.000003 -0.000001
# 2 -0.004624 0.011635 -0.002354 0.000000 0.000003 0.000001
# 3 -0.002354 -0.002354 0.006994 0.000000 0.000000 0.000000
# 4 0.000000 0.000000 0.000000 0.031004 0.000000 0.000006
# 5 -0.000003 0.000003 0.000000 0.000000 0.031004 0.000001
# 6 -0.000001 0.000001 0.000000 0.000006 0.000001 0.032520
#
#
# Mechanical properties :
#
#
# Convention : Reuss Voigt Hill
#
# Bulk Modulus (GPa) = 86.22364 89.06230 87.64297
# Shear Modulus (GPa) = 33.93891 35.38986 34.66439
#
# Velocity S-wave (km/s) = 4.11738 4.20447 4.16115
# Velocity P-wave (km/s) = 8.10391 8.24970 8.17713
#
# Compressibility (1/GPa) = 0.01159775
#
# Stress axis : x y z
#
# Youngs Moduli (GPa) = 85.94886 85.94761 142.97797
#
# Poissons Ratio (x) = 0.39744 0.33663
# Poissons Ratio (y) = 0.39745 0.33664
# Poissons Ratio (z) = 0.20236 0.20236
#
# Static dielectric constant tensor:
#      x y z
#    x 1.699980 0.000000 0.000000 
#    y 0.000000 1.699980 0.000000 
#    z 0.000000 0.000000 1.651650 
# 
# From -- ./inp_files/190.got.cif
#   From: 2010.05.17/outbox.cif.g08.bks.cpg/sg159_cif.got.tgz:190.got - 2010.05.20 10:50:30.
