data_PCOD9577020
_publ_section_title
;
Structure prediction by ZEFSAII (Michael W. Deem and Ramdas Pophale) SiO2 
 PCOD9577020
Probable space group: R 3 2
;
_chemical_formula_sum "Si O2"
_cell_formula_units_Z 63
_cell_length_a 19.731371
_cell_length_b 19.731371
_cell_length_c 9.594033
_cell_angle_alpha 90.000000
_cell_angle_beta 90.000000
_cell_angle_gamma 120.000000
_cell_volume 3234.792032
_symmetry_space_group_name_H-M "R 3 2"
_symmetry_group_IT_number 155
_symmetry_cell_setting 'hexagonal'
loop_
_space_group_symop_operation_xyz
x,y,z
-y,x-y,z
-x+y,-x,z
x-y,-y,-z
-x,-x+y,-z
y,x,-z
2/3+x,1/3+y,1/3+z
2/3-y,1/3+x-y,1/3+z
2/3-x+y,1/3-x,1/3+z
2/3+x-y,1/3-y,1/3-z
2/3-x,1/3-x+y,1/3-z
2/3+y,1/3+x,1/3-z
1/3+x,2/3+y,2/3+z
1/3-y,2/3+x-y,2/3+z
1/3-x+y,2/3-x,2/3+z
1/3+x-y,2/3-y,2/3-z
1/3-x,2/3-x+y,2/3-z
1/3+y,2/3+x,2/3-z
loop_
_atom_site_type_symbol
_atom_site_label
_atom_site_fract_x
_atom_site_fract_y
_atom_site_fract_z
Si Si1 0.449590 0.181950 0.737509
Si Si2 0.615916 0.730148 0.549563
Si Si3 0.578064 0.031783 0.346399
Si Si4 0.666667 0.117569 0.833334
O O1 0.516210 0.182877 0.833334
O O2 0.441321 0.143819 0.584893
O O3 0.368768 0.119742 0.816995
O O4 0.460284 0.268922 0.741798
O O5 0.606943 0.666667 0.666667
O O6 0.601425 0.792161 0.629894
O O7 0.666667 0.097538 0.333334
O O8 0.554293 0.000000 0.500000
O O9 0.568295 0.957970 0.257858
#
# Coordination Sequence:
#
# PCOD9577020 Si02
#       4
#    18  18  18   9
#     4  10  23  40  62  85 123 164 202 254 304 372
#     4  10  24  38  58  92 123 156 202 250 311 369
#     4  11  21  36  64  90 121 156 198 258 311 363
#     4  10  22  40  60  90 120 156 214 248 312 370
#
# _framework density 19.475750000000001
#
# number of rings (size 3 to 8) (size 9 to 14) (size 15 to 20)
#    0.000    1.714    1.429    1.714   16.000    0.000 
#    0.857    0.000    0.000    0.571    0.000    0.000 
#    0.000    0.000    0.000    0.000    0.000    0.000 
#
# Total GULP energy -117104.300307 kJ/mol
# GULP energy per Si atom -5576.395253 kJ/mol
# Density = 1.943142 g / cm^3
# Si number density = 19.475750 Si / 1000 Ang^3
#
#
#
# Elastic Constant Matrix: (Units=GPa)
#
#
# Indices 1 2 3 4 5 6 
#
# 1 59.3742 22.3957 13.6469 -0.0107 -0.0005 0.0000
# 2 22.3957 59.3743 13.6472 0.0107 0.0005 0.0000
# 3 13.6469 13.6472 110.6043 -0.0003 -0.0006 -0.0001
# 4 -0.0107 0.0107 -0.0003 25.6089 -0.0002 0.0004
# 5 -0.0005 0.0005 -0.0006 -0.0002 25.6087 -0.0107
# 6 0.0000 0.0000 -0.0001 0.0004 -0.0107 18.4893
#
#
#
# Elastic Compliance Matrix: (Units=1/GPa)
#
#
# Indices 1 2 3 4 5 6 
#
# 1 0.019899 -0.007144 -0.001574 0.000011 0.000001 0.000000
# 2 -0.007144 0.019899 -0.001574 -0.000011 -0.000001 0.000000
# 3 -0.001574 -0.001574 0.009430 0.000000 0.000000 0.000000
# 4 0.000011 -0.000011 0.000000 0.039049 0.000000 -0.000001
# 5 0.000001 -0.000001 0.000000 0.000000 0.039049 0.000023
# 6 0.000000 0.000000 0.000000 -0.000001 0.000023 0.054085
#
#
# Mechanical properties :
#
#
# Convention : Reuss Voigt Hill
#
# Bulk Modulus (GPa) = 34.91129 36.52584 35.71856
# Shear Modulus (GPa) = 23.63603 25.91893 24.77748
#
# Velocity S-wave (km/s) = 3.48747 3.65201 3.57069
# Velocity P-wave (km/s) = 5.84646 6.04799 5.94808
#
# Compressibility (1/GPa) = 0.02864403
#
# Stress axis : x y z
#
# Youngs Moduli (GPa) = 50.25450 50.25452 106.04906
#
# Poissons Ratio (x) = 0.35902 0.16689
# Poissons Ratio (y) = 0.35902 0.16690
# Poissons Ratio (z) = 0.07909 0.07909
#
# Static dielectric constant tensor:
#      x y z
#    x 1.695930 0.000000 0.000000 
#    y 0.000000 1.695930 0.000000 
#    z 0.000000 0.000000 1.739260 
# 
# From -- ./inp_files/1965.got.cif
#   From: 2010.05.17/outbox.cif.g08.bks.cpg/sg155_1_cif.got.tgz:1965.got - 2010.05.20 10:44:35.
