data_PCOD9577567
_publ_section_title
;
Structure prediction by ZEFSAII (Michael W. Deem and Ramdas Pophale) SiO2 
 PCOD9577567
Probable space group: R 3 C
;
_chemical_formula_sum "Si O2"
_cell_formula_units_Z 120
_cell_length_a 17.204234
_cell_length_b 17.204234
_cell_length_c 20.569457
_cell_angle_alpha 90.000000
_cell_angle_beta 90.000000
_cell_angle_gamma 120.000000
_cell_volume 5272.591688
_symmetry_space_group_name_H-M "R 3 C"
_symmetry_group_IT_number 161
_symmetry_cell_setting 'hexagonal'
loop_
_space_group_symop_operation_xyz
x,y,z
-y,x-y,z
-x+y,-x,z
-x+y,y,1/2+z
x,x-y,1/2+z
-y,-x,1/2+z
2/3+x,1/3+y,1/3+z
2/3-y,1/3+x-y,1/3+z
2/3-x+y,1/3-x,1/3+z
2/3-x+y,1/3+y,5/6+z
2/3+x,1/3+x-y,5/6+z
2/3-y,1/3-x,5/6+z
1/3+x,2/3+y,2/3+z
1/3-y,2/3+x-y,2/3+z
1/3-x+y,2/3-x,2/3+z
1/3-x+y,2/3+y,1/6+z
1/3+x,2/3+x-y,1/6+z
1/3-y,2/3-x,1/6+z
loop_
_atom_site_type_symbol
_atom_site_label
_atom_site_fract_x
_atom_site_fract_y
_atom_site_fract_z
Si Si1 0.553585 0.593130 0.973181
Si Si2 0.210187 0.985288 0.836438
Si Si3 0.666667 0.333334 0.375379
Si Si4 0.180530 0.479522 0.363575
Si Si5 0.666667 0.333334 0.223111
Si Si6 0.691746 0.491987 0.459988
Si Si7 0.323921 0.261415 0.990666
Si Si8 0.942810 0.804311 0.887168
O O1 0.455279 0.521962 0.002280
O O2 0.624184 0.569779 0.005368
O O3 0.572249 0.690267 0.997762
O O4 0.559508 0.576730 0.896158
O O5 0.310863 0.005095 0.829516
O O6 0.183156 0.021514 0.773116
O O7 0.211948 0.053844 0.890127
O O8 0.666668 0.333334 0.299904
O O9 0.667511 0.421762 0.402039
O O10 0.270715 0.483394 0.338657
O O11 0.181016 0.564745 0.332695
O O12 0.666556 0.243535 0.204585
O O13 0.726562 0.594809 0.444344
O O14 0.231790 0.189937 0.955947
#
# Coordination Sequence:
#
# PCOD9577567 Si02
#       8
#    18  18   6  18   6  18  18  18
#     4  12  26  49  74 107 151 197 257 318 381 466
#     4  12  26  46  73 103 147 196 247 316 378 461
#     4   9  24  42  73 104 145 183 246 313 368 448
#     4  11  23  45  72 108 142 189 252 307 376 453
#     4  12  27  51  70 107 145 201 255 316 389 457
#     4  10  22  43  71 107 140 194 246 303 370 463
#     4  12  27  46  71 112 148 196 247 314 393 454
#     4  12  29  48  74 110 150 202 256 323 393 464
#
# _framework density 22.759205000000001
#
# number of rings (size 3 to 8) (size 9 to 14) (size 15 to 20)
#    0.000    0.600    6.000    1.200    6.300    0.000 
#    2.700    0.000    0.000    0.000    0.000    0.000 
#    0.000    0.000    0.000    0.000    0.000    0.000 
#
# Total GULP energy -223486.473234 kJ/mol
# GULP energy per Si atom -5587.161831 kJ/mol
# Density = 2.270740 g / cm^3
# Si number density = 22.759205 Si / 1000 Ang^3
#
#
#
# Elastic Constant Matrix: (Units=GPa)
#
#
# Indices 1 2 3 4 5 6 
#
# 1 78.3256 19.6736 2.2492 -3.6188 0.0000 0.0000
# 2 19.6736 78.3246 2.2485 3.6192 0.0000 0.0000
# 3 2.2492 2.2485 51.3940 0.0004 0.0000 0.0000
# 4 -3.6188 3.6192 0.0004 18.2577 0.0000 0.0000
# 5 0.0000 0.0000 0.0000 0.0000 18.2577 -3.6195
# 6 0.0000 0.0000 0.0000 0.0000 -3.6195 29.3248
#
#
#
# Elastic Compliance Matrix: (Units=1/GPa)
#
#
# Indices 1 2 3 4 5 6 
#
# 1 0.013851 -0.003626 -0.000448 0.003464 0.000000 0.000000
# 2 -0.003626 0.013851 -0.000447 -0.003464 0.000000 0.000000
# 3 -0.000448 -0.000447 0.019497 0.000000 0.000000 0.000000
# 4 0.003464 -0.003464 0.000000 0.056145 0.000000 0.000000
# 5 0.000000 0.000000 0.000000 0.000000 0.056145 0.006930
# 6 0.000000 0.000000 0.000000 0.000000 0.006930 0.034956
#
#
# Mechanical properties :
#
#
# Convention : Reuss Voigt Hill
#
# Bulk Modulus (GPa) = 26.20784 28.48745 27.34764
# Shear Modulus (GPa) = 23.12606 25.42622 24.27614
#
# Velocity S-wave (km/s) = 3.19112 3.34606 3.26951
# Velocity P-wave (km/s) = 5.01178 5.24139 5.12787
#
# Compressibility (1/GPa) = 0.03815652
#
# Stress axis : x y z
#
# Youngs Moduli (GPa) = 72.19712 72.19616 51.29082
#
# Poissons Ratio (x) = 0.26181 0.02296
# Poissons Ratio (y) = 0.26181 0.02294
# Poissons Ratio (z) = 0.03231 0.03229
#
# Static dielectric constant tensor:
#      x y z
#    x 1.864710 0.000000 0.000000 
#    y 0.000000 1.864710 0.000000 
#    z 0.000000 0.000000 1.861230 
# 
# From -- ./inp_files/1989.got.cif
#   From: 2010.05.17/outbox.cif.g08.bks.cpg/sg161_cif.got.tgz:1989.got - 2010.05.20 10:52:32.
