data_PCOD9577245
_publ_section_title
;
Structure prediction by ZEFSAII (Michael W. Deem and Ramdas Pophale) SiO2 
 PCOD9577245
Probable space group: P 3 1 M
;
_chemical_formula_sum "Si O2"
_cell_formula_units_Z 29
_cell_length_a 14.079550
_cell_length_b 14.079550
_cell_length_c 6.870284
_cell_angle_alpha 90.000000
_cell_angle_beta 90.000000
_cell_angle_gamma 120.000000
_cell_volume 1179.459060
_symmetry_space_group_name_H-M "P 3 1 M"
_symmetry_group_IT_number 157
_symmetry_cell_setting 'hexagonal'
loop_
_space_group_symop_operation_xyz
x,y,z
-y,x-y,z
-x+y,-x,z
y,x,z
x-y,-y,z
-x,-x+y,z
loop_
_atom_site_type_symbol
_atom_site_label
_atom_site_fract_x
_atom_site_fract_y
_atom_site_fract_z
Si Si1 0.000000 0.820093 0.911960
Si Si2 0.771146 0.183639 0.037848
Si Si3 0.541924 0.126128 0.073123
Si Si4 0.585947 0.875271 0.500624
Si Si5 0.000000 0.000000 0.183341
Si Si6 0.000000 0.000000 0.643899
Si Si7 0.366146 0.873669 0.500299
O O1 0.897295 0.699034 0.931437
O O2 0.000000 0.893814 0.094485
O O3 0.000000 0.893262 0.732095
O O4 0.660296 0.184173 0.980424
O O5 0.865211 0.306762 0.989981
O O6 0.740987 0.140925 0.265616
O O7 0.542455 0.173578 0.286150
O O8 0.507625 0.000000 0.092534
O O9 0.476491 0.877291 0.573086
O O10 0.561308 0.756868 0.577299
O O11 0.683261 0.000000 0.544619
O O12 0.000000 0.000000 0.413610
O O13 0.398241 0.000000 0.480650
#
# Coordination Sequence:
#
# PCOD9577245 Si02
#       7
#     3   6   6   6   1   1   6
#     4  10  20  38  68  90 118 168 222 262 314 398
#     4  10  16  28  44  83 117 163 208 247 316 373
#     4   9  16  23  38  65 118 153 185 251 299 359
#     4   9  14  22  34  51  90 126 174 233 262 332
#     4  10  26  46  61  89 121 157 212 280 331 368
#     4  10  26  46  61  89 121 157 212 280 331 368
#     4   8  14  21  29  46  70 125 165 197 278 322
#
# _framework density 24.587543
#
# number of rings (size 3 to 8) (size 9 to 14) (size 15 to 20)
#    0.000    2.897    2.069    2.069    2.897    3.310 
#    0.000    0.000    0.000    0.414    0.000    5.793 
#    0.000    0.000    0.000    0.000    0.000    0.000 
#
# Total GULP energy -161500.093267 kJ/mol
# GULP energy per Si atom -5568.968733 kJ/mol
# Density = 2.453158 g / cm^3
# Si number density = 24.587543 Si / 1000 Ang^3
#
#
#
# Elastic Constant Matrix: (Units=GPa)
#
#
# Indices 1 2 3 4 5 6 
#
# 1 153.5559 59.6106 10.0226 0.0000 -2.9311 0.0000
# 2 59.6106 153.5559 10.0226 0.0000 2.9311 0.0000
# 3 10.0226 10.0226 119.6847 0.0000 0.0000 0.0000
# 4 0.0000 0.0000 0.0000 0.9953 0.0000 2.9311
# 5 -2.9311 2.9311 0.0000 0.0000 0.9953 0.0000
# 6 0.0000 0.0000 0.0000 2.9311 0.0000 46.9726
#
#
#
# Elastic Compliance Matrix: (Units=1/GPa)
#
#
# Indices 1 2 3 4 5 6 
#
# 1 0.008885 -0.004156 -0.000396 0.000000 0.038403 0.000000
# 2 -0.004156 0.008885 -0.000396 0.000000 -0.038403 0.000000
# 3 -0.000396 -0.000396 0.008422 0.000000 0.000000 0.000000
# 4 0.000000 0.000000 0.000000 1.230888 0.000000 -0.076806
# 5 0.038403 -0.038403 0.000000 0.000000 1.230888 0.000000
# 6 0.000000 0.000000 0.000000 -0.076806 0.000000 0.026082
#
#
# Mechanical properties :
#
#
# Convention : Reuss Voigt Hill
#
# Bulk Modulus (GPa) = 61.37022 65.12314 63.24668
# Shear Modulus (GPa) = 1.97677 32.93535 17.45606
#
# Velocity S-wave (km/s) = 0.89762 3.66391 2.66739
# Velocity P-wave (km/s) = 5.10768 6.66653 5.93848
#
# Compressibility (1/GPa) = 0.01629455
#
# Stress axis : x y z
#
# Youngs Moduli (GPa) = 112.55414 112.55414 118.74218
#
# Poissons Ratio (x) = 0.46780 0.04702
# Poissons Ratio (y) = 0.46780 0.04702
# Poissons Ratio (z) = 0.04457 0.04457
#
# Static dielectric constant tensor:
#      x y z
#    x 1.961650 0.000000 0.000000 
#    y 0.000000 1.961650 0.000000 
#    z 0.000000 0.000000 2.159360 
# 
# From -- ./inp_files/354.got.cif
#   From: 2010.05.17/outbox.cif.g08.bks.cpg/sg157_cif.got.tgz:354.got - 2010.05.20 10:49:36.
