data_PCOD9577472
_publ_section_title
;
Structure prediction by ZEFSAII (Michael W. Deem and Ramdas Pophale) SiO2 
 PCOD9577472
Probable space group: R 3 M
;
_chemical_formula_sum "Si O2"
_cell_formula_units_Z 144
_cell_length_a 21.435777
_cell_length_b 21.435777
_cell_length_c 22.725361
_cell_angle_alpha 90.000000
_cell_angle_beta 90.000000
_cell_angle_gamma 120.000000
_cell_volume 9043.153096
_symmetry_space_group_name_H-M "R 3 M"
_symmetry_group_IT_number 160
_symmetry_cell_setting 'hexagonal'
loop_
_space_group_symop_operation_xyz
x,y,z
-y,x-y,z
-x+y,-x,z
-x+y,y,z
x,x-y,z
-y,-x,z
2/3+x,1/3+y,1/3+z
2/3-y,1/3+x-y,1/3+z
2/3-x+y,1/3-x,1/3+z
2/3-x+y,1/3+y,1/3+z
2/3+x,1/3+x-y,1/3+z
2/3-y,1/3-x,1/3+z
1/3+x,2/3+y,2/3+z
1/3-y,2/3+x-y,2/3+z
1/3-x+y,2/3-x,2/3+z
1/3-x+y,2/3+y,2/3+z
1/3+x,2/3+x-y,2/3+z
1/3-y,2/3-x,2/3+z
loop_
_atom_site_type_symbol
_atom_site_label
_atom_site_fract_x
_atom_site_fract_y
_atom_site_fract_z
Si Si1 0.093094 0.475781 0.781007
Si Si2 0.810288 0.333725 0.551391
Si Si3 0.144528 0.000664 0.473770
Si Si4 0.228974 0.920559 0.494905
Si Si5 0.971487 0.411329 0.292236
Si Si6 0.206677 0.173615 0.345703
Si Si7 0.655292 0.995170 0.053021
Si Si8 0.855297 0.998760 0.002244
O O1 0.064625 0.532313 0.780550
O O2 0.121147 0.473405 0.845348
O O3 0.160810 0.507808 0.736292
O O4 0.036373 0.399417 0.756483
O O5 0.820339 0.410170 0.534212
O O6 0.729203 0.270798 0.540091
O O7 0.828625 0.336708 0.619721
O O8 0.154146 0.077073 0.493167
O O9 0.156662 0.005187 0.403281
O O10 0.202995 0.979926 0.496618
O O11 0.065275 0.934726 0.487960
O O12 0.156138 0.843863 0.487405
O O13 0.261406 0.919481 0.558352
O O14 0.278950 0.935211 0.437517
O O15 0.985623 0.492812 0.301408
O O16 0.885911 0.358580 0.302747
O O17 0.012501 0.388425 0.340073
O O18 0.239563 0.119782 0.344999
O O19 0.264888 0.257299 0.351232
O O20 0.846713 0.923357 0.981210
O O21 0.937110 0.062891 0.998348
#
# Coordination Sequence:
#
# PCOD9577472 Si02
#       8
#    18  18  18  18  18  18  18  18
#     4   9  18  29  43  66  96 127 160 195 230 275
#     4  10  19  30  44  66  99 136 168 198 234 282
#     4   9  16  28  47  70  95 124 160 199 237 281
#     4   9  19  35  52  70  97 129 159 199 254 305
#     4   9  19  35  52  70  97 129 159 199 254 305
#     4   9  18  29  43  66  96 127 160 195 230 275
#     4  10  19  32  54  68  92 122 165 200 246 284
#     4   9  16  28  47  70  95 124 160 199 237 281
#
# _framework density 15.923648999999999
#
# number of rings (size 3 to 8) (size 9 to 14) (size 15 to 20)
#    0.000    2.750    0.000    1.500    1.750    2.000 
#    0.000    3.750    0.000    0.000    0.000    0.000 
#    0.000    0.000    0.000   18.375    0.000    0.000 
#
# Total GULP energy -267296.059754 kJ/mol
# GULP energy per Si atom -5568.667912 kJ/mol
# Density = 1.588741 g / cm^3
# Si number density = 15.923649 Si / 1000 Ang^3
#
#
#
# Elastic Constant Matrix: (Units=GPa)
#
#
# Indices 1 2 3 4 5 6 
#
# 1 51.3831 15.2402 23.2027 6.4994 0.0008 0.0000
# 2 15.2402 51.3831 23.2027 -6.4994 -0.0008 0.0000
# 3 23.2027 23.2027 63.3692 0.0000 0.0000 0.0000
# 4 6.4994 -6.4994 0.0000 35.0849 0.0000 -0.0008
# 5 0.0008 -0.0008 0.0000 0.0000 35.0849 6.4994
# 6 0.0000 0.0000 0.0000 -0.0008 6.4994 18.0715
#
#
#
# Elastic Compliance Matrix: (Units=1/GPa)
#
#
# Indices 1 2 3 4 5 6 
#
# 1 0.024896 -0.004747 -0.007377 -0.005491 -0.000001 0.000000
# 2 -0.004747 0.024896 -0.007377 0.005491 0.000001 0.000000
# 3 -0.007377 -0.007377 0.021183 0.000000 0.000000 0.000000
# 4 -0.005491 0.005491 0.000000 0.030537 0.000000 0.000001
# 5 -0.000001 0.000001 0.000000 0.000000 0.030537 -0.010983
# 6 0.000000 0.000000 0.000000 0.000001 -0.010983 0.059286
#
#
# Mechanical properties :
#
#
# Convention : Reuss Voigt Hill
#
# Bulk Modulus (GPa) = 31.27904 32.15852 31.71878
# Shear Modulus (GPa) = 20.74739 24.61425 22.68082
#
# Velocity S-wave (km/s) = 3.61353 3.93589 3.77815
# Velocity P-wave (km/s) = 6.09064 6.39486 6.24460
#
# Compressibility (1/GPa) = 0.03197029
#
# Stress axis : x y z
#
# Youngs Moduli (GPa) = 40.16772 40.16772 47.20768
#
# Poissons Ratio (x) = 0.19069 0.34827
# Poissons Ratio (y) = 0.19069 0.34827
# Poissons Ratio (z) = 0.29633 0.29633
#
# Static dielectric constant tensor:
#      x y z
#    x 1.538470 0.000000 0.000000 
#    y 0.000000 1.538470 0.000000 
#    z 0.000000 0.000000 1.523300 
# 
# From -- ./inp_files/3471.got.cif
#   From: 2010.05.17/outbox.cif.g08.bks.cpg/sg160_2_cif.got.tgz:3471.got - 2010.05.20 10:51:19.
