data_PCOD9577968
_publ_section_title
;
Structure prediction by ZEFSAII (Michael W. Deem and Ramdas Pophale) SiO2 
 PCOD9577968
Probable space group: P -3 1 M 
;
_chemical_formula_sum "Si O2"
_cell_formula_units_Z 76
_cell_length_a 18.000000
_cell_length_b 18.000000
_cell_length_c 15.000000
_cell_angle_alpha 90.000000
_cell_angle_beta 90.000000
_cell_angle_gamma 120.000000
_cell_volume 4208.883462
_symmetry_space_group_name_H-M "P -3 1 M "
_symmetry_group_IT_number 162
_symmetry_cell_setting 'hexagonal'
loop_
_space_group_symop_operation_xyz
x,y,z
-y,x-y,z
-x+y,-x,z
-y,-x,-z
-x+y,y,-z
x,x-y,-z
-x,-y,-z
y,-x+y,-z
x-y,x,-z
y,x,z
x-y,-y,z
-x,-x+y,z
loop_
_atom_site_type_symbol
_atom_site_label
_atom_site_fract_x
_atom_site_fract_y
_atom_site_fract_z
Si Si1 0.901419 0.517909 0.229383
Si Si2 0.100922 0.598942 0.421286
Si Si3 0.333335 0.666668 0.106538
Si Si4 0.152473 0.527211 0.090961
Si Si5 0.097709 0.324681 0.570459
Si Si6 0.102769 0.784075 0.218458
Si Si7 0.772120 0.670872 0.075410
O O1 0.859907 0.472153 0.322493
O O2 0.899107 0.450596 0.160244
O O3 0.871475 0.582854 0.193648
O O4 0.000000 0.585557 0.252436
O O5 0.140446 0.570223 0.500000
O O6 0.103988 0.687448 0.443087
O O7 0.000000 0.525322 0.415115
O O8 0.249702 0.577787 0.129563
O O9 0.333334 0.666667 0.000000
O O10 0.120100 0.427395 0.079673
O O11 0.150894 0.575447 0.000000
O O12 0.157867 0.315733 0.500000
O O13 0.115665 0.318992 0.675074
O O14 0.000000 0.253294 0.554618
O O15 0.169085 0.867476 0.164160
O O16 0.000000 0.744590 0.199327
O O17 0.731490 0.731490 0.058471
O O18 0.837552 0.675104 0.000000
#
# Coordination Sequence:
#
# PCOD9577968 Si02
#       7
#    12  12   4  12  12  12  12
#     4   9  17  30  50  75 104 141 181 216 254 303
#     4   8  15  29  48  71 102 139 175 212 254 299
#     4   9  18  33  51  69 103 146 172 192 231 291
#     4  11  21  34  52  78 110 142 174 210 254 304
#     4   9  18  32  54  82 111 145 181 224 277 327
#     4   9  19  38  58  77 108 146 183 226 276 325
#     4  12  25  39  58  82 106 136 177 226 278 332
#
# _framework density 18.057044999999999
#
# number of rings (size 3 to 8) (size 9 to 14) (size 15 to 20)
#    0.000    2.368    0.000    6.158    0.000    4.421 
#    0.000    1.579    0.000    3.316    0.000    0.000 
#    0.000    0.000    0.000    0.000    0.000    0.000 
#
# Total GULP energy -423204.019455 kJ/mol
# GULP energy per Si atom -5568.473940 kJ/mol
# Density = 1.801595 g / cm^3
# Si number density = 18.057045 Si / 1000 Ang^3
#
#
#
# Elastic Constant Matrix: (Units=GPa)
#
#
# Indices 1 2 3 4 5 6 
#
# 1 71.2030 40.0523 37.4211 -0.0002 -1.5936 -0.0003
# 2 40.0523 71.2029 37.4211 0.0004 1.5937 0.0003
# 3 37.4211 37.4211 64.0551 0.0001 0.0000 0.0001
# 4 -0.0002 0.0004 0.0001 28.6852 0.0000 1.5938
# 5 -1.5936 1.5937 0.0000 0.0000 28.6852 0.0002
# 6 -0.0003 0.0003 0.0001 1.5938 0.0002 15.5755
#
#
#
# Elastic Compliance Matrix: (Units=1/GPa)
#
#
# Indices 1 2 3 4 5 6 
#
# 1 0.023547 -0.008739 -0.008651 0.000000 0.001794 0.000001
# 2 -0.008739 0.023547 -0.008651 0.000000 -0.001794 -0.000001
# 3 -0.008651 -0.008651 0.025719 0.000000 0.000000 0.000000
# 4 0.000000 0.000000 0.000000 0.035061 0.000000 -0.003588
# 5 0.001794 -0.001794 0.000000 0.000000 0.035061 0.000000
# 6 0.000001 -0.000001 0.000000 -0.003588 0.000000 0.064570
#
#
# Mechanical properties :
#
#
# Convention : Reuss Voigt Hill
#
# Bulk Modulus (GPa) = 48.23528 48.47224 48.35376
# Shear Modulus (GPa) = 18.76207 20.69361 19.72784
#
# Velocity S-wave (km/s) = 3.22692 3.38895 3.30893
# Velocity P-wave (km/s) = 6.37610 6.49735 6.43701
#
# Compressibility (1/GPa) = 0.02073171
#
# Stress axis : x y z
#
# Youngs Moduli (GPa) = 42.46893 42.46885 38.88169
#
# Poissons Ratio (x) = 0.37113 0.33635
# Poissons Ratio (y) = 0.37113 0.33635
# Poissons Ratio (z) = 0.36738 0.36739
#
# Static dielectric constant tensor:
#      x y z
#    x 1.651550 0.000000 0.000000 
#    y 0.000000 1.651550 0.000000 
#    z 0.000000 0.000000 1.679210 
# 
# From -- ./inp_files/3134.got.cif
#   From: 2010.05.17/outbox.ucp.g08.bks.cvg/sg162_2_cif.got.tgz:3134.got - 2010.06.11 15:15:45.
