data_PCOD9577659
_publ_section_title
;
Structure prediction by ZEFSAII (Michael W. Deem and Ramdas Pophale) SiO2 
 PCOD9577659
Probable space group: P -3 1 M 
;
_chemical_formula_sum "Si O2"
_cell_formula_units_Z 48
_cell_length_a 18.940621
_cell_length_b 18.940621
_cell_length_c 7.428747
_cell_angle_alpha 90.000000
_cell_angle_beta 90.000000
_cell_angle_gamma 120.000000
_cell_volume 2307.993745
_symmetry_space_group_name_H-M "P -3 1 M "
_symmetry_group_IT_number 162
_symmetry_cell_setting 'hexagonal'
loop_
_space_group_symop_operation_xyz
x,y,z
-y,x-y,z
-x+y,-x,z
-y,-x,-z
-x+y,y,-z
x,x-y,-z
-x,-y,-z
y,-x+y,-z
x-y,x,-z
y,x,z
x-y,-y,z
-x,-x+y,z
loop_
_atom_site_type_symbol
_atom_site_label
_atom_site_fract_x
_atom_site_fract_y
_atom_site_fract_z
Si Si1 0.620197 0.810098 0.783931
Si Si2 0.469500 0.374957 0.780601
Si Si3 0.906691 0.093309 0.715411
Si Si4 0.625043 0.094543 0.219399
O O1 0.574114 0.856702 0.716483
O O2 0.716670 0.858335 0.748550
O O3 0.574114 0.717412 0.716484
O O4 0.612177 0.806089 0.000000
O O5 0.416305 0.416305 0.728046
O O6 0.562446 0.437554 0.724921
O O7 0.469592 0.373342 1.000000
O O8 0.911642 0.088359 0.500000
O O9 0.000000 0.142801 0.783552
O O10 0.857199 0.000000 0.783552
O O11 0.583696 0.000000 0.271953
#
# Coordination Sequence:
#
# PCOD9577659 Si02
#       4
#    12  12  12  12
#     4  10  18  29  49  75  96 122 163 207 240 277
#     4   8  14  25  40  61  92 124 149 181 231 281
#     4  10  21  36  52  70  96 130 164 199 245 302
#     4   8  14  25  40  61  92 124 149 181 231 281
#
# _framework density 20.797283
#
# number of rings (size 3 to 8) (size 9 to 14) (size 15 to 20)
#    0.000    3.000    0.000    3.250    0.000    4.000 
#    1.500    0.000    0.000    3.000    0.000    7.000 
#    0.000    0.000    0.000    0.000    0.000    0.000 
#
# Total GULP energy -267846.342669 kJ/mol
# GULP energy per Si atom -5580.132139 kJ/mol
# Density = 2.074995 g / cm^3
# Si number density = 20.797283 Si / 1000 Ang^3
#
#
#
# Elastic Constant Matrix: (Units=GPa)
#
#
# Indices 1 2 3 4 5 6 
#
# 1 207.9260 148.8889 3.8145 0.0000 0.0001 0.0000
# 2 148.8889 207.9260 3.8145 0.0000 -0.0001 0.0000
# 3 3.8145 3.8145 66.4543 0.0000 0.0000 0.0000
# 4 0.0000 0.0000 0.0000 9.7508 0.0000 -0.0001
# 5 0.0001 -0.0001 0.0000 0.0000 9.7508 0.0000
# 6 0.0000 0.0000 0.0000 -0.0001 0.0000 29.5186
#
#
#
# Elastic Compliance Matrix: (Units=1/GPa)
#
#
# Indices 1 2 3 4 5 6 
#
# 1 0.009872 -0.007066 -0.000161 0.000000 0.000000 0.000000
# 2 -0.007066 0.009872 -0.000161 0.000000 0.000000 0.000000
# 3 -0.000161 -0.000161 0.015066 0.000000 0.000000 0.000000
# 4 0.000000 0.000000 0.000000 0.102556 0.000000 0.000000
# 5 0.000000 0.000000 0.000000 0.000000 0.102556 0.000000
# 6 0.000000 0.000000 0.000000 0.000000 0.000000 0.033877
#
#
# Mechanical properties :
#
#
# Convention : Reuss Voigt Hill
#
# Bulk Modulus (GPa) = 49.91464 88.37133 69.14299
# Shear Modulus (GPa) = 16.93457 31.52326 24.22892
#
# Velocity S-wave (km/s) = 2.85663 3.89747 3.41692
# Velocity P-wave (km/s) = 5.91043 7.92703 6.99181
#
# Compressibility (1/GPa) = 0.02003420
#
# Stress axis : x y z
#
# Youngs Moduli (GPa) = 101.29397 101.29397 66.37272
#
# Poissons Ratio (x) = 0.71577 0.01069
# Poissons Ratio (y) = 0.71577 0.01069
# Poissons Ratio (z) = 0.01632 0.01632
#
# Static dielectric constant tensor:
#      x y z
#    x 1.718010 0.000000 0.000000 
#    y 0.000000 1.718010 0.000000 
#    z 0.000000 0.000000 1.808610 
# 
# From -- ./inp_files/1214.got.cif
#   From: 2010.05.17/outbox.cif.g08.bks.cpg/sg162_1_cif.got.tgz:1214.got - 2010.05.20 10:53:12.
