data_PCOD9577955
_publ_section_title
;
Structure prediction by ZEFSAII (Michael W. Deem and Ramdas Pophale) SiO2 
 PCOD9577955
Probable space group: P -3 1 M 
;
_chemical_formula_sum "Si O2"
_cell_formula_units_Z 84
_cell_length_a 15.831237
_cell_length_b 15.831237
_cell_length_c 23.451073
_cell_angle_alpha 90.000000
_cell_angle_beta 90.000000
_cell_angle_gamma 120.000000
_cell_volume 5090.061753
_symmetry_space_group_name_H-M "P -3 1 M "
_symmetry_group_IT_number 162
_symmetry_cell_setting 'hexagonal'
loop_
_space_group_symop_operation_xyz
x,y,z
-y,x-y,z
-x+y,-x,z
-y,-x,-z
-x+y,y,-z
x,x-y,-z
-x,-y,-z
y,-x+y,-z
x-y,x,-z
y,x,z
x-y,-y,z
-x,-x+y,z
loop_
_atom_site_type_symbol
_atom_site_label
_atom_site_fract_x
_atom_site_fract_y
_atom_site_fract_z
Si Si1 0.111990 0.888010 0.569397
Si Si2 0.881202 0.440601 0.379067
Si Si3 0.883717 0.300730 0.156171
Si Si4 0.558640 0.441359 0.752667
Si Si5 0.699269 0.582986 0.843829
Si Si6 0.882195 0.441098 0.935899
Si Si7 0.225012 0.774987 0.568599
O O1 0.110985 0.889016 0.500000
O O2 0.168318 0.831680 0.586257
O O3 0.000000 0.831639 0.588525
O O4 0.168364 0.000000 0.588525
O O5 0.850724 0.425362 0.312458
O O6 0.834273 0.334882 0.408131
O O7 0.834273 0.499393 0.408130
O O8 0.000000 0.500000 0.383698
O O9 0.857141 0.346069 0.210546
O O10 0.814780 0.185219 0.155875
O O11 0.858894 0.347095 0.101603
O O12 0.000000 0.343078 0.156613
O O13 0.500000 0.500000 0.751331
O O14 0.653931 0.511072 0.789454
O O15 0.656921 0.656921 0.843386
O O16 0.652904 0.511799 0.898397
O O17 0.000000 0.500001 0.939335
O O18 0.842410 0.421205 0.000000
O O19 0.227781 0.772220 0.500000
#
# Coordination Sequence:
#
# PCOD9577955 Si02
#       7
#    12  12  12  12  12  12  12
#     4   9  17  31  52  76  99 123 156 199 244 290
#     4  11  23  39  57  75 103 139 169 211 254 301
#     4   9  17  31  51  74 102 136 171 212 255 300
#     4   8  18  35  52  72  95 122 168 211 251 297
#     4   9  17  31  51  74 102 136 171 212 255 300
#     4   8  15  29  46  67 101 139 172 211 253 294
#     4  11  23  36  52  77 102 133 170 198 242 311
#
# _framework density 16.502746999999999
#
# number of rings (size 3 to 8) (size 9 to 14) (size 15 to 20)
#    0.000    2.714    0.000    3.429    2.000    3.429 
#    6.857    0.000    0.000    0.286    0.000    0.000 
#    0.000    0.000    0.000    7.143    0.000    0.000 
#
# Total GULP energy -468018.019537 kJ/mol
# GULP energy per Si atom -5571.643090 kJ/mol
# Density = 1.646519 g / cm^3
# Si number density = 16.502747 Si / 1000 Ang^3
#
#
#
# Elastic Constant Matrix: (Units=GPa)
#
#
# Indices 1 2 3 4 5 6 
#
# 1 128.0418 72.3048 40.8736 0.0000 0.0000 0.0000
# 2 72.3048 128.0418 40.8736 0.0000 0.0000 0.0000
# 3 40.8736 40.8736 107.2203 0.0000 0.0000 0.0000
# 4 0.0000 0.0000 0.0000 8.8825 0.0000 0.0000
# 5 0.0000 0.0000 0.0000 0.0000 8.8825 0.0000
# 6 0.0000 0.0000 0.0000 0.0000 0.0000 27.8685
#
#
#
# Elastic Compliance Matrix: (Units=1/GPa)
#
#
# Indices 1 2 3 4 5 6 
#
# 1 0.011926 -0.006015 -0.002253 0.000000 0.000000 0.000000
# 2 -0.006015 0.011926 -0.002253 0.000000 0.000000 0.000000
# 3 -0.002253 -0.002253 0.011045 0.000000 0.000000 0.000000
# 4 0.000000 0.000000 0.000000 0.112582 0.000000 0.000000
# 5 0.000000 0.000000 0.000000 0.000000 0.112582 0.000000
# 6 0.000000 0.000000 0.000000 0.000000 0.000000 0.035883
#
#
# Mechanical properties :
#
#
# Convention : Reuss Voigt Hill
#
# Bulk Modulus (GPa) = 72.18640 74.60088 73.39364
# Shear Modulus (GPa) = 15.54708 23.07681 19.31194
#
# Velocity S-wave (km/s) = 3.07268 3.74352 3.42457
# Velocity P-wave (km/s) = 7.51169 7.99928 7.75932
#
# Compressibility (1/GPa) = 0.01385303
#
# Stress axis : x y z
#
# Youngs Moduli (GPa) = 83.84993 83.84993 90.54266
#
# Poissons Ratio (x) = 0.50438 0.20401
# Poissons Ratio (y) = 0.50438 0.20401
# Poissons Ratio (z) = 0.18893 0.18893
#
# Static dielectric constant tensor:
#      x y z
#    x 1.548430 0.000000 0.000000 
#    y 0.000000 1.548430 0.000000 
#    z 0.000000 0.000000 1.573640 
# 
# From -- ./inp_files/3960.got.cif
#   From: 2010.05.17/outbox.cif.g08.bks.cpg/sg162_2_cif.got.tgz:3960.got - 2010.05.20 10:53:12.
