data_PCOD9577011
_publ_section_title
;
Structure prediction by ZEFSAII (Michael W. Deem and Ramdas Pophale) SiO2 
 PCOD9577011
Probable space group: R 3 2
;
_chemical_formula_sum "Si O2"
_cell_formula_units_Z 36
_cell_length_a 7.251458
_cell_length_b 7.251458
_cell_length_c 32.517177
_cell_angle_alpha 90.000000
_cell_angle_beta 90.000000
_cell_angle_gamma 120.000000
_cell_volume 1480.792270
_symmetry_space_group_name_H-M "R 3 2"
_symmetry_group_IT_number 155
_symmetry_cell_setting 'hexagonal'
loop_
_space_group_symop_operation_xyz
x,y,z
-y,x-y,z
-x+y,-x,z
x-y,-y,-z
-x,-x+y,-z
y,x,-z
2/3+x,1/3+y,1/3+z
2/3-y,1/3+x-y,1/3+z
2/3-x+y,1/3-x,1/3+z
2/3+x-y,1/3-y,1/3-z
2/3-x,1/3-x+y,1/3-z
2/3+y,1/3+x,1/3-z
1/3+x,2/3+y,2/3+z
1/3-y,2/3+x-y,2/3+z
1/3-x+y,2/3-x,2/3+z
1/3+x-y,2/3-y,2/3-z
1/3-x,2/3-x+y,2/3-z
1/3+y,2/3+x,2/3-z
loop_
_atom_site_type_symbol
_atom_site_label
_atom_site_fract_x
_atom_site_fract_y
_atom_site_fract_z
Si Si1 0.272964 0.399842 0.039750
Si Si2 0.440297 0.358240 0.545511
O O1 0.503672 0.620488 0.038400
O O2 0.270905 0.294765 0.083084
O O3 0.266704 0.266704 0.000000
O O4 0.458524 0.145332 0.548636
O O5 0.360598 0.360598 0.500000
#
# Coordination Sequence:
#
# PCOD9577011 Si02
#       2
#    18  18
#     4  10  22  38  66  89 125 164 210 250 314 367
#     4  10  24  39  64  90 131 161 214 253 314 366
#
# _framework density 24.311308
#
# number of rings (size 3 to 8) (size 9 to 14) (size 15 to 20)
#    2.000    0.000    0.000    3.000    7.000    0.000 
#    0.000    0.000    0.000    4.000    0.000    0.000 
#    0.000    0.000    0.000    0.000    0.000    0.000 
#
# Total GULP energy -66973.258497 kJ/mol
# GULP energy per Si atom -5581.104875 kJ/mol
# Density = 2.425597 g / cm^3
# Si number density = 24.311308 Si / 1000 Ang^3
#
#
#
# Elastic Constant Matrix: (Units=GPa)
#
#
# Indices 1 2 3 4 5 6 
#
# 1 62.4819 6.7489 41.5406 -6.4385 0.0000 0.0000
# 2 6.7489 62.4819 41.5406 6.4385 0.0000 0.0000
# 3 41.5406 41.5406 247.5638 0.0000 0.0000 0.0000
# 4 -6.4385 6.4385 0.0000 41.2929 0.0000 0.0000
# 5 0.0000 0.0000 0.0000 0.0000 41.2929 -6.4385
# 6 0.0000 0.0000 0.0000 0.0000 -6.4385 27.8665
#
#
#
# Elastic Compliance Matrix: (Units=1/GPa)
#
#
# Indices 1 2 3 4 5 6 
#
# 1 0.018350 -0.000263 -0.003035 0.002902 0.000000 0.000000
# 2 -0.000263 0.018350 -0.003035 -0.002902 0.000000 0.000000
# 3 -0.003035 -0.003035 0.005058 0.000000 0.000000 0.000000
# 4 0.002902 -0.002902 0.000000 0.025122 0.000000 0.000000
# 5 0.000000 0.000000 0.000000 0.000000 0.025122 0.005804
# 6 0.000000 0.000000 0.000000 0.000000 0.005804 0.037226
#
#
# Mechanical properties :
#
#
# Convention : Reuss Voigt Hill
#
# Bulk Modulus (GPa) = 34.37456 61.35424 47.86440
# Shear Modulus (GPa) = 32.98328 40.93695 36.96011
#
# Velocity S-wave (km/s) = 3.68734 4.10794 3.90331
# Velocity P-wave (km/s) = 5.68319 6.91317 6.32814
#
# Compressibility (1/GPa) = 0.02909128
#
# Stress axis : x y z
#
# Youngs Moduli (GPa) = 54.49637 54.49637 197.71252
#
# Poissons Ratio (x) = 0.01435 0.60003
# Poissons Ratio (y) = 0.01435 0.60003
# Poissons Ratio (z) = 0.16539 0.16539
#
# Static dielectric constant tensor:
#      x y z
#    x 1.959090 0.000000 0.000000 
#    y 0.000000 1.959090 0.000000 
#    z 0.000000 0.000000 1.857020 
# 
# From -- ./inp_files/7140.got.cif
#   From: 2010.05.17/outbox.cif.g08.bks.cpg/sg155_4_cif.got.tgz:7140.got - 2010.05.20 10:44:35.
