data_PCOD9577438
_publ_section_title
;
Structure prediction by ZEFSAII (Michael W. Deem and Ramdas Pophale) SiO2 
 PCOD9577438
Probable space group: P 3 1 C
;
_chemical_formula_sum "Si O2"
_cell_formula_units_Z 48
_cell_length_a 17.386865
_cell_length_b 17.386865
_cell_length_c 8.655007
_cell_angle_alpha 90.000000
_cell_angle_beta 90.000000
_cell_angle_gamma 120.000000
_cell_volume 2265.899373
_symmetry_space_group_name_H-M "P 3 1 C"
_symmetry_group_IT_number 159
_symmetry_cell_setting 'hexagonal'
loop_
_space_group_symop_operation_xyz
x,y,z
-y,x-y,z
-x+y,-x,z
y,x,1/2+z
x-y,-y,1/2+z
-x,-x+y,1/2+z
loop_
_atom_site_type_symbol
_atom_site_label
_atom_site_fract_x
_atom_site_fract_y
_atom_site_fract_z
Si Si1 0.653331 0.573363 0.936840
Si Si2 0.236572 0.277086 0.476313
Si Si3 0.487144 0.558372 0.752889
Si Si4 0.240368 0.054549 0.896010
Si Si5 0.187305 0.480094 0.140257
Si Si6 0.877406 0.159383 0.544925
Si Si7 0.626473 0.980910 0.190119
Si Si8 0.463305 0.836410 0.015336
O O1 0.578435 0.585660 0.845223
O O2 0.733617 0.670968 0.972469
O O3 0.702730 0.537833 0.821649
O O4 0.606070 0.514562 0.087218
O O5 0.131326 0.228786 0.475037
O O6 0.267406 0.205089 0.508214
O O7 0.279276 0.335772 0.321910
O O8 0.285755 0.346574 0.613894
O O9 0.437405 0.451911 0.750811
O O10 0.410981 0.568739 0.843371
O O11 0.250801 0.080467 0.715800
O O12 0.171745 0.952524 0.924272
O O13 0.150058 0.386209 0.050946
O O14 0.140835 0.537355 0.104763
O O15 0.288375 0.539084 0.081882
O O16 0.563566 0.910898 0.060105
#
# Coordination Sequence:
#
# PCOD9577438 Si02
#       8
#     6   6   6   6   6   6   6   6
#     4  11  21  41  65 102 138 179 241 298 359 427
#     4  12  24  45  68 102 137 176 241 296 359 429
#     4  12  21  40  69 101 132 185 238 294 354 441
#     4  11  25  42  68 100 134 181 235 295 362 429
#     4  11  23  43  66  97 140 186 230 290 364 431
#     4  11  24  45  68  98 138 181 235 296 364 439
#     4  12  21  40  68  98 129 176 229 289 345 427
#     4  12  23  42  66  96 138 184 233 284 363 427
#
# _framework density 21.183641000000001
#
# number of rings (size 3 to 8) (size 9 to 14) (size 15 to 20)
#    0.000    0.500    6.250    3.250    1.750    0.000 
#    3.000    0.000    0.000    0.000    0.000    0.000 
#    0.000    0.000    0.000    0.000    0.000    0.000 
#
# Total GULP energy -267417.114207 kJ/mol
# GULP energy per Si atom -5571.189879 kJ/mol
# Density = 2.113543 g / cm^3
# Si number density = 21.183641 Si / 1000 Ang^3
#
#
#
# Elastic Constant Matrix: (Units=GPa)
#
#
# Indices 1 2 3 4 5 6 
#
# 1 94.9508 53.5046 31.0851 0.0000 -0.4081 0.0000
# 2 53.5046 94.9508 31.0851 0.0000 0.4081 0.0000
# 3 31.0851 31.0851 66.7466 0.0000 0.0000 0.0000
# 4 0.0000 0.0000 0.0000 30.2712 0.0000 0.4081
# 5 -0.4081 0.4081 0.0000 0.0000 30.2712 0.0000
# 6 0.0000 0.0000 0.0000 0.4081 0.0000 20.7231
#
#
#
# Elastic Compliance Matrix: (Units=1/GPa)
#
#
# Indices 1 2 3 4 5 6 
#
# 1 0.016251 -0.007883 -0.003897 0.000000 0.000325 0.000000
# 2 -0.007883 0.016251 -0.003897 0.000000 -0.000325 0.000000
# 3 -0.003897 -0.003897 0.018612 0.000000 0.000000 0.000000
# 4 0.000000 0.000000 0.000000 0.033044 0.000000 -0.000651
# 5 0.000325 -0.000325 0.000000 0.000000 0.033044 0.000000
# 6 0.000000 0.000000 0.000000 -0.000651 0.000000 0.048268
#
#
# Mechanical properties :
#
#
# Convention : Reuss Voigt Hill
#
# Bulk Modulus (GPa) = 50.60859 54.22199 52.41529
# Shear Modulus (GPa) = 24.58084 25.65132 25.11608
#
# Velocity S-wave (km/s) = 3.41011 3.48358 3.44704
# Velocity P-wave (km/s) = 6.28072 6.46778 6.37493
#
# Compressibility (1/GPa) = 0.01975949
#
# Stress axis : x y z
#
# Youngs Moduli (GPa) = 61.53439 61.53439 53.72879
#
# Poissons Ratio (x) = 0.48507 0.20939
# Poissons Ratio (y) = 0.48507 0.20939
# Poissons Ratio (z) = 0.23981 0.23981
#
# Static dielectric constant tensor:
#      x y z
#    x 1.804680 0.000000 0.000000 
#    y 0.000000 1.804680 0.000000 
#    z 0.000000 0.000000 1.868100 
# 
# From -- ./inp_files/500.got.cif
#   From: 2010.05.17/outbox.cif.g08.bks.cpg/sg159_cif.got.tgz:500.got - 2010.05.20 10:50:30.
