data_PCOD9577738
_publ_section_title
;
Structure prediction by ZEFSAII (Michael W. Deem and Ramdas Pophale) SiO2 
 PCOD9577738
Probable space group: P -3 1 M 
;
_chemical_formula_sum "Si O2"
_cell_formula_units_Z 84
_cell_length_a 19.737771
_cell_length_b 19.737771
_cell_length_c 13.892356
_cell_angle_alpha 90.000000
_cell_angle_beta 90.000000
_cell_angle_gamma 120.000000
_cell_volume 4687.084114
_symmetry_space_group_name_H-M "P -3 1 M "
_symmetry_group_IT_number 162
_symmetry_cell_setting 'hexagonal'
loop_
_space_group_symop_operation_xyz
x,y,z
-y,x-y,z
-x+y,-x,z
-y,-x,-z
-x+y,y,-z
x,x-y,-z
-x,-y,-z
y,-x+y,-z
x-y,x,-z
y,x,z
x-y,-y,z
-x,-x+y,z
loop_
_atom_site_type_symbol
_atom_site_label
_atom_site_fract_x
_atom_site_fract_y
_atom_site_fract_z
Si Si1 0.742929 0.909533 0.595595
Si Si2 0.805475 0.302126 0.648190
Si Si3 0.088790 0.413908 0.466939
Si Si4 0.322554 0.087234 0.968948
Si Si5 0.092832 0.683716 0.854975
Si Si6 0.635535 0.165406 0.697295
Si Si7 0.659269 0.806801 0.762209
O O1 0.771089 0.885545 0.500000
O O2 0.658086 0.899786 0.567255
O O3 0.726818 0.850272 0.683331
O O4 0.798696 0.000000 0.621408
O O5 0.845301 0.312863 0.543813
O O6 0.712311 0.244262 0.659556
O O7 0.826529 0.386408 0.687109
O O8 0.841114 0.258545 0.709219
O O9 0.099843 0.467120 0.374513
O O10 0.000000 0.375453 0.505451
O O11 0.329379 0.095014 0.854672
O O12 0.261002 0.000000 0.998003
O O13 0.297006 0.148503 0.000000
O O14 0.399745 0.107095 0.031899
O O15 0.141321 0.648313 0.803941
O O16 0.126117 0.767388 0.801405
O O17 0.000000 0.628549 0.840120
#
# Coordination Sequence:
#
# PCOD9577738 Si02
#       7
#    12  12  12  12  12  12  12
#     4  11  20  35  58  84 114 148 186 227 276 334
#     4  11  22  35  50  75 110 145 192 232 282 337
#     4  11  21  34  52  75 108 144 185 236 284 330
#     4   9  19  35  58  86 111 138 176 226 281 336
#     4   9  17  33  55  77 101 133 176 224 275 329
#     4  11  21  34  53  72 106 149 188 230 279 339
#     4  10  19  33  54  78 107 140 179 228 276 324
#
# _framework density 17.921590999999999
#
# number of rings (size 3 to 8) (size 9 to 14) (size 15 to 20)
#    0.000    1.714    4.286    2.000    0.000    3.429 
#    0.000    2.143    0.000    2.000    0.000    3.000 
#    0.000    0.000    0.000    0.000    0.000    0.000 
#
# Total GULP energy -468271.421839 kJ/mol
# GULP energy per Si atom -5574.659784 kJ/mol
# Density = 1.788080 g / cm^3
# Si number density = 17.921591 Si / 1000 Ang^3
#
#
#
# Elastic Constant Matrix: (Units=GPa)
#
#
# Indices 1 2 3 4 5 6 
#
# 1 53.8101 45.7208 32.0693 0.0000 -3.8551 0.0000
# 2 45.7208 53.8101 32.0693 0.0000 3.8551 0.0000
# 3 32.0693 32.0693 113.5641 0.0000 0.0000 0.0000
# 4 0.0000 0.0000 0.0000 5.5097 0.0000 3.8551
# 5 -3.8551 3.8551 0.0000 0.0000 5.5097 0.0000
# 6 0.0000 0.0000 0.0000 3.8551 0.0000 4.0447
#
#
#
# Elastic Compliance Matrix: (Units=1/GPa)
#
#
# Indices 1 2 3 4 5 6 
#
# 1 0.191707 -0.179424 -0.003468 0.000002 0.259681 0.000000
# 2 -0.179424 0.191707 -0.003468 -0.000002 -0.259681 0.000000
# 3 -0.003468 -0.003468 0.010764 0.000000 0.000000 0.000000
# 4 0.000002 -0.000002 0.000000 0.544898 0.000000 -0.519362
# 5 0.259681 -0.259681 0.000000 0.000000 0.544898 0.000003
# 6 0.000000 0.000000 0.000000 -0.519362 0.000003 0.742262
#
#
# Mechanical properties :
#
#
# Convention : Reuss Voigt Hill
#
# Bulk Modulus (GPa) = 46.60836 48.98923 47.79879
# Shear Modulus (GPa) = 1.91857 10.43445 6.17651
#
# Velocity S-wave (km/s) = 1.03579 2.41556 1.85846
# Velocity P-wave (km/s) = 5.24345 5.93081 5.59769
#
# Compressibility (1/GPa) = 0.02145538
#
# Stress axis : x y z
#
# Youngs Moduli (GPa) = 5.21630 5.21630 92.89829
#
# Poissons Ratio (x) = 0.93593 0.32221
# Poissons Ratio (y) = 0.93593 0.32221
# Poissons Ratio (z) = 0.01809 0.01809
#
# Static dielectric constant tensor:
#      x y z
#    x 1.603540 0.000000 0.000000 
#    y 0.000000 1.603540 0.000000 
#    z 0.000000 0.000000 1.679780 
# 
# From -- ./inp_files/3175.got.cif
#   From: 2010.05.17/outbox.cif.g08.bks.cpg/sg162_2_cif.got.tgz:3175.got - 2010.05.20 10:53:12.
