data_PCOD9577651
_publ_section_title
;
Structure prediction by ZEFSAII (Michael W. Deem and Ramdas Pophale) SiO2 
 PCOD9577651
Probable space group: P -3 1 M 
;
_chemical_formula_sum "Si O2"
_cell_formula_units_Z 84
_cell_length_a 22.748896
_cell_length_b 22.748896
_cell_length_c 13.027188
_cell_angle_alpha 90.000000
_cell_angle_beta 90.000000
_cell_angle_gamma 120.000000
_cell_volume 5838.509119
_symmetry_space_group_name_H-M "P -3 1 M "
_symmetry_group_IT_number 162
_symmetry_cell_setting 'hexagonal'
loop_
_space_group_symop_operation_xyz
x,y,z
-y,x-y,z
-x+y,-x,z
-y,-x,-z
-x+y,y,-z
x,x-y,-z
-x,-y,-z
y,-x+y,-z
x-y,x,-z
y,x,z
x-y,-y,z
-x,-x+y,z
loop_
_atom_site_type_symbol
_atom_site_label
_atom_site_fract_x
_atom_site_fract_y
_atom_site_fract_z
Si Si1 0.685217 0.842609 0.875262
Si Si2 0.687839 0.082186 0.193691
Si Si3 0.525804 0.917523 0.382654
Si Si4 0.917814 0.312160 0.193696
Si Si5 0.077931 0.155861 0.875341
Si Si6 0.608283 0.082477 0.617341
Si Si7 0.607647 0.525467 0.000004
O O1 0.649725 0.767050 0.829955
O O2 0.649726 0.882675 0.829954
O O3 0.764966 0.882482 0.848901
O O4 0.679043 0.839522 0.000000
O O5 0.666926 0.103286 0.299584
O O6 0.652965 0.100838 0.101280
O O7 0.653809 0.000000 0.193297
O O8 0.448414 0.896832 0.355377
O O9 0.527157 0.896307 0.499997
O O10 0.566829 0.000000 0.381648
O O11 0.896714 0.333071 0.299591
O O12 0.000000 0.346191 0.193301
O O13 0.899161 0.347036 0.101288
O O14 0.117557 0.117557 0.840010
O O15 0.000000 0.117556 0.840010
O O16 0.076448 0.152895 0.000000
O O17 0.566831 0.000000 0.618347
O O18 0.563591 0.563591 0.000005
O O19 0.554020 0.445981 0.000000
#
# Coordination Sequence:
#
# PCOD9577651 Si02
#       7
#    12  12  12  12  12  12  12
#     4  11  20  29  39  58  91 127 157 186 236 296
#     4  10  18  28  42  61  89 120 148 181 222 270
#     4   8  14  26  45  67  89 112 139 172 213 260
#     4  10  18  28  42  61  89 120 148 181 222 270
#     4   9  17  28  43  59  79 113 164 215 250 282
#     4   8  14  26  45  67  89 112 139 172 213 260
#     4   9  16  25  40  62  85 108 137 170 206 252
#
# _framework density 14.387233999999999
#
# number of rings (size 3 to 8) (size 9 to 14) (size 15 to 20)
#    0.000    2.714    1.429    2.714    0.000    5.143 
#    0.000    0.714    0.000    0.000    0.000    0.000 
#   20.000    0.000    0.000    0.857    0.000   26.429 
#
# Total GULP energy -467686.687963 kJ/mol
# GULP energy per Si atom -5567.698666 kJ/mol
# Density = 1.435449 g / cm^3
# Si number density = 14.387234 Si / 1000 Ang^3
#
#
#
# Elastic Constant Matrix: (Units=GPa)
#
#
# Indices 1 2 3 4 5 6 
#
# 1 99.0281 63.1430 51.4010 0.0000 0.0006 0.0000
# 2 63.1430 99.0281 51.4010 0.0000 -0.0006 0.0000
# 3 51.4010 51.4010 86.6481 0.0000 0.0000 0.0000
# 4 0.0000 0.0000 0.0000 14.3410 0.0000 -0.0006
# 5 0.0006 -0.0006 0.0000 0.0000 14.3410 0.0000
# 6 0.0000 0.0000 0.0000 -0.0006 0.0000 17.9426
#
#
#
# Elastic Compliance Matrix: (Units=1/GPa)
#
#
# Indices 1 2 3 4 5 6 
#
# 1 0.018875 -0.008992 -0.005863 0.000000 -0.000001 0.000000
# 2 -0.008992 0.018875 -0.005863 0.000000 0.000001 0.000000
# 3 -0.005863 -0.005863 0.018496 0.000000 0.000000 0.000000
# 4 0.000000 0.000000 0.000000 0.069730 0.000000 0.000002
# 5 -0.000001 0.000001 0.000000 0.000000 0.069730 0.000000
# 6 0.000000 0.000000 0.000000 0.000002 0.000000 0.055733
#
#
# Mechanical properties :
#
#
# Convention : Reuss Voigt Hill
#
# Bulk Modulus (GPa) = 67.51475 68.51045 68.01260
# Shear Modulus (GPa) = 16.78918 17.24221 17.01569
#
# Velocity S-wave (km/s) = 3.41977 3.46560 3.44276
# Velocity P-wave (km/s) = 7.91340 7.98349 7.94852
#
# Compressibility (1/GPa) = 0.01481158
#
# Stress axis : x y z
#
# Youngs Moduli (GPa) = 52.98102 52.98102 54.06447
#
# Poissons Ratio (x) = 0.47641 0.31696
# Poissons Ratio (y) = 0.47641 0.31696
# Poissons Ratio (z) = 0.31060 0.31060
#
# Static dielectric constant tensor:
#      x y z
#    x 1.462700 0.000000 0.000000 
#    y 0.000000 1.462700 0.000000 
#    z 0.000000 0.000000 1.477860 
# 
# From -- ./inp_files/2514.got.cif
#   From: 2010.05.17/outbox.cif.g08.bks.cpg/sg162_2_cif.got.tgz:2514.got - 2010.05.20 10:53:12.
