data_PCOD9577731
_publ_section_title
;
Structure prediction by ZEFSAII (Michael W. Deem and Ramdas Pophale) SiO2 
 PCOD9577731
Probable space group: P -3 1 M 
;
_chemical_formula_sum "Si O2"
_cell_formula_units_Z 58
_cell_length_a 13.956895
_cell_length_b 13.956895
_cell_length_c 14.058441
_cell_angle_alpha 90.000000
_cell_angle_beta 90.000000
_cell_angle_gamma 120.000000
_cell_volume 2371.621707
_symmetry_space_group_name_H-M "P -3 1 M "
_symmetry_group_IT_number 162
_symmetry_cell_setting 'hexagonal'
loop_
_space_group_symop_operation_xyz
x,y,z
-y,x-y,z
-x+y,-x,z
-y,-x,-z
-x+y,y,-z
x,x-y,-z
-x,-y,-z
y,-x+y,-z
x-y,x,-z
y,x,z
x-y,-y,z
-x,-x+y,z
loop_
_atom_site_type_symbol
_atom_site_label
_atom_site_fract_x
_atom_site_fract_y
_atom_site_fract_z
Si Si1 0.558276 0.428666 0.249780
Si Si2 0.124566 0.349991 0.687110
Si Si3 0.882653 0.766069 0.865598
Si Si4 0.666668 0.333334 0.384219
Si Si5 0.547600 0.869185 0.943012
Si Si6 0.133202 0.266403 0.500000
O O1 0.513356 0.513356 0.271750
O O2 0.454252 0.303482 0.247428
O O3 0.628930 0.415411 0.334947
O O4 0.615122 0.467182 0.146476
O O5 0.122195 0.256555 0.753690
O O6 0.181411 0.347672 0.590694
O O7 0.000000 0.311793 0.656293
O O8 0.785608 0.785608 0.900252
O O9 0.878852 0.659487 0.905160
O O10 0.000000 0.869534 0.886572
O O11 0.666668 0.333334 0.500000
O O12 0.595111 0.000000 0.979831
O O13 0.501389 0.750695 0.000000
O O14 0.187975 0.187975 0.496255
#
# Coordination Sequence:
#
# PCOD9577731 Si02
#       6
#    12  12  12   4  12   6
#     4  10  23  46  69  99 143 182 233 309 373 430
#     4   9  19  35  57  86 128 181 230 280 338 406
#     4  10  19  33  56  90 133 176 220 271 339 426
#     4  12  27  45  76 110 136 183 249 300 364 443
#     4  10  21  40  69 102 139 186 236 292 367 448
#     4  10  19  32  56  94 140 190 243 296 356 430
#
# _framework density 24.455839999999998
#
# number of rings (size 3 to 8) (size 9 to 14) (size 15 to 20)
#    0.000    2.069    0.000    2.793    1.448    0.414 
#    0.000    8.276    0.000   15.724    0.000    0.000 
#    0.000    3.310    0.000    0.000    0.000    0.000 
#
# Total GULP energy -322878.967723 kJ/mol
# GULP energy per Si atom -5566.878754 kJ/mol
# Density = 2.440018 g / cm^3
# Si number density = 24.455840 Si / 1000 Ang^3
#
#
#
# Elastic Constant Matrix: (Units=GPa)
#
#
# Indices 1 2 3 4 5 6 
#
# 1 113.8569 83.9018 65.0975 0.0000 -10.1387 -0.0002
# 2 83.9018 113.8569 65.0976 -0.0002 10.1385 -0.0001
# 3 65.0975 65.0976 148.3292 -0.0001 -0.0001 -0.0002
# 4 0.0000 -0.0002 -0.0001 33.6881 0.0000 10.1385
# 5 -10.1387 10.1385 -0.0001 0.0000 33.6881 0.0000
# 6 -0.0002 -0.0001 -0.0002 10.1385 0.0000 14.9774
#
#
#
# Elastic Compliance Matrix: (Units=1/GPa)
#
#
# Indices 1 2 3 4 5 6 
#
# 1 0.024518 -0.017406 -0.003121 0.000000 0.012617 0.000000
# 2 -0.017406 0.024518 -0.003121 0.000000 -0.012617 0.000000
# 3 -0.003121 -0.003121 0.009481 0.000000 0.000000 0.000000
# 4 0.000000 0.000000 0.000000 0.037278 0.000000 -0.025235
# 5 0.012617 -0.012617 0.000000 0.000000 0.037279 0.000000
# 6 0.000000 0.000000 0.000000 -0.025235 0.000000 0.083849
#
#
# Mechanical properties :
#
#
# Convention : Reuss Voigt Hill
#
# Bulk Modulus (GPa) = 89.12655 89.35966 89.24310
# Shear Modulus (GPa) = 18.65949 27.26711 22.96330
#
# Velocity S-wave (km/s) = 2.76522 3.34271 3.06759
# Velocity P-wave (km/s) = 6.83507 7.17752 7.00839
#
# Compressibility (1/GPa) = 0.01122000
#
# Stress axis : x y z
#
# Youngs Moduli (GPa) = 40.78661 40.78664 105.47197
#
# Poissons Ratio (x) = 0.70995 0.32917
# Poissons Ratio (y) = 0.70995 0.32918
# Poissons Ratio (z) = 0.12729 0.12730
#
# Static dielectric constant tensor:
#      x y z
#    x 2.011150 0.000000 0.000000 
#    y 0.000000 2.011150 0.000000 
#    z 0.000000 0.000000 1.977140 
# 
# From -- ./inp_files/2989.got.cif
#   From: 2010.05.17/outbox.cif.g08.bks.cpg/sg162_2_cif.got.tgz:2989.got - 2010.05.20 10:53:12.
