data_PCOD9577042
_publ_section_title
;
Structure prediction by ZEFSAII (Michael W. Deem and Ramdas Pophale) SiO2 
 PCOD9577042
Probable space group: R 3 2
;
_chemical_formula_sum "Si O2"
_cell_formula_units_Z 93
_cell_length_a 13.470969
_cell_length_b 13.470969
_cell_length_c 28.717873
_cell_angle_alpha 90.000000
_cell_angle_beta 90.000000
_cell_angle_gamma 120.000000
_cell_volume 4513.158393
_symmetry_space_group_name_H-M "R 3 2"
_symmetry_group_IT_number 155
_symmetry_cell_setting 'hexagonal'
loop_
_space_group_symop_operation_xyz
x,y,z
-y,x-y,z
-x+y,-x,z
x-y,-y,-z
-x,-x+y,-z
y,x,-z
2/3+x,1/3+y,1/3+z
2/3-y,1/3+x-y,1/3+z
2/3-x+y,1/3-x,1/3+z
2/3+x-y,1/3-y,1/3-z
2/3-x,1/3-x+y,1/3-z
2/3+y,1/3+x,1/3-z
1/3+x,2/3+y,2/3+z
1/3-y,2/3+x-y,2/3+z
1/3-x+y,2/3-x,2/3+z
1/3+x-y,2/3-y,2/3-z
1/3-x,2/3-x+y,2/3-z
1/3+y,2/3+x,2/3-z
loop_
_atom_site_type_symbol
_atom_site_label
_atom_site_fract_x
_atom_site_fract_y
_atom_site_fract_z
Si Si1 0.000000 0.000000 0.432103
Si Si2 0.797162 0.124278 0.940109
Si Si3 0.972638 0.211057 0.310236
Si Si4 0.001322 0.338179 0.114293
Si Si5 0.538966 0.333334 0.333334
Si Si6 0.666668 0.333334 0.013034
Si Si7 0.726885 0.142474 0.787186
O O1 0.000000 0.000000 0.376441
O O2 0.884073 0.987906 0.449963
O O3 0.885144 0.217925 0.902368
O O4 0.821202 0.023539 0.954333
O O5 0.666897 0.062718 0.923396
O O6 0.820711 0.200441 0.986737
O O7 0.063616 0.333334 0.333334
O O8 0.944537 0.243754 0.260203
O O9 0.017439 0.121952 0.304905
O O10 0.961940 0.295273 0.166667
O O11 0.028605 0.470534 0.117152
O O12 0.558530 0.225196 0.333334
O O13 0.666667 0.068103 0.833334
#
# Coordination Sequence:
#
# PCOD9577042 Si02
#       7
#     6  18  18  18   9   6  18
#     4  12  16  31  54  93 138 183 204 256 328 430
#     4  11  22  40  67 100 130 174 235 284 341 400
#     4  10  23  38  64  96 137 178 227 283 352 412
#     4  11  21  39  64  96 144 179 218 284 347 407
#     4  10  24  46  74  92 118 180 252 292 316 392
#     4  12  21  40  64  93 141 186 232 274 360 418
#     4  12  20  33  60 103 141 176 215 269 351 424
#
# _framework density 20.606411000000001
#
# number of rings (size 3 to 8) (size 9 to 14) (size 15 to 20)
#    0.194    0.774    5.806    3.484    0.000    1.548 
#    0.000    0.000    8.516    1.161    0.000    0.000 
#    0.000    0.000    0.000    0.000    0.000    0.000 
#
# Total GULP energy -172946.761696 kJ/mol
# GULP energy per Si atom -5578.927797 kJ/mol
# Density = 2.055951 g / cm^3
# Si number density = 20.606411 Si / 1000 Ang^3
#
#
#
# Elastic Constant Matrix: (Units=GPa)
#
#
# Indices 1 2 3 4 5 6 
#
# 1 127.7382 -4.5321 41.5136 -11.6320 0.0012 0.0000
# 2 -4.5321 127.7425 41.5141 11.6328 -0.0012 0.0000
# 3 41.5136 41.5141 151.2017 0.0000 0.0000 0.0000
# 4 -11.6320 11.6328 0.0000 24.2390 0.0000 -0.0012
# 5 0.0012 -0.0012 0.0000 0.0000 24.2381 -11.6304
# 6 0.0000 0.0000 0.0000 -0.0012 -11.6304 66.1321
#
#
#
# Elastic Compliance Matrix: (Units=1/GPa)
#
#
# Indices 1 2 3 4 5 6 
#
# 1 0.009108 0.000851 -0.002734 0.003963 0.000000 0.000000
# 2 0.000851 0.009108 -0.002734 -0.003963 0.000000 0.000000
# 3 -0.002734 -0.002734 0.008115 0.000000 0.000000 0.000000
# 4 0.003963 -0.003963 0.000000 0.045059 0.000000 0.000001
# 5 0.000000 0.000000 0.000000 0.000000 0.045060 0.007924
# 6 0.000000 0.000000 0.000000 0.000001 0.007924 0.016515
#
#
# Mechanical properties :
#
#
# Convention : Reuss Voigt Hill
#
# Bulk Modulus (GPa) = 58.49408 62.63043 60.56225
# Shear Modulus (GPa) = 33.80679 44.80096 39.30387
#
# Velocity S-wave (km/s) = 4.05482 4.66781 4.37207
# Velocity P-wave (km/s) = 7.09719 7.71433 7.41219
#
# Compressibility (1/GPa) = 0.01709575
#
# Stress axis : x y z
#
# Youngs Moduli (GPa) = 109.79155 109.79475 123.22631
#
# Poissons Ratio (x) = -0.09343 0.33694
# Poissons Ratio (y) = -0.09342 0.33694
# Poissons Ratio (z) = 0.30021 0.30021
#
# Static dielectric constant tensor:
#      x y z
#    x 1.763680 0.000000 0.000000 
#    y 0.000000 1.763680 0.000000 
#    z 0.000000 0.000000 1.771220 
# 
# From -- ./inp_files/8403.got.cif
#   From: 2010.05.17/outbox.cif.g08.bks.cpg/sg155_5_cif.got.tgz:8403.got - 2010.05.20 10:44:35.
