data_PCOD9577776
_publ_section_title
;
Structure prediction by ZEFSAII (Michael W. Deem and Ramdas Pophale) SiO2 
 PCOD9577776
Probable space group: P -3 1 M 
;
_chemical_formula_sum "Si O2"
_cell_formula_units_Z 36
_cell_length_a 18.523327
_cell_length_b 18.523327
_cell_length_c 7.449440
_cell_angle_alpha 90.000000
_cell_angle_beta 90.000000
_cell_angle_gamma 120.000000
_cell_volume 2213.564827
_symmetry_space_group_name_H-M "P -3 1 M "
_symmetry_group_IT_number 162
_symmetry_cell_setting 'hexagonal'
loop_
_space_group_symop_operation_xyz
x,y,z
-y,x-y,z
-x+y,-x,z
-y,-x,-z
-x+y,y,-z
x,x-y,-z
-x,-y,-z
y,-x+y,-z
x-y,x,-z
y,x,z
x-y,-y,z
-x,-x+y,z
loop_
_atom_site_type_symbol
_atom_site_label
_atom_site_fract_x
_atom_site_fract_y
_atom_site_fract_z
Si Si1 0.503735 0.667023 0.000001
Si Si2 0.645575 0.740427 0.286914
Si Si3 0.259572 0.354424 0.286912
O O1 0.563021 0.683834 0.828240
O O2 0.422832 0.577169 0.000000
O O3 0.480094 0.740047 0.000000
O O4 0.563020 0.683833 0.171763
O O5 0.713941 0.713941 0.244116
O O6 0.671580 0.835789 0.244820
O O7 0.628527 0.728151 0.500001
O O8 0.286058 0.286058 0.244115
#
# Coordination Sequence:
#
# PCOD9577776 Si02
#       3
#    12  12  12
#     4  10  20  33  48  67  92 122 155 190 228 269
#     4   9  18  32  49  69  93 121 152 186 226 271
#     4   9  18  32  49  69  93 121 152 186 226 271
#
# _framework density 16.263359999999999
#
# number of rings (size 3 to 8) (size 9 to 14) (size 15 to 20)
#    0.000    2.667    0.000    1.333    0.000    4.000 
#    0.000    3.333    0.000    4.667    0.000    4.667 
#    0.000    8.000    0.000    0.667    0.000    0.000 
#
# Total GULP energy -200631.422174 kJ/mol
# GULP energy per Si atom -5573.095060 kJ/mol
# Density = 1.622634 g / cm^3
# Si number density = 16.263360 Si / 1000 Ang^3
#
#
#
# Elastic Constant Matrix: (Units=GPa)
#
#
# Indices 1 2 3 4 5 6 
#
# 1 129.1509 112.4584 51.5330 0.0000 0.0000 0.0000
# 2 112.4584 129.1509 51.5330 0.0000 0.0000 0.0000
# 3 51.5330 51.5330 59.7580 0.0000 0.0000 0.0000
# 4 0.0000 0.0000 0.0000 21.1347 0.0000 0.0000
# 5 0.0000 0.0000 0.0000 0.0000 21.1347 0.0000
# 6 0.0000 0.0000 0.0000 0.0000 0.0000 8.3462
#
#
#
# Elastic Compliance Matrix: (Units=1/GPa)
#
#
# Indices 1 2 3 4 5 6 
#
# 1 0.033227 -0.026680 -0.005646 0.000000 0.000000 0.000000
# 2 -0.026680 0.033227 -0.005646 0.000000 0.000000 0.000000
# 3 -0.005646 -0.005646 0.026473 0.000000 0.000000 0.000000
# 4 0.000000 0.000000 0.000000 0.047315 0.000000 0.000000
# 5 0.000000 0.000000 0.000000 0.000000 0.047315 0.000000
# 6 0.000000 0.000000 0.000000 0.000000 0.000000 0.119814
#
#
# Mechanical properties :
#
#
# Convention : Reuss Voigt Hill
#
# Bulk Modulus (GPa) = 58.88505 83.23429 71.05967
# Shear Modulus (GPa) = 12.85418 16.95883 14.90650
#
# Velocity S-wave (km/s) = 2.81441 3.23269 3.03077
# Velocity P-wave (km/s) = 6.84449 8.07613 7.48568
#
# Compressibility (1/GPa) = 0.01698224
#
# Stress axis : x y z
#
# Youngs Moduli (GPa) = 30.09568 30.09568 37.77494
#
# Poissons Ratio (x) = 0.80295 0.21329
# Poissons Ratio (y) = 0.80295 0.21329
# Poissons Ratio (z) = 0.16993 0.16993
#
# Static dielectric constant tensor:
#      x y z
#    x 1.528830 0.000000 0.000000 
#    y 0.000000 1.528830 0.000000 
#    z 0.000000 0.000000 1.567390 
# 
# From -- ./inp_files/1037.got.cif
#   From: 2010.05.17/outbox.cif.g08.bks.cpg/sg162_1_cif.got.tgz:1037.got - 2010.05.20 10:53:12.
