data_PCOD9577807
_publ_section_title
;
Structure prediction by ZEFSAII (Michael W. Deem and Ramdas Pophale) SiO2 
 PCOD9577807
Probable space group: P -3 1 M 
;
_chemical_formula_sum "Si O2"
_cell_formula_units_Z 72
_cell_length_a 15.220752
_cell_length_b 15.220752
_cell_length_c 19.801229
_cell_angle_alpha 90.000000
_cell_angle_beta 90.000000
_cell_angle_gamma 120.000000
_cell_volume 3972.784408
_symmetry_space_group_name_H-M "P -3 1 M "
_symmetry_group_IT_number 162
_symmetry_cell_setting 'hexagonal'
loop_
_space_group_symop_operation_xyz
x,y,z
-y,x-y,z
-x+y,-x,z
-y,-x,-z
-x+y,y,-z
x,x-y,-z
-x,-y,-z
y,-x+y,-z
x-y,x,-z
y,x,z
x-y,-y,z
-x,-x+y,z
loop_
_atom_site_type_symbol
_atom_site_label
_atom_site_fract_x
_atom_site_fract_y
_atom_site_fract_z
Si Si1 0.677694 0.878404 0.426600
Si Si2 0.118888 0.884665 0.288371
Si Si3 0.467108 0.727175 0.923855
Si Si4 0.752023 0.193630 0.217096
Si Si5 0.123871 0.599912 0.428470
Si Si6 0.120217 0.585791 0.716946
O O1 0.696910 0.848455 0.500000
O O2 0.717739 0.843794 0.363177
O O3 0.559415 0.842088 0.419934
O O4 0.736517 0.000000 0.422322
O O5 0.133786 0.807460 0.241516
O O6 0.000000 0.848127 0.292550
O O7 0.183578 0.000000 0.265288
O O8 0.392894 0.775292 0.917100
O O9 0.544031 0.753622 0.863229
O O10 0.507994 0.753997 0.000000
O O11 0.814084 0.306159 0.248582
O O12 0.638254 0.141985 0.246452
O O13 0.159158 0.579579 0.500000
O O14 0.151017 0.560108 0.361573
O O15 0.000000 0.538603 0.430377
O O16 0.000000 0.544901 0.720369
#
# Coordination Sequence:
#
# PCOD9577807 Si02
#       6
#    12  12  12  12  12  12
#     4  10  20  35  53  76 103 137 184 242 304 356
#     4  11  24  41  60  82 110 151 206 262 308 345
#     4   8  15  31  56  88 125 160 182 210 269 345
#     4  12  20  36  60  89 118 154 187 231 287 352
#     4   9  19  33  48  70 108 149 181 223 280 340
#     4  11  22  36  54  83 117 148 190 236 279 338
#
# _framework density 18.123308999999999
#
# number of rings (size 3 to 8) (size 9 to 14) (size 15 to 20)
#    0.333    1.500    3.333    2.000    2.333    0.000 
#    0.000    0.000    0.000    8.000    0.000    0.000 
#    0.000    1.333    0.000    0.000    0.000    0.000 
#
# Total GULP energy -401822.574372 kJ/mol
# GULP energy per Si atom -5580.869088 kJ/mol
# Density = 1.808206 g / cm^3
# Si number density = 18.123309 Si / 1000 Ang^3
#
#
#
# Elastic Constant Matrix: (Units=GPa)
#
#
# Indices 1 2 3 4 5 6 
#
# 1 40.7248 6.3408 4.9481 0.0002 2.8338 0.0000
# 2 6.3408 40.7248 4.9481 -0.0002 -2.8338 0.0000
# 3 4.9481 4.9481 122.9553 0.0000 0.0000 0.0000
# 4 0.0002 -0.0002 0.0000 9.0393 0.0000 -2.8338
# 5 2.8338 -2.8338 0.0000 0.0000 9.0393 0.0002
# 6 0.0000 0.0000 0.0000 -2.8338 0.0002 17.1920
#
#
#
# Elastic Compliance Matrix: (Units=1/GPa)
#
#
# Indices 1 2 3 4 5 6 
#
# 1 0.026048 -0.004620 -0.000862 -0.000001 -0.009614 0.000000
# 2 -0.004620 0.026048 -0.000862 0.000001 0.009614 0.000000
# 3 -0.000862 -0.000862 0.008202 0.000000 0.000000 0.000000
# 4 -0.000001 0.000001 0.000000 0.116656 0.000000 0.019229
# 5 -0.009614 0.009614 0.000000 0.000000 0.116656 -0.000001
# 6 0.000000 0.000000 0.000000 0.019229 -0.000001 0.061336
#
#
# Mechanical properties :
#
#
# Convention : Reuss Voigt Hill
#
# Bulk Modulus (GPa) = 21.00413 26.31985 23.66199
# Shear Modulus (GPa) = 13.03761 19.59865 16.31813
#
# Velocity S-wave (km/s) = 2.68504 3.29204 3.00391
# Velocity P-wave (km/s) = 4.60731 5.38556 5.01156
#
# Compressibility (1/GPa) = 0.04760968
#
# Stress axis : x y z
#
# Youngs Moduli (GPa) = 38.39041 38.39041 121.91495
#
# Poissons Ratio (x) = 0.17736 0.10513
# Poissons Ratio (y) = 0.17736 0.10513
# Poissons Ratio (z) = 0.03311 0.03311
#
# Static dielectric constant tensor:
#      x y z
#    x 1.620140 0.000000 0.000000 
#    y 0.000000 1.620140 0.000000 
#    z 0.000000 0.000000 1.624010 
# 
# From -- ./inp_files/3518.got.cif
#   From: 2010.05.17/outbox.cif.g08.bks.cpg/sg162_2_cif.got.tgz:3518.got - 2010.05.20 10:53:12.
