data_PCOD9577624
_publ_section_title
;
Structure prediction by ZEFSAII (Michael W. Deem and Ramdas Pophale) SiO2 
 PCOD9577624
Probable space group: R 3 C
;
_chemical_formula_sum "Si O2"
_cell_formula_units_Z 36
_cell_length_a 13.501493
_cell_length_b 13.501493
_cell_length_c 9.017030
_cell_angle_alpha 90.000000
_cell_angle_beta 90.000000
_cell_angle_gamma 120.000000
_cell_volume 1423.500872
_symmetry_space_group_name_H-M "R 3 C"
_symmetry_group_IT_number 161
_symmetry_cell_setting 'hexagonal'
loop_
_space_group_symop_operation_xyz
x,y,z
-y,x-y,z
-x+y,-x,z
-x+y,y,1/2+z
x,x-y,1/2+z
-y,-x,1/2+z
2/3+x,1/3+y,1/3+z
2/3-y,1/3+x-y,1/3+z
2/3-x+y,1/3-x,1/3+z
2/3-x+y,1/3+y,5/6+z
2/3+x,1/3+x-y,5/6+z
2/3-y,1/3-x,5/6+z
1/3+x,2/3+y,2/3+z
1/3-y,2/3+x-y,2/3+z
1/3-x+y,2/3-x,2/3+z
1/3-x+y,2/3+y,1/6+z
1/3+x,2/3+x-y,1/6+z
1/3-y,2/3-x,1/6+z
loop_
_atom_site_type_symbol
_atom_site_label
_atom_site_fract_x
_atom_site_fract_y
_atom_site_fract_z
Si Si1 0.244579 0.415584 0.091086
Si Si2 0.495662 0.577914 0.023267
O O1 0.374810 0.514249 0.112488
O O2 0.180916 0.472772 0.001862
O O3 0.166666 0.333333 0.223842
O O4 0.255808 0.333332 0.973844
#
# Coordination Sequence:
#
# PCOD9577624 Si02
#       2
#    18  18
#     4  12  25  44  69 100 135 176 223 276 333 396
#     4  12  25  44  69 100 135 176 223 276 333 396
#
# _framework density 25.289764999999999
#
# number of rings (size 3 to 8) (size 9 to 14) (size 15 to 20)
#    0.000    0.000    0.000   13.000    0.000    0.000 
#    0.000   10.000    0.000    0.000    0.000    0.000 
#    0.000    0.000    0.000    0.000    0.000    0.000 
#
# Total GULP energy -66977.105487 kJ/mol
# GULP energy per Si atom -5581.425457 kJ/mol
# Density = 2.523220 g / cm^3
# Si number density = 25.289765 Si / 1000 Ang^3
#
#
#
# Elastic Constant Matrix: (Units=GPa)
#
#
# Indices 1 2 3 4 5 6 
#
# 1 153.5651 30.0148 18.3214 -4.2151 0.0000 0.0000
# 2 30.0148 153.5651 18.3214 4.2151 0.0000 0.0000
# 3 18.3214 18.3214 94.4565 0.0000 0.0000 0.0000
# 4 -4.2151 4.2151 0.0000 39.5357 0.0000 0.0000
# 5 0.0000 0.0000 0.0000 0.0000 39.5357 -4.2151
# 6 0.0000 0.0000 0.0000 0.0000 -4.2151 61.7752
#
#
#
# Elastic Compliance Matrix: (Units=1/GPa)
#
#
# Indices 1 2 3 4 5 6 
#
# 1 0.006910 -0.001243 -0.001099 0.000869 0.000000 0.000000
# 2 -0.001243 0.006910 -0.001099 -0.000869 0.000000 0.000000
# 3 -0.001099 -0.001099 0.011013 0.000000 0.000000 0.000000
# 4 0.000869 -0.000869 0.000000 0.025479 0.000000 0.000000
# 5 0.000000 0.000000 0.000000 0.000000 0.025479 0.001739
# 6 0.000000 0.000000 0.000000 0.000000 0.001739 0.016306
#
#
# Mechanical properties :
#
#
# Convention : Reuss Voigt Hill
#
# Bulk Modulus (GPa) = 55.71042 59.43354 57.57198
# Shear Modulus (GPa) = 47.63551 50.49793 49.06672
#
# Velocity S-wave (km/s) = 4.34474 4.47338 4.40953
# Velocity P-wave (km/s) = 6.87355 7.08756 6.98137
#
# Compressibility (1/GPa) = 0.01794996
#
# Stress axis : x y z
#
# Youngs Moduli (GPa) = 144.72004 144.72004 90.79955
#
# Poissons Ratio (x) = 0.17993 0.09980
# Poissons Ratio (y) = 0.17993 0.09980
# Poissons Ratio (z) = 0.15907 0.15907
#
# Static dielectric constant tensor:
#      x y z
#    x 1.960550 0.000000 0.000000 
#    y 0.000000 1.960550 0.000000 
#    z 0.000000 0.000000 2.061070 
# 
# From -- ./inp_files/72.got.cif
#   From: 2010.05.17/outbox.cif.g08.bks.cpg/sg161_cif.got.tgz:72.got - 2010.05.20 10:52:32.
