data_PCOD9577764
_publ_section_title
;
Structure prediction by ZEFSAII (Michael W. Deem and Ramdas Pophale) SiO2 
 PCOD9577764
Probable space group: P -3 1 M 
;
_chemical_formula_sum "Si O2"
_cell_formula_units_Z 48
_cell_length_a 13.430124
_cell_length_b 13.430124
_cell_length_c 13.701197
_cell_angle_alpha 90.000000
_cell_angle_beta 90.000000
_cell_angle_gamma 120.000000
_cell_volume 2140.174512
_symmetry_space_group_name_H-M "P -3 1 M "
_symmetry_group_IT_number 162
_symmetry_cell_setting 'hexagonal'
loop_
_space_group_symop_operation_xyz
x,y,z
-y,x-y,z
-x+y,-x,z
-y,-x,-z
-x+y,y,-z
x,x-y,-z
-x,-y,-z
y,-x+y,-z
x-y,x,-z
y,x,z
x-y,-y,z
-x,-x+y,z
loop_
_atom_site_type_symbol
_atom_site_label
_atom_site_fract_x
_atom_site_fract_y
_atom_site_fract_z
Si Si1 0.131336 0.322700 0.250000
Si Si2 0.438036 0.570173 0.250000
Si Si3 0.296834 0.428270 0.418636
Si Si4 0.868565 0.571730 0.081364
O O1 0.132447 0.444441 0.250000
O O2 0.202988 0.332247 0.345836
O O3 0.202988 0.332247 0.154163
O O4 0.000000 0.223087 0.250000
O O5 0.469560 0.469560 0.250000
O O6 0.366543 0.540667 0.349791
O O7 0.366543 0.540667 0.150209
O O8 0.223918 0.447836 0.500000
O O9 0.380816 0.380816 0.455295
O O10 0.000000 0.619183 0.044705
O O11 0.776082 0.552164 0.000000
#
# Coordination Sequence:
#
# PCOD9577764 Si02
#       4
#    12  12  12  12
#     4  10  19  35  59  81 113 155 191 234 288 336
#     4   8  18  35  54  81 112 145 188 238 283 330
#     4  10  20  36  58  84 116 150 189 232 281 341
#     4  10  20  36  58  84 116 150 189 232 281 341
#
# _framework density 22.428077999999999
#
# number of rings (size 3 to 8) (size 9 to 14) (size 15 to 20)
#    0.000    2.500    0.000    3.750    0.000    2.000 
#   12.000    7.500    0.000   15.000    0.000    0.000 
#    0.000    0.000    0.000    0.000    0.000    0.000 
#
# Total GULP energy -268011.906662 kJ/mol
# GULP energy per Si atom -5583.581389 kJ/mol
# Density = 2.237703 g / cm^3
# Si number density = 22.428078 Si / 1000 Ang^3
#
#
#
# Elastic Constant Matrix: (Units=GPa)
#
#
# Indices 1 2 3 4 5 6 
#
# 1 93.3104 33.9160 36.9545 -0.0001 -0.0001 0.0000
# 2 33.9160 93.3104 36.9545 0.0001 0.0001 0.0000
# 3 36.9545 36.9545 122.2274 0.0000 0.0000 0.0000
# 4 -0.0001 0.0001 0.0000 23.8465 0.0000 0.0001
# 5 -0.0001 0.0001 0.0000 0.0000 23.8465 -0.0001
# 6 0.0000 0.0000 0.0000 0.0001 -0.0001 29.6972
#
#
#
# Elastic Compliance Matrix: (Units=1/GPa)
#
#
# Indices 1 2 3 4 5 6 
#
# 1 0.013186 -0.003651 -0.002883 0.000000 0.000000 0.000000
# 2 -0.003651 0.013186 -0.002883 0.000000 0.000000 0.000000
# 3 -0.002883 -0.002883 0.009925 0.000000 0.000000 0.000000
# 4 0.000000 0.000000 0.000000 0.041935 0.000000 0.000000
# 5 0.000000 0.000000 0.000000 0.000000 0.041935 0.000000
# 6 0.000000 0.000000 0.000000 0.000000 0.000000 0.033673
#
#
# Mechanical properties :
#
#
# Convention : Reuss Voigt Hill
#
# Bulk Modulus (GPa) = 57.26393 58.27759 57.77076
# Shear Modulus (GPa) = 28.01235 28.87958 28.44596
#
# Velocity S-wave (km/s) = 3.53793 3.59228 3.56521
# Velocity P-wave (km/s) = 6.50207 6.57621 6.53925
#
# Compressibility (1/GPa) = 0.01746300
#
# Stress axis : x y z
#
# Youngs Moduli (GPa) = 75.84018 75.84018 100.75962
#
# Poissons Ratio (x) = 0.27689 0.29046
# Poissons Ratio (y) = 0.27689 0.29046
# Poissons Ratio (z) = 0.21863 0.21863
#
# Static dielectric constant tensor:
#      x y z
#    x 1.849930 0.000000 0.000000 
#    y 0.000000 1.849930 0.000000 
#    z 0.000000 0.000000 1.876120 
# 
# From -- ./inp_files/2052.got.cif
#   From: 2010.05.17/outbox.cif.g08.bks.cpg/sg162_2_cif.got.tgz:2052.got - 2010.05.20 10:53:12.
