data_PCOD9577409
_publ_section_title
;
Structure prediction by ZEFSAII (Michael W. Deem and Ramdas Pophale) SiO2 
 PCOD9577409
Probable space group: P 3 1 C
;
_chemical_formula_sum "Si O2"
_cell_formula_units_Z 28
_cell_length_a 11.643292
_cell_length_b 11.643292
_cell_length_c 14.132022
_cell_angle_alpha 90.000000
_cell_angle_beta 90.000000
_cell_angle_gamma 120.000000
_cell_volume 1659.153299
_symmetry_space_group_name_H-M "P 3 1 C"
_symmetry_group_IT_number 159
_symmetry_cell_setting 'hexagonal'
loop_
_space_group_symop_operation_xyz
x,y,z
-y,x-y,z
-x+y,-x,z
y,x,1/2+z
x-y,-y,1/2+z
-x,-x+y,1/2+z
loop_
_atom_site_type_symbol
_atom_site_label
_atom_site_fract_x
_atom_site_fract_y
_atom_site_fract_z
Si Si1 0.330075 0.398563 0.001620
Si Si2 0.000000 0.000000 0.084836
Si Si3 0.000000 0.000000 0.857768
Si Si4 0.931513 0.330078 0.501620
Si Si5 0.156232 0.843770 0.612432
Si Si6 0.844443 0.155560 0.327369
O O1 0.351438 0.289968 0.055379
O O2 0.457864 0.542134 0.007864
O O3 0.198547 0.397097 0.041889
O O4 0.286617 0.358024 0.891942
O O5 0.923996 0.847998 0.115414
O O6 0.000000 0.000000 0.971279
O O7 0.847988 0.923992 0.826696
O O8 0.928594 0.286620 0.391942
O O9 0.061473 0.351443 0.555378
O O10 0.180933 0.819069 0.720530
#
# Coordination Sequence:
#
# PCOD9577409 Si02
#       6
#     6   2   2   6   6   6
#     4  10  22  40  59  84 122 158 197 245 300 349
#     4  12  16  35  61 100 113 139 184 254 313 340
#     4  12  16  35  61  94 113 145 181 251 310 346
#     4  10  22  40  59  84 122 158 197 245 300 349
#     4  12  20  37  64  93 115 153 203 250 298 366
#     4  10  22  33  64  89 121 149 198 243 305 358
#
# _framework density 16.876076999999999
#
# number of rings (size 3 to 8) (size 9 to 14) (size 15 to 20)
#    1.286    0.000    6.429    1.714    0.000    1.714 
#    1.286    0.000    0.000    0.000    0.000    0.000 
#    0.000    0.000    0.000    0.000    0.000    0.000 
#
# Total GULP energy -155947.561013 kJ/mol
# GULP energy per Si atom -5569.555750 kJ/mol
# Density = 1.683767 g / cm^3
# Si number density = 16.876077 Si / 1000 Ang^3
#
#
#
# Elastic Constant Matrix: (Units=GPa)
#
#
# Indices 1 2 3 4 5 6 
#
# 1 99.0111 30.1065 32.0583 0.0000 0.0000 0.0000
# 2 30.1065 99.0111 32.0583 0.0000 0.0000 0.0000
# 3 32.0583 32.0583 150.5202 0.0000 0.0000 0.0000
# 4 0.0000 0.0000 0.0000 -4.9268 0.0000 0.0000
# 5 0.0000 0.0000 0.0000 0.0000 -4.9268 0.0000
# 6 0.0000 0.0000 0.0000 0.0000 0.0000 34.4523
#
#
#
# Elastic Compliance Matrix: (Units=1/GPa)
#
#
# Indices 1 2 3 4 5 6 
#
# 1 0.011587 -0.002926 -0.001845 0.000000 0.000000 0.000000
# 2 -0.002926 0.011587 -0.001845 0.000000 0.000000 0.000000
# 3 -0.001845 -0.001845 0.007429 0.000000 0.000000 0.000000
# 4 0.000000 0.000000 0.000000 -0.202972 0.000000 0.000000
# 5 0.000000 0.000000 0.000000 0.000000 -0.202972 0.000000
# 6 0.000000 0.000000 0.000000 0.000000 0.000000 0.029026
#
#
# Mechanical properties :
#
#
# Convention : Reuss Voigt Hill
#
# Bulk Modulus (GPa) = 57.56181 59.66540 58.61360
# Shear Modulus (GPa) = -15.27674 21.87436 3.29881
#
# Velocity S-wave (km/s) = -3.01197 3.60415 1.39963
# Velocity P-wave (km/s) = 4.69964 7.26303 6.11712
#
# Compressibility (1/GPa) = 0.01737263
#
# Stress axis : x y z
#
# Youngs Moduli (GPa) = 86.30475 86.30475 134.60078
#
# Poissons Ratio (x) = 0.25253 0.24829
# Poissons Ratio (y) = 0.25253 0.24829
# Poissons Ratio (z) = 0.15920 0.15920
#
# Static dielectric constant tensor:
#      x y z
#    x 1.549420 0.000000 0.000000 
#    y 0.000000 1.549420 0.000000 
#    z 0.000000 0.000000 1.607180 
# 
# From -- ./inp_files/775.got.cif
#   From: 2010.05.17/outbox.cif.g08.bks.cpg/sg159_cif.got.tgz:775.got - 2010.05.20 10:50:30.
