data_PCOD9577349
_publ_section_title
;
Structure prediction by ZEFSAII (Michael W. Deem and Ramdas Pophale) SiO2 
 PCOD9577349
Probable space group: P 3 1 C
;
_chemical_formula_sum "Si O2"
_cell_formula_units_Z 40
_cell_length_a 19.954350
_cell_length_b 19.954350
_cell_length_c 7.623532
_cell_angle_alpha 90.000000
_cell_angle_beta 90.000000
_cell_angle_gamma 120.000000
_cell_volume 2628.827143
_symmetry_space_group_name_H-M "P 3 1 C"
_symmetry_group_IT_number 159
_symmetry_cell_setting 'hexagonal'
loop_
_space_group_symop_operation_xyz
x,y,z
-y,x-y,z
-x+y,-x,z
y,x,1/2+z
x-y,-y,1/2+z
-x,-x+y,1/2+z
loop_
_atom_site_type_symbol
_atom_site_label
_atom_site_fract_x
_atom_site_fract_y
_atom_site_fract_z
Si Si1 0.666667 0.333335 0.889466
Si Si2 0.242748 0.757257 0.885429
Si Si3 0.242749 0.485492 0.472782
Si Si4 0.533497 0.620294 0.889914
Si Si5 0.533490 0.913199 0.889925
Si Si6 0.913198 0.379707 0.968284
Si Si7 0.533496 0.913203 0.468295
Si Si8 0.333334 0.666667 0.968746
O O1 0.666668 0.333334 0.679106
O O2 0.578587 0.289303 0.954992
O O3 0.232863 0.767137 0.679105
O O4 0.299576 0.842691 0.959065
O O5 0.157317 0.700421 0.959071
O O6 0.289302 0.710715 0.903218
O O7 0.157317 0.456895 0.399138
O O8 0.299576 0.456885 0.399145
O O9 0.452879 0.547126 0.956063
O O10 0.526457 0.620951 0.679100
O O11 0.600283 0.600280 0.929094
O O12 0.526455 0.905506 0.679109
O O13 0.600279 0.999997 0.929115
O O14 0.905753 0.452878 0.902146
#
# Coordination Sequence:
#
# PCOD9577349 Si02
#       8
#     2   6   6   6   6   6   6   2
#     4  12  22  26  37  63  82  98 133 183 211 224
#     4  10  18  32  46  55  75 112 141 161 199 252
#     4  10  18  32  46  55  75 112 141 161 199 252
#     4   9  17  28  43  58  77 103 133 166 199 235
#     4   9  17  28  43  58  77 103 133 166 199 235
#     4   9  17  28  43  58  77 103 133 166 199 235
#     4   9  17  28  43  58  77 103 133 166 199 235
#     4  12  22  26  37  63  82  98 133 183 211 224
#
# _framework density 15.215911999999999
#
# number of rings (size 3 to 8) (size 9 to 14) (size 15 to 20)
#    0.000    2.400    3.000    0.900    0.000    2.400 
#    0.000    0.000    0.000    0.000    0.000    0.000 
#    0.000    0.000    0.000    0.900    0.000   10.800 
#
# Total GULP energy -222958.653963 kJ/mol
# GULP energy per Si atom -5573.966349 kJ/mol
# Density = 1.518128 g / cm^3
# Si number density = 15.215912 Si / 1000 Ang^3
#
#
#
# Elastic Constant Matrix: (Units=GPa)
#
#
# Indices 1 2 3 4 5 6 
#
# 1 109.4373 76.4512 -1.2749 0.0000 0.0028 -0.0007
# 2 76.4512 109.4370 -1.2747 0.0000 -0.0028 0.0004
# 3 -1.2749 -1.2747 32.2003 0.0000 0.0000 0.0002
# 4 0.0000 0.0000 0.0000 12.9949 0.0000 -0.0028
# 5 0.0028 -0.0028 0.0000 0.0000 12.9949 0.0000
# 6 -0.0007 0.0004 0.0002 -0.0028 0.0000 16.4936
#
#
#
# Elastic Compliance Matrix: (Units=1/GPa)
#
#
# Indices 1 2 3 4 5 6 
#
# 1 0.017849 -0.012467 0.000213 0.000000 -0.000007 0.000001
# 2 -0.012467 0.017849 0.000213 0.000000 0.000007 -0.000001
# 3 0.000213 0.000213 0.031072 0.000000 0.000000 0.000000
# 4 0.000000 0.000000 0.000000 0.076953 0.000000 0.000013
# 5 -0.000007 0.000007 0.000000 0.000000 0.076953 0.000000
# 6 0.000001 -0.000001 0.000000 0.000013 0.000000 0.060629
#
#
# Mechanical properties :
#
#
# Convention : Reuss Voigt Hill
#
# Bulk Modulus (GPa) = 23.42477 44.31975 33.87226
# Shear Modulus (GPa) = 15.64367 20.30821 17.97594
#
# Velocity S-wave (km/s) = 3.20990 3.65728 3.44087
# Velocity P-wave (km/s) = 5.40058 6.85746 6.17215
#
# Compressibility (1/GPa) = 0.04268985
#
# Stress axis : x y z
#
# Youngs Moduli (GPa) = 56.02494 56.02478 32.18281
#
# Poissons Ratio (x) = 0.69845 -0.00686
# Poissons Ratio (y) = 0.69845 -0.00685
# Poissons Ratio (z) = -0.01195 -0.01193
#
# Static dielectric constant tensor:
#      x y z
#    x 1.515900 0.000000 0.000000 
#    y 0.000000 1.515900 0.000000 
#    z 0.000000 0.000000 1.563760 
# 
# From -- ./inp_files/465.got.cif
#   From: 2010.05.17/outbox.cif.g08.bks.cpg/sg159_cif.got.tgz:465.got - 2010.05.20 10:50:30.
