data_PCOD9577777
_publ_section_title
;
Structure prediction by ZEFSAII (Michael W. Deem and Ramdas Pophale) SiO2 
 PCOD9577777
Probable space group: P -3 1 M 
;
_chemical_formula_sum "Si O2"
_cell_formula_units_Z 72
_cell_length_a 24.375668
_cell_length_b 24.375668
_cell_length_c 9.209975
_cell_angle_alpha 90.000000
_cell_angle_beta 90.000000
_cell_angle_gamma 120.000000
_cell_volume 4739.168337
_symmetry_space_group_name_H-M "P -3 1 M "
_symmetry_group_IT_number 162
_symmetry_cell_setting 'hexagonal'
loop_
_space_group_symop_operation_xyz
x,y,z
-y,x-y,z
-x+y,-x,z
-y,-x,-z
-x+y,y,-z
x,x-y,-z
-x,-y,-z
y,-x+y,-z
x-y,x,-z
y,x,z
x-y,-y,z
-x,-x+y,z
loop_
_atom_site_type_symbol
_atom_site_label
_atom_site_fract_x
_atom_site_fract_y
_atom_site_fract_z
Si Si1 0.516787 0.922740 0.082023
Si Si2 0.740541 0.924877 0.422136
Si Si3 0.815665 0.075123 0.077863
Si Si4 0.076983 0.703738 0.583252
Si Si5 0.483214 0.405954 0.417976
Si Si6 0.373244 0.296261 0.916748
O O1 0.507276 0.902931 0.250000
O O2 0.555806 0.000000 0.081545
O O3 0.451510 0.903020 0.000000
O O4 0.560836 0.901787 0.997284
O O5 0.764686 0.882343 0.500000
O O6 0.733590 0.913294 0.249999
O O7 0.673210 0.906866 0.494065
O O8 0.786334 0.000000 0.445358
O O9 0.786335 0.000000 0.054642
O O10 0.882345 0.117656 0.000000
O O11 0.766346 0.093135 0.005931
O O12 0.098213 0.659047 0.502716
O O13 0.098844 0.717448 0.750000
O O14 0.000000 0.663181 0.586546
O O15 0.548491 0.451510 0.500000
O O16 0.444196 0.444196 0.418455
O O17 0.336817 0.336817 0.913455
#
# Coordination Sequence:
#
# PCOD9577777 Si02
#       6
#    12  12  12  12  12  12
#     4   9  15  22  33  51  77 109 143 174 201 231
#     4  10  20  33  49  68  88 111 141 179 225 279
#     4  10  20  33  49  68  88 111 141 179 225 279
#     4   9  16  26  40  58  81 109 140 173 209 251
#     4   9  15  22  33  51  77 109 143 174 201 231
#     4   9  16  26  40  58  81 109 140 173 209 251
#
# _framework density 15.192538000000001
#
# number of rings (size 3 to 8) (size 9 to 14) (size 15 to 20)
#    0.000    2.667    0.000    3.000    0.000   10.000 
#    0.000    0.000    0.000    0.333    0.000    0.000 
#    0.000    0.000    0.000    1.000    0.000   14.667 
#
# Total GULP energy -401172.500028 kJ/mol
# GULP energy per Si atom -5571.840278 kJ/mol
# Density = 1.515796 g / cm^3
# Si number density = 15.192538 Si / 1000 Ang^3
#
#
#
# Elastic Constant Matrix: (Units=GPa)
#
#
# Indices 1 2 3 4 5 6 
#
# 1 54.8153 33.3327 57.9897 0.0001 -0.0001 0.0000
# 2 33.3327 54.8153 57.9897 -0.0001 0.0001 0.0000
# 3 57.9897 57.9897 157.0447 0.0000 0.0000 0.0000
# 4 0.0001 -0.0001 0.0000 22.3254 0.0000 0.0001
# 5 -0.0001 0.0001 0.0000 0.0000 22.3254 0.0001
# 6 0.0000 0.0000 0.0000 0.0001 0.0001 10.7413
#
#
#
# Elastic Compliance Matrix: (Units=1/GPa)
#
#
# Indices 1 2 3 4 5 6 
#
# 1 0.034307 -0.012242 -0.008147 0.000000 0.000000 0.000000
# 2 -0.012242 0.034307 -0.008147 0.000000 0.000000 0.000000
# 3 -0.008147 -0.008147 0.012385 0.000000 0.000000 0.000000
# 4 0.000000 0.000000 0.000000 0.044792 0.000000 -0.000001
# 5 0.000000 0.000000 0.000000 0.000000 0.044792 0.000000
# 6 0.000000 0.000000 0.000000 -0.000001 0.000000 0.093098
#
#
# Mechanical properties :
#
#
# Convention : Reuss Voigt Hill
#
# Bulk Modulus (GPa) = 41.79950 62.81107 52.30529
# Shear Modulus (GPa) = 15.21007 18.90263 17.05635
#
# Velocity S-wave (km/s) = 3.16753 3.53116 3.35428
# Velocity P-wave (km/s) = 6.39927 7.61962 7.03595
#
# Compressibility (1/GPa) = 0.02392373
#
# Stress axis : x y z
#
# Youngs Moduli (GPa) = 29.14875 29.14875 80.74553
#
# Poissons Ratio (x) = 0.35685 0.65787
# Poissons Ratio (y) = 0.35685 0.65787
# Poissons Ratio (z) = 0.23749 0.23749
#
# Static dielectric constant tensor:
#      x y z
#    x 1.494510 0.000000 0.000000 
#    y 0.000000 1.494510 0.000000 
#    z 0.000000 0.000000 1.508800 
# 
# From -- ./inp_files/1731.got.cif
#   From: 2010.05.17/outbox.cif.g08.bks.cpg/sg162_1_cif.got.tgz:1731.got - 2010.05.20 10:53:12.
