data_PCOD9577170
_publ_section_title
;
Structure prediction by ZEFSAII (Michael W. Deem and Ramdas Pophale) SiO2 
 PCOD9577170
Probable space group: R 3 2
;
_chemical_formula_sum "Si O2"
_cell_formula_units_Z 69
_cell_length_a 13.858664
_cell_length_b 13.858664
_cell_length_c 16.181286
_cell_angle_alpha 90.000000
_cell_angle_beta 90.000000
_cell_angle_gamma 120.000000
_cell_volume 2691.450499
_symmetry_space_group_name_H-M "R 3 2"
_symmetry_group_IT_number 155
_symmetry_cell_setting 'hexagonal'
loop_
_space_group_symop_operation_xyz
x,y,z
-y,x-y,z
-x+y,-x,z
x-y,-y,-z
-x,-x+y,-z
y,x,-z
2/3+x,1/3+y,1/3+z
2/3-y,1/3+x-y,1/3+z
2/3-x+y,1/3-x,1/3+z
2/3+x-y,1/3-y,1/3-z
2/3-x,1/3-x+y,1/3-z
2/3+y,1/3+x,1/3-z
1/3+x,2/3+y,2/3+z
1/3-y,2/3+x-y,2/3+z
1/3-x+y,2/3-x,2/3+z
1/3+x-y,2/3-y,2/3-z
1/3-x,2/3-x+y,2/3-z
1/3+y,2/3+x,2/3-z
loop_
_atom_site_type_symbol
_atom_site_label
_atom_site_fract_x
_atom_site_fract_y
_atom_site_fract_z
Si Si1 0.416744 0.183633 0.456715
Si Si2 0.121149 0.876765 0.393816
Si Si3 0.000000 0.000000 0.899056
Si Si4 0.666667 0.804090 0.833334
Si Si5 0.908017 0.460868 0.668413
O O1 0.317474 0.145317 0.524251
O O2 0.541141 0.285662 0.467079
O O3 0.440121 0.081639 0.450450
O O4 0.360968 0.200328 0.376640
O O5 0.117702 0.784368 0.333334
O O6 0.994625 0.848102 0.386006
O O7 0.199397 0.997334 0.353197
O O8 0.000000 0.000000 0.000000
O O9 0.595551 0.821290 0.904470
#
# Coordination Sequence:
#
# PCOD9577170 Si02
#       5
#    18  18   6   9  18
#     4  12  26  51  78 114 161 217 273 347 428 505
#     4  12  26  49  79 118 161 218 279 347 428 510
#     4  12  30  51  84 126 165 217 287 355 441 525
#     4  12  24  46  82 106 166 216 268 350 426 506
#     4  12  26  50  79 118 162 216 283 353 427 511
#
# _framework density 25.636734000000001
#
# number of rings (size 3 to 8) (size 9 to 14) (size 15 to 20)
#    0.000    0.000    5.217    3.652    3.652    3.130 
#    0.000    2.609    0.000    0.000    0.000    0.000 
#    0.000    0.000    0.000    0.000    0.000    0.000 
#
# Total GULP energy -128564.885811 kJ/mol
# GULP energy per Si atom -5589.777644 kJ/mol
# Density = 2.557838 g / cm^3
# Si number density = 25.636734 Si / 1000 Ang^3
#
#
#
# Elastic Constant Matrix: (Units=GPa)
#
#
# Indices 1 2 3 4 5 6 
#
# 1 122.1798 53.6459 47.9906 8.5758 0.0000 0.0000
# 2 53.6459 122.1798 47.9906 -8.5758 0.0000 0.0000
# 3 47.9906 47.9906 119.9849 0.0000 0.0000 0.0000
# 4 8.5758 -8.5758 0.0000 31.9956 0.0000 0.0000
# 5 0.0000 0.0000 0.0000 0.0000 31.9956 8.5758
# 6 0.0000 0.0000 0.0000 0.0000 8.5758 34.2669
#
#
#
# Elastic Compliance Matrix: (Units=1/GPa)
#
#
# Indices 1 2 3 4 5 6 
#
# 1 0.011458 -0.004182 -0.002910 -0.004192 0.000000 0.000000
# 2 -0.004182 0.011458 -0.002910 0.004192 0.000000 0.000000
# 3 -0.002910 -0.002910 0.010662 0.000000 0.000000 0.000000
# 4 -0.004192 0.004192 0.000000 0.033501 0.000000 0.000000
# 5 0.000000 0.000000 0.000000 0.000000 0.033501 -0.008384
# 6 0.000000 0.000000 0.000000 0.000000 -0.008384 0.031281
#
#
# Mechanical properties :
#
#
# Convention : Reuss Voigt Hill
#
# Bulk Modulus (GPa) = 73.67199 73.73317 73.70258
# Shear Modulus (GPa) = 31.97077 33.96613 32.96845
#
# Velocity S-wave (km/s) = 3.53522 3.64387 3.58995
# Velocity P-wave (km/s) = 6.74262 6.82106 6.78196
#
# Compressibility (1/GPa) = 0.01357368
#
# Stress axis : x y z
#
# Youngs Moduli (GPa) = 87.27300 87.27300 93.78738
#
# Poissons Ratio (x) = 0.36499 0.27294
# Poissons Ratio (y) = 0.36499 0.27294
# Poissons Ratio (z) = 0.25399 0.25399
#
# Static dielectric constant tensor:
#      x y z
#    x 1.988000 0.000000 0.000000 
#    y 0.000000 1.988000 0.000000 
#    z 0.000000 0.000000 2.082150 
# 
# From -- ./inp_files/5929.got.cif
#   From: 2010.05.17/outbox.cif.g08.bks.cpg/sg155_3_cif.got.tgz:5929.got - 2010.05.20 10:44:35.
