data_PCOD9577224
_publ_section_title
;
Structure prediction by ZEFSAII (Michael W. Deem and Ramdas Pophale) SiO2 
 PCOD9577224
Probable space group: P 3 M 1
;
_chemical_formula_sum "Si O2"
_cell_formula_units_Z 48
_cell_length_a 12.777181
_cell_length_b 12.777181
_cell_length_c 20.835241
_cell_angle_alpha 90.000000
_cell_angle_beta 90.000000
_cell_angle_gamma 120.000000
_cell_volume 2945.772842
_symmetry_space_group_name_H-M "P 3 M 1"
_symmetry_group_IT_number 156
_symmetry_cell_setting 'hexagonal'
loop_
_space_group_symop_operation_xyz
x,y,z
-y,x-y,z
-x+y,-x,z
-x+y,y,z
x,x-y,z
-y,-x,z
loop_
_atom_site_type_symbol
_atom_site_label
_atom_site_fract_x
_atom_site_fract_y
_atom_site_fract_z
Si Si1 0.999555 0.751675 0.056750
Si Si2 0.332996 0.418562 0.790707
Si Si3 0.418131 0.084526 0.179313
Si Si4 0.333591 0.915839 0.303085
Si Si5 0.333490 0.417922 0.549312
Si Si6 0.751292 0.752001 0.426273
Si Si7 0.419078 0.085709 0.672269
Si Si8 0.086074 0.666443 0.937471
O O1 0.886769 0.773537 0.052767
O O2 0.974379 0.661147 0.115756
O O3 0.123146 0.876855 0.067339
O O4 0.014079 0.694522 0.990870
O O5 0.206801 0.413602 0.778512
O O6 0.443108 0.556893 0.785836
O O7 0.359198 0.343867 0.738131
O O8 0.333466 0.379050 0.864165
O O9 0.551078 0.102155 0.171425
O O10 0.424770 0.212385 0.189975
O O11 0.356959 0.996618 0.239841
O O12 0.452270 0.904540 0.313934
O O13 0.215763 0.784238 0.295153
O O14 0.309112 0.978523 0.363672
O O15 0.216521 0.433041 0.556869
O O16 0.452635 0.547366 0.538380
O O17 0.308856 0.330070 0.489064
O O18 0.355893 0.361109 0.613032
O O19 0.871361 0.742722 0.426110
O O20 0.783259 0.891630 0.426195
O O21 0.558001 0.116001 0.672988
O O22 0.411258 0.205629 0.665447
O O23 0.078860 0.539430 0.949821
O O24 0.225073 0.774928 0.940835
#
# Coordination Sequence:
#
# PCOD9577224 Si02
#       8
#     6   6   6   6   6   6   6   6
#     4  10  20  33  49  69  95 128 165 203 243 289
#     4   9  17  30  50  74  98 124 156 198 245 291
#     4  10  20  34  52  73  98 128 162 202 247 295
#     4  10  20  34  53  76 102 131 163 201 244 289
#     4  10  20  34  54  78 102 128 160 202 249 294
#     4  10  20  34  52  74 101 133 167 200 236 281
#     4  10  20  33  49  69  96 130 165 200 238 284
#     4   9  17  30  49  73  98 124 156 196 244 293
#
# _framework density 16.294535
#
# number of rings (size 3 to 8) (size 9 to 14) (size 15 to 20)
#    0.000    2.250    0.000    3.250    0.000    1.500 
#    0.000    2.500    0.000   14.500    0.000    0.000 
#    0.000    0.000    0.000    0.000    0.000    0.000 
#
# Total GULP energy -267832.520055 kJ/mol
# GULP energy per Si atom -5579.844168 kJ/mol
# Density = 1.625745 g / cm^3
# Si number density = 16.294535 Si / 1000 Ang^3
#
#
#
# Elastic Constant Matrix: (Units=GPa)
#
#
# Indices 1 2 3 4 5 6 
#
# 1 123.8088 86.1617 85.8317 -1.2165 0.0000 0.0000
# 2 86.1617 123.8088 85.8317 1.2165 0.0000 0.0000
# 3 85.8317 85.8317 129.2160 0.0000 0.0000 0.0000
# 4 -1.2165 1.2165 0.0000 22.4465 0.0000 0.0000
# 5 0.0000 0.0000 0.0000 0.0000 22.4465 -1.2165
# 6 0.0000 0.0000 0.0000 0.0000 -1.2165 18.8236
#
#
#
# Elastic Compliance Matrix: (Units=1/GPa)
#
#
# Indices 1 2 3 4 5 6 
#
# 1 0.018539 -0.008116 -0.006923 0.001445 0.000000 0.000000
# 2 -0.008116 0.018539 -0.006923 -0.001445 0.000000 0.000000
# 3 -0.006923 -0.006923 0.016937 0.000000 0.000000 0.000000
# 4 0.001445 -0.001445 0.000000 0.044707 0.000000 0.000000
# 5 0.000000 0.000000 0.000000 0.000000 0.044707 0.002889
# 6 0.000000 0.000000 0.000000 0.000000 0.002889 0.053312
#
#
# Mechanical properties :
#
#
# Convention : Reuss Voigt Hill
#
# Bulk Modulus (GPa) = 99.11907 99.16487 99.14197
# Shear Modulus (GPa) = 20.48925 20.67720 20.58322
#
# Velocity S-wave (km/s) = 3.54987 3.56612 3.55801
# Velocity P-wave (km/s) = 8.81838 8.82871 8.82355
#
# Compressibility (1/GPa) = 0.01008888
#
# Stress axis : x y z
#
# Youngs Moduli (GPa) = 53.93938 53.93938 59.04345
#
# Poissons Ratio (x) = 0.43780 0.40878
# Poissons Ratio (y) = 0.43780 0.40878
# Poissons Ratio (z) = 0.37344 0.37344
#
# Static dielectric constant tensor:
#      x y z
#    x 1.515470 0.000000 0.000000 
#    y 0.000000 1.515470 0.000000 
#    z 0.000000 0.000000 1.537060 
# 
# From -- ./inp_files/1107.got.cif
#   From: 2010.05.17/outbox.cif.g08.bks.cpg/sg156_cif.got.tgz:1107.got - 2010.05.20 10:49:08.
