data_PCOD9577469
_publ_section_title
;
Structure prediction by ZEFSAII (Michael W. Deem and Ramdas Pophale) SiO2 
 PCOD9577469
Probable space group: R 3 M
;
_chemical_formula_sum "Si O2"
_cell_formula_units_Z 126
_cell_length_a 22.400585
_cell_length_b 22.400585
_cell_length_c 17.737258
_cell_angle_alpha 90.000000
_cell_angle_beta 90.000000
_cell_angle_gamma 120.000000
_cell_volume 7707.895807
_symmetry_space_group_name_H-M "R 3 M"
_symmetry_group_IT_number 160
_symmetry_cell_setting 'hexagonal'
loop_
_space_group_symop_operation_xyz
x,y,z
-y,x-y,z
-x+y,-x,z
-x+y,y,z
x,x-y,z
-y,-x,z
2/3+x,1/3+y,1/3+z
2/3-y,1/3+x-y,1/3+z
2/3-x+y,1/3-x,1/3+z
2/3-x+y,1/3+y,1/3+z
2/3+x,1/3+x-y,1/3+z
2/3-y,1/3-x,1/3+z
1/3+x,2/3+y,2/3+z
1/3-y,2/3+x-y,2/3+z
1/3-x+y,2/3-x,2/3+z
1/3-x+y,2/3+y,2/3+z
1/3+x,2/3+x-y,2/3+z
1/3-y,2/3-x,2/3+z
loop_
_atom_site_type_symbol
_atom_site_label
_atom_site_fract_x
_atom_site_fract_y
_atom_site_fract_z
Si Si1 0.610556 0.528351 0.707010
Si Si2 0.712151 0.739944 0.816920
Si Si3 0.145228 0.430364 0.869227
Si Si4 0.748254 0.634926 0.991984
Si Si5 0.894964 0.597239 0.316222
Si Si6 0.666842 0.465495 0.406803
Si Si7 0.057170 0.456985 0.157164
O O1 0.548698 0.451303 0.723787
O O2 0.639856 0.530750 0.622939
O O3 0.575995 0.576125 0.692263
O O4 0.670600 0.558710 0.769240
O O5 0.629065 0.704672 0.830362
O O6 0.732357 0.780806 0.738532
O O7 0.736499 0.683341 0.814425
O O8 0.736684 0.784084 0.893484
O O9 0.203657 0.407314 0.866570
O O10 0.175287 0.499108 0.821064
O O11 0.828210 0.656419 0.993718
O O12 0.739138 0.701464 0.988410
O O13 0.718733 0.593813 0.913689
O O14 0.834230 0.531133 0.353884
O O15 0.718291 0.436581 0.411029
O O16 0.592135 0.407866 0.379822
O O17 0.054766 0.527383 0.141073
#
# Coordination Sequence:
#
# PCOD9577469 Si02
#       7
#    18  18  18  18  18  18  18
#     4  10  19  34  54  76 102 133 168 211 256 307
#     4  10  18  32  53  74 100 128 167 207 255 307
#     4   9  18  31  52  76  97 128 170 210 252 301
#     4  10  18  31  53  75 101 137 169 203 253 307
#     4  10  19  31  52  76 102 128 170 211 257 301
#     4  11  21  33  47  70 103 140 175 209 247 295
#     4  10  21  34  50  75 107 138 166 209 264 308
#
# _framework density 16.346874
#
# number of rings (size 3 to 8) (size 9 to 14) (size 15 to 20)
#    0.000    2.000    2.857    1.429    0.000    2.857 
#    0.000    0.714    0.000    0.286    0.000    0.000 
#    0.000    0.000    0.000    0.000    0.000    0.000 
#
# Total GULP energy -233912.393486 kJ/mol
# GULP energy per Si atom -5569.342702 kJ/mol
# Density = 1.630967 g / cm^3
# Si number density = 16.346874 Si / 1000 Ang^3
#
#
#
# Elastic Constant Matrix: (Units=GPa)
#
#
# Indices 1 2 3 4 5 6 
#
# 1 58.3241 20.0763 39.0732 1.9794 0.0002 0.0000
# 2 20.0763 58.3241 39.0732 -1.9794 -0.0002 0.0000
# 3 39.0732 39.0732 125.8907 0.0000 0.0000 0.0000
# 4 1.9794 -1.9794 0.0000 18.9627 0.0000 -0.0002
# 5 0.0002 -0.0002 0.0000 0.0000 18.9627 1.9794
# 6 0.0000 0.0000 0.0000 -0.0002 1.9794 19.1239
#
#
#
# Elastic Compliance Matrix: (Units=1/GPa)
#
#
# Indices 1 2 3 4 5 6 
#
# 1 0.022450 -0.003981 -0.005732 -0.002759 0.000000 0.000000
# 2 -0.003981 0.022450 -0.005732 0.002759 0.000000 0.000000
# 3 -0.005732 -0.005732 0.011502 0.000000 0.000000 0.000000
# 4 -0.002759 0.002759 0.000000 0.053311 0.000000 0.000000
# 5 0.000000 0.000000 0.000000 0.000000 0.053311 -0.005518
# 6 0.000000 0.000000 0.000000 0.000000 -0.005518 0.052862
#
#
# Mechanical properties :
#
#
# Convention : Reuss Voigt Hill
#
# Bulk Modulus (GPa) = 39.19999 48.77602 43.98800
# Shear Modulus (GPa) = 19.58637 21.03093 20.30865
#
# Velocity S-wave (km/s) = 3.46522 3.59073 3.52853
# Velocity P-wave (km/s) = 6.32791 6.86251 6.60063
#
# Compressibility (1/GPa) = 0.02551021
#
# Stress axis : x y z
#
# Youngs Moduli (GPa) = 44.54389 44.54389 86.94405
#
# Poissons Ratio (x) = 0.17733 0.49838
# Poissons Ratio (y) = 0.17733 0.49838
# Poissons Ratio (z) = 0.25533 0.25533
#
# Static dielectric constant tensor:
#      x y z
#    x 1.540860 0.000000 0.000000 
#    y 0.000000 1.540860 0.000000 
#    z 0.000000 0.000000 1.592690 
# 
# From -- ./inp_files/3017.got.cif
#   From: 2010.05.17/outbox.cif.g08.bks.cpg/sg160_2_cif.got.tgz:3017.got - 2010.05.20 10:51:19.
