data_PCOD9577994
_publ_section_title
;
Structure prediction by ZEFSAII (Michael W. Deem and Ramdas Pophale) SiO2 
 PCOD9577994
Probable space group: P -3 1 C
;
_chemical_formula_sum "Si O2"
_cell_formula_units_Z 60
_cell_length_a 24.988320
_cell_length_b 24.988320
_cell_length_c 5.750512
_cell_angle_alpha 90.000000
_cell_angle_beta 90.000000
_cell_angle_gamma 120.000000
_cell_volume 3109.648230
_symmetry_space_group_name_H-M "P -3 1 C"
_symmetry_group_IT_number 163
_symmetry_cell_setting 'hexagonal'
loop_
_space_group_symop_operation_xyz
x,y,z
-y,x-y,z
-x+y,-x,z
-y,-x,1/2-z
-x+y,y,1/2-z
x,x-y,1/2-z
-x,-y,-z
y,-x+y,-z
x-y,x,-z
y,x,1/2+z
x-y,-y,1/2+z
-x,-x+y,1/2+z
loop_
_atom_site_type_symbol
_atom_site_label
_atom_site_fract_x
_atom_site_fract_y
_atom_site_fract_z
Si Si1 0.834632 0.479284 0.507226
Si Si2 0.747572 0.373786 0.750000
Si Si3 0.030107 0.589155 0.837338
Si Si4 0.579525 0.729890 0.149476
Si Si5 0.768015 0.231986 0.250000
Si Si6 0.297079 0.311028 0.310064
O O1 0.796206 0.405991 0.543024
O O2 0.898522 0.507701 0.370990
O O3 0.850866 0.519852 0.747888
O O4 0.783842 0.493822 0.405592
O O5 0.699476 0.398952 0.750000
O O6 0.003922 0.559074 0.581951
O O7 0.022491 0.650161 0.827890
O O8 0.583671 0.791836 0.250000
O O9 0.575104 0.742312 0.880168
O O10 0.637928 0.723698 0.206570
O O11 0.279478 0.275616 0.063651
#
# Coordination Sequence:
#
# PCOD9577994 Si02
#       6
#    12   6  12  12   6  12
#     4  11  21  39  61  81 109 145 184 234 287 357
#     4  10  24  46  62  74 110 145 188 248 294 364
#     4  10  19  34  62  88 118 141 178 225 288 351
#     4  10  20  31  53  82 109 140 180 228 281 345
#     4  10  20  32  58  82 102 139 188 226 280 348
#     4  10  18  31  51  78 113 145 178 222 281 339
#
# _framework density 19.294786999999999
#
# number of rings (size 3 to 8) (size 9 to 14) (size 15 to 20)
#    0.200    1.600    4.000    4.200    2.800    0.000 
#    0.000    5.000    0.000    0.000    0.000    0.000 
#    0.000    0.000    0.000    0.000    0.000    0.000 
#
# Total GULP energy -334116.667747 kJ/mol
# GULP energy per Si atom -5568.611129 kJ/mol
# Density = 1.925087 g / cm^3
# Si number density = 19.294787 Si / 1000 Ang^3
#
#
#
# Elastic Constant Matrix: (Units=GPa)
#
#
# Indices 1 2 3 4 5 6 
#
# 1 51.3249 33.6802 9.8351 0.0000 5.1710 0.0000
# 2 33.6802 51.3249 9.8351 0.0000 -5.1710 0.0000
# 3 9.8351 9.8351 104.0476 0.0000 0.0000 0.0000
# 4 0.0000 0.0000 0.0000 21.6735 0.0000 -5.1710
# 5 5.1710 -5.1710 0.0000 0.0000 21.6735 0.0000
# 6 0.0000 0.0000 0.0000 -5.1710 0.0000 8.8224
#
#
#
# Elastic Compliance Matrix: (Units=1/GPa)
#
#
# Indices 1 2 3 4 5 6 
#
# 1 0.038957 -0.026930 -0.001137 0.000000 -0.015720 0.000000
# 2 -0.026930 0.038957 -0.001137 0.000000 0.015720 0.000000
# 3 -0.001137 -0.001137 0.009826 0.000000 0.000000 0.000000
# 4 0.000000 0.000000 0.000000 0.053640 0.000000 0.031440
# 5 -0.015720 0.015720 0.000000 0.000000 0.053640 0.000000
# 6 0.000000 0.000000 0.000000 0.031440 0.000000 0.131775
#
#
# Mechanical properties :
#
#
# Convention : Reuss Voigt Hill
#
# Bulk Modulus (GPa) = 34.09176 34.82204 34.45690
# Shear Modulus (GPa) = 12.65881 20.65701 16.65791
#
# Velocity S-wave (km/s) = 2.56417 3.27555 2.94145
# Velocity P-wave (km/s) = 5.14528 5.69142 5.42522
#
# Compressibility (1/GPa) = 0.02933260
#
# Stress axis : x y z
#
# Youngs Moduli (GPa) = 25.66910 25.66910 101.77174
#
# Poissons Ratio (x) = 0.69128 0.11570
# Poissons Ratio (y) = 0.69128 0.11570
# Poissons Ratio (z) = 0.02918 0.02918
#
# Static dielectric constant tensor:
#      x y z
#    x 1.659830 0.000000 0.000000 
#    y 0.000000 1.659830 0.000000 
#    z 0.000000 0.000000 1.997800 
# 
# From -- ./inp_files/373.got.cif
#   From: 2010.05.17/outbox.cif.g08.bks.cpg/sg163_1_cif.got.tgz:373.got - 2010.05.20 10:56:03.
