data_PCOD9577496
_publ_section_title
;
Structure prediction by ZEFSAII (Michael W. Deem and Ramdas Pophale) SiO2 
 PCOD9577496
Probable space group: R 3 M
;
_chemical_formula_sum "Si O2"
_cell_formula_units_Z 81
_cell_length_a 21.080458
_cell_length_b 21.080458
_cell_length_c 10.781056
_cell_angle_alpha 90.000000
_cell_angle_beta 90.000000
_cell_angle_gamma 120.000000
_cell_volume 4149.082000
_symmetry_space_group_name_H-M "R 3 M"
_symmetry_group_IT_number 160
_symmetry_cell_setting 'hexagonal'
loop_
_space_group_symop_operation_xyz
x,y,z
-y,x-y,z
-x+y,-x,z
-x+y,y,z
x,x-y,z
-y,-x,z
2/3+x,1/3+y,1/3+z
2/3-y,1/3+x-y,1/3+z
2/3-x+y,1/3-x,1/3+z
2/3-x+y,1/3+y,1/3+z
2/3+x,1/3+x-y,1/3+z
2/3-y,1/3-x,1/3+z
1/3+x,2/3+y,2/3+z
1/3-y,2/3+x-y,2/3+z
1/3-x+y,2/3-x,2/3+z
1/3-x+y,2/3+y,2/3+z
1/3+x,2/3+x-y,2/3+z
1/3-y,2/3-x,2/3+z
loop_
_atom_site_type_symbol
_atom_site_label
_atom_site_fract_x
_atom_site_fract_y
_atom_site_fract_z
Si Si1 0.529608 0.764804 0.945645
Si Si2 0.186579 0.959914 0.655377
Si Si3 0.506728 0.753364 0.218899
Si Si4 0.168851 0.831150 0.116441
Si Si5 0.664171 0.570796 0.476453
Si Si6 0.306150 0.939874 0.546181
O O1 0.522791 0.697217 0.869427
O O2 0.485907 0.742954 0.073788
O O3 0.615244 0.807622 0.990159
O O4 0.120256 0.879745 0.693184
O O5 0.234522 0.949553 0.546104
O O6 0.152936 0.009974 0.612729
O O7 0.245536 0.005505 0.763668
O O8 0.596409 0.798205 0.216041
O O9 0.083503 0.797491 0.128737
O O10 0.643556 0.622750 0.556510
O O11 0.630532 0.562809 0.339363
#
# Coordination Sequence:
#
# PCOD9577496 Si02
#       6
#     9  18   9   9  18  18
#     4  10  22  39  55  95 123 158 213 258 318 386
#     4  11  25  41  64  94 133 172 213 270 321 380
#     4  10  22  43  57  89 128 163 219 259 310 391
#     4  10  20  36  60  86 123 169 198 265 324 371
#     4  11  20  37  61  86 131 162 200 267 325 380
#     4  10  22  36  60  96 122 164 211 262 321 383
#
# _framework density 19.522390000000001
#
# number of rings (size 3 to 8) (size 9 to 14) (size 15 to 20)
#    0.667    0.889    4.444    0.000   12.444    0.000 
#    2.667    0.000    0.000    0.444    0.000    0.000 
#    0.000    0.000    0.000    0.000    0.000    0.000 
#
# Total GULP energy -150426.639056 kJ/mol
# GULP energy per Si atom -5571.357002 kJ/mol
# Density = 1.947796 g / cm^3
# Si number density = 19.522390 Si / 1000 Ang^3
#
#
#
# Elastic Constant Matrix: (Units=GPa)
#
#
# Indices 1 2 3 4 5 6 
#
# 1 54.7138 6.2358 15.4855 4.0681 0.0000 0.0000
# 2 6.2358 54.7138 15.4854 -4.0681 0.0001 0.0000
# 3 15.4855 15.4854 57.9223 0.0000 0.0001 0.0000
# 4 4.0681 -4.0681 0.0000 18.0781 0.0000 0.0001
# 5 0.0000 0.0001 0.0001 0.0000 18.0782 4.0681
# 6 0.0000 0.0000 0.0000 0.0001 4.0681 24.2390
#
#
#
# Elastic Compliance Matrix: (Units=1/GPa)
#
#
# Indices 1 2 3 4 5 6 
#
# 1 0.020212 -0.001226 -0.005076 -0.004824 0.000000 0.000000
# 2 -0.001226 0.020212 -0.005076 0.004824 0.000000 0.000000
# 3 -0.005076 -0.005076 0.019979 0.000000 0.000000 0.000000
# 4 -0.004824 0.004824 0.000000 0.057487 0.000000 0.000000
# 5 0.000000 0.000000 0.000000 0.000000 0.057486 -0.009648
# 6 0.000000 0.000000 0.000000 0.000000 -0.009648 0.042875
#
#
# Mechanical properties :
#
#
# Convention : Reuss Voigt Hill
#
# Bulk Modulus (GPa) = 26.56229 26.86259 26.71244
# Shear Modulus (GPa) = 19.71961 20.75527 20.23744
#
# Velocity S-wave (km/s) = 3.18166 3.26414 3.22316
# Velocity P-wave (km/s) = 5.20892 5.29111 5.25018
#
# Compressibility (1/GPa) = 0.03764735
#
# Stress axis : x y z
#
# Youngs Moduli (GPa) = 49.47577 49.47577 50.05349
#
# Poissons Ratio (x) = 0.06064 0.25407
# Poissons Ratio (y) = 0.06064 0.25407
# Poissons Ratio (z) = 0.25114 0.25114
#
# Static dielectric constant tensor:
#      x y z
#    x 1.688060 0.000000 0.000000 
#    y 0.000000 1.688060 0.000000 
#    z 0.000000 0.000000 1.732200 
# 
# From -- ./inp_files/1569.got.cif
#   From: 2010.05.17/outbox.cif.g08.bks.cpg/sg160_1_cif.got.tgz:1569.got - 2010.05.20 10:51:19.
