data_PCOD9577856
_publ_section_title
;
Structure prediction by ZEFSAII (Michael W. Deem and Ramdas Pophale) SiO2 
 PCOD9577856
Probable space group: P -3 1 M 
;
_chemical_formula_sum "Si O2"
_cell_formula_units_Z 72
_cell_length_a 14.638214
_cell_length_b 14.638214
_cell_length_c 18.578020
_cell_angle_alpha 90.000000
_cell_angle_beta 90.000000
_cell_angle_gamma 120.000000
_cell_volume 3447.515613
_symmetry_space_group_name_H-M "P -3 1 M "
_symmetry_group_IT_number 162
_symmetry_cell_setting 'hexagonal'
loop_
_space_group_symop_operation_xyz
x,y,z
-y,x-y,z
-x+y,-x,z
-y,-x,-z
-x+y,y,-z
x,x-y,-z
-x,-y,-z
y,-x+y,-z
x-y,x,-z
y,x,z
x-y,-y,z
-x,-x+y,z
loop_
_atom_site_type_symbol
_atom_site_label
_atom_site_fract_x
_atom_site_fract_y
_atom_site_fract_z
Si Si1 0.121537 0.241610 0.081309
Si Si2 0.877756 0.672370 0.419527
Si Si3 0.123803 0.577975 0.421456
Si Si4 0.777669 0.223088 0.839601
Si Si5 0.122830 0.424016 0.311971
Si Si6 0.565160 0.441421 0.083072
O O1 0.147977 0.147977 0.079283
O O2 0.196040 0.329419 0.137140
O O3 0.000000 0.197098 0.098865
O O4 0.143689 0.287377 0.000000
O O5 0.838755 0.677510 0.500000
O O6 0.873899 0.560581 0.408679
O O7 0.791995 0.663061 0.362084
O O8 0.000000 0.762110 0.410096
O O9 0.172786 0.586393 0.500000
O O10 0.162864 0.530202 0.359477
O O11 0.000000 0.488129 0.426877
O O12 0.748148 0.196399 0.756944
O O13 0.813233 0.339976 0.866386
O O14 0.675290 0.144410 0.885882
O O15 0.000000 0.377804 0.290203
O O16 0.480159 0.480159 0.084817
O O17 0.579584 0.420417 0.000000
#
# Coordination Sequence:
#
# PCOD9577856 Si02
#       6
#    12  12  12  12  12  12
#     4  10  20  37  63  93 123 160 211 269 325 383
#     4  11  22  39  66  96 128 170 218 266 323 386
#     4   9  18  37  62  87 120 161 207 260 315 378
#     4  12  25  41  63  91 130 172 214 266 329 399
#     4  11  24  42  63  92 132 171 214 269 330 392
#     4  11  24  43  67  94 126 170 222 270 322 390
#
# _framework density 20.884605000000001
#
# number of rings (size 3 to 8) (size 9 to 14) (size 15 to 20)
#    0.000    1.333    1.667    4.500    2.333    4.667 
#    1.000    0.833    0.000    3.000    0.000    0.000 
#    0.000    0.000    0.000    0.000    0.000    0.000 
#
# Total GULP energy -402339.257306 kJ/mol
# GULP energy per Si atom -5588.045240 kJ/mol
# Density = 2.083707 g / cm^3
# Si number density = 20.884605 Si / 1000 Ang^3
#
#
#
# Elastic Constant Matrix: (Units=GPa)
#
#
# Indices 1 2 3 4 5 6 
#
# 1 67.2232 7.6739 27.7906 0.0000 1.6739 0.0000
# 2 7.6739 67.2232 27.7906 0.0000 -1.6739 0.0000
# 3 27.7906 27.7906 113.2471 0.0000 0.0000 0.0000
# 4 0.0000 0.0000 0.0000 20.6605 0.0000 -1.6739
# 5 1.6739 -1.6739 0.0000 0.0000 20.6605 0.0000
# 6 0.0000 0.0000 0.0000 -1.6739 0.0000 29.7746
#
#
#
# Elastic Compliance Matrix: (Units=1/GPa)
#
#
# Indices 1 2 3 4 5 6 
#
# 1 0.016597 -0.000273 -0.004006 0.000000 -0.001367 0.000000
# 2 -0.000273 0.016597 -0.004006 0.000000 0.001367 0.000000
# 3 -0.004006 -0.004006 0.010796 0.000000 0.000000 0.000000
# 4 0.000000 0.000000 0.000000 0.048623 0.000000 0.002733
# 5 -0.001367 0.001367 0.000000 0.000000 0.048623 0.000000
# 6 0.000000 0.000000 0.000000 0.002733 0.000000 0.033739
#
#
# Mechanical properties :
#
#
# Convention : Reuss Voigt Hill
#
# Bulk Modulus (GPa) = 36.46789 41.57818 39.02303
# Shear Modulus (GPa) = 24.91462 26.51503 25.71482
#
# Velocity S-wave (km/s) = 3.45768 3.56701 3.51277
# Velocity P-wave (km/s) = 5.78276 6.07589 5.93113
#
# Compressibility (1/GPa) = 0.02742138
#
# Stress axis : x y z
#
# Youngs Moduli (GPa) = 60.25160 60.25160 92.62373
#
# Poissons Ratio (x) = 0.01642 0.37105
# Poissons Ratio (y) = 0.01642 0.37105
# Poissons Ratio (z) = 0.24137 0.24137
#
# Static dielectric constant tensor:
#      x y z
#    x 1.754690 0.000000 0.000000 
#    y 0.000000 1.754690 0.000000 
#    z 0.000000 0.000000 1.753800 
# 
# From -- ./inp_files/3515.got.cif
#   From: 2010.05.17/outbox.cif.g08.bks.cpg/sg162_2_cif.got.tgz:3515.got - 2010.05.20 10:53:12.
