data_PCOD9577984
_publ_section_title
;
Structure prediction by ZEFSAII (Michael W. Deem and Ramdas Pophale) SiO2 
 PCOD9577984
Probable space group: P -3 1 C
;
_chemical_formula_sum "Si O2"
_cell_formula_units_Z 96
_cell_length_a 20.232046
_cell_length_b 20.232046
_cell_length_c 18.505799
_cell_angle_alpha 90.000000
_cell_angle_beta 90.000000
_cell_angle_gamma 120.000000
_cell_volume 6560.215108
_symmetry_space_group_name_H-M "P -3 1 C"
_symmetry_group_IT_number 163
_symmetry_cell_setting 'hexagonal'
loop_
_space_group_symop_operation_xyz
x,y,z
-y,x-y,z
-x+y,-x,z
-y,-x,1/2-z
-x+y,y,1/2-z
x,x-y,1/2-z
-x,-y,-z
y,-x+y,-z
x-y,x,-z
y,x,1/2+z
x-y,-y,1/2+z
-x,-x+y,1/2+z
loop_
_atom_site_type_symbol
_atom_site_label
_atom_site_fract_x
_atom_site_fract_y
_atom_site_fract_z
Si Si1 0.571912 0.861356 0.903075
Si Si2 0.710556 0.138644 0.096925
Si Si3 0.309260 0.230992 0.965059
Si Si4 0.024157 0.370047 0.332442
Si Si5 0.921733 0.690740 0.534941
Si Si6 0.975843 0.345890 0.667558
Si Si7 0.474093 0.525907 0.391940
Si Si8 0.560607 0.439393 0.455164
O O1 0.575731 0.787866 0.877438
O O2 0.607561 0.933115 0.848977
O O3 0.487315 0.841748 0.924902
O O4 0.622131 0.892008 0.976454
O O5 0.674446 0.066885 0.151023
O O6 0.645567 0.158252 0.075098
O O7 0.730123 0.107992 0.023546
O O8 0.288501 0.144250 0.956241
O O9 0.338080 0.278135 0.890907
O O10 0.243276 0.243276 0.000000
O O11 0.038484 0.358429 0.250000
O O12 0.059946 0.338080 0.390907
O O13 0.055608 0.459648 0.347988
O O14 0.944392 0.404040 0.652012
O O15 0.516809 0.483191 0.426116
O O16 0.444393 0.555607 0.458352
#
# Coordination Sequence:
#
# PCOD9577984 Si02
#       8
#    12  12  12  12  12  12  12  12
#     4   9  17  29  44  62  86 117 152 188 222 257
#     4   9  17  29  44  62  86 117 152 188 222 257
#     4   9  17  30  47  66  89 116 146 182 225 271
#     4  10  18  27  43  66  90 116 145 182 228 272
#     4   9  17  30  47  66  89 116 146 182 225 271
#     4  10  18  27  43  66  90 116 145 182 228 272
#     4   9  15  26  42  64  86 112 148 182 220 266
#     4   9  14  26  46  60  82 114 150 190 218 250
#
# _framework density 14.633667000000001
#
# number of rings (size 3 to 8) (size 9 to 14) (size 15 to 20)
#    0.000    2.750    2.500    0.375    0.000    1.000 
#    0.750    0.000    0.000    0.250    0.000    0.000 
#    0.000    0.000    0.750    0.750    0.000    0.000 
#
# Total GULP energy -534519.304573 kJ/mol
# GULP energy per Si atom -5567.909423 kJ/mol
# Density = 1.460036 g / cm^3
# Si number density = 14.633667 Si / 1000 Ang^3
#
#
#
# Elastic Constant Matrix: (Units=GPa)
#
#
# Indices 1 2 3 4 5 6 
#
# 1 69.8539 39.8779 21.6976 0.0000 0.0000 0.0000
# 2 39.8779 69.8539 21.6976 0.0000 0.0000 0.0000
# 3 21.6976 21.6976 76.8354 0.0000 0.0000 0.0000
# 4 0.0000 0.0000 0.0000 10.4705 0.0000 0.0000
# 5 0.0000 0.0000 0.0000 0.0000 10.4705 0.0000
# 6 0.0000 0.0000 0.0000 0.0000 0.0000 14.9880
#
#
#
# Elastic Compliance Matrix: (Units=1/GPa)
#
#
# Indices 1 2 3 4 5 6 
#
# 1 0.021809 -0.011551 -0.002897 0.000000 0.000000 0.000000
# 2 -0.011551 0.021809 -0.002897 0.000000 0.000000 0.000000
# 3 -0.002897 -0.002897 0.014651 0.000000 0.000000 0.000000
# 4 0.000000 0.000000 0.000000 0.095507 0.000000 0.000000
# 5 0.000000 0.000000 0.000000 0.000000 0.095507 0.000000
# 6 0.000000 0.000000 0.000000 0.000000 0.000000 0.066720
#
#
# Mechanical properties :
#
#
# Convention : Reuss Voigt Hill
#
# Bulk Modulus (GPa) = 42.40766 42.56547 42.48656
# Shear Modulus (GPa) = 13.94495 16.07046 15.00770
#
# Velocity S-wave (km/s) = 3.09032 3.31748 3.20591
# Velocity P-wave (km/s) = 6.46342 6.62003 6.54219
#
# Compressibility (1/GPa) = 0.02358064
#
# Stress axis : x y z
#
# Youngs Moduli (GPa) = 45.85171 45.85171 68.25474
#
# Poissons Ratio (x) = 0.52962 0.19773
# Poissons Ratio (y) = 0.52962 0.19773
# Poissons Ratio (z) = 0.13283 0.13283
#
# Static dielectric constant tensor:
#      x y z
#    x 1.478800 0.000000 0.000000 
#    y 0.000000 1.478800 0.000000 
#    z 0.000000 0.000000 1.477320 
# 
# From -- ./inp_files/3318.got.cif
#   From: 2010.05.17/outbox.cif.g08.bks.cpg/sg163_2_cif.got.tgz:3318.got - 2010.05.20 10:56:03.
