data_PCOD9577313
_publ_section_title
;
Structure prediction by ZEFSAII (Michael W. Deem and Ramdas Pophale) SiO2 
 PCOD9577313
Probable space group: P 3 C 1
;
_chemical_formula_sum "Si O2"
_cell_formula_units_Z 30
_cell_length_a 8.362857
_cell_length_b 8.362857
_cell_length_c 24.542889
_cell_angle_alpha 90.000000
_cell_angle_beta 90.000000
_cell_angle_gamma 120.000000
_cell_volume 1486.502542
_symmetry_space_group_name_H-M "P 3 C 1"
_symmetry_group_IT_number 158
_symmetry_cell_setting 'hexagonal'
loop_
_space_group_symop_operation_xyz
x,y,z
-y,x-y,z
-x+y,-x,z
-x+y,y,1/2+z
x,x-y,1/2+z
-y,-x,1/2+z
loop_
_atom_site_type_symbol
_atom_site_label
_atom_site_fract_x
_atom_site_fract_y
_atom_site_fract_z
Si Si1 0.000248 0.667483 0.900270
Si Si2 0.667240 0.999758 0.352296
Si Si3 0.987409 0.204419 0.626281
Si Si4 0.874286 0.548300 0.019291
Si Si5 0.674026 0.125720 0.233274
O O1 0.868444 0.736889 0.876285
O O2 0.929840 0.464921 0.876282
O O3 0.201103 0.798898 0.876282
O O4 0.980697 0.652967 0.965113
O O5 0.672289 0.019320 0.287454
O O6 0.968461 0.303696 0.572981
O O7 0.968460 0.303682 0.679585
O O8 0.165858 0.177562 0.626280
O O9 0.659949 0.501905 0.018576
O O10 0.841961 0.340061 0.233987
#
# Coordination Sequence:
#
# PCOD9577313 Si02
#       5
#     6   6   6   6   6
#     4  12  24  42  65 101 136 181 232 292 351 418
#     4  12  24  42  65 101 136 181 232 292 351 418
#     4  10  24  36  62 102 126 162 232 288 332 404
#     4  10  21  42  68  87 130 183 229 269 347 419
#     4  10  21  42  68  87 130 183 229 269 347 419
#
# _framework density 20.181598999999999
#
# number of rings (size 3 to 8) (size 9 to 14) (size 15 to 20)
#    1.200    0.000    4.000    2.400    5.600    0.000 
#    0.000    0.000    0.000    6.400    0.000    0.000 
#    0.000    0.000    0.000    0.000    0.000    0.000 
#
# Total GULP energy -167335.741000 kJ/mol
# GULP energy per Si atom -5577.858033 kJ/mol
# Density = 2.013567 g / cm^3
# Si number density = 20.181599 Si / 1000 Ang^3
#
#
#
# Elastic Constant Matrix: (Units=GPa)
#
#
# Indices 1 2 3 4 5 6 
#
# 1 63.7690 8.9071 40.2766 -0.0012 0.0000 0.0000
# 2 8.9071 63.7690 40.2766 0.0012 0.0000 0.0000
# 3 40.2766 40.2766 234.5551 0.0000 0.0000 0.0000
# 4 -0.0012 0.0012 0.0000 80.1937 0.0000 0.0000
# 5 0.0000 0.0000 0.0000 0.0000 80.1937 -0.0012
# 6 0.0000 0.0000 0.0000 0.0000 -0.0012 27.4309
#
#
#
# Elastic Compliance Matrix: (Units=1/GPa)
#
#
# Indices 1 2 3 4 5 6 
#
# 1 0.017611 -0.000617 -0.002918 0.000000 0.000000 0.000000
# 2 -0.000617 0.017611 -0.002918 0.000000 0.000000 0.000000
# 3 -0.002918 -0.002918 0.005266 0.000000 0.000000 0.000000
# 4 0.000000 0.000000 0.000000 0.012470 0.000000 0.000000
# 5 0.000000 0.000000 0.000000 0.000000 0.012470 0.000001
# 6 0.000000 0.000000 0.000000 0.000000 0.000001 0.036455
#
#
# Mechanical properties :
#
#
# Convention : Reuss Voigt Hill
#
# Bulk Modulus (GPa) = 36.25654 60.11261 48.18457
# Shear Modulus (GPa) = 40.32847 55.73917 48.03382
#
# Velocity S-wave (km/s) = 4.47506 5.26106 4.88390
# Velocity P-wave (km/s) = 6.68623 8.17041 7.46529
#
# Compressibility (1/GPa) = 0.02758123
#
# Stress axis : x y z
#
# Youngs Moduli (GPa) = 56.78316 56.78316 189.91309
#
# Poissons Ratio (x) = 0.03502 0.55419
# Poissons Ratio (y) = 0.03502 0.55419
# Poissons Ratio (z) = 0.16570 0.16570
#
# Static dielectric constant tensor:
#      x y z
#    x 1.649010 0.000000 0.000000 
#    y 0.000000 1.649010 0.000000 
#    z 0.000000 0.000000 1.665180 
# 
# From -- ./inp_files/727.got.cif
#   From: 2010.05.17/outbox.cif.g08.bks.cpg/sg158_cif.got.tgz:727.got - 2010.05.20 10:49:59.
