data_PCOD9577135
_publ_section_title
;
Structure prediction by ZEFSAII (Michael W. Deem and Ramdas Pophale) SiO2 
 PCOD9577135
Probable space group: R 3 2
;
_chemical_formula_sum "Si O2"
_cell_formula_units_Z 81
_cell_length_a 17.457223
_cell_length_b 17.457223
_cell_length_c 14.760078
_cell_angle_alpha 90.000000
_cell_angle_beta 90.000000
_cell_angle_gamma 120.000000
_cell_volume 3895.557361
_symmetry_space_group_name_H-M "R 3 2"
_symmetry_group_IT_number 155
_symmetry_cell_setting 'hexagonal'
loop_
_space_group_symop_operation_xyz
x,y,z
-y,x-y,z
-x+y,-x,z
x-y,-y,-z
-x,-x+y,-z
y,x,-z
2/3+x,1/3+y,1/3+z
2/3-y,1/3+x-y,1/3+z
2/3-x+y,1/3-x,1/3+z
2/3+x-y,1/3-y,1/3-z
2/3-x,1/3-x+y,1/3-z
2/3+y,1/3+x,1/3-z
1/3+x,2/3+y,2/3+z
1/3-y,2/3+x-y,2/3+z
1/3-x+y,2/3-x,2/3+z
1/3+x-y,2/3-y,2/3-z
1/3-x,2/3-x+y,2/3-z
1/3+y,2/3+x,2/3-z
loop_
_atom_site_type_symbol
_atom_site_label
_atom_site_fract_x
_atom_site_fract_y
_atom_site_fract_z
Si Si1 0.893415 0.301950 0.499441
Si Si2 0.577502 0.099778 0.543075
Si Si3 0.802776 0.021277 0.405298
Si Si4 0.497397 0.000000 0.000000
Si Si5 0.731925 0.152776 0.418359
O O1 0.871474 0.380052 0.510741
O O2 0.867180 0.238249 0.585588
O O3 0.830336 0.238489 0.418718
O O4 0.000000 0.349404 0.500000
O O5 0.586340 0.110254 0.652050
O O6 0.674969 0.156264 0.501724
O O7 0.538610 0.000000 0.500000
O O8 0.747404 0.069941 0.430054
O O9 0.835420 0.000000 0.500000
O O10 0.742324 0.924516 0.367226
O O11 0.666667 0.132496 0.333334
#
# Coordination Sequence:
#
# PCOD9577135 Si02
#       5
#    18  18  18   9  18
#     4  11  28  43  66 107 153 187 239 308 384 443
#     4  11  23  44  67  97 143 186 235 305 358 438
#     4  12  21  39  71 106 129 176 255 300 339 432
#     4  12  22  40  70 102 138 188 240 294 362 452
#     4  12  23  42  75 102 135 184 244 304 366 442
#
# _framework density 20.792916000000002
#
# number of rings (size 3 to 8) (size 9 to 14) (size 15 to 20)
#    0.000    0.444    7.778    0.667    3.111    0.889 
#    1.333    0.000    0.000    0.000    0.000    0.000 
#    0.000    0.000    0.000    0.000    0.000    0.000 
#
# Total GULP energy -150546.686980 kJ/mol
# GULP energy per Si atom -5575.803221 kJ/mol
# Density = 2.074559 g / cm^3
# Si number density = 20.792916 Si / 1000 Ang^3
#
#
#
# Elastic Constant Matrix: (Units=GPa)
#
#
# Indices 1 2 3 4 5 6 
#
# 1 95.4277 39.6840 16.7626 0.3261 -0.0005 0.0000
# 2 39.6840 95.4277 16.7626 -0.3261 0.0005 0.0000
# 3 16.7626 16.7626 100.1953 0.0000 0.0000 0.0000
# 4 0.3261 -0.3261 0.0000 21.1152 0.0000 0.0005
# 5 -0.0005 0.0005 0.0000 0.0000 21.1152 0.3261
# 6 0.0000 0.0000 0.0000 0.0005 0.3261 27.8719
#
#
#
# Elastic Compliance Matrix: (Units=1/GPa)
#
#
# Indices 1 2 3 4 5 6 
#
# 1 0.012832 -0.005110 -0.001292 -0.000277 0.000000 0.000000
# 2 -0.005110 0.012832 -0.001292 0.000277 0.000000 0.000000
# 3 -0.001292 -0.001292 0.010413 0.000000 0.000000 0.000000
# 4 -0.000277 0.000277 0.000000 0.047368 0.000000 -0.000001
# 5 0.000000 0.000000 0.000000 0.000000 0.047368 -0.000554
# 6 0.000000 0.000000 0.000000 -0.000001 -0.000554 0.035885
#
#
# Mechanical properties :
#
#
# Convention : Reuss Voigt Hill
#
# Bulk Modulus (GPa) = 48.33487 48.60768 48.47128
# Shear Modulus (GPa) = 26.45753 28.54321 27.50037
#
# Velocity S-wave (km/s) = 3.57098 3.70907 3.64068
# Velocity P-wave (km/s) = 6.34814 6.46302 6.40584
#
# Compressibility (1/GPa) = 0.02068900
#
# Stress axis : x y z
#
# Youngs Moduli (GPa) = 77.92923 77.92923 96.03595
#
# Poissons Ratio (x) = 0.39824 0.12406
# Poissons Ratio (y) = 0.39824 0.12406
# Poissons Ratio (z) = 0.10067 0.10067
#
# Static dielectric constant tensor:
#      x y z
#    x 1.740080 0.000000 0.000000 
#    y 0.000000 1.740080 0.000000 
#    z 0.000000 0.000000 1.876910 
# 
# From -- ./inp_files/4995.got.cif
#   From: 2010.05.17/outbox.cif.g08.bks.cpg/sg155_3_cif.got.tgz:4995.got - 2010.05.20 10:44:35.
