data_PCOD9577284
_publ_section_title
;
Structure prediction by ZEFSAII (Michael W. Deem and Ramdas Pophale) SiO2 
 PCOD9577284
Probable space group: P 3 C 1
;
_chemical_formula_sum "Si O2"
_cell_formula_units_Z 30
_cell_length_a 16.367059
_cell_length_b 16.367059
_cell_length_c 5.529024
_cell_angle_alpha 90.000000
_cell_angle_beta 90.000000
_cell_angle_gamma 120.000000
_cell_volume 1282.686142
_symmetry_space_group_name_H-M "P 3 C 1"
_symmetry_group_IT_number 158
_symmetry_cell_setting 'hexagonal'
loop_
_space_group_symop_operation_xyz
x,y,z
-y,x-y,z
-x+y,-x,z
-x+y,y,1/2+z
x,x-y,1/2+z
-y,-x,1/2+z
loop_
_atom_site_type_symbol
_atom_site_label
_atom_site_fract_x
_atom_site_fract_y
_atom_site_fract_z
Si Si1 1.000000 0.549849 0.957740
Si Si2 0.795272 0.529198 0.907286
Si Si3 0.256041 0.155874 0.895305
Si Si4 0.204727 0.733927 0.008193
Si Si5 0.743960 0.844126 0.520176
O O1 1.000000 0.500000 0.707740
O O2 0.898892 0.544616 0.948560
O O3 0.101107 0.645723 0.966919
O O4 0.752107 0.484588 0.646512
O O5 0.814063 0.636631 0.880367
O O6 0.212989 0.121184 0.631203
O O7 0.246361 0.246360 0.957744
O O8 0.247893 0.732482 0.268967
O O9 0.185936 0.822569 0.035112
O O10 0.787012 0.878818 0.784277
#
# Coordination Sequence:
#
# PCOD9577284 Si02
#       5
#     6   6   6   6   6
#     4  12  24  40  66  98 130 168 222 276 324 398
#     4  10  21  38  60  87 123 156 196 257 324 373
#     4  10  19  32  53  78 108 142 184 235 283 346
#     4  10  21  38  60  87 123 156 196 257 324 373
#     4  10  19  32  53  78 108 142 184 235 283 346
#
# _framework density 23.388418000000001
#
# number of rings (size 3 to 8) (size 9 to 14) (size 15 to 20)
#    0.000    1.600    2.000    3.600    0.000    0.000 
#    0.000    0.000    0.000   24.000    0.000    0.000 
#    0.000    0.000    0.000    0.000    0.000    0.000 
#
# Total GULP energy -167166.778442 kJ/mol
# GULP energy per Si atom -5572.225948 kJ/mol
# Density = 2.333518 g / cm^3
# Si number density = 23.388418 Si / 1000 Ang^3
#
#
#
# Elastic Constant Matrix: (Units=GPa)
#
#
# Indices 1 2 3 4 5 6 
#
# 1 54.2519 12.3862 39.8895 -0.4366 0.0000 0.0000
# 2 12.3862 54.2519 39.8895 0.4366 0.0000 0.0000
# 3 39.8895 39.8895 275.1251 0.0000 0.0000 0.0000
# 4 -0.4366 0.4366 0.0000 24.2469 0.0000 0.0000
# 5 0.0000 0.0000 0.0000 0.0000 24.2469 -0.4366
# 6 0.0000 0.0000 0.0000 0.0000 -0.4366 20.9328
#
#
#
# Elastic Compliance Matrix: (Units=1/GPa)
#
#
# Indices 1 2 3 4 5 6 
#
# 1 0.021027 -0.002868 -0.002633 0.000430 0.000000 0.000000
# 2 -0.002868 0.021027 -0.002633 -0.000430 0.000000 0.000000
# 3 -0.002633 -0.002633 0.004398 0.000000 0.000000 0.000000
# 4 0.000430 -0.000430 0.000000 0.041258 0.000000 0.000000
# 5 0.000000 0.000000 0.000000 0.000000 0.041258 0.000861
# 6 0.000000 0.000000 0.000000 0.000000 0.000861 0.047790
#
#
# Mechanical properties :
#
#
# Convention : Reuss Voigt Hill
#
# Bulk Modulus (GPa) = 33.13026 63.10658 48.11842
# Shear Modulus (GPa) = 24.62016 33.31624 28.96820
#
# Velocity S-wave (km/s) = 3.24800 3.77832 3.52315
# Velocity P-wave (km/s) = 5.31620 6.78784 6.09659
#
# Compressibility (1/GPa) = 0.03018388
#
# Stress axis : x y z
#
# Youngs Moduli (GPa) = 47.55878 47.55878 227.36954
#
# Poissons Ratio (x) = 0.13641 0.59860
# Poissons Ratio (y) = 0.13641 0.59860
# Poissons Ratio (z) = 0.12521 0.12521
#
# Static dielectric constant tensor:
#      x y z
#    x 1.890840 0.000000 0.000000 
#    y 0.000000 1.890840 0.000000 
#    z 0.000000 0.000000 1.962790 
# 
# From -- ./inp_files/15.got.cif
#   From: 2010.05.17/outbox.cif.g08.bks.cpg/sg158_cif.got.tgz:15.got - 2010.05.20 10:49:59.
