data_PCOD9577698
_publ_section_title
;
Structure prediction by ZEFSAII (Michael W. Deem and Ramdas Pophale) SiO2 
 PCOD9577698
Probable space group: P -3 1 M 
;
_chemical_formula_sum "Si O2"
_cell_formula_units_Z 72
_cell_length_a 24.500186
_cell_length_b 24.500186
_cell_length_c 8.647208
_cell_angle_alpha 90.000000
_cell_angle_beta 90.000000
_cell_angle_gamma 120.000000
_cell_volume 4495.161508
_symmetry_space_group_name_H-M "P -3 1 M "
_symmetry_group_IT_number 162
_symmetry_cell_setting 'hexagonal'
loop_
_space_group_symop_operation_xyz
x,y,z
-y,x-y,z
-x+y,-x,z
-y,-x,-z
-x+y,y,-z
x,x-y,-z
-x,-y,-z
y,-x+y,-z
x-y,x,-z
y,x,z
x-y,-y,z
-x,-x+y,z
loop_
_atom_site_type_symbol
_atom_site_label
_atom_site_fract_x
_atom_site_fract_y
_atom_site_fract_z
Si Si1 0.072974 0.477757 0.563621
Si Si2 0.403077 0.260515 0.436036
Si Si3 0.072626 0.262546 0.435533
Si Si4 0.072974 0.477757 0.936378
Si Si5 0.927374 0.189921 0.064468
Si Si6 0.596923 0.857439 0.063963
O O1 0.093245 0.546623 0.500000
O O2 0.115658 0.448208 0.514367
O O3 0.073837 0.480098 0.750000
O O4 0.000000 0.432327 0.515086
O O5 0.423024 0.211512 0.500000
O O6 0.332326 0.235337 0.497207
O O7 0.401236 0.257735 0.249999
O O8 0.120813 0.241625 0.500000
O O9 0.077789 0.267015 0.250001
O O10 0.000000 0.216850 0.477937
O O11 0.115659 0.448210 0.985633
O O12 0.000000 0.432326 0.984912
O O13 0.093244 0.546622 0.000000
O O14 0.000000 0.216850 0.022064
O O15 0.879186 0.120815 0.000000
O O16 0.903012 0.235340 0.997210
O O17 0.576977 0.788489 0.000000
#
# Coordination Sequence:
#
# PCOD9577698 Si02
#       6
#    12  12  12  12  12  12
#     4   9  18  31  47  68  93 121 152 187 228 272
#     4  10  19  31  48  70  96 125 155 189 231 276
#     4  10  20  32  48  71  96 124 157 191 230 275
#     4   9  18  31  47  68  93 121 152 187 228 272
#     4  10  20  32  48  71  96 124 157 191 230 275
#     4  10  19  31  48  70  96 125 155 189 231 276
#
# _framework density 16.017220999999999
#
# number of rings (size 3 to 8) (size 9 to 14) (size 15 to 20)
#    0.000    2.333    0.000    5.000    0.000    6.667 
#    0.000    3.333    0.000    1.000    0.000    0.000 
#    0.000    0.000    0.000    0.000    0.000    0.000 
#
# Total GULP energy -401634.097828 kJ/mol
# GULP energy per Si atom -5578.251359 kJ/mol
# Density = 1.598077 g / cm^3
# Si number density = 16.017221 Si / 1000 Ang^3
#
#
#
# Elastic Constant Matrix: (Units=GPa)
#
#
# Indices 1 2 3 4 5 6 
#
# 1 146.2322 97.7895 38.7522 0.0001 0.0001 0.0000
# 2 97.7895 146.2322 38.7522 -0.0001 -0.0001 0.0000
# 3 38.7522 38.7522 40.3094 0.0000 0.0000 0.0000
# 4 0.0001 -0.0001 0.0000 24.9192 0.0000 -0.0001
# 5 0.0001 -0.0001 0.0000 0.0000 24.9192 0.0001
# 6 0.0000 0.0000 0.0000 -0.0001 0.0001 24.2213
#
#
#
# Elastic Compliance Matrix: (Units=1/GPa)
#
#
# Indices 1 2 3 4 5 6 
#
# 1 0.013271 -0.007372 -0.005671 0.000000 0.000000 0.000000
# 2 -0.007372 0.013271 -0.005671 0.000000 0.000000 0.000000
# 3 -0.005671 -0.005671 0.035713 0.000000 0.000000 0.000000
# 4 0.000000 0.000000 0.000000 0.040130 0.000000 0.000000
# 5 0.000000 0.000000 0.000000 0.000000 0.040130 0.000000
# 6 0.000000 0.000000 0.000000 0.000000 0.000000 0.041286
#
#
# Mechanical properties :
#
#
# Convention : Reuss Voigt Hill
#
# Bulk Modulus (GPa) = 40.28082 75.92906 58.10494
# Shear Modulus (GPa) = 21.78603 25.31060 23.54831
#
# Velocity S-wave (km/s) = 3.69204 3.97950 3.83846
# Velocity P-wave (km/s) = 6.58619 8.28389 7.48334
#
# Compressibility (1/GPa) = 0.02482571
#
# Stress axis : x y z
#
# Youngs Moduli (GPa) = 75.35149 75.35149 28.00121
#
# Poissons Ratio (x) = 0.55548 0.15881
# Poissons Ratio (y) = 0.55548 0.15881
# Poissons Ratio (z) = 0.42735 0.42735
#
# Static dielectric constant tensor:
#      x y z
#    x 1.524280 0.000000 0.000000 
#    y 0.000000 1.524280 0.000000 
#    z 0.000000 0.000000 1.543540 
# 
# From -- ./inp_files/1735.got.cif
#   From: 2010.05.17/outbox.cif.g08.bks.cpg/sg162_1_cif.got.tgz:1735.got - 2010.05.20 10:53:12.
