data_PCOD9577200
_publ_section_title
;
Structure prediction by ZEFSAII (Michael W. Deem and Ramdas Pophale) SiO2 
 PCOD9577200
Probable space group: P 3 M 1
;
_chemical_formula_sum "Si O2"
_cell_formula_units_Z 48
_cell_length_a 17.067607
_cell_length_b 17.067607
_cell_length_c 10.925836
_cell_angle_alpha 90.000000
_cell_angle_beta 90.000000
_cell_angle_gamma 120.000000
_cell_volume 2756.325973
_symmetry_space_group_name_H-M "P 3 M 1"
_symmetry_group_IT_number 156
_symmetry_cell_setting 'hexagonal'
loop_
_space_group_symop_operation_xyz
x,y,z
-y,x-y,z
-x+y,-x,z
-x+y,y,z
x,x-y,z
-y,-x,z
loop_
_atom_site_type_symbol
_atom_site_label
_atom_site_fract_x
_atom_site_fract_y
_atom_site_fract_z
Si Si1 0.481986 0.330840 0.634990
Si Si2 0.183033 0.000764 0.918825
Si Si3 0.592594 0.588458 0.237525
Si Si4 0.816638 0.816214 0.634640
Si Si5 0.592952 0.005595 0.831735
Si Si6 0.918665 0.259510 0.432206
Si Si7 0.625662 0.721467 0.021800
Si Si8 0.665246 0.156091 0.043843
O O1 0.483062 0.241531 0.681078
O O2 0.581855 0.418146 0.638877
O O3 0.416500 0.353782 0.714236
O O4 0.437462 0.307404 0.501714
O O5 0.078272 0.921729 0.922449
O O6 0.236887 0.971051 0.010101
O O7 0.194503 0.097252 0.948064
O O8 0.212878 0.002686 0.776897
O O9 0.493405 0.506596 0.276945
O O10 0.664590 0.651552 0.338940
O O11 0.641860 0.540233 0.170163
O O12 0.584224 0.650170 0.131942
O O13 0.922585 0.845170 0.629603
O O14 0.767861 0.737387 0.534398
O O15 0.803685 0.901843 0.610748
O O16 0.490451 0.980901 0.813259
O O17 0.593511 0.920254 0.889736
O O18 0.635682 0.080997 0.938949
O O19 0.836261 0.163740 0.381332
O O20 0.608035 0.804018 0.036699
O O21 0.597971 0.195941 0.031144
O O22 0.767560 0.232441 0.033474
#
# Coordination Sequence:
#
# PCOD9577200 Si02
#       8
#     6   6   6   6   6   6   6   6
#     4  10  19  31  48  72 104 140 175 207 238 277
#     4   9  17  29  47  73 104 135 163 192 230 278
#     4  10  21  36  50  65  90 125 163 205 253 297
#     4   9  17  30  49  74 104 136 168 201 239 286
#     4   9  18  31  47  69  97 124 149 188 244 298
#     4  10  20  32  48  71  99 134 175 213 245 281
#     4  10  20  33  51  72  92 119 157 202 251 301
#     4   9  16  26  42  64  90 121 156 192 230 276
#
# _framework density 17.414484999999999
#
# number of rings (size 3 to 8) (size 9 to 14) (size 15 to 20)
#    0.000    2.500    0.000    3.500    0.000    5.500 
#    0.000    1.250    0.000    6.000    0.000    4.375 
#    0.000    0.000    0.000    2.750    0.000    0.000 
#
# Total GULP energy -267334.017094 kJ/mol
# GULP energy per Si atom -5569.458689 kJ/mol
# Density = 1.737485 g / cm^3
# Si number density = 17.414485 Si / 1000 Ang^3
#
#
#
# Elastic Constant Matrix: (Units=GPa)
#
#
# Indices 1 2 3 4 5 6 
#
# 1 56.9865 28.0446 6.9827 4.7334 0.0001 0.0000
# 2 28.0446 56.9865 6.9827 -4.7334 -0.0001 0.0000
# 3 6.9827 6.9827 22.2252 0.0000 0.0000 0.0000
# 4 4.7334 -4.7334 0.0000 19.6286 0.0000 -0.0001
# 5 0.0001 -0.0001 0.0000 0.0000 19.6286 4.7334
# 6 0.0000 0.0000 0.0000 -0.0001 4.7334 14.4709
#
#
#
# Elastic Compliance Matrix: (Units=1/GPa)
#
#
# Indices 1 2 3 4 5 6 
#
# 1 0.024956 -0.012555 -0.003896 -0.009046 0.000000 0.000000
# 2 -0.012555 0.024956 -0.003896 0.009046 0.000000 0.000000
# 3 -0.003896 -0.003896 0.047442 0.000000 0.000000 0.000000
# 4 -0.009046 0.009046 0.000000 0.055309 0.000000 0.000000
# 5 0.000000 0.000000 0.000000 0.000000 0.055309 -0.018091
# 6 0.000000 0.000000 0.000000 0.000000 -0.018091 0.075022
#
#
# Mechanical properties :
#
#
# Convention : Reuss Voigt Hill
#
# Bulk Modulus (GPa) = 17.64945 24.46868 21.05906
# Shear Modulus (GPa) = 14.59544 17.02485 15.81014
#
# Velocity S-wave (km/s) = 2.89817 3.13009 3.01636
# Velocity P-wave (km/s) = 4.62127 5.21005 4.92446
#
# Compressibility (1/GPa) = 0.05665898
#
# Stress axis : x y z
#
# Youngs Moduli (GPa) = 40.07125 40.07125 21.07836
#
# Poissons Ratio (x) = 0.50311 0.08212
# Poissons Ratio (y) = 0.50311 0.08212
# Poissons Ratio (z) = 0.15611 0.15611
#
# Static dielectric constant tensor:
#      x y z
#    x 1.603370 0.000000 0.000000 
#    y 0.000000 1.603370 0.000000 
#    z 0.000000 0.000000 1.621820 
# 
# From -- ./inp_files/752.got.cif
#   From: 2010.05.17/outbox.cif.g08.bks.cpg/sg156_cif.got.tgz:752.got - 2010.05.20 10:49:08.
