data_PCOD9577448
_publ_section_title
;
Structure prediction by ZEFSAII (Michael W. Deem and Ramdas Pophale) SiO2 
 PCOD9577448
Probable space group: P 3 1 C
;
_chemical_formula_sum "Si O2"
_cell_formula_units_Z 34
_cell_length_a 10.689742
_cell_length_b 10.689742
_cell_length_c 14.678974
_cell_angle_alpha 90.000000
_cell_angle_beta 90.000000
_cell_angle_gamma 120.000000
_cell_volume 1452.649303
_symmetry_space_group_name_H-M "P 3 1 C"
_symmetry_group_IT_number 159
_symmetry_cell_setting 'hexagonal'
loop_
_space_group_symop_operation_xyz
x,y,z
-y,x-y,z
-x+y,-x,z
y,x,1/2+z
x-y,-y,1/2+z
-x,-x+y,1/2+z
loop_
_atom_site_type_symbol
_atom_site_label
_atom_site_fract_x
_atom_site_fract_y
_atom_site_fract_z
Si Si1 0.541278 0.611226 0.662090
Si Si2 0.325679 0.159491 0.714645
Si Si3 0.333333 0.666667 0.965979
Si Si4 0.635561 0.907952 0.599888
Si Si5 0.659502 0.836665 0.406801
Si Si6 0.666668 0.333335 0.686217
Si Si7 0.502415 0.519482 0.874889
O O1 0.713219 0.677842 0.652609
O O2 0.528768 0.749828 0.639508
O O3 0.445431 0.476332 0.596651
O O4 0.509670 0.562670 0.767767
O O5 0.256754 0.243865 0.668604
O O6 0.254775 0.106369 0.813806
O O7 0.502040 0.262527 0.721440
O O8 0.423973 0.593953 0.926940
O O9 0.333334 0.666667 0.076148
O O10 0.708127 0.894839 0.507983
O O11 0.568585 0.662771 0.412263
O O12 0.581784 0.928967 0.382732
#
# Coordination Sequence:
#
# PCOD9577448 Si02
#       7
#     6   6   2   6   6   2   6
#     4  11  24  41  70  99 145 187 242 308 371 438
#     4  11  23  44  64 100 140 188 236 298 372 444
#     4  12  27  39  75 115 158 187 264 324 390 442
#     4  12  23  43  68 104 140 185 248 303 372 440
#     4  11  23  41  70 103 144 190 244 305 379 449
#     4  12  21  39  69  94 137 184 234 300 357 448
#     4  11  23  45  70 111 150 201 250 322 377 459
#
# _framework density 23.405514
#
# number of rings (size 3 to 8) (size 9 to 14) (size 15 to 20)
#    0.000    0.706    3.529    4.941    2.471    0.000 
#    1.059    0.000    0.000    0.706    0.000    0.000 
#    0.000    0.000    0.000    0.000    0.000    0.000 
#
# Total GULP energy -189790.316969 kJ/mol
# GULP energy per Si atom -5582.068146 kJ/mol
# Density = 2.335224 g / cm^3
# Si number density = 23.405514 Si / 1000 Ang^3
#
#
#
# Elastic Constant Matrix: (Units=GPa)
#
#
# Indices 1 2 3 4 5 6 
#
# 1 72.3525 -0.7140 12.4825 0.0000 -0.6002 0.0000
# 2 -0.7140 72.3525 12.4825 0.0000 0.6003 0.0000
# 3 12.4825 12.4825 108.4361 0.0000 0.0000 0.0001
# 4 0.0000 0.0000 0.0000 33.3026 0.0000 0.6003
# 5 -0.6002 0.6003 0.0000 0.0000 33.3026 0.0000
# 6 0.0000 0.0000 0.0001 0.6003 0.0000 36.5332
#
#
#
# Elastic Compliance Matrix: (Units=1/GPa)
#
#
# Indices 1 2 3 4 5 6 
#
# 1 0.014116 0.000426 -0.001674 0.000000 0.000247 0.000000
# 2 0.000426 0.014116 -0.001674 0.000000 -0.000247 0.000000
# 3 -0.001674 -0.001674 0.009607 0.000000 0.000000 0.000000
# 4 0.000000 0.000000 0.000000 0.030037 0.000000 -0.000494
# 5 0.000247 -0.000247 0.000000 0.000000 0.030037 0.000000
# 6 0.000000 0.000000 0.000000 -0.000494 0.000000 0.027380
#
#
# Mechanical properties :
#
#
# Convention : Reuss Voigt Hill
#
# Bulk Modulus (GPa) = 31.25388 33.51590 32.38489
# Shear Modulus (GPa) = 35.26020 35.88702 35.57361
#
# Velocity S-wave (km/s) = 3.88556 3.91995 3.90280
# Velocity P-wave (km/s) = 5.78899 5.90244 5.84599
#
# Compressibility (1/GPa) = 0.03199603
#
# Stress axis : x y z
#
# Youngs Moduli (GPa) = 70.84020 70.84018 104.08618
#
# Poissons Ratio (x) = -0.03018 0.17424
# Poissons Ratio (y) = -0.03018 0.17424
# Poissons Ratio (z) = 0.11859 0.11859
#
# Static dielectric constant tensor:
#      x y z
#    x 1.925920 0.000000 0.000000 
#    y 0.000000 1.925920 0.000000 
#    z 0.000000 0.000000 1.953160 
# 
# From -- ./inp_files/903.got.cif
#   From: 2010.05.17/outbox.cif.g08.bks.cpg/sg159_cif.got.tgz:903.got - 2010.05.20 10:50:30.
