data_PCOD9577351
_publ_section_title
;
Structure prediction by ZEFSAII (Michael W. Deem and Ramdas Pophale) SiO2 
 PCOD9577351
Probable space group: P 3 1 C
;
_chemical_formula_sum "Si O2"
_cell_formula_units_Z 42
_cell_length_a 16.790189
_cell_length_b 16.790189
_cell_length_c 9.619352
_cell_angle_alpha 90.000000
_cell_angle_beta 90.000000
_cell_angle_gamma 120.000000
_cell_volume 2348.484069
_symmetry_space_group_name_H-M "P 3 1 C"
_symmetry_group_IT_number 159
_symmetry_cell_setting 'hexagonal'
loop_
_space_group_symop_operation_xyz
x,y,z
-y,x-y,z
-x+y,-x,z
y,x,1/2+z
x-y,-y,1/2+z
-x,-x+y,1/2+z
loop_
_atom_site_type_symbol
_atom_site_label
_atom_site_fract_x
_atom_site_fract_y
_atom_site_fract_z
Si Si1 0.857678 0.075189 0.941760
Si Si2 0.415004 0.888975 0.937814
Si Si3 0.456400 0.256537 0.438137
Si Si4 0.861266 0.192784 0.198149
Si Si5 0.861010 0.191426 0.687961
Si Si6 0.397390 0.001280 0.185757
Si Si7 0.133302 0.934729 0.944371
O O1 0.832449 0.121028 0.814828
O O2 0.966436 0.109525 0.933055
O O3 0.811041 0.966246 0.936127
O O4 0.841339 0.116211 0.083377
O O5 0.311083 0.801946 0.939419
O O6 0.482862 0.848414 0.942254
O O7 0.424351 0.950678 0.803958
O O8 0.426633 0.954932 0.066642
O O9 0.400569 0.225601 0.292207
O O10 0.392674 0.218329 0.576589
O O11 0.927038 0.191714 0.319628
O O12 0.916718 0.295586 0.135191
O O13 0.917107 0.297815 0.735210
O O14 0.930288 0.176152 0.590206
#
# Coordination Sequence:
#
# PCOD9577351 Si02
#       7
#     6   6   6   6   6   6   6
#     4  12  20  34  54  79 117 165 201 242 268 326
#     4  10  20  38  64  88 115 141 195 235 302 351
#     4   9  21  39  59  87 112 147 179 251 302 355
#     4  10  20  36  55  79 118 153 197 235 288 336
#     4  10  20  36  55  79 118 153 197 235 288 336
#     4  10  18  36  64  84 104 158 196 238 270 356
#     4  11  21  33  51  80 116 159 205 242 266 318
#
# _framework density 17.883877999999999
#
# number of rings (size 3 to 8) (size 9 to 14) (size 15 to 20)
#    0.000    1.714    2.857    3.143    0.000    0.000 
#   10.286    2.857    0.000    0.000    0.000    4.000 
#    0.000    0.000    0.000    0.000    0.000    0.000 
#
# Total GULP energy -234161.182905 kJ/mol
# GULP energy per Si atom -5575.266260 kJ/mol
# Density = 1.784317 g / cm^3
# Si number density = 17.883878 Si / 1000 Ang^3
#
#
#
# Elastic Constant Matrix: (Units=GPa)
#
#
# Indices 1 2 3 4 5 6 
#
# 1 96.8958 40.2003 35.7453 0.0000 -9.5587 0.0000
# 2 40.2003 96.8958 35.7453 0.0000 9.5587 0.0000
# 3 35.7453 35.7453 78.8128 0.0000 0.0000 0.0000
# 4 0.0000 0.0000 0.0000 -12.5100 0.0000 9.5587
# 5 -9.5587 9.5587 0.0000 0.0000 -12.5100 0.0000
# 6 0.0000 0.0000 0.0000 9.5587 0.0000 28.3478
#
#
#
# Elastic Compliance Matrix: (Units=1/GPa)
#
#
# Indices 1 2 3 4 5 6 
#
# 1 0.011789 -0.002235 -0.004333 0.000000 -0.010716 0.000000
# 2 -0.002235 0.011789 -0.004333 0.000000 0.010716 0.000000
# 3 -0.004333 -0.004333 0.016619 0.000000 0.000000 0.000000
# 4 0.000000 0.000000 0.000000 -0.063560 0.000000 0.021432
# 5 -0.010716 0.010716 0.000000 0.000000 -0.063560 0.000000
# 6 0.000000 0.000000 0.000000 0.021432 0.000000 0.028049
#
#
# Mechanical properties :
#
#
# Convention : Reuss Voigt Hill
#
# Bulk Modulus (GPa) = 54.36568 55.10958 54.73763
# Shear Modulus (GPa) = -161.60685 11.39313 -75.10686
#
# Velocity S-wave (km/s) = -9.51634 2.52675 -6.48754
# Velocity P-wave (km/s) = 9.50170 6.27652 5.04419
#
# Compressibility (1/GPa) = 0.01839396
#
# Stress axis : x y z
#
# Youngs Moduli (GPa) = 84.82361 84.82361 60.17290
#
# Poissons Ratio (x) = 0.18962 0.26073
# Poissons Ratio (y) = 0.18962 0.26073
# Poissons Ratio (z) = 0.36754 0.36754
#
# Static dielectric constant tensor:
#      x y z
#    x 1.612550 0.000000 0.000000 
#    y 0.000000 1.612550 0.000000 
#    z 0.000000 0.000000 1.617590 
# 
# From -- ./inp_files/454.got.cif
#   From: 2010.05.17/outbox.cif.g08.bks.cpg/sg159_cif.got.tgz:454.got - 2010.05.20 10:50:30.
