data_PCOD9577847
_publ_section_title
;
Structure prediction by ZEFSAII (Michael W. Deem and Ramdas Pophale) SiO2 
 PCOD9577847
Probable space group: P -3 1 M 
;
_chemical_formula_sum "Si O2"
_cell_formula_units_Z 60
_cell_length_a 14.818496
_cell_length_b 14.818496
_cell_length_c 14.319501
_cell_angle_alpha 90.000000
_cell_angle_beta 90.000000
_cell_angle_gamma 120.000000
_cell_volume 2723.119940
_symmetry_space_group_name_H-M "P -3 1 M "
_symmetry_group_IT_number 162
_symmetry_cell_setting 'hexagonal'
loop_
_space_group_symop_operation_xyz
x,y,z
-y,x-y,z
-x+y,-x,z
-y,-x,-z
-x+y,y,-z
x,x-y,-z
-x,-y,-z
y,-x+y,-z
x-y,x,-z
y,x,z
x-y,-y,z
-x,-x+y,z
loop_
_atom_site_type_symbol
_atom_site_label
_atom_site_fract_x
_atom_site_fract_y
_atom_site_fract_z
Si Si1 0.755167 0.220079 0.300793
Si Si2 0.534774 0.418685 0.607421
Si Si3 0.419371 0.301807 0.038250
Si Si4 0.532102 0.410257 0.845861
Si Si5 0.123869 0.876481 0.609407
O O1 0.793972 0.300743 0.386274
O O2 0.632449 0.145539 0.322522
O O3 0.807025 0.311541 0.220654
O O4 0.814980 0.156121 0.316838
O O5 0.555271 0.444730 0.500000
O O6 0.440555 0.440555 0.630364
O O7 0.334527 0.334527 0.060025
O O8 0.502314 0.349225 0.124161
O O9 0.371634 0.185817 0.000000
O O10 0.483250 0.361183 0.946147
O O11 0.472781 0.472781 0.819523
O O12 0.142152 0.857849 0.500000
O O13 0.000000 0.810416 0.625688
O O14 0.167923 0.000000 0.616801
#
# Coordination Sequence:
#
# PCOD9577847 Si02
#       5
#    12  12  12  12  12
#     4  12  23  38  60  84 120 163 210 264 318 372
#     4  11  24  40  57  82 120 166 215 261 312 383
#     4   9  19  39  64  90 127 165 203 252 317 393
#     4   9  20  38  59  88 124 161 205 260 317 383
#     4  10  20  36  60  89 122 166 220 274 325 377
#
# _framework density 22.033550999999999
#
# number of rings (size 3 to 8) (size 9 to 14) (size 15 to 20)
#    0.000    1.800    0.000    6.000    2.800    4.000 
#    4.800    1.000    0.000    0.200    0.000    0.000 
#    0.000    0.000    0.000    0.000    0.000    0.000 
#
# Total GULP energy -334101.877884 kJ/mol
# GULP energy per Si atom -5568.364631 kJ/mol
# Density = 2.198340 g / cm^3
# Si number density = 22.033551 Si / 1000 Ang^3
#
#
#
# Elastic Constant Matrix: (Units=GPa)
#
#
# Indices 1 2 3 4 5 6 
#
# 1 108.4043 47.5210 7.2621 0.0003 -2.5734 0.0000
# 2 47.5210 108.4043 7.2621 -0.0003 2.5734 0.0000
# 3 7.2621 7.2621 79.5892 0.0000 0.0000 0.0000
# 4 0.0003 -0.0003 0.0000 4.4351 0.0000 2.5734
# 5 -2.5734 2.5734 0.0000 0.0000 4.4351 0.0003
# 6 0.0000 0.0000 0.0000 2.5734 0.0003 30.4417
#
#
#
# Elastic Compliance Matrix: (Units=1/GPa)
#
#
# Indices 1 2 3 4 5 6 
#
# 1 0.011870 -0.005402 -0.000590 -0.000001 0.010022 0.000000
# 2 -0.005402 0.011870 -0.000590 0.000001 -0.010022 0.000000
# 3 -0.000590 -0.000590 0.012672 0.000000 0.000000 0.000000
# 4 -0.000001 0.000001 0.000000 0.237107 0.000000 -0.020044
# 5 0.010022 -0.010022 0.000000 0.000000 0.237107 -0.000002
# 6 0.000000 0.000000 0.000000 -0.020044 -0.000002 0.034544
#
#
# Mechanical properties :
#
#
# Convention : Reuss Voigt Hill
#
# Bulk Modulus (GPa) = 43.01437 46.72089 44.86763
# Shear Modulus (GPa) = 8.83261 23.48586 16.15923
#
# Velocity S-wave (km/s) = 2.00435 3.26837 2.71106
# Velocity P-wave (km/s) = 4.99211 5.95764 5.49612
#
# Compressibility (1/GPa) = 0.02324804
#
# Stress axis : x y z
#
# Youngs Moduli (GPa) = 84.24463 84.24463 78.91273
#
# Poissons Ratio (x) = 0.45508 0.04657
# Poissons Ratio (y) = 0.45508 0.04657
# Poissons Ratio (z) = 0.04972 0.04972
#
# Static dielectric constant tensor:
#      x y z
#    x 1.821900 0.000000 0.000000 
#    y 0.000000 1.821900 0.000000 
#    z 0.000000 0.000000 1.946510 
# 
# From -- ./inp_files/2940.got.cif
#   From: 2010.05.17/outbox.cif.g08.bks.cpg/sg162_2_cif.got.tgz:2940.got - 2010.05.20 10:53:12.
