data_PCOD9577431
_publ_section_title
;
Structure prediction by ZEFSAII (Michael W. Deem and Ramdas Pophale) SiO2 
 PCOD9577431
Probable space group: P 3 1 C
;
_chemical_formula_sum "Si O2"
_cell_formula_units_Z 22
_cell_length_a 10.713948
_cell_length_b 10.713948
_cell_length_c 9.912934
_cell_angle_alpha 90.000000
_cell_angle_beta 90.000000
_cell_angle_gamma 120.000000
_cell_volume 985.443921
_symmetry_space_group_name_H-M "P 3 1 C"
_symmetry_group_IT_number 159
_symmetry_cell_setting 'hexagonal'
loop_
_space_group_symop_operation_xyz
x,y,z
-y,x-y,z
-x+y,-x,z
y,x,1/2+z
x-y,-y,1/2+z
-x,-x+y,1/2+z
loop_
_atom_site_type_symbol
_atom_site_label
_atom_site_fract_x
_atom_site_fract_y
_atom_site_fract_z
Si Si1 0.666668 0.333334 0.181756
Si Si2 0.376006 0.456411 0.189159
Si Si3 0.333332 0.666666 0.004629
Si Si4 0.642655 0.712793 0.322437
Si Si5 0.649409 0.804889 0.613456
O O1 0.666668 0.333334 0.343805
O O2 0.687095 0.480950 0.125909
O O3 0.385730 0.560928 0.066698
O O4 0.510168 0.551083 0.290151
O O5 0.231929 0.418331 0.270252
O O6 0.352080 0.305005 0.133344
O O7 0.693534 0.764327 0.473544
O O8 0.775247 0.729477 0.234234
#
# Coordination Sequence:
#
# PCOD9577431 Si02
#       5
#     2   6   2   6   6
#     4  12  24  37  77 103 141 193 242 304 378 433
#     4  10  24  46  74 102 155 184 246 313 362 441
#     4   9  24  43  71 115 138 187 245 307 372 430
#     4  11  26  45  71 111 142 198 244 303 374 438
#     4  12  26  43  73 107 148 190 249 303 370 440
#
# _framework density 22.324963
#
# number of rings (size 3 to 8) (size 9 to 14) (size 15 to 20)
#    0.000    1.091    2.727    2.182   11.455    0.000 
#    1.636    0.000    0.000    0.000    0.000    0.000 
#    0.000    0.000    0.000    0.000    0.000    0.000 
#
# Total GULP energy -122977.668105 kJ/mol
# GULP energy per Si atom -5589.894005 kJ/mol
# Density = 2.227415 g / cm^3
# Si number density = 22.324963 Si / 1000 Ang^3
#
#
#
# Elastic Constant Matrix: (Units=GPa)
#
#
# Indices 1 2 3 4 5 6 
#
# 1 71.2537 43.6357 40.5056 -0.0007 16.2030 -0.0014
# 2 43.6357 71.2537 40.5049 0.0006 -16.2031 0.0015
# 3 40.5056 40.5049 164.2388 -0.0009 -0.0005 -0.0006
# 4 -0.0007 0.0006 -0.0009 0.7830 -0.0003 -16.2023
# 5 16.2030 -16.2031 -0.0005 -0.0003 0.7833 0.0006
# 6 -0.0014 0.0015 -0.0006 -16.2023 0.0006 13.8107
#
#
#
# Elastic Compliance Matrix: (Units=1/GPa)
#
#
# Indices 1 2 3 4 5 6 
#
# 1 0.004490 0.006046 -0.002598 0.000001 0.032185 0.000000
# 2 0.006046 0.004490 -0.002599 -0.000001 -0.032184 0.000001
# 3 -0.002598 -0.002599 0.007370 -0.000001 0.000000 0.000000
# 4 0.000001 -0.000001 -0.000001 -0.054870 -0.000010 -0.064371
# 5 0.032185 -0.032184 0.000000 -0.000010 -0.054858 -0.000002
# 6 0.000000 0.000001 0.000000 -0.064371 -0.000002 -0.003111
#
#
# Mechanical properties :
#
#
# Convention : Reuss Voigt Hill
#
# Bulk Modulus (GPa) = 55.40492 61.78209 58.59351
# Shear Modulus (GPa) = -54.24769 15.21539 -19.51615
#
# Velocity S-wave (km/s) = -4.93476 2.61347 -2.95987
# Velocity P-wave (km/s) = 2.75641 6.06968 3.82382
#
# Compressibility (1/GPa) = 0.01804894
#
# Stress axis : x y z
#
# Youngs Moduli (GPa) = 222.71234 222.70462 135.67782
#
# Poissons Ratio (x) = -1.34649 0.35254
# Poissons Ratio (y) = -1.34654 0.35258
# Poissons Ratio (z) = 0.57869 0.57873
#
# Static dielectric constant tensor:
#      x y z
#    x 1.835590 0.000000 0.000000 
#    y 0.000000 1.835600 0.000000 
#    z 0.000000 0.000000 1.833530 
# 
# From -- ./inp_files/271.got.cif
#   From: 2010.05.17/outbox.cif.g08.bks.cpg/sg159_cif.got.tgz:271.got - 2010.05.20 10:50:30.
