data_PCOD9577713
_publ_section_title
;
Structure prediction by ZEFSAII (Michael W. Deem and Ramdas Pophale) SiO2 
 PCOD9577713
Probable space group: P -3 1 M 
;
_chemical_formula_sum "Si O2"
_cell_formula_units_Z 48
_cell_length_a 17.317185
_cell_length_b 17.317185
_cell_length_c 9.303050
_cell_angle_alpha 90.000000
_cell_angle_beta 90.000000
_cell_angle_gamma 120.000000
_cell_volume 2416.075937
_symmetry_space_group_name_H-M "P -3 1 M "
_symmetry_group_IT_number 162
_symmetry_cell_setting 'hexagonal'
loop_
_space_group_symop_operation_xyz
x,y,z
-y,x-y,z
-x+y,-x,z
-y,-x,-z
-x+y,y,-z
x,x-y,-z
-x,-y,-z
y,-x+y,-z
x-y,x,-z
y,x,z
x-y,-y,z
-x,-x+y,z
loop_
_atom_site_type_symbol
_atom_site_label
_atom_site_fract_x
_atom_site_fract_y
_atom_site_fract_z
Si Si1 0.102398 0.898645 0.827302
Si Si2 0.558994 0.558994 0.700174
Si Si3 0.384200 0.384200 0.601051
Si Si4 0.151633 0.403170 0.191187
Si Si5 0.843631 0.341354 0.921688
O O1 0.149237 0.839857 0.803355
O O2 0.000000 0.845705 0.772770
O O3 0.157418 0.000000 0.772503
O O4 0.096520 0.903481 0.000000
O O5 0.474043 0.474043 0.636318
O O6 0.621082 0.621082 0.571309
O O7 0.605852 0.521232 0.801737
O O8 0.307798 0.397263 0.677324
O O9 0.253095 0.483024 0.163295
O O10 0.112622 0.419722 0.043185
O O11 0.817191 0.408596 0.000000
#
# Coordination Sequence:
#
# PCOD9577713 Si02
#       5
#    12   6   6  12  12
#     4  10  19  31  53  90 130 167 206 267 325 372
#     4  11  24  39  68  87 137 165 221 264 332 408
#     4  11  23  44  63  98 123 181 208 271 332 403
#     4  11  22  38  67  95 133 161 224 270 331 392
#     4  11  22  39  62  97 122 168 212 282 322 390
#
# _framework density 19.866925999999999
#
# number of rings (size 3 to 8) (size 9 to 14) (size 15 to 20)
#    0.000    1.250    6.250    1.375    1.750    2.000 
#    6.000    0.000    0.000    0.000    0.000    0.000 
#    0.000    2.000    0.000    0.000    0.000    0.000 
#
# Total GULP energy -267336.631765 kJ/mol
# GULP energy per Si atom -5569.513162 kJ/mol
# Density = 1.982171 g / cm^3
# Si number density = 19.866926 Si / 1000 Ang^3
#
#
#
# Elastic Constant Matrix: (Units=GPa)
#
#
# Indices 1 2 3 4 5 6 
#
# 1 120.6712 67.8192 42.3184 -0.0005 -2.9459 0.0000
# 2 67.8192 120.6712 42.3184 0.0005 2.9459 0.0000
# 3 42.3184 42.3184 56.0095 0.0000 0.0000 0.0000
# 4 -0.0005 0.0005 0.0000 28.7659 0.0000 2.9459
# 5 -2.9459 2.9459 0.0000 0.0000 28.7659 -0.0005
# 6 0.0000 0.0000 0.0000 2.9459 -0.0005 26.4260
#
#
#
# Elastic Compliance Matrix: (Units=1/GPa)
#
#
# Indices 1 2 3 4 5 6 
#
# 1 0.013584 -0.005555 -0.006067 0.000000 0.001960 0.000000
# 2 -0.005555 0.013584 -0.006067 0.000000 -0.001960 0.000000
# 3 -0.006067 -0.006067 0.027022 0.000000 0.000000 0.000000
# 4 0.000000 0.000000 0.000000 0.035165 0.000000 -0.003920
# 5 0.001960 -0.001960 0.000000 0.000000 0.035165 0.000001
# 6 0.000000 0.000000 0.000000 -0.003920 0.000001 0.038279
#
#
# Mechanical properties :
#
#
# Convention : Reuss Voigt Hill
#
# Bulk Modulus (GPa) = 53.15285 66.91821 60.03553
# Shear Modulus (GPa) = 24.45632 26.45130 25.45381
#
# Velocity S-wave (km/s) = 3.51238 3.65283 3.58329
# Velocity P-wave (km/s) = 6.57735 7.17964 6.88508
#
# Compressibility (1/GPa) = 0.01881367
#
# Stress axis : x y z
#
# Youngs Moduli (GPa) = 73.61423 73.61423 37.00752
#
# Poissons Ratio (x) = 0.40892 0.22451
# Poissons Ratio (y) = 0.40892 0.22451
# Poissons Ratio (z) = 0.44659 0.44659
#
# Static dielectric constant tensor:
#      x y z
#    x 1.748680 0.000000 0.000000 
#    y 0.000000 1.748680 0.000000 
#    z 0.000000 0.000000 1.722520 
# 
# From -- ./inp_files/1277.got.cif
#   From: 2010.05.17/outbox.cif.g08.bks.cpg/sg162_1_cif.got.tgz:1277.got - 2010.05.20 10:53:12.
