data_PCOD9577557
_publ_section_title
;
Structure prediction by ZEFSAII (Michael W. Deem and Ramdas Pophale) SiO2 
 PCOD9577557
Probable space group: R 3 C
;
_chemical_formula_sum "Si O2"
_cell_formula_units_Z 126
_cell_length_a 16.916057
_cell_length_b 16.916057
_cell_length_c 22.662818
_cell_angle_alpha 90.000000
_cell_angle_beta 90.000000
_cell_angle_gamma 120.000000
_cell_volume 5616.203328
_symmetry_space_group_name_H-M "R 3 C"
_symmetry_group_IT_number 161
_symmetry_cell_setting 'hexagonal'
loop_
_space_group_symop_operation_xyz
x,y,z
-y,x-y,z
-x+y,-x,z
-x+y,y,1/2+z
x,x-y,1/2+z
-y,-x,1/2+z
2/3+x,1/3+y,1/3+z
2/3-y,1/3+x-y,1/3+z
2/3-x+y,1/3-x,1/3+z
2/3-x+y,1/3+y,5/6+z
2/3+x,1/3+x-y,5/6+z
2/3-y,1/3-x,5/6+z
1/3+x,2/3+y,2/3+z
1/3-y,2/3+x-y,2/3+z
1/3-x+y,2/3-x,2/3+z
1/3-x+y,2/3+y,1/6+z
1/3+x,2/3+x-y,1/6+z
1/3-y,2/3-x,1/6+z
loop_
_atom_site_type_symbol
_atom_site_label
_atom_site_fract_x
_atom_site_fract_y
_atom_site_fract_z
Si Si1 0.814685 0.634832 0.148131
Si Si2 0.070539 0.397463 0.061382
Si Si3 0.451857 0.070849 0.161050
Si Si4 0.454889 0.241292 0.534656
Si Si5 0.680705 0.235918 0.300273
Si Si6 0.140776 0.261039 0.065792
Si Si7 0.869815 0.418427 0.563208
O O1 0.898682 0.625637 0.171760
O O2 0.715181 0.552901 0.168006
O O3 0.808079 0.632690 0.077707
O O4 0.820075 0.718933 0.183541
O O5 0.157992 0.489271 0.087937
O O6 0.082139 0.310289 0.050468
O O7 0.994153 0.371242 0.112508
O O8 0.546448 0.094255 0.128949
O O9 0.433667 0.009789 0.218186
O O10 0.430623 0.221035 0.467043
O O11 0.513052 0.349076 0.542516
O O12 0.520090 0.205323 0.559029
O O13 0.756059 0.344864 0.296085
O O14 0.717183 0.209328 0.359492
#
# Coordination Sequence:
#
# PCOD9577557 Si02
#       7
#    18  18  18  18  18  18  18
#     4  10  22  42  66  91 134 172 217 281 332 394
#     4  10  21  41  65  99 128 176 227 275 336 404
#     4   9  21  41  61  95 126 173 217 276 328 400
#     4  11  24  40  64  97 126 179 213 276 332 410
#     4   9  23  43  64  98 135 176 224 284 344 402
#     4  11  23  40  68  95 135 172 225 275 339 409
#     4  10  22  41  62  89 132 162 225 267 335 391
#
# _framework density 22.435085999999998
#
# number of rings (size 3 to 8) (size 9 to 14) (size 15 to 20)
#    0.286    1.714    0.000    2.000    4.000    3.429 
#    7.714    0.000    0.000    0.000    0.000    0.000 
#    0.000    0.000    0.000    0.000    0.000    0.000 
#
# Total GULP energy -234169.083475 kJ/mol
# GULP energy per Si atom -5575.454368 kJ/mol
# Density = 2.238402 g / cm^3
# Si number density = 22.435086 Si / 1000 Ang^3
#
#
#
# Elastic Constant Matrix: (Units=GPa)
#
#
# Indices 1 2 3 4 5 6 
#
# 1 77.9251 0.3779 19.7249 -2.2489 0.0000 0.0000
# 2 0.3779 77.9251 19.7249 2.2489 0.0000 0.0000
# 3 19.7249 19.7249 58.0308 0.0000 0.0000 0.0000
# 4 -2.2489 2.2489 0.0000 13.7850 0.0000 0.0000
# 5 0.0000 0.0000 0.0000 0.0000 13.7850 -2.2489
# 6 0.0000 0.0000 0.0000 0.0000 -2.2489 38.7736
#
#
#
# Elastic Compliance Matrix: (Units=1/GPa)
#
#
# Indices 1 2 3 4 5 6 
#
# 1 0.014214 0.001196 -0.005238 0.002124 0.000000 0.000000
# 2 0.001196 0.014214 -0.005238 -0.002124 0.000000 0.000000
# 3 -0.005238 -0.005238 0.020793 0.000000 0.000000 0.000000
# 4 0.002124 -0.002124 0.000000 0.073236 0.000000 0.000000
# 5 0.000000 0.000000 0.000000 0.000000 0.073236 0.004248
# 6 0.000000 0.000000 0.000000 0.000000 0.004248 0.026037
#
#
# Mechanical properties :
#
#
# Convention : Reuss Voigt Hill
#
# Bulk Modulus (GPa) = 32.61459 32.61516 32.61487
# Shear Modulus (GPa) = 19.95927 24.87227 22.41577
#
# Velocity S-wave (km/s) = 2.98593 3.33323 3.16435
# Velocity P-wave (km/s) = 5.14359 5.42061 5.28392
#
# Compressibility (1/GPa) = 0.03066113
#
# Stress axis : x y z
#
# Youngs Moduli (GPa) = 70.35242 70.35242 48.09326
#
# Poissons Ratio (x) = -0.08411 0.25190
# Poissons Ratio (y) = -0.08411 0.25190
# Poissons Ratio (z) = 0.36849 0.36849
#
# Static dielectric constant tensor:
#      x y z
#    x 1.842530 0.000000 0.000000 
#    y 0.000000 1.842530 0.000000 
#    z 0.000000 0.000000 1.841440 
# 
# From -- ./inp_files/1933.got.cif
#   From: 2010.05.17/outbox.cif.g08.bks.cpg/sg161_cif.got.tgz:1933.got - 2010.05.20 10:52:32.
