data_PCOD9577704
_publ_section_title
;
Structure prediction by ZEFSAII (Michael W. Deem and Ramdas Pophale) SiO2 
 PCOD9577704
Probable space group: P -3 1 M 
;
_chemical_formula_sum "Si O2"
_cell_formula_units_Z 96
_cell_length_a 17.721479
_cell_length_b 17.721479
_cell_length_c 20.882915
_cell_angle_alpha 90.000000
_cell_angle_beta 90.000000
_cell_angle_gamma 120.000000
_cell_volume 5679.651406
_symmetry_space_group_name_H-M "P -3 1 M "
_symmetry_group_IT_number 162
_symmetry_cell_setting 'hexagonal'
loop_
_space_group_symop_operation_xyz
x,y,z
-y,x-y,z
-x+y,-x,z
-y,-x,-z
-x+y,y,-z
x,x-y,-z
-x,-y,-z
y,-x+y,-z
x-y,x,-z
y,x,z
x-y,-y,z
-x,-x+y,z
loop_
_atom_site_type_symbol
_atom_site_label
_atom_site_fract_x
_atom_site_fract_y
_atom_site_fract_z
Si Si1 0.270547 0.372783 0.743956
Si Si2 0.899645 0.270326 0.758602
Si Si3 0.532680 0.637859 0.382904
Si Si4 0.268294 0.896136 0.509073
Si Si5 0.509842 0.842450 0.118550
Si Si6 0.667530 0.510693 0.131092
Si Si7 0.627581 0.900754 0.994241
Si Si8 0.636644 0.105264 0.365242
O O1 0.302126 0.302126 0.742287
O O2 0.168551 0.336275 0.756000
O O3 0.298631 0.425804 0.677337
O O4 0.319565 0.439779 0.801962
O O5 0.889509 0.309433 0.825243
O O6 0.872177 0.314221 0.702133
O O7 0.000000 0.298429 0.748653
O O8 0.579760 0.579760 0.381991
O O9 0.560405 0.686374 0.450551
O O10 0.430294 0.570778 0.374581
O O11 0.165262 0.834739 0.500000
O O12 0.298852 0.873526 0.575288
O O13 0.304930 0.000000 0.507747
O O14 0.481857 0.740763 0.125386
O O15 0.427876 0.856025 0.125303
O O16 0.557255 0.876988 0.050777
O O17 0.690353 0.578490 0.073086
O O18 0.702901 0.000000 0.000988
O O19 0.657202 0.828601 0.000000
O O20 0.578450 0.000000 0.365501
#
# Coordination Sequence:
#
# PCOD9577704 Si02
#       8
#    12  12  12  12  12  12  12  12
#     4  10  20  33  50  72  97 127 163 202 242 283
#     4  10  20  33  50  72  97 127 163 202 242 283
#     4   9  17  30  49  71  93 119 153 192 234 283
#     4  10  19  31  49  72  97 127 164 204 243 283
#     4  10  20  33  50  73 101 131 161 194 234 281
#     4  10  20  33  50  73 101 131 161 194 234 281
#     4  10  21  35  51  72  97 127 162 200 241 283
#     4   9  17  30  49  71  93 119 153 192 234 283
#
# _framework density 16.902445
#
# number of rings (size 3 to 8) (size 9 to 14) (size 15 to 20)
#    0.000    2.250    0.000    3.250    0.000    5.000 
#    0.000    1.250    0.000    9.000    0.000    0.000 
#    0.000   12.000    0.000    0.000    0.000    2.000 
#
# Total GULP energy -535455.990531 kJ/mol
# GULP energy per Si atom -5577.666568 kJ/mol
# Density = 1.686397 g / cm^3
# Si number density = 16.902445 Si / 1000 Ang^3
#
#
#
# Elastic Constant Matrix: (Units=GPa)
#
#
# Indices 1 2 3 4 5 6 
#
# 1 51.4886 30.4084 -24.0751 0.0000 0.9717 0.0000
# 2 30.4084 51.4886 -24.0751 0.0000 -0.9717 0.0000
# 3 -24.0751 -24.0751 52.3084 0.0000 0.0000 0.0000
# 4 0.0000 0.0000 0.0000 16.8000 0.0000 -0.9717
# 5 0.9717 -0.9717 0.0000 0.0000 16.8000 0.0000
# 6 0.0000 0.0000 0.0000 -0.9717 0.0000 10.5401
#
#
#
# Elastic Compliance Matrix: (Units=1/GPa)
#
#
# Indices 1 2 3 4 5 6 
#
# 1 0.032216 -0.015476 0.007705 0.000000 -0.002758 0.000000
# 2 -0.015476 0.032216 0.007705 0.000000 0.002758 0.000000
# 3 0.007705 0.007705 0.026210 0.000000 0.000000 0.000000
# 4 0.000000 0.000000 0.000000 0.059843 0.000000 0.005517
# 5 -0.002758 0.002758 0.000000 0.000000 0.059843 0.000000
# 6 0.000000 0.000000 0.000000 0.005517 0.000000 0.095384
#
#
# Mechanical properties :
#
#
# Convention : Reuss Voigt Hill
#
# Bulk Modulus (GPa) = 11.04854 13.31135 12.17995
# Shear Modulus (GPa) = 14.88030 20.36317 17.62173
#
# Velocity S-wave (km/s) = 2.97031 3.47471 3.23237
# Velocity P-wave (km/s) = 4.27955 4.89803 4.59919
#
# Compressibility (1/GPa) = 0.09050966
#
# Stress axis : x y z
#
# Youngs Moduli (GPa) = 31.04025 31.04025 38.15384
#
# Poissons Ratio (x) = 0.48037 -0.29397
# Poissons Ratio (y) = 0.48037 -0.29397
# Poissons Ratio (z) = -0.23916 -0.23916
#
# Static dielectric constant tensor:
#      x y z
#    x 1.565800 0.000000 0.000000 
#    y 0.000000 1.565800 0.000000 
#    z 0.000000 0.000000 1.571520 
# 
# From -- ./inp_files/3880.got.cif
#   From: 2010.05.17/outbox.cif.g08.bks.cpg/sg162_2_cif.got.tgz:3880.got - 2010.05.20 10:53:12.
