data_PCOD9577889
_publ_section_title
;
Structure prediction by ZEFSAII (Michael W. Deem and Ramdas Pophale) SiO2 
 PCOD9577889
Probable space group: P -3 1 M 
;
_chemical_formula_sum "Si O2"
_cell_formula_units_Z 72
_cell_length_a 14.499283
_cell_length_b 14.499283
_cell_length_c 18.018944
_cell_angle_alpha 90.000000
_cell_angle_beta 90.000000
_cell_angle_gamma 120.000000
_cell_volume 3280.598035
_symmetry_space_group_name_H-M "P -3 1 M "
_symmetry_group_IT_number 162
_symmetry_cell_setting 'hexagonal'
loop_
_space_group_symop_operation_xyz
x,y,z
-y,x-y,z
-x+y,-x,z
-y,-x,-z
-x+y,y,-z
x,x-y,-z
-x,-y,-z
y,-x+y,-z
x-y,x,-z
y,x,z
x-y,-y,z
-x,-x+y,z
loop_
_atom_site_type_symbol
_atom_site_label
_atom_site_fract_x
_atom_site_fract_y
_atom_site_fract_z
Si Si1 0.640954 0.185486 0.938930
Si Si2 0.764165 0.879094 0.762444
Si Si3 0.332049 0.461556 0.534942
Si Si4 0.453397 0.178948 0.295561
Si Si5 0.122145 0.809241 0.916015
Si Si6 0.124868 0.521069 0.793119
O O1 0.709073 0.138176 0.905456
O O2 0.570977 0.190397 0.870435
O O3 0.723987 0.276014 0.000000
O O4 0.556010 0.112020 0.000000
O O5 0.806944 0.806944 0.728629
O O6 0.672470 0.879020 0.714630
O O7 0.713500 0.831664 0.843792
O O8 0.858447 0.000000 0.770808
O O9 0.428543 0.571458 0.500000
O O10 0.216387 0.432773 0.500000
O O11 0.375432 0.375432 0.529252
O O12 0.314442 0.481007 0.620641
O O13 0.490401 0.296219 0.261048
O O14 0.506008 0.126468 0.246278
O O15 0.000000 0.772416 0.912565
O O16 0.154718 0.845283 0.000000
O O17 0.000000 0.431895 0.805175
#
# Coordination Sequence:
#
# PCOD9577889 Si02
#       6
#    12  12  12  12  12  12
#     4  11  23  39  58  86 129 181 236 295 354 420
#     4  11  23  42  66  95 131 177 232 291 350 405
#     4  11  25  47  78 114 154 196 242 295 362 446
#     4  12  25  45  69 103 140 179 226 287 346 427
#     4  10  21  37  56  82 119 167 223 287 347 408
#     4  12  25  43  68 100 139 188 238 293 363 429
#
# _framework density 21.947217999999999
#
# number of rings (size 3 to 8) (size 9 to 14) (size 15 to 20)
#    0.000    0.833    1.667    5.833    2.333    4.000 
#    0.000    0.000    0.000    2.833    0.000    0.000 
#    0.000    0.000    0.000    0.000    0.000    0.000 
#
# Total GULP energy -401162.846013 kJ/mol
# GULP energy per Si atom -5571.706195 kJ/mol
# Density = 2.189727 g / cm^3
# Si number density = 21.947218 Si / 1000 Ang^3
#
#
#
# Elastic Constant Matrix: (Units=GPa)
#
#
# Indices 1 2 3 4 5 6 
#
# 1 107.9206 59.4423 42.6499 -0.0004 1.3267 0.0000
# 2 59.4423 107.9206 42.6499 0.0004 -1.3267 0.0000
# 3 42.6499 42.6499 166.0123 0.0000 0.0000 0.0000
# 4 -0.0004 0.0004 0.0000 7.1985 0.0000 -1.3267
# 5 1.3267 -1.3267 0.0000 0.0000 7.1985 -0.0004
# 6 0.0000 0.0000 0.0000 -1.3267 -0.0004 24.2391
#
#
#
# Elastic Compliance Matrix: (Units=1/GPa)
#
#
# Indices 1 2 3 4 5 6 
#
# 1 0.013857 -0.006981 -0.001766 0.000001 -0.003841 0.000000
# 2 -0.006981 0.013857 -0.001766 -0.000001 0.003841 0.000000
# 3 -0.001766 -0.001766 0.006931 0.000000 0.000000 0.000000
# 4 0.000001 -0.000001 0.000000 0.140334 0.000000 0.007681
# 5 -0.003841 0.003841 0.000000 0.000000 0.140334 0.000002
# 6 0.000000 0.000000 0.000000 0.007681 0.000002 0.041676
#
#
# Mechanical properties :
#
#
# Convention : Reuss Voigt Hill
#
# Bulk Modulus (GPa) = 73.44028 74.59309 74.01669
# Shear Modulus (GPa) = 13.07002 23.53465 18.30233
#
# Velocity S-wave (km/s) = 2.44298 3.27820 2.89091
# Velocity P-wave (km/s) = 6.44146 6.95630 6.70382
#
# Compressibility (1/GPa) = 0.01361651
#
# Stress axis : x y z
#
# Youngs Moduli (GPa) = 72.16755 72.16755 144.27500
#
# Poissons Ratio (x) = 0.50383 0.25483
# Poissons Ratio (y) = 0.50383 0.25483
# Poissons Ratio (z) = 0.12747 0.12747
#
# Static dielectric constant tensor:
#      x y z
#    x 1.844870 0.000000 0.000000 
#    y 0.000000 1.844870 0.000000 
#    z 0.000000 0.000000 2.006730 
# 
# From -- ./inp_files/3505.got.cif
#   From: 2010.05.17/outbox.cif.g08.bks.cpg/sg162_2_cif.got.tgz:3505.got - 2010.05.20 10:53:12.
