data_PCOD9577182
_publ_section_title
;
Structure prediction by ZEFSAII (Michael W. Deem and Ramdas Pophale) SiO2 
 PCOD9577182
Probable space group: R 3 2
;
_chemical_formula_sum "Si O2"
_cell_formula_units_Z 48
_cell_length_a 21.000000
_cell_length_b 21.000000
_cell_length_c 21.000000
_cell_angle_alpha 90.000000
_cell_angle_beta 90.000000
_cell_angle_gamma 120.000000
_cell_volume 8020.261264
_symmetry_space_group_name_H-M "R 3 2"
_symmetry_group_IT_number 155
_symmetry_cell_setting 'hexagonal'
loop_
_space_group_symop_operation_xyz
x,y,z
-y,x-y,z
-x+y,-x,z
x-y,-y,-z
-x,-x+y,-z
y,x,-z
2/3+x,1/3+y,1/3+z
2/3-y,1/3+x-y,1/3+z
2/3-x+y,1/3-x,1/3+z
2/3+x-y,1/3-y,1/3-z
2/3-x,1/3-x+y,1/3-z
2/3+y,1/3+x,1/3-z
1/3+x,2/3+y,2/3+z
1/3-y,2/3+x-y,2/3+z
1/3-x+y,2/3-x,2/3+z
1/3+x-y,2/3-y,2/3-z
1/3-x,2/3-x+y,2/3-z
1/3+y,2/3+x,2/3-z
loop_
_atom_site_type_symbol
_atom_site_label
_atom_site_fract_x
_atom_site_fract_y
_atom_site_fract_z
Si Si1 0.028902 0.584497 0.191985
Si Si2 0.473584 0.859371 0.831561
Si Si3 0.248467 0.496054 0.645730
Si Si4 0.111018 0.854537 0.798645
Si Si5 0.745313 0.616936 0.803560
Si Si6 0.597407 0.675628 0.015365
Si Si7 0.804508 0.784100 0.788483
Si Si8 0.677459 0.851232 0.658010
O O1 0.066903 0.666667 0.166667
O O2 0.065423 0.540193 0.160422
O O3 0.026624 0.576504 0.268799
O O4 0.944524 0.537121 0.169965
O O5 0.432908 0.841864 0.763374
O O6 0.519626 0.819955 0.849312
O O7 0.406882 0.848079 0.876502
O O8 0.333334 0.545525 0.666667
O O9 0.200240 0.533574 0.666667
O O10 0.212338 0.410867 0.669439
O O11 0.132984 0.799651 0.833334
O O12 0.116281 0.837556 0.723833
O O13 0.170159 0.938947 0.817270
O O14 0.666667 0.564320 0.833334
O O15 0.724098 0.605314 0.729322
O O16 0.770713 0.702396 0.818231
O O17 0.626377 0.758546 0.037042
O O18 0.668544 0.668544 0.000000
O O19 0.553780 0.662293 0.950739
#
# Coordination Sequence:
#
# PCOD9577182 Si02
#       8
#    18  18  18  18  18  18  18  18
#     4  10  21  37  56  87 115 153 187 241 295 358
#     4  10  23  39  56  80 120 151 197 240 290 346
#     4  11  24  39  57  83 117 154 199 246 291 353
#     4  11  22  38  61  83 114 159 201 244 291 358
#     4  10  17  32  59  83 114 142 182 242 298 343
#     4   9  17  32  56  89 113 142 185 241 298 345
#     4   9  21  35  54  84 114 147 193 241 290 349
#     4  10  21  37  59  85 115 149 198 243 294 349
#
# _framework density 5.9848420000000004
#
# number of rings (size 3 to 8) (size 9 to 14) (size 15 to 20)
#    0.000    2.000    1.250    2.000    3.500    2.000 
#    0.750    1.250    0.000    0.250    0.000    0.000 
#    0.000    0.000    0.000    0.000    0.000    0.000 
#
# Total GULP energy -267429.578103 kJ/mol
# GULP energy per Si atom -5571.449544 kJ/mol
# Density = 0.597122 g / cm^3
# Si number density = 5.984842 Si / 1000 Ang^3
#
#
#
# Elastic Constant Matrix: (Units=GPa)
#
#
# Indices 1 2 3 4 5 6 
#
# 1 98.1576 43.7702 28.2504 5.9630 -0.0017 0.0000
# 2 43.7702 98.1576 28.2504 -5.9630 0.0017 0.0000
# 3 28.2504 28.2504 47.3021 0.0000 0.0000 0.0000
# 4 5.9630 -5.9630 0.0000 -12.9716 0.0000 0.0017
# 5 -0.0017 0.0017 0.0000 0.0000 -12.9716 5.9630
# 6 0.0000 0.0000 0.0000 0.0017 5.9630 27.1937
#
#
#
# Elastic Compliance Matrix: (Units=1/GPa)
#
#
# Indices 1 2 3 4 5 6 
#
# 1 0.012973 -0.003730 -0.005521 0.007678 -0.000002 0.000000
# 2 -0.003730 0.012973 -0.005521 -0.007678 0.000002 0.000000
# 3 -0.005521 -0.005521 0.027735 0.000000 0.000000 0.000000
# 4 0.007678 -0.007678 0.000000 -0.070032 0.000000 0.000004
# 5 -0.000002 0.000002 0.000000 0.000000 -0.070032 0.015357
# 6 0.000000 0.000000 0.000000 0.000004 0.015357 0.033406
#
#
# Mechanical properties :
#
#
# Convention : Reuss Voigt Hill
#
# Bulk Modulus (GPa) = 41.42552 49.35103 45.38828
# Shear Modulus (GPa) = -324.90203 9.80652 -157.54775
#
# Velocity S-wave (km/s) = -13.46667 2.33960 -9.37756
# Velocity P-wave (km/s) = 14.78780 5.90294 9.58734
#
# Compressibility (1/GPa) = 0.02413971
#
# Stress axis : x y z
#
# Youngs Moduli (GPa) = 77.08171 77.08171 36.05576
#
# Poissons Ratio (x) = 0.28749 0.19905
# Poissons Ratio (y) = 0.28749 0.19905
# Poissons Ratio (z) = 0.42553 0.42553
#
# Static dielectric constant tensor:
#      x y z
#    x 1.622050 0.000000 0.000000 
#    y 0.000000 1.622050 0.000000 
#    z 0.000000 0.000000 1.704680 
# 
# From -- ./inp_files/7044.got.cif
#   From: 2010.05.17/outbox.ucp.g08.bks.cvg/sg155_4_cif.got.tgz:7044.got - 2010.06.11 15:13:48.
