data_PCOD9577391
_publ_section_title
;
Structure prediction by ZEFSAII (Michael W. Deem and Ramdas Pophale) SiO2 
 PCOD9577391
Probable space group: P 3 1 C
;
_chemical_formula_sum "Si O2"
_cell_formula_units_Z 42
_cell_length_a 8.496385
_cell_length_b 8.496385
_cell_length_c 33.066042
_cell_angle_alpha 90.000000
_cell_angle_beta 90.000000
_cell_angle_gamma 120.000000
_cell_volume 2067.193886
_symmetry_space_group_name_H-M "P 3 1 C"
_symmetry_group_IT_number 159
_symmetry_cell_setting 'hexagonal'
loop_
_space_group_symop_operation_xyz
x,y,z
-y,x-y,z
-x+y,-x,z
y,x,1/2+z
x-y,-y,1/2+z
-x,-x+y,1/2+z
loop_
_atom_site_type_symbol
_atom_site_label
_atom_site_fract_x
_atom_site_fract_y
_atom_site_fract_z
Si Si1 0.322419 0.991657 0.916850
Si Si2 0.672469 0.676962 0.740947
Si Si3 0.637900 0.112531 0.118942
Si Si4 0.861074 0.306891 0.328601
Si Si5 0.340320 0.344534 0.206492
Si Si6 0.112778 0.638914 0.038177
Si Si7 0.992839 0.656658 0.951278
O O1 0.296671 0.957465 0.869078
O O2 0.134830 0.862133 0.939348
O O3 0.392740 0.194345 0.932049
O O4 0.468784 0.936184 0.930742
O O5 0.664180 0.703043 0.788701
O O6 0.531701 0.471183 0.728972
O O7 0.864509 0.726192 0.722194
O O8 0.603145 0.801566 0.719983
O O9 0.823033 0.309501 0.119612
O O10 0.627430 0.000501 0.158693
O O11 0.611594 0.997685 0.078861
O O12 0.845582 0.491230 0.328102
O O13 0.176679 0.487036 0.036637
O O14 0.997401 0.628585 0.999067
#
# Coordination Sequence:
#
# PCOD9577391 Si02
#       7
#     6   6   6   6   6   6   6
#     4  12  24  42  72  97 141 189 233 293 356 422
#     4  12  24  42  72  97 141 189 233 293 356 422
#     4  10  23  41  68 100 139 181 233 291 351 410
#     4  10  20  42  72  96 134 184 238 302 364 392
#     4  12  24  45  65 106 140 188 233 288 360 427
#     4  10  23  41  68 100 139 181 233 291 351 410
#     4  12  24  45  65 106 140 188 233 288 360 427
#
# _framework density 20.317398000000001
#
# number of rings (size 3 to 8) (size 9 to 14) (size 15 to 20)
#    0.857    0.000    5.714    1.714    4.000    2.286 
#    0.000    0.000    0.000    0.571    0.000    0.000 
#    0.000    0.000    0.000    0.000    0.000    0.000 
#
# Total GULP energy -234500.105510 kJ/mol
# GULP energy per Si atom -5583.335845 kJ/mol
# Density = 2.027115 g / cm^3
# Si number density = 20.317398 Si / 1000 Ang^3
#
#
#
# Elastic Constant Matrix: (Units=GPa)
#
#
# Indices 1 2 3 4 5 6 
#
# 1 66.2958 12.6316 35.2346 0.0000 -0.7984 0.0000
# 2 12.6316 66.2958 35.2346 0.0000 0.7984 0.0000
# 3 35.2346 35.2346 203.5524 0.0000 0.0000 0.0000
# 4 0.0000 0.0000 0.0000 8.7421 0.0000 0.7984
# 5 -0.7984 0.7984 0.0000 0.0000 8.7421 0.0000
# 6 0.0000 0.0000 0.0000 0.7984 0.0000 26.8321
#
#
#
# Elastic Compliance Matrix: (Units=1/GPa)
#
#
# Indices 1 2 3 4 5 6 
#
# 1 0.016836 -0.001850 -0.002594 0.000000 0.001707 0.000000
# 2 -0.001850 0.016836 -0.002594 0.000000 -0.001707 0.000000
# 3 -0.002594 -0.002594 0.005811 0.000000 0.000000 0.000000
# 4 0.000000 0.000000 0.000000 0.114701 0.000000 -0.003413
# 5 0.001707 -0.001707 0.000000 0.000000 0.114701 0.000000
# 6 0.000000 0.000000 0.000000 -0.003413 0.000000 0.037370
#
#
# Mechanical properties :
#
#
# Convention : Reuss Voigt Hill
#
# Bulk Modulus (GPa) = 39.36004 55.81618 47.58811
# Shear Modulus (GPa) = 15.20687 25.73278 20.46982
#
# Velocity S-wave (km/s) = 2.73878 3.56271 3.17756
# Velocity P-wave (km/s) = 5.42364 6.66750 6.07748
#
# Compressibility (1/GPa) = 0.02540648
#
# Stress axis : x y z
#
# Youngs Moduli (GPa) = 59.39808 59.39808 172.09361
#
# Poissons Ratio (x) = 0.10986 0.44642
# Poissons Ratio (y) = 0.10986 0.44642
# Poissons Ratio (z) = 0.15408 0.15408
#
# Static dielectric constant tensor:
#      x y z
#    x 1.619850 0.000000 0.000000 
#    y 0.000000 1.619850 0.000000 
#    z 0.000000 0.000000 1.689030 
# 
# From -- ./inp_files/1311.got.cif
#   From: 2010.05.17/outbox.cif.g08.bks.cpg/sg159_cif.got.tgz:1311.got - 2010.05.20 10:50:30.
