data_PCOD9577529
_publ_section_title
;
Structure prediction by ZEFSAII (Michael W. Deem and Ramdas Pophale) SiO2 
 PCOD9577529
Probable space group: R 3 C
;
_chemical_formula_sum "Si O2"
_cell_formula_units_Z 144
_cell_length_a 19.936406
_cell_length_b 19.936406
_cell_length_c 21.604317
_cell_angle_alpha 90.000000
_cell_angle_beta 90.000000
_cell_angle_gamma 120.000000
_cell_volume 7436.437145
_symmetry_space_group_name_H-M "R 3 C"
_symmetry_group_IT_number 161
_symmetry_cell_setting 'hexagonal'
loop_
_space_group_symop_operation_xyz
x,y,z
-y,x-y,z
-x+y,-x,z
-x+y,y,1/2+z
x,x-y,1/2+z
-y,-x,1/2+z
2/3+x,1/3+y,1/3+z
2/3-y,1/3+x-y,1/3+z
2/3-x+y,1/3-x,1/3+z
2/3-x+y,1/3+y,5/6+z
2/3+x,1/3+x-y,5/6+z
2/3-y,1/3-x,5/6+z
1/3+x,2/3+y,2/3+z
1/3-y,2/3+x-y,2/3+z
1/3-x+y,2/3-x,2/3+z
1/3-x+y,2/3+y,1/6+z
1/3+x,2/3+x-y,1/6+z
1/3-y,2/3-x,1/6+z
loop_
_atom_site_type_symbol
_atom_site_label
_atom_site_fract_x
_atom_site_fract_y
_atom_site_fract_z
Si Si1 0.721717 0.058582 0.405253
Si Si2 0.135610 0.803443 0.317416
Si Si3 0.406794 0.762746 0.139847
Si Si4 0.173257 0.169389 0.358476
Si Si5 0.182158 0.772804 0.448121
Si Si6 0.072022 0.516546 0.704179
Si Si7 0.974575 0.318141 0.442120
Si Si8 0.591993 0.960979 0.492444
O O1 0.797157 0.049392 0.398758
O O2 0.746892 0.147910 0.404014
O O3 0.666499 0.017158 0.345771
O O4 0.677055 0.010199 0.464396
O O5 0.163770 0.773671 0.376041
O O6 0.086667 0.735495 0.269993
O O7 0.209734 0.880915 0.295823
O O8 0.075561 0.830423 0.339983
O O9 0.314510 0.727807 0.151714
O O10 0.434138 0.783463 0.068441
O O11 0.456080 0.842351 0.178030
O O12 0.196967 0.133859 0.300802
O O13 0.149006 0.823498 0.482270
O O14 0.127563 0.686924 0.474923
O O15 0.036840 0.444164 0.751200
O O16 0.034214 0.306673 0.398966
#
# Coordination Sequence:
#
# PCOD9577529 Si02
#       8
#    18  18  18  18  18  18  18  18
#     4  10  21  38  59  91 121 157 203 253 307 363
#     4  11  20  36  57  83 120 152 198 249 299 368
#     4  10  23  35  55  88 121 160 204 253 304 376
#     4  10  19  35  57  83 119 155 198 250 302 357
#     4  10  20  36  59  82 119 156 190 257 304 346
#     4  10  20  38  61  84 124 158 196 256 308 364
#     4  10  22  37  58  92 119 153 206 244 310 372
#     4  11  21  35  60  87 115 157 195 244 308 354
#
# _framework density 19.364111999999999
#
# number of rings (size 3 to 8) (size 9 to 14) (size 15 to 20)
#    0.250    1.500    3.750    3.000    1.750    4.000 
#    0.000    0.000    0.000    0.000    0.000    0.000 
#    0.000    0.000    0.000    0.000    0.000    0.000 
#
# Total GULP energy -267362.122430 kJ/mol
# GULP energy per Si atom -5570.044217 kJ/mol
# Density = 1.932004 g / cm^3
# Si number density = 19.364112 Si / 1000 Ang^3
#
#
#
# Elastic Constant Matrix: (Units=GPa)
#
#
# Indices 1 2 3 4 5 6 
#
# 1 53.6893 10.5464 -0.4601 -0.6110 0.0000 0.0000
# 2 10.5464 53.6893 -0.4601 0.6110 0.0000 0.0000
# 3 -0.4601 -0.4601 20.8074 0.0000 0.0000 0.0000
# 4 -0.6110 0.6110 0.0000 24.7305 0.0000 0.0000
# 5 0.0000 0.0000 0.0000 0.0000 24.7305 -0.6110
# 6 0.0000 0.0000 0.0000 0.0000 -0.6110 21.5715
#
#
#
# Elastic Compliance Matrix: (Units=1/GPa)
#
#
# Indices 1 2 3 4 5 6 
#
# 1 0.019384 -0.003811 0.000344 0.000573 0.000000 0.000000
# 2 -0.003811 0.019384 0.000344 -0.000573 0.000000 0.000000
# 3 0.000344 0.000344 0.048075 0.000000 0.000000 0.000000
# 4 0.000573 -0.000573 0.000000 0.040464 0.000000 0.000000
# 5 0.000000 0.000000 0.000000 0.000000 0.040464 0.001146
# 6 0.000000 0.000000 0.000000 0.000000 0.001146 0.046390
#
#
# Mechanical properties :
#
#
# Convention : Reuss Voigt Hill
#
# Bulk Modulus (GPa) = 12.40735 16.38207 14.39471
# Shear Modulus (GPa) = 20.22066 22.11049 21.16558
#
# Velocity S-wave (km/s) = 3.23497 3.38276 3.30969
# Velocity P-wave (km/s) = 4.51383 4.87194 4.69630
#
# Compressibility (1/GPa) = 0.08059740
#
# Stress axis : x y z
#
# Youngs Moduli (GPa) = 51.58945 51.58945 20.80086
#
# Poissons Ratio (x) = 0.19662 -0.00716
# Poissons Ratio (y) = 0.19662 -0.00716
# Poissons Ratio (z) = -0.01776 -0.01776
#
# Static dielectric constant tensor:
#      x y z
#    x 1.715830 0.000000 0.000000 
#    y 0.000000 1.715830 0.000000 
#    z 0.000000 0.000000 1.676620 
# 
# From -- ./inp_files/1788.got.cif
#   From: 2010.05.17/outbox.cif.g08.bks.cpg/sg161_cif.got.tgz:1788.got - 2010.05.20 10:52:32.
