data_PCOD9577558
_publ_section_title
;
Structure prediction by ZEFSAII (Michael W. Deem and Ramdas Pophale) SiO2 
 PCOD9577558
Probable space group: R 3 C
;
_chemical_formula_sum "Si O2"
_cell_formula_units_Z 72
_cell_length_a 18.325165
_cell_length_b 18.325165
_cell_length_c 9.781311
_cell_angle_alpha 90.000000
_cell_angle_beta 90.000000
_cell_angle_gamma 120.000000
_cell_volume 2844.614941
_symmetry_space_group_name_H-M "R 3 C"
_symmetry_group_IT_number 161
_symmetry_cell_setting 'hexagonal'
loop_
_space_group_symop_operation_xyz
x,y,z
-y,x-y,z
-x+y,-x,z
-x+y,y,1/2+z
x,x-y,1/2+z
-y,-x,1/2+z
2/3+x,1/3+y,1/3+z
2/3-y,1/3+x-y,1/3+z
2/3-x+y,1/3-x,1/3+z
2/3-x+y,1/3+y,5/6+z
2/3+x,1/3+x-y,5/6+z
2/3-y,1/3-x,5/6+z
1/3+x,2/3+y,2/3+z
1/3-y,2/3+x-y,2/3+z
1/3-x+y,2/3-x,2/3+z
1/3-x+y,2/3+y,1/6+z
1/3+x,2/3+x-y,1/6+z
1/3-y,2/3-x,1/6+z
loop_
_atom_site_type_symbol
_atom_site_label
_atom_site_fract_x
_atom_site_fract_y
_atom_site_fract_z
Si Si1 0.346403 0.849541 0.616219
Si Si2 0.591809 0.702890 0.889236
Si Si3 0.989091 0.848862 0.950689
Si Si4 0.926488 0.212709 0.687055
O O1 0.324644 0.896143 0.733759
O O2 0.434637 0.855366 0.644540
O O3 0.289777 0.747561 0.633410
O O4 0.319934 0.877850 0.475254
O O5 0.642228 0.805564 0.891680
O O6 0.504115 0.684360 0.956645
O O7 0.606700 0.637107 0.978344
O O8 0.949394 0.767339 0.048037
#
# Coordination Sequence:
#
# PCOD9577558 Si02
#       4
#    18  18  18  18
#     4  10  21  41  73 103 145 191 252 313 376 448
#     4  10  23  44  69 103 150 193 254 304 382 465
#     4  10  21  41  68 106 141 189 250 313 377 445
#     4  10  23  46  70 108 144 197 250 312 381 462
#
# _framework density 25.310984000000001
#
# number of rings (size 3 to 8) (size 9 to 14) (size 15 to 20)
#    0.000    2.000    0.000    2.000    0.000    6.000 
#   13.500    5.000    0.000    0.000    0.000    0.000 
#    0.000    0.000    0.000    0.000    0.000    0.000 
#
# Total GULP energy -133694.262446 kJ/mol
# GULP energy per Si atom -5570.594269 kJ/mol
# Density = 2.525337 g / cm^3
# Si number density = 25.310984 Si / 1000 Ang^3
#
#
#
# Elastic Constant Matrix: (Units=GPa)
#
#
# Indices 1 2 3 4 5 6 
#
# 1 109.8741 82.3232 12.2887 -8.8876 0.0000 0.0000
# 2 82.3232 109.8741 12.2887 8.8876 0.0000 0.0000
# 3 12.2887 12.2887 92.8092 0.0001 0.0000 0.0000
# 4 -8.8876 8.8876 0.0001 -6.8456 0.0001 0.0000
# 5 0.0000 0.0000 0.0000 0.0001 -6.8456 -8.8876
# 6 0.0000 0.0000 0.0000 0.0000 -8.8876 13.7755
#
#
#
# Elastic Compliance Matrix: (Units=1/GPa)
#
#
# Indices 1 2 3 4 5 6 
#
# 1 0.012522 -0.007230 -0.000701 -0.025644 0.000000 0.000000
# 2 -0.007230 0.012522 -0.000701 0.025644 0.000000 0.000000
# 3 -0.000701 -0.000701 0.010960 0.000000 0.000000 0.000000
# 4 -0.025644 0.025644 0.000000 -0.079494 -0.000001 0.000000
# 5 0.000000 0.000000 0.000000 -0.000001 -0.079493 -0.051287
# 6 0.000000 0.000000 0.000000 0.000000 -0.051287 0.039504
#
#
# Mechanical properties :
#
#
# Convention : Reuss Voigt Hill
#
# Bulk Modulus (GPa) = 53.35487 58.48431 55.91959
# Shear Modulus (GPa) = -83.37692 13.72730 -34.82481
#
# Velocity S-wave (km/s) = -5.74565 2.33136 -3.71331
# Velocity P-wave (km/s) = 4.78447 5.51393 1.93807
#
# Compressibility (1/GPa) = 0.01874243
#
# Stress axis : x y z
#
# Youngs Moduli (GPa) = 79.85837 79.85829 91.23777
#
# Poissons Ratio (x) = 0.57734 0.06393
# Poissons Ratio (y) = 0.57734 0.06394
# Poissons Ratio (z) = 0.05596 0.05597
#
# Static dielectric constant tensor:
#      x y z
#    x 2.112910 0.000000 0.000000 
#    y 0.000000 2.112910 0.000000 
#    z 0.000000 0.000000 1.890320 
# 
# From -- ./inp_files/247.got.cif
#   From: 2010.05.17/outbox.cif.g08.bks.cpg/sg161_cif.got.tgz:247.got - 2010.05.20 10:52:32.
