data_PCOD9577852
_publ_section_title
;
Structure prediction by ZEFSAII (Michael W. Deem and Ramdas Pophale) SiO2 
 PCOD9577852
Probable space group: P -3 1 M 
;
_chemical_formula_sum "Si O2"
_cell_formula_units_Z 84
_cell_length_a 20.630393
_cell_length_b 20.630393
_cell_length_c 12.206145
_cell_angle_alpha 90.000000
_cell_angle_beta 90.000000
_cell_angle_gamma 120.000000
_cell_volume 4499.084591
_symmetry_space_group_name_H-M "P -3 1 M "
_symmetry_group_IT_number 162
_symmetry_cell_setting 'hexagonal'
loop_
_space_group_symop_operation_xyz
x,y,z
-y,x-y,z
-x+y,-x,z
-y,-x,-z
-x+y,y,-z
x,x-y,-z
-x,-y,-z
y,-x+y,-z
x-y,x,-z
y,x,z
x-y,-y,z
-x,-x+y,z
loop_
_atom_site_type_symbol
_atom_site_label
_atom_site_fract_x
_atom_site_fract_y
_atom_site_fract_z
Si Si1 0.913428 0.399679 0.075327
Si Si2 0.085631 0.662256 0.520972
Si Si3 0.504467 0.704770 0.677904
Si Si4 0.911376 0.187444 0.399345
Si Si5 0.154249 0.809106 0.192408
Si Si6 0.168276 0.630609 0.699971
Si Si7 0.658076 0.737421 0.011444
O O1 0.864533 0.365316 0.182847
O O2 0.915341 0.336840 0.001897
O O3 0.000000 0.457643 0.107509
O O4 0.883579 0.441790 0.000000
O O5 0.149378 0.691263 0.428981
O O6 0.091040 0.736280 0.575801
O O7 0.105963 0.617653 0.609674
O O8 0.000000 0.612007 0.480310
O O9 0.574562 0.747362 0.760369
O O10 0.436278 0.622787 0.706726
O O11 0.470933 0.760456 0.667350
O O12 0.869873 0.130128 0.500000
O O13 0.860506 0.153404 0.290629
O O14 0.000000 0.214638 0.388500
O O15 0.215097 0.860726 0.102740
O O16 0.085196 0.770139 0.109134
O O17 0.715638 0.715638 0.061781
#
# Coordination Sequence:
#
# PCOD9577852 Si02
#       7
#    12  12  12  12  12  12  12
#     4  10  20  37  59  83 110 149 203 260 319 373
#     4  11  23  40  63  87 120 164 211 268 329 384
#     4  12  24  39  58  86 124 163 215 261 321 387
#     4  11  21  39  66  95 129 169 210 261 319 382
#     4  11  21  38  61  86 124 160 206 259 315 381
#     4  12  23  39  58  82 120 165 209 264 323 388
#     4  10  21  37  60  88 118 157 200 254 319 376
#
# _framework density 18.670463999999999
#
# number of rings (size 3 to 8) (size 9 to 14) (size 15 to 20)
#    0.000    1.000    4.286    2.857    0.000    5.143 
#    0.000    1.429    0.000    0.143    0.000    0.000 
#    0.000    0.000    0.000    7.286    0.000    0.000 
#
# Total GULP energy -468398.921460 kJ/mol
# GULP energy per Si atom -5576.177636 kJ/mol
# Density = 1.862797 g / cm^3
# Si number density = 18.670464 Si / 1000 Ang^3
#
#
#
# Elastic Constant Matrix: (Units=GPa)
#
#
# Indices 1 2 3 4 5 6 
#
# 1 76.5456 41.8460 47.0005 -0.0003 -3.7299 0.0000
# 2 41.8460 76.5456 47.0005 0.0003 3.7299 0.0000
# 3 47.0005 47.0005 126.4664 0.0000 0.0000 0.0000
# 4 -0.0003 0.0003 0.0000 17.0778 0.0000 3.7299
# 5 -3.7299 3.7299 0.0000 0.0000 17.0778 -0.0003
# 6 0.0000 0.0000 0.0000 3.7299 -0.0003 17.3498
#
#
#
# Elastic Compliance Matrix: (Units=1/GPa)
#
#
# Indices 1 2 3 4 5 6 
#
# 1 0.021110 -0.009128 -0.004453 0.000001 0.006604 0.000000
# 2 -0.009128 0.021110 -0.004453 -0.000001 -0.006604 0.000000
# 3 -0.004453 -0.004453 0.011217 0.000000 0.000000 0.000000
# 4 0.000001 -0.000001 0.000000 0.061440 0.000000 -0.013209
# 5 0.006604 -0.006604 0.000000 0.000000 0.061440 0.000001
# 6 0.000000 0.000000 0.000000 -0.013209 0.000001 0.060477
#
#
# Mechanical properties :
#
#
# Convention : Reuss Voigt Hill
#
# Bulk Modulus (GPa) = 57.57325 61.25018 59.41171
# Shear Modulus (GPa) = 17.94338 19.88180 18.91259
#
# Velocity S-wave (km/s) = 3.10345 3.26679 3.18617
# Velocity P-wave (km/s) = 6.61403 6.86341 6.73987
#
# Compressibility (1/GPa) = 0.01736918
#
# Stress axis : x y z
#
# Youngs Moduli (GPa) = 47.37002 47.37002 89.14872
#
# Poissons Ratio (x) = 0.43240 0.39699
# Poissons Ratio (y) = 0.43240 0.39699
# Poissons Ratio (z) = 0.21095 0.21095
#
# Static dielectric constant tensor:
#      x y z
#    x 1.679450 0.000000 0.000000 
#    y 0.000000 1.679450 0.000000 
#    z 0.000000 0.000000 1.646400 
# 
# From -- ./inp_files/2490.got.cif
#   From: 2010.05.17/outbox.cif.g08.bks.cpg/sg162_2_cif.got.tgz:2490.got - 2010.05.20 10:53:12.
