data_PCOD9577031
_publ_section_title
;
Structure prediction by ZEFSAII (Michael W. Deem and Ramdas Pophale) SiO2 
 PCOD9577031
Probable space group: R 3 2
;
_chemical_formula_sum "Si O2"
_cell_formula_units_Z 144
_cell_length_a 31.545204
_cell_length_b 31.545204
_cell_length_c 9.327919
_cell_angle_alpha 90.000000
_cell_angle_beta 90.000000
_cell_angle_gamma 120.000000
_cell_volume 8038.630721
_symmetry_space_group_name_H-M "R 3 2"
_symmetry_group_IT_number 155
_symmetry_cell_setting 'hexagonal'
loop_
_space_group_symop_operation_xyz
x,y,z
-y,x-y,z
-x+y,-x,z
x-y,-y,-z
-x,-x+y,-z
y,x,-z
2/3+x,1/3+y,1/3+z
2/3-y,1/3+x-y,1/3+z
2/3-x+y,1/3-x,1/3+z
2/3+x-y,1/3-y,1/3-z
2/3-x,1/3-x+y,1/3-z
2/3+y,1/3+x,1/3-z
1/3+x,2/3+y,2/3+z
1/3-y,2/3+x-y,2/3+z
1/3-x+y,2/3-x,2/3+z
1/3+x-y,2/3-y,2/3-z
1/3-x,2/3-x+y,2/3-z
1/3+y,2/3+x,2/3-z
loop_
_atom_site_type_symbol
_atom_site_label
_atom_site_fract_x
_atom_site_fract_y
_atom_site_fract_z
Si Si1 0.390493 0.426288 0.137150
Si Si2 0.275956 0.909543 0.689997
Si Si3 0.717973 0.531946 0.749528
Si Si4 0.186141 0.716274 0.255341
Si Si5 0.450015 0.977689 0.155470
Si Si6 0.020113 0.548718 0.657696
Si Si7 0.050657 0.200788 0.071635
Si Si8 0.614117 0.133300 0.262280
O O1 0.333334 0.394176 0.166667
O O2 0.402300 0.482323 0.121704
O O3 0.417909 0.422669 0.274915
O O4 0.409460 0.409460 0.000000
O O5 0.333334 0.944973 0.666667
O O6 0.254714 0.921380 0.833334
O O7 0.247329 0.915224 0.557734
O O8 0.268354 0.854515 0.671930
O O9 0.666667 0.501127 0.833334
O O10 0.756936 0.513081 0.766793
O O11 0.748977 0.586528 0.812934
O O12 0.711640 0.537205 0.577757
O O13 0.168868 0.666667 0.166667
O O14 0.177771 0.709297 0.425744
O O15 0.498949 0.999540 0.250687
O O16 0.468229 0.000000 0.000000
O O17 0.077795 0.584941 0.677541
O O18 0.000000 0.532061 0.500000
O O19 0.091042 0.184817 0.049488
O O20 0.000000 0.162770 0.000000
O O21 0.666667 0.165719 0.333334
#
# Coordination Sequence:
#
# PCOD9577031 Si02
#       8
#    18  18  18  18  18  18  18  18
#     4  11  23  40  61  84 126 173 212 264 318 367
#     4  11  25  41  59  86 128 172 218 265 320 375
#     4  11  24  39  68  98 120 164 219 260 316 384
#     4  10  22  43  64  91 125 166 204 259 324 382
#     4  12  22  41  63  87 126 171 212 266 323 377
#     4  12  25  38  60  92 129 170 216 264 319 378
#     4  10  23  44  62  92 130 163 206 267 319 377
#     4  11  24  40  65  96 125 164 217 260 312 384
#
# _framework density 17.913498000000001
#
# number of rings (size 3 to 8) (size 9 to 14) (size 15 to 20)
#    0.000    1.000    5.000    1.500    7.000    3.000 
#    0.000    0.000    0.000    0.500    0.000    0.000 
#    0.000    0.000    0.000    0.000    0.000    0.000 
#
# Total GULP energy -267862.930901 kJ/mol
# GULP energy per Si atom -5580.477727 kJ/mol
# Density = 1.787273 g / cm^3
# Si number density = 17.913498 Si / 1000 Ang^3
#
#
#
# Elastic Constant Matrix: (Units=GPa)
#
#
# Indices 1 2 3 4 5 6 
#
# 1 103.0392 70.0199 59.9663 13.2181 -0.0224 0.0545
# 2 70.0199 102.9459 59.8905 -13.2399 -0.0061 -0.0303
# 3 59.9663 59.8905 129.1971 -0.0293 0.0455 -0.0674
# 4 13.2181 -13.2399 -0.0293 23.8807 0.0050 -0.0289
# 5 -0.0224 -0.0061 0.0455 0.0050 23.8806 13.2495
# 6 0.0545 -0.0303 -0.0674 -0.0289 13.2495 16.4279
#
#
#
# Elastic Compliance Matrix: (Units=1/GPa)
#
#
# Indices 1 2 3 4 5 6 
#
# 1 0.031555 -0.023042 -0.003972 -0.030246 0.000286 -0.000447
# 2 -0.023042 0.031562 -0.003929 0.030248 -0.000195 0.000329
# 3 -0.003972 -0.003929 0.011405 0.000034 -0.000101 0.000134
# 4 -0.030246 0.030248 0.000034 0.075387 -0.000357 0.000577
# 5 0.000286 -0.000195 -0.000101 -0.000357 0.075792 -0.061131
# 6 -0.000447 0.000329 0.000134 0.000577 -0.061131 0.110179
#
#
# Mechanical properties :
#
#
# Convention : Reuss Voigt Hill
#
# Bulk Modulus (GPa) = 79.13614 79.43729 79.28672
# Shear Modulus (GPa) = 12.43847 22.52488 17.48167
#
# Velocity S-wave (km/s) = 2.63793 3.54987 3.12732
# Velocity P-wave (km/s) = 7.31785 7.82581 7.57609
#
# Compressibility (1/GPa) = 0.01263645
#
# Stress axis : x y z
#
# Youngs Moduli (GPa) = 31.69072 31.68359 87.67934
#
# Poissons Ratio (x) = 0.73005 0.34827
# Poissons Ratio (y) = 0.73021 0.34450
# Poissons Ratio (z) = 0.12588 0.12449
#
# Static dielectric constant tensor:
#      x y z
#    x 1.651850 0.000020 0.000030 
#    y 0.000020 1.652120 -0.000010 
#    z 0.000030 -0.000010 1.610130 
# 
# From -- ./inp_files/3067.got.cif
#   From: 2010.05.17/outbox.cif.g08.bks.cpg/sg155_2_cif.got.tgz:3067.got - 2010.05.20 10:44:35.
