data_PCOD9577260
_publ_section_title
;
Structure prediction by ZEFSAII (Michael W. Deem and Ramdas Pophale) SiO2 
 PCOD9577260
Probable space group: P 3 1 M
;
_chemical_formula_sum "Si O2"
_cell_formula_units_Z 23
_cell_length_a 12.236936
_cell_length_b 12.236936
_cell_length_c 7.117559
_cell_angle_alpha 90.000000
_cell_angle_beta 90.000000
_cell_angle_gamma 120.000000
_cell_volume 923.011442
_symmetry_space_group_name_H-M "P 3 1 M"
_symmetry_group_IT_number 157
_symmetry_cell_setting 'hexagonal'
loop_
_space_group_symop_operation_xyz
x,y,z
-y,x-y,z
-x+y,-x,z
y,x,z
x-y,-y,z
-x,-x+y,z
loop_
_atom_site_type_symbol
_atom_site_label
_atom_site_fract_x
_atom_site_fract_y
_atom_site_fract_z
Si Si1 0.805425 0.000000 0.274130
Si Si2 0.854988 0.313516 0.958646
Si Si3 0.000000 0.000000 0.555116
Si Si4 0.000000 0.000000 0.996811
Si Si5 0.527430 0.854929 0.701411
Si Si6 0.577030 0.728746 0.359519
O O1 0.812621 0.133060 0.285164
O O2 0.880715 0.000000 0.462101
O O3 0.881616 0.000000 0.092671
O O4 0.836934 0.406769 0.818671
O O5 0.775014 0.177687 0.864592
O O6 0.000000 0.353240 0.957389
O O7 0.828262 0.333455 0.173408
O O8 0.000000 0.000000 0.775763
O O9 0.513406 0.763587 0.528675
O O10 0.603633 0.000000 0.637264
O O11 0.647538 0.647538 0.412435
#
# Coordination Sequence:
#
# PCOD9577260 Si02
#       6
#     3   6   1   1   6   6
#     4  10  20  38  56 100 143 186 231 269 360 423
#     4  10  25  45  69 106 144 185 244 302 365 428
#     4  10  20  34  58  89 139 193 239 268 334 428
#     4  10  20  34  58  89 142 193 236 271 334 425
#     4  11  24  44  73 104 138 191 248 297 363 434
#     4  11  22  42  67 102 153 188 225 298 360 431
#
# _framework density 24.918431999999999
#
# number of rings (size 3 to 8) (size 9 to 14) (size 15 to 20)
#    0.000    1.565    3.913    1.304    1.826    4.174 
#    0.000    5.217    0.000    0.522    0.000    1.826 
#    0.000    0.000    0.000    0.000    0.000    0.000 
#
# Total GULP energy -128534.676662 kJ/mol
# GULP energy per Si atom -5588.464203 kJ/mol
# Density = 2.486172 g / cm^3
# Si number density = 24.918432 Si / 1000 Ang^3
#
#
#
# Elastic Constant Matrix: (Units=GPa)
#
#
# Indices 1 2 3 4 5 6 
#
# 1 29.5670 76.3331 52.7662 0.0000 -29.9431 0.0000
# 2 76.3331 29.5670 52.7662 0.0000 29.9431 0.0000
# 3 52.7662 52.7662 219.6197 0.0000 0.0000 0.0000
# 4 0.0000 0.0000 0.0000 -1.5325 0.0000 29.9431
# 5 -29.9431 29.9431 0.0000 0.0000 -1.5325 0.0000
# 6 0.0000 0.0000 0.0000 29.9431 0.0000 -23.3831
#
#
#
# Elastic Compliance Matrix: (Units=1/GPa)
#
#
# Indices 1 2 3 4 5 6 
#
# 1 0.006653 0.005763 -0.002983 0.000000 -0.017394 0.000000
# 2 0.005763 0.006653 -0.002983 0.000000 0.017394 0.000000
# 3 -0.002983 -0.002983 0.005987 0.000000 0.000000 0.000000
# 4 0.000000 0.000000 0.000000 0.027166 0.000000 0.034787
# 5 -0.017394 0.017394 0.000000 0.000000 0.027166 0.000000
# 6 0.000000 0.000000 0.000000 0.034787 0.000000 0.001780
#
#
# Mechanical properties :
#
#
# Convention : Reuss Voigt Hill
#
# Bulk Modulus (GPa) = 52.94983 71.38717 62.16850
# Shear Modulus (GPa) = 60.89675 1.16959 31.03317
#
# Velocity S-wave (km/s) = 4.94889 0.68585 3.53284
# Velocity P-wave (km/s) = 7.34511 5.41643 6.45323
#
# Compressibility (1/GPa) = 0.01888580
#
# Stress axis : x y z
#
# Youngs Moduli (GPa) = 150.31173 150.31173 167.03681
#
# Poissons Ratio (x) = -0.86619 0.49826
# Poissons Ratio (y) = -0.86619 0.49826
# Poissons Ratio (z) = 0.44837 0.44837
#
# Static dielectric constant tensor:
#      x y z
#    x 2.110580 0.000000 0.000000 
#    y 0.000000 2.110580 0.000000 
#    z 0.000000 0.000000 2.003690 
# 
# From -- ./inp_files/98.got.cif
#   From: 2010.05.17/outbox.cif.g08.bks.cpg/sg157_cif.got.tgz:98.got - 2010.05.20 10:49:36.
