data_PCOD9577656
_publ_section_title
;
Structure prediction by ZEFSAII (Michael W. Deem and Ramdas Pophale) SiO2 
 PCOD9577656
Probable space group: P -3 1 M 
;
_chemical_formula_sum "Si O2"
_cell_formula_units_Z 96
_cell_length_a 18.874230
_cell_length_b 18.874230
_cell_length_c 19.753371
_cell_angle_alpha 90.000000
_cell_angle_beta 90.000000
_cell_angle_gamma 120.000000
_cell_volume 6094.110691
_symmetry_space_group_name_H-M "P -3 1 M "
_symmetry_group_IT_number 162
_symmetry_cell_setting 'hexagonal'
loop_
_space_group_symop_operation_xyz
x,y,z
-y,x-y,z
-x+y,-x,z
-y,-x,-z
-x+y,y,-z
x,x-y,-z
-x,-y,-z
y,-x+y,-z
x-y,x,-z
y,x,z
x-y,-y,z
-x,-x+y,z
loop_
_atom_site_type_symbol
_atom_site_label
_atom_site_fract_x
_atom_site_fract_y
_atom_site_fract_z
Si Si1 0.808571 0.904286 0.917655
Si Si2 0.366164 0.461698 0.573879
Si Si3 0.905165 0.533587 0.857094
Si Si4 0.808468 0.616935 0.918851
Si Si5 0.331920 0.830414 0.284629
Si Si6 0.498495 0.668081 0.715371
Si Si7 0.461698 0.366164 0.426121
Si Si8 0.371577 0.905165 0.857094
O O1 0.856369 0.856369 0.896387
O O2 0.712902 0.856451 0.896690
O O3 0.856369 0.000000 0.896387
O O4 0.809027 0.904514 0.000000
O O5 0.394464 0.394464 0.577341
O O6 0.320770 0.460180 0.642220
O O7 0.450781 0.549219 0.574514
O O8 0.327099 0.455257 0.500000
O O9 0.854109 0.569734 0.892273
O O10 0.895188 0.537096 0.775890
O O11 0.877756 0.438878 0.872896
O O12 0.000000 0.587138 0.876014
O O13 0.715626 0.569734 0.892273
O O14 0.808341 0.616682 0.000000
O O15 0.249849 0.750151 0.263575
O O16 0.405385 0.810770 0.291495
O O17 0.539820 0.679230 0.642220
O O18 0.537096 0.641908 0.775890
O O19 0.394464 0.394464 0.422659
O O20 0.412862 0.000000 0.876014
#
# Coordination Sequence:
#
# PCOD9577656 Si02
#       8
#    12  12  12  12  12  12  12  12
#     4   9  17  30  51  78 106 131 153 184 236 308
#     4   8  14  25  41  61  86 118 156 195 233 277
#     4  10  21  37  55  73  96 131 172 208 245 294
#     4  11  22  37  54  77 101 127 160 209 262 300
#     4  10  18  29  45  66  92 123 158 198 243 287
#     4  10  18  29  45  66  92 123 158 198 243 287
#     4   8  14  25  41  61  86 118 156 195 233 277
#     4  10  21  37  55  73  96 131 172 208 245 294
#
# _framework density 15.752914000000001
#
# number of rings (size 3 to 8) (size 9 to 14) (size 15 to 20)
#    0.000    2.500    1.250    2.625    0.000    6.000 
#    0.750    1.250    0.000    1.500    0.000    0.000 
#    0.000    0.000    0.000    0.000    0.000    0.000 
#
# Total GULP energy -534532.071991 kJ/mol
# GULP energy per Si atom -5568.042417 kJ/mol
# Density = 1.571706 g / cm^3
# Si number density = 15.752914 Si / 1000 Ang^3
#
#
#
# Elastic Constant Matrix: (Units=GPa)
#
#
# Indices 1 2 3 4 5 6 
#
# 1 91.4427 55.5933 29.6004 0.0000 0.0000 0.0000
# 2 55.5933 91.4427 29.6004 0.0000 0.0000 0.0000
# 3 29.6004 29.6004 54.6090 0.0000 0.0000 0.0000
# 4 0.0000 0.0000 0.0000 19.7717 0.0000 0.0000
# 5 0.0000 0.0000 0.0000 0.0000 19.7717 0.0000
# 6 0.0000 0.0000 0.0000 0.0000 0.0000 17.9247
#
#
#
# Elastic Compliance Matrix: (Units=1/GPa)
#
#
# Indices 1 2 3 4 5 6 
#
# 1 0.018297 -0.009597 -0.004716 0.000000 0.000000 0.000000
# 2 -0.009597 0.018297 -0.004716 0.000000 0.000000 0.000000
# 3 -0.004716 -0.004716 0.023424 0.000000 0.000000 0.000000
# 4 0.000000 0.000000 0.000000 0.050577 0.000000 0.000000
# 5 0.000000 0.000000 0.000000 0.000000 0.050577 0.000000
# 6 0.000000 0.000000 0.000000 0.000000 0.000000 0.055789
#
#
# Mechanical properties :
#
#
# Convention : Reuss Voigt Hill
#
# Bulk Modulus (GPa) = 45.53510 51.89808 48.71659
# Shear Modulus (GPa) = 19.05928 19.67364 19.36646
#
# Velocity S-wave (km/s) = 3.48212 3.53780 3.51007
# Velocity P-wave (km/s) = 6.71829 7.05015 6.88622
#
# Compressibility (1/GPa) = 0.02196108
#
# Stress axis : x y z
#
# Youngs Moduli (GPa) = 54.65355 54.65355 42.69112
#
# Poissons Ratio (x) = 0.52453 0.20131
# Poissons Ratio (y) = 0.52453 0.20131
# Poissons Ratio (z) = 0.25772 0.25772
#
# Static dielectric constant tensor:
#      x y z
#    x 1.515920 0.000000 0.000000 
#    y 0.000000 1.515920 0.000000 
#    z 0.000000 0.000000 1.549830 
# 
# From -- ./inp_files/3916.got.cif
#   From: 2010.05.17/outbox.cif.g08.bks.cpg/sg162_2_cif.got.tgz:3916.got - 2010.05.20 10:53:12.
