data_PCOD9577030
_publ_section_title
;
Structure prediction by ZEFSAII (Michael W. Deem and Ramdas Pophale) SiO2 
 PCOD9577030
Probable space group: R 3 2
;
_chemical_formula_sum "Si O2"
_cell_formula_units_Z 69
_cell_length_a 14.881610
_cell_length_b 14.881610
_cell_length_c 14.615326
_cell_angle_alpha 90.000000
_cell_angle_beta 90.000000
_cell_angle_gamma 120.000000
_cell_volume 2803.102484
_symmetry_space_group_name_H-M "R 3 2"
_symmetry_group_IT_number 155
_symmetry_cell_setting 'hexagonal'
loop_
_space_group_symop_operation_xyz
x,y,z
-y,x-y,z
-x+y,-x,z
x-y,-y,-z
-x,-x+y,-z
y,x,-z
2/3+x,1/3+y,1/3+z
2/3-y,1/3+x-y,1/3+z
2/3-x+y,1/3-x,1/3+z
2/3+x-y,1/3-y,1/3-z
2/3-x,1/3-x+y,1/3-z
2/3+y,1/3+x,1/3-z
1/3+x,2/3+y,2/3+z
1/3-y,2/3+x-y,2/3+z
1/3-x+y,2/3-x,2/3+z
1/3+x-y,2/3-y,2/3-z
1/3-x,2/3-x+y,2/3-z
1/3+y,2/3+x,2/3-z
loop_
_atom_site_type_symbol
_atom_site_label
_atom_site_fract_x
_atom_site_fract_y
_atom_site_fract_z
Si Si1 0.510081 0.874491 0.813778
Si Si2 0.035610 0.234564 0.899284
Si Si3 0.551182 0.769841 0.328826
Si Si4 0.333334 0.666667 0.054722
Si Si5 0.089824 0.666667 0.166667
O O1 0.394883 0.853300 0.797999
O O2 0.543254 0.796165 0.773397
O O3 0.590147 0.987767 0.777365
O O4 0.510731 0.882613 0.924470
O O5 0.066721 0.333334 0.833334
O O6 0.000000 0.246561 0.000000
O O7 0.666667 0.783150 0.333334
O O8 0.436125 0.669043 0.322425
O O9 0.552205 0.816595 0.231021
O O10 0.333334 0.666668 0.166667
#
# Coordination Sequence:
#
# PCOD9577030 Si02
#       5
#    18  18  18   6   9
#     4  11  24  47  74 106 153 199 256 321 391 459
#     4  12  28  48  79 115 154 204 268 325 394 474
#     4  10  23  42  70 108 150 200 252 313 384 458
#     4  12  21  42  72 105 145 200 262 312 387 453
#     4  10  22  42  72 104 146 202 248 308 388 462
#
# _framework density 24.615582
#
# number of rings (size 3 to 8) (size 9 to 14) (size 15 to 20)
#    0.000    1.043    2.609    2.870    3.652    5.217 
#    9.391    0.000    0.000    0.000    0.000    0.000 
#    0.000    0.000    0.000    0.000    0.000    0.000 
#
# Total GULP energy -128300.201774 kJ/mol
# GULP energy per Si atom -5578.269642 kJ/mol
# Density = 2.455956 g / cm^3
# Si number density = 24.615582 Si / 1000 Ang^3
#
#
#
# Elastic Constant Matrix: (Units=GPa)
#
#
# Indices 1 2 3 4 5 6 
#
# 1 95.7897 60.1828 38.2204 2.6939 -0.0001 0.0000
# 2 60.1828 95.7896 38.2205 -2.6943 0.0003 0.0000
# 3 38.2204 38.2205 111.1789 -0.0001 0.0000 0.0000
# 4 2.6939 -2.6943 -0.0001 27.5482 0.0000 0.0003
# 5 -0.0001 0.0003 0.0000 0.0000 27.5482 2.6939
# 6 0.0000 0.0000 0.0000 0.0003 2.6939 17.8032
#
#
#
# Elastic Compliance Matrix: (Units=1/GPa)
#
#
# Indices 1 2 3 4 5 6 
#
# 1 0.018108 -0.010398 -0.002651 -0.002788 0.000000 0.000000
# 2 -0.010398 0.018108 -0.002651 0.002788 0.000000 0.000000
# 3 -0.002651 -0.002651 0.010817 0.000000 0.000000 0.000000
# 4 -0.002788 0.002788 0.000000 0.036845 0.000000 -0.000001
# 5 0.000000 0.000000 0.000000 0.000000 0.036845 -0.005575
# 6 0.000000 0.000000 0.000000 -0.000001 -0.005575 0.057013
#
#
# Mechanical properties :
#
#
# Convention : Reuss Voigt Hill
#
# Bulk Modulus (GPa) = 63.95803 64.00061 63.97932
# Shear Modulus (GPa) = 23.32656 25.65555 24.49106
#
# Velocity S-wave (km/s) = 3.08171 3.23189 3.15769
# Velocity P-wave (km/s) = 6.22107 6.32323 6.27236
#
# Compressibility (1/GPa) = 0.01563525
#
# Stress axis : x y z
#
# Youngs Moduli (GPa) = 55.22307 55.22296 92.44737
#
# Poissons Ratio (x) = 0.57421 0.24504
# Poissons Ratio (y) = 0.57421 0.24505
# Poissons Ratio (z) = 0.14638 0.14638
#
# Static dielectric constant tensor:
#      x y z
#    x 2.282850 0.000000 0.000000 
#    y 0.000000 2.282850 0.000000 
#    z 0.000000 0.000000 1.683610 
# 
# From -- ./inp_files/5930.got.cif
#   From: 2010.05.17/outbox.cif.g08.bks.cpg/sg155_3_cif.got.tgz:5930.got - 2010.05.20 10:44:35.
