data_PCOD9577780
_publ_section_title
;
Structure prediction by ZEFSAII (Michael W. Deem and Ramdas Pophale) SiO2 
 PCOD9577780
Probable space group: P -3 1 M 
;
_chemical_formula_sum "Si O2"
_cell_formula_units_Z 96
_cell_length_a 18.131100
_cell_length_b 18.131100
_cell_length_c 20.542302
_cell_angle_alpha 90.000000
_cell_angle_beta 90.000000
_cell_angle_gamma 120.000000
_cell_volume 5848.278525
_symmetry_space_group_name_H-M "P -3 1 M "
_symmetry_group_IT_number 162
_symmetry_cell_setting 'hexagonal'
loop_
_space_group_symop_operation_xyz
x,y,z
-y,x-y,z
-x+y,-x,z
-y,-x,-z
-x+y,y,-z
x,x-y,-z
-x,-y,-z
y,-x+y,-z
x-y,x,-z
y,x,z
x-y,-y,z
-x,-x+y,z
loop_
_atom_site_type_symbol
_atom_site_label
_atom_site_fract_x
_atom_site_fract_y
_atom_site_fract_z
Si Si1 0.666384 0.160572 0.763405
Si Si2 0.494206 0.333809 0.387958
Si Si3 0.634853 0.731538 0.120857
Si Si4 0.906272 0.265067 0.500000
Si Si5 0.160572 0.666384 0.236595
Si Si6 0.507635 0.667500 1.000000
Si Si7 0.666191 0.505794 0.387958
Si Si8 0.634853 0.731539 0.879143
O O1 0.692942 0.109482 0.812150
O O2 0.740469 0.259531 0.769617
O O3 0.575358 0.150716 0.779726
O O4 0.664767 0.136426 0.687744
O O5 0.417714 0.309711 0.437166
O O6 0.471659 0.335233 0.312256
O O7 0.575974 0.424026 0.403853
O O8 0.517383 0.258691 0.394561
O O9 0.709590 0.709590 0.114619
O O10 0.661464 0.830732 0.118017
O O11 0.566741 0.685136 0.063014
O O12 0.832074 0.167927 0.500000
O O13 0.891997 0.309712 0.437165
O O14 0.000000 0.279997 0.500000
O O15 0.109482 0.692942 0.187850
O O16 0.566741 0.685136 0.936986
O O17 0.425332 0.574669 0.000000
O O18 0.481029 0.740515 0.000000
O O19 0.709590 0.709590 0.885381
#
# Coordination Sequence:
#
# PCOD9577780 Si02
#       8
#    12  12  12  12  12  12  12  12
#     4   9  17  29  46  69  98 131 163 191 219 256
#     4   9  17  29  46  69  98 131 162 188 215 254
#     4  10  21  35  50  69  93 122 156 196 242 285
#     4  10  21  35  49  66  89 117 150 190 237 283
#     4   9  17  29  46  69  98 131 163 191 219 256
#     4  10  20  33  50  73 102 134 163 188 216 257
#     4   9  17  29  46  69  98 131 162 188 215 254
#     4  10  21  35  50  69  93 122 156 196 242 285
#
# _framework density 16.415087
#
# number of rings (size 3 to 8) (size 9 to 14) (size 15 to 20)
#    0.000    2.500    0.000    2.125    0.000    6.500 
#    0.000    6.250    0.000    0.375    0.000    0.000 
#    0.000    3.000    0.000   12.500    0.000    0.000 
#
# Total GULP energy -535648.190184 kJ/mol
# GULP energy per Si atom -5579.668648 kJ/mol
# Density = 1.637773 g / cm^3
# Si number density = 16.415087 Si / 1000 Ang^3
#
#
#
# Elastic Constant Matrix: (Units=GPa)
#
#
# Indices 1 2 3 4 5 6 
#
# 1 84.3728 78.2171 42.5295 0.0000 0.0000 0.0000
# 2 78.2171 84.3728 42.5295 0.0000 0.0000 0.0000
# 3 42.5295 42.5295 60.4666 0.0000 0.0000 0.0000
# 4 0.0000 0.0000 0.0000 10.1867 0.0000 0.0000
# 5 0.0000 0.0000 0.0000 0.0000 10.1867 0.0000
# 6 0.0000 0.0000 0.0000 0.0000 0.0000 3.0778
#
#
#
# Elastic Compliance Matrix: (Units=1/GPa)
#
#
# Indices 1 2 3 4 5 6 
#
# 1 0.086092 -0.076361 -0.006844 0.000000 -0.000001 0.000000
# 2 -0.076361 0.086092 -0.006844 0.000000 0.000001 0.000000
# 3 -0.006844 -0.006844 0.026166 0.000000 0.000000 0.000000
# 4 0.000000 0.000000 0.000000 0.098167 0.000000 0.000001
# 5 -0.000001 0.000001 0.000000 0.000000 0.098167 0.000000
# 6 0.000000 0.000000 0.000000 0.000001 0.000000 0.324905
#
#
# Mechanical properties :
#
#
# Convention : Reuss Voigt Hill
#
# Bulk Modulus (GPa) = 54.79246 61.75162 58.27204
# Shear Modulus (GPa) = 5.52015 9.08598 7.30307
#
# Velocity S-wave (km/s) = 1.83580 2.35524 2.11155
# Velocity P-wave (km/s) = 6.15998 6.71541 6.44368
#
# Compressibility (1/GPa) = 0.01825069
#
# Stress axis : x y z
#
# Youngs Moduli (GPa) = 11.61550 11.61550 38.21725
#
# Poissons Ratio (x) = 0.88697 0.26158
# Poissons Ratio (y) = 0.88697 0.26158
# Poissons Ratio (z) = 0.07950 0.07950
#
# Static dielectric constant tensor:
#      x y z
#    x 1.531320 0.000000 0.000000 
#    y 0.000000 1.531320 0.000000 
#    z 0.000000 0.000000 1.570450 
# 
# From -- ./inp_files/3882.got.cif
#   From: 2010.05.17/outbox.cif.g08.bks.cpg/sg162_2_cif.got.tgz:3882.got - 2010.05.20 10:53:12.
