data_PCOD9577811
_publ_section_title
;
Structure prediction by ZEFSAII (Michael W. Deem and Ramdas Pophale) SiO2 
 PCOD9577811
Probable space group: P -3 1 M 
;
_chemical_formula_sum "Si O2"
_cell_formula_units_Z 84
_cell_length_a 19.016583
_cell_length_b 19.016583
_cell_length_c 14.646460
_cell_angle_alpha 90.000000
_cell_angle_beta 90.000000
_cell_angle_gamma 120.000000
_cell_volume 4586.995015
_symmetry_space_group_name_H-M "P -3 1 M "
_symmetry_group_IT_number 162
_symmetry_cell_setting 'hexagonal'
loop_
_space_group_symop_operation_xyz
x,y,z
-y,x-y,z
-x+y,-x,z
-y,-x,-z
-x+y,y,-z
x,x-y,-z
-x,-y,-z
y,-x+y,-z
x-y,x,-z
y,x,z
x-y,-y,z
-x,-x+y,z
loop_
_atom_site_type_symbol
_atom_site_label
_atom_site_fract_x
_atom_site_fract_y
_atom_site_fract_z
Si Si1 0.149614 0.794028 0.297298
Si Si2 0.667044 0.166612 0.989820
Si Si3 0.906350 0.092888 0.391541
Si Si4 0.361870 0.908529 0.821167
Si Si5 0.315552 0.409050 0.799503
Si Si6 0.567374 0.393926 0.701163
Si Si7 0.233527 0.715946 0.399120
O O1 0.107469 0.841740 0.336897
O O2 0.098337 0.711484 0.240023
O O3 0.223138 0.854407 0.231964
O O4 0.189108 0.766920 0.378255
O O5 0.665325 0.112002 0.074543
O O6 0.744827 0.255174 0.000000
O O7 0.585001 0.170002 0.000000
O O8 0.671093 0.129625 0.892966
O O9 0.897365 0.102636 0.500000
O O10 0.000000 0.154479 0.366232
O O11 0.883858 0.000000 0.377917
O O12 0.384858 0.841777 0.784119
O O13 0.437012 0.000000 0.813790
O O14 0.345532 0.345532 0.810491
O O15 0.368112 0.475014 0.721343
O O16 0.621033 0.448706 0.617544
O O17 0.559329 0.306556 0.676742
O O18 0.268412 0.731588 0.500000
#
# Coordination Sequence:
#
# PCOD9577811 Si02
#       7
#    12  12  12  12  12  12  12
#     4  10  21  37  57  83 114 149 192 231 278 346
#     4  12  24  39  59  86 119 151 196 238 287 340
#     4  10  20  36  60  89 117 145 180 227 286 350
#     4  11  22  38  58  83 116 153 190 237 289 337
#     4  11  22  38  58  83 116 153 190 237 289 337
#     4  10  21  33  55  79 107 143 199 235 279 332
#     4  10  20  35  54  77 109 150 192 239 286 327
#
# _framework density 18.312643999999999
#
# number of rings (size 3 to 8) (size 9 to 14) (size 15 to 20)
#    0.000    1.429    2.857    3.143    0.000    1.143 
#    2.571    0.000    0.000   32.571    0.000    0.000 
#    0.000    0.000    0.000    6.143    0.000    0.000 
#
# Total GULP energy -468126.664951 kJ/mol
# GULP energy per Si atom -5572.936488 kJ/mol
# Density = 1.827096 g / cm^3
# Si number density = 18.312644 Si / 1000 Ang^3
#
#
#
# Elastic Constant Matrix: (Units=GPa)
#
#
# Indices 1 2 3 4 5 6 
#
# 1 69.3478 18.5239 24.9748 -0.0006 4.7917 0.0000
# 2 18.5239 69.3478 24.9748 0.0006 -4.7917 0.0000
# 3 24.9748 24.9748 78.9655 0.0000 0.0000 0.0000
# 4 -0.0006 0.0006 0.0000 8.1949 0.0000 -4.7917
# 5 4.7917 -4.7917 0.0000 0.0000 8.1949 -0.0006
# 6 0.0000 0.0000 0.0000 -4.7917 -0.0006 25.4120
#
#
#
# Elastic Compliance Matrix: (Units=1/GPa)
#
#
# Indices 1 2 3 4 5 6 
#
# 1 0.017994 -0.004120 -0.004388 0.000002 -0.012930 0.000000
# 2 -0.004120 0.017994 -0.004388 -0.000002 0.012930 0.000000
# 3 -0.004388 -0.004388 0.015440 0.000000 0.000000 0.000000
# 4 0.000002 -0.000002 0.000000 0.137148 0.000000 0.025861
# 5 -0.012930 0.012930 0.000000 0.000000 0.137148 0.000003
# 6 0.000000 0.000000 0.000000 0.025861 0.000003 0.044228
#
#
# Mechanical properties :
#
#
# Convention : Reuss Voigt Hill
#
# Bulk Modulus (GPa) = 39.00766 39.40091 39.20429
# Shear Modulus (GPa) = 12.36736 18.30619 15.33678
#
# Velocity S-wave (km/s) = 2.60156 3.16515 2.89709
# Velocity P-wave (km/s) = 5.51102 5.90931 5.71364
#
# Compressibility (1/GPa) = 0.02563599
#
# Stress axis : x y z
#
# Youngs Moduli (GPa) = 55.57320 55.57320 64.76886
#
# Poissons Ratio (x) = 0.22894 0.28422
# Poissons Ratio (y) = 0.22894 0.28422
# Poissons Ratio (z) = 0.24387 0.24387
#
# Static dielectric constant tensor:
#      x y z
#    x 1.631210 0.000000 0.000000 
#    y 0.000000 1.631210 0.000000 
#    z 0.000000 0.000000 1.635190 
# 
# From -- ./inp_files/3161.got.cif
#   From: 2010.05.17/outbox.cif.g08.bks.cpg/sg162_2_cif.got.tgz:3161.got - 2010.05.20 10:53:12.
