data_PCOD9577143
_publ_section_title
;
Structure prediction by ZEFSAII (Michael W. Deem and Ramdas Pophale) SiO2 
 PCOD9577143
Probable space group: R 3 2
;
_chemical_formula_sum "Si O2"
_cell_formula_units_Z 69
_cell_length_a 21.840153
_cell_length_b 21.840153
_cell_length_c 7.960525
_cell_angle_alpha 90.000000
_cell_angle_beta 90.000000
_cell_angle_gamma 120.000000
_cell_volume 3288.392850
_symmetry_space_group_name_H-M "R 3 2"
_symmetry_group_IT_number 155
_symmetry_cell_setting 'hexagonal'
loop_
_space_group_symop_operation_xyz
x,y,z
-y,x-y,z
-x+y,-x,z
x-y,-y,-z
-x,-x+y,-z
y,x,-z
2/3+x,1/3+y,1/3+z
2/3-y,1/3+x-y,1/3+z
2/3-x+y,1/3-x,1/3+z
2/3+x-y,1/3-y,1/3-z
2/3-x,1/3-x+y,1/3-z
2/3+y,1/3+x,1/3-z
1/3+x,2/3+y,2/3+z
1/3-y,2/3+x-y,2/3+z
1/3-x+y,2/3-x,2/3+z
1/3+x-y,2/3-y,2/3-z
1/3-x,2/3-x+y,2/3-z
1/3+y,2/3+x,2/3-z
loop_
_atom_site_type_symbol
_atom_site_label
_atom_site_fract_x
_atom_site_fract_y
_atom_site_fract_z
Si Si1 0.330352 0.800148 0.971811
Si Si2 0.952140 0.789852 0.767870
Si Si3 0.803645 0.583234 0.200745
Si Si4 0.333335 0.666667 0.871648
Si Si5 0.374353 0.374353 0.000000
O O1 0.412967 0.835744 0.930249
O O2 0.279435 0.816713 0.855082
O O3 0.306321 0.718002 0.939910
O O4 0.333334 0.820047 0.166667
O O5 0.943002 0.730034 0.640301
O O6 0.037098 0.833286 0.776148
O O7 0.915883 0.754196 0.944470
O O8 0.838518 0.666667 0.166667
O O9 0.333334 0.666668 0.666667
O O10 0.330202 0.333334 0.833334
#
# Coordination Sequence:
#
# PCOD9577143 Si02
#       5
#    18  18  18   6   9
#     4  12  26  41  69 106 143 188 233 297 367 447
#     4  11  24  42  70 100 139 186 235 296 361 439
#     4  11  24  44  71 102 141 187 237 300 370 438
#     4  12  22  41  67 105 142 182 232 288 361 437
#     4  12  26  44  72 110 146 190 244 306 382 442
#
# _framework density 20.982894999999999
#
# number of rings (size 3 to 8) (size 9 to 14) (size 15 to 20)
#    0.000    0.522    2.609    7.043    7.304    0.000 
#    0.000    0.000    5.739    0.000    0.000    0.000 
#    0.000    0.000    0.000    0.000    0.000    0.000 
#
# Total GULP energy -128063.314409 kJ/mol
# GULP energy per Si atom -5567.970192 kJ/mol
# Density = 2.093514 g / cm^3
# Si number density = 20.982895 Si / 1000 Ang^3
#
#
#
# Elastic Constant Matrix: (Units=GPa)
#
#
# Indices 1 2 3 4 5 6 
#
# 1 132.6156 68.3616 16.9992 8.2525 -0.0047 -0.0034
# 2 68.3616 132.6222 17.0141 -8.2572 0.0025 0.0013
# 3 16.9992 17.0141 57.7054 -0.0088 -0.0068 -0.0028
# 4 8.2525 -8.2572 -0.0088 3.5937 -0.0060 -0.0034
# 5 -0.0047 0.0025 -0.0068 -0.0060 3.5981 8.2554
# 6 -0.0034 0.0013 -0.0028 -0.0034 8.2554 32.1295
#
#
#
# Elastic Compliance Matrix: (Units=1/GPa)
#
#
# Indices 1 2 3 4 5 6 
#
# 1 0.021605 -0.016369 -0.001552 -0.087228 -0.000230 0.000053
# 2 -0.016369 0.021605 -0.001535 0.087227 0.000223 -0.000051
# 3 -0.001552 -0.001535 0.018239 0.000082 0.000073 -0.000017
# 4 -0.087228 0.087227 0.000082 0.678997 0.002006 -0.000456
# 5 -0.000230 0.000223 0.000073 0.002006 0.677054 -0.173963
# 6 0.000053 -0.000051 -0.000017 -0.000456 -0.173963 0.075822
#
#
# Mechanical properties :
#
#
# Convention : Reuss Voigt Hill
#
# Bulk Modulus (GPa) = 44.36704 58.63257 51.49980
# Shear Modulus (GPa) = 3.24729 22.56883 12.90806
#
# Velocity S-wave (km/s) = 1.24537 3.28317 2.48295
# Velocity P-wave (km/s) = 4.82268 6.50968 5.72862
#
# Compressibility (1/GPa) = 0.02253926
#
# Stress axis : x y z
#
# Youngs Moduli (GPa) = 46.28486 46.28477 54.82723
#
# Poissons Ratio (x) = 0.75761 0.08508
# Poissons Ratio (y) = 0.75762 0.08415
# Poissons Ratio (z) = 0.07183 0.07104
#
# Static dielectric constant tensor:
#      x y z
#    x 1.816000 0.000000 -0.000010 
#    y 0.000000 1.816020 0.000000 
#    z -0.000010 0.000000 1.790650 
# 
# From -- ./inp_files/2160.got.cif
#   From: 2010.05.17/outbox.cif.g08.bks.cpg/sg155_2_cif.got.tgz:2160.got - 2010.05.20 10:44:35.
