data_PCOD9577975
_publ_section_title
;
Structure prediction by ZEFSAII (Michael W. Deem and Ramdas Pophale) SiO2 
 PCOD9577975
Probable space group: P -3 1 C
;
_chemical_formula_sum "Si O2"
_cell_formula_units_Z 72
_cell_length_a 25.059206
_cell_length_b 25.059206
_cell_length_c 7.722165
_cell_angle_alpha 90.000000
_cell_angle_beta 90.000000
_cell_angle_gamma 120.000000
_cell_volume 4199.565132
_symmetry_space_group_name_H-M "P -3 1 C"
_symmetry_group_IT_number 163
_symmetry_cell_setting 'hexagonal'
loop_
_space_group_symop_operation_xyz
x,y,z
-y,x-y,z
-x+y,-x,z
-y,-x,1/2-z
-x+y,y,1/2-z
x,x-y,1/2-z
-x,-y,-z
y,-x+y,-z
x-y,x,-z
y,x,1/2+z
x-y,-y,1/2+z
-x,-x+y,1/2+z
loop_
_atom_site_type_symbol
_atom_site_label
_atom_site_fract_x
_atom_site_fract_y
_atom_site_fract_z
Si Si1 0.140375 0.058248 0.950032
Si Si2 0.763952 0.129348 0.183260
Si Si3 0.040353 0.559549 0.118088
Si Si4 0.361046 0.401998 0.836815
Si Si5 0.253672 0.310014 0.352373
Si Si6 0.737929 0.938706 0.974212
O O1 0.148549 0.074275 0.750000
O O2 0.110118 0.095068 0.034349
O O3 0.207684 0.076460 0.018440
O O4 0.801115 0.198886 0.250000
O O5 0.789073 0.096336 0.315354
O O6 0.692356 0.094810 0.227734
O O7 0.769110 0.113531 0.983774
O O8 0.076583 0.538292 0.250000
O O9 0.992479 0.569474 0.229569
O O10 0.000000 0.500000 0.000000
O O11 0.068470 0.621306 0.002342
O O12 0.340927 0.329173 0.864483
O O13 0.227870 0.299346 0.156006
O O14 0.231534 0.242804 0.432505
#
# Coordination Sequence:
#
# PCOD9577975 Si02
#       6
#    12  12  12  12  12  12
#     4  12  28  45  62  72  91 114 152 224 315 385
#     4  11  24  34  54  78 110 143 192 214 267 340
#     4   9  17  27  52  83 105 144 189 213 252 302
#     4  10  16  34  50  74 117 142 174 225 263 300
#     4  11  20  37  57  79 103 142 172 216 274 320
#     4  11  23  38  58  79  96 126 171 230 276 339
#
# _framework density 17.144632999999999
#
# number of rings (size 3 to 8) (size 9 to 14) (size 15 to 20)
#    0.000    1.333    5.000    2.667    4.667    0.000 
#    0.000    0.000    0.000    0.000    0.000    0.000 
#    0.000    0.000    0.000   13.500   22.000    0.167 
#
# Total GULP energy -401222.608529 kJ/mol
# GULP energy per Si atom -5572.536230 kJ/mol
# Density = 1.710561 g / cm^3
# Si number density = 17.144633 Si / 1000 Ang^3
#
#
#
# Elastic Constant Matrix: (Units=GPa)
#
#
# Indices 1 2 3 4 5 6 
#
# 1 41.2665 23.8303 10.6347 0.0003 12.4062 0.0000
# 2 23.8303 41.2665 10.6347 -0.0003 -12.4062 0.0000
# 3 10.6347 10.6347 66.7341 0.0000 0.0000 0.0000
# 4 0.0003 -0.0003 0.0000 4.5800 0.0000 -12.4062
# 5 12.4062 -12.4062 0.0000 0.0000 4.5800 0.0003
# 6 0.0000 0.0000 0.0000 -12.4062 0.0003 8.7181
#
#
#
# Elastic Compliance Matrix: (Units=1/GPa)
#
#
# Indices 1 2 3 4 5 6 
#
# 1 -0.001943 0.018148 -0.002583 0.000001 0.054421 0.000000
# 2 0.018148 -0.001943 -0.002583 -0.000001 -0.054421 0.000000
# 3 -0.002583 -0.002583 0.015808 0.000000 0.000000 0.000000
# 4 0.000001 -0.000001 0.000000 -0.076485 0.000000 -0.108841
# 5 0.054421 -0.054421 0.000000 0.000000 -0.076485 0.000003
# 6 0.000000 0.000000 0.000000 -0.108841 0.000003 -0.040181
#
#
# Mechanical properties :
#
#
# Convention : Reuss Voigt Hill
#
# Bulk Modulus (GPa) = 26.39291 26.60741 26.50016
# Shear Modulus (GPa) = -25.69847 10.52010 -7.58919
#
# Velocity S-wave (km/s) = -3.87579 2.47980 -2.10622
# Velocity P-wave (km/s) = 2.14507 4.87363 3.09443
#
# Compressibility (1/GPa) = 0.03788896
#
# Stress axis : x y z
#
# Youngs Moduli (GPa) = -514.79929 -514.79929 63.25936
#
# Poissons Ratio (x) = 9.34260 0.16337
# Poissons Ratio (y) = 9.34260 0.16337
# Poissons Ratio (z) = -1.32948 -1.32948
#
# Static dielectric constant tensor:
#      x y z
#    x 1.613830 0.000000 0.000000 
#    y 0.000000 1.613830 0.000000 
#    z 0.000000 0.000000 1.679450 
# 
# From -- ./inp_files/1247.got.cif
#   From: 2010.05.17/outbox.cif.g08.bks.cpg/sg163_1_cif.got.tgz:1247.got - 2010.05.20 10:56:03.
