data_PCOD9577637
_publ_section_title
;
Structure prediction by ZEFSAII (Michael W. Deem and Ramdas Pophale) SiO2 
 PCOD9577637
Probable space group: P -3 1 M 
;
_chemical_formula_sum "Si O2"
_cell_formula_units_Z 58
_cell_length_a 18.062686
_cell_length_b 18.062686
_cell_length_c 14.197166
_cell_angle_alpha 90.000000
_cell_angle_beta 90.000000
_cell_angle_gamma 120.000000
_cell_volume 4011.409111
_symmetry_space_group_name_H-M "P -3 1 M "
_symmetry_group_IT_number 162
_symmetry_cell_setting 'hexagonal'
loop_
_space_group_symop_operation_xyz
x,y,z
-y,x-y,z
-x+y,-x,z
-y,-x,-z
-x+y,y,-z
x,x-y,-z
-x,-y,-z
y,-x+y,-z
x-y,x,-z
y,x,z
x-y,-y,z
-x,-x+y,z
loop_
_atom_site_type_symbol
_atom_site_label
_atom_site_fract_x
_atom_site_fract_y
_atom_site_fract_z
Si Si1 0.779600 0.389800 0.000000
Si Si2 0.467333 0.565812 0.820628
Si Si3 0.200804 0.477507 0.683483
Si Si4 0.410333 0.317073 0.704790
Si Si5 0.097863 0.632879 0.490596
Si Si6 0.666668 0.333334 0.614948
O O1 0.712642 0.425283 0.000000
O O2 0.839861 0.416346 0.909284
O O3 0.533841 0.533841 0.846840
O O4 0.509104 0.649678 0.755662
O O5 0.393487 0.489724 0.759246
O O6 0.232576 0.415357 0.724008
O O7 0.151014 0.446520 0.585042
O O8 0.281764 0.570594 0.656921
O O9 0.329226 0.329226 0.725504
O O10 0.429581 0.332718 0.593412
O O11 0.132671 0.566336 0.500000
O O12 0.000000 0.576592 0.456475
O O13 0.666668 0.333334 0.500000
#
# Coordination Sequence:
#
# PCOD9577637 Si02
#       6
#     6  12  12  12  12   4
#     4  10  23  36  52  66  84 110 152 196 233 260
#     4  11  21  34  48  65  86 115 147 191 235 275
#     4  12  19  29  44  64  89 119 159 189 233 263
#     4  10  20  30  43  61  90 120 151 188 228 263
#     4  10  17  28  41  63  92 121 150 189 232 272
#     4  12  21  24  39  67  92 121 159 201 222 259
#
# _framework density 14.458759000000001
#
# number of rings (size 3 to 8) (size 9 to 14) (size 15 to 20)
#    0.207    1.034    4.138    4.655    0.000    0.000 
#    0.000    0.000    0.000    0.000    0.000    0.000 
#    0.000    0.000    0.000    4.966    0.000   39.103 
#
# Total GULP energy -323518.727175 kJ/mol
# GULP energy per Si atom -5577.909089 kJ/mol
# Density = 1.442585 g / cm^3
# Si number density = 14.458759 Si / 1000 Ang^3
#
#
#
# Elastic Constant Matrix: (Units=GPa)
#
#
# Indices 1 2 3 4 5 6 
#
# 1 73.7579 30.1916 29.0607 0.0000 -0.4120 0.0001
# 2 30.1916 73.7578 29.0608 -0.0001 0.4120 0.0000
# 3 29.0607 29.0608 77.7014 0.0000 0.0000 0.0000
# 4 0.0000 -0.0001 0.0000 18.5097 -0.0001 0.4121
# 5 -0.4120 0.4120 0.0000 -0.0001 18.5097 0.0000
# 6 0.0001 0.0000 0.0000 0.4121 0.0000 21.7832
#
#
#
# Elastic Compliance Matrix: (Units=1/GPa)
#
#
# Indices 1 2 3 4 5 6 
#
# 1 0.017563 -0.005400 -0.004549 0.000000 0.000511 0.000000
# 2 -0.005400 0.017563 -0.004549 0.000000 -0.000511 0.000000
# 3 -0.004549 -0.004549 0.016273 0.000000 0.000000 0.000000
# 4 0.000000 0.000000 0.000000 0.054049 0.000000 -0.001022
# 5 0.000511 -0.000511 0.000000 0.000000 0.054049 0.000000
# 6 0.000000 0.000000 0.000000 -0.001022 0.000000 0.045926
#
#
# Mechanical properties :
#
#
# Convention : Reuss Voigt Hill
#
# Bulk Modulus (GPa) = 44.63696 44.64925 44.64310
# Shear Modulus (GPa) = 20.67077 20.88743 20.77910
#
# Velocity S-wave (km/s) = 3.78516 3.80494 3.79506
# Velocity P-wave (km/s) = 7.07405 7.08879 7.08142
#
# Compressibility (1/GPa) = 0.02240296
#
# Stress axis : x y z
#
# Youngs Moduli (GPa) = 56.93644 56.93631 61.45254
#
# Poissons Ratio (x) = 0.30744 0.27957
# Poissons Ratio (y) = 0.30744 0.27957
# Poissons Ratio (z) = 0.25902 0.25902
#
# Static dielectric constant tensor:
#      x y z
#    x 1.506110 0.000000 0.000000 
#    y 0.000000 1.506110 0.000000 
#    z 0.000000 0.000000 1.485600 
# 
# From -- ./inp_files/3043.got.cif
#   From: 2010.05.17/outbox.cif.g08.bks.cpg/sg162_2_cif.got.tgz:3043.got - 2010.05.20 10:53:12.
