data_PCOD9577520
_publ_section_title
;
Structure prediction by ZEFSAII (Michael W. Deem and Ramdas Pophale) SiO2 
 PCOD9577520
Probable space group: R 3 M
;
_chemical_formula_sum "Si O2"
_cell_formula_units_Z 48
_cell_length_a 21.000000
_cell_length_b 21.000000
_cell_length_c 21.000000
_cell_angle_alpha 90.000000
_cell_angle_beta 90.000000
_cell_angle_gamma 120.000000
_cell_volume 8020.261264
_symmetry_space_group_name_H-M "R 3 M"
_symmetry_group_IT_number 160
_symmetry_cell_setting 'hexagonal'
loop_
_space_group_symop_operation_xyz
x,y,z
-y,x-y,z
-x+y,-x,z
-x+y,y,z
x,x-y,z
-y,-x,z
2/3+x,1/3+y,1/3+z
2/3-y,1/3+x-y,1/3+z
2/3-x+y,1/3-x,1/3+z
2/3-x+y,1/3+y,1/3+z
2/3+x,1/3+x-y,1/3+z
2/3-y,1/3-x,1/3+z
1/3+x,2/3+y,2/3+z
1/3-y,2/3+x-y,2/3+z
1/3-x+y,2/3-x,2/3+z
1/3-x+y,2/3+y,2/3+z
1/3+x,2/3+x-y,2/3+z
1/3-y,2/3-x,2/3+z
loop_
_atom_site_type_symbol
_atom_site_label
_atom_site_fract_x
_atom_site_fract_y
_atom_site_fract_z
Si Si1 0.857181 0.002209 0.066037
Si Si2 0.668879 0.554803 0.271228
Si Si3 0.438615 0.144298 0.522147
Si Si4 0.377489 0.116252 0.897363
Si Si5 0.944996 0.547676 0.640039
Si Si6 0.474290 0.809691 0.478776
Si Si7 0.041986 0.355154 0.108549
Si Si8 0.393253 0.272113 0.044435
O O1 0.836279 0.918140 0.061339
O O2 0.832879 0.011598 0.136379
O O3 0.818346 0.015396 0.005946
O O4 0.943147 0.056853 0.059161
O O5 0.598046 0.556122 0.245950
O O6 0.734024 0.637722 0.282754
O O7 0.686785 0.516101 0.214101
O O8 0.445606 0.222803 0.536224
O O9 0.442138 0.104928 0.586757
O O10 0.365185 0.093998 0.480958
O O11 0.401634 0.200817 0.886194
O O12 0.384738 0.079428 0.831592
O O13 0.407261 0.111671 0.969077
O O14 0.928208 0.464104 0.641880
O O15 0.942638 0.575644 0.711751
O O16 0.387284 0.774567 0.472144
O O17 0.498200 0.749100 0.476593
O O18 0.510235 0.867590 0.421566
O O19 0.958780 0.303257 0.079046
O O20 0.366670 0.183335 0.046076
#
# Coordination Sequence:
#
# PCOD9577520 Si02
#       8
#    18  18  18  18  18  18  18  18
#     4  11  22  36  55  82 118 160 202 243 288 347
#     4  12  21  35  57  86 119 157 195 234 290 352
#     4  11  23  40  60  85 116 153 200 246 295 351
#     4  11  22  38  59  87 122 154 193 246 298 351
#     4  12  24  41  63  89 122 156 194 241 296 353
#     4  11  22  36  55  82 118 160 203 243 287 343
#     4  12  21  39  60  87 116 154 196 243 294 348
#     4  10  21  37  57  84 118 158 198 238 290 351
#
# _framework density 5.9848420000000004
#
# number of rings (size 3 to 8) (size 9 to 14) (size 15 to 20)
#    0.000    0.750    5.000    3.250    0.000    3.500 
#    0.000    3.750    0.000    0.250    0.000    0.000 
#    0.000    1.000    0.000    0.000    0.000    0.000 
#
# Total GULP energy -267603.573512 kJ/mol
# GULP energy per Si atom -5575.074448 kJ/mol
# Density = 0.597122 g / cm^3
# Si number density = 5.984842 Si / 1000 Ang^3
#
#
#
# Elastic Constant Matrix: (Units=GPa)
#
#
# Indices 1 2 3 4 5 6 
#
# 1 63.8305 31.3006 55.5471 -0.7024 -0.0008 0.0000
# 2 31.3006 63.8305 55.5471 0.7024 0.0008 0.0000
# 3 55.5471 55.5471 170.7040 0.0000 0.0000 0.0000
# 4 -0.7024 0.7024 0.0000 14.7273 0.0000 0.0008
# 5 -0.0008 0.0008 0.0000 0.0000 14.7273 -0.7024
# 6 0.0000 0.0000 0.0000 0.0008 -0.7024 16.2650
#
#
#
# Elastic Compliance Matrix: (Units=1/GPa)
#
#
# Indices 1 2 3 4 5 6 
#
# 1 0.023879 -0.006925 -0.005517 0.001469 0.000002 0.000000
# 2 -0.006925 0.023879 -0.005517 -0.001469 -0.000002 0.000000
# 3 -0.005517 -0.005517 0.009449 0.000000 0.000000 0.000000
# 4 0.001469 -0.001469 0.000000 0.068041 0.000000 -0.000004
# 5 0.000002 -0.000002 0.000000 0.000000 0.068041 0.002938
# 6 0.000000 0.000000 0.000000 -0.000004 0.002938 0.061609
#
#
# Mechanical properties :
#
#
# Convention : Reuss Voigt Hill
#
# Bulk Modulus (GPa) = 46.97119 64.79497 55.88308
# Shear Modulus (GPa) = 16.78342 19.54194 18.16268
#
# Velocity S-wave (km/s) = 3.06072 3.30269 3.18401
# Velocity P-wave (km/s) = 6.22163 7.12112 6.68652
#
# Compressibility (1/GPa) = 0.02128965
#
# Stress axis : x y z
#
# Youngs Moduli (GPa) = 41.87697 41.87697 105.83614
#
# Poissons Ratio (x) = 0.28999 0.58390
# Poissons Ratio (y) = 0.28999 0.58390
# Poissons Ratio (z) = 0.23104 0.23104
#
# Static dielectric constant tensor:
#      x y z
#    x 1.653650 0.000000 0.000000 
#    y 0.000000 1.653650 0.000000 
#    z 0.000000 0.000000 1.611560 
# 
# From -- ./inp_files/3467.got.cif
#   From: 2010.05.17/outbox.ucp.g08.bks.cvg/sg160_2_cif.got.tgz:3467.got - 2010.06.11 15:14:33.
