data_PCOD9577921
_publ_section_title
;
Structure prediction by ZEFSAII (Michael W. Deem and Ramdas Pophale) SiO2 
 PCOD9577921
Probable space group: P -3 1 M 
;
_chemical_formula_sum "Si O2"
_cell_formula_units_Z 60
_cell_length_a 18.191384
_cell_length_b 18.191384
_cell_length_c 12.205914
_cell_angle_alpha 90.000000
_cell_angle_beta 90.000000
_cell_angle_gamma 120.000000
_cell_volume 3498.101609
_symmetry_space_group_name_H-M "P -3 1 M "
_symmetry_group_IT_number 162
_symmetry_cell_setting 'hexagonal'
loop_
_space_group_symop_operation_xyz
x,y,z
-y,x-y,z
-x+y,-x,z
-y,-x,-z
-x+y,y,-z
x,x-y,-z
-x,-y,-z
y,-x+y,-z
x-y,x,-z
y,x,z
x-y,-y,z
-x,-x+y,z
loop_
_atom_site_type_symbol
_atom_site_label
_atom_site_fract_x
_atom_site_fract_y
_atom_site_fract_z
Si Si1 0.738146 0.096156 0.538424
Si Si2 0.189721 0.505803 0.314325
Si Si3 0.821373 0.332746 0.061456
Si Si4 0.454136 0.000000 0.813133
Si Si5 0.604561 0.604561 0.059487
Si Si6 0.144127 0.640391 0.363199
O O1 0.832133 0.167868 0.500000
O O2 0.716297 0.124441 0.654121
O O3 0.673333 0.102555 0.452471
O O4 0.717597 0.000000 0.541077
O O5 0.198084 0.534012 0.188554
O O6 0.159282 0.561635 0.381299
O O7 0.280265 0.518239 0.346884
O O8 0.903449 0.319934 0.066139
O O9 0.742917 0.257084 0.000000
O O10 0.840661 0.420331 0.000000
O O11 0.472385 0.081994 0.742646
O O12 0.540753 0.000000 0.845609
O O13 0.419648 0.000000 0.932439
#
# Coordination Sequence:
#
# PCOD9577921 Si02
#       6
#    12  12  12   6   6  12
#     4  10  23  39  59  84 109 143 180 219 276 334
#     4  11  22  33  53  78 105 144 187 236 264 320
#     4  12  22  35  51  74 104 143 187 233 277 321
#     4  11  18  34  52  67 102 145 180 226 272 334
#     4  11  20  34  47  72  99 142 185 226 279 318
#     4  11  21  36  53  76 109 144 185 227 277 317
#
# _framework density 17.152162000000001
#
# number of rings (size 3 to 8) (size 9 to 14) (size 15 to 20)
#    0.000    1.000    5.000    3.600    2.800    0.800 
#    0.000    2.000    0.000    0.200    0.000    0.000 
#    0.000    0.000    0.000    0.300    0.000    0.400 
#
# Total GULP energy -334125.773541 kJ/mol
# GULP energy per Si atom -5568.762892 kJ/mol
# Density = 1.711312 g / cm^3
# Si number density = 17.152162 Si / 1000 Ang^3
#
#
#
# Elastic Constant Matrix: (Units=GPa)
#
#
# Indices 1 2 3 4 5 6 
#
# 1 68.8728 39.9032 10.4295 -0.0001 -7.0381 0.0000
# 2 39.9032 68.8728 10.4295 0.0001 7.0381 0.0000
# 3 10.4295 10.4295 77.1915 0.0000 0.0000 0.0000
# 4 -0.0001 0.0001 0.0000 15.1945 0.0000 7.0381
# 5 -7.0381 7.0381 0.0000 0.0000 15.1945 -0.0001
# 6 0.0000 0.0000 0.0000 7.0381 -0.0001 14.4848
#
#
#
# Elastic Compliance Matrix: (Units=1/GPa)
#
#
# Indices 1 2 3 4 5 6 
#
# 1 0.026991 -0.017553 -0.001275 0.000000 0.020633 0.000000
# 2 -0.017553 0.026991 -0.001275 0.000000 -0.020633 0.000000
# 3 -0.001275 -0.001275 0.013299 0.000000 0.000000 0.000000
# 4 0.000000 0.000000 0.000000 0.084928 0.000000 -0.041266
# 5 0.020633 -0.020633 0.000000 0.000000 0.084928 0.000000
# 6 0.000000 0.000000 0.000000 -0.041266 0.000000 0.089089
#
#
# Mechanical properties :
#
#
# Convention : Reuss Voigt Hill
#
# Bulk Modulus (GPa) = 36.93550 37.38461 37.16005
# Shear Modulus (GPa) = 13.31708 19.25308 16.28508
#
# Velocity S-wave (km/s) = 2.78943 3.35399 3.08465
# Velocity P-wave (km/s) = 5.65291 6.06977 5.86505
#
# Compressibility (1/GPa) = 0.02707423
#
# Stress axis : x y z
#
# Youngs Moduli (GPa) = 37.04934 37.04934 75.19156
#
# Poissons Ratio (x) = 0.65034 0.09588
# Poissons Ratio (y) = 0.65034 0.09588
# Poissons Ratio (z) = 0.04724 0.04724
#
# Static dielectric constant tensor:
#      x y z
#    x 1.601920 0.000000 0.000000 
#    y 0.000000 1.601920 0.000000 
#    z 0.000000 0.000000 1.628530 
# 
# From -- ./inp_files/2354.got.cif
#   From: 2010.05.17/outbox.cif.g08.bks.cpg/sg162_2_cif.got.tgz:2354.got - 2010.05.20 10:53:12.
