data_PCOD9577539
_publ_section_title
;
Structure prediction by ZEFSAII (Michael W. Deem and Ramdas Pophale) SiO2 
 PCOD9577539
Probable space group: R 3 C
;
_chemical_formula_sum "Si O2"
_cell_formula_units_Z 144
_cell_length_a 21.890111
_cell_length_b 21.890111
_cell_length_c 15.330999
_cell_angle_alpha 90.000000
_cell_angle_beta 90.000000
_cell_angle_gamma 120.000000
_cell_volume 6362.049072
_symmetry_space_group_name_H-M "R 3 C"
_symmetry_group_IT_number 161
_symmetry_cell_setting 'hexagonal'
loop_
_space_group_symop_operation_xyz
x,y,z
-y,x-y,z
-x+y,-x,z
-x+y,y,1/2+z
x,x-y,1/2+z
-y,-x,1/2+z
2/3+x,1/3+y,1/3+z
2/3-y,1/3+x-y,1/3+z
2/3-x+y,1/3-x,1/3+z
2/3-x+y,1/3+y,5/6+z
2/3+x,1/3+x-y,5/6+z
2/3-y,1/3-x,5/6+z
1/3+x,2/3+y,2/3+z
1/3-y,2/3+x-y,2/3+z
1/3-x+y,2/3-x,2/3+z
1/3-x+y,2/3+y,1/6+z
1/3+x,2/3+x-y,1/6+z
1/3-y,2/3-x,1/6+z
loop_
_atom_site_type_symbol
_atom_site_label
_atom_site_fract_x
_atom_site_fract_y
_atom_site_fract_z
Si Si1 0.787661 0.543702 0.696074
Si Si2 0.721201 0.490163 0.000445
Si Si3 0.494077 0.775161 0.356976
Si Si4 0.174749 0.877735 0.607694
Si Si5 0.899897 0.684781 0.634524
Si Si6 0.373043 0.399748 0.233414
Si Si7 0.155372 0.720130 0.099746
Si Si8 0.635804 0.505133 0.719210
O O1 0.772748 0.525332 0.594213
O O2 0.844241 0.627121 0.700381
O O3 0.827831 0.502752 0.723766
O O4 0.714527 0.522438 0.742685
O O5 0.774496 0.462717 0.976067
O O6 0.641549 0.431395 0.014763
O O7 0.724826 0.551581 0.939282
O O8 0.571024 0.817023 0.314822
O O9 0.511393 0.800029 0.458015
O O10 0.202000 0.875556 0.704736
O O11 0.099080 0.809162 0.599093
O O12 0.233017 0.872943 0.549014
O O13 0.976735 0.690323 0.636443
O O14 0.329045 0.416984 0.162303
O O15 0.420676 0.364589 0.209739
O O16 0.237119 0.783869 0.113812
#
# Coordination Sequence:
#
# PCOD9577539 Si02
#       8
#    18  18  18  18  18  18  18  18
#     4  10  21  38  59  95 123 158 213 264 328 390
#     4  10  20  36  59  91 123 160 209 264 317 392
#     4  11  20  37  62  92 125 167 213 270 327 395
#     4   9  20  39  59  84 121 167 211 262 321 384
#     4  10  21  36  62  85 128 164 212 271 323 378
#     4  10  20  41  62  84 127 169 212 266 321 391
#     4  10  20  40  63  88 126 170 203 265 328 384
#     4  10  22  39  64  95 127 165 217 266 329 394
#
# _framework density 22.634218000000001
#
# number of rings (size 3 to 8) (size 9 to 14) (size 15 to 20)
#    0.000    2.000    2.500    1.000    0.000    3.000 
#    7.500    2.500    0.000    0.000    0.000    0.000 
#    0.000    0.000    0.000    0.000    0.000    0.000 
#
# Total GULP energy -267223.319716 kJ/mol
# GULP energy per Si atom -5567.152494 kJ/mol
# Density = 2.258270 g / cm^3
# Si number density = 22.634218 Si / 1000 Ang^3
#
#
#
# Elastic Constant Matrix: (Units=GPa)
#
#
# Indices 1 2 3 4 5 6 
#
# 1 124.0056 51.1957 11.1077 -3.4293 0.0000 0.0000
# 2 51.1957 124.0056 11.1077 3.4293 0.0000 0.0000
# 3 11.1077 11.1077 33.0151 0.0000 0.0000 0.0000
# 4 -3.4293 3.4293 0.0000 15.4081 0.0000 0.0000
# 5 0.0000 0.0000 0.0000 0.0000 15.4081 -3.4293
# 6 0.0000 0.0000 0.0000 0.0000 -3.4293 36.4049
#
#
#
# Elastic Compliance Matrix: (Units=1/GPa)
#
#
# Indices 1 2 3 4 5 6 
#
# 1 0.009995 -0.004033 -0.002006 0.003122 0.000000 0.000000
# 2 -0.004033 0.009995 -0.002006 -0.003122 0.000000 0.000000
# 3 -0.002006 -0.002006 0.031639 0.000000 0.000000 0.000000
# 4 0.003122 -0.003122 0.000000 0.066291 0.000000 0.000000
# 5 0.000000 0.000000 0.000000 0.000000 0.066291 0.006244
# 6 0.000000 0.000000 0.000000 0.000000 0.006244 0.028057
#
#
# Mechanical properties :
#
#
# Convention : Reuss Voigt Hill
#
# Bulk Modulus (GPa) = 28.13775 47.53871 37.83823
# Shear Modulus (GPa) = 20.81558 27.28523 24.05040
#
# Velocity S-wave (km/s) = 3.03586 3.47578 3.26324
# Velocity P-wave (km/s) = 4.97465 6.09563 5.56344
#
# Compressibility (1/GPa) = 0.03553944
#
# Stress axis : x y z
#
# Youngs Moduli (GPa) = 100.04717 100.04717 31.60669
#
# Poissons Ratio (x) = 0.40351 0.06340
# Poissons Ratio (y) = 0.40351 0.06340
# Poissons Ratio (z) = 0.20068 0.20068
#
# Static dielectric constant tensor:
#      x y z
#    x 1.882130 0.000000 0.000000 
#    y 0.000000 1.882130 0.000000 
#    z 0.000000 0.000000 2.002940 
# 
# From -- ./inp_files/1764.got.cif
#   From: 2010.05.17/outbox.cif.g08.bks.cpg/sg161_cif.got.tgz:1764.got - 2010.05.20 10:52:32.
