data_PCOD9577384
_publ_section_title
;
Structure prediction by ZEFSAII (Michael W. Deem and Ramdas Pophale) SiO2 
 PCOD9577384
Probable space group: P 3 1 C
;
_chemical_formula_sum "Si O2"
_cell_formula_units_Z 24
_cell_length_a 7.084484
_cell_length_b 7.084484
_cell_length_c 21.711513
_cell_angle_alpha 90.000000
_cell_angle_beta 90.000000
_cell_angle_gamma 120.000000
_cell_volume 943.706982
_symmetry_space_group_name_H-M "P 3 1 C"
_symmetry_group_IT_number 159
_symmetry_cell_setting 'hexagonal'
loop_
_space_group_symop_operation_xyz
x,y,z
-y,x-y,z
-x+y,-x,z
y,x,1/2+z
x-y,-y,1/2+z
-x,-x+y,1/2+z
loop_
_atom_site_type_symbol
_atom_site_label
_atom_site_fract_x
_atom_site_fract_y
_atom_site_fract_z
Si Si1 0.248036 0.248035 0.353410
Si Si2 0.612282 0.063984 0.481919
Si Si3 0.612281 0.063983 0.724901
Si Si4 0.724959 0.932236 0.603410
O O1 0.356409 0.381090 0.415094
O O2 0.381091 0.356409 0.291727
O O3 0.000000 0.201735 0.353410
O O4 0.845811 0.291335 0.484843
O O5 0.601841 0.925143 0.540962
O O6 0.845810 0.291334 0.721978
O O7 0.601839 0.925143 0.665858
O O8 0.947843 0.171006 0.603410
#
# Coordination Sequence:
#
# PCOD9577384 Si02
#       4
#     6   6   6   6
#     4  10  22  38  62  86 124 168 206 252 316 378
#     4  10  22  36  63  90 124 155 210 261 306 356
#     4  10  22  36  63  90 124 155 210 261 306 356
#     4  10  20  38  64  90 120 166 202 248 314 382
#
# _framework density 25.431622000000001
#
# number of rings (size 3 to 8) (size 9 to 14) (size 15 to 20)
#    2.000    0.000    0.000    4.500    3.500    0.000 
#    0.000    0.000    0.000   14.000    0.000    0.000 
#    0.000    0.000    0.000    0.000    0.000    0.000 
#
# Total GULP energy -134041.997472 kJ/mol
# GULP energy per Si atom -5585.083228 kJ/mol
# Density = 2.537374 g / cm^3
# Si number density = 25.431622 Si / 1000 Ang^3
#
#
#
# Elastic Constant Matrix: (Units=GPa)
#
#
# Indices 1 2 3 4 5 6 
#
# 1 80.7255 4.0326 43.0879 0.0000 -0.0001 0.0000
# 2 4.0326 80.7255 43.0879 0.0000 0.0001 0.0000
# 3 43.0879 43.0879 264.9070 0.0000 0.0000 0.0000
# 4 0.0000 0.0000 0.0000 24.6440 0.0000 0.0001
# 5 -0.0001 0.0001 0.0000 0.0000 24.6440 0.0000
# 6 0.0000 0.0000 0.0000 0.0001 0.0000 38.3465
#
#
#
# Elastic Compliance Matrix: (Units=1/GPa)
#
#
# Indices 1 2 3 4 5 6 
#
# 1 0.013588 0.000548 -0.002299 0.000000 0.000000 0.000000
# 2 0.000548 0.013588 -0.002299 0.000000 0.000000 0.000000
# 3 -0.002299 -0.002299 0.004523 0.000000 0.000000 0.000000
# 4 0.000000 0.000000 0.000000 0.040578 0.000000 0.000000
# 5 0.000000 0.000000 0.000000 0.000000 0.040578 0.000000
# 6 0.000000 0.000000 0.000000 0.000000 0.000000 0.026078
#
#
# Mechanical properties :
#
#
# Convention : Reuss Voigt Hill
#
# Bulk Modulus (GPa) = 42.37681 67.41943 54.89812
# Shear Modulus (GPa) = 32.27937 39.93685 36.10811
#
# Velocity S-wave (km/s) = 3.56653 3.96708 3.77213
# Velocity P-wave (km/s) = 5.80168 6.89574 6.37223
#
# Compressibility (1/GPa) = 0.02359781
#
# Stress axis : x y z
#
# Youngs Moduli (GPa) = 73.59705 73.59705 221.09843
#
# Poissons Ratio (x) = -0.04037 0.50836
# Poissons Ratio (y) = -0.04037 0.50836
# Poissons Ratio (z) = 0.16922 0.16922
#
# Static dielectric constant tensor:
#      x y z
#    x 2.014400 0.000000 0.000000 
#    y 0.000000 2.014400 0.000000 
#    z 0.000000 0.000000 1.915340 
# 
# From -- ./inp_files/1151.got.cif
#   From: 2010.05.17/outbox.cif.g08.bks.cpg/sg159_cif.got.tgz:1151.got - 2010.05.20 10:50:30.
