data_PCOD9577762
_publ_section_title
;
Structure prediction by ZEFSAII (Michael W. Deem and Ramdas Pophale) SiO2 
 PCOD9577762
Probable space group: P -3 1 M 
;
_chemical_formula_sum "Si O2"
_cell_formula_units_Z 72
_cell_length_a 14.468711
_cell_length_b 14.468711
_cell_length_c 19.323896
_cell_angle_alpha 90.000000
_cell_angle_beta 90.000000
_cell_angle_gamma 120.000000
_cell_volume 3503.361938
_symmetry_space_group_name_H-M "P -3 1 M "
_symmetry_group_IT_number 162
_symmetry_cell_setting 'hexagonal'
loop_
_space_group_symop_operation_xyz
x,y,z
-y,x-y,z
-x+y,-x,z
-y,-x,-z
-x+y,y,-z
x,x-y,-z
-x,-y,-z
y,-x+y,-z
x-y,x,-z
y,x,z
x-y,-y,z
-x,-x+y,z
loop_
_atom_site_type_symbol
_atom_site_label
_atom_site_fract_x
_atom_site_fract_y
_atom_site_fract_z
Si Si1 0.872863 0.125978 0.082461
Si Si2 0.443644 0.569510 0.723142
Si Si3 0.665721 0.781097 0.715837
Si Si4 0.525842 0.402444 0.571625
Si Si5 0.302438 0.185429 0.575513
Si Si6 0.120313 0.712783 0.816898
O O1 0.832886 0.197242 0.123517
O O2 0.000000 0.176731 0.098349
O O3 0.806891 0.000000 0.099340
O O4 0.864235 0.135766 0.000000
O O5 0.479166 0.479166 0.718323
O O6 0.551790 0.679260 0.735015
O O7 0.402571 0.574672 0.646352
O O8 0.356924 0.526160 0.784649
O O9 0.756576 0.756576 0.740328
O O10 0.676792 0.797218 0.633792
O O11 0.661286 0.877746 0.751378
O O12 0.586363 0.413638 0.500000
O O13 0.500752 0.500752 0.572915
O O14 0.413848 0.294527 0.567138
O O15 0.271046 0.135523 0.500000
O O16 0.215161 0.215161 0.600756
O O17 0.000000 0.630492 0.839967
#
# Coordination Sequence:
#
# PCOD9577762 Si02
#       6
#    12  12  12  12  12  12
#     4   9  17  30  53  87 124 158 192 230 271 321
#     4   9  18  33  50  72 100 132 177 231 284 328
#     4  11  21  34  54  78 106 141 182 226 276 336
#     4   9  16  29  49  68  91 127 172 224 278 328
#     4  11  21  34  52  74 103 142 183 224 276 337
#     4  10  19  35  56  78 110 148 184 226 276 333
#
# _framework density 20.551687999999999
#
# number of rings (size 3 to 8) (size 9 to 14) (size 15 to 20)
#    0.000    2.167    1.667    2.667    0.000    3.333 
#    1.000    0.000    0.000    9.667    0.000    5.833 
#    0.000    0.000    0.000    0.000    0.000    0.500 
#
# Total GULP energy -401203.784663 kJ/mol
# GULP energy per Si atom -5572.274787 kJ/mol
# Density = 2.050491 g / cm^3
# Si number density = 20.551688 Si / 1000 Ang^3
#
#
#
# Elastic Constant Matrix: (Units=GPa)
#
#
# Indices 1 2 3 4 5 6 
#
# 1 57.2232 20.7087 26.1749 0.0000 10.4213 0.0000
# 2 20.7087 57.2232 26.1749 0.0000 -10.4213 0.0000
# 3 26.1749 26.1749 102.6543 0.0000 0.0000 0.0000
# 4 0.0000 0.0000 0.0000 27.0707 0.0000 -10.4213
# 5 10.4213 -10.4213 0.0000 0.0000 27.0707 0.0000
# 6 0.0000 0.0000 0.0000 -10.4213 0.0000 18.2573
#
#
#
# Elastic Compliance Matrix: (Units=1/GPa)
#
#
# Indices 1 2 3 4 5 6 
#
# 1 0.025291 -0.009808 -0.003948 0.000000 -0.013512 0.000000
# 2 -0.009808 0.025291 -0.003948 0.000000 0.013512 0.000000
# 3 -0.003948 -0.003948 0.011755 0.000000 0.000000 0.000000
# 4 0.000000 0.000000 0.000000 0.047344 0.000000 0.027024
# 5 -0.013512 0.013512 0.000000 0.000000 0.047344 0.000000
# 6 0.000000 0.000000 0.000000 0.027024 0.000000 0.070198
#
#
# Mechanical properties :
#
#
# Convention : Reuss Voigt Hill
#
# Bulk Modulus (GPa) = 37.13318 40.35751 38.74535
# Shear Modulus (GPa) = 18.40893 24.08255 21.24574
#
# Velocity S-wave (km/s) = 2.99614 3.42688 3.21872
# Velocity P-wave (km/s) = 5.48421 5.94455 5.71901
#
# Compressibility (1/GPa) = 0.02693009
#
# Stress axis : x y z
#
# Youngs Moduli (GPa) = 39.53912 39.53912 85.07159
#
# Poissons Ratio (x) = 0.38778 0.33587
# Poissons Ratio (y) = 0.38778 0.33587
# Poissons Ratio (z) = 0.15610 0.15610
#
# Static dielectric constant tensor:
#      x y z
#    x 1.785130 0.000000 0.000000 
#    y 0.000000 1.785130 0.000000 
#    z 0.000000 0.000000 1.755420 
# 
# From -- ./inp_files/3522.got.cif
#   From: 2010.05.17/outbox.cif.g08.bks.cpg/sg162_2_cif.got.tgz:3522.got - 2010.05.20 10:53:12.
