data_PCOD9577466
_publ_section_title
;
Structure prediction by ZEFSAII (Michael W. Deem and Ramdas Pophale) SiO2 
 PCOD9577466
Probable space group: R 3 M
;
_chemical_formula_sum "Si O2"
_cell_formula_units_Z 144
_cell_length_a 22.109629
_cell_length_b 22.109629
_cell_length_c 18.926505
_cell_angle_alpha 90.000000
_cell_angle_beta 90.000000
_cell_angle_gamma 120.000000
_cell_volume 8012.424788
_symmetry_space_group_name_H-M "R 3 M"
_symmetry_group_IT_number 160
_symmetry_cell_setting 'hexagonal'
loop_
_space_group_symop_operation_xyz
x,y,z
-y,x-y,z
-x+y,-x,z
-x+y,y,z
x,x-y,z
-y,-x,z
2/3+x,1/3+y,1/3+z
2/3-y,1/3+x-y,1/3+z
2/3-x+y,1/3-x,1/3+z
2/3-x+y,1/3+y,1/3+z
2/3+x,1/3+x-y,1/3+z
2/3-y,1/3-x,1/3+z
1/3+x,2/3+y,2/3+z
1/3-y,2/3+x-y,2/3+z
1/3-x+y,2/3-x,2/3+z
1/3-x+y,2/3+y,2/3+z
1/3+x,2/3+x-y,2/3+z
1/3-y,2/3-x,2/3+z
loop_
_atom_site_type_symbol
_atom_site_label
_atom_site_fract_x
_atom_site_fract_y
_atom_site_fract_z
Si Si1 0.555929 0.967061 0.494124
Si Si2 0.138150 0.997940 0.191573
Si Si3 0.929596 0.721422 0.858449
Si Si4 0.178293 0.953936 0.043469
Si Si5 0.720672 0.743460 0.245493
Si Si6 0.249242 0.893450 0.672334
Si Si7 0.211713 0.929223 0.395321
Si Si8 0.588432 0.549569 0.784266
O O1 0.483620 0.967239 0.499023
O O2 0.552377 0.894682 0.512454
O O3 0.612862 0.020557 0.550006
O O4 0.587748 0.990992 0.414353
O O5 0.056866 0.943135 0.203059
O O6 0.158527 0.979726 0.115310
O O7 0.184719 0.980174 0.243020
O O8 0.153945 0.076973 0.194581
O O9 0.872539 0.745078 0.870813
O O10 0.907332 0.675731 0.787706
O O11 0.922888 0.670610 0.924690
O O12 0.106277 0.893724 0.010709
O O13 0.224136 0.917440 0.062588
O O14 0.229828 0.024201 0.004092
O O15 0.693112 0.743083 0.323431
O O16 0.665941 0.742382 0.189105
O O17 0.173280 0.826721 0.677275
O O18 0.131115 0.868886 0.383147
O O19 0.231129 0.004568 0.426678
O O20 0.530458 0.469543 0.791188
#
# Coordination Sequence:
#
# PCOD9577466 Si02
#       8
#    18  18  18  18  18  18  18  18
#     4  11  22  35  60  91 117 150 195 242 294 351
#     4  10  18  30  47  73 109 153 195 230 273 333
#     4  10  23  39  57  81 115 155 194 239 296 350
#     4   9  17  28  48  76 108 142 182 229 279 331
#     4  11  21  36  55  80 116 147 187 243 298 352
#     4  10  19  35  54  78 113 148 187 240 290 340
#     4  11  23  39  56  80 114 155 195 240 296 351
#     4  10  20  34  53  79 107 146 191 235 286 342
#
# _framework density 17.972087999999999
#
# number of rings (size 3 to 8) (size 9 to 14) (size 15 to 20)
#    0.000    1.750    3.750    2.750    3.500    1.500 
#    0.000    0.000    0.000    0.750    0.000    0.000 
#    0.000    0.000    0.000    9.125    0.000    1.125 
#
# Total GULP energy -267355.841027 kJ/mol
# GULP energy per Si atom -5569.913355 kJ/mol
# Density = 1.793118 g / cm^3
# Si number density = 17.972088 Si / 1000 Ang^3
#
#
#
# Elastic Constant Matrix: (Units=GPa)
#
#
# Indices 1 2 3 4 5 6 
#
# 1 60.5340 8.5488 20.8841 -1.1626 0.0001 0.0000
# 2 8.5488 60.5340 20.8841 1.1626 -0.0001 0.0000
# 3 20.8841 20.8841 100.5129 0.0000 0.0000 0.0000
# 4 -1.1626 1.1626 0.0000 18.4765 0.0000 -0.0001
# 5 0.0001 -0.0001 0.0000 0.0000 18.4765 -1.1626
# 6 0.0000 0.0000 0.0000 -0.0001 -1.1626 25.9926
#
#
#
# Elastic Compliance Matrix: (Units=1/GPa)
#
#
# Indices 1 2 3 4 5 6 
#
# 1 0.017923 -0.001368 -0.003440 0.001214 0.000000 0.000000
# 2 -0.001368 0.017923 -0.003440 -0.001214 0.000000 0.000000
# 3 -0.003440 -0.003440 0.011378 0.000000 0.000000 0.000000
# 4 0.001214 -0.001214 0.000000 0.054276 0.000000 0.000000
# 5 0.000000 0.000000 0.000000 0.000000 0.054276 0.002428
# 6 0.000000 0.000000 0.000000 0.000000 0.002428 0.038581
#
#
# Mechanical properties :
#
#
# Convention : Reuss Voigt Hill
#
# Bulk Modulus (GPa) = 32.54194 35.80166 34.17180
# Shear Modulus (GPa) = 22.61484 24.00671 23.31077
#
# Velocity S-wave (km/s) = 3.55114 3.65879 3.60537
# Velocity P-wave (km/s) = 5.91273 6.14923 6.03214
#
# Compressibility (1/GPa) = 0.03072958
#
# Stress axis : x y z
#
# Youngs Moduli (GPa) = 55.79478 55.79478 87.88617
#
# Poissons Ratio (x) = 0.07631 0.30231
# Poissons Ratio (y) = 0.07631 0.30231
# Poissons Ratio (z) = 0.19192 0.19192
#
# Static dielectric constant tensor:
#      x y z
#    x 1.637220 0.000000 0.000000 
#    y 0.000000 1.637220 0.000000 
#    z 0.000000 0.000000 1.712510 
# 
# From -- ./inp_files/3431.got.cif
#   From: 2010.05.17/outbox.cif.g08.bks.cpg/sg160_2_cif.got.tgz:3431.got - 2010.05.20 10:51:19.
