data_PCOD9577902
_publ_section_title
;
Structure prediction by ZEFSAII (Michael W. Deem and Ramdas Pophale) SiO2 
 PCOD9577902
Probable space group: P -3 1 M 
;
_chemical_formula_sum "Si O2"
_cell_formula_units_Z 22
_cell_length_a 13.042282
_cell_length_b 13.042282
_cell_length_c 7.558862
_cell_angle_alpha 90.000000
_cell_angle_beta 90.000000
_cell_angle_gamma 120.000000
_cell_volume 1113.510255
_symmetry_space_group_name_H-M "P -3 1 M "
_symmetry_group_IT_number 162
_symmetry_cell_setting 'hexagonal'
loop_
_space_group_symop_operation_xyz
x,y,z
-y,x-y,z
-x+y,-x,z
-y,-x,-z
-x+y,y,-z
x,x-y,-z
-x,-y,-z
y,-x+y,-z
x-y,x,-z
y,x,z
x-y,-y,z
-x,-x+y,z
loop_
_atom_site_type_symbol
_atom_site_label
_atom_site_fract_x
_atom_site_fract_y
_atom_site_fract_z
Si Si1 0.138136 0.710535 0.664117
Si Si2 0.333335 0.666668 0.788453
Si Si3 0.138643 0.861357 0.000000
O O1 0.204506 0.795495 0.500000
O O2 0.207549 0.641841 0.715487
O O3 0.000000 0.624145 0.627766
O O4 0.149146 0.790641 0.833733
O O5 0.333334 0.666667 0.000000
O O6 0.000000 0.803624 0.042539
#
# Coordination Sequence:
#
# PCOD9577902 Si02
#       3
#    12   4   6
#     4  11  24  42  66  93 127 166 208 257 313 372
#     4  12  25  44  64  94 128 166 211 257 313 370
#     4  10  21  38  62  92 127 166 210 258 308 368
#
# _framework density 19.757338000000001
#
# number of rings (size 3 to 8) (size 9 to 14) (size 15 to 20)
#    0.000    1.091    2.727    3.545    0.000    7.636 
#    0.000    0.000    0.000    8.727    0.000    0.000 
#    0.000    0.000    0.000    0.000    0.000    0.000 
#
# Total GULP energy -123109.855661 kJ/mol
# GULP energy per Si atom -5595.902530 kJ/mol
# Density = 1.971237 g / cm^3
# Si number density = 19.757338 Si / 1000 Ang^3
#
#
#
# Elastic Constant Matrix: (Units=GPa)
#
#
# Indices 1 2 3 4 5 6 
#
# 1 109.4769 49.1655 42.6907 0.0010 -0.5656 0.0001
# 2 49.1655 109.4773 42.6912 -0.0003 0.5660 0.0001
# 3 42.6907 42.6912 111.8571 0.0003 0.0000 0.0004
# 4 0.0010 -0.0003 0.0003 20.5157 0.0003 0.5655
# 5 -0.5656 0.5660 0.0000 0.0003 20.5151 -0.0003
# 6 0.0001 0.0001 0.0004 0.5655 -0.0003 30.1558
#
#
#
# Elastic Compliance Matrix: (Units=1/GPa)
#
#
# Indices 1 2 3 4 5 6 
#
# 1 0.012261 -0.004328 -0.003028 -0.000001 0.000457 0.000000
# 2 -0.004328 0.012261 -0.003028 0.000000 -0.000458 0.000000
# 3 -0.003028 -0.003028 0.011251 0.000000 0.000000 0.000000
# 4 -0.000001 0.000000 0.000000 0.048768 -0.000001 -0.000915
# 5 0.000457 -0.000458 0.000000 -0.000001 0.048770 0.000000
# 6 0.000000 0.000000 0.000000 -0.000915 0.000000 0.033178
#
#
# Mechanical properties :
#
#
# Convention : Reuss Voigt Hill
#
# Bulk Modulus (GPa) = 66.63862 66.65623 66.64742
# Shear Modulus (GPa) = 26.00664 27.32157 26.66411
#
# Velocity S-wave (km/s) = 3.63202 3.72271 3.67765
# Velocity P-wave (km/s) = 7.16872 7.23110 7.19998
#
# Compressibility (1/GPa) = 0.01500631
#
# Stress axis : x y z
#
# Youngs Moduli (GPa) = 81.55902 81.55900 88.88073
#
# Poissons Ratio (x) = 0.35299 0.26910
# Poissons Ratio (y) = 0.35299 0.26910
# Poissons Ratio (z) = 0.24693 0.24694
#
# Static dielectric constant tensor:
#      x y z
#    x 1.673030 0.000000 0.000000 
#    y 0.000000 1.673020 0.000000 
#    z 0.000000 0.000000 1.678790 
# 
# From -- ./inp_files/843.got.cif
#   From: 2010.05.17/outbox.cif.g08.bks.cpg/sg162_1_cif.got.tgz:843.got - 2010.05.20 10:53:12.
