data_PCOD9577426
_publ_section_title
;
Structure prediction by ZEFSAII (Michael W. Deem and Ramdas Pophale) SiO2 
 PCOD9577426
Probable space group: P 3 1 C
;
_chemical_formula_sum "Si O2"
_cell_formula_units_Z 36
_cell_length_a 8.662819
_cell_length_b 8.662819
_cell_length_c 27.629374
_cell_angle_alpha 90.000000
_cell_angle_beta 90.000000
_cell_angle_gamma 120.000000
_cell_volume 1795.643665
_symmetry_space_group_name_H-M "P 3 1 C"
_symmetry_group_IT_number 159
_symmetry_cell_setting 'hexagonal'
loop_
_space_group_symop_operation_xyz
x,y,z
-y,x-y,z
-x+y,-x,z
y,x,1/2+z
x-y,-y,1/2+z
-x,-x+y,1/2+z
loop_
_atom_site_type_symbol
_atom_site_label
_atom_site_fract_x
_atom_site_fract_y
_atom_site_fract_z
Si Si1 0.667067 0.992319 0.589430
Si Si2 0.546515 0.860856 0.695400
Si Si3 0.990714 0.791500 0.286897
Si Si4 0.339968 0.005917 0.549161
Si Si5 0.671236 0.998607 0.393637
Si Si6 0.337710 0.997514 0.933997
O O1 0.650019 0.954735 0.646545
O O2 0.719053 0.859514 0.563429
O O3 0.473558 0.947043 0.571011
O O4 0.808452 0.190786 0.573148
O O5 0.349296 0.840142 0.695798
O O6 0.666710 0.961547 0.741345
O O7 0.998019 0.700314 0.336399
O O8 0.829927 0.838184 0.286096
O O9 0.360772 0.016950 0.491582
O O10 0.614537 0.807473 0.416598
O O11 0.859836 0.140098 0.416328
O O12 0.525321 0.050564 0.408795
#
# Coordination Sequence:
#
# PCOD9577426 Si02
#       6
#     6   6   6   6   6   6
#     4  12  25  45  66 102 141 177 236 289 342 411
#     4  10  23  43  69  99 130 177 223 278 351 407
#     4  10  23  43  69  99 134 173 224 281 342 408
#     4  12  24  42  68  97 137 187 232 285 343 409
#     4  12  25  45  66 102 141 179 233 289 341 413
#     4  12  24  42  68  97 137 187 234 280 345 410
#
# _framework density 20.04852
#
# number of rings (size 3 to 8) (size 9 to 14) (size 15 to 20)
#    0.667    0.000    3.333    5.000    4.667    0.000 
#    0.000    0.000    0.000    0.667    0.000    0.000 
#    0.000    0.000    0.000    0.000    0.000    0.000 
#
# Total GULP energy -201202.560912 kJ/mol
# GULP energy per Si atom -5588.960025 kJ/mol
# Density = 2.000289 g / cm^3
# Si number density = 20.048520 Si / 1000 Ang^3
#
#
#
# Elastic Constant Matrix: (Units=GPa)
#
#
# Indices 1 2 3 4 5 6 
#
# 1 65.2376 0.2980 41.1158 0.0000 0.2414 0.0000
# 2 0.2980 65.2376 41.1158 0.0000 -0.2414 0.0000
# 3 41.1158 41.1158 216.4181 0.0000 0.0000 0.0000
# 4 0.0000 0.0000 0.0000 18.4431 0.0000 -0.2414
# 5 0.2414 -0.2414 0.0000 0.0000 18.4431 0.0000
# 6 0.0000 0.0000 0.0000 -0.2414 0.0000 32.4698
#
#
#
# Elastic Compliance Matrix: (Units=1/GPa)
#
#
# Indices 1 2 3 4 5 6 
#
# 1 0.017718 0.002317 -0.003806 0.000000 -0.000202 0.000000
# 2 0.002317 0.017718 -0.003806 0.000000 0.000202 0.000000
# 3 -0.003806 -0.003806 0.006067 0.000000 0.000000 0.000000
# 4 0.000000 0.000000 0.000000 0.054226 0.000000 0.000403
# 5 -0.000202 0.000202 0.000000 0.000000 0.054226 0.000000
# 6 0.000000 0.000000 0.000000 0.000403 0.000000 0.030801
#
#
# Mechanical properties :
#
#
# Convention : Reuss Voigt Hill
#
# Bulk Modulus (GPa) = 32.35042 56.88360 44.61701
# Shear Modulus (GPa) = 24.79547 31.49545 28.14546
#
# Velocity S-wave (km/s) = 3.52059 3.96784 3.75089
# Velocity P-wave (km/s) = 5.71815 7.03038 6.40794
#
# Compressibility (1/GPa) = 0.03091150
#
# Stress axis : x y z
#
# Youngs Moduli (GPa) = 56.44096 56.44096 164.82766
#
# Poissons Ratio (x) = -0.13079 0.62738
# Poissons Ratio (y) = -0.13079 0.62738
# Poissons Ratio (z) = 0.21483 0.21483
#
# Static dielectric constant tensor:
#      x y z
#    x 1.716220 0.000000 0.000000 
#    y 0.000000 1.716220 0.000000 
#    z 0.000000 0.000000 1.676920 
# 
# From -- ./inp_files/1274.got.cif
#   From: 2010.05.17/outbox.cif.g08.bks.cpg/sg159_cif.got.tgz:1274.got - 2010.05.20 10:50:30.
