data_PCOD9577720
_publ_section_title
;
Structure prediction by ZEFSAII (Michael W. Deem and Ramdas Pophale) SiO2 
 PCOD9577720
Probable space group: P -3 1 M 
;
_chemical_formula_sum "Si O2"
_cell_formula_units_Z 72
_cell_length_a 15.364571
_cell_length_b 15.364571
_cell_length_c 16.816704
_cell_angle_alpha 90.000000
_cell_angle_beta 90.000000
_cell_angle_gamma 120.000000
_cell_volume 3438.051588
_symmetry_space_group_name_H-M "P -3 1 M "
_symmetry_group_IT_number 162
_symmetry_cell_setting 'hexagonal'
loop_
_space_group_symop_operation_xyz
x,y,z
-y,x-y,z
-x+y,-x,z
-y,-x,-z
-x+y,y,-z
x,x-y,-z
-x,-y,-z
y,-x+y,-z
x-y,x,-z
y,x,z
x-y,-y,z
-x,-x+y,z
loop_
_atom_site_type_symbol
_atom_site_label
_atom_site_fract_x
_atom_site_fract_y
_atom_site_fract_z
Si Si1 0.114234 0.424167 0.784462
Si Si2 0.497780 0.110657 0.604088
Si Si3 0.444023 0.564856 0.089062
Si Si4 0.288867 0.406973 0.786181
Si Si5 0.113872 0.225863 0.595756
Si Si6 0.282154 0.458456 0.615464
O O1 0.113158 0.472374 0.698789
O O2 0.160335 0.511662 0.850292
O O3 0.170290 0.360175 0.788760
O O4 0.000000 0.351756 0.804487
O O5 0.498473 0.211769 0.579912
O O6 0.604832 0.120938 0.583013
O O7 0.410895 0.000000 0.576937
O O8 0.490463 0.490463 0.083730
O O9 0.529896 0.660683 0.135038
O O10 0.418946 0.581055 0.000000
O O11 0.336167 0.336167 0.771325
O O12 0.309052 0.478262 0.709576
O O13 0.109713 0.219426 0.500000
O O14 0.146987 0.146987 0.625276
O O15 0.206938 0.338111 0.611552
O O16 0.000000 0.194215 0.622624
#
# Coordination Sequence:
#
# PCOD9577720 Si02
#       6
#    12  12  12  12  12  12
#     4   9  18  32  49  71 103 139 176 218 270 326
#     4  10  19  32  51  77 107 139 179 225 272 325
#     4   9  17  31  49  70 100 135 172 218 269 321
#     4  10  19  32  52  75 102 137 180 223 268 321
#     4  10  21  38  60  86 115 147 184 228 280 336
#     4  11  20  34  56  79 107 143 185 226 271 327
#
# _framework density 20.942094000000001
#
# number of rings (size 3 to 8) (size 9 to 14) (size 15 to 20)
#    0.000    2.167    1.667    2.500    0.000    2.000 
#    1.000    0.833    0.000    3.333    0.000    0.000 
#    0.000    0.000    0.000    8.333    0.000    0.000 
#
# Total GULP energy -400905.482205 kJ/mol
# GULP energy per Si atom -5568.131697 kJ/mol
# Density = 2.089443 g / cm^3
# Si number density = 20.942094 Si / 1000 Ang^3
#
#
#
# Elastic Constant Matrix: (Units=GPa)
#
#
# Indices 1 2 3 4 5 6 
#
# 1 108.4026 51.9139 14.2779 0.0000 -1.1492 0.0000
# 2 51.9139 108.4026 14.2779 0.0000 1.1492 0.0000
# 3 14.2779 14.2779 95.1392 0.0000 0.0000 0.0000
# 4 0.0000 0.0000 0.0000 17.9438 0.0000 1.1492
# 5 -1.1492 1.1492 0.0000 0.0000 17.9438 0.0000
# 6 0.0000 0.0000 0.0000 1.1492 0.0000 28.2444
#
#
#
# Elastic Compliance Matrix: (Units=1/GPa)
#
#
# Indices 1 2 3 4 5 6 
#
# 1 0.012079 -0.005670 -0.000962 0.000000 0.001137 0.000000
# 2 -0.005670 0.012079 -0.000962 0.000000 -0.001137 0.000000
# 3 -0.000962 -0.000962 0.010800 0.000000 0.000000 0.000000
# 4 0.000000 0.000000 0.000000 0.055875 0.000000 -0.002273
# 5 0.001137 -0.001137 0.000000 0.000000 0.055875 0.000000
# 6 0.000000 0.000000 0.000000 -0.002273 0.000000 0.035498
#
#
# Mechanical properties :
#
#
# Convention : Reuss Voigt Hill
#
# Bulk Modulus (GPa) = 50.58093 52.54261 51.56177
# Shear Modulus (GPa) = 24.51185 28.25804 26.38494
#
# Velocity S-wave (km/s) = 3.42491 3.67732 3.55336
# Velocity P-wave (km/s) = 6.31230 6.57071 6.44280
#
# Compressibility (1/GPa) = 0.01977030
#
# Stress axis : x y z
#
# Youngs Moduli (GPa) = 82.78871 82.78871 92.59604
#
# Poissons Ratio (x) = 0.46941 0.08906
# Poissons Ratio (y) = 0.46941 0.08906
# Poissons Ratio (z) = 0.07963 0.07963
#
# Static dielectric constant tensor:
#      x y z
#    x 1.808170 0.000000 0.000000 
#    y 0.000000 1.808170 0.000000 
#    z 0.000000 0.000000 1.861490 
# 
# From -- ./inp_files/3512.got.cif
#   From: 2010.05.17/outbox.cif.g08.bks.cpg/sg162_2_cif.got.tgz:3512.got - 2010.05.20 10:53:12.
