data_PCOD9577311
_publ_section_title
;
Structure prediction by ZEFSAII (Michael W. Deem and Ramdas Pophale) SiO2 
 PCOD9577311
Probable space group: P 3 C 1
;
_chemical_formula_sum "Si O2"
_cell_formula_units_Z 36
_cell_length_a 8.335098
_cell_length_b 8.335098
_cell_length_c 29.854852
_cell_angle_alpha 90.000000
_cell_angle_beta 90.000000
_cell_angle_gamma 120.000000
_cell_volume 1796.250802
_symmetry_space_group_name_H-M "P 3 C 1"
_symmetry_group_IT_number 158
_symmetry_cell_setting 'hexagonal'
loop_
_space_group_symop_operation_xyz
x,y,z
-y,x-y,z
-x+y,-x,z
-x+y,y,1/2+z
x,x-y,1/2+z
-y,-x,1/2+z
loop_
_atom_site_type_symbol
_atom_site_label
_atom_site_fract_x
_atom_site_fract_y
_atom_site_fract_z
Si Si1 0.654762 0.538719 0.987770
Si Si2 0.000972 0.666897 0.762720
Si Si3 0.333163 0.332622 0.302290
Si Si4 0.660001 0.118392 0.664420
Si Si5 0.119913 0.663372 0.400199
Si Si6 0.538249 0.884246 0.576533
O O1 0.488829 0.322159 0.987319
O O2 0.637779 0.641904 0.944468
O O3 0.634485 0.632922 0.032399
O O4 0.800293 0.596128 0.784039
O O5 0.983402 0.644573 0.709527
O O6 0.736952 0.866131 0.780700
O O7 0.464232 0.536040 0.282800
O O8 0.332363 0.349242 0.355579
O O9 0.836211 0.327109 0.664715
O O10 0.638496 0.001310 0.620429
O O11 0.162432 0.492248 0.399586
O O12 0.321542 0.833015 0.576527
#
# Coordination Sequence:
#
# PCOD9577311 Si02
#       6
#     6   6   6   6   6   6
#     4  10  22  37  64  94 121 166 212 270 330 402
#     4  12  24  42  63  95 134 180 228 282 341 404
#     4  12  24  42  63  95 134 180 228 282 341 404
#     4  10  21  40  63  92 126 171 215 275 330 401
#     4  10  21  40  63  92 126 171 215 275 330 401
#     4  10  22  37  64  94 121 166 212 270 330 402
#
# _framework density 20.041743
#
# number of rings (size 3 to 8) (size 9 to 14) (size 15 to 20)
#    1.333    0.000    3.333    3.000    4.667    0.000 
#    0.000    0.000    0.000   12.000    0.000    0.000 
#    0.000    0.000    0.000    0.000    0.000    0.000 
#
# Total GULP energy -200751.041481 kJ/mol
# GULP energy per Si atom -5576.417819 kJ/mol
# Density = 1.999613 g / cm^3
# Si number density = 20.041743 Si / 1000 Ang^3
#
#
#
# Elastic Constant Matrix: (Units=GPa)
#
#
# Indices 1 2 3 4 5 6 
#
# 1 48.5300 5.4853 31.9855 0.4758 0.0000 0.0000
# 2 5.4853 48.5300 31.9855 -0.4758 0.0000 0.0000
# 3 31.9855 31.9855 215.2142 0.0000 0.0000 0.0000
# 4 0.4758 -0.4758 0.0000 43.9083 0.0000 0.0000
# 5 0.0000 0.0000 0.0000 0.0000 43.9083 0.4758
# 6 0.0000 0.0000 0.0000 0.0000 0.4758 21.5223
#
#
#
# Elastic Compliance Matrix: (Units=1/GPa)
#
#
# Indices 1 2 3 4 5 6 
#
# 1 0.022853 -0.000385 -0.003339 -0.000252 0.000000 0.000000
# 2 -0.000385 0.022853 -0.003339 0.000252 0.000000 0.000000
# 3 -0.003339 -0.003339 0.005639 0.000000 0.000000 0.000000
# 4 -0.000252 0.000252 0.000000 0.022780 0.000000 0.000000
# 5 0.000000 0.000000 0.000000 0.000000 0.022780 -0.000504
# 6 0.000000 0.000000 0.000000 0.000000 -0.000504 0.046474
#
#
# Mechanical properties :
#
#
# Convention : Reuss Voigt Hill
#
# Bulk Modulus (GPa) = 26.86864 50.13186 38.50025
# Shear Modulus (GPa) = 29.42710 38.05564 33.74137
#
# Velocity S-wave (km/s) = 3.83598 4.36227 4.10757
# Velocity P-wave (km/s) = 5.74936 7.10215 6.46126
#
# Compressibility (1/GPa) = 0.03721810
#
# Stress axis : x y z
#
# Youngs Moduli (GPa) = 43.75870 43.75870 177.33340
#
# Poissons Ratio (x) = 0.01683 0.59216
# Poissons Ratio (y) = 0.01683 0.59216
# Poissons Ratio (z) = 0.14612 0.14612
#
# Static dielectric constant tensor:
#      x y z
#    x 1.668560 0.000000 0.000000 
#    y 0.000000 1.668560 0.000000 
#    z 0.000000 0.000000 1.657100 
# 
# From -- ./inp_files/768.got.cif
#   From: 2010.05.17/outbox.cif.g08.bks.cpg/sg158_cif.got.tgz:768.got - 2010.05.20 10:49:59.
