data_PCOD9577664
_publ_section_title
;
Structure prediction by ZEFSAII (Michael W. Deem and Ramdas Pophale) SiO2 
 PCOD9577664
Probable space group: P -3 1 M 
;
_chemical_formula_sum "Si O2"
_cell_formula_units_Z 66
_cell_length_a 20.161245
_cell_length_b 20.161245
_cell_length_c 9.815867
_cell_angle_alpha 90.000000
_cell_angle_beta 90.000000
_cell_angle_gamma 120.000000
_cell_volume 3455.365490
_symmetry_space_group_name_H-M "P -3 1 M "
_symmetry_group_IT_number 162
_symmetry_cell_setting 'hexagonal'
loop_
_space_group_symop_operation_xyz
x,y,z
-y,x-y,z
-x+y,-x,z
-y,-x,-z
-x+y,y,-z
x,x-y,-z
-x,-y,-z
y,-x+y,-z
x-y,x,-z
y,x,z
x-y,-y,z
-x,-x+y,z
loop_
_atom_site_type_symbol
_atom_site_label
_atom_site_fract_x
_atom_site_fract_y
_atom_site_fract_z
Si Si1 0.713302 0.092625 0.051613
Si Si2 0.816770 0.908385 0.500000
Si Si3 0.561682 0.907998 0.778101
Si Si4 0.496743 0.588815 0.756889
Si Si5 0.700986 0.543468 0.520476
Si Si6 0.791012 0.092196 0.305457
O O1 0.656817 0.112625 0.136759
O O2 0.785113 0.112595 0.148820
O O3 0.668360 0.000000 0.042120
O O4 0.715614 0.121667 0.898962
O O5 0.868333 0.868333 0.489457
O O6 0.760460 0.871734 0.630280
O O7 0.474709 0.887986 0.806033
O O8 0.563363 0.879161 0.628157
O O9 0.611764 0.000000 0.775977
O O10 0.545499 0.545499 0.738649
O O11 0.496403 0.626658 0.613411
O O12 0.751907 0.503814 0.500000
O O13 0.752527 0.622551 0.603101
O O14 0.737083 0.000000 0.317907
#
# Coordination Sequence:
#
# PCOD9577664 Si02
#       6
#    12   6  12  12  12  12
#     4   8  15  28  50  79 107 132 160 201 262 325
#     4  10  19  32  54  80 108 148 198 242 280 326
#     4  10  18  30  52  80 103 130 172 215 256 317
#     4   9  17  31  51  74 104 135 166 211 265 313
#     4  11  20  30  44  70 102 143 179 213 262 322
#     4   9  17  32  50  71 105 142 169 214 278 326
#
# _framework density 19.100729000000001
#
# number of rings (size 3 to 8) (size 9 to 14) (size 15 to 20)
#    0.000    2.545    0.909    3.909    0.000    3.636 
#    0.000    3.636    0.000    2.909    0.000    2.545 
#    0.000    0.000    0.000   18.182    0.000    0.000 
#
# Total GULP energy -368031.698668 kJ/mol
# GULP energy per Si atom -5576.237859 kJ/mol
# Density = 1.905726 g / cm^3
# Si number density = 19.100729 Si / 1000 Ang^3
#
#
#
# Elastic Constant Matrix: (Units=GPa)
#
#
# Indices 1 2 3 4 5 6 
#
# 1 48.2086 25.6507 23.3445 -0.0003 4.1687 0.0000
# 2 25.6507 48.2086 23.3445 0.0003 -4.1687 0.0000
# 3 23.3445 23.3445 127.6844 0.0000 0.0000 0.0000
# 4 -0.0003 0.0003 0.0000 10.7525 0.0000 -4.1687
# 5 4.1687 -4.1687 0.0000 0.0000 10.7525 -0.0003
# 6 0.0000 0.0000 0.0000 -4.1687 -0.0003 11.2789
#
#
#
# Elastic Compliance Matrix: (Units=1/GPa)
#
#
# Indices 1 2 3 4 5 6 
#
# 1 0.033527 -0.018218 -0.002799 0.000001 -0.020061 0.000000
# 2 -0.018218 0.033527 -0.002799 -0.000001 0.020061 0.000000
# 3 -0.002799 -0.002799 0.008855 0.000000 0.000000 0.000000
# 4 0.000001 -0.000001 0.000000 0.108557 0.000000 0.040123
# 5 -0.020061 0.020061 0.000000 0.000000 0.108557 0.000002
# 6 0.000000 0.000000 0.000000 0.040123 0.000002 0.103490
#
#
# Mechanical properties :
#
#
# Convention : Reuss Voigt Hill
#
# Bulk Modulus (GPa) = 35.36462 40.97566 38.17014
# Shear Modulus (GPa) = 11.02363 16.67422 13.84892
#
# Velocity S-wave (km/s) = 2.40496 2.95780 2.69559
# Velocity P-wave (km/s) = 5.12511 5.75880 5.45117
#
# Compressibility (1/GPa) = 0.02827685
#
# Stress axis : x y z
#
# Youngs Moduli (GPa) = 29.82686 29.82686 112.92761
#
# Poissons Ratio (x) = 0.54340 0.31607
# Poissons Ratio (y) = 0.54340 0.31607
# Poissons Ratio (z) = 0.08348 0.08348
#
# Static dielectric constant tensor:
#      x y z
#    x 1.673830 0.000000 0.000000 
#    y 0.000000 1.673830 0.000000 
#    z 0.000000 0.000000 1.692550 
# 
# From -- ./inp_files/1581.got.cif
#   From: 2010.05.17/outbox.cif.g08.bks.cpg/sg162_1_cif.got.tgz:1581.got - 2010.05.20 10:53:12.
