data_PCOD9577236
_publ_section_title
;
Structure prediction by ZEFSAII (Michael W. Deem and Ramdas Pophale) SiO2 
 PCOD9577236
Probable space group: P 3 M 1
;
_chemical_formula_sum "Si O2"
_cell_formula_units_Z 48
_cell_length_a 12.739925
_cell_length_b 12.739925
_cell_length_c 20.896640
_cell_angle_alpha 90.000000
_cell_angle_beta 90.000000
_cell_angle_gamma 120.000000
_cell_volume 2937.249478
_symmetry_space_group_name_H-M "P 3 M 1"
_symmetry_group_IT_number 156
_symmetry_cell_setting 'hexagonal'
loop_
_space_group_symop_operation_xyz
x,y,z
-y,x-y,z
-x+y,-x,z
-x+y,y,z
x,x-y,z
-y,-x,z
loop_
_atom_site_type_symbol
_atom_site_label
_atom_site_fract_x
_atom_site_fract_y
_atom_site_fract_z
Si Si1 0.085513 0.666510 0.365620
Si Si2 0.084307 0.418206 0.752950
Si Si3 0.751175 0.000250 0.245875
Si Si4 0.417187 0.333367 0.876784
Si Si5 0.666899 0.083804 0.123422
Si Si6 0.333062 0.914880 0.511842
Si Si7 0.915550 0.333097 0.631072
Si Si8 0.999396 0.750430 0.000733
O O1 0.077296 0.538648 0.353194
O O2 0.225226 0.774775 0.362492
O O3 0.014069 0.695878 0.312413
O O4 0.044739 0.666623 0.438680
O O5 0.204797 0.409593 0.755949
O O6 0.116205 0.558103 0.751441
O O7 0.999151 0.357920 0.814474
O O8 0.007118 0.356402 0.689287
O O9 0.752861 0.876431 0.234552
O O10 0.683339 0.025397 0.188180
O O11 0.886473 0.113528 0.248293
O O12 0.431219 0.215610 0.867390
O O13 0.547879 0.452122 0.887332
O O14 0.331184 0.307764 0.937908
O O15 0.539119 0.078239 0.120863
O O16 0.777212 0.222789 0.121387
O O17 0.686950 0.017564 0.063039
O O18 0.442624 0.885247 0.516189
O O19 0.206027 0.793974 0.524265
O O20 0.360940 0.016203 0.564459
O O21 0.887976 0.443988 0.633226
O O22 0.793641 0.206360 0.637360
O O23 0.890791 0.781582 0.002940
O O24 0.128387 0.871613 0.999587
#
# Coordination Sequence:
#
# PCOD9577236 Si02
#       8
#     6   6   6   6   6   6   6   6
#     4   9  17  30  49  73  99 127 160 199 244 291
#     4  10  20  34  53  76 101 129 162 202 247 293
#     4  10  20  33  50  71  97 130 166 203 241 286
#     4  10  20  34  54  78 104 134 167 204 243 286
#     4  10  20  34  53  75  99 127 160 202 249 296
#     4   9  17  30  50  74  98 125 159 201 246 291
#     4  10  20  33  50  71  97 129 163 201 243 290
#     4  10  20  34  53  76 103 135 169 204 241 285
#
# _framework density 16.341819000000001
#
# number of rings (size 3 to 8) (size 9 to 14) (size 15 to 20)
#    0.000    2.250    0.000    3.250    0.000    1.500 
#    0.000    5.000    0.000   11.500    0.000    0.000 
#    0.000    0.000    0.000    0.000    0.000    0.000 
#
# Total GULP energy -267848.448704 kJ/mol
# GULP energy per Si atom -5580.176015 kJ/mol
# Density = 1.630462 g / cm^3
# Si number density = 16.341819 Si / 1000 Ang^3
#
#
#
# Elastic Constant Matrix: (Units=GPa)
#
#
# Indices 1 2 3 4 5 6 
#
# 1 124.9756 88.3736 80.1216 1.8530 -0.0002 0.0000
# 2 88.3736 124.9756 80.1216 -1.8530 0.0002 0.0000
# 3 80.1216 80.1216 130.3076 0.0000 0.0000 0.0000
# 4 1.8530 -1.8530 0.0000 21.7156 0.0000 0.0002
# 5 -0.0002 0.0002 0.0000 0.0000 21.7156 1.8530
# 6 0.0000 0.0000 0.0000 0.0002 1.8530 18.3010
#
#
#
# Elastic Compliance Matrix: (Units=1/GPa)
#
#
# Indices 1 2 3 4 5 6 
#
# 1 0.018134 -0.009425 -0.005355 -0.002352 0.000000 0.000000
# 2 -0.009425 0.018134 -0.005355 0.002352 0.000000 0.000000
# 3 -0.005355 -0.005355 0.014259 0.000000 0.000000 0.000000
# 4 -0.002352 0.002352 0.000000 0.046451 0.000000 -0.000001
# 5 0.000000 0.000000 0.000000 0.000000 0.046451 -0.004703
# 6 0.000000 0.000000 0.000000 -0.000001 -0.004703 0.055118
#
#
# Mechanical properties :
#
#
# Convention : Reuss Voigt Hill
#
# Bulk Modulus (GPa) = 97.48679 97.49913 97.49296
# Shear Modulus (GPa) = 20.64094 21.12256 20.88175
#
# Velocity S-wave (km/s) = 3.55783 3.59910 3.57853
# Velocity P-wave (km/s) = 8.75568 8.77857 8.76713
#
# Compressibility (1/GPa) = 0.01025780
#
# Stress axis : x y z
#
# Youngs Moduli (GPa) = 55.14475 55.14475 70.12955
#
# Poissons Ratio (x) = 0.51973 0.37554
# Poissons Ratio (y) = 0.51973 0.37554
# Poissons Ratio (z) = 0.29530 0.29530
#
# Static dielectric constant tensor:
#      x y z
#    x 1.515810 0.000000 0.000000 
#    y 0.000000 1.515810 0.000000 
#    z 0.000000 0.000000 1.546730 
# 
# From -- ./inp_files/1076.got.cif
#   From: 2010.05.17/outbox.cif.g08.bks.cpg/sg156_cif.got.tgz:1076.got - 2010.05.20 10:49:08.
