data_PCOD9577815
_publ_section_title
;
Structure prediction by ZEFSAII (Michael W. Deem and Ramdas Pophale) SiO2 
 PCOD9577815
Probable space group: P -3 1 M 
;
_chemical_formula_sum "Si O2"
_cell_formula_units_Z 48
_cell_length_a 19.095771
_cell_length_b 19.095771
_cell_length_c 8.665361
_cell_angle_alpha 90.000000
_cell_angle_beta 90.000000
_cell_angle_gamma 120.000000
_cell_volume 2736.476278
_symmetry_space_group_name_H-M "P -3 1 M "
_symmetry_group_IT_number 162
_symmetry_cell_setting 'hexagonal'
loop_
_space_group_symop_operation_xyz
x,y,z
-y,x-y,z
-x+y,-x,z
-y,-x,-z
-x+y,y,-z
x,x-y,-z
-x,-y,-z
y,-x+y,-z
x-y,x,-z
y,x,z
x-y,-y,z
-x,-x+y,z
loop_
_atom_site_type_symbol
_atom_site_label
_atom_site_fract_x
_atom_site_fract_y
_atom_site_fract_z
Si Si1 0.489410 0.665276 0.435648
Si Si2 0.243900 0.335321 0.433964
Si Si3 0.481318 0.094987 0.111002
Si Si4 0.757998 0.666927 0.933563
O O1 0.418253 0.581748 0.500000
O O2 0.475718 0.737859 0.500000
O O3 0.578023 0.690414 0.498639
O O4 0.493442 0.650977 0.252847
O O5 0.157867 0.315733 0.500000
O O6 0.269848 0.269848 0.473696
O O7 0.243581 0.343596 0.249960
O O8 0.439617 0.000000 0.163970
O O9 0.555405 0.110810 0.000000
O O10 0.414141 0.101648 0.011196
O O11 0.736288 0.736288 0.967853
O O12 0.842701 0.685402 0.000000
#
# Coordination Sequence:
#
# PCOD9577815 Si02
#       4
#    12  12  12  12
#     4  11  22  36  54  77 109 147 187 227 273 322
#     4  10  21  36  57  83 109 140 178 222 271 324
#     4  10  21  36  55  80 108 140 182 231 278 326
#     4  10  20  35  55  80 109 141 178 218 265 319
#
# _framework density 17.540807000000001
#
# number of rings (size 3 to 8) (size 9 to 14) (size 15 to 20)
#    0.000    1.750    0.000    5.500    0.000    7.000 
#    0.000    0.000    0.000    1.000    0.000    0.000 
#    0.000    0.000    0.000    0.000    0.000    0.000 
#
# Total GULP energy -267916.734460 kJ/mol
# GULP energy per Si atom -5581.598635 kJ/mol
# Density = 1.750088 g / cm^3
# Si number density = 17.540807 Si / 1000 Ang^3
#
#
#
# Elastic Constant Matrix: (Units=GPa)
#
#
# Indices 1 2 3 4 5 6 
#
# 1 107.7489 91.1882 73.0613 -0.0002 6.4117 0.0000
# 2 91.1882 107.7489 73.0613 0.0002 -6.4117 0.0000
# 3 73.0613 73.0613 98.1023 0.0000 0.0000 0.0000
# 4 -0.0002 0.0002 0.0000 32.3359 0.0000 -6.4117
# 5 6.4117 -6.4117 0.0000 0.0000 32.3359 -0.0002
# 6 0.0000 0.0000 0.0000 -6.4117 -0.0002 8.2803
#
#
#
# Elastic Compliance Matrix: (Units=1/GPa)
#
#
# Indices 1 2 3 4 5 6 
#
# 1 0.041217 -0.030120 -0.008265 0.000000 -0.014145 0.000000
# 2 -0.030120 0.041217 -0.008265 0.000000 0.014145 0.000000
# 3 -0.008265 -0.008265 0.022503 0.000000 0.000000 0.000000
# 4 0.000000 0.000000 0.000000 0.036535 0.000000 0.028290
# 5 -0.014145 0.014145 0.000000 0.000000 0.036535 0.000001
# 6 0.000000 0.000000 0.000000 0.028290 0.000001 0.142674
#
#
# Mechanical properties :
#
#
# Convention : Reuss Voigt Hill
#
# Bulk Modulus (GPa) = 85.91427 87.58017 86.74722
# Shear Modulus (GPa) = 11.96577 19.67640 15.82108
#
# Velocity S-wave (km/s) = 2.61467 3.35289 3.00652
# Velocity P-wave (km/s) = 7.62898 8.06393 7.84947
#
# Compressibility (1/GPa) = 0.01163951
#
# Stress axis : x y z
#
# Youngs Moduli (GPa) = 24.26182 24.26182 44.43760
#
# Poissons Ratio (x) = 0.73076 0.36726
# Poissons Ratio (y) = 0.73076 0.36726
# Poissons Ratio (z) = 0.20051 0.20051
#
# Static dielectric constant tensor:
#      x y z
#    x 1.566150 0.000000 0.000000 
#    y 0.000000 1.566150 0.000000 
#    z 0.000000 0.000000 1.606280 
# 
# From -- ./inp_files/1173.got.cif
#   From: 2010.05.17/outbox.cif.g08.bks.cpg/sg162_1_cif.got.tgz:1173.got - 2010.05.20 10:53:12.
