data_PCOD9577038
_publ_section_title
;
Structure prediction by ZEFSAII (Michael W. Deem and Ramdas Pophale) SiO2 
 PCOD9577038
Probable space group: R 3 2
;
_chemical_formula_sum "Si O2"
_cell_formula_units_Z 48
_cell_length_a 12.400225
_cell_length_b 12.400225
_cell_length_c 19.056937
_cell_angle_alpha 90.000000
_cell_angle_beta 90.000000
_cell_angle_gamma 120.000000
_cell_volume 2537.715082
_symmetry_space_group_name_H-M "R 3 2"
_symmetry_group_IT_number 155
_symmetry_cell_setting 'hexagonal'
loop_
_space_group_symop_operation_xyz
x,y,z
-y,x-y,z
-x+y,-x,z
x-y,-y,-z
-x,-x+y,-z
y,x,-z
2/3+x,1/3+y,1/3+z
2/3-y,1/3+x-y,1/3+z
2/3-x+y,1/3-x,1/3+z
2/3+x-y,1/3-y,1/3-z
2/3-x,1/3-x+y,1/3-z
2/3+y,1/3+x,1/3-z
1/3+x,2/3+y,2/3+z
1/3-y,2/3+x-y,2/3+z
1/3-x+y,2/3-x,2/3+z
1/3+x-y,2/3-y,2/3-z
1/3-x,2/3-x+y,2/3-z
1/3+y,2/3+x,2/3-z
loop_
_atom_site_type_symbol
_atom_site_label
_atom_site_fract_x
_atom_site_fract_y
_atom_site_fract_z
Si Si1 0.333335 0.666667 0.065713
Si Si2 0.534088 0.666667 0.166667
Si Si3 0.333334 0.666668 0.897025
Si Si4 0.060919 0.810632 0.150502
Si Si5 0.666667 0.193708 0.333334
O O1 0.446692 0.654718 0.100001
O O2 0.333334 0.666667 0.981661
O O3 0.665980 0.790241 0.157175
O O4 0.347616 0.552993 0.865350
O O5 0.006321 0.666667 0.166667
O O6 0.013203 0.805950 0.071810
O O7 0.783816 0.333334 0.333334
#
# Coordination Sequence:
#
# PCOD9577038 Si02
#       5
#     6   9   6  18   9
#     4  10  22  51  61 100 142 170 238 268 343 396
#     4  10  24  48  68  96 136 184 220 284 336 398
#     4  12  28  41  67 108 133 179 229 279 331 413
#     4  12  25  45  71 101 137 177 231 274 339 402
#     4  10  22  48  64  96 140 180 212 276 340 392
#
# _framework density 18.914652
#
# number of rings (size 3 to 8) (size 9 to 14) (size 15 to 20)
#    0.375    0.750    7.500    0.000    7.875    1.500 
#    0.000    0.000    0.000    0.000    0.000    0.000 
#    0.000    0.000    0.000    0.000    0.000    0.000 
#
# Total GULP energy -89257.741392 kJ/mol
# GULP energy per Si atom -5578.608837 kJ/mol
# Density = 1.887160 g / cm^3
# Si number density = 18.914652 Si / 1000 Ang^3
#
#
#
# Elastic Constant Matrix: (Units=GPa)
#
#
# Indices 1 2 3 4 5 6 
#
# 1 81.5694 33.9816 40.1520 10.1910 0.0016 0.0000
# 2 33.9816 81.5651 40.1546 -10.1873 -0.0016 0.0000
# 3 40.1520 40.1546 187.8741 -0.0041 0.0000 0.0000
# 4 10.1910 -10.1873 -0.0041 36.6128 0.0000 -0.0016
# 5 0.0016 -0.0016 0.0000 0.0000 36.6158 10.1927
# 6 0.0000 0.0000 0.0000 -0.0016 10.1927 23.7944
#
#
#
# Elastic Compliance Matrix: (Units=1/GPa)
#
#
# Indices 1 2 3 4 5 6 
#
# 1 0.017011 -0.006847 -0.002172 -0.006640 -0.000001 0.000000
# 2 -0.006847 0.017011 -0.002172 0.006639 0.000001 0.000000
# 3 -0.002172 -0.002172 0.006251 0.000001 0.000000 0.000000
# 4 -0.006640 0.006639 0.000001 0.031008 0.000000 0.000002
# 5 -0.000001 0.000001 0.000000 0.000000 0.031008 -0.013283
# 6 0.000000 0.000000 0.000000 0.000002 -0.013283 0.047717
#
#
# Mechanical properties :
#
#
# Convention : Reuss Voigt Hill
#
# Bulk Modulus (GPa) = 55.89649 64.39834 60.14741
# Shear Modulus (GPa) = 28.03424 35.18595 31.61009
#
# Velocity S-wave (km/s) = 3.85404 4.31774 4.09246
# Velocity P-wave (km/s) = 7.03000 7.67971 7.36202
#
# Compressibility (1/GPa) = 0.01789021
#
# Stress axis : x y z
#
# Youngs Moduli (GPa) = 58.78608 58.78410 159.96746
#
# Poissons Ratio (x) = 0.40249 0.34749
# Poissons Ratio (y) = 0.40251 0.34751
# Poissons Ratio (z) = 0.12770 0.12770
#
# Static dielectric constant tensor:
#      x y z
#    x 1.547850 0.000000 0.000000 
#    y 0.000000 1.547840 0.000000 
#    z 0.000000 0.000000 1.594110 
# 
# From -- ./inp_files/6574.got.cif
#   From: 2010.05.17/outbox.cif.g08.bks.cpg/sg155_4_cif.got.tgz:6574.got - 2010.05.20 10:44:35.
