data_PCOD9577949
_publ_section_title
;
Structure prediction by ZEFSAII (Michael W. Deem and Ramdas Pophale) SiO2 
 PCOD9577949
Probable space group: P -3 1 M 
;
_chemical_formula_sum "Si O2"
_cell_formula_units_Z 36
_cell_length_a 20.636985
_cell_length_b 20.636985
_cell_length_c 4.800028
_cell_angle_alpha 90.000000
_cell_angle_beta 90.000000
_cell_angle_gamma 120.000000
_cell_volume 1770.381650
_symmetry_space_group_name_H-M "P -3 1 M "
_symmetry_group_IT_number 162
_symmetry_cell_setting 'hexagonal'
loop_
_space_group_symop_operation_xyz
x,y,z
-y,x-y,z
-x+y,-x,z
-y,-x,-z
-x+y,y,-z
x,x-y,-z
-x,-y,-z
y,-x+y,-z
x-y,x,-z
y,x,z
x-y,-y,z
-x,-x+y,z
loop_
_atom_site_type_symbol
_atom_site_label
_atom_site_fract_x
_atom_site_fract_y
_atom_site_fract_z
Si Si1 0.578640 0.717547 0.442663
Si Si2 0.086400 0.262807 0.732571
Si Si3 0.472152 0.088647 0.935739
O O1 0.548415 0.774208 0.500000
O O2 0.662873 0.761781 0.567496
O O3 0.566726 0.690861 0.125524
O O4 0.535898 0.642338 0.619263
O O5 0.111685 0.223370 0.500000
O O6 0.000000 0.214634 0.815337
O O7 0.140346 0.280691 0.000000
O O8 0.425680 0.000000 0.985453
O O9 0.558067 0.116134 0.000000
#
# Coordination Sequence:
#
# PCOD9577949 Si02
#       3
#    12  12  12
#     4  11  22  37  58  85 115 147 184 230 281 333
#     4  11  22  37  59  86 116 150 188 235 287 339
#     4  11  22  37  59  85 114 147 184 230 280 332
#
# _framework density 20.334598
#
# number of rings (size 3 to 8) (size 9 to 14) (size 15 to 20)
#    0.000    1.000    0.000   10.000    0.000    2.667 
#    0.000    0.000    0.000   20.000    0.000    0.000 
#    0.000    0.000    0.000    0.000    0.000    0.000 
#
# Total GULP energy -201111.336395 kJ/mol
# GULP energy per Si atom -5586.426011 kJ/mol
# Density = 2.028832 g / cm^3
# Si number density = 20.334598 Si / 1000 Ang^3
#
#
#
# Elastic Constant Matrix: (Units=GPa)
#
#
# Indices 1 2 3 4 5 6 
#
# 1 69.4086 24.5225 -0.3077 -0.0003 0.9085 0.0000
# 2 24.5225 69.4086 -0.3077 0.0003 -0.9085 0.0000
# 3 -0.3077 -0.3077 70.7594 0.0000 0.0000 0.0000
# 4 -0.0003 0.0003 0.0000 29.4565 0.0000 -0.9085
# 5 0.9085 -0.9085 0.0000 0.0000 29.4565 -0.0003
# 6 0.0000 0.0000 0.0000 -0.9085 -0.0003 22.4431
#
#
#
# Elastic Compliance Matrix: (Units=1/GPa)
#
#
# Indices 1 2 3 4 5 6 
#
# 1 0.016476 -0.005830 0.000046 0.000000 -0.000688 0.000000
# 2 -0.005830 0.016476 0.000046 0.000000 0.000688 0.000000
# 3 0.000046 0.000046 0.014133 0.000000 0.000000 0.000000
# 4 0.000000 0.000000 0.000000 0.033991 0.000000 0.001376
# 5 -0.000688 0.000688 0.000000 0.000000 0.033991 0.000000
# 6 0.000000 0.000000 0.000000 0.001376 0.000000 0.044613
#
#
# Mechanical properties :
#
#
# Convention : Reuss Voigt Hill
#
# Bulk Modulus (GPa) = 28.08137 28.59898 28.34017
# Shear Modulus (GPa) = 27.31861 28.64917 27.98389
#
# Velocity S-wave (km/s) = 3.66929 3.75759 3.71370
# Velocity P-wave (km/s) = 5.63837 5.73765 5.68823
#
# Compressibility (1/GPa) = 0.03561080
#
# Stress axis : x y z
#
# Youngs Moduli (GPa) = 60.69276 60.69276 70.75741
#
# Poissons Ratio (x) = 0.35384 -0.00328
# Poissons Ratio (y) = 0.35384 -0.00328
# Poissons Ratio (z) = -0.00281 -0.00281
#
# Static dielectric constant tensor:
#      x y z
#    x 1.730910 0.000000 0.000000 
#    y 0.000000 1.730910 0.000000 
#    z 0.000000 0.000000 1.707210 
# 
# From -- ./inp_files/286.got.cif
#   From: 2010.05.17/outbox.cif.g08.bks.cpg/sg162_1_cif.got.tgz:286.got - 2010.05.20 10:53:12.
