data_PCOD9577686
_publ_section_title
;
Structure prediction by ZEFSAII (Michael W. Deem and Ramdas Pophale) SiO2 
 PCOD9577686
Probable space group: P -3 1 M 
;
_chemical_formula_sum "Si O2"
_cell_formula_units_Z 96
_cell_length_a 18.202639
_cell_length_b 18.202639
_cell_length_c 20.515181
_cell_angle_alpha 90.000000
_cell_angle_beta 90.000000
_cell_angle_gamma 120.000000
_cell_volume 5886.737861
_symmetry_space_group_name_H-M "P -3 1 M "
_symmetry_group_IT_number 162
_symmetry_cell_setting 'hexagonal'
loop_
_space_group_symop_operation_xyz
x,y,z
-y,x-y,z
-x+y,-x,z
-y,-x,-z
-x+y,y,-z
x,x-y,-z
-x,-y,-z
y,-x+y,-z
x-y,x,-z
y,x,z
x-y,-y,z
-x,-x+y,z
loop_
_atom_site_type_symbol
_atom_site_label
_atom_site_fract_x
_atom_site_fract_y
_atom_site_fract_z
Si Si1 0.099303 0.733001 0.879081
Si Si2 0.101312 0.467179 0.245582
Si Si3 0.266999 0.366301 0.120919
Si Si4 0.507735 0.840366 1.000000
Si Si5 0.532821 0.898688 0.245582
Si Si6 0.503147 0.667803 0.609729
Si Si7 0.735559 0.094257 0.500000
Si Si8 0.496853 0.332197 0.609729
O O1 0.118455 0.699927 0.811689
O O2 0.167471 0.832529 0.886832
O O3 0.000000 0.704712 0.880005
O O4 0.117236 0.684122 0.937045
O O5 0.125975 0.562987 0.226081
O O6 0.144277 0.472092 0.314574
O O7 0.000000 0.416512 0.256214
O O8 0.295288 0.295288 0.119994
O O9 0.315878 0.433114 0.062955
O O10 0.300073 0.418528 0.188311
O O11 0.424822 0.849643 0.000000
O O12 0.483163 0.741582 0.000000
O O13 0.527908 0.855723 0.314574
O O14 0.583488 0.000000 0.256214
O O15 0.581823 0.691855 0.562690
O O16 0.425911 0.574089 0.596857
O O17 0.475558 0.737779 0.596881
O O18 0.833064 0.166937 0.500000
O O19 0.691855 0.110032 0.562690
O O20 0.718387 0.000000 0.500000
#
# Coordination Sequence:
#
# PCOD9577686 Si02
#       8
#    12  12  12  12  12  12  12  12
#     4  10  20  33  49  69  93 122 157 196 237 279
#     4   9  17  29  46  68  93 122 157 195 232 272
#     4  10  20  33  49  69  93 122 157 196 237 279
#     4  10  20  33  50  73 100 128 155 184 220 265
#     4   9  17  29  46  68  93 122 157 195 232 272
#     4  10  19  30  45  67  97 131 164 194 223 258
#     4  10  21  35  51  70  91 117 150 190 235 281
#     4  10  19  30  45  67  97 131 164 194 223 258
#
# _framework density 16.307843999999999
#
# number of rings (size 3 to 8) (size 9 to 14) (size 15 to 20)
#    0.000    2.250    0.000    3.375    0.000    4.000 
#    0.000    1.250    0.000    8.375    0.000    0.000 
#    0.000    3.000    0.000    8.000    0.000    0.000 
#
# Total GULP energy -535550.125948 kJ/mol
# GULP energy per Si atom -5578.647145 kJ/mol
# Density = 1.627073 g / cm^3
# Si number density = 16.307844 Si / 1000 Ang^3
#
#
#
# Elastic Constant Matrix: (Units=GPa)
#
#
# Indices 1 2 3 4 5 6 
#
# 1 91.3336 65.6359 38.2011 0.0000 0.0000 0.0000
# 2 65.6359 91.3336 38.2011 0.0000 0.0000 0.0000
# 3 38.2011 38.2011 64.2667 0.0000 0.0000 0.0000
# 4 0.0000 0.0000 0.0000 18.9997 0.0000 0.0000
# 5 0.0000 0.0000 0.0000 0.0000 18.9997 0.0000
# 6 0.0000 0.0000 0.0000 0.0000 0.0000 12.8489
#
#
#
# Elastic Compliance Matrix: (Units=1/GPa)
#
#
# Indices 1 2 3 4 5 6 
#
# 1 0.023939 -0.014975 -0.005328 0.000000 0.000000 0.000000
# 2 -0.014975 0.023939 -0.005328 0.000000 0.000000 0.000000
# 3 -0.005328 -0.005328 0.021895 0.000000 0.000000 0.000000
# 4 0.000000 0.000000 0.000000 0.052632 0.000000 0.000000
# 5 0.000000 0.000000 0.000000 0.000000 0.052632 0.000000
# 6 0.000000 0.000000 0.000000 0.000000 0.000000 0.077828
#
#
# Mechanical properties :
#
#
# Convention : Reuss Voigt Hill
#
# Bulk Modulus (GPa) = 54.02668 59.00111 56.51389
# Shear Modulus (GPa) = 16.11350 17.16272 16.63811
#
# Velocity S-wave (km/s) = 3.14679 3.24762 3.19760
# Velocity P-wave (km/s) = 6.81206 7.09372 6.95432
#
# Compressibility (1/GPa) = 0.01850937
#
# Stress axis : x y z
#
# Youngs Moduli (GPa) = 41.77273 41.77273 45.67298
#
# Poissons Ratio (x) = 0.62554 0.24337
# Poissons Ratio (y) = 0.62554 0.24337
# Poissons Ratio (z) = 0.22258 0.22258
#
# Static dielectric constant tensor:
#      x y z
#    x 1.533610 0.000000 0.000000 
#    y 0.000000 1.533610 0.000000 
#    z 0.000000 0.000000 1.552780 
# 
# From -- ./inp_files/3895.got.cif
#   From: 2010.05.17/outbox.cif.g08.bks.cpg/sg162_2_cif.got.tgz:3895.got - 2010.05.20 10:53:12.
