data_PCOD9577154
_publ_section_title
;
Structure prediction by ZEFSAII (Michael W. Deem and Ramdas Pophale) SiO2 
 PCOD9577154
Probable space group: R 3 2
;
_chemical_formula_sum "Si O2"
_cell_formula_units_Z 60
_cell_length_a 11.599993
_cell_length_b 11.599993
_cell_length_c 24.471103
_cell_angle_alpha 90.000000
_cell_angle_beta 90.000000
_cell_angle_gamma 120.000000
_cell_volume 2851.672391
_symmetry_space_group_name_H-M "R 3 2"
_symmetry_group_IT_number 155
_symmetry_cell_setting 'hexagonal'
loop_
_space_group_symop_operation_xyz
x,y,z
-y,x-y,z
-x+y,-x,z
x-y,-y,-z
-x,-x+y,-z
y,x,-z
2/3+x,1/3+y,1/3+z
2/3-y,1/3+x-y,1/3+z
2/3-x+y,1/3-x,1/3+z
2/3+x-y,1/3-y,1/3-z
2/3-x,1/3-x+y,1/3-z
2/3+y,1/3+x,1/3-z
1/3+x,2/3+y,2/3+z
1/3-y,2/3+x-y,2/3+z
1/3-x+y,2/3-x,2/3+z
1/3+x-y,2/3-y,2/3-z
1/3-x,2/3-x+y,2/3-z
1/3+y,2/3+x,2/3-z
loop_
_atom_site_type_symbol
_atom_site_label
_atom_site_fract_x
_atom_site_fract_y
_atom_site_fract_z
Si Si1 0.694353 0.843125 0.895893
Si Si2 0.333334 0.666668 0.732637
Si Si3 0.751613 0.758570 0.566934
Si Si4 0.012063 0.738504 0.393783
O O1 0.666667 0.805686 0.833334
O O2 0.849012 0.933816 0.912244
O O3 0.647544 0.699228 0.921556
O O4 0.623878 0.929028 0.905758
O O5 0.333334 0.666668 0.666667
O O6 0.766361 0.766361 0.500000
O O7 0.886231 0.776908 0.592354
O O8 0.717023 0.868510 0.589120
O O9 0.028199 0.694865 0.333334
#
# Coordination Sequence:
#
# PCOD9577154 Si02
#       4
#    18   6  18  18
#     4  11  25  44  73 103 138 183 243 292 355 434
#     4  12  24  45  78 102 135 189 249 297 358 428
#     4  11  25  47  72 100 143 193 234 285 360 440
#     4  12  27  44  74 104 144 184 239 299 356 422
#
# _framework density 21.040285999999998
#
# number of rings (size 3 to 8) (size 9 to 14) (size 15 to 20)
#    0.000    0.600    3.000    4.200    8.400    0.000 
#    1.800    0.000    0.000    0.000    0.000    0.000 
#    0.000    0.000    0.000    0.000    0.000    0.000 
#
# Total GULP energy -111577.397685 kJ/mol
# GULP energy per Si atom -5578.869884 kJ/mol
# Density = 2.099240 g / cm^3
# Si number density = 21.040286 Si / 1000 Ang^3
#
#
#
# Elastic Constant Matrix: (Units=GPa)
#
#
# Indices 1 2 3 4 5 6 
#
# 1 71.7903 18.3941 21.0746 12.3235 -0.0051 -0.0003
# 2 18.3941 71.7899 21.0759 -12.3235 0.0051 0.0001
# 3 21.0746 21.0759 88.2120 0.0004 0.0000 0.0000
# 4 12.3235 -12.3235 0.0004 22.0216 0.0001 0.0052
# 5 -0.0051 0.0051 0.0000 0.0001 22.0208 12.3247
# 6 -0.0003 0.0001 0.0000 0.0052 12.3247 26.6973
#
#
#
# Elastic Compliance Matrix: (Units=1/GPa)
#
#
# Indices 1 2 3 4 5 6 
#
# 1 0.018866 -0.006384 -0.002982 -0.014130 0.000006 0.000000
# 2 -0.006384 0.018867 -0.002983 0.014131 -0.000006 0.000000
# 3 -0.002982 -0.002983 0.012761 -0.000001 0.000000 0.000000
# 4 -0.014130 0.014131 -0.000001 0.061225 0.000000 -0.000012
# 5 0.000006 -0.000006 0.000000 0.000000 0.061233 -0.028268
# 6 0.000000 0.000000 0.000000 -0.000012 -0.028268 0.050507
#
#
# Mechanical properties :
#
#
# Convention : Reuss Voigt Hill
#
# Bulk Modulus (GPa) = 38.76425 39.20907 38.98666
# Shear Modulus (GPa) = 19.47386 25.56444 22.51915
#
# Velocity S-wave (km/s) = 3.04559 3.48950 3.27507
# Velocity P-wave (km/s) = 5.55259 5.90857 5.73334
#
# Compressibility (1/GPa) = 0.02579697
#
# Stress axis : x y z
#
# Youngs Moduli (GPa) = 53.00496 53.00390 78.36177
#
# Poissons Ratio (x) = 0.33838 0.23367
# Poissons Ratio (y) = 0.33839 0.23371
# Poissons Ratio (z) = 0.15806 0.15808
#
# Static dielectric constant tensor:
#      x y z
#    x 1.805010 0.000000 0.000000 
#    y 0.000000 1.805010 0.000000 
#    z 0.000000 0.000000 1.956230 
# 
# From -- ./inp_files/7766.got.cif
#   From: 2010.05.17/outbox.cif.g08.bks.cpg/sg155_4_cif.got.tgz:7766.got - 2010.05.20 10:44:35.
