data_PCOD9577002
_publ_section_title
;
Structure prediction by ZEFSAII (Michael W. Deem and Ramdas Pophale) SiO2 
 PCOD9577002
Probable space group: R 3 2
;
_chemical_formula_sum "Si O2"
_cell_formula_units_Z 69
_cell_length_a 21.611088
_cell_length_b 21.611088
_cell_length_c 8.672417
_cell_angle_alpha 90.000000
_cell_angle_beta 90.000000
_cell_angle_gamma 120.000000
_cell_volume 3507.712960
_symmetry_space_group_name_H-M "R 3 2"
_symmetry_group_IT_number 155
_symmetry_cell_setting 'hexagonal'
loop_
_space_group_symop_operation_xyz
x,y,z
-y,x-y,z
-x+y,-x,z
x-y,-y,-z
-x,-x+y,-z
y,x,-z
2/3+x,1/3+y,1/3+z
2/3-y,1/3+x-y,1/3+z
2/3-x+y,1/3-x,1/3+z
2/3+x-y,1/3-y,1/3-z
2/3-x,1/3-x+y,1/3-z
2/3+y,1/3+x,1/3-z
1/3+x,2/3+y,2/3+z
1/3-y,2/3+x-y,2/3+z
1/3-x+y,2/3-x,2/3+z
1/3+x-y,2/3-y,2/3-z
1/3-x,2/3-x+y,2/3-z
1/3+y,2/3+x,2/3-z
loop_
_atom_site_type_symbol
_atom_site_label
_atom_site_fract_x
_atom_site_fract_y
_atom_site_fract_z
Si Si1 0.150913 0.402712 0.642355
Si Si2 0.529743 0.086042 0.658099
Si Si3 0.184544 0.553518 0.951695
Si Si4 0.503279 0.333334 0.833334
Si Si5 0.000000 0.000000 0.692293
O O1 0.086094 0.419428 0.666667
O O2 0.190513 0.413215 0.805821
O O3 0.125033 0.321327 0.599721
O O4 0.200377 0.461025 0.517189
O O5 0.508132 0.146659 0.685335
O O6 0.608561 0.108982 0.721537
O O7 0.268010 0.594444 0.909022
O O8 0.182361 0.611997 0.062356
O O9 0.000000 0.000000 0.500000
#
# Coordination Sequence:
#
# PCOD9577002 Si02
#       5
#    18  18  18   9   6
#     4   9  22  44  65  99 126 170 223 277 336 388
#     4  10  21  42  64  89 136 168 214 276 326 391
#     4  11  21  38  66  96 132 175 211 271 334 389
#     4  12  22  36  60  94 132 168 214 258 332 388
#     4  12  18  36  64 101 142 166 206 268 339 385
#
# _framework density 19.670936999999999
#
# number of rings (size 3 to 8) (size 9 to 14) (size 15 to 20)
#    0.000    1.565    3.913    0.783    0.000    2.087 
#   23.478    0.000    0.000   12.522    0.000    0.000 
#    0.000    0.000    0.000    0.000    0.000    0.000 
#
# Total GULP energy -128054.562060 kJ/mol
# GULP energy per Si atom -5567.589655 kJ/mol
# Density = 1.962617 g / cm^3
# Si number density = 19.670937 Si / 1000 Ang^3
#
#
#
# Elastic Constant Matrix: (Units=GPa)
#
#
# Indices 1 2 3 4 5 6 
#
# 1 135.8242 55.4566 54.2486 13.6297 -0.0186 0.0064
# 2 55.4566 135.8285 54.2563 -13.6197 0.0025 -0.0007
# 3 54.2486 54.2563 68.2362 0.0212 -0.0370 0.0130
# 4 13.6297 -13.6197 0.0212 27.2842 0.0283 -0.0021
# 5 -0.0186 0.0025 -0.0370 0.0283 27.2319 13.6297
# 6 0.0064 -0.0007 0.0130 -0.0021 13.6297 40.1888
#
#
#
# Elastic Compliance Matrix: (Units=1/GPa)
#
#
# Indices 1 2 3 4 5 6 
#
# 1 0.012248 -0.002728 -0.007566 -0.007474 0.000007 -0.000002
# 2 -0.002728 0.012253 -0.007576 0.007485 -0.000027 0.000013
# 3 -0.007566 -0.007576 0.026694 -0.000023 0.000043 -0.000022
# 4 -0.007474 0.007485 -0.000023 0.044122 -0.000064 0.000025
# 5 0.000007 -0.000027 0.000043 -0.000064 0.044229 -0.015000
# 6 -0.000002 0.000013 -0.000022 0.000025 -0.015000 0.029970
#
#
# Mechanical properties :
#
#
# Convention : Reuss Voigt Hill
#
# Bulk Modulus (GPa) = 64.70472 74.20134 69.45303
# Shear Modulus (GPa) = 23.76339 30.66946 27.21642
#
# Velocity S-wave (km/s) = 3.47947 3.95286 3.72369
# Velocity P-wave (km/s) = 7.00765 7.65746 7.33975
#
# Compressibility (1/GPa) = 0.01545482
#
# Stress axis : x y z
#
# Youngs Moduli (GPa) = 81.64416 81.61421 37.46152
#
# Poissons Ratio (x) = 0.22264 0.28344
# Poissons Ratio (y) = 0.22272 0.28381
# Poissons Ratio (z) = 0.61773 0.61831
#
# Static dielectric constant tensor:
#      x y z
#    x 1.747330 0.000020 0.000000 
#    y 0.000020 1.747320 0.000000 
#    z 0.000000 0.000000 1.807790 
# 
# From -- ./inp_files/2197.got.cif
#   From: 2010.05.17/outbox.cif.g08.bks.cpg/sg155_2_cif.got.tgz:2197.got - 2010.05.20 10:44:35.
