data_PCOD9577508
_publ_section_title
;
Structure prediction by ZEFSAII (Michael W. Deem and Ramdas Pophale) SiO2 
 PCOD9577508
Probable space group: R 3 M
;
_chemical_formula_sum "Si O2"
_cell_formula_units_Z 69
_cell_length_a 19.304731
_cell_length_b 19.304731
_cell_length_c 10.687084
_cell_angle_alpha 90.000000
_cell_angle_beta 90.000000
_cell_angle_gamma 120.000000
_cell_volume 3449.191946
_symmetry_space_group_name_H-M "R 3 M"
_symmetry_group_IT_number 160
_symmetry_cell_setting 'hexagonal'
loop_
_space_group_symop_operation_xyz
x,y,z
-y,x-y,z
-x+y,-x,z
-x+y,y,z
x,x-y,z
-y,-x,z
2/3+x,1/3+y,1/3+z
2/3-y,1/3+x-y,1/3+z
2/3-x+y,1/3-x,1/3+z
2/3-x+y,1/3+y,1/3+z
2/3+x,1/3+x-y,1/3+z
2/3-y,1/3-x,1/3+z
1/3+x,2/3+y,2/3+z
1/3-y,2/3+x-y,2/3+z
1/3-x+y,2/3-x,2/3+z
1/3-x+y,2/3+y,2/3+z
1/3+x,2/3+x-y,2/3+z
1/3-y,2/3-x,2/3+z
loop_
_atom_site_type_symbol
_atom_site_label
_atom_site_fract_x
_atom_site_fract_y
_atom_site_fract_z
Si Si1 0.922082 0.541234 0.154572
Si Si2 0.666668 0.333334 0.121775
Si Si3 0.000000 0.000000 0.478254
Si Si4 0.137161 0.862840 0.145251
Si Si5 0.312823 0.400124 0.202394
Si Si6 0.822078 0.911039 0.899423
Si Si7 0.758874 0.517747 0.746429
O O1 0.917671 0.458836 0.199170
O O2 0.843347 0.545195 0.179968
O O3 0.995352 0.619481 0.212826
O O4 0.931299 0.544670 0.005394
O O5 0.578962 0.289481 0.181638
O O6 0.666667 0.333334 0.967466
O O7 0.044576 0.955425 0.423682
O O8 0.100787 0.766775 0.131286
O O9 0.115096 0.884904 0.280100
O O10 0.101480 0.898521 0.044487
O O11 0.364595 0.489199 0.144963
#
# Coordination Sequence:
#
# PCOD9577508 Si02
#       7
#    18   3   3   9  18   9   9
#     4  12  24  44  72 104 137 185 239 294 354 423
#     4  12  24  52  71 103 150 174 256 302 337 429
#     4  12  27  46  80 109 129 198 244 290 355 429
#     4  12  27  48  68 106 155 186 230 297 370 427
#     4  12  21  47  70 102 144 183 238 298 348 420
#     4  12  28  43  71 106 140 192 226 298 362 425
#     4  12  26  45  76 102 142 190 238 293 352 428
#
# _framework density 20.004684999999998
#
# number of rings (size 3 to 8) (size 9 to 14) (size 15 to 20)
#    0.000    0.000    6.522    4.696    0.000    1.043 
#    0.000    0.000    0.000    0.000    0.000    0.000 
#    0.000    0.000    0.000    0.000    0.000    0.000 
#
# Total GULP energy -128377.173692 kJ/mol
# GULP energy per Si atom -5581.616247 kJ/mol
# Density = 1.995915 g / cm^3
# Si number density = 20.004685 Si / 1000 Ang^3
#
#
#
# Elastic Constant Matrix: (Units=GPa)
#
#
# Indices 1 2 3 4 5 6 
#
# 1 154.8319 73.6993 13.9583 7.5846 -0.0007 0.0001
# 2 73.6993 154.8329 13.9579 -7.5845 0.0007 -0.0007
# 3 13.9583 13.9579 62.7274 0.0001 0.0001 0.0002
# 4 7.5846 -7.5845 0.0001 27.8901 -0.0001 0.0007
# 5 -0.0007 0.0007 0.0001 -0.0001 27.8900 7.5846
# 6 0.0001 -0.0007 0.0002 0.0007 7.5846 40.5675
#
#
#
# Elastic Compliance Matrix: (Units=1/GPa)
#
#
# Indices 1 2 3 4 5 6 
#
# 1 0.008742 -0.004244 -0.001001 -0.003531 0.000000 0.000000
# 2 -0.004244 0.008742 -0.001001 0.003531 0.000000 0.000000
# 3 -0.001001 -0.001001 0.016387 0.000000 0.000000 0.000000
# 4 -0.003531 0.003531 0.000000 0.037776 0.000000 -0.000001
# 5 0.000000 0.000000 0.000000 0.000000 0.037776 -0.007063
# 6 0.000000 0.000000 0.000000 -0.000001 -0.007063 0.025971
#
#
# Mechanical properties :
#
#
# Convention : Reuss Voigt Hill
#
# Bulk Modulus (GPa) = 46.77295 63.95814 55.36555
# Shear Modulus (GPa) = 32.25575 37.32131 34.78853
#
# Velocity S-wave (km/s) = 4.01984 4.32398 4.17468
# Velocity P-wave (km/s) = 6.70651 7.54785 7.13958
#
# Compressibility (1/GPa) = 0.02137988
#
# Stress axis : x y z
#
# Youngs Moduli (GPa) = 114.39187 114.39280 61.02237
#
# Poissons Ratio (x) = 0.48546 0.06108
# Poissons Ratio (y) = 0.48546 0.06107
# Poissons Ratio (z) = 0.11450 0.11449
#
# Static dielectric constant tensor:
#      x y z
#    x 1.670760 0.000000 0.000000 
#    y 0.000000 1.670760 0.000000 
#    z 0.000000 0.000000 1.719490 
# 
# From -- ./inp_files/711.got.cif
#   From: 2010.05.17/outbox.cif.g08.bks.cpg/sg160_1_cif.got.tgz:711.got - 2010.05.20 10:51:19.
