data_PCOD9577434
_publ_section_title
;
Structure prediction by ZEFSAII (Michael W. Deem and Ramdas Pophale) SiO2 
 PCOD9577434
Probable space group: P 3 1 C
;
_chemical_formula_sum "Si O2"
_cell_formula_units_Z 34
_cell_length_a 10.316942
_cell_length_b 10.316942
_cell_length_c 16.208299
_cell_angle_alpha 90.000000
_cell_angle_beta 90.000000
_cell_angle_gamma 120.000000
_cell_volume 1494.066917
_symmetry_space_group_name_H-M "P 3 1 C"
_symmetry_group_IT_number 159
_symmetry_cell_setting 'hexagonal'
loop_
_space_group_symop_operation_xyz
x,y,z
-y,x-y,z
-x+y,-x,z
y,x,1/2+z
x-y,-y,1/2+z
-x,-x+y,1/2+z
loop_
_atom_site_type_symbol
_atom_site_label
_atom_site_fract_x
_atom_site_fract_y
_atom_site_fract_z
Si Si1 0.105071 0.347344 0.798630
Si Si2 0.333335 0.666668 0.106588
Si Si3 0.004032 0.569451 0.553773
Si Si4 0.430556 0.434574 0.854643
Si Si5 0.666668 0.333335 0.801802
Si Si6 0.000001 0.166401 0.454215
Si Si7 0.757727 0.652657 0.109800
O O1 0.263696 0.358976 0.817727
O O2 0.995309 0.240637 0.869752
O O3 0.060518 0.300934 0.704215
O O4 0.100011 0.497196 0.817834
O O5 0.464568 0.830691 0.078859
O O6 0.333334 0.666667 0.204195
O O7 0.000027 0.564886 0.454208
O O8 0.100010 0.497194 0.590594
O O9 0.095283 0.736304 0.590700
O O10 0.535435 0.366124 0.829533
O O11 0.139361 0.139360 0.454214
O O12 0.995310 0.240635 0.538678
#
# Coordination Sequence:
#
# PCOD9577434 Si02
#       7
#     6   2   6   6   2   6   6
#     4  12  25  46  75 109 148 196 252 306 373 454
#     4  12  27  45  72 114 154 191 250 318 378 438
#     4  12  26  48  75 109 150 198 246 313 379 455
#     4  12  26  48  75 109 150 198 246 313 379 455
#     4  12  27  45  72 114 154 191 250 318 378 438
#     4  10  26  46  66  98 146 188 244 296 366 430
#     4  12  25  46  75 109 148 196 252 306 373 454
#
# _framework density 22.756678000000001
#
# number of rings (size 3 to 8) (size 9 to 14) (size 15 to 20)
#    0.353    0.000    1.765    7.059    4.941    1.412 
#    0.000    0.000    0.000    0.000    0.000    0.000 
#    0.000    0.000    0.000    0.000    0.000    0.000 
#
# Total GULP energy -190074.696327 kJ/mol
# GULP energy per Si atom -5590.432245 kJ/mol
# Density = 2.270488 g / cm^3
# Si number density = 22.756678 Si / 1000 Ang^3
#
#
#
# Elastic Constant Matrix: (Units=GPa)
#
#
# Indices 1 2 3 4 5 6 
#
# 1 96.9620 37.2544 40.0239 0.0000 -0.0009 0.0003
# 2 37.2544 96.9629 40.0243 0.0000 0.0009 0.0005
# 3 40.0239 40.0243 255.8868 0.0000 0.0000 0.0003
# 4 0.0000 0.0000 0.0000 22.9269 0.0002 0.0008
# 5 -0.0009 0.0009 0.0000 0.0002 22.9266 0.0000
# 6 0.0003 0.0005 0.0003 0.0008 0.0000 29.8542
#
#
#
# Elastic Compliance Matrix: (Units=1/GPa)
#
#
# Indices 1 2 3 4 5 6 
#
# 1 0.012483 -0.004265 -0.001285 0.000000 0.000001 0.000000
# 2 -0.004265 0.012483 -0.001285 0.000000 -0.000001 0.000000
# 3 -0.001285 -0.001285 0.004310 0.000000 0.000000 0.000000
# 4 0.000000 0.000000 0.000000 0.043617 0.000000 -0.000001
# 5 0.000001 -0.000001 0.000000 0.000000 0.043617 0.000000
# 6 0.000000 0.000000 0.000000 -0.000001 0.000000 0.033496
#
#
# Mechanical properties :
#
#
# Convention : Reuss Voigt Hill
#
# Bulk Modulus (GPa) = 64.08899 76.04631 70.06765
# Shear Modulus (GPa) = 29.60697 37.30880 33.45789
#
# Velocity S-wave (km/s) = 3.61088 4.05342 3.83854
# Velocity P-wave (km/s) = 6.75341 7.44290 7.10652
#
# Compressibility (1/GPa) = 0.01560330
#
# Stress axis : x y z
#
# Youngs Moduli (GPa) = 80.11073 80.11144 232.01604
#
# Poissons Ratio (x) = 0.34171 0.29820
# Poissons Ratio (y) = 0.34171 0.29821
# Poissons Ratio (z) = 0.10296 0.10297
#
# Static dielectric constant tensor:
#      x y z
#    x 1.886730 0.000000 0.000000 
#    y 0.000000 1.886730 0.000000 
#    z 0.000000 0.000000 1.827690 
# 
# From -- ./inp_files/908.got.cif
#   From: 2010.05.17/outbox.cif.g08.bks.cpg/sg159_cif.got.tgz:908.got - 2010.05.20 10:50:30.
