data_PCOD9577248
_publ_section_title
;
Structure prediction by ZEFSAII (Michael W. Deem and Ramdas Pophale) SiO2 
 PCOD9577248
Probable space group: P 3 1 M
;
_chemical_formula_sum "Si O2"
_cell_formula_units_Z 42
_cell_length_a 14.791785
_cell_length_b 14.791785
_cell_length_c 12.380321
_cell_angle_alpha 90.000000
_cell_angle_beta 90.000000
_cell_angle_gamma 120.000000
_cell_volume 2345.868742
_symmetry_space_group_name_H-M "P 3 1 M"
_symmetry_group_IT_number 157
_symmetry_cell_setting 'hexagonal'
loop_
_space_group_symop_operation_xyz
x,y,z
-y,x-y,z
-x+y,-x,z
y,x,z
x-y,-y,z
-x,-x+y,z
loop_
_atom_site_type_symbol
_atom_site_label
_atom_site_fract_x
_atom_site_fract_y
_atom_site_fract_z
Si Si1 0.121144 0.769625 0.638180
Si Si2 0.274270 0.879339 0.809541
Si Si3 0.595997 0.474759 0.439057
Si Si4 0.752753 0.876975 0.972548
Si Si5 0.874835 0.438205 0.681628
Si Si6 0.237332 0.119038 0.227123
Si Si7 0.248227 0.418971 0.390822
O O1 0.205906 0.869138 0.702969
O O2 0.138941 0.677519 0.687365
O O3 0.142057 0.774565 0.510530
O O4 0.000000 0.733850 0.655729
O O5 0.350585 0.835462 0.773983
O O6 0.349555 0.000000 0.838398
O O7 0.189302 0.835636 0.904818
O O8 0.562610 0.562610 0.441731
O O9 0.610102 0.446960 0.562635
O O10 0.499967 0.371267 0.389115
O O11 0.704589 0.515214 0.380739
O O12 0.828799 0.828799 0.949484
O O13 0.732239 0.865002 0.100844
O O14 0.811538 0.000000 0.945903
O O15 0.000000 0.488183 0.677892
O O16 0.142403 0.142403 0.236078
O O17 0.330082 0.201574 0.301380
O O18 0.198651 0.000000 0.259273
#
# Coordination Sequence:
#
# PCOD9577248 Si02
#       7
#     6   6   6   6   6   6   6
#     4  10  19  31  49  75 106 134 166 208 260 316
#     4  10  18  31  51  74 102 135 171 212 255 308
#     4  10  19  32  49  74 104 133 170 215 262 312
#     4   9  18  32  53  77 103 135 175 216 256 303
#     4   8  16  30  45  67  98 130 163 204 249 301
#     4  10  20  35  55  79 107 141 180 220 261 312
#     4  11  20  33  53  76 103 138 177 217 266 314
#
# _framework density 17.903815999999999
#
# number of rings (size 3 to 8) (size 9 to 14) (size 15 to 20)
#    0.000    2.286    1.429    3.571    0.000    1.714 
#    0.857    0.000    3.143    0.286    0.000    0.000 
#    0.000    0.000    0.000    0.000    0.000    0.000 
#
# Total GULP energy -233990.163908 kJ/mol
# GULP energy per Si atom -5571.194379 kJ/mol
# Density = 1.786307 g / cm^3
# Si number density = 17.903816 Si / 1000 Ang^3
#
#
#
# Elastic Constant Matrix: (Units=GPa)
#
#
# Indices 1 2 3 4 5 6 
#
# 1 53.5470 10.2610 26.3721 0.0000 -7.8166 0.0000
# 2 10.2610 53.5470 26.3721 0.0000 7.8166 0.0000
# 3 26.3721 26.3721 56.5330 0.0000 0.0000 0.0000
# 4 0.0000 0.0000 0.0000 27.0505 0.0000 7.8166
# 5 -7.8166 7.8166 0.0000 0.0000 27.0505 0.0000
# 6 0.0000 0.0000 0.0000 7.8166 0.0000 21.6430
#
#
#
# Elastic Compliance Matrix: (Units=1/GPa)
#
#
# Indices 1 2 3 4 5 6 
#
# 1 0.025651 -0.000143 -0.011899 0.000000 0.007454 0.000000
# 2 -0.000143 0.025651 -0.011899 0.000000 -0.007454 0.000000
# 3 -0.011899 -0.011899 0.028791 0.000000 0.000000 0.000000
# 4 0.000000 0.000000 0.000000 0.041275 0.000000 -0.014907
# 5 0.007454 -0.007454 0.000000 0.000000 0.041275 0.000000
# 6 0.000000 0.000000 0.000000 -0.014907 0.000000 0.051588
#
#
# Mechanical properties :
#
#
# Convention : Reuss Voigt Hill
#
# Bulk Modulus (GPa) = 31.04662 32.18192 31.61427
# Shear Modulus (GPa) = 18.32500 21.85691 20.09096
#
# Velocity S-wave (km/s) = 3.20273 3.49778 3.35350
# Velocity P-wave (km/s) = 5.57271 5.85889 5.71759
#
# Compressibility (1/GPa) = 0.03220963
#
# Stress axis : x y z
#
# Youngs Moduli (GPa) = 38.98475 38.98475 34.73366
#
# Poissons Ratio (x) = 0.00558 0.41330
# Poissons Ratio (y) = 0.00558 0.41330
# Poissons Ratio (z) = 0.46389 0.46389
#
# Static dielectric constant tensor:
#      x y z
#    x 1.643680 0.000000 0.000000 
#    y 0.000000 1.643680 0.000000 
#    z 0.000000 0.000000 1.604890 
# 
# From -- ./inp_files/566.got.cif
#   From: 2010.05.17/outbox.cif.g08.bks.cpg/sg157_cif.got.tgz:566.got - 2010.05.20 10:49:36.
