data_PCOD9577433
_publ_section_title
;
Structure prediction by ZEFSAII (Michael W. Deem and Ramdas Pophale) SiO2 
 PCOD9577433
Probable space group: P 3 1 C
;
_chemical_formula_sum "Si O2"
_cell_formula_units_Z 30
_cell_length_a 11.559397
_cell_length_b 11.559397
_cell_length_c 8.738517
_cell_angle_alpha 90.000000
_cell_angle_beta 90.000000
_cell_angle_gamma 120.000000
_cell_volume 1011.203877
_symmetry_space_group_name_H-M "P 3 1 C"
_symmetry_group_IT_number 159
_symmetry_cell_setting 'hexagonal'
loop_
_space_group_symop_operation_xyz
x,y,z
-y,x-y,z
-x+y,-x,z
y,x,1/2+z
x-y,-y,1/2+z
-x,-x+y,1/2+z
loop_
_atom_site_type_symbol
_atom_site_label
_atom_site_fract_x
_atom_site_fract_y
_atom_site_fract_z
Si Si1 0.569535 0.157766 0.103380
Si Si2 0.258833 0.497622 0.228064
Si Si3 0.896360 0.524877 0.420301
Si Si4 0.904837 0.154440 0.940584
Si Si5 0.737834 0.870248 0.718380
O O1 0.552496 0.137717 0.288198
O O2 0.305092 0.052792 0.092390
O O3 0.730179 0.257062 0.072045
O O4 0.540060 0.021847 0.018505
O O5 0.414205 0.604045 0.267410
O O6 0.186006 0.363171 0.321999
O O7 0.276669 0.487411 0.047344
O O8 0.906808 0.642520 0.309501
O O9 0.023871 0.169084 0.838740
O O10 0.835997 0.037002 0.067965
#
# Coordination Sequence:
#
# PCOD9577433 Si02
#       5
#     6   6   6   6   6
#     4  10  26  52  84 125 177 236 304 370 468 544
#     4  10  25  50  84 119 168 225 294 357 452 530
#     4  12  23  51  85 124 177 230 300 381 445 555
#     4  12  25  52  79 122 165 218 284 366 436 559
#     4  12  27  47  84 118 165 217 286 354 461 520
#
# _framework density 29.667607
#
# number of rings (size 3 to 8) (size 9 to 14) (size 15 to 20)
#    0.800    0.000    0.000    7.600    0.000    1.600 
#    0.000   38.000    0.000    2.400    0.000    0.000 
#    0.000    0.000    0.000    0.000    0.000    0.000 
#
# Total GULP energy -167037.445878 kJ/mol
# GULP energy per Si atom -5567.914863 kJ/mol
# Density = 2.960008 g / cm^3
# Si number density = 29.667607 Si / 1000 Ang^3
#
#
#
# Elastic Constant Matrix: (Units=GPa)
#
#
# Indices 1 2 3 4 5 6 
#
# 1 65.2874 53.5897 50.3954 0.0000 3.5747 0.0000
# 2 53.5897 65.2874 50.3954 0.0000 -3.5747 0.0000
# 3 50.3954 50.3954 212.5521 0.0000 0.0000 0.0000
# 4 0.0000 0.0000 0.0000 73.7951 0.0000 -3.5747
# 5 3.5747 -3.5747 0.0000 0.0000 73.7951 0.0000
# 6 0.0000 0.0000 0.0000 -3.5747 0.0000 5.8489
#
#
#
# Elastic Compliance Matrix: (Units=1/GPa)
#
#
# Indices 1 2 3 4 5 6 
#
# 1 0.049312 -0.038783 -0.002496 0.000000 -0.004267 0.000000
# 2 -0.038783 0.049312 -0.002496 0.000000 0.004267 0.000000
# 3 -0.002496 -0.002496 0.005888 0.000000 0.000000 0.000000
# 4 0.000000 0.000000 0.000000 0.013964 0.000000 0.008535
# 5 -0.004267 0.004267 0.000000 0.000000 0.013964 0.000000
# 6 0.000000 0.000000 0.000000 0.008535 0.000000 0.176190
#
#
# Mechanical properties :
#
#
# Convention : Reuss Voigt Hill
#
# Bulk Modulus (GPa) = 58.96091 72.43200 65.69645
# Shear Modulus (GPa) = 12.44289 43.27091 27.85690
#
# Velocity S-wave (km/s) = 2.05017 3.82321 3.06758
# Velocity P-wave (km/s) = 5.05186 6.62999 5.89398
#
# Compressibility (1/GPa) = 0.01696039
#
# Stress axis : x y z
#
# Youngs Moduli (GPa) = 20.27915 20.27915 169.82403
#
# Poissons Ratio (x) = 0.78649 0.42393
# Poissons Ratio (y) = 0.78649 0.42393
# Poissons Ratio (z) = 0.05062 0.05062
#
# Static dielectric constant tensor:
#      x y z
#    x 2.449460 0.000000 0.000000 
#    y 0.000000 2.449460 0.000000 
#    z 0.000000 0.000000 2.272130 
# 
# From -- ./inp_files/356.got.cif
#   From: 2010.05.17/outbox.cif.g08.bks.cpg/sg159_cif.got.tgz:356.got - 2010.05.20 10:50:30.
