data_PCOD9577141
_publ_section_title
;
Structure prediction by ZEFSAII (Michael W. Deem and Ramdas Pophale) SiO2 
 PCOD9577141
Probable space group: R 3 2
;
_chemical_formula_sum "Si O2"
_cell_formula_units_Z 72
_cell_length_a 13.707398
_cell_length_b 13.707398
_cell_length_c 18.788529
_cell_angle_alpha 90.000000
_cell_angle_beta 90.000000
_cell_angle_gamma 120.000000
_cell_volume 3057.267622
_symmetry_space_group_name_H-M "R 3 2"
_symmetry_group_IT_number 155
_symmetry_cell_setting 'hexagonal'
loop_
_space_group_symop_operation_xyz
x,y,z
-y,x-y,z
-x+y,-x,z
x-y,-y,-z
-x,-x+y,-z
y,x,-z
2/3+x,1/3+y,1/3+z
2/3-y,1/3+x-y,1/3+z
2/3-x+y,1/3-x,1/3+z
2/3+x-y,1/3-y,1/3-z
2/3-x,1/3-x+y,1/3-z
2/3+y,1/3+x,1/3-z
1/3+x,2/3+y,2/3+z
1/3-y,2/3+x-y,2/3+z
1/3-x+y,2/3-x,2/3+z
1/3+x-y,2/3-y,2/3-z
1/3-x,2/3-x+y,2/3-z
1/3+y,2/3+x,2/3-z
loop_
_atom_site_type_symbol
_atom_site_label
_atom_site_fract_x
_atom_site_fract_y
_atom_site_fract_z
Si Si1 0.787288 0.772553 0.919847
Si Si2 0.511865 0.126467 0.562795
Si Si3 0.431862 0.549529 0.213131
Si Si4 0.501489 0.369719 0.019316
O O1 0.651754 0.712456 0.912716
O O2 0.827265 0.856480 0.853007
O O3 0.812569 0.672930 0.902276
O O4 0.818202 0.818202 0.000000
O O5 0.508075 0.220921 0.610020
O O6 0.606372 0.099464 0.589427
O O7 0.486533 0.666667 0.166667
O O8 0.333334 0.453453 0.166667
O O9 0.363303 0.540250 0.284522
O O10 0.442347 0.442347 0.000000
#
# Coordination Sequence:
#
# PCOD9577141 Si02
#       4
#    18  18  18  18
#     4  11  23  49  75  98 148 214 241 302 408 469
#     4  11  24  48  74 107 154 205 244 324 396 475
#     4  12  24  42  72 116 147 191 248 323 394 464
#     4  12  26  45  76 115 158 196 265 328 391 475
#
# _framework density 23.550439999999998
#
# number of rings (size 3 to 8) (size 9 to 14) (size 15 to 20)
#    0.000    0.500    5.000    4.500    0.000    0.000 
#   13.500    1.250    0.000    0.000    0.000    0.000 
#    0.000    0.000    0.000    0.000    0.000    0.000 
#
# Total GULP energy -134145.124630 kJ/mol
# GULP energy per Si atom -5589.380193 kJ/mol
# Density = 2.349684 g / cm^3
# Si number density = 23.550440 Si / 1000 Ang^3
#
#
#
# Elastic Constant Matrix: (Units=GPa)
#
#
# Indices 1 2 3 4 5 6 
#
# 1 40.2884 41.7927 41.7259 12.6311 -0.0006 0.0000
# 2 41.7927 40.2884 41.7259 -12.6311 0.0006 0.0000
# 3 41.7259 41.7259 221.6284 0.0000 0.0000 0.0000
# 4 12.6311 -12.6311 0.0000 29.5125 0.0000 0.0006
# 5 -0.0006 0.0006 0.0000 0.0000 29.5125 12.6311
# 6 0.0000 0.0000 0.0000 0.0006 12.6311 -0.7522
#
#
#
# Elastic Compliance Matrix: (Units=1/GPa)
#
#
# Indices 1 2 3 4 5 6 
#
# 1 -0.033063 0.048130 -0.002837 0.034750 -0.000002 0.000000
# 2 0.048130 -0.033063 -0.002837 -0.034750 0.000002 0.000000
# 3 -0.002837 -0.002837 0.005580 0.000000 0.000000 0.000000
# 4 0.034750 -0.034750 0.000000 0.004139 0.000000 0.000003
# 5 -0.000002 0.000002 0.000000 0.000000 0.004139 0.069500
# 6 0.000000 0.000000 0.000000 0.000003 0.069500 -0.162386
#
#
# Mechanical properties :
#
#
# Convention : Reuss Voigt Hill
#
# Bulk Modulus (GPa) = 41.03790 61.41046 51.22418
# Shear Modulus (GPa) = -17.15591 23.45193 3.14801
#
# Velocity S-wave (km/s) = -2.70196 3.15908 1.15742
# Velocity P-wave (km/s) = 2.78016 6.28006 4.85636
#
# Compressibility (1/GPa) = 0.02436772
#
# Stress axis : x y z
#
# Youngs Moduli (GPa) = -30.24544 -30.24544 179.20570
#
# Poissons Ratio (x) = 1.45571 0.50835
# Poissons Ratio (y) = 1.45571 0.50835
# Poissons Ratio (z) = -0.08580 -0.08580
#
# Static dielectric constant tensor:
#      x y z
#    x 1.922450 0.000000 0.000000 
#    y 0.000000 1.922450 0.000000 
#    z 0.000000 0.000000 2.037500 
# 
# From -- ./inp_files/5874.got.cif
#   From: 2010.05.17/outbox.cif.g08.bks.cpg/sg155_3_cif.got.tgz:5874.got - 2010.05.20 10:44:35.
