data_PCOD9577881
_publ_section_title
;
Structure prediction by ZEFSAII (Michael W. Deem and Ramdas Pophale) SiO2 
 PCOD9577881
Probable space group: P -3 1 M 
;
_chemical_formula_sum "Si O2"
_cell_formula_units_Z 96
_cell_length_a 14.116269
_cell_length_b 14.116269
_cell_length_c 29.632107
_cell_angle_alpha 90.000000
_cell_angle_beta 90.000000
_cell_angle_gamma 120.000000
_cell_volume 5113.673744
_symmetry_space_group_name_H-M "P -3 1 M "
_symmetry_group_IT_number 162
_symmetry_cell_setting 'hexagonal'
loop_
_space_group_symop_operation_xyz
x,y,z
-y,x-y,z
-x+y,-x,z
-y,-x,-z
-x+y,y,-z
x,x-y,-z
-x,-y,-z
y,-x+y,-z
x-y,x,-z
y,x,z
x-y,-y,z
-x,-x+y,z
loop_
_atom_site_type_symbol
_atom_site_label
_atom_site_fract_x
_atom_site_fract_y
_atom_site_fract_z
Si Si1 0.128848 0.870699 0.630140
Si Si2 0.548248 0.680836 0.679865
Si Si3 0.665968 0.130321 0.830318
Si Si4 0.879566 0.297500 0.981794
Si Si5 0.414370 0.873261 0.074278
Si Si6 0.570310 0.445990 0.402194
Si Si7 0.226009 0.421374 0.447139
Si Si8 0.541226 0.670924 0.785007
O O1 0.198971 0.833144 0.661172
O O2 0.159636 0.851522 0.579795
O O3 0.000000 0.802149 0.638150
O O4 0.177102 0.000000 0.637451
O O5 0.613738 0.613738 0.675947
O O6 0.447199 0.615915 0.645670
O O7 0.523362 0.682647 0.732011
O O8 0.658620 0.165957 0.881572
O O9 0.783893 0.216419 0.809675
O O10 0.570402 0.140275 0.804462
O O11 0.628668 0.000000 0.829001
O O12 0.822753 0.335155 0.944034
O O13 0.000000 0.338544 0.966157
O O14 0.823428 0.176573 0.000000
O O15 0.879491 0.357368 0.028326
O O16 0.499606 0.000000 0.086420
O O17 0.542149 0.542149 0.395713
O O18 0.478268 0.353252 0.434205
O O19 0.686021 0.495650 0.426002
O O20 0.204907 0.409813 0.500000
O O21 0.633002 0.633002 0.789551
#
# Coordination Sequence:
#
# PCOD9577881 Si02
#       8
#    12  12  12  12  12  12  12  12
#     4  10  21  37  57  80 108 143 180 221 266 316
#     4   8  18  37  56  78 106 134 176 227 267 314
#     4  10  21  36  55  80 113 152 190 230 285 353
#     4   9  17  31  50  74 105 143 188 234 279 325
#     4   8  17  33  47  68 105 139 179 229 269 325
#     4  10  21  37  55  74 101 136 170 211 258 303
#     4  11  22  35  54  81 107 135 174 213 257 317
#     4  10  21  37  57  83 115 148 184 233 290 345
#
# _framework density 18.773195999999999
#
# number of rings (size 3 to 8) (size 9 to 14) (size 15 to 20)
#    0.000    2.500    0.000    3.250    1.750    5.000 
#    3.000    1.250    0.000    1.125    0.000    0.000 
#    0.000    0.000    0.000    0.000    0.000    0.000 
#
# Total GULP energy -534743.271298 kJ/mol
# GULP energy per Si atom -5570.242409 kJ/mol
# Density = 1.873047 g / cm^3
# Si number density = 18.773196 Si / 1000 Ang^3
#
#
#
# Elastic Constant Matrix: (Units=GPa)
#
#
# Indices 1 2 3 4 5 6 
#
# 1 74.0550 27.1476 29.0955 -0.0002 -1.4387 0.0000
# 2 27.1476 74.0550 29.0955 0.0002 1.4387 0.0000
# 3 29.0955 29.0955 135.2410 0.0000 0.0000 0.0000
# 4 -0.0002 0.0002 0.0000 9.7573 0.0000 1.4387
# 5 -1.4387 1.4387 0.0000 0.0000 9.7573 -0.0002
# 6 0.0000 0.0000 0.0000 1.4387 -0.0002 23.4537
#
#
#
# Elastic Compliance Matrix: (Units=1/GPa)
#
#
# Indices 1 2 3 4 5 6 
#
# 1 0.016395 -0.005119 -0.002426 0.000001 0.003172 0.000000
# 2 -0.005119 0.016395 -0.002426 -0.000001 -0.003172 0.000000
# 3 -0.002426 -0.002426 0.008438 0.000000 0.000000 0.000000
# 4 0.000001 -0.000001 0.000000 0.103422 0.000000 -0.006344
# 5 0.003172 -0.003172 0.000000 0.000000 0.103422 0.000001
# 6 0.000000 0.000000 0.000000 -0.006344 0.000001 0.043026
#
#
# Mechanical properties :
#
#
# Convention : Reuss Voigt Hill
#
# Bulk Modulus (GPa) = 46.97816 50.44759 48.71287
# Shear Modulus (GPa) = 15.71660 21.79448 18.75554
#
# Velocity S-wave (km/s) = 2.89655 3.41095 3.16422
# Velocity P-wave (km/s) = 6.02205 6.51485 6.27329
#
# Compressibility (1/GPa) = 0.02128649
#
# Stress axis : x y z
#
# Youngs Moduli (GPa) = 60.99554 60.99554 118.51119
#
# Poissons Ratio (x) = 0.31221 0.28750
# Poissons Ratio (y) = 0.31221 0.28750
# Poissons Ratio (z) = 0.14797 0.14797
#
# Static dielectric constant tensor:
#      x y z
#    x 1.684970 0.000000 0.000000 
#    y 0.000000 1.684970 0.000000 
#    z 0.000000 0.000000 1.671760 
# 
# From -- ./inp_files/4109.got.cif
#   From: 2010.05.17/outbox.cif.g08.bks.cpg/sg162_3_cif.got.tgz:4109.got - 2010.05.20 10:53:12.
