data_PCOD9577859
_publ_section_title
;
Structure prediction by ZEFSAII (Michael W. Deem and Ramdas Pophale) SiO2 
 PCOD9577859
Probable space group: P -3 1 M 
;
_chemical_formula_sum "Si O2"
_cell_formula_units_Z 84
_cell_length_a 18.531225
_cell_length_b 18.531225
_cell_length_c 14.983157
_cell_angle_alpha 90.000000
_cell_angle_beta 90.000000
_cell_angle_gamma 120.000000
_cell_volume 4455.969610
_symmetry_space_group_name_H-M "P -3 1 M "
_symmetry_group_IT_number 162
_symmetry_cell_setting 'hexagonal'
loop_
_space_group_symop_operation_xyz
x,y,z
-y,x-y,z
-x+y,-x,z
-y,-x,-z
-x+y,y,-z
x,x-y,-z
-x,-y,-z
y,-x+y,-z
x-y,x,-z
y,x,z
x-y,-y,z
-x,-x+y,z
loop_
_atom_site_type_symbol
_atom_site_label
_atom_site_fract_x
_atom_site_fract_y
_atom_site_fract_z
Si Si1 0.541284 0.898519 0.409911
Si Si2 0.642400 0.543972 0.197295
Si Si3 0.901206 0.803781 0.396108
Si Si4 0.100324 0.332893 0.722076
Si Si5 0.373550 0.474750 0.605842
Si Si6 0.190161 0.788703 0.097750
Si Si7 0.499510 0.904966 0.090258
O O1 0.581865 0.870698 0.332969
O O2 0.546979 0.872440 0.511852
O O3 0.445866 0.874242 0.395190
O O4 0.593685 0.000000 0.409119
O O5 0.610729 0.610729 0.187551
O O6 0.670778 0.544476 0.298880
O O7 0.715497 0.561599 0.129904
O O8 0.561841 0.455857 0.171622
O O9 0.889215 0.778430 0.500000
O O10 0.849523 0.849523 0.376662
O O11 0.875614 0.724994 0.334604
O O12 0.000000 0.867280 0.384524
O O13 0.135001 0.344612 0.821294
O O14 0.000000 0.285856 0.725097
O O15 0.422973 0.422973 0.606362
O O16 0.161588 0.691238 0.089391
O O17 0.181266 0.818735 0.000000
O O18 0.576742 0.000000 0.095758
O O19 0.450194 0.900387 0.000000
#
# Coordination Sequence:
#
# PCOD9577859 Si02
#       7
#    12  12  12  12  12  12  12
#     4   8  14  28  52  80 107 139 178 218 260 325
#     4  10  21  37  57  83 113 146 182 228 288 344
#     4   9  18  34  56  81 110 147 189 231 278 335
#     4  10  21  35  53  78 112 148 183 226 284 340
#     4   8  14  27  51  80 108 139 178 217 260 326
#     4  12  24  37  55  82 110 144 190 238 285 338
#     4  10  20  39  62  79 104 144 189 235 289 345
#
# _framework density 18.851116000000001
#
# number of rings (size 3 to 8) (size 9 to 14) (size 15 to 20)
#    0.000    2.429    1.429    2.286    0.000    5.143 
#    0.857    3.571    0.000    0.000    0.000    0.000 
#    0.000    2.857    0.000    0.000    0.000    0.000 
#
# Total GULP energy -468629.193852 kJ/mol
# GULP energy per Si atom -5578.918974 kJ/mol
# Density = 1.880821 g / cm^3
# Si number density = 18.851116 Si / 1000 Ang^3
#
#
#
# Elastic Constant Matrix: (Units=GPa)
#
#
# Indices 1 2 3 4 5 6 
#
# 1 52.6276 32.0214 38.2688 0.0000 0.2079 0.0000
# 2 32.0214 52.6276 38.2688 0.0000 -0.2079 0.0000
# 3 38.2688 38.2688 133.8961 0.0000 0.0000 0.0000
# 4 0.0000 0.0000 0.0000 26.1341 0.0000 -0.2079
# 5 0.2079 -0.2079 0.0000 0.0000 26.1341 0.0000
# 6 0.0000 0.0000 0.0000 -0.2079 0.0000 10.3031
#
#
#
# Elastic Compliance Matrix: (Units=1/GPa)
#
#
# Indices 1 2 3 4 5 6 
#
# 1 0.032234 -0.016303 -0.004553 0.000000 -0.000386 0.000000
# 2 -0.016303 0.032234 -0.004553 0.000000 0.000386 0.000000
# 3 -0.004553 -0.004553 0.010071 0.000000 0.000000 0.000000
# 4 0.000000 0.000000 0.000000 0.038270 0.000000 0.000772
# 5 -0.000386 0.000386 0.000000 0.000000 0.038270 0.000000
# 6 0.000000 0.000000 0.000000 0.000772 0.000000 0.097074
#
#
# Mechanical properties :
#
#
# Convention : Reuss Voigt Hill
#
# Bulk Modulus (GPa) = 42.15951 50.69659 46.42805
# Shear Modulus (GPa) = 16.29313 21.22040 18.75677
#
# Velocity S-wave (km/s) = 2.94310 3.35876 3.15778
# Velocity P-wave (km/s) = 5.82770 6.48022 6.16260
#
# Compressibility (1/GPa) = 0.02371944
#
# Stress axis : x y z
#
# Youngs Moduli (GPa) = 31.02360 31.02360 99.29438
#
# Poissons Ratio (x) = 0.50579 0.45209
# Poissons Ratio (y) = 0.50579 0.45209
# Poissons Ratio (z) = 0.14125 0.14125
#
# Static dielectric constant tensor:
#      x y z
#    x 1.647300 0.000000 0.000000 
#    y 0.000000 1.647300 0.000000 
#    z 0.000000 0.000000 1.693090 
# 
# From -- ./inp_files/3196.got.cif
#   From: 2010.05.17/outbox.cif.g08.bks.cpg/sg162_2_cif.got.tgz:3196.got - 2010.05.20 10:53:12.
