data_PCOD9577310
_publ_section_title
;
Structure prediction by ZEFSAII (Michael W. Deem and Ramdas Pophale) SiO2 
 PCOD9577310
Probable space group: P 3 C 1
;
_chemical_formula_sum "Si O2"
_cell_formula_units_Z 42
_cell_length_a 20.497119
_cell_length_b 20.497119
_cell_length_c 5.120261
_cell_angle_alpha 90.000000
_cell_angle_beta 90.000000
_cell_angle_gamma 120.000000
_cell_volume 1862.980787
_symmetry_space_group_name_H-M "P 3 C 1"
_symmetry_group_IT_number 158
_symmetry_cell_setting 'hexagonal'
loop_
_space_group_symop_operation_xyz
x,y,z
-y,x-y,z
-x+y,-x,z
-x+y,y,1/2+z
x,x-y,1/2+z
-y,-x,1/2+z
loop_
_atom_site_type_symbol
_atom_site_label
_atom_site_fract_x
_atom_site_fract_y
_atom_site_fract_z
Si Si1 0.718931 0.901722 0.770580
Si Si2 0.543144 0.527464 0.921655
Si Si3 0.805976 0.430626 0.542825
Si Si4 0.829128 0.580698 0.794081
Si Si5 0.913470 0.756403 0.197130
Si Si6 0.898786 0.901743 0.240672
Si Si7 0.324256 0.309980 0.491384
O O1 0.704467 0.838458 0.555693
O O2 0.808555 0.963434 0.757311
O O3 0.677395 0.945533 0.674886
O O4 0.503846 0.519373 0.198252
O O5 0.574628 0.469265 0.956606
O O6 0.613797 0.610021 0.864336
O O7 0.772536 0.410030 0.251488
O O8 0.807683 0.496561 0.715037
O O9 0.769705 0.589142 0.603132
O O10 0.912088 0.630484 0.672591
O O11 0.850101 0.726861 0.419047
O O12 0.931708 0.843940 0.187824
O O13 0.759300 0.730316 0.794454
O O14 0.912644 0.960367 0.477951
#
# Coordination Sequence:
#
# PCOD9577310 Si02
#       7
#     6   6   6   6   6   6   6
#     4  10  23  39  59  84 114 159 205 252 324 387
#     4   9  20  37  58  87 118 151 184 227 303 394
#     4   9  17  33  55  71  99 144 178 216 287 376
#     4  11  23  36  54  86 118 141 193 263 325 365
#     4  12  24  37  60  88 116 154 219 291 347 388
#     4  10  21  40  58  75 109 157 206 268 343 401
#     4  11  24  40  64  91 122 162 207 265 327 409
#
# _framework density 22.544516999999999
#
# number of rings (size 3 to 8) (size 9 to 14) (size 15 to 20)
#    0.000    1.714    1.429    2.571    4.000    6.857 
#    0.000    0.000    0.000   16.571    0.000    0.000 
#    0.000    0.000    0.000    8.571    0.000    0.000 
#
# Total GULP energy -234427.795731 kJ/mol
# GULP energy per Si atom -5581.614184 kJ/mol
# Density = 2.249320 g / cm^3
# Si number density = 22.544517 Si / 1000 Ang^3
#
#
#
# Elastic Constant Matrix: (Units=GPa)
#
#
# Indices 1 2 3 4 5 6 
#
# 1 85.2375 12.2151 14.6283 -3.7306 0.0000 0.0000
# 2 12.2151 85.2375 14.6283 3.7306 0.0000 0.0000
# 3 14.6283 14.6283 86.1797 0.0000 0.0000 0.0000
# 4 -3.7306 3.7306 0.0000 19.8705 0.0000 0.0000
# 5 0.0000 0.0000 0.0000 0.0000 19.8705 -3.7306
# 6 0.0000 0.0000 0.0000 0.0000 -3.7306 36.5112
#
#
#
# Elastic Compliance Matrix: (Units=1/GPa)
#
#
# Indices 1 2 3 4 5 6 
#
# 1 0.012387 -0.001575 -0.001835 0.002621 0.000000 0.000000
# 2 -0.001575 0.012387 -0.001835 -0.002621 0.000000 0.000000
# 3 -0.001835 -0.001835 0.012227 0.000000 0.000000 0.000000
# 4 0.002621 -0.002621 0.000000 0.051310 0.000000 0.000000
# 5 0.000000 0.000000 0.000000 0.000000 0.051310 0.005243
# 6 0.000000 0.000000 0.000000 0.000000 0.005243 0.027925
#
#
# Mechanical properties :
#
#
# Convention : Reuss Voigt Hill
#
# Bulk Modulus (GPa) = 37.72127 37.73311 37.72719
# Shear Modulus (GPa) = 26.75596 29.59597 28.17596
#
# Velocity S-wave (km/s) = 3.44874 3.62716 3.53908
# Velocity P-wave (km/s) = 5.71197 5.85792 5.78541
#
# Compressibility (1/GPa) = 0.02651024
#
# Stress axis : x y z
#
# Youngs Moduli (GPa) = 80.72773 80.72773 81.78807
#
# Poissons Ratio (x) = 0.12714 0.15011
# Poissons Ratio (y) = 0.12714 0.15011
# Poissons Ratio (z) = 0.14816 0.14816
#
# Static dielectric constant tensor:
#      x y z
#    x 1.959740 0.000000 0.000000 
#    y 0.000000 1.959740 0.000000 
#    z 0.000000 0.000000 2.230720 
# 
# From -- ./inp_files/26.got.cif
#   From: 2010.05.17/outbox.cif.g08.bks.cpg/sg158_cif.got.tgz:26.got - 2010.05.20 10:49:59.
