data_PCOD9577380
_publ_section_title
;
Structure prediction by ZEFSAII (Michael W. Deem and Ramdas Pophale) SiO2 
 PCOD9577380
Probable space group: P 3 1 C
;
_chemical_formula_sum "Si O2"
_cell_formula_units_Z 34
_cell_length_a 11.542847
_cell_length_b 11.542847
_cell_length_c 18.931067
_cell_angle_alpha 90.000000
_cell_angle_beta 90.000000
_cell_angle_gamma 120.000000
_cell_volume 2184.397156
_symmetry_space_group_name_H-M "P 3 1 C"
_symmetry_group_IT_number 159
_symmetry_cell_setting 'hexagonal'
loop_
_space_group_symop_operation_xyz
x,y,z
-y,x-y,z
-x+y,-x,z
y,x,1/2+z
x-y,-y,1/2+z
-x,-x+y,1/2+z
loop_
_atom_site_type_symbol
_atom_site_label
_atom_site_fract_x
_atom_site_fract_y
_atom_site_fract_z
Si Si1 0.394280 0.328927 0.002660
Si Si2 0.333334 0.666668 0.142727
Si Si3 0.820351 0.640693 0.594221
Si Si4 0.394297 0.065334 0.002659
Si Si5 0.087651 0.912369 0.232663
Si Si6 0.818204 0.181825 0.868138
Si Si7 0.333334 0.666668 0.311771
O O1 0.279062 0.329963 0.048249
O O2 0.422557 0.211266 0.028234
O O3 0.528580 0.471393 0.004895
O O4 0.349073 0.283567 0.921502
O O5 0.485172 0.742614 0.115596
O O6 0.333334 0.666667 0.227449
O O7 0.720916 0.669991 0.548248
O O8 0.865294 0.730611 0.664546
O O9 0.349086 0.065482 0.921501
O O10 0.131088 0.868944 0.303621
O O11 0.927781 0.855545 0.231182
O O12 0.742302 0.257716 0.840257
#
# Coordination Sequence:
#
# PCOD9577380 Si02
#       7
#     6   2   6   6   6   6   2
#     4  10  21  36  60  87 116 152 198 244 300 353
#     4  12  24  33  60  90 114 154 191 244 312 348
#     4  12  22  39  56  86 124 153 194 252 299 356
#     4  10  21  36  60  87 116 152 198 244 300 353
#     4  10  24  38  54  82 115 160 199 238 290 356
#     4  10  20  35  60  84 114 148 197 242 289 356
#     4  12  18  39  60  84 111 151 197 244 294 348
#
# _framework density 15.564935999999999
#
# number of rings (size 3 to 8) (size 9 to 14) (size 15 to 20)
#    1.412    0.000    5.294    1.412    2.471    0.000 
#    1.059    0.000    0.000    0.000    0.000    0.000 
#    0.000    0.000    0.000    0.000    0.000    0.000 
#
# Total GULP energy -189332.204645 kJ/mol
# GULP energy per Si atom -5568.594254 kJ/mol
# Density = 1.552951 g / cm^3
# Si number density = 15.564936 Si / 1000 Ang^3
#
#
#
# Elastic Constant Matrix: (Units=GPa)
#
#
# Indices 1 2 3 4 5 6 
#
# 1 113.2782 67.0551 83.3413 0.0000 -0.0020 0.0003
# 2 67.0551 113.2784 83.3410 0.0000 0.0020 -0.0002
# 3 83.3413 83.3410 148.0849 0.0001 0.0000 -0.0002
# 4 0.0000 0.0000 0.0001 34.3981 0.0000 0.0021
# 5 -0.0020 0.0020 0.0000 0.0000 34.3981 0.0000
# 6 0.0003 -0.0002 -0.0002 0.0021 0.0000 23.1113
#
#
#
# Elastic Compliance Matrix: (Units=1/GPa)
#
#
# Indices 1 2 3 4 5 6 
#
# 1 0.016596 -0.005038 -0.006504 0.000000 0.000001 0.000000
# 2 -0.005038 0.016596 -0.006504 0.000000 -0.000001 0.000000
# 3 -0.006504 -0.006504 0.014074 0.000000 0.000000 0.000000
# 4 0.000000 0.000000 0.000000 0.029071 0.000000 -0.000003
# 5 0.000001 -0.000001 0.000000 0.000000 0.029071 0.000000
# 6 0.000000 0.000000 0.000000 -0.000003 0.000000 0.043269
#
#
# Mechanical properties :
#
#
# Convention : Reuss Voigt Hill
#
# Bulk Modulus (GPa) = 89.51576 93.56848 91.54212
# Shear Modulus (GPa) = 26.52589 27.77511 27.15050
#
# Velocity S-wave (km/s) = 4.13268 4.22888 4.18106
# Velocity P-wave (km/s) = 8.96706 9.17006 9.06913
#
# Compressibility (1/GPa) = 0.01117122
#
# Stress axis : x y z
#
# Youngs Moduli (GPa) = 60.25639 60.25674 71.05260
#
# Poissons Ratio (x) = 0.30360 0.46215
# Poissons Ratio (y) = 0.30360 0.46215
# Poissons Ratio (z) = 0.39193 0.39193
#
# Static dielectric constant tensor:
#      x y z
#    x 1.497040 0.000000 0.000000 
#    y 0.000000 1.497040 0.000000 
#    z 0.000000 0.000000 1.504250 
# 
# From -- ./inp_files/1051.got.cif
#   From: 2010.05.17/outbox.cif.g08.bks.cpg/sg159_cif.got.tgz:1051.got - 2010.05.20 10:50:30.
