data_PCOD9577338
_publ_section_title
;
Structure prediction by ZEFSAII (Michael W. Deem and Ramdas Pophale) SiO2 
 PCOD9577338
Probable space group: P 3 C 1
;
_chemical_formula_sum "Si O2"
_cell_formula_units_Z 34
_cell_length_a 10.314732
_cell_length_b 10.314732
_cell_length_c 15.001491
_cell_angle_alpha 90.000000
_cell_angle_beta 90.000000
_cell_angle_gamma 120.000000
_cell_volume 1382.232036
_symmetry_space_group_name_H-M "P 3 C 1"
_symmetry_group_IT_number 158
_symmetry_cell_setting 'hexagonal'
loop_
_space_group_symop_operation_xyz
x,y,z
-y,x-y,z
-x+y,-x,z
-x+y,y,1/2+z
x,x-y,1/2+z
-y,-x,1/2+z
loop_
_atom_site_type_symbol
_atom_site_label
_atom_site_fract_x
_atom_site_fract_y
_atom_site_fract_z
Si Si1 0.333335 0.666668 0.334166
Si Si2 0.619637 0.467161 0.992046
Si Si3 0.944924 0.383543 0.191412
Si Si4 0.195493 0.857509 0.594768
Si Si5 0.109006 0.352127 0.908218
Si Si6 0.335615 0.270541 0.244769
Si Si7 0.333335 0.666667 0.120016
O O1 0.242971 0.497584 0.370790
O O2 0.333334 0.666667 0.226951
O O3 0.510213 0.293640 0.968834
O O4 0.596022 0.590302 0.945070
O O5 0.613752 0.482139 0.098267
O O6 0.830562 0.241720 0.248722
O O7 0.981535 0.535252 0.241898
O O8 0.077909 0.355999 0.158166
O O9 0.140664 0.857487 0.495601
O O10 0.321563 0.807604 0.585350
O O11 0.253762 0.007854 0.649845
O O12 0.022933 0.247738 0.824924
#
# Coordination Sequence:
#
# PCOD9577338 Si02
#       7
#     2   6   6   6   6   6   2
#     4  12  22  38  58 100 131 178 241 278 352 409
#     4   9  19  38  59  93 138 178 223 280 349 421
#     4  11  22  40  69  98 134 188 229 287 360 408
#     4  11  23  43  65  97 138 187 230 286 357 416
#     4  11  25  36  66 100 137 182 228 293 346 409
#     4  12  24  43  68 103 141 179 241 293 348 432
#     4  12  19  44  67  91 137 178 226 299 346 415
#
# _framework density 24.597895999999999
#
# number of rings (size 3 to 8) (size 9 to 14) (size 15 to 20)
#    0.353    0.706    5.294    1.412    4.941    0.000 
#    1.059    3.529    0.000    0.000    0.000    0.000 
#    1.765    0.000    0.000    0.000    0.000    0.000 
#
# Total GULP energy -190275.133560 kJ/mol
# GULP energy per Si atom -5596.327458 kJ/mol
# Density = 2.454191 g / cm^3
# Si number density = 24.597896 Si / 1000 Ang^3
#
#
#
# Elastic Constant Matrix: (Units=GPa)
#
#
# Indices 1 2 3 4 5 6 
#
# 1 48.9191 -6.8421 10.9615 -4.5677 0.0000 0.0000
# 2 -6.8421 48.9188 10.9613 4.5676 0.0000 0.0000
# 3 10.9615 10.9613 164.9799 -0.0003 0.0000 0.0000
# 4 -4.5677 4.5676 -0.0003 17.7489 0.0000 0.0000
# 5 0.0000 0.0000 0.0000 0.0000 17.7491 -4.5678
# 6 0.0000 0.0000 0.0000 0.0000 -4.5678 27.8806
#
#
#
# Elastic Compliance Matrix: (Units=1/GPa)
#
#
# Indices 1 2 3 4 5 6 
#
# 1 0.021671 0.002948 -0.001636 0.004818 0.000000 0.000000
# 2 0.002948 0.021671 -0.001636 -0.004818 0.000000 0.000000
# 3 -0.001636 -0.001636 0.006279 0.000000 0.000000 0.000000
# 4 0.004818 -0.004818 0.000000 0.058822 0.000000 0.000000
# 5 0.000000 0.000000 0.000000 0.000000 0.058821 0.009637
# 6 0.000000 0.000000 0.000000 0.000000 0.009637 0.037446
#
#
# Mechanical properties :
#
#
# Convention : Reuss Voigt Hill
#
# Bulk Modulus (GPa) = 20.41959 32.55324 26.48641
# Shear Modulus (GPa) = 22.55501 29.19152 25.87326
#
# Velocity S-wave (km/s) = 3.03140 3.44866 3.24674
# Velocity P-wave (km/s) = 4.53563 5.39635 4.98460
#
# Compressibility (1/GPa) = 0.04897259
#
# Stress axis : x y z
#
# Youngs Moduli (GPa) = 46.14546 46.14524 159.26878
#
# Poissons Ratio (x) = -0.13602 0.26051
# Poissons Ratio (y) = -0.13602 0.26051
# Poissons Ratio (z) = 0.07548 0.07548
#
# Static dielectric constant tensor:
#      x y z
#    x 1.961840 0.000000 0.000000 
#    y 0.000000 1.961840 0.000000 
#    z 0.000000 0.000000 1.957400 
# 
# From -- ./inp_files/493.got.cif
#   From: 2010.05.17/outbox.cif.g08.bks.cpg/sg158_cif.got.tgz:493.got - 2010.05.20 10:49:59.
