data_PCOD9577543
_publ_section_title
;
Structure prediction by ZEFSAII (Michael W. Deem and Ramdas Pophale) SiO2 
 PCOD9577543
Probable space group: R 3 C
;
_chemical_formula_sum "Si O2"
_cell_formula_units_Z 102
_cell_length_a 18.277387
_cell_length_b 18.277387
_cell_length_c 13.373712
_cell_angle_alpha 90.000000
_cell_angle_beta 90.000000
_cell_angle_gamma 120.000000
_cell_volume 3869.107651
_symmetry_space_group_name_H-M "R 3 C"
_symmetry_group_IT_number 161
_symmetry_cell_setting 'hexagonal'
loop_
_space_group_symop_operation_xyz
x,y,z
-y,x-y,z
-x+y,-x,z
-x+y,y,1/2+z
x,x-y,1/2+z
-y,-x,1/2+z
2/3+x,1/3+y,1/3+z
2/3-y,1/3+x-y,1/3+z
2/3-x+y,1/3-x,1/3+z
2/3-x+y,1/3+y,5/6+z
2/3+x,1/3+x-y,5/6+z
2/3-y,1/3-x,5/6+z
1/3+x,2/3+y,2/3+z
1/3-y,2/3+x-y,2/3+z
1/3-x+y,2/3-x,2/3+z
1/3-x+y,2/3+y,1/6+z
1/3+x,2/3+x-y,1/6+z
1/3-y,2/3-x,1/6+z
loop_
_atom_site_type_symbol
_atom_site_label
_atom_site_fract_x
_atom_site_fract_y
_atom_site_fract_z
Si Si1 0.919831 0.331589 0.259862
Si Si2 0.989397 0.446681 0.425052
Si Si3 0.666668 0.333334 0.306073
Si Si4 0.232806 0.958285 0.362532
Si Si5 0.476963 0.262060 0.359200
Si Si6 0.507105 0.183972 0.531776
Si Si7 0.000000 0.000000 0.736955
O O1 0.962432 0.425935 0.307779
O O2 0.909668 0.300626 0.143586
O O3 0.823952 0.277062 0.298918
O O4 0.975229 0.299109 0.320716
O O5 0.902875 0.376775 0.476499
O O6 0.004020 0.534119 0.474162
O O7 0.576712 0.321500 0.340373
O O8 0.666668 0.333334 0.187616
O O9 0.210456 0.958077 0.479165
O O10 0.168472 0.983853 0.312513
O O11 0.467115 0.234330 0.475675
O O12 0.606306 0.240643 0.530814
#
# Coordination Sequence:
#
# PCOD9577543 Si02
#       7
#    18  18   6  18  18  18   6
#     4   9  20  39  59  86 123 161 205 255 308 367
#     4   9  20  38  60  86 124 164 207 253 306 372
#     4  12  22  41  67  91 125 160 211 257 316 367
#     4  10  20  38  62  90 124 163 208 251 307 374
#     4  10  21  40  61  90 123 161 199 258 307 367
#     4  10  21  38  59  88 124 157 204 256 311 366
#     4  12  22  38  64  91 119 160 202 266 313 361
#
# _framework density 26.362667999999999
#
# number of rings (size 3 to 8) (size 9 to 14) (size 15 to 20)
#    0.000    2.118    1.765    1.059    0.000    2.824 
#    0.000   14.118    0.000    0.000    0.000    0.000 
#    0.000    0.000    0.000    0.000    0.000    0.000 
#
# Total GULP energy -189737.354791 kJ/mol
# GULP energy per Si atom -5580.510435 kJ/mol
# Density = 2.630267 g / cm^3
# Si number density = 26.362668 Si / 1000 Ang^3
#
#
#
# Elastic Constant Matrix: (Units=GPa)
#
#
# Indices 1 2 3 4 5 6 
#
# 1 65.3169 7.0969 -10.7528 -3.4416 0.0000 0.0000
# 2 7.0969 65.3179 -10.7529 3.4418 0.0000 0.0000
# 3 -10.7528 -10.7529 103.9499 -0.0001 0.0000 0.0000
# 4 -3.4416 3.4418 -0.0001 28.5190 0.0000 0.0000
# 5 0.0000 0.0000 0.0000 0.0000 28.5192 -3.4416
# 6 0.0000 0.0000 0.0000 0.0000 -3.4416 29.1098
#
#
#
# Elastic Compliance Matrix: (Units=1/GPa)
#
#
# Indices 1 2 3 4 5 6 
#
# 1 0.015836 -0.001589 0.001474 0.002103 0.000000 0.000000
# 2 -0.001589 0.015836 0.001474 -0.002103 0.000000 0.000000
# 3 0.001474 0.001474 0.009925 0.000000 0.000000 0.000000
# 4 0.002103 -0.002103 0.000000 0.035572 0.000000 0.000000
# 5 0.000000 0.000000 0.000000 0.000000 0.035572 0.004206
# 6 0.000000 0.000000 0.000000 0.000000 0.004206 0.034850
#
#
# Mechanical properties :
#
#
# Convention : Reuss Voigt Hill
#
# Bulk Modulus (GPa) = 22.56616 22.86302 22.71459
# Shear Modulus (GPa) = 31.31965 33.82915 32.57440
#
# Velocity S-wave (km/s) = 3.45052 3.58609 3.51896
# Velocity P-wave (km/s) = 4.94502 5.08312 5.01455
#
# Compressibility (1/GPa) = 0.04431415
#
# Stress axis : x y z
#
# Youngs Moduli (GPa) = 63.14721 63.14809 100.75648
#
# Poissons Ratio (x) = 0.10033 -0.14849
# Poissons Ratio (y) = 0.10033 -0.14849
# Poissons Ratio (z) = -0.09306 -0.09306
#
# Static dielectric constant tensor:
#      x y z
#    x 2.070680 0.000000 0.000000 
#    y 0.000000 2.070670 0.000000 
#    z 0.000000 0.000000 2.114550 
# 
# From -- ./inp_files/966.got.cif
#   From: 2010.05.17/outbox.cif.g08.bks.cpg/sg161_cif.got.tgz:966.got - 2010.05.20 10:52:32.
