data_PCOD9577877
_publ_section_title
;
Structure prediction by ZEFSAII (Michael W. Deem and Ramdas Pophale) SiO2 
 PCOD9577877
Probable space group: P -3 1 M 
;
_chemical_formula_sum "Si O2"
_cell_formula_units_Z 36
_cell_length_a 18.922019
_cell_length_b 18.922019
_cell_length_c 5.494307
_cell_angle_alpha 90.000000
_cell_angle_beta 90.000000
_cell_angle_gamma 120.000000
_cell_volume 1703.642645
_symmetry_space_group_name_H-M "P -3 1 M "
_symmetry_group_IT_number 162
_symmetry_cell_setting 'hexagonal'
loop_
_space_group_symop_operation_xyz
x,y,z
-y,x-y,z
-x+y,-x,z
-y,-x,-z
-x+y,y,-z
x,x-y,-z
-x,-y,-z
y,-x+y,-z
x-y,x,-z
y,x,z
x-y,-y,z
-x,-x+y,z
loop_
_atom_site_type_symbol
_atom_site_label
_atom_site_fract_x
_atom_site_fract_y
_atom_site_fract_z
Si Si1 0.242779 0.455299 0.750000
Si Si2 0.903308 0.415046 0.250000
Si Si3 0.272358 0.175558 0.250000
O O1 0.250082 0.500163 0.500000
O O2 0.320337 0.442598 0.750000
O O3 0.155705 0.371449 0.750000
O O4 0.250082 0.500163 0.000000
O O5 0.874290 0.437145 0.500000
O O6 0.000000 0.469136 0.250000
O O7 0.874290 0.437145 0.000000
O O8 0.245505 0.122753 0.500000
O O9 0.238892 0.238892 0.250000
O O10 0.245505 0.122753 0.000000
#
# Coordination Sequence:
#
# PCOD9577877 Si02
#       3
#    12  12  12
#     4  10  21  35  58  90 124 160 204 251 305 369
#     4  10  21  38  61  89 123 158 197 254 319 378
#     4  10  21  37  59  89 124 162 209 267 322 371
#
# _framework density 21.131191000000001
#
# number of rings (size 3 to 8) (size 9 to 14) (size 15 to 20)
#    0.000    2.000    0.000    3.000    0.000   10.667 
#    0.000    3.333    0.000   20.000    0.000    0.000 
#    0.000    0.000    0.000    0.000    0.000    0.000 
#
# Total GULP energy -200417.926847 kJ/mol
# GULP energy per Si atom -5567.164635 kJ/mol
# Density = 2.108310 g / cm^3
# Si number density = 21.131191 Si / 1000 Ang^3
#
#
#
# Elastic Constant Matrix: (Units=GPa)
#
#
# Indices 1 2 3 4 5 6 
#
# 1 80.1805 22.9113 21.0625 0.0000 0.0000 0.0000
# 2 22.9113 80.1805 21.0625 0.0000 0.0000 0.0000
# 3 21.0625 21.0625 231.3428 0.0000 0.0000 0.0000
# 4 0.0000 0.0000 0.0000 15.9929 0.0000 0.0000
# 5 0.0000 0.0000 0.0000 0.0000 15.9929 0.0000
# 6 0.0000 0.0000 0.0000 0.0000 0.0000 28.6346
#
#
#
# Elastic Compliance Matrix: (Units=1/GPa)
#
#
# Indices 1 2 3 4 5 6 
#
# 1 0.013768 -0.003693 -0.000917 0.000000 0.000000 0.000000
# 2 -0.003693 0.013768 -0.000917 0.000000 0.000000 0.000000
# 3 -0.000917 -0.000917 0.004490 0.000000 0.000000 0.000000
# 4 0.000000 0.000000 0.000000 0.062528 0.000000 0.000000
# 5 0.000000 0.000000 0.000000 0.000000 0.062528 0.000000
# 6 0.000000 0.000000 0.000000 0.000000 0.000000 0.034923
#
#
# Mechanical properties :
#
#
# Convention : Reuss Voigt Hill
#
# Bulk Modulus (GPa) = 47.68638 57.97517 52.83077
# Shear Modulus (GPa) = 23.80387 33.90191 28.85289
#
# Velocity S-wave (km/s) = 3.35995 4.00978 3.69916
# Velocity P-wave (km/s) = 6.13744 6.99523 6.58033
#
# Compressibility (1/GPa) = 0.02097035
#
# Stress axis : x y z
#
# Youngs Moduli (GPa) = 72.63143 72.63143 222.73625
#
# Poissons Ratio (x) = 0.26825 0.20431
# Poissons Ratio (y) = 0.26825 0.20431
# Poissons Ratio (z) = 0.06662 0.06662
#
# Static dielectric constant tensor:
#      x y z
#    x 1.749930 0.000000 0.000000 
#    y 0.000000 1.749930 0.000000 
#    z 0.000000 0.000000 1.884550 
# 
# From -- ./inp_files/282.got.cif
#   From: 2010.05.17/outbox.cif.g08.bks.cpg/sg162_1_cif.got.tgz:282.got - 2010.05.20 10:53:12.
