data_PCOD9577757
_publ_section_title
;
Structure prediction by ZEFSAII (Michael W. Deem and Ramdas Pophale) SiO2 
 PCOD9577757
Probable space group: P -3 1 M 
;
_chemical_formula_sum "Si O2"
_cell_formula_units_Z 70
_cell_length_a 14.615605
_cell_length_b 14.615605
_cell_length_c 19.072026
_cell_angle_alpha 90.000000
_cell_angle_beta 90.000000
_cell_angle_gamma 120.000000
_cell_volume 3528.263861
_symmetry_space_group_name_H-M "P -3 1 M "
_symmetry_group_IT_number 162
_symmetry_cell_setting 'hexagonal'
loop_
_space_group_symop_operation_xyz
x,y,z
-y,x-y,z
-x+y,-x,z
-y,-x,-z
-x+y,y,-z
x,x-y,-z
-x,-y,-z
y,-x+y,-z
x-y,x,-z
y,x,z
x-y,-y,z
-x,-x+y,z
loop_
_atom_site_type_symbol
_atom_site_label
_atom_site_fract_x
_atom_site_fract_y
_atom_site_fract_z
Si Si1 0.333334 0.666667 0.580715
Si Si2 0.876482 0.752963 0.000000
Si Si3 0.683201 0.557187 0.785926
Si Si4 0.000000 0.388430 0.572199
Si Si5 0.218688 0.445976 0.641658
Si Si6 0.770826 0.648131 0.134256
Si Si7 0.563149 0.439372 0.080722
Si Si8 0.390192 0.000000 0.401375
O O1 0.333334 0.666667 0.500000
O O2 0.301106 0.552188 0.604352
O O3 0.834826 0.681038 0.932644
O O4 0.823574 0.823574 0.006508
O O5 0.606357 0.606357 0.776404
O O6 0.706244 0.515268 0.714643
O O7 0.802973 0.644300 0.804268
O O8 0.643971 0.481336 0.854851
O O9 0.106184 0.392689 0.601513
O O10 0.000000 0.380072 0.487004
O O11 0.000000 0.495891 0.600793
O O12 0.289375 0.389533 0.636365
O O13 0.729419 0.729419 0.146959
O O14 0.667493 0.538822 0.112382
O O15 0.474775 0.474775 0.072565
O O16 0.583767 0.416233 0.000000
#
# Coordination Sequence:
#
# PCOD9577757 Si02
#       8
#     4   6  12   6  12  12  12   6
#     4  12  24  42  69 102 139 170 211 267 336 414
#     4  10  19  34  58  90 116 150 197 260 314 374
#     4  11  24  41  59  87 127 168 214 271 322 382
#     4  11  22  44  66 103 136 179 227 277 339 417
#     4  12  25  41  67 101 140 181 222 279 343 412
#     4  10  21  36  60  84 116 156 206 253 319 384
#     4   9  19  37  60  84 118 165 213 263 324 393
#     4  11  24  40  72  99 139 179 225 277 344 423
#
# _framework density 19.839784999999999
#
# number of rings (size 3 to 8) (size 9 to 14) (size 15 to 20)
#    0.000    1.371    2.571    3.171    3.600    2.743 
#    1.029    0.000    1.886    0.686    2.229    1.200 
#    0.000    0.000    0.000    0.000    0.000    0.000 
#
# Total GULP energy -389698.926264 kJ/mol
# GULP energy per Si atom -5567.127518 kJ/mol
# Density = 1.979463 g / cm^3
# Si number density = 19.839785 Si / 1000 Ang^3
#
#
#
# Elastic Constant Matrix: (Units=GPa)
#
#
# Indices 1 2 3 4 5 6 
#
# 1 64.1578 19.9229 12.4856 -0.0003 -2.3986 0.0001
# 2 19.9229 64.1587 12.4858 0.0003 2.3980 0.0002
# 3 12.4856 12.4858 95.9194 0.0004 -0.0001 -0.0001
# 4 -0.0003 0.0003 0.0004 11.3319 -0.0007 2.3982
# 5 -2.3986 2.3980 -0.0001 -0.0007 11.3324 0.0000
# 6 0.0001 0.0002 -0.0001 2.3982 0.0000 22.1178
#
#
#
# Elastic Compliance Matrix: (Units=1/GPa)
#
#
# Indices 1 2 3 4 5 6 
#
# 1 0.017755 -0.005383 -0.001610 0.000001 0.004897 0.000000
# 2 -0.005383 0.017754 -0.001610 -0.000001 -0.004896 0.000000
# 3 -0.001610 -0.001610 0.010845 0.000000 0.000000 0.000000
# 4 0.000001 -0.000001 0.000000 0.090319 0.000006 -0.009793
# 5 0.004897 -0.004896 0.000000 0.000006 0.090315 -0.000001
# 6 0.000000 0.000000 0.000000 -0.009793 -0.000001 0.046274
#
#
# Mechanical properties :
#
#
# Convention : Reuss Voigt Hill
#
# Bulk Modulus (GPa) = 34.30978 34.89161 34.60070
# Shear Modulus (GPa) = 16.65642 20.91253 18.78447
#
# Velocity S-wave (km/s) = 2.90064 3.25017 3.08036
# Velocity P-wave (km/s) = 5.34315 5.63113 5.48903
#
# Compressibility (1/GPa) = 0.02914620
#
# Stress axis : x y z
#
# Youngs Moduli (GPa) = 56.32348 56.32450 92.21126
#
# Poissons Ratio (x) = 0.30319 0.14849
# Poissons Ratio (y) = 0.30318 0.14850
# Poissons Ratio (z) = 0.09070 0.09070
#
# Static dielectric constant tensor:
#      x y z
#    x 1.781620 0.000000 0.000000 
#    y 0.000000 1.781630 0.000000 
#    z 0.000000 0.000000 1.707510 
# 
# From -- ./inp_files/3563.got.cif
#   From: 2010.05.17/outbox.cif.g08.bks.cpg/sg162_2_cif.got.tgz:3563.got - 2010.05.20 10:53:12.
