data_PCOD9577727
_publ_section_title
;
Structure prediction by ZEFSAII (Michael W. Deem and Ramdas Pophale) SiO2 
 PCOD9577727
Probable space group: P -3 1 M 
;
_chemical_formula_sum "Si O2"
_cell_formula_units_Z 84
_cell_length_a 14.682065
_cell_length_b 14.682065
_cell_length_c 24.887214
_cell_angle_alpha 90.000000
_cell_angle_beta 90.000000
_cell_angle_gamma 120.000000
_cell_volume 4646.021324
_symmetry_space_group_name_H-M "P -3 1 M "
_symmetry_group_IT_number 162
_symmetry_cell_setting 'hexagonal'
loop_
_space_group_symop_operation_xyz
x,y,z
-y,x-y,z
-x+y,-x,z
-y,-x,-z
-x+y,y,-z
x,x-y,-z
-x,-y,-z
y,-x+y,-z
x-y,x,-z
y,x,z
x-y,-y,z
-x,-x+y,z
loop_
_atom_site_type_symbol
_atom_site_label
_atom_site_fract_x
_atom_site_fract_y
_atom_site_fract_z
Si Si1 0.177804 0.422515 0.271910
Si Si2 0.876502 0.409681 0.680634
Si Si3 0.125211 0.874695 0.057454
Si Si4 0.202809 0.874408 0.441585
Si Si5 0.118122 0.889061 0.659859
Si Si6 0.407969 0.871628 0.438965
Si Si7 0.743193 0.872123 0.821774
O O1 0.138280 0.504381 0.285175
O O2 0.299065 0.483565 0.289629
O O3 0.116969 0.324592 0.311713
O O4 0.161090 0.357837 0.216551
O O5 0.840695 0.401667 0.617804
O O6 0.000000 0.449994 0.678939
O O7 0.149150 0.849444 0.116716
O O8 0.000000 0.823144 0.056685
O O9 0.178959 0.000000 0.056957
O O10 0.155561 0.844440 0.000000
O O11 0.157166 0.842835 0.500000
O O12 0.112743 0.836305 0.398018
O O13 0.286308 0.837109 0.432294
O O14 0.267554 0.000000 0.436323
O O15 0.000000 0.866554 0.655934
O O16 0.190568 0.000000 0.687553
O O17 0.419020 0.838040 0.500000
O O18 0.477086 0.000000 0.439980
O O19 0.808103 0.808103 0.813432
O O20 0.822802 0.000000 0.815319
#
# Coordination Sequence:
#
# PCOD9577727 Si02
#       7
#    12  12  12  12  12  12  12
#     4  12  24  39  58  79 103 139 183 226 281 337
#     4  11  23  41  57  76 104 130 167 224 276 329
#     4   8  13  22  40  71 114 159 196 227 260 302
#     4  10  20  34  51  75 102 131 164 201 251 315
#     4  11  22  37  56  81 112 145 177 209 254 323
#     4   9  19  34  53  73  94 121 159 214 276 320
#     4  10  19  32  53  85 122 159 194 225 262 317
#
# _framework density 18.079986000000002
#
# number of rings (size 3 to 8) (size 9 to 14) (size 15 to 20)
#    0.000    1.857    1.429    3.714    2.000    1.714 
#    0.000    1.429    0.000    2.571    0.000    1.000 
#    0.000    5.714    0.000    0.000    0.000    0.000 
#
# Total GULP energy -467724.737628 kJ/mol
# GULP energy per Si atom -5568.151638 kJ/mol
# Density = 1.803884 g / cm^3
# Si number density = 18.079986 Si / 1000 Ang^3
#
#
#
# Elastic Constant Matrix: (Units=GPa)
#
#
# Indices 1 2 3 4 5 6 
#
# 1 68.7695 13.5349 26.3940 0.0007 0.5511 0.0000
# 2 13.5349 68.7695 26.3940 -0.0007 -0.5511 0.0000
# 3 26.3940 26.3940 151.7209 0.0000 0.0000 0.0000
# 4 0.0007 -0.0007 0.0000 -12.0735 0.0000 -0.5511
# 5 0.5511 -0.5511 0.0000 0.0000 -12.0735 0.0007
# 6 0.0000 0.0000 0.0000 -0.5511 0.0007 27.6173
#
#
#
# Elastic Compliance Matrix: (Units=1/GPa)
#
#
# Indices 1 2 3 4 5 6 
#
# 1 0.015882 -0.002206 -0.002379 0.000001 0.000826 0.000000
# 2 -0.002206 0.015882 -0.002379 -0.000001 -0.000826 0.000000
# 3 -0.002379 -0.002379 0.007419 0.000000 0.000000 0.000000
# 4 0.000001 -0.000001 0.000000 -0.082751 0.000000 -0.001651
# 5 0.000826 -0.000826 0.000000 0.000000 -0.082751 0.000002
# 6 0.000000 0.000000 0.000000 -0.001651 0.000002 0.036176
#
#
# Mechanical properties :
#
#
# Convention : Reuss Voigt Hill
#
# Bulk Modulus (GPa) = 39.59741 46.87842 43.23792
# Shear Modulus (GPa) = -73.75053 15.55655 -29.09699
#
# Velocity S-wave (km/s) = -6.39373 2.93649 -4.01602
# Velocity P-wave (km/s) = 5.70593 6.12225 1.56913
#
# Compressibility (1/GPa) = 0.02525418
#
# Stress axis : x y z
#
# Youngs Moduli (GPa) = 62.96430 62.96430 134.79241
#
# Poissons Ratio (x) = 0.13890 0.32069
# Poissons Ratio (y) = 0.13890 0.32069
# Poissons Ratio (z) = 0.14980 0.14980
#
# Static dielectric constant tensor:
#      x y z
#    x 1.559200 0.000000 0.000000 
#    y 0.000000 1.559200 0.000000 
#    z 0.000000 0.000000 1.698230 
# 
# From -- ./inp_files/3955.got.cif
#   From: 2010.05.17/outbox.cif.g08.bks.cpg/sg162_2_cif.got.tgz:3955.got - 2010.05.20 10:53:12.
