data_PCOD9577400
_publ_section_title
;
Structure prediction by ZEFSAII (Michael W. Deem and Ramdas Pophale) SiO2 
 PCOD9577400
Probable space group: P 3 1 C
;
_chemical_formula_sum "Si O2"
_cell_formula_units_Z 34
_cell_length_a 10.325183
_cell_length_b 10.325183
_cell_length_c 18.500857
_cell_angle_alpha 90.000000
_cell_angle_beta 90.000000
_cell_angle_gamma 120.000000
_cell_volume 1708.118488
_symmetry_space_group_name_H-M "P 3 1 C"
_symmetry_group_IT_number 159
_symmetry_cell_setting 'hexagonal'
loop_
_space_group_symop_operation_xyz
x,y,z
-y,x-y,z
-x+y,-x,z
y,x,1/2+z
x-y,-y,1/2+z
-x,-x+y,1/2+z
loop_
_atom_site_type_symbol
_atom_site_label
_atom_site_fract_x
_atom_site_fract_y
_atom_site_fract_z
Si Si1 0.659764 0.771717 0.454410
Si Si2 0.217926 0.886554 0.165231
Si Si3 0.677116 0.889912 0.609793
Si Si4 0.946824 0.132675 0.806723
Si Si5 0.837889 0.346299 0.531853
Si Si6 0.333335 0.666668 0.436880
Si Si7 0.666668 0.333335 0.111939
O O1 0.685921 0.879493 0.522514
O O2 0.777965 0.837294 0.390710
O O3 0.647323 0.621288 0.488462
O O4 0.503422 0.729437 0.417049
O O5 0.222636 0.901002 0.251599
O O6 0.337726 0.868253 0.117141
O O7 0.056049 0.756293 0.139941
O O8 0.235993 0.043395 0.138539
O O9 0.502632 0.789274 0.632215
O O10 0.112151 0.157219 0.791733
O O11 0.800759 0.477356 0.515726
O O12 0.333334 0.666667 0.524695
#
# Coordination Sequence:
#
# PCOD9577400 Si02
#       7
#     6   6   6   6   6   2   2
#     4  10  22  37  64  88 125 165 212 264 325 386
#     4  11  20  38  64  87 127 161 214 267 321 383
#     4  10  21  36  64  91 116 165 209 270 320 390
#     4  10  22  39  57  91 128 165 210 263 318 392
#     4   9  23  39  64  93 125 160 218 273 318 381
#     4   9  21  39  57  93 120 162 202 260 322 393
#     4   9  21  36  60  87 129 150 211 257 340 381
#
# _framework density 19.904941000000001
#
# number of rings (size 3 to 8) (size 9 to 14) (size 15 to 20)
#    0.706    1.412    1.765    0.353   14.824    0.000 
#    3.176    0.000    3.882    0.000    0.000    0.000 
#    0.000    0.000    0.000    0.000    0.000    0.000 
#
# Total GULP energy -189412.592283 kJ/mol
# GULP energy per Si atom -5570.958597 kJ/mol
# Density = 1.985964 g / cm^3
# Si number density = 19.904941 Si / 1000 Ang^3
#
#
#
# Elastic Constant Matrix: (Units=GPa)
#
#
# Indices 1 2 3 4 5 6 
#
# 1 38.7275 -8.2805 -1.9381 0.0003 -4.0772 0.0007
# 2 -8.2805 38.7291 -1.9378 0.0001 4.0775 0.0007
# 3 -1.9381 -1.9378 81.3488 0.0002 0.0001 0.0003
# 4 0.0003 0.0001 0.0002 10.5341 0.0000 4.0772
# 5 -4.0772 4.0775 0.0001 0.0000 10.5341 -0.0001
# 6 0.0007 0.0007 0.0003 4.0772 -0.0001 23.5044
#
#
#
# Elastic Compliance Matrix: (Units=1/GPa)
#
#
# Indices 1 2 3 4 5 6 
#
# 1 0.027874 0.005070 0.000785 -0.000001 0.008826 -0.000001
# 2 0.005070 0.027873 0.000785 0.000000 -0.008827 -0.000001
# 3 0.000785 0.000785 0.012330 0.000000 0.000000 0.000000
# 4 -0.000001 0.000000 0.000000 0.101762 0.000000 -0.017652
# 5 0.008826 -0.008827 0.000000 0.000000 0.101763 0.000001
# 6 -0.000001 -0.000001 0.000000 -0.017652 0.000001 0.045607
#
#
# Mechanical properties :
#
#
# Convention : Reuss Voigt Hill
#
# Bulk Modulus (GPa) = 12.29175 14.94362 13.61769
# Shear Modulus (GPa) = 15.10348 20.31196 17.70772
#
# Velocity S-wave (km/s) = 2.75759 3.19791 2.98588
# Velocity P-wave (km/s) = 4.04075 4.59992 4.32937
#
# Compressibility (1/GPa) = 0.08135537
#
# Stress axis : x y z
#
# Youngs Moduli (GPa) = 35.87582 35.87719 81.10215
#
# Poissons Ratio (x) = -0.18188 -0.06365
# Poissons Ratio (y) = -0.18188 -0.06365
# Poissons Ratio (z) = -0.02816 -0.02815
#
# Static dielectric constant tensor:
#      x y z
#    x 1.723810 0.000000 0.000000 
#    y 0.000000 1.723810 0.000000 
#    z 0.000000 0.000000 1.678770 
# 
# From -- ./inp_files/906.got.cif
#   From: 2010.05.17/outbox.cif.g08.bks.cpg/sg159_cif.got.tgz:906.got - 2010.05.20 10:50:30.
