data_PCOD9577152
_publ_section_title
;
Structure prediction by ZEFSAII (Michael W. Deem and Ramdas Pophale) SiO2 
 PCOD9577152
Probable space group: R 3 2
;
_chemical_formula_sum "Si O2"
_cell_formula_units_Z 54
_cell_length_a 17.622933
_cell_length_b 17.622933
_cell_length_c 8.541732
_cell_angle_alpha 90.000000
_cell_angle_beta 90.000000
_cell_angle_gamma 120.000000
_cell_volume 2297.380619
_symmetry_space_group_name_H-M "R 3 2"
_symmetry_group_IT_number 155
_symmetry_cell_setting 'hexagonal'
loop_
_space_group_symop_operation_xyz
x,y,z
-y,x-y,z
-x+y,-x,z
x-y,-y,-z
-x,-x+y,-z
y,x,-z
2/3+x,1/3+y,1/3+z
2/3-y,1/3+x-y,1/3+z
2/3-x+y,1/3-x,1/3+z
2/3+x-y,1/3-y,1/3-z
2/3-x,1/3-x+y,1/3-z
2/3+y,1/3+x,1/3-z
1/3+x,2/3+y,2/3+z
1/3-y,2/3+x-y,2/3+z
1/3-x+y,2/3-x,2/3+z
1/3+x-y,2/3-y,2/3-z
1/3-x,2/3-x+y,2/3-z
1/3+y,2/3+x,2/3-z
loop_
_atom_site_type_symbol
_atom_site_label
_atom_site_fract_x
_atom_site_fract_y
_atom_site_fract_z
Si Si1 0.398946 0.583538 0.810996
Si Si2 0.235409 0.335844 0.652420
Si Si3 0.161042 0.064157 0.354702
O O1 0.333334 0.573001 0.666667
O O2 0.418356 0.505680 0.773324
O O3 0.486879 0.671352 0.866598
O O4 0.335028 0.564450 0.958369
O O5 0.333334 0.348452 0.666667
O O6 0.151534 0.249301 0.593152
O O7 0.208555 0.333334 0.833334
O O8 0.131557 0.000000 0.500000
#
# Coordination Sequence:
#
# PCOD9577152 Si02
#       3
#    18  18  18
#     4  11  24  48  80 112 162 216 274 348 419 503
#     4  11  24  49  80 118 160 226 276 336 429 505
#     4  12  26  48  78 121 161 213 283 355 414 498
#
# _framework density 23.505027999999999
#
# number of rings (size 3 to 8) (size 9 to 14) (size 15 to 20)
#    0.000    0.667    6.667    2.667    0.000    4.000 
#    0.000    5.000    0.000    0.000    0.000    0.000 
#    0.000    0.000    0.000    0.000    0.000    0.000 
#
# Total GULP energy -100265.496939 kJ/mol
# GULP energy per Si atom -5570.305386 kJ/mol
# Density = 2.345153 g / cm^3
# Si number density = 23.505028 Si / 1000 Ang^3
#
#
#
# Elastic Constant Matrix: (Units=GPa)
#
#
# Indices 1 2 3 4 5 6 
#
# 1 154.7885 91.2385 57.8176 8.7639 -0.0002 0.0000
# 2 91.2385 154.7885 57.8176 -8.7639 0.0002 0.0000
# 3 57.8176 57.8176 94.0503 0.0000 0.0001 0.0000
# 4 8.7639 -8.7639 0.0000 36.7166 0.0000 0.0002
# 5 -0.0002 0.0002 0.0001 0.0000 36.7167 8.7639
# 6 0.0000 0.0000 0.0000 0.0002 8.7639 31.7750
#
#
#
# Elastic Compliance Matrix: (Units=1/GPa)
#
#
# Indices 1 2 3 4 5 6 
#
# 1 0.011280 -0.005564 -0.003514 -0.004021 0.000000 0.000000
# 2 -0.005564 0.011280 -0.003514 0.004021 0.000000 0.000000
# 3 -0.003514 -0.003514 0.014953 0.000000 0.000000 0.000000
# 4 -0.004021 0.004021 0.000000 0.029155 0.000000 0.000000
# 5 0.000000 0.000000 0.000000 0.000000 0.029155 -0.008041
# 6 0.000000 0.000000 0.000000 0.000000 -0.008041 0.033689
#
#
# Mechanical properties :
#
#
# Convention : Reuss Voigt Hill
#
# Bulk Modulus (GPa) = 81.10710 90.81941 85.96326
# Shear Modulus (GPa) = 31.48467 34.15858 32.82163
#
# Velocity S-wave (km/s) = 3.66387 3.81628 3.74085
# Velocity P-wave (km/s) = 7.24429 7.62501 7.43709
#
# Compressibility (1/GPa) = 0.01232938
#
# Stress axis : x y z
#
# Youngs Moduli (GPa) = 88.64933 88.64932 66.87541
#
# Poissons Ratio (x) = 0.49326 0.23500
# Poissons Ratio (y) = 0.49326 0.23501
# Poissons Ratio (z) = 0.31152 0.31152
#
# Static dielectric constant tensor:
#      x y z
#    x 1.977860 0.000000 0.000000 
#    y 0.000000 1.977860 0.000000 
#    z 0.000000 0.000000 2.015640 
# 
# From -- ./inp_files/1661.got.cif
#   From: 2010.05.17/outbox.cif.g08.bks.cpg/sg155_1_cif.got.tgz:1661.got - 2010.05.20 10:44:35.
