data_PCOD9577887
_publ_section_title
;
Structure prediction by ZEFSAII (Michael W. Deem and Ramdas Pophale) SiO2 
 PCOD9577887
Probable space group: P -3 1 M 
;
_chemical_formula_sum "Si O2"
_cell_formula_units_Z 76
_cell_length_a 18.108448
_cell_length_b 18.108448
_cell_length_c 12.841045
_cell_angle_alpha 90.000000
_cell_angle_beta 90.000000
_cell_angle_gamma 120.000000
_cell_volume 3646.644776
_symmetry_space_group_name_H-M "P -3 1 M "
_symmetry_group_IT_number 162
_symmetry_cell_setting 'hexagonal'
loop_
_space_group_symop_operation_xyz
x,y,z
-y,x-y,z
-x+y,-x,z
-y,-x,-z
-x+y,y,-z
x,x-y,-z
-x,-y,-z
y,-x+y,-z
x-y,x,-z
y,x,z
x-y,-y,z
-x,-x+y,z
loop_
_atom_site_type_symbol
_atom_site_label
_atom_site_fract_x
_atom_site_fract_y
_atom_site_fract_z
Si Si1 0.829603 0.217815 0.607237
Si Si2 0.451123 0.000000 0.338178
Si Si3 0.391462 0.565180 0.774110
Si Si4 0.333335 0.666668 0.374808
Si Si5 0.743848 0.211681 0.171664
Si Si6 0.178986 0.277064 0.103700
Si Si7 0.100760 0.899313 0.326529
Si Si8 0.387101 0.387101 0.440244
O O1 0.784412 0.215589 0.500000
O O2 0.784188 0.223470 0.709599
O O3 0.847320 0.139268 0.614907
O O4 0.919386 0.303351 0.601933
O O5 0.405981 0.915407 0.268893
O O6 0.531338 0.000000 0.392857
O O7 0.393480 0.000000 0.434096
O O8 0.371713 0.611180 0.677183
O O9 0.311317 0.528098 0.852746
O O10 0.475818 0.641962 0.825959
O O11 0.333334 0.666667 0.500000
O O12 0.780301 0.158892 0.113968
O O13 0.252472 0.252472 0.100199
O O14 0.123035 0.230369 0.205691
O O15 0.123338 0.246675 0.000000
O O16 0.000000 0.848613 0.354652
O O17 0.142890 0.000000 0.342679
#
# Coordination Sequence:
#
# PCOD9577887 Si02
#       8
#    12   6  12   4  12  12  12   6
#     4  11  22  37  55  78 123 166 210 253 309 360
#     4  11  22  32  56  80 118 153 212 265 289 348
#     4  10  21  37  54  84 116 159 201 251 298 355
#     4   9  21  33  54  72 118 161 211 246 306 339
#     4  10  22  40  62  86 122 163 202 247 305 363
#     4  10  22  42  70  96 125 154 192 250 315 377
#     4  10  21  37  60  86 117 158 204 255 307 370
#     4  11  22  34  50  82 112 156 213 253 309 351
#
# _framework density 20.841075
#
# number of rings (size 3 to 8) (size 9 to 14) (size 15 to 20)
#    0.000    1.737    2.368    1.895    5.526    2.526 
#    7.105    0.789    0.000    4.421    0.000    0.000 
#    0.000    0.000    0.000    0.000    0.000    0.000 
#
# Total GULP energy -424686.958614 kJ/mol
# GULP energy per Si atom -5587.986298 kJ/mol
# Density = 2.079364 g / cm^3
# Si number density = 20.841075 Si / 1000 Ang^3
#
#
#
# Elastic Constant Matrix: (Units=GPa)
#
#
# Indices 1 2 3 4 5 6 
#
# 1 77.3022 21.0066 -5.8671 -0.0002 3.8021 0.0002
# 2 21.0066 77.3019 -5.8670 0.0002 -3.8022 -0.0003
# 3 -5.8671 -5.8670 40.7562 -0.0001 -0.0001 0.0000
# 4 -0.0002 0.0002 -0.0001 9.9518 0.0000 -3.8020
# 5 3.8021 -3.8022 -0.0001 0.0000 9.9517 -0.0001
# 6 0.0002 -0.0003 0.0000 -3.8020 -0.0001 28.1478
#
#
#
# Elastic Compliance Matrix: (Units=1/GPa)
#
#
# Indices 1 2 3 4 5 6 
#
# 1 0.014540 -0.004190 0.001490 0.000000 -0.007156 0.000000
# 2 -0.004190 0.014540 0.001490 0.000000 0.007156 0.000000
# 3 0.001490 0.001490 0.024965 0.000000 0.000000 0.000000
# 4 0.000000 0.000000 0.000000 0.105952 0.000000 0.014311
# 5 -0.007156 0.007156 0.000000 0.000000 0.105953 0.000001
# 6 0.000000 0.000000 0.000000 0.014311 0.000001 0.037460
#
#
# Mechanical properties :
#
#
# Convention : Reuss Voigt Hill
#
# Bulk Modulus (GPa) = 19.37061 23.76724 21.56893
# Shear Modulus (GPa) = 15.47802 22.01611 18.74707
#
# Velocity S-wave (km/s) = 2.72815 3.25373 3.00246
# Velocity P-wave (km/s) = 4.38616 5.05415 4.73196
#
# Compressibility (1/GPa) = 0.05162459
#
# Stress axis : x y z
#
# Youngs Moduli (GPa) = 68.77617 68.77589 40.05587
#
# Poissons Ratio (x) = 0.28818 -0.05968
# Poissons Ratio (y) = 0.28818 -0.05968
# Poissons Ratio (z) = -0.10247 -0.10247
#
# Static dielectric constant tensor:
#      x y z
#    x 1.670630 0.000000 0.000000 
#    y 0.000000 1.670630 0.000000 
#    z 0.000000 0.000000 1.757250 
# 
# From -- ./inp_files/3151.got.cif
#   From: 2010.05.17/outbox.cif.g08.bks.cpg/sg162_2_cif.got.tgz:3151.got - 2010.05.20 10:53:12.
