data_PCOD9577261
_publ_section_title
;
Structure prediction by ZEFSAII (Michael W. Deem and Ramdas Pophale) SiO2 
 PCOD9577261
Probable space group: P 3 1 M
;
_chemical_formula_sum "Si O2"
_cell_formula_units_Z 42
_cell_length_a 23.193021
_cell_length_b 23.193021
_cell_length_c 4.909260
_cell_angle_alpha 90.000000
_cell_angle_beta 90.000000
_cell_angle_gamma 120.000000
_cell_volume 2286.974423
_symmetry_space_group_name_H-M "P 3 1 M"
_symmetry_group_IT_number 157
_symmetry_cell_setting 'hexagonal'
loop_
_space_group_symop_operation_xyz
x,y,z
-y,x-y,z
-x+y,-x,z
y,x,z
x-y,-y,z
-x,-x+y,z
loop_
_atom_site_type_symbol
_atom_site_label
_atom_site_fract_x
_atom_site_fract_y
_atom_site_fract_z
Si Si1 0.514126 0.257063 0.247810
Si Si2 0.818831 0.409416 0.247810
Si Si3 0.611222 0.074315 0.979707
Si Si4 0.925544 0.307106 0.007743
Si Si5 0.381562 0.307105 0.487878
Si Si6 0.208620 0.417240 0.747810
Si Si7 0.388778 0.925685 0.515914
O O1 0.559839 0.333304 0.338441
O O2 0.559839 0.226535 0.157179
O O3 0.467109 0.216753 0.501469
O O4 0.467109 0.250355 0.994151
O O5 0.868995 0.462703 0.032981
O O6 0.868995 0.406292 0.462639
O O7 0.669713 0.081640 0.186890
O O8 0.550583 0.000000 0.026954
O O9 0.637863 0.076868 0.679140
O O10 0.864400 0.239570 0.886101
O O11 0.923132 0.362137 0.816481
O O12 0.000000 0.318649 0.982889
O O13 0.918360 0.330287 0.308731
O O14 0.318649 0.318649 0.512731
O O15 0.375170 0.239570 0.609520
O O16 0.449416 0.000000 0.468667
#
# Coordination Sequence:
#
# PCOD9577261 Si02
#       7
#     6   6   6   6   6   6   6
#     4  12  27  34  58  65 102 132 167 204 261 302
#     4  12  22  42  48  77  94 136 166 212 250 310
#     4  10  21  35  57  77  96 122 163 212 250 293
#     4  10  20  36  57  78  96 126 161 196 249 297
#     4  10  20  36  57  78  96 126 161 196 249 297
#     4  12  20  42  52  78  98 132 151 208 247 294
#     4  10  21  35  57  77  96 122 163 212 250 293
#
# _framework density 18.364874
#
# number of rings (size 3 to 8) (size 9 to 14) (size 15 to 20)
#    0.000    1.143    5.714    0.714    0.000    4.571 
#    0.000    4.286    0.000    0.000    0.000    0.000 
#    0.000    0.000    0.000    0.429    0.000    0.000 
#
# Total GULP energy -234518.963979 kJ/mol
# GULP energy per Si atom -5583.784857 kJ/mol
# Density = 1.832307 g / cm^3
# Si number density = 18.364874 Si / 1000 Ang^3
#
#
#
# Elastic Constant Matrix: (Units=GPa)
#
#
# Indices 1 2 3 4 5 6 
#
# 1 105.9321 40.8741 -4.6572 0.0000 -0.0073 0.0000
# 2 40.8741 105.9321 -4.6572 0.0000 0.0073 0.0000
# 3 -4.6572 -4.6572 41.3089 0.0000 0.0000 0.0000
# 4 0.0000 0.0000 0.0000 17.7099 0.0000 0.0073
# 5 -0.0073 0.0073 0.0000 0.0000 17.7099 0.0000
# 6 0.0000 0.0000 0.0000 0.0073 0.0000 32.5290
#
#
#
# Elastic Compliance Matrix: (Units=1/GPa)
#
#
# Indices 1 2 3 4 5 6 
#
# 1 0.011116 -0.004255 0.000773 0.000000 0.000006 0.000000
# 2 -0.004255 0.011116 0.000773 0.000000 -0.000006 0.000000
# 3 0.000773 0.000773 0.024382 0.000000 0.000000 0.000000
# 4 0.000000 0.000000 0.000000 0.056466 0.000000 -0.000013
# 5 0.000006 -0.000006 0.000000 0.000000 0.056466 0.000000
# 6 0.000000 0.000000 0.000000 -0.000013 0.000000 0.030742
#
#
# Mechanical properties :
#
#
# Convention : Reuss Voigt Hill
#
# Bulk Modulus (GPa) = 24.27318 35.14363 29.70840
# Shear Modulus (GPa) = 23.87369 28.36399 26.11884
#
# Velocity S-wave (km/s) = 3.60941 3.93424 3.77532
# Velocity P-wave (km/s) = 5.53321 6.30995 5.93430
#
# Compressibility (1/GPa) = 0.04119774
#
# Stress axis : x y z
#
# Youngs Moduli (GPa) = 89.96171 89.96171 41.01345
#
# Poissons Ratio (x) = 0.38279 -0.03172
# Poissons Ratio (y) = 0.38279 -0.03172
# Poissons Ratio (z) = -0.06958 -0.06958
#
# Static dielectric constant tensor:
#      x y z
#    x 1.693890 0.000000 0.000000 
#    y 0.000000 1.693890 0.000000 
#    z 0.000000 0.000000 1.664970 
# 
# From -- ./inp_files/231.got.cif
#   From: 2010.05.17/outbox.cif.g08.bks.cpg/sg157_cif.got.tgz:231.got - 2010.05.20 10:49:36.
