data_PCOD9577494
_publ_section_title
;
Structure prediction by ZEFSAII (Michael W. Deem and Ramdas Pophale) SiO2 
 PCOD9577494
Probable space group: R 3 M
;
_chemical_formula_sum "Si O2"
_cell_formula_units_Z 126
_cell_length_a 26.380582
_cell_length_b 26.380582
_cell_length_c 12.375230
_cell_angle_alpha 90.000000
_cell_angle_beta 90.000000
_cell_angle_gamma 120.000000
_cell_volume 7458.519957
_symmetry_space_group_name_H-M "R 3 M"
_symmetry_group_IT_number 160
_symmetry_cell_setting 'hexagonal'
loop_
_space_group_symop_operation_xyz
x,y,z
-y,x-y,z
-x+y,-x,z
-x+y,y,z
x,x-y,z
-y,-x,z
2/3+x,1/3+y,1/3+z
2/3-y,1/3+x-y,1/3+z
2/3-x+y,1/3-x,1/3+z
2/3-x+y,1/3+y,1/3+z
2/3+x,1/3+x-y,1/3+z
2/3-y,1/3-x,1/3+z
1/3+x,2/3+y,2/3+z
1/3-y,2/3+x-y,2/3+z
1/3-x+y,2/3-x,2/3+z
1/3-x+y,2/3+y,2/3+z
1/3+x,2/3+x-y,2/3+z
1/3-y,2/3-x,2/3+z
loop_
_atom_site_type_symbol
_atom_site_label
_atom_site_fract_x
_atom_site_fract_y
_atom_site_fract_z
Si Si1 0.119236 0.120528 0.302933
Si Si2 0.961991 0.348038 0.362436
Si Si3 0.655077 0.885311 0.063796
Si Si4 0.816128 0.749107 0.610943
Si Si5 0.380474 0.502937 0.168040
Si Si6 0.661440 0.929590 0.458774
Si Si7 0.823117 0.060296 0.197319
O O1 0.117532 0.058766 0.318042
O O2 0.141122 0.160239 0.410813
O O3 0.169277 0.156770 0.213861
O O4 0.055753 0.111505 0.275599
O O5 0.910943 0.280879 0.353322
O O6 0.977899 0.382473 0.250275
O O7 0.940349 0.376648 0.451573
O O8 0.017019 0.342521 0.403640
O O9 0.675752 0.837876 0.066420
O O10 0.631677 0.887138 0.183281
O O11 0.600309 0.860983 0.982275
O O12 0.883190 0.766379 0.593114
O O13 0.804757 0.802650 0.592154
O O14 0.793355 0.717498 0.724832
O O15 0.440927 0.559074 0.205142
O O16 0.394780 0.454485 0.119485
O O17 0.879621 0.120380 0.161231
#
# Coordination Sequence:
#
# PCOD9577494 Si02
#       7
#    18  18  18  18  18  18  18
#     4  10  20  35  56  82 112 144 180 229 285 337
#     4  12  21  37  58  77 113 152 191 228 267 333
#     4  10  20  35  57  81 109 146 185 223 273 332
#     4  11  22  38  58  81 115 152 186 228 280 333
#     4  11  22  35  55  84 112 141 186 231 273 330
#     4  12  23  38  54  81 115 154 189 227 272 329
#     4  10  21  36  54  80 112 147 182 226 276 324
#
# _framework density 16.893432000000001
#
# number of rings (size 3 to 8) (size 9 to 14) (size 15 to 20)
#    0.000    1.143    5.714    1.000    2.000    1.714 
#    0.000    0.714    0.000    0.286    0.000    0.000 
#    0.000    0.000    0.000    0.000    0.000    0.000 
#
# Total GULP energy -234439.029410 kJ/mol
# GULP energy per Si atom -5581.881653 kJ/mol
# Density = 1.685498 g / cm^3
# Si number density = 16.893432 Si / 1000 Ang^3
#
#
#
# Elastic Constant Matrix: (Units=GPa)
#
#
# Indices 1 2 3 4 5 6 
#
# 1 77.0877 30.9420 18.6897 1.9657 -0.0001 -0.0001
# 2 30.9420 77.0880 18.6907 -1.9658 -0.0004 0.0000
# 3 18.6897 18.6907 60.0545 -0.0003 -0.0010 -0.0003
# 4 1.9657 -1.9658 -0.0003 18.9851 -0.0001 -0.0003
# 5 -0.0001 -0.0004 -0.0010 -0.0001 18.9849 1.9657
# 6 -0.0001 0.0000 -0.0003 -0.0003 1.9657 23.0730
#
#
#
# Elastic Compliance Matrix: (Units=1/GPa)
#
#
# Indices 1 2 3 4 5 6 
#
# 1 0.016119 -0.005745 -0.003228 -0.002264 0.000000 0.000000
# 2 -0.005745 0.016119 -0.003229 0.002264 0.000000 0.000000
# 3 -0.003228 -0.003229 0.018661 0.000000 0.000001 0.000000
# 4 -0.002264 0.002264 0.000000 0.053142 0.000000 0.000001
# 5 0.000000 0.000000 0.000001 0.000000 0.053142 -0.004528
# 6 0.000000 0.000000 0.000000 0.000001 -0.004528 0.043726
#
#
# Mechanical properties :
#
#
# Convention : Reuss Voigt Hill
#
# Bulk Modulus (GPa) = 37.74355 38.98612 38.36483
# Shear Modulus (GPa) = 21.35441 21.93579 21.64510
#
# Velocity S-wave (km/s) = 3.55923 3.60735 3.58337
# Velocity P-wave (km/s) = 6.26749 6.36227 6.31506
#
# Compressibility (1/GPa) = 0.02649459
#
# Stress axis : x y z
#
# Youngs Moduli (GPa) = 62.04038 62.04014 53.58731
#
# Poissons Ratio (x) = 0.35640 0.17300
# Poissons Ratio (y) = 0.35640 0.17302
# Poissons Ratio (z) = 0.20029 0.20031
#
# Static dielectric constant tensor:
#      x y z
#    x 1.585720 0.000000 0.000000 
#    y 0.000000 1.585720 0.000000 
#    z 0.000000 0.000000 1.557350 
# 
# From -- ./inp_files/1805.got.cif
#   From: 2010.05.17/outbox.cif.g08.bks.cpg/sg160_1_cif.got.tgz:1805.got - 2010.05.20 10:51:19.
