data_PCOD9577974
_publ_section_title
;
Structure prediction by ZEFSAII (Michael W. Deem and Ramdas Pophale) SiO2 
 PCOD9577974
Probable space group: P -3 1 C
;
_chemical_formula_sum "Si O2"
_cell_formula_units_Z 66
_cell_length_a 18.079429
_cell_length_b 18.079429
_cell_length_c 13.890977
_cell_angle_alpha 90.000000
_cell_angle_beta 90.000000
_cell_angle_gamma 120.000000
_cell_volume 3932.175058
_symmetry_space_group_name_H-M "P -3 1 C"
_symmetry_group_IT_number 163
_symmetry_cell_setting 'hexagonal'
loop_
_space_group_symop_operation_xyz
x,y,z
-y,x-y,z
-x+y,-x,z
-y,-x,1/2-z
-x+y,y,1/2-z
x,x-y,1/2-z
-x,-y,-z
y,-x+y,-z
x-y,x,-z
y,x,1/2+z
x-y,-y,1/2+z
-x,-x+y,1/2+z
loop_
_atom_site_type_symbol
_atom_site_label
_atom_site_fract_x
_atom_site_fract_y
_atom_site_fract_z
Si Si1 0.398774 0.513488 0.867557
Si Si2 0.037650 0.408150 0.260016
Si Si3 0.531222 0.704877 0.099674
Si Si4 0.242465 0.484929 0.750000
Si Si5 0.478040 0.847061 0.084683
Si Si6 0.683099 0.584152 0.393810
O O1 0.401458 0.437744 0.810532
O O2 0.331430 0.532404 0.810113
O O3 0.492443 0.596115 0.876084
O O4 0.371836 0.489349 0.977928
O O5 0.114389 0.420753 0.191138
O O6 0.082005 0.487392 0.332954
O O7 0.986979 0.333367 0.339834
O O8 0.512717 0.782607 0.106062
O O9 0.435369 0.622995 0.086921
O O10 0.583978 0.704840 0.005246
O O11 0.249046 0.426060 0.668989
#
# Coordination Sequence:
#
# PCOD9577974 Si02
#       6
#    12  12  12   6  12  12
#     4  10  20  33  47  68  88 119 158 199 241 289
#     4  11  21  33  51  65  89 125 158 194 241 292
#     4  11  21  34  48  70  95 121 156 202 251 291
#     4  10  16  32  44  66  88 110 146 196 248 274
#     4  11  21  34  48  70  95 121 156 202 251 291
#     4  10  20  33  47  68  88 119 158 199 241 289
#
# _framework density 16.784603000000001
#
# number of rings (size 3 to 8) (size 9 to 14) (size 15 to 20)
#    0.000    1.455    1.818    6.909    0.000    2.909 
#    4.364    1.818    0.000    0.000    0.000    0.000 
#    0.000    0.000    0.000    0.000    0.000    0.000 
#
# Total GULP energy -367489.283236 kJ/mol
# GULP energy per Si atom -5568.019443 kJ/mol
# Density = 1.674640 g / cm^3
# Si number density = 16.784603 Si / 1000 Ang^3
#
#
#
# Elastic Constant Matrix: (Units=GPa)
#
#
# Indices 1 2 3 4 5 6 
#
# 1 55.3710 24.2846 36.6348 0.0000 -0.7421 0.0000
# 2 24.2846 55.3710 36.6348 0.0000 0.7421 0.0000
# 3 36.6348 36.6348 132.4385 0.0000 0.0000 0.0000
# 4 0.0000 0.0000 0.0000 22.1374 0.0000 0.7421
# 5 -0.7421 0.7421 0.0000 0.0000 22.1374 0.0000
# 6 0.0000 0.0000 0.0000 0.7421 0.0000 15.5432
#
#
#
# Elastic Compliance Matrix: (Units=1/GPa)
#
#
# Indices 1 2 3 4 5 6 
#
# 1 0.024529 -0.007691 -0.004658 0.000000 0.001080 0.000000
# 2 -0.007691 0.024529 -0.004658 0.000000 -0.001080 0.000000
# 3 -0.004658 -0.004658 0.010128 0.000000 0.000000 0.000000
# 4 0.000000 0.000000 0.000000 0.045245 0.000000 -0.002160
# 5 0.001080 -0.001080 0.000000 0.000000 0.045245 0.000000
# 6 0.000000 0.000000 0.000000 -0.002160 0.000000 0.064440
#
#
# Mechanical properties :
#
#
# Convention : Reuss Voigt Hill
#
# Bulk Modulus (GPa) = 39.72480 48.69874 44.21177
# Shear Modulus (GPa) = 19.49172 21.67203 20.58187
#
# Velocity S-wave (km/s) = 3.41146 3.59720 3.50556
# Velocity P-wave (km/s) = 6.26388 6.80662 6.54088
#
# Compressibility (1/GPa) = 0.02517319
#
# Stress axis : x y z
#
# Youngs Moduli (GPa) = 40.76778 40.76778 98.74075
#
# Poissons Ratio (x) = 0.31353 0.45991
# Poissons Ratio (y) = 0.31353 0.45991
# Poissons Ratio (z) = 0.18989 0.18989
#
# Static dielectric constant tensor:
#      x y z
#    x 1.595340 0.000000 0.000000 
#    y 0.000000 1.595340 0.000000 
#    z 0.000000 0.000000 1.631590 
# 
# From -- ./inp_files/2548.got.cif
#   From: 2010.05.17/outbox.cif.g08.bks.cpg/sg163_2_cif.got.tgz:2548.got - 2010.05.20 10:56:03.
