data_PCOD9577133
_publ_section_title
;
Structure prediction by ZEFSAII (Michael W. Deem and Ramdas Pophale) SiO2 
 PCOD9577133
Probable space group: R 3 2
;
_chemical_formula_sum "Si O2"
_cell_formula_units_Z 75
_cell_length_a 15.522789
_cell_length_b 15.522789
_cell_length_c 16.272065
_cell_angle_alpha 90.000000
_cell_angle_beta 90.000000
_cell_angle_gamma 120.000000
_cell_volume 3395.570958
_symmetry_space_group_name_H-M "R 3 2"
_symmetry_group_IT_number 155
_symmetry_cell_setting 'hexagonal'
loop_
_space_group_symop_operation_xyz
x,y,z
-y,x-y,z
-x+y,-x,z
x-y,-y,-z
-x,-x+y,-z
y,x,-z
2/3+x,1/3+y,1/3+z
2/3-y,1/3+x-y,1/3+z
2/3-x+y,1/3-x,1/3+z
2/3+x-y,1/3-y,1/3-z
2/3-x,1/3-x+y,1/3-z
2/3+y,1/3+x,1/3-z
1/3+x,2/3+y,2/3+z
1/3-y,2/3+x-y,2/3+z
1/3-x+y,2/3-x,2/3+z
1/3+x-y,2/3-y,2/3-z
1/3-x,2/3-x+y,2/3-z
1/3+y,2/3+x,2/3-z
loop_
_atom_site_type_symbol
_atom_site_label
_atom_site_fract_x
_atom_site_fract_y
_atom_site_fract_z
Si Si1 0.666667 0.333334 0.231990
Si Si2 0.212429 0.138970 0.344298
Si Si3 0.062085 0.216795 0.822378
Si Si4 0.194675 0.885232 0.500648
Si Si5 0.438228 0.438228 0.000000
Si Si6 0.666667 0.333333 0.929442
O O1 0.666668 0.333334 0.333334
O O2 0.720798 0.449270 0.196781
O O3 0.208429 0.063215 0.276263
O O4 0.282750 0.159583 0.421759
O O5 0.242441 0.243072 0.303701
O O6 0.100271 0.093017 0.373782
O O7 0.150870 0.333334 0.833334
O O8 0.960621 0.212922 0.848673
O O9 0.147917 0.840014 0.413159
O O10 0.225333 0.000000 0.500000
O O11 0.666668 0.333334 0.833334
#
# Coordination Sequence:
#
# PCOD9577133 Si02
#       6
#     6  18  18  18   9   6
#     4  12  28  50  85 117 163 221 277 340 425 502
#     4  12  25  42  70  99 146 192 251 317 401 460
#     4  11  27  48  74 107 153 207 268 329 396 487
#     4  11  23  42  71 101 143 196 255 323 402 480
#     4  12  24  40  64 106 144 186 254 326 396 490
#     4  12  22  41  70 102 133 179 238 310 383 469
#
# _framework density 22.087596000000001
#
# number of rings (size 3 to 8) (size 9 to 14) (size 15 to 20)
#    0.000    0.480    0.000   10.080    3.360    5.760 
#    0.000    0.000    0.000    0.000    0.000    0.000 
#    0.000    0.000    0.000    0.000    0.000    0.000 
#
# Total GULP energy -139593.931791 kJ/mol
# GULP energy per Si atom -5583.757272 kJ/mol
# Density = 2.203732 g / cm^3
# Si number density = 22.087596 Si / 1000 Ang^3
#
#
#
# Elastic Constant Matrix: (Units=GPa)
#
#
# Indices 1 2 3 4 5 6 
#
# 1 104.1961 38.4756 36.0703 -5.3986 0.0000 0.0000
# 2 38.4756 104.1969 36.0704 5.3985 0.0000 0.0000
# 3 36.0703 36.0704 143.4402 0.0000 -0.0001 0.0000
# 4 -5.3986 5.3985 0.0000 50.3274 0.0002 -0.0001
# 5 0.0000 0.0000 -0.0001 0.0002 50.3271 -5.3985
# 6 0.0000 0.0000 0.0000 -0.0001 -5.3985 32.8603
#
#
#
# Elastic Compliance Matrix: (Units=1/GPa)
#
#
# Indices 1 2 3 4 5 6 
#
# 1 0.011760 -0.003729 -0.002019 0.001661 0.000000 0.000000
# 2 -0.003729 0.011759 -0.002019 -0.001661 0.000000 0.000000
# 3 -0.002019 -0.002019 0.007987 0.000000 0.000000 0.000000
# 4 0.001661 -0.001661 0.000000 0.020226 0.000000 0.000000
# 5 0.000000 0.000000 0.000000 0.000000 0.020226 0.003323
# 6 0.000000 0.000000 0.000000 0.000000 0.003323 0.030978
#
#
# Mechanical properties :
#
#
# Convention : Reuss Voigt Hill
#
# Bulk Modulus (GPa) = 62.61684 63.67398 63.14541
# Shear Modulus (GPa) = 40.38907 42.78411 41.58659
#
# Velocity S-wave (km/s) = 4.28084 4.40593 4.34383
# Velocity P-wave (km/s) = 7.26945 7.40091 7.33548
#
# Compressibility (1/GPa) = 0.01597014
#
# Stress axis : x y z
#
# Youngs Moduli (GPa) = 85.03755 85.03817 125.20165
#
# Poissons Ratio (x) = 0.31714 0.25282
# Poissons Ratio (y) = 0.31714 0.25282
# Poissons Ratio (z) = 0.17172 0.17172
#
# Static dielectric constant tensor:
#      x y z
#    x 1.849300 0.000000 0.000000 
#    y 0.000000 1.849300 0.000000 
#    z 0.000000 0.000000 1.903710 
# 
# From -- ./inp_files/6856.got.cif
#   From: 2010.05.17/outbox.cif.g08.bks.cpg/sg155_4_cif.got.tgz:6856.got - 2010.05.20 10:44:35.
