data_PCOD9577932
_publ_section_title
;
Structure prediction by ZEFSAII (Michael W. Deem and Ramdas Pophale) SiO2 
 PCOD9577932
Probable space group: P -3 1 M 
;
_chemical_formula_sum "Si O2"
_cell_formula_units_Z 48
_cell_length_a 14.318860
_cell_length_b 14.318860
_cell_length_c 15.020619
_cell_angle_alpha 90.000000
_cell_angle_beta 90.000000
_cell_angle_gamma 120.000000
_cell_volume 2667.075732
_symmetry_space_group_name_H-M "P -3 1 M "
_symmetry_group_IT_number 162
_symmetry_cell_setting 'hexagonal'
loop_
_space_group_symop_operation_xyz
x,y,z
-y,x-y,z
-x+y,-x,z
-y,-x,-z
-x+y,y,-z
x,x-y,-z
-x,-y,-z
y,-x+y,-z
x-y,x,-z
y,x,z
x-y,-y,z
-x,-x+y,z
loop_
_atom_site_type_symbol
_atom_site_label
_atom_site_fract_x
_atom_site_fract_y
_atom_site_fract_z
Si Si1 0.205459 0.876989 0.099497
Si Si2 0.733185 0.258144 0.399639
Si Si3 0.574386 0.448979 0.098204
Si Si4 0.876590 0.296845 0.763563
O O1 0.316439 0.875245 0.116223
O O2 0.126088 0.793187 0.171207
O O3 0.234664 0.000000 0.108266
O O4 0.164739 0.835262 0.000000
O O5 0.782718 0.387201 0.391557
O O6 0.759644 0.240357 0.500000
O O7 0.757078 0.199971 0.320798
O O8 0.479303 0.479303 0.090198
O O9 0.529623 0.361791 0.176540
O O10 0.587590 0.412411 0.000000
O O11 0.000000 0.378434 0.735969
#
# Coordination Sequence:
#
# PCOD9577932 Si02
#       4
#    12  12  12  12
#     4  11  21  34  50  72 106 144 176 213 256 303
#     4   8  17  35  55  73 106 139 168 207 259 316
#     4   9  17  30  46  71 104 134 167 206 252 304
#     4  11  20  33  53  79 105 134 176 220 260 306
#
# _framework density 17.997239
#
# number of rings (size 3 to 8) (size 9 to 14) (size 15 to 20)
#    0.500    1.750    2.500    2.250    0.000    0.000 
#    1.500    5.000    0.000    4.500    0.000    0.000 
#    0.000    1.000    0.000    0.000    0.000    0.000 
#
# Total GULP energy -267334.710296 kJ/mol
# GULP energy per Si atom -5569.473131 kJ/mol
# Density = 1.795628 g / cm^3
# Si number density = 17.997239 Si / 1000 Ang^3
#
#
#
# Elastic Constant Matrix: (Units=GPa)
#
#
# Indices 1 2 3 4 5 6 
#
# 1 45.5673 9.5715 26.4126 -0.0001 2.9642 0.0000
# 2 9.5715 45.5673 26.4126 0.0001 -2.9642 0.0000
# 3 26.4126 26.4126 137.3558 0.0000 0.0000 0.0000
# 4 -0.0001 0.0001 0.0000 10.7441 0.0000 -2.9642
# 5 2.9642 -2.9642 0.0000 0.0000 10.7441 -0.0001
# 6 0.0000 0.0000 0.0000 -2.9642 -0.0001 17.9979
#
#
#
# Elastic Compliance Matrix: (Units=1/GPa)
#
#
# Indices 1 2 3 4 5 6 
#
# 1 0.025668 -0.003436 -0.004275 0.000000 -0.008029 0.000000
# 2 -0.003436 0.025668 -0.004275 0.000000 0.008029 0.000000
# 3 -0.004275 -0.004275 0.008924 0.000000 0.000000 0.000000
# 4 0.000000 0.000000 0.000000 0.097505 0.000000 0.016059
# 5 -0.008029 0.008029 0.000000 0.000000 0.097505 0.000001
# 6 0.000000 0.000000 0.000000 0.016059 0.000001 0.058207
#
#
# Mechanical properties :
#
#
# Convention : Reuss Voigt Hill
#
# Bulk Modulus (GPa) = 27.55745 39.25373 33.40559
# Shear Modulus (GPa) = 14.30436 18.97015 16.63726
#
# Velocity S-wave (km/s) = 2.82229 3.25015 3.04375
# Velocity P-wave (km/s) = 5.09566 5.99524 5.56366
#
# Compressibility (1/GPa) = 0.03628783
#
# Stress axis : x y z
#
# Youngs Moduli (GPa) = 38.95971 38.95971 112.05151
#
# Poissons Ratio (x) = 0.13386 0.47902
# Poissons Ratio (y) = 0.13386 0.47902
# Poissons Ratio (z) = 0.16655 0.16655
#
# Static dielectric constant tensor:
#      x y z
#    x 1.641420 0.000000 0.000000 
#    y 0.000000 1.641420 0.000000 
#    z 0.000000 0.000000 1.637960 
# 
# From -- ./inp_files/2810.got.cif
#   From: 2010.05.17/outbox.cif.g08.bks.cpg/sg162_2_cif.got.tgz:2810.got - 2010.05.20 10:53:12.
