data_PCOD9577905
_publ_section_title
;
Structure prediction by ZEFSAII (Michael W. Deem and Ramdas Pophale) SiO2 
 PCOD9577905
Probable space group: P -3 1 M 
;
_chemical_formula_sum "Si O2"
_cell_formula_units_Z 84
_cell_length_a 15.033692
_cell_length_b 15.033692
_cell_length_c 19.570533
_cell_angle_alpha 90.000000
_cell_angle_beta 90.000000
_cell_angle_gamma 120.000000
_cell_volume 3830.580402
_symmetry_space_group_name_H-M "P -3 1 M "
_symmetry_group_IT_number 162
_symmetry_cell_setting 'hexagonal'
loop_
_space_group_symop_operation_xyz
x,y,z
-y,x-y,z
-x+y,-x,z
-y,-x,-z
-x+y,y,-z
x,x-y,-z
-x,-y,-z
y,-x+y,-z
x-y,x,-z
y,x,z
x-y,-y,z
-x,-x+y,z
loop_
_atom_site_type_symbol
_atom_site_label
_atom_site_fract_x
_atom_site_fract_y
_atom_site_fract_z
Si Si1 0.772127 0.884682 0.773994
Si Si2 0.887300 0.432863 0.581039
Si Si3 0.450784 0.178808 0.220813
Si Si4 0.239568 0.792108 0.376392
Si Si5 0.506838 0.113832 0.822014
Si Si6 0.884987 0.113247 0.392775
Si Si7 0.542639 0.664883 0.978623
O O1 0.803169 0.803169 0.798602
O O2 0.664908 0.863745 0.804104
O O3 0.765182 0.877011 0.690819
O O4 0.859067 0.000000 0.789610
O O5 0.896857 0.448429 0.500000
O O6 0.853823 0.322833 0.614065
O O7 0.798489 0.458294 0.595006
O O8 0.000000 0.513713 0.609687
O O9 0.439573 0.160028 0.301462
O O10 0.510709 0.132544 0.181012
O O11 0.508915 0.301878 0.217632
O O12 0.201552 0.861584 0.414521
O O13 0.466500 0.120342 0.896662
O O14 0.431582 0.000000 0.793667
O O15 0.000000 0.143145 0.409877
O O16 0.804924 0.000000 0.417653
O O17 0.625245 0.625245 0.999207
O O18 0.428903 0.571098 0.000000
O O19 0.557919 0.778960 0.000000
#
# Coordination Sequence:
#
# PCOD9577905 Si02
#       7
#    12  12  12  12  12  12  12
#     4   9  17  30  49  74 106 145 186 224 264 320
#     4  11  24  41  60  80 104 140 189 245 299 350
#     4  11  22  35  54  82 117 155 188 227 287 355
#     4  11  22  37  57  81 112 147 186 232 285 352
#     4  11  23  38  57  85 121 157 195 240 290 345
#     4   9  17  30  51  79 108 138 173 215 265 324
#     4  10  21  39  65  93 123 163 210 262 312 361
#
# _framework density 21.928792999999999
#
# number of rings (size 3 to 8) (size 9 to 14) (size 15 to 20)
#    0.000    1.714    0.000    4.857    0.000    5.714 
#    0.000    0.714    0.000    0.143    0.000    0.000 
#    0.000    6.857    0.000    0.000    0.000    0.571 
#
# Total GULP energy -468092.754186 kJ/mol
# GULP energy per Si atom -5572.532788 kJ/mol
# Density = 2.187888 g / cm^3
# Si number density = 21.928793 Si / 1000 Ang^3
#
#
#
# Elastic Constant Matrix: (Units=GPa)
#
#
# Indices 1 2 3 4 5 6 
#
# 1 99.7787 36.6309 4.6986 0.0000 7.3854 0.0000
# 2 36.6309 99.7787 4.6986 0.0000 -7.3854 0.0000
# 3 4.6986 4.6986 30.0876 0.0000 0.0000 0.0000
# 4 0.0000 0.0000 0.0000 -2.2427 0.0000 -7.3854
# 5 7.3854 -7.3854 0.0000 0.0000 -2.2427 0.0000
# 6 0.0000 0.0000 0.0000 -7.3854 0.0000 31.5739
#
#
#
# Elastic Compliance Matrix: (Units=1/GPa)
#
#
# Indices 1 2 3 4 5 6 
#
# 1 0.008178 -0.000767 -0.001157 0.000000 0.029458 0.000000
# 2 -0.000767 0.008178 -0.001157 0.000000 -0.029458 0.000000
# 3 -0.001157 -0.001157 0.033598 0.000000 0.000000 0.000000
# 4 0.000000 0.000000 0.000000 -0.251877 0.000000 -0.058916
# 5 0.029458 -0.029458 0.000000 0.000000 -0.251877 0.000000
# 6 0.000000 0.000000 0.000000 -0.058916 0.000000 0.017891
#
#
# Mechanical properties :
#
#
# Convention : Reuss Voigt Hill
#
# Bulk Modulus (GPa) = 22.83637 35.74460 29.29048
# Shear Modulus (GPa) = -12.04388 17.65885 2.80748
#
# Velocity S-wave (km/s) = -2.34610 2.84083 1.13272
# Velocity P-wave (km/s) = 1.75999 5.20539 3.88546
#
# Compressibility (1/GPa) = 0.04378980
#
# Stress axis : x y z
#
# Youngs Moduli (GPa) = 122.28006 122.28006 29.76391
#
# Poissons Ratio (x) = 0.09383 0.03445
# Poissons Ratio (y) = 0.09383 0.03445
# Poissons Ratio (z) = 0.14151 0.14151
#
# Static dielectric constant tensor:
#      x y z
#    x 1.788230 0.000000 0.000000 
#    y 0.000000 1.788230 0.000000 
#    z 0.000000 0.000000 1.876910 
# 
# From -- ./inp_files/3952.got.cif
#   From: 2010.05.17/outbox.cif.g08.bks.cpg/sg162_2_cif.got.tgz:3952.got - 2010.05.20 10:53:12.
