data_PCOD9577129
_publ_section_title
;
Structure prediction by ZEFSAII (Michael W. Deem and Ramdas Pophale) SiO2 
 PCOD9577129
Probable space group: R 3 2
;
_chemical_formula_sum "Si O2"
_cell_formula_units_Z 72
_cell_length_a 13.458449
_cell_length_b 13.458449
_cell_length_c 16.239294
_cell_angle_alpha 90.000000
_cell_angle_beta 90.000000
_cell_angle_gamma 120.000000
_cell_volume 2547.345204
_symmetry_space_group_name_H-M "R 3 2"
_symmetry_group_IT_number 155
_symmetry_cell_setting 'hexagonal'
loop_
_space_group_symop_operation_xyz
x,y,z
-y,x-y,z
-x+y,-x,z
x-y,-y,-z
-x,-x+y,-z
y,x,-z
2/3+x,1/3+y,1/3+z
2/3-y,1/3+x-y,1/3+z
2/3-x+y,1/3-x,1/3+z
2/3+x-y,1/3-y,1/3-z
2/3-x,1/3-x+y,1/3-z
2/3+y,1/3+x,1/3-z
1/3+x,2/3+y,2/3+z
1/3-y,2/3+x-y,2/3+z
1/3-x+y,2/3-x,2/3+z
1/3+x-y,2/3-y,2/3-z
1/3-x,2/3-x+y,2/3-z
1/3+y,2/3+x,2/3-z
loop_
_atom_site_type_symbol
_atom_site_label
_atom_site_fract_x
_atom_site_fract_y
_atom_site_fract_z
Si Si1 0.476546 0.132787 0.246461
Si Si2 0.528301 0.449609 0.833956
Si Si3 0.810844 0.260061 0.075756
Si Si4 0.820890 0.557265 0.672317
O O1 0.524355 0.191022 0.333334
O O2 0.499912 0.211243 0.167190
O O3 0.337767 0.075890 0.258011
O O4 0.505824 0.034912 0.221494
O O5 0.666667 0.516692 0.833334
O O6 0.486222 0.336005 0.766711
O O7 0.492925 0.489828 0.930523
O O8 0.708777 0.138832 0.047530
O O9 0.812208 0.354675 0.015264
#
# Coordination Sequence:
#
# PCOD9577129 Si02
#       4
#    18  18  18  18
#     4  11  22  45  70  99 149 209 250 308 413 475
#     4  12  22  38  69 109 145 186 249 322 388 459
#     4  11  24  43  73 105 152 207 251 327 401 467
#     4  12  23  44  71 108 148 197 269 326 389 474
#
# _framework density 28.264723
#
# number of rings (size 3 to 8) (size 9 to 14) (size 15 to 20)
#    0.000    0.500    5.000    6.000    0.000    0.000 
#    4.500    1.250    0.000    0.000    0.000    0.000 
#    0.000    0.000    0.000    0.000    0.000    0.000 
#
# Total GULP energy -134000.877225 kJ/mol
# GULP energy per Si atom -5583.369884 kJ/mol
# Density = 2.820039 g / cm^3
# Si number density = 28.264723 Si / 1000 Ang^3
#
#
#
# Elastic Constant Matrix: (Units=GPa)
#
#
# Indices 1 2 3 4 5 6 
#
# 1 126.1842 32.2855 56.5832 7.4427 0.0000 0.0000
# 2 32.2855 126.1842 56.5832 -7.4427 0.0000 0.0000
# 3 56.5832 56.5832 310.2958 0.0000 0.0000 0.0000
# 4 7.4427 -7.4427 0.0000 45.7161 0.0000 0.0000
# 5 0.0000 0.0000 0.0000 0.0000 45.7161 7.4427
# 6 0.0000 0.0000 0.0000 0.0000 7.4427 46.9494
#
#
#
# Elastic Compliance Matrix: (Units=1/GPa)
#
#
# Indices 1 2 3 4 5 6 
#
# 1 0.009094 -0.001838 -0.001323 -0.001780 0.000000 0.000000
# 2 -0.001838 0.009094 -0.001323 0.001780 0.000000 0.000000
# 3 -0.001323 -0.001323 0.003705 0.000000 0.000000 0.000000
# 4 -0.001780 0.001780 0.000000 0.022454 0.000000 0.000000
# 5 0.000000 0.000000 0.000000 0.000000 0.022454 -0.003559
# 6 0.000000 0.000000 0.000000 0.000000 -0.003559 0.021864
#
#
# Mechanical properties :
#
#
# Convention : Reuss Voigt Hill
#
# Bulk Modulus (GPa) = 77.37824 94.84086 86.10955
# Shear Modulus (GPa) = 49.04851 55.49048 52.26950
#
# Velocity S-wave (km/s) = 4.17024 4.43566 4.30500
# Velocity P-wave (km/s) = 7.11503 7.73697 7.43251
#
# Compressibility (1/GPa) = 0.01292353
#
# Stress axis : x y z
#
# Youngs Moduli (GPa) = 109.96843 109.96843 269.88861
#
# Poissons Ratio (x) = 0.20216 0.35706
# Poissons Ratio (y) = 0.20216 0.35706
# Poissons Ratio (z) = 0.14549 0.14549
#
# Static dielectric constant tensor:
#      x y z
#    x 2.135030 0.000000 0.000000 
#    y 0.000000 2.135030 0.000000 
#    z 0.000000 0.000000 2.656310 
# 
# From -- ./inp_files/5886.got.cif
#   From: 2010.05.17/outbox.cif.g08.bks.cpg/sg155_3_cif.got.tgz:5886.got - 2010.05.20 10:44:35.
