data_PCOD9577063
_publ_section_title
;
Structure prediction by ZEFSAII (Michael W. Deem and Ramdas Pophale) SiO2 
 PCOD9577063
Probable space group: R 3 2
;
_chemical_formula_sum "Si O2"
_cell_formula_units_Z 63
_cell_length_a 19.239660
_cell_length_b 19.239660
_cell_length_c 8.249238
_cell_angle_alpha 90.000000
_cell_angle_beta 90.000000
_cell_angle_gamma 120.000000
_cell_volume 2644.473695
_symmetry_space_group_name_H-M "R 3 2"
_symmetry_group_IT_number 155
_symmetry_cell_setting 'hexagonal'
loop_
_space_group_symop_operation_xyz
x,y,z
-y,x-y,z
-x+y,-x,z
x-y,-y,-z
-x,-x+y,-z
y,x,-z
2/3+x,1/3+y,1/3+z
2/3-y,1/3+x-y,1/3+z
2/3-x+y,1/3-x,1/3+z
2/3+x-y,1/3-y,1/3-z
2/3-x,1/3-x+y,1/3-z
2/3+y,1/3+x,1/3-z
1/3+x,2/3+y,2/3+z
1/3-y,2/3+x-y,2/3+z
1/3-x+y,2/3-x,2/3+z
1/3+x-y,2/3-y,2/3-z
1/3-x,2/3-x+y,2/3-z
1/3+y,2/3+x,2/3-z
loop_
_atom_site_type_symbol
_atom_site_label
_atom_site_fract_x
_atom_site_fract_y
_atom_site_fract_z
Si Si1 0.987782 0.157731 0.311340
Si Si2 0.094234 0.709671 0.010284
Si Si3 0.804344 0.666667 0.166667
Si Si4 0.539619 0.344000 0.149925
O O1 0.945603 0.196946 0.201591
O O2 0.000000 0.183567 0.500000
O O3 0.070676 0.171157 0.241079
O O4 0.930748 0.060718 0.292525
O O5 0.144639 0.805611 0.987407
O O6 0.126007 0.677754 0.864974
O O7 0.105994 0.666667 0.166667
O O8 0.000000 0.668541 0.000000
O O9 0.559548 0.333334 0.333334
#
# Coordination Sequence:
#
# PCOD9577063 Si02
#       4
#    18  18   9  18
#     4  11  23  45  74 112 156 204 261 325 405 477
#     4  11  23  40  68 106 145 191 244 314 388 460
#     4  10  24  42  76 112 152 196 266 324 388 488
#     4  11  24  42  70 108 147 195 254 322 383 466
#
# _framework density 23.823266
#
# number of rings (size 3 to 8) (size 9 to 14) (size 15 to 20)
#    0.000    1.143    1.429    5.714    8.000    0.000 
#    0.000    0.000    0.000   10.286    0.000    0.000 
#    0.000    0.000    0.000    0.000    0.000    0.000 
#
# Total GULP energy -117127.205884 kJ/mol
# GULP energy per Si atom -5577.485994 kJ/mol
# Density = 2.376904 g / cm^3
# Si number density = 23.823266 Si / 1000 Ang^3
#
#
#
# Elastic Constant Matrix: (Units=GPa)
#
#
# Indices 1 2 3 4 5 6 
#
# 1 118.3130 37.8517 22.8988 -4.7007 -0.0033 -0.0012
# 2 37.8517 118.3156 22.9037 4.6992 -0.0002 0.0001
# 3 22.8988 22.9037 122.1415 -0.0031 -0.0063 -0.0024
# 4 -4.7007 4.6992 -0.0031 39.5410 -0.0021 -0.0009
# 5 -0.0033 -0.0002 -0.0063 -0.0021 39.5376 -4.7008
# 6 -0.0012 0.0001 -0.0024 -0.0009 -4.7008 40.2313
#
#
#
# Elastic Compliance Matrix: (Units=1/GPa)
#
#
# Indices 1 2 3 4 5 6 
#
# 1 0.009690 -0.002914 -0.001270 0.001498 0.000001 0.000000
# 2 -0.002914 0.009690 -0.001271 -0.001498 -0.000001 0.000000
# 3 -0.001270 -0.001271 0.008664 0.000001 0.000001 0.000001
# 4 0.001498 -0.001498 0.000001 0.025646 0.000002 0.000001
# 5 0.000001 -0.000001 0.000001 0.000002 0.025649 0.002997
# 6 0.000000 0.000000 0.000001 0.000001 0.002997 0.025206
#
#
# Mechanical properties :
#
#
# Convention : Reuss Voigt Hill
#
# Bulk Modulus (GPa) = 58.36415 58.45318 58.40866
# Shear Modulus (GPa) = 41.26615 42.20303 41.73459
#
# Velocity S-wave (km/s) = 4.16646 4.21349 4.19004
# Velocity P-wave (km/s) = 6.90636 6.94700 6.92671
#
# Compressibility (1/GPa) = 0.01713381
#
# Stress axis : x y z
#
# Youngs Moduli (GPa) = 103.20297 103.20369 115.42467
#
# Poissons Ratio (x) = 0.30069 0.14661
# Poissons Ratio (y) = 0.30069 0.14668
# Poissons Ratio (z) = 0.13109 0.13115
#
# Static dielectric constant tensor:
#      x y z
#    x 1.991920 0.000000 0.000000 
#    y 0.000000 1.991920 0.000000 
#    z 0.000000 0.000000 2.134050 
# 
# From -- ./inp_files/2025.got.cif
#   From: 2010.05.17/outbox.cif.g08.bks.cpg/sg155_2_cif.got.tgz:2025.got - 2010.05.20 10:44:35.
