data_PCOD9577607
_publ_section_title
;
Structure prediction by ZEFSAII (Michael W. Deem and Ramdas Pophale) SiO2 
 PCOD9577607
Probable space group: R 3 C
;
_chemical_formula_sum "Si O2"
_cell_formula_units_Z 72
_cell_length_a 18.804127
_cell_length_b 18.804127
_cell_length_c 8.865209
_cell_angle_alpha 90.000000
_cell_angle_beta 90.000000
_cell_angle_gamma 120.000000
_cell_volume 2714.725746
_symmetry_space_group_name_H-M "R 3 C"
_symmetry_group_IT_number 161
_symmetry_cell_setting 'hexagonal'
loop_
_space_group_symop_operation_xyz
x,y,z
-y,x-y,z
-x+y,-x,z
-x+y,y,1/2+z
x,x-y,1/2+z
-y,-x,1/2+z
2/3+x,1/3+y,1/3+z
2/3-y,1/3+x-y,1/3+z
2/3-x+y,1/3-x,1/3+z
2/3-x+y,1/3+y,5/6+z
2/3+x,1/3+x-y,5/6+z
2/3-y,1/3-x,5/6+z
1/3+x,2/3+y,2/3+z
1/3-y,2/3+x-y,2/3+z
1/3-x+y,2/3-x,2/3+z
1/3-x+y,2/3+y,1/6+z
1/3+x,2/3+x-y,1/6+z
1/3-y,2/3-x,1/6+z
loop_
_atom_site_type_symbol
_atom_site_label
_atom_site_fract_x
_atom_site_fract_y
_atom_site_fract_z
Si Si1 0.803786 0.488349 0.202752
Si Si2 0.905951 0.213450 0.905541
Si Si3 0.759892 0.682467 0.253148
Si Si4 0.319783 0.795406 0.389374
O O1 0.896981 0.551293 0.160961
O O2 0.737985 0.511026 0.144945
O O3 0.773441 0.404256 0.108622
O O4 0.801775 0.470327 0.379263
O O5 0.808692 0.162954 0.852237
O O6 0.934690 0.166877 0.791448
O O7 0.993662 0.300440 0.903394
O O8 0.901940 0.201597 0.085042
#
# Coordination Sequence:
#
# PCOD9577607 Si02
#       4
#    18  18  18  18
#     4  11  22  41  67 105 145 198 264 333 417 499
#     4  11  26  47  74 107 153 204 265 331 411 493
#     4  11  26  48  73 108 151 210 270 342 415 504
#     4  11  22  40  68 102 147 198 259 338 413 504
#
# _framework density 26.522017999999999
#
# number of rings (size 3 to 8) (size 9 to 14) (size 15 to 20)
#    0.000    1.000    0.000    9.500    0.000   10.000 
#    0.000    0.000    0.000    0.000    0.000    0.000 
#    0.000    0.000    0.000    0.000    0.000    0.000 
#
# Total GULP energy -133872.865927 kJ/mol
# GULP energy per Si atom -5578.036080 kJ/mol
# Density = 2.646165 g / cm^3
# Si number density = 26.522018 Si / 1000 Ang^3
#
#
#
# Elastic Constant Matrix: (Units=GPa)
#
#
# Indices 1 2 3 4 5 6 
#
# 1 70.9868 59.4286 11.1476 -1.0476 0.0001 -0.0001
# 2 59.4286 70.9868 11.1476 1.0476 0.0000 0.0001
# 3 11.1476 11.1476 202.7374 0.0000 0.0005 -0.0003
# 4 -1.0476 1.0476 0.0000 37.7727 0.0000 0.0000
# 5 0.0001 0.0000 0.0005 0.0000 37.7729 -1.0477
# 6 -0.0001 0.0001 -0.0003 0.0000 -1.0477 5.7791
#
#
#
# Elastic Compliance Matrix: (Units=1/GPa)
#
#
# Indices 1 2 3 4 5 6 
#
# 1 0.047348 -0.039608 -0.000426 0.002412 0.000000 0.000001
# 2 -0.039608 0.047348 -0.000426 -0.002412 0.000000 -0.000001
# 3 -0.000426 -0.000426 0.004979 0.000000 0.000000 0.000000
# 4 0.002412 -0.002412 0.000000 0.026608 0.000000 0.000000
# 5 0.000000 0.000000 0.000000 0.000000 0.026608 0.004824
# 6 0.000001 -0.000001 0.000000 0.000000 0.004824 0.173913
#
#
# Mechanical properties :
#
#
# Convention : Reuss Voigt Hill
#
# Bulk Modulus (GPa) = 53.31072 56.46207 54.88639
# Shear Modulus (GPa) = 12.07804 33.79741 22.93773
#
# Velocity S-wave (km/s) = 2.13632 3.57363 2.94403
# Velocity P-wave (km/s) = 5.12146 6.19376 5.68296
#
# Compressibility (1/GPa) = 0.01875795
#
# Stress axis : x y z
#
# Youngs Moduli (GPa) = 21.12013 21.12015 200.83167
#
# Poissons Ratio (x) = 0.83652 0.08548
# Poissons Ratio (y) = 0.83652 0.08548
# Poissons Ratio (z) = 0.00899 0.00899
#
# Static dielectric constant tensor:
#      x y z
#    x 2.503950 0.000000 0.000000 
#    y 0.000000 2.503950 0.000000 
#    z 0.000000 0.000000 1.956370 
# 
# From -- ./inp_files/233.got.cif
#   From: 2010.05.17/outbox.cif.g08.bks.cpg/sg161_cif.got.tgz:233.got - 2010.05.20 10:52:32.
