data_PCOD9577502
_publ_section_title
;
Structure prediction by ZEFSAII (Michael W. Deem and Ramdas Pophale) SiO2 
 PCOD9577502
Probable space group: R 3 M
;
_chemical_formula_sum "Si O2"
_cell_formula_units_Z 33
_cell_length_a 10.255678
_cell_length_b 10.255678
_cell_length_c 17.897027
_cell_angle_alpha 90.000000
_cell_angle_beta 90.000000
_cell_angle_gamma 120.000000
_cell_volume 1630.197709
_symmetry_space_group_name_H-M "R 3 M"
_symmetry_group_IT_number 160
_symmetry_cell_setting 'hexagonal'
loop_
_space_group_symop_operation_xyz
x,y,z
-y,x-y,z
-x+y,-x,z
-x+y,y,z
x,x-y,z
-y,-x,z
2/3+x,1/3+y,1/3+z
2/3-y,1/3+x-y,1/3+z
2/3-x+y,1/3-x,1/3+z
2/3-x+y,1/3+y,1/3+z
2/3+x,1/3+x-y,1/3+z
2/3-y,1/3-x,1/3+z
1/3+x,2/3+y,2/3+z
1/3-y,2/3+x-y,2/3+z
1/3-x+y,2/3-x,2/3+z
1/3-x+y,2/3+y,2/3+z
1/3+x,2/3+x-y,2/3+z
1/3-y,2/3-x,2/3+z
loop_
_atom_site_type_symbol
_atom_site_label
_atom_site_fract_x
_atom_site_fract_y
_atom_site_fract_z
Si Si1 0.096481 0.903520 0.333352
Si Si2 0.172525 0.827476 0.476394
Si Si3 0.000000 0.000000 0.069504
Si Si4 0.484510 0.515491 0.832332
Si Si5 0.000000 0.000000 0.888593
O O1 0.169340 0.830661 0.385508
O O2 0.112298 0.887703 0.246590
O O3 0.918689 0.837378 0.350543
O O4 0.250254 0.749747 0.519987
O O5 0.997119 0.739290 0.496167
O O6 0.084705 0.169409 0.103834
O O7 0.000000 0.000000 0.979061
#
# Coordination Sequence:
#
# PCOD9577502 Si02
#       5
#     9   9   3   9   3
#     4  10  21  45  73 103 128 190 250 275 329 446
#     4  12  27  44  70 105 144 177 232 291 360 404
#     4  12  27  48  75  96 148 191 244 270 354 444
#     4  12  24  47  75 102 133 198 233 289 338 437
#     4  12  33  42  63 120 151 170 217 327 375 375
#
# _framework density 20.242944999999999
#
# number of rings (size 3 to 8) (size 9 to 14) (size 15 to 20)
#    0.545    0.000    5.455    2.182    7.636    2.182 
#    0.000    0.000    0.000    0.000    0.000    0.000 
#    0.000    0.000    0.000    0.000    0.000    0.000 
#
# Total GULP energy -61402.881362 kJ/mol
# GULP energy per Si atom -5582.080124 kJ/mol
# Density = 2.019687 g / cm^3
# Si number density = 20.242945 Si / 1000 Ang^3
#
#
#
# Elastic Constant Matrix: (Units=GPa)
#
#
# Indices 1 2 3 4 5 6 
#
# 1 95.8938 169.2128 69.2853 -32.9324 -0.0049 0.0000
# 2 169.2128 95.8938 69.2853 32.9324 0.0049 0.0000
# 3 69.2853 69.2853 192.2792 0.0000 0.0000 0.0000
# 4 -32.9324 32.9324 0.0000 29.8890 0.0000 0.0049
# 5 -0.0049 0.0049 0.0000 0.0000 29.8890 -32.9324
# 6 0.0000 0.0000 0.0000 0.0049 -32.9324 -36.6595
#
#
#
# Elastic Compliance Matrix: (Units=1/GPa)
#
#
# Indices 1 2 3 4 5 6 
#
# 1 -0.001104 0.005751 -0.001675 -0.007552 -0.000001 0.000000
# 2 0.005751 -0.001104 -0.001675 0.007552 0.000001 0.000000
# 3 -0.001675 -0.001675 0.006408 0.000000 0.000000 0.000000
# 4 -0.007552 0.007552 0.000000 0.016814 0.000000 0.000002
# 5 -0.000001 0.000001 0.000000 0.000000 0.016814 -0.015105
# 6 0.000000 0.000000 0.000000 0.000002 -0.015105 -0.013709
#
#
# Mechanical properties :
#
#
# Convention : Reuss Voigt Hill
#
# Bulk Modulus (GPa) = 111.06291 111.07039 111.06665
# Shear Modulus (GPa) = 224.03324 9.70929 116.87127
#
# Velocity S-wave (km/s) = 10.53150 2.19244 7.60655
# Velocity P-wave (km/s) = 14.24315 7.83562 11.49488
#
# Compressibility (1/GPa) = 0.00900391
#
# Stress axis : x y z
#
# Youngs Moduli (GPa) = -906.17434 -906.17434 156.06396
#
# Poissons Ratio (x) = 5.21135 0.26135
# Poissons Ratio (y) = 5.21135 0.26135
# Poissons Ratio (z) = -1.51750 -1.51750
#
# Static dielectric constant tensor:
#      x y z
#    x 1.763030 0.000000 0.000000 
#    y 0.000000 1.763030 0.000000 
#    z 0.000000 0.000000 1.734690 
# 
# From -- ./inp_files/2452.got.cif
#   From: 2010.05.17/outbox.cif.g08.bks.cpg/sg160_2_cif.got.tgz:2452.got - 2010.05.20 10:51:19.
