data_PCOD9577095
_publ_section_title
;
Structure prediction by ZEFSAII (Michael W. Deem and Ramdas Pophale) SiO2 
 PCOD9577095
Probable space group: R 3 2
;
_chemical_formula_sum "Si O2"
_cell_formula_units_Z 63
_cell_length_a 19.377450
_cell_length_b 19.377450
_cell_length_c 8.380468
_cell_angle_alpha 90.000000
_cell_angle_beta 90.000000
_cell_angle_gamma 120.000000
_cell_volume 2725.160928
_symmetry_space_group_name_H-M "R 3 2"
_symmetry_group_IT_number 155
_symmetry_cell_setting 'hexagonal'
loop_
_space_group_symop_operation_xyz
x,y,z
-y,x-y,z
-x+y,-x,z
x-y,-y,-z
-x,-x+y,-z
y,x,-z
2/3+x,1/3+y,1/3+z
2/3-y,1/3+x-y,1/3+z
2/3-x+y,1/3-x,1/3+z
2/3+x-y,1/3-y,1/3-z
2/3-x,1/3-x+y,1/3-z
2/3+y,1/3+x,1/3-z
1/3+x,2/3+y,2/3+z
1/3-y,2/3+x-y,2/3+z
1/3-x+y,2/3-x,2/3+z
1/3+x-y,2/3-y,2/3-z
1/3-x,2/3-x+y,2/3-z
1/3+y,2/3+x,2/3-z
loop_
_atom_site_type_symbol
_atom_site_label
_atom_site_fract_x
_atom_site_fract_y
_atom_site_fract_z
Si Si1 0.207629 0.743450 0.911121
Si Si2 0.000000 0.910935 0.500000
Si Si3 0.294927 0.333334 0.833334
Si Si4 0.149466 0.482799 0.666667
Si Si5 0.903480 0.216747 0.489330
O O1 0.126502 0.717478 0.820288
O O2 0.284439 0.783596 0.797774
O O3 0.201787 0.670082 0.008555
O O4 0.216400 0.808020 0.045267
O O5 0.924957 0.924957 0.500000
O O6 0.333334 0.327427 0.666667
O O7 0.130069 0.398834 0.591468
O O8 0.867505 0.200838 0.666667
O O9 0.000000 0.269436 0.500000
#
# Coordination Sequence:
#
# PCOD9577095 Si02
#       5
#    18   9   9   9  18
#     4  12  25  48  74 109 146 193 253 305 373 445
#     4  10  27  48  72  99 146 202 254 294 354 453
#     4  12  29  52  78 107 150 200 252 308 370 453
#     4  12  22  40  72 116 144 182 238 316 388 426
#     4  12  21  35  69 108 150 185 227 310 378 435
#
# _framework density 23.117901
#
# number of rings (size 3 to 8) (size 9 to 14) (size 15 to 20)
#    0.286    0.000    7.143    1.714    0.000    5.714 
#    0.000    0.000    0.000    0.000    0.000    0.000 
#    0.000    0.000    0.000    0.000    0.000    0.000 
#
# Total GULP energy -117574.350277 kJ/mol
# GULP energy per Si atom -5598.778585 kJ/mol
# Density = 2.306528 g / cm^3
# Si number density = 23.117901 Si / 1000 Ang^3
#
#
#
# Elastic Constant Matrix: (Units=GPa)
#
#
# Indices 1 2 3 4 5 6 
#
# 1 35.3557 55.5823 37.7014 7.6369 0.0002 0.0002
# 2 55.5823 35.3555 37.7009 -7.6370 -0.0002 -0.0002
# 3 37.7014 37.7009 152.5302 -0.0002 0.0010 0.0003
# 4 7.6369 -7.6370 -0.0002 42.6834 0.0000 -0.0004
# 5 0.0002 -0.0002 0.0010 0.0000 42.6840 7.6370
# 6 0.0002 -0.0002 0.0003 -0.0004 7.6370 -10.1132
#
#
#
# Elastic Compliance Matrix: (Units=1/GPa)
#
#
# Indices 1 2 3 4 5 6 
#
# 1 -0.014862 0.028693 -0.003419 0.007793 0.000000 -0.000001
# 2 0.028693 -0.014862 -0.003419 -0.007793 0.000000 0.000001
# 3 -0.003419 -0.003419 0.008246 0.000000 0.000000 0.000000
# 4 0.007793 -0.007793 0.000000 0.020640 0.000000 0.000000
# 5 0.000000 0.000000 0.000000 0.000000 0.020639 0.015586
# 6 -0.000001 0.000001 0.000000 0.000000 0.015586 -0.087111
#
#
# Mechanical properties :
#
#
# Convention : Reuss Voigt Hill
#
# Bulk Modulus (GPa) = 44.97677 53.91230 49.44453
# Shear Modulus (GPa) = -48.25806 21.20128 -13.52839
#
# Velocity S-wave (km/s) = -4.57385 3.03164 -2.42170
# Velocity P-wave (km/s) = 2.89755 5.96872 3.68984
#
# Compressibility (1/GPa) = 0.02223370
#
# Stress axis : x y z
#
# Youngs Moduli (GPa) = -67.28631 -67.28649 121.26977
#
# Poissons Ratio (x) = 1.93065 0.41457
# Poissons Ratio (y) = 1.93065 0.41459
# Poissons Ratio (z) = -0.23002 -0.23004
#
# Static dielectric constant tensor:
#      x y z
#    x 1.846690 0.000000 0.000000 
#    y 0.000000 1.846690 0.000000 
#    z 0.000000 0.000000 1.960160 
# 
# From -- ./inp_files/2062.got.cif
#   From: 2010.05.17/outbox.cif.g08.bks.cpg/sg155_2_cif.got.tgz:2062.got - 2010.05.20 10:44:35.
