data_PCOD9577099
_publ_section_title
;
Structure prediction by ZEFSAII (Michael W. Deem and Ramdas Pophale) SiO2 
 PCOD9577099
Probable space group: R 3 2
;
_chemical_formula_sum "Si O2"
_cell_formula_units_Z 108
_cell_length_a 18.563321
_cell_length_b 18.563321
_cell_length_c 18.893256
_cell_angle_alpha 90.000000
_cell_angle_beta 90.000000
_cell_angle_gamma 120.000000
_cell_volume 5638.307923
_symmetry_space_group_name_H-M "R 3 2"
_symmetry_group_IT_number 155
_symmetry_cell_setting 'hexagonal'
loop_
_space_group_symop_operation_xyz
x,y,z
-y,x-y,z
-x+y,-x,z
x-y,-y,-z
-x,-x+y,-z
y,x,-z
2/3+x,1/3+y,1/3+z
2/3-y,1/3+x-y,1/3+z
2/3-x+y,1/3-x,1/3+z
2/3+x-y,1/3-y,1/3-z
2/3-x,1/3-x+y,1/3-z
2/3+y,1/3+x,1/3-z
1/3+x,2/3+y,2/3+z
1/3-y,2/3+x-y,2/3+z
1/3-x+y,2/3-x,2/3+z
1/3+x-y,2/3-y,2/3-z
1/3-x,2/3-x+y,2/3-z
1/3+y,2/3+x,2/3-z
loop_
_atom_site_type_symbol
_atom_site_label
_atom_site_fract_x
_atom_site_fract_y
_atom_site_fract_z
Si Si1 0.248899 0.232286 0.271641
Si Si2 0.677031 0.110334 0.229923
Si Si3 0.177382 0.893996 0.121983
Si Si4 0.248473 0.857186 0.762536
Si Si5 0.507296 0.078143 0.043219
Si Si6 0.584310 0.745537 0.011595
O O1 0.344556 0.306194 0.260793
O O2 0.229073 0.210556 0.188507
O O3 0.177192 0.246997 0.302474
O O4 0.243379 0.156582 0.316526
O O5 0.581948 0.084158 0.242618
O O6 0.759195 0.193943 0.255014
O O7 0.175028 0.897995 0.207107
O O8 0.210685 0.988944 0.102399
O O9 0.235860 0.859406 0.090446
O O10 0.211210 0.877877 0.833334
O O11 0.238400 0.911384 0.702480
O O12 0.494286 0.152470 0.013071
O O13 0.440232 0.000000 0.000000
#
# Coordination Sequence:
#
# PCOD9577099 Si02
#       6
#    18  18  18  18  18  18
#     4   9  19  37  58  83 117 159 193 247 304 348
#     4   9  18  37  59  83 119 159 198 241 296 361
#     4  11  23  35  61  92 115 158 205 240 304 366
#     4  11  18  37  60  85 123 155 191 248 302 350
#     4  11  23  37  59  86 118 152 203 253 296 356
#     4  11  22  38  61  87 118 158 198 252 303 358
#
# _framework density 19.154682000000001
#
# number of rings (size 3 to 8) (size 9 to 14) (size 15 to 20)
#    0.000    1.667    5.000    1.500    2.333    2.000 
#    2.000    0.000    0.000    0.000    0.000    0.000 
#    0.000    0.000    0.000    0.000    0.000    0.000 
#
# Total GULP energy -200444.832863 kJ/mol
# GULP energy per Si atom -5567.912024 kJ/mol
# Density = 1.911109 g / cm^3
# Si number density = 19.154682 Si / 1000 Ang^3
#
#
#
# Elastic Constant Matrix: (Units=GPa)
#
#
# Indices 1 2 3 4 5 6 
#
# 1 109.4204 59.5560 27.2156 -2.7500 0.0000 0.0000
# 2 59.5560 109.4204 27.2156 2.7500 0.0000 0.0000
# 3 27.2156 27.2156 53.6473 0.0000 0.0000 0.0000
# 4 -2.7500 2.7500 0.0000 22.2373 0.0000 0.0000
# 5 0.0000 0.0000 0.0000 0.0000 22.2373 -2.7500
# 6 0.0000 0.0000 0.0000 0.0000 -2.7500 24.9322
#
#
#
# Elastic Compliance Matrix: (Units=1/GPa)
#
#
# Indices 1 2 3 4 5 6 
#
# 1 0.013703 -0.006629 -0.003589 0.002514 0.000000 0.000000
# 2 -0.006629 0.013703 -0.003589 -0.002514 0.000000 0.000000
# 3 -0.003589 -0.003589 0.022281 0.000000 0.000000 0.000000
# 4 0.002514 -0.002514 0.000000 0.045591 0.000000 0.000000
# 5 0.000000 0.000000 0.000000 0.000000 0.045591 0.005029
# 6 0.000000 0.000000 0.000000 0.000000 0.005029 0.040663
#
#
# Mechanical properties :
#
#
# Convention : Reuss Voigt Hill
#
# Bulk Modulus (GPa) = 45.30084 55.60694 50.45389
# Shear Modulus (GPa) = 23.09430 24.44811 23.77121
#
# Velocity S-wave (km/s) = 3.47605 3.57648 3.52662
# Velocity P-wave (km/s) = 6.30967 6.79327 6.55593
#
# Compressibility (1/GPa) = 0.02207465
#
# Stress axis : x y z
#
# Youngs Moduli (GPa) = 72.97754 72.97754 44.88057
#
# Poissons Ratio (x) = 0.48376 0.16106
# Poissons Ratio (y) = 0.48376 0.16106
# Poissons Ratio (z) = 0.26189 0.26189
#
# Static dielectric constant tensor:
#      x y z
#    x 1.696080 0.000000 0.000000 
#    y 0.000000 1.696080 0.000000 
#    z 0.000000 0.000000 1.781770 
# 
# From -- ./inp_files/6984.got.cif
#   From: 2010.05.17/outbox.cif.g08.bks.cpg/sg155_4_cif.got.tgz:6984.got - 2010.05.20 10:44:35.
