data_PCOD9577339
_publ_section_title
;
Structure prediction by ZEFSAII (Michael W. Deem and Ramdas Pophale) SiO2 
 PCOD9577339
Probable space group: P 3 C 1
;
_chemical_formula_sum "Si O2"
_cell_formula_units_Z 40
_cell_length_a 11.332766
_cell_length_b 11.332766
_cell_length_c 16.211086
_cell_angle_alpha 90.000000
_cell_angle_beta 90.000000
_cell_angle_gamma 120.000000
_cell_volume 1803.078291
_symmetry_space_group_name_H-M "P 3 C 1"
_symmetry_group_IT_number 158
_symmetry_cell_setting 'hexagonal'
loop_
_space_group_symop_operation_xyz
x,y,z
-y,x-y,z
-x+y,-x,z
-x+y,y,1/2+z
x,x-y,1/2+z
-y,-x,1/2+z
loop_
_atom_site_type_symbol
_atom_site_label
_atom_site_fract_x
_atom_site_fract_y
_atom_site_fract_z
Si Si1 0.076647 0.618706 0.733140
Si Si2 0.359120 0.158002 0.298553
Si Si3 0.713762 0.961243 0.484505
Si Si4 0.666668 0.333335 0.611558
Si Si5 0.501937 0.013362 0.566535
Si Si6 0.296442 0.383337 0.296920
Si Si7 0.666668 0.333334 0.810961
Si Si8 0.761385 0.728496 0.472570
O O1 0.073257 0.518165 0.804221
O O2 0.198054 0.771025 0.750751
O O3 0.939045 0.626621 0.733050
O O4 0.065293 0.526869 0.654102
O O5 0.308685 0.256132 0.260762
O O6 0.509365 0.258217 0.336685
O O7 0.273265 0.057645 0.373488
O O8 0.673424 0.922883 0.388961
O O9 0.776053 0.867073 0.507031
O O10 0.581081 0.943153 0.527705
O O11 0.824746 0.116290 0.502839
O O12 0.593768 0.176267 0.582231
O O13 0.666668 0.333334 0.711298
O O14 0.385468 0.001247 0.505635
#
# Coordination Sequence:
#
# PCOD9577339 Si02
#       8
#     6   6   6   2   6   6   2   6
#     4  12  25  46  69 101 142 187 230 297 354 423
#     4  11  22  42  75 101 136 178 240 292 351 420
#     4  11  25  45  72 100 139 188 228 297 357 424
#     4  12  21  43  68 106 138 172 236 307 360 412
#     4  12  26  43  71 100 142 187 231 295 357 429
#     4  11  25  45  71 101 137 184 238 295 349 423
#     4  12  21  40  77 106 129 181 239 307 357 409
#     4  11  25  46  69 105 141 181 240 288 359 430
#
# _framework density 22.184283000000001
#
# number of rings (size 3 to 8) (size 9 to 14) (size 15 to 20)
#    0.000    0.600    6.000    1.500    4.200    0.000 
#    1.800    0.000    0.000    0.000    0.000    0.000 
#    0.000    0.000    0.000    0.000    0.000    0.000 
#
# Total GULP energy -223198.838537 kJ/mol
# GULP energy per Si atom -5579.970963 kJ/mol
# Density = 2.213379 g / cm^3
# Si number density = 22.184283 Si / 1000 Ang^3
#
#
#
# Elastic Constant Matrix: (Units=GPa)
#
#
# Indices 1 2 3 4 5 6 
#
# 1 80.8802 25.4829 15.5920 0.1604 0.0000 0.0000
# 2 25.4829 80.8801 15.5918 -0.1601 0.0000 0.0000
# 3 15.5920 15.5918 25.7046 0.0002 0.0000 0.0000
# 4 0.1604 -0.1601 0.0002 20.0950 0.0000 0.0000
# 5 0.0000 0.0000 0.0000 0.0000 20.0950 0.1600
# 6 0.0000 0.0000 0.0000 0.0000 0.1600 27.6987
#
#
#
# Elastic Compliance Matrix: (Units=1/GPa)
#
#
# Indices 1 2 3 4 5 6 
#
# 1 0.014744 -0.003308 -0.006937 -0.000144 0.000000 0.000000
# 2 -0.003308 0.014744 -0.006936 0.000144 0.000000 0.000000
# 3 -0.006937 -0.006936 0.047319 0.000000 0.000000 0.000000
# 4 -0.000144 0.000144 0.000000 0.049766 0.000000 0.000000
# 5 0.000000 0.000000 0.000000 0.000000 0.049766 -0.000287
# 6 0.000000 0.000000 0.000000 0.000000 -0.000287 0.036104
#
#
# Mechanical properties :
#
#
# Convention : Reuss Voigt Hill
#
# Bulk Modulus (GPa) = 23.56074 33.42204 28.49139
# Shear Modulus (GPa) = 19.16049 22.29760 20.72905
#
# Velocity S-wave (km/s) = 2.94206 3.17378 3.06012
# Velocity P-wave (km/s) = 4.71004 5.34124 5.03554
#
# Compressibility (1/GPa) = 0.04244350
#
# Stress axis : x y z
#
# Youngs Moduli (GPa) = 67.82489 67.82499 21.13328
#
# Poissons Ratio (x) = 0.22439 0.14659
# Poissons Ratio (y) = 0.22439 0.14659
# Poissons Ratio (z) = 0.47047 0.47047
#
# Static dielectric constant tensor:
#      x y z
#    x 1.876380 0.000000 0.000000 
#    y 0.000000 1.876380 0.000000 
#    z 0.000000 0.000000 1.875710 
# 
# From -- ./inp_files/667.got.cif
#   From: 2010.05.17/outbox.cif.g08.bks.cpg/sg158_cif.got.tgz:667.got - 2010.05.20 10:49:59.
