data_PCOD9577982
_publ_section_title
;
Structure prediction by ZEFSAII (Michael W. Deem and Ramdas Pophale) SiO2 
 PCOD9577982
Probable space group: P -3 1 C
;
_chemical_formula_sum "Si O2"
_cell_formula_units_Z 72
_cell_length_a 22.874260
_cell_length_b 22.874260
_cell_length_c 8.852049
_cell_angle_alpha 90.000000
_cell_angle_beta 90.000000
_cell_angle_gamma 120.000000
_cell_volume 4011.146715
_symmetry_space_group_name_H-M "P -3 1 C"
_symmetry_group_IT_number 163
_symmetry_cell_setting 'hexagonal'
loop_
_space_group_symop_operation_xyz
x,y,z
-y,x-y,z
-x+y,-x,z
-y,-x,1/2-z
-x+y,y,1/2-z
x,x-y,1/2-z
-x,-y,-z
y,-x+y,-z
x-y,x,-z
y,x,1/2+z
x-y,-y,1/2+z
-x,-x+y,1/2+z
loop_
_atom_site_type_symbol
_atom_site_label
_atom_site_fract_x
_atom_site_fract_y
_atom_site_fract_z
Si Si1 0.587782 0.966884 0.406888
Si Si2 0.380431 0.249860 0.336718
Si Si3 0.208844 0.978824 0.765934
Si Si4 0.481156 0.396177 0.208278
Si Si5 0.968268 0.850958 0.988211
Si Si6 0.932536 0.286998 0.874641
O O1 0.530361 0.924671 0.528667
O O2 0.610183 0.929088 0.285218
O O3 0.571044 0.014485 0.303216
O O4 0.651352 0.013405 0.518018
O O5 0.387006 0.193503 0.250000
O O6 0.304527 0.234702 0.299086
O O7 0.438216 0.320263 0.269202
O O8 0.384693 0.252003 0.518515
O O9 0.181554 0.012504 0.648798
O O10 0.275501 0.038027 0.845821
O O11 0.148429 0.941272 0.885090
O O12 0.559261 0.440740 0.250000
O O13 0.914633 0.875079 0.958611
#
# Coordination Sequence:
#
# PCOD9577982 Si02
#       6
#    12  12  12  12  12  12
#     4   9  16  31  52  79 111 144 169 209 273 333
#     4  11  22  37  55  79 115 147 184 233 286 338
#     4  12  21  38  58  78 101 136 188 233 304 360
#     4  10  19  32  54  82 113 146 179 212 265 332
#     4  12  26  42  56  74  99 140 192 252 304 361
#     4  10  17  34  55  78 113 139 173 226 285 350
#
# _framework density 17.949978999999999
#
# number of rings (size 3 to 8) (size 9 to 14) (size 15 to 20)
#    0.000    1.333    6.667    2.667    0.000    0.000 
#    0.000    2.500    0.000    0.333    0.000    0.000 
#    0.000    0.000    0.000    9.167    0.000    0.000 
#
# Total GULP energy -401444.947264 kJ/mol
# GULP energy per Si atom -5575.624268 kJ/mol
# Density = 1.790912 g / cm^3
# Si number density = 17.949979 Si / 1000 Ang^3
#
#
#
# Elastic Constant Matrix: (Units=GPa)
#
#
# Indices 1 2 3 4 5 6 
#
# 1 70.5878 39.8675 32.8516 0.0000 1.4125 0.0000
# 2 39.8675 70.5878 32.8516 0.0000 -1.4125 0.0000
# 3 32.8516 32.8516 121.7520 0.0000 0.0000 0.0000
# 4 0.0000 0.0000 0.0000 22.8714 0.0000 -1.4125
# 5 1.4125 -1.4125 0.0000 0.0000 22.8714 0.0000
# 6 0.0000 0.0000 0.0000 -1.4125 0.0000 15.3601
#
#
#
# Elastic Compliance Matrix: (Units=1/GPa)
#
#
# Indices 1 2 3 4 5 6 
#
# 1 0.021761 -0.010977 -0.002910 0.000000 -0.002022 0.000000
# 2 -0.010977 0.021761 -0.002910 0.000000 0.002022 0.000000
# 3 -0.002910 -0.002910 0.009784 0.000000 0.000000 0.000000
# 4 0.000000 0.000000 0.000000 0.043973 0.000000 0.004044
# 5 -0.002022 0.002022 0.000000 0.000000 0.043973 0.000000
# 6 0.000000 0.000000 0.000000 0.004044 0.000000 0.065476
#
#
# Mechanical properties :
#
#
# Convention : Reuss Voigt Hill
#
# Bulk Modulus (GPa) = 50.72814 52.67432 51.70123
# Shear Modulus (GPa) = 20.25191 22.71103 21.48147
#
# Velocity S-wave (km/s) = 3.36257 3.56088 3.46315
# Velocity P-wave (km/s) = 6.58772 6.80553 6.69751
#
# Compressibility (1/GPa) = 0.01971292
#
# Stress axis : x y z
#
# Youngs Moduli (GPa) = 45.95363 45.95363 102.21060
#
# Poissons Ratio (x) = 0.50442 0.29742
# Poissons Ratio (y) = 0.50442 0.29742
# Poissons Ratio (z) = 0.13372 0.13372
#
# Static dielectric constant tensor:
#      x y z
#    x 1.630800 0.000000 0.000000 
#    y 0.000000 1.630800 0.000000 
#    z 0.000000 0.000000 1.687660 
# 
# From -- ./inp_files/1217.got.cif
#   From: 2010.05.17/outbox.cif.g08.bks.cpg/sg163_1_cif.got.tgz:1217.got - 2010.05.20 10:56:03.
