data_PCOD9577328
_publ_section_title
;
Structure prediction by ZEFSAII (Michael W. Deem and Ramdas Pophale) SiO2 
 PCOD9577328
Probable space group: P 3 C 1
;
_chemical_formula_sum "Si O2"
_cell_formula_units_Z 36
_cell_length_a 8.678972
_cell_length_b 8.678972
_cell_length_c 26.791856
_cell_angle_alpha 90.000000
_cell_angle_beta 90.000000
_cell_angle_gamma 120.000000
_cell_volume 1747.712557
_symmetry_space_group_name_H-M "P 3 C 1"
_symmetry_group_IT_number 158
_symmetry_cell_setting 'hexagonal'
loop_
_space_group_symop_operation_xyz
x,y,z
-y,x-y,z
-x+y,-x,z
-x+y,y,1/2+z
x,x-y,1/2+z
-y,-x,1/2+z
loop_
_atom_site_type_symbol
_atom_site_label
_atom_site_fract_x
_atom_site_fract_y
_atom_site_fract_z
Si Si1 0.339789 0.032429 0.682630
Si Si2 0.866834 0.768382 0.579635
Si Si3 0.022519 0.353273 0.220870
Si Si4 0.019939 0.355852 0.335104
Si Si5 0.765118 0.200167 0.476339
Si Si6 0.326878 0.300904 0.373344
O O1 0.346213 0.115692 0.628133
O O2 0.367890 0.189516 0.719628
O O3 0.150926 0.859582 0.695659
O O4 0.486482 0.975533 0.690770
O O5 0.833334 0.666667 0.527987
O O6 0.808905 0.919204 0.581670
O O7 0.077114 0.410448 0.277987
O O8 0.180185 0.357802 0.365204
O O9 0.856183 0.154958 0.336347
O O10 0.958009 0.484259 0.360315
O O11 0.857762 0.414129 0.474304
O O12 0.782359 0.102812 0.427841
#
# Coordination Sequence:
#
# PCOD9577328 Si02
#       6
#     6   6   6   6   6   6
#     4  12  25  45  67 102 141 180 234 292 345 425
#     4  10  23  43  69  99 134 174 230 289 353 417
#     4  12  24  42  68  98 137 183 230 281 350 418
#     4  12  24  42  68  98 137 183 230 281 350 418
#     4  10  23  43  69  99 134 174 230 289 353 417
#     4  12  25  45  67 102 141 180 234 292 345 425
#
# _framework density 20.598351999999998
#
# number of rings (size 3 to 8) (size 9 to 14) (size 15 to 20)
#    0.667    0.000    3.333    5.000    4.667    0.000 
#    0.000    0.000    0.000    2.667    0.000    0.000 
#    0.000    0.000    0.000    0.000    0.000    0.000 
#
# Total GULP energy -200915.149240 kJ/mol
# GULP energy per Si atom -5580.976368 kJ/mol
# Density = 2.055147 g / cm^3
# Si number density = 20.598352 Si / 1000 Ang^3
#
#
#
# Elastic Constant Matrix: (Units=GPa)
#
#
# Indices 1 2 3 4 5 6 
#
# 1 62.1380 -8.3044 22.8571 -1.8643 0.0000 0.0000
# 2 -8.3044 62.1380 22.8571 1.8643 0.0000 0.0000
# 3 22.8571 22.8571 185.4930 0.0000 0.0000 0.0000
# 4 -1.8643 1.8643 0.0000 30.5129 0.0000 0.0000
# 5 0.0000 0.0000 0.0000 0.0000 30.5129 -1.8643
# 6 0.0000 0.0000 0.0000 0.0000 -1.8643 35.2212
#
#
#
# Elastic Compliance Matrix: (Units=1/GPa)
#
#
# Indices 1 2 3 4 5 6 
#
# 1 0.017494 0.003252 -0.002556 0.000870 0.000000 0.000000
# 2 0.003252 0.017494 -0.002556 -0.000870 0.000000 0.000000
# 3 -0.002556 -0.002556 0.006021 0.000000 0.000000 0.000000
# 4 0.000870 -0.000870 0.000000 0.032879 0.000000 0.000000
# 5 0.000000 0.000000 0.000000 0.000000 0.032879 0.001740
# 6 0.000000 0.000000 0.000000 0.000000 0.001740 0.028484
#
#
# Mechanical properties :
#
#
# Convention : Reuss Voigt Hill
#
# Bulk Modulus (GPa) = 26.81796 42.73209 34.77502
# Shear Modulus (GPa) = 33.02436 37.40668 35.21552
#
# Velocity S-wave (km/s) = 4.00841 4.26608 4.13925
# Velocity P-wave (km/s) = 5.87119 6.71240 6.30584
#
# Compressibility (1/GPa) = 0.03728845
#
# Stress axis : x y z
#
# Youngs Moduli (GPa) = 57.16132 57.16132 166.08322
#
# Poissons Ratio (x) = -0.18591 0.42459
# Poissons Ratio (y) = -0.18591 0.42459
# Poissons Ratio (z) = 0.14613 0.14613
#
# Static dielectric constant tensor:
#      x y z
#    x 1.745110 0.000000 0.000000 
#    y 0.000000 1.745110 0.000000 
#    z 0.000000 0.000000 1.778930 
# 
# From -- ./inp_files/763.got.cif
#   From: 2010.05.17/outbox.cif.g08.bks.cpg/sg158_cif.got.tgz:763.got - 2010.05.20 10:49:59.
