data_PCOD9577443
_publ_section_title
;
Structure prediction by ZEFSAII (Michael W. Deem and Ramdas Pophale) SiO2 
 PCOD9577443
Probable space group: P 3 1 C
;
_chemical_formula_sum "Si O2"
_cell_formula_units_Z 34
_cell_length_a 13.627306
_cell_length_b 13.627306
_cell_length_c 9.745973
_cell_angle_alpha 90.000000
_cell_angle_beta 90.000000
_cell_angle_gamma 120.000000
_cell_volume 1567.385597
_symmetry_space_group_name_H-M "P 3 1 C"
_symmetry_group_IT_number 159
_symmetry_cell_setting 'hexagonal'
loop_
_space_group_symop_operation_xyz
x,y,z
-y,x-y,z
-x+y,-x,z
y,x,1/2+z
x-y,-y,1/2+z
-x,-x+y,1/2+z
loop_
_atom_site_type_symbol
_atom_site_label
_atom_site_fract_x
_atom_site_fract_y
_atom_site_fract_z
Si Si1 0.891014 0.242042 0.103750
Si Si2 0.333334 0.666668 0.799013
Si Si3 0.941990 0.658689 0.893687
Si Si4 0.757570 0.627703 0.669493
Si Si5 0.574181 0.483304 0.888944
Si Si6 0.333334 0.666668 0.471505
Si Si7 0.191737 0.764135 0.880215
O O1 0.842773 0.251951 0.248834
O O2 0.013647 0.256717 0.133492
O O3 0.794632 0.131250 0.022658
O O4 0.917898 0.350492 0.009468
O O5 0.333334 0.666667 0.634162
O O6 0.220330 0.664356 0.851230
O O7 0.863249 0.646795 0.763720
O O8 0.977553 0.560239 0.897271
O O9 0.070243 0.759589 0.882424
O O10 0.641760 0.547610 0.753448
O O11 0.757557 0.569674 0.528292
O O12 0.583662 0.371263 0.911637
#
# Coordination Sequence:
#
# PCOD9577443 Si02
#       7
#     6   2   6   6   6   2   6
#     4  11  24  45  68  93 139 188 232 278 349 408
#     4  12  27  37  62 112 147 181 224 289 339 427
#     4  11  25  45  70  94 142 187 228 280 356 411
#     4  11  26  41  68 100 134 182 239 288 330 411
#     4  11  22  41  64  93 137 193 219 266 350 423
#     4  12  18  43  62  88 147 190 218 265 345 418
#     4  12  26  42  66 104 140 175 234 290 341 414
#
# _framework density 21.692174000000001
#
# number of rings (size 3 to 8) (size 9 to 14) (size 15 to 20)
#    0.000    0.706    5.294    3.176    7.412    0.000 
#    0.000    0.000    0.000   14.118    0.000    0.000 
#    0.000    0.000    0.000    0.000    0.000    0.000 
#
# Total GULP energy -189519.517502 kJ/mol
# GULP energy per Si atom -5574.103456 kJ/mol
# Density = 2.164280 g / cm^3
# Si number density = 21.692174 Si / 1000 Ang^3
#
#
#
# Elastic Constant Matrix: (Units=GPa)
#
#
# Indices 1 2 3 4 5 6 
#
# 1 70.8634 24.5161 21.4440 0.0007 -7.3827 -0.0011
# 2 24.5161 70.8646 21.4438 -0.0001 7.3831 0.0021
# 3 21.4440 21.4438 150.4822 -0.0007 -0.0004 -0.0002
# 4 0.0007 -0.0001 -0.0007 13.5202 0.0002 7.3825
# 5 -7.3827 7.3831 -0.0004 0.0002 13.5200 -0.0004
# 6 -0.0011 0.0021 -0.0002 7.3825 -0.0004 23.1758
#
#
#
# Elastic Compliance Matrix: (Units=1/GPa)
#
#
# Indices 1 2 3 4 5 6 
#
# 1 0.018661 -0.007459 -0.001596 -0.000003 0.014263 0.000003
# 2 -0.007459 0.018661 -0.001596 0.000002 -0.014264 -0.000003
# 3 -0.001596 -0.001596 0.007100 0.000000 0.000000 0.000000
# 4 -0.000003 0.000002 0.000000 0.089537 -0.000005 -0.028521
# 5 0.014263 -0.014264 0.000000 -0.000005 0.089542 0.000005
# 6 0.000003 -0.000003 0.000000 -0.028521 0.000005 0.052234
#
#
# Mechanical properties :
#
#
# Convention : Reuss Voigt Hill
#
# Bulk Modulus (GPa) = 43.25393 47.44644 45.35019
# Shear Modulus (GPa) = 16.40712 25.03029 20.71871
#
# Velocity S-wave (km/s) = 2.75319 3.40057 3.09386
# Velocity P-wave (km/s) = 5.48542 6.11053 5.80640
#
# Compressibility (1/GPa) = 0.02311928
#
# Stress axis : x y z
#
# Youngs Moduli (GPa) = 53.58700 53.58755 140.83999
#
# Poissons Ratio (x) = 0.39971 0.22482
# Poissons Ratio (y) = 0.39971 0.22483
# Poissons Ratio (z) = 0.08554 0.08554
#
# Static dielectric constant tensor:
#      x y z
#    x 1.845890 0.000000 0.000000 
#    y 0.000000 1.845880 0.000000 
#    z 0.000000 0.000000 1.769320 
# 
# From -- ./inp_files/403.got.cif
#   From: 2010.05.17/outbox.cif.g08.bks.cpg/sg159_cif.got.tgz:403.got - 2010.05.20 10:50:30.
