data_PCOD9577857
_publ_section_title
;
Structure prediction by ZEFSAII (Michael W. Deem and Ramdas Pophale) SiO2 
 PCOD9577857
Probable space group: P -3 1 M 
;
_chemical_formula_sum "Si O2"
_cell_formula_units_Z 70
_cell_length_a 14.579097
_cell_length_b 14.579097
_cell_length_c 18.497177
_cell_angle_alpha 90.000000
_cell_angle_beta 90.000000
_cell_angle_gamma 120.000000
_cell_volume 3404.844913
_symmetry_space_group_name_H-M "P -3 1 M "
_symmetry_group_IT_number 162
_symmetry_cell_setting 'hexagonal'
loop_
_space_group_symop_operation_xyz
x,y,z
-y,x-y,z
-x+y,-x,z
-y,-x,-z
-x+y,y,-z
x,x-y,-z
-x,-y,-z
y,-x+y,-z
x-y,x,-z
y,x,z
x-y,-y,z
-x,-x+y,z
loop_
_atom_site_type_symbol
_atom_site_label
_atom_site_fract_x
_atom_site_fract_y
_atom_site_fract_z
Si Si1 0.122995 0.780828 0.282438
Si Si2 0.877248 0.126249 0.423066
Si Si3 0.666668 0.333335 0.413326
Si Si4 0.203461 0.788918 0.872317
Si Si5 0.556361 0.122609 0.676376
Si Si6 0.125246 0.250491 0.000000
Si Si7 0.556536 0.434475 0.838705
O O1 0.172431 0.860003 0.349591
O O2 0.180677 0.820028 0.206539
O O3 0.121937 0.675254 0.309105
O O4 0.000000 0.746217 0.270723
O O5 0.845081 0.154920 0.500000
O O6 0.000000 0.161876 0.429431
O O7 0.806094 0.000000 0.416160
O O8 0.666668 0.333334 0.500000
O O9 0.785232 0.376597 0.380837
O O10 0.180255 0.852581 0.932053
O O11 0.135731 0.663565 0.884889
O O12 0.325094 0.815876 0.868063
O O13 0.608163 0.154769 0.756377
O O14 0.522032 0.000000 0.658921
O O15 0.178860 0.178860 0.987583
O O16 0.524163 0.524163 0.833540
#
# Coordination Sequence:
#
# PCOD9577857 Si02
#       7
#    12  12   4  12  12   6  12
#     4   9  18  34  55  78 110 153 197 239 294 360
#     4   9  17  29  47  73 106 147 200 264 324 368
#     4  12  24  36  54  81 114 157 200 235 288 360
#     4  11  22  40  64  92 125 158 194 244 294 350
#     4   9  19  37  58  81 113 149 189 243 296 347
#     4  12  27  46  66  90 126 168 205 240 282 336
#     4  10  20  37  64  92 114 146 194 244 301 354
#
# _framework density 20.558941000000001
#
# number of rings (size 3 to 8) (size 9 to 14) (size 15 to 20)
#    0.000    2.057    0.000    5.743    0.000    3.771 
#    0.000    2.571    0.000    2.057    0.000    0.000 
#    0.000    0.000    0.000    0.514    0.000    0.171 
#
# Total GULP energy -390659.746092 kJ/mol
# GULP energy per Si atom -5580.853516 kJ/mol
# Density = 2.051215 g / cm^3
# Si number density = 20.558941 Si / 1000 Ang^3
#
#
#
# Elastic Constant Matrix: (Units=GPa)
#
#
# Indices 1 2 3 4 5 6 
#
# 1 63.3837 19.5392 34.8538 0.0000 8.0666 -0.0001
# 2 19.5392 63.3835 34.8536 -0.0001 -8.0666 -0.0002
# 3 34.8538 34.8536 86.8874 0.0000 0.0000 -0.0002
# 4 0.0000 -0.0001 0.0000 19.1801 -0.0001 -8.0668
# 5 8.0666 -8.0666 0.0000 -0.0001 19.1803 -0.0001
# 6 -0.0001 -0.0002 -0.0002 -8.0668 -0.0001 21.9221
#
#
#
# Elastic Compliance Matrix: (Units=1/GPa)
#
#
# Indices 1 2 3 4 5 6 
#
# 1 0.022589 -0.004394 -0.007299 0.000000 -0.011349 0.000000
# 2 -0.004394 0.022589 -0.007299 0.000000 0.011349 0.000000
# 3 -0.007299 -0.007299 0.017365 0.000000 0.000000 0.000000
# 4 0.000000 0.000000 0.000000 0.061684 0.000001 0.022698
# 5 -0.011349 0.011349 0.000000 0.000001 0.061682 0.000000
# 6 0.000000 0.000000 0.000000 0.022698 0.000000 0.053968
#
#
# Mechanical properties :
#
#
# Convention : Reuss Voigt Hill
#
# Bulk Modulus (GPa) = 40.71686 43.57199 42.14442
# Shear Modulus (GPa) = 17.47960 20.35037 18.91498
#
# Velocity S-wave (km/s) = 2.91901 3.14961 3.03650
# Velocity P-wave (km/s) = 5.58648 5.87081 5.73041
#
# Compressibility (1/GPa) = 0.02455985
#
# Stress axis : x y z
#
# Youngs Moduli (GPa) = 44.26871 44.26870 57.58827
#
# Poissons Ratio (x) = 0.19454 0.42032
# Poissons Ratio (y) = 0.19454 0.42031
# Poissons Ratio (z) = 0.32310 0.32310
#
# Static dielectric constant tensor:
#      x y z
#    x 1.738020 0.000000 0.000000 
#    y 0.000000 1.738020 0.000000 
#    z 0.000000 0.000000 1.760950 
# 
# From -- ./inp_files/3557.got.cif
#   From: 2010.05.17/outbox.cif.g08.bks.cpg/sg162_2_cif.got.tgz:3557.got - 2010.05.20 10:53:12.
