data_PCOD9577468
_publ_section_title
;
Structure prediction by ZEFSAII (Michael W. Deem and Ramdas Pophale) SiO2 
 PCOD9577468
Probable space group: R 3 M
;
_chemical_formula_sum "Si O2"
_cell_formula_units_Z 126
_cell_length_a 22.481441
_cell_length_b 22.481441
_cell_length_c 17.394820
_cell_angle_alpha 90.000000
_cell_angle_beta 90.000000
_cell_angle_gamma 120.000000
_cell_volume 7613.754349
_symmetry_space_group_name_H-M "R 3 M"
_symmetry_group_IT_number 160
_symmetry_cell_setting 'hexagonal'
loop_
_space_group_symop_operation_xyz
x,y,z
-y,x-y,z
-x+y,-x,z
-x+y,y,z
x,x-y,z
-y,-x,z
2/3+x,1/3+y,1/3+z
2/3-y,1/3+x-y,1/3+z
2/3-x+y,1/3-x,1/3+z
2/3-x+y,1/3+y,1/3+z
2/3+x,1/3+x-y,1/3+z
2/3-y,1/3-x,1/3+z
1/3+x,2/3+y,2/3+z
1/3-y,2/3+x-y,2/3+z
1/3-x+y,2/3-x,2/3+z
1/3-x+y,2/3+y,2/3+z
1/3+x,2/3+x-y,2/3+z
1/3-y,2/3-x,2/3+z
loop_
_atom_site_type_symbol
_atom_site_label
_atom_site_fract_x
_atom_site_fract_y
_atom_site_fract_z
Si Si1 0.556211 0.710697 0.908940
Si Si2 0.111799 0.753160 0.526922
Si Si3 0.533457 0.334984 0.730524
Si Si4 0.981211 0.767478 0.532829
Si Si5 0.383368 0.261915 0.464577
Si Si6 0.254277 0.371692 0.348453
Si Si7 0.289367 0.969089 0.973621
O O1 0.545715 0.772858 0.881338
O O2 0.513754 0.681897 0.987851
O O3 0.635241 0.738649 0.931639
O O4 0.537271 0.650206 0.848736
O O5 0.186167 0.813834 0.552582
O O6 0.119189 0.733361 0.439428
O O7 0.072195 0.689611 0.584411
O O8 0.058305 0.781412 0.524838
O O9 0.513738 0.256869 0.735603
O O10 0.614803 0.385198 0.724358
O O11 0.507888 0.357231 0.805422
O O12 0.928869 0.689135 0.506371
O O13 0.959610 0.767588 0.621144
O O14 0.387862 0.193931 0.453048
O O15 0.378667 0.294160 0.384674
O O16 0.171925 0.343850 0.337250
O O17 0.290125 0.326093 0.328231
#
# Coordination Sequence:
#
# PCOD9577468 Si02
#       7
#    18  18  18  18  18  18  18
#     4  11  22  36  54  79 108 142 185 230 276 328
#     4  10  20  34  53  79 110 144 177 221 278 330
#     4  11  22  36  53  78 111 148 185 225 271 326
#     4  11  20  32  53  80 108 141 186 222 263 320
#     4  12  22  36  56  80 108 145 185 225 271 326
#     4  10  18  31  51  76 106 140 179 221 269 325
#     4  11  20  35  52  78 109 142 179 228 270 327
#
# _framework density 16.548997
#
# number of rings (size 3 to 8) (size 9 to 14) (size 15 to 20)
#    0.000    1.143    5.714    2.714    0.000    2.286 
#    0.000    0.000    0.000    2.857    0.000    0.000 
#    0.000    0.000    0.000    0.000    0.000    0.714 
#
# Total GULP energy -234188.227129 kJ/mol
# GULP energy per Si atom -5575.910170 kJ/mol
# Density = 1.651133 g / cm^3
# Si number density = 16.548997 Si / 1000 Ang^3
#
#
#
# Elastic Constant Matrix: (Units=GPa)
#
#
# Indices 1 2 3 4 5 6 
#
# 1 79.5517 50.2577 47.9601 2.3706 0.0003 0.0000
# 2 50.2577 79.5517 47.9601 -2.3706 -0.0003 0.0000
# 3 47.9601 47.9601 109.2960 0.0000 0.0000 0.0000
# 4 2.3706 -2.3706 0.0000 20.7025 0.0000 -0.0003
# 5 0.0003 -0.0003 0.0000 0.0000 20.7025 2.3706
# 6 0.0000 0.0000 0.0000 -0.0003 2.3706 14.6470
#
#
#
# Elastic Compliance Matrix: (Units=1/GPa)
#
#
# Indices 1 2 3 4 5 6 
#
# 1 0.023091 -0.011691 -0.005002 -0.003983 -0.000001 0.000000
# 2 -0.011691 0.023091 -0.005002 0.003983 0.000001 0.000000
# 3 -0.005002 -0.005002 0.013540 0.000000 0.000000 0.000000
# 4 -0.003983 0.003983 0.000000 0.049215 0.000000 0.000001
# 5 -0.000001 0.000001 0.000000 0.000000 0.049215 -0.007965
# 6 0.000000 0.000000 0.000000 0.000001 -0.007965 0.069562
#
#
# Mechanical properties :
#
#
# Convention : Reuss Voigt Hill
#
# Bulk Modulus (GPa) = 61.23686 62.30613 61.77149
# Shear Modulus (GPa) = 18.08001 19.35852 18.71927
#
# Velocity S-wave (km/s) = 3.30891 3.42390 3.36689
# Velocity P-wave (km/s) = 7.18903 7.30493 7.24721
#
# Compressibility (1/GPa) = 0.01633003
#
# Stress axis : x y z
#
# Youngs Moduli (GPa) = 43.30757 43.30757 73.85675
#
# Poissons Ratio (x) = 0.50629 0.36947
# Poissons Ratio (y) = 0.50629 0.36947
# Poissons Ratio (z) = 0.21664 0.21664
#
# Static dielectric constant tensor:
#      x y z
#    x 1.565170 0.000000 0.000000 
#    y 0.000000 1.565170 0.000000 
#    z 0.000000 0.000000 1.570870 
# 
# From -- ./inp_files/2889.got.cif
#   From: 2010.05.17/outbox.cif.g08.bks.cpg/sg160_2_cif.got.tgz:2889.got - 2010.05.20 10:51:19.
