data_PCOD9577636
_publ_section_title
;
Structure prediction by ZEFSAII (Michael W. Deem and Ramdas Pophale) SiO2 
 PCOD9577636
Probable space group: P -3 1 M 
;
_chemical_formula_sum "Si O2"
_cell_formula_units_Z 54
_cell_length_a 20.597369
_cell_length_b 20.597369
_cell_length_c 7.922835
_cell_angle_alpha 90.000000
_cell_angle_beta 90.000000
_cell_angle_gamma 120.000000
_cell_volume 2910.949974
_symmetry_space_group_name_H-M "P -3 1 M "
_symmetry_group_IT_number 162
_symmetry_cell_setting 'hexagonal'
loop_
_space_group_symop_operation_xyz
x,y,z
-y,x-y,z
-x+y,-x,z
-y,-x,-z
-x+y,y,-z
x,x-y,-z
-x,-y,-z
y,-x+y,-z
x-y,x,-z
y,x,z
x-y,-y,z
-x,-x+y,z
loop_
_atom_site_type_symbol
_atom_site_label
_atom_site_fract_x
_atom_site_fract_y
_atom_site_fract_z
Si Si1 0.914442 0.457221 0.201588
Si Si2 0.283933 0.283933 0.694365
Si Si3 0.856670 0.568419 0.296707
Si Si4 0.288251 0.431581 0.703293
Si Si5 0.283933 0.283933 0.305635
Si Si6 0.843982 0.000000 0.500000
O O1 0.874214 0.502946 0.256562
O O2 0.874214 0.371268 0.256561
O O3 0.000000 0.500000 0.268236
O O4 0.917846 0.458923 0.000000
O O5 0.276411 0.351876 0.769231
O O6 0.309175 0.309175 0.500000
O O7 0.206491 0.206491 0.659854
O O8 0.777506 0.555013 0.230965
O O9 0.854421 0.573555 0.500000
O O10 0.924534 0.648123 0.230769
O O11 0.206492 0.206492 0.340146
O O12 0.849095 0.924548 0.500000
#
# Coordination Sequence:
#
# PCOD9577636 Si02
#       6
#    12   6  12  12   6   6
#     4  11  23  37  53  79 111 143 179 221 279 339
#     4   8  16  28  48  74 102 129 172 220 257 294
#     4  10  19  34  57  80 101 135 182 228 271 318
#     4  10  19  34  57  80 101 135 182 228 271 318
#     4   8  16  28  48  74 102 129 172 220 257 294
#     4  10  17  26  42  73 116 150 170 200 260 327
#
# _framework density 18.550646
#
# number of rings (size 3 to 8) (size 9 to 14) (size 15 to 20)
#    0.667    1.556    2.222    2.111    0.000    1.778 
#    1.333    0.000    0.000    0.000    0.000    0.000 
#    0.000    0.000    0.000    0.000    0.000   15.778 
#
# Total GULP energy -300693.216980 kJ/mol
# GULP energy per Si atom -5568.392907 kJ/mol
# Density = 1.850842 g / cm^3
# Si number density = 18.550646 Si / 1000 Ang^3
#
#
#
# Elastic Constant Matrix: (Units=GPa)
#
#
# Indices 1 2 3 4 5 6 
#
# 1 198.4157 128.7131 8.6858 0.0000 0.0000 0.0000
# 2 128.7131 198.4157 8.6858 0.0000 0.0000 0.0000
# 3 8.6858 8.6858 20.6591 0.0000 0.0000 0.0000
# 4 0.0000 0.0000 0.0000 0.0179 0.0000 0.0000
# 5 0.0000 0.0000 0.0000 0.0000 0.0179 0.0000
# 6 0.0000 0.0000 0.0000 0.0000 0.0000 34.8513
#
#
#
# Elastic Compliance Matrix: (Units=1/GPa)
#
#
# Indices 1 2 3 4 5 6 
#
# 1 0.008737 -0.005610 -0.001315 0.000000 0.000015 0.000000
# 2 -0.005610 0.008737 -0.001315 0.000000 -0.000015 0.000000
# 3 -0.001315 -0.001315 0.049510 0.000000 0.000000 0.000000
# 4 0.000000 0.000000 0.000000 55.736098 0.000030 -0.000031
# 5 0.000015 -0.000015 0.000000 0.000030 55.736064 0.000000
# 6 0.000000 0.000000 0.000000 -0.000031 0.000000 0.028693
#
#
# Mechanical properties :
#
#
# Convention : Reuss Voigt Hill
#
# Bulk Modulus (GPa) = 19.79990 78.85110 49.32550
# Shear Modulus (GPa) = 0.04480 25.07115 12.55798
#
# Velocity S-wave (km/s) = 0.15558 3.68026 2.60466
# Velocity P-wave (km/s) = 3.27550 7.78827 5.97437
#
# Compressibility (1/GPa) = 0.05050530
#
# Stress axis : x y z
#
# Youngs Moduli (GPa) = 114.45980 114.45980 20.19787
#
# Poissons Ratio (x) = 0.64212 0.02655
# Poissons Ratio (y) = 0.64212 0.02655
# Poissons Ratio (z) = 0.15047 0.15047
#
# Static dielectric constant tensor:
#      x y z
#    x 1.646910 0.000000 0.000000 
#    y 0.000000 1.646910 0.000000 
#    z 0.000000 0.000000 1.659440 
# 
# From -- ./inp_files/1491.got.cif
#   From: 2010.05.17/outbox.cif.g08.bks.cpg/sg162_1_cif.got.tgz:1491.got - 2010.05.20 10:53:12.
