data_PCOD9577528
_publ_section_title
;
Structure prediction by ZEFSAII (Michael W. Deem and Ramdas Pophale) SiO2 
 PCOD9577528
Probable space group: R 3 C
;
_chemical_formula_sum "Si O2"
_cell_formula_units_Z 144
_cell_length_a 19.746210
_cell_length_b 19.746210
_cell_length_c 23.099589
_cell_angle_alpha 90.000000
_cell_angle_beta 90.000000
_cell_angle_gamma 120.000000
_cell_volume 7800.139814
_symmetry_space_group_name_H-M "R 3 C"
_symmetry_group_IT_number 161
_symmetry_cell_setting 'hexagonal'
loop_
_space_group_symop_operation_xyz
x,y,z
-y,x-y,z
-x+y,-x,z
-x+y,y,1/2+z
x,x-y,1/2+z
-y,-x,1/2+z
2/3+x,1/3+y,1/3+z
2/3-y,1/3+x-y,1/3+z
2/3-x+y,1/3-x,1/3+z
2/3-x+y,1/3+y,5/6+z
2/3+x,1/3+x-y,5/6+z
2/3-y,1/3-x,5/6+z
1/3+x,2/3+y,2/3+z
1/3-y,2/3+x-y,2/3+z
1/3-x+y,2/3-x,2/3+z
1/3-x+y,2/3+y,1/6+z
1/3+x,2/3+x-y,1/6+z
1/3-y,2/3-x,1/6+z
loop_
_atom_site_type_symbol
_atom_site_label
_atom_site_fract_x
_atom_site_fract_y
_atom_site_fract_z
Si Si1 0.121193 0.149102 0.014702
Si Si2 0.568134 0.266322 0.716974
Si Si3 0.726834 0.979096 0.450747
Si Si4 0.454976 0.516686 0.536613
Si Si5 0.994692 0.670810 0.230899
Si Si6 0.971494 0.696797 0.024951
Si Si7 0.857137 0.830227 0.035384
Si Si8 0.856820 0.669821 0.580332
O O1 0.209911 0.218643 0.016613
O O2 0.122294 0.072617 0.035651
O O3 0.062989 0.171060 0.046607
O O4 0.086407 0.123788 0.950326
O O5 0.640134 0.250827 0.705960
O O6 0.485870 0.215287 0.686499
O O7 0.723569 0.905740 0.418524
O O8 0.679883 0.962080 0.511356
O O9 0.689026 0.014205 0.406052
O O10 0.816378 0.031527 0.474676
O O11 0.408688 0.428122 0.557857
O O12 0.499629 0.521527 0.478598
O O13 0.003177 0.645189 0.295504
O O14 0.057609 0.763202 0.222710
O O15 0.882203 0.665085 0.046555
O O16 0.834073 0.759823 0.078720
#
# Coordination Sequence:
#
# PCOD9577528 Si02
#       8
#    18  18  18  18  18  18  18  18
#     4  11  17  34  60  91 123 160 202 262 327 381
#     4  10  19  34  58  94 125 159 203 266 328 385
#     4  11  22  40  61  92 127 168 220 263 326 399
#     4  12  21  43  62  91 134 166 216 274 329 391
#     4  11  23  43  65  93 125 175 219 266 335 391
#     4  11  22  40  63  90 131 170 213 272 329 391
#     4  10  20  37  59  92 126 162 206 266 321 397
#     4  10  24  41  58  89 135 166 209 271 323 395
#
# _framework density 18.461207000000002
#
# number of rings (size 3 to 8) (size 9 to 14) (size 15 to 20)
#    0.250    1.000    6.250    0.250    0.000    0.000 
#   22.500    0.000    0.000    0.000    0.000    0.000 
#    7.500    0.000    0.000    0.000    0.000    0.000 
#
# Total GULP energy -267258.953966 kJ/mol
# GULP energy per Si atom -5567.894874 kJ/mol
# Density = 1.841919 g / cm^3
# Si number density = 18.461207 Si / 1000 Ang^3
#
#
#
# Elastic Constant Matrix: (Units=GPa)
#
#
# Indices 1 2 3 4 5 6 
#
# 1 102.1763 45.5362 32.5764 -5.9726 0.0000 0.0000
# 2 45.5362 102.1763 32.5764 5.9726 0.0000 0.0000
# 3 32.5764 32.5764 72.3131 0.0000 0.0000 0.0000
# 4 -5.9726 5.9726 0.0000 21.5675 0.0000 0.0000
# 5 0.0000 0.0000 0.0000 0.0000 21.5675 -5.9726
# 6 0.0000 0.0000 0.0000 0.0000 -5.9726 28.3200
#
#
#
# Elastic Compliance Matrix: (Units=1/GPa)
#
#
# Indices 1 2 3 4 5 6 
#
# 1 0.013600 -0.005151 -0.003806 0.005193 0.000000 0.000000
# 2 -0.005151 0.013600 -0.003806 -0.005193 0.000000 0.000000
# 3 -0.003806 -0.003806 0.017258 0.000000 0.000000 0.000000
# 4 0.005193 -0.005193 0.000000 0.049242 0.000000 0.000000
# 5 0.000000 0.000000 0.000000 0.000000 0.049242 0.010385
# 6 0.000000 0.000000 0.000000 0.000000 0.010385 0.037501
#
#
# Mechanical properties :
#
#
# Convention : Reuss Voigt Hill
#
# Bulk Modulus (GPa) = 52.82321 55.33820 54.08070
# Shear Modulus (GPa) = 23.55398 25.35611 24.45504
#
# Velocity S-wave (km/s) = 3.57580 3.71007 3.64355
# Velocity P-wave (km/s) = 6.76193 6.95653 6.85992
#
# Compressibility (1/GPa) = 0.01893107
#
# Stress axis : x y z
#
# Youngs Moduli (GPa) = 73.53178 73.53178 57.94431
#
# Poissons Ratio (x) = 0.37875 0.22054
# Poissons Ratio (y) = 0.37875 0.22054
# Poissons Ratio (z) = 0.27987 0.27987
#
# Static dielectric constant tensor:
#      x y z
#    x 1.678940 0.000000 0.000000 
#    y 0.000000 1.678940 0.000000 
#    z 0.000000 0.000000 1.625120 
# 
# From -- ./inp_files/1792.got.cif
#   From: 2010.05.17/outbox.cif.g08.bks.cpg/sg161_cif.got.tgz:1792.got - 2010.05.20 10:52:32.
