data_PCOD9577304
_publ_section_title
;
Structure prediction by ZEFSAII (Michael W. Deem and Ramdas Pophale) SiO2 
 PCOD9577304
Probable space group: P 3 C 1
;
_chemical_formula_sum "Si O2"
_cell_formula_units_Z 36
_cell_length_a 8.454578
_cell_length_b 8.454578
_cell_length_c 29.957068
_cell_angle_alpha 90.000000
_cell_angle_beta 90.000000
_cell_angle_gamma 120.000000
_cell_volume 1854.444359
_symmetry_space_group_name_H-M "P 3 C 1"
_symmetry_group_IT_number 158
_symmetry_cell_setting 'hexagonal'
loop_
_space_group_symop_operation_xyz
x,y,z
-y,x-y,z
-x+y,-x,z
-x+y,y,1/2+z
x,x-y,1/2+z
-y,-x,1/2+z
loop_
_atom_site_type_symbol
_atom_site_label
_atom_site_fract_x
_atom_site_fract_y
_atom_site_fract_z
Si Si1 0.333206 0.874663 0.893910
Si Si2 0.333333 0.332651 0.028664
Si Si3 0.200026 0.215664 0.310066
Si Si4 0.333333 0.332651 0.490142
Si Si5 0.125337 0.666794 0.124897
Si Si6 0.784336 0.984362 0.208740
O O1 0.162508 0.665550 0.896116
O O2 0.317657 0.962971 0.848256
O O3 0.332216 0.985544 0.936886
O O4 0.332215 0.346672 0.081921
O O5 0.268322 0.134161 0.009403
O O6 0.532471 0.467528 0.009403
O O7 0.199908 0.399817 0.009403
O O8 0.259221 0.280451 0.259403
O O9 0.176150 0.013549 0.314663
O O10 0.162508 0.496958 0.122691
O O11 0.037029 0.682343 0.170551
O O12 0.837398 0.823850 0.204143
#
# Coordination Sequence:
#
# PCOD9577304 Si02
#       6
#     6   6   6   6   6   6
#     4  10  21  36  58  86 119 155 201 265 309 367
#     4  12  24  42  60  88 125 165 211 267 323 383
#     4   8  18  35  57  86 117 151 202 251 297 374
#     4  12  24  42  60  88 125 165 211 267 323 383
#     4  10  21  36  58  86 119 155 201 265 309 367
#     4   8  18  35  57  86 117 151 202 251 297 374
#
# _framework density 19.412821999999998
#
# number of rings (size 3 to 8) (size 9 to 14) (size 15 to 20)
#    1.333    0.667    3.333    1.000    4.667    1.333 
#    0.000    0.000    0.000    1.333    0.000    0.000 
#    0.000    0.000    0.000    0.000    0.000    0.000 
#
# Total GULP energy -200509.379425 kJ/mol
# GULP energy per Si atom -5569.704984 kJ/mol
# Density = 1.936864 g / cm^3
# Si number density = 19.412822 Si / 1000 Ang^3
#
#
#
# Elastic Constant Matrix: (Units=GPa)
#
#
# Indices 1 2 3 4 5 6 
#
# 1 43.5572 7.4186 38.2934 0.0001 0.0000 0.0000
# 2 7.4186 43.5572 38.2934 -0.0001 0.0000 0.0000
# 3 38.2934 38.2934 197.3537 0.0000 0.0000 0.0000
# 4 0.0001 -0.0001 0.0000 46.6180 0.0000 0.0000
# 5 0.0000 0.0000 0.0000 0.0000 46.6180 0.0001
# 6 0.0000 0.0000 0.0000 0.0000 0.0001 18.0693
#
#
#
# Elastic Compliance Matrix: (Units=1/GPa)
#
#
# Indices 1 2 3 4 5 6 
#
# 1 0.027680 0.000009 -0.005373 0.000000 0.000000 0.000000
# 2 0.000009 0.027680 -0.005373 0.000000 0.000000 0.000000
# 3 -0.005373 -0.005373 0.007152 0.000000 0.000000 0.000000
# 4 0.000000 0.000000 0.000000 0.021451 0.000000 0.000000
# 5 0.000000 0.000000 0.000000 0.000000 0.021451 0.000000
# 6 0.000000 0.000000 0.000000 0.000000 0.000000 0.055342
#
#
# Mechanical properties :
#
#
# Convention : Reuss Voigt Hill
#
# Bulk Modulus (GPa) = 24.36672 50.27546 37.32109
# Shear Modulus (GPa) = 25.52204 35.62526 30.57365
#
# Velocity S-wave (km/s) = 3.62981 4.28850 3.97283
# Velocity P-wave (km/s) = 5.49058 7.10464 6.34911
#
# Compressibility (1/GPa) = 0.04103959
#
# Stress axis : x y z
#
# Youngs Moduli (GPa) = 36.12699 36.12699 139.82112
#
# Poissons Ratio (x) = -0.00032 0.75121
# Poissons Ratio (y) = -0.00032 0.75121
# Poissons Ratio (z) = 0.19410 0.19410
#
# Static dielectric constant tensor:
#      x y z
#    x 1.637020 0.000000 0.000000 
#    y 0.000000 1.637020 0.000000 
#    z 0.000000 0.000000 1.650680 
# 
# From -- ./inp_files/775.got.cif
#   From: 2010.05.17/outbox.cif.g08.bks.cpg/sg158_cif.got.tgz:775.got - 2010.05.20 10:49:59.
