data_PCOD9577701
_publ_section_title
;
Structure prediction by ZEFSAII (Michael W. Deem and Ramdas Pophale) SiO2 
 PCOD9577701
Probable space group: P -3 1 M 
;
_chemical_formula_sum "Si O2"
_cell_formula_units_Z 96
_cell_length_a 14.284435
_cell_length_b 14.284435
_cell_length_c 29.262107
_cell_angle_alpha 90.000000
_cell_angle_beta 90.000000
_cell_angle_gamma 120.000000
_cell_volume 5170.855006
_symmetry_space_group_name_H-M "P -3 1 M "
_symmetry_group_IT_number 162
_symmetry_cell_setting 'hexagonal'
loop_
_space_group_symop_operation_xyz
x,y,z
-y,x-y,z
-x+y,-x,z
-y,-x,-z
-x+y,y,-z
x,x-y,-z
-x,-y,-z
y,-x+y,-z
x-y,x,-z
y,x,z
x-y,-y,z
-x,-x+y,z
loop_
_atom_site_type_symbol
_atom_site_label
_atom_site_fract_x
_atom_site_fract_y
_atom_site_fract_z
Si Si1 0.126586 0.877606 0.897807
Si Si2 0.547744 0.775090 0.947374
Si Si3 0.871088 0.128838 0.451082
Si Si4 0.124975 0.569689 0.891550
Si Si5 0.283650 0.878140 0.274544
Si Si6 0.660749 0.876731 0.200305
Si Si7 0.262821 0.130771 0.651176
Si Si8 0.128044 0.564155 0.789998
O O1 0.186111 0.858927 0.940149
O O2 0.181939 0.861790 0.852369
O O3 0.000000 0.796507 0.897423
O O4 0.152587 0.000000 0.896846
O O5 0.476982 0.667916 0.917689
O O6 0.529700 0.865878 0.923721
O O7 0.515701 0.757850 0.000000
O O8 0.840228 0.159773 0.500000
O O9 0.844309 0.153269 0.400757
O O10 0.000000 0.184378 0.451353
O O11 0.818432 0.000000 0.451601
O O12 0.168098 0.612807 0.840551
O O13 0.000000 0.476321 0.886748
O O14 0.212829 0.876691 0.231216
O O15 0.193544 0.830103 0.314174
O O16 0.354184 0.828360 0.252875
O O17 0.366437 0.000000 0.290065
O O18 0.543714 0.863835 0.210439
O O19 0.748474 0.000000 0.212600
O O20 0.183593 0.183593 0.656013
O O21 0.193743 0.000000 0.658370
O O22 0.000000 0.522543 0.789720
#
# Coordination Sequence:
#
# PCOD9577701 Si02
#       8
#    12  12  12  12  12  12  12  12
#     4  11  23  40  60  83 111 144 179 213 251 305
#     4  12  25  40  61  87 111 138 173 212 263 319
#     4   8  12  18  30  51  85 133 187 234 270 305
#     4  11  23  42  62  82 109 137 168 213 264 314
#     4  10  19  31  48  73 102 130 164 207 262 315
#     4  10  19  35  55  74  99 130 169 209 250 303
#     4   9  16  25  39  64 101 145 188 227 266 312
#     4   9  19  35  53  73  96 125 161 202 249 304
#
# _framework density 18.565594000000001
#
# number of rings (size 3 to 8) (size 9 to 14) (size 15 to 20)
#    0.000    2.000    1.250    3.250    0.000    5.000 
#    0.750    0.000    0.000    4.750    0.000    0.000 
#    0.000    1.000    0.000   11.625    0.000    1.125 
#
# Total GULP energy -534722.860018 kJ/mol
# GULP energy per Si atom -5570.029792 kJ/mol
# Density = 1.852334 g / cm^3
# Si number density = 18.565594 Si / 1000 Ang^3
#
#
#
# Elastic Constant Matrix: (Units=GPa)
#
#
# Indices 1 2 3 4 5 6 
#
# 1 58.3356 14.4973 24.5775 0.0000 -5.8180 0.0000
# 2 14.4973 58.3356 24.5775 0.0000 5.8180 0.0000
# 3 24.5775 24.5775 118.5481 0.0000 0.0000 0.0000
# 4 0.0000 0.0000 0.0000 20.5857 0.0000 5.8180
# 5 -5.8180 5.8180 0.0000 0.0000 20.5857 0.0000
# 6 0.0000 0.0000 0.0000 5.8180 0.0000 21.9191
#
#
#
# Elastic Compliance Matrix: (Units=1/GPa)
#
#
# Indices 1 2 3 4 5 6 
#
# 1 0.020312 -0.004349 -0.003310 0.000000 0.006970 0.000000
# 2 -0.004349 0.020312 -0.003310 0.000000 -0.006970 0.000000
# 3 -0.003310 -0.003310 0.009808 0.000000 0.000000 0.000000
# 4 0.000000 0.000000 0.000000 0.052517 0.000000 -0.013940
# 5 0.006970 -0.006970 0.000000 0.000000 0.052517 0.000000
# 6 0.000000 0.000000 0.000000 -0.013940 0.000000 0.049322
#
#
# Mechanical properties :
#
#
# Convention : Reuss Voigt Hill
#
# Bulk Modulus (GPa) = 35.09179 40.28043 37.68611
# Shear Modulus (GPa) = 21.16639 24.05592 22.61116
#
# Velocity S-wave (km/s) = 3.38018 3.60352 3.49364
# Velocity P-wave (km/s) = 5.84608 6.24958 6.05120
#
# Compressibility (1/GPa) = 0.02849670
#
# Stress axis : x y z
#
# Youngs Moduli (GPa) = 49.23094 49.23094 101.96077
#
# Poissons Ratio (x) = 0.21409 0.33745
# Poissons Ratio (y) = 0.21409 0.33745
# Poissons Ratio (z) = 0.16294 0.16294
#
# Static dielectric constant tensor:
#      x y z
#    x 1.661690 0.000000 0.000000 
#    y 0.000000 1.661690 0.000000 
#    z 0.000000 0.000000 1.680070 
# 
# From -- ./inp_files/4108.got.cif
#   From: 2010.05.17/outbox.cif.g08.bks.cpg/sg162_3_cif.got.tgz:4108.got - 2010.05.20 10:53:12.
