data_PCOD9577927
_publ_section_title
;
Structure prediction by ZEFSAII (Michael W. Deem and Ramdas Pophale) SiO2 
 PCOD9577927
Probable space group: P -3 1 M 
;
_chemical_formula_sum "Si O2"
_cell_formula_units_Z 60
_cell_length_a 17.664218
_cell_length_b 17.664218
_cell_length_c 12.203708
_cell_angle_alpha 90.000000
_cell_angle_beta 90.000000
_cell_angle_gamma 120.000000
_cell_volume 3297.700963
_symmetry_space_group_name_H-M "P -3 1 M "
_symmetry_group_IT_number 162
_symmetry_cell_setting 'hexagonal'
loop_
_space_group_symop_operation_xyz
x,y,z
-y,x-y,z
-x+y,-x,z
-y,-x,-z
-x+y,y,-z
x,x-y,-z
-x,-y,-z
y,-x+y,-z
x-y,x,-z
y,x,z
x-y,-y,z
-x,-x+y,z
loop_
_atom_site_type_symbol
_atom_site_label
_atom_site_fract_x
_atom_site_fract_y
_atom_site_fract_z
Si Si1 0.900911 0.680881 0.416329
Si Si2 0.231257 0.449388 0.739717
Si Si3 0.472306 0.370756 0.563651
Si Si4 0.341237 0.903573 0.080628
Si Si5 0.513160 0.610597 0.833870
O O1 0.860166 0.720332 0.500000
O O2 0.838940 0.642203 0.312716
O O3 0.894777 0.596583 0.479646
O O4 0.000000 0.745244 0.388314
O O5 0.314668 0.487031 0.657510
O O6 0.261469 0.433871 0.856486
O O7 0.177275 0.499927 0.758351
O O8 0.559308 0.440693 0.500000
O O9 0.424843 0.424843 0.605540
O O10 0.424597 0.899129 0.128581
O O11 0.359339 0.000000 0.108666
O O12 0.342810 0.896893 0.949909
O O13 0.576074 0.576074 0.785090
#
# Coordination Sequence:
#
# PCOD9577927 Si02
#       5
#    12  12  12  12  12
#     4   9  19  34  52  76 102 130 168 212 261 311
#     4  11  19  30  53  77  96 130 173 221 261 300
#     4   9  19  34  51  71  99 135 174 212 252 303
#     4   9  19  35  52  71  99 137 178 211 258 315
#     4   9  19  35  52  72 101 136 173 218 261 309
#
# _framework density 18.194493000000001
#
# number of rings (size 3 to 8) (size 9 to 14) (size 15 to 20)
#    0.000    2.600    0.000    3.000    2.800    0.800 
#    1.200    0.000    0.000    0.200    0.000    0.000 
#    0.000    0.000    0.000    0.000    0.000  119.400 
#
# Total GULP energy -334531.778474 kJ/mol
# GULP energy per Si atom -5575.529641 kJ/mol
# Density = 1.815308 g / cm^3
# Si number density = 18.194493 Si / 1000 Ang^3
#
#
#
# Elastic Constant Matrix: (Units=GPa)
#
#
# Indices 1 2 3 4 5 6 
#
# 1 81.7400 34.9725 23.5524 -0.0001 -6.8244 0.0000
# 2 34.9725 81.7400 23.5524 0.0001 6.8244 0.0000
# 3 23.5524 23.5524 44.2430 0.0000 0.0000 0.0000
# 4 -0.0001 0.0001 0.0000 25.8775 0.0000 6.8244
# 5 -6.8244 6.8244 0.0000 0.0000 25.8775 -0.0001
# 6 0.0000 0.0000 0.0000 6.8244 -0.0001 23.3837
#
#
#
# Elastic Compliance Matrix: (Units=1/GPa)
#
#
# Indices 1 2 3 4 5 6 
#
# 1 0.017039 -0.006126 -0.005809 0.000000 0.006109 0.000000
# 2 -0.006126 0.017039 -0.005809 0.000000 -0.006109 0.000000
# 3 -0.005809 -0.005809 0.028787 0.000000 0.000000 0.000000
# 4 0.000000 0.000000 0.000000 0.041866 0.000000 -0.012218
# 5 0.006109 -0.006109 0.000000 0.000000 0.041866 0.000000
# 6 0.000000 0.000000 0.000000 -0.012218 0.000000 0.046331
#
#
# Mechanical properties :
#
#
# Convention : Reuss Voigt Hill
#
# Bulk Modulus (GPa) = 36.52869 41.31973 38.92421
# Shear Modulus (GPa) = 21.04882 23.40410 22.22646
#
# Velocity S-wave (km/s) = 3.40498 3.59043 3.49894
# Velocity P-wave (km/s) = 5.96481 6.32041 6.14518
#
# Compressibility (1/GPa) = 0.02737574
#
# Stress axis : x y z
#
# Youngs Moduli (GPa) = 58.68887 58.68887 34.73730
#
# Poissons Ratio (x) = 0.35955 0.20180
# Poissons Ratio (y) = 0.35955 0.20180
# Poissons Ratio (z) = 0.34094 0.34094
#
# Static dielectric constant tensor:
#      x y z
#    x 1.634420 0.000000 0.000000 
#    y 0.000000 1.634420 0.000000 
#    z 0.000000 0.000000 1.677320 
# 
# From -- ./inp_files/2280.got.cif
#   From: 2010.05.17/outbox.cif.g08.bks.cpg/sg162_2_cif.got.tgz:2280.got - 2010.05.20 10:53:12.
