data_PCOD9577228
_publ_section_title
;
Structure prediction by ZEFSAII (Michael W. Deem and Ramdas Pophale) SiO2 
 PCOD9577228
Probable space group: P 3 M 1
;
_chemical_formula_sum "Si O2"
_cell_formula_units_Z 48
_cell_length_a 12.780538
_cell_length_b 12.780538
_cell_length_c 20.848839
_cell_angle_alpha 90.000000
_cell_angle_beta 90.000000
_cell_angle_gamma 120.000000
_cell_volume 2949.244507
_symmetry_space_group_name_H-M "P 3 M 1"
_symmetry_group_IT_number 156
_symmetry_cell_setting 'hexagonal'
loop_
_space_group_symop_operation_xyz
x,y,z
-y,x-y,z
-x+y,-x,z
-x+y,y,z
x,x-y,z
-y,-x,z
loop_
_atom_site_type_symbol
_atom_site_label
_atom_site_fract_x
_atom_site_fract_y
_atom_site_fract_z
Si Si1 0.248694 0.000475 0.285210
Si Si2 0.333494 0.419115 0.526588
Si Si3 0.915287 0.582294 0.407207
Si Si4 0.333423 0.419008 0.673209
Si Si5 0.581858 0.666539 0.038291
Si Si6 0.666389 0.084425 0.162025
Si Si7 0.418038 0.085353 0.792233
Si Si8 0.248619 0.248841 0.914890
O O1 0.128004 0.871997 0.283158
O O2 0.218227 0.109114 0.286041
O O3 0.327192 0.016779 0.348596
O O4 0.332307 0.023156 0.223196
O O5 0.206233 0.412467 0.515638
O O6 0.442333 0.557668 0.521669
O O7 0.360251 0.345807 0.473357
O O8 0.335303 0.379446 0.599897
O O9 0.780821 0.561642 0.409418
O O10 0.912247 0.456124 0.397462
O O11 0.206735 0.413470 0.683920
O O12 0.442849 0.557152 0.678317
O O13 0.358571 0.345091 0.726724
O O14 0.571724 0.785862 0.048930
O O15 0.450342 0.549659 0.028559
O O16 0.641342 0.639815 0.099546
O O17 0.664975 0.690565 0.975986
O O18 0.548684 0.097367 0.172724
O O19 0.784795 0.215206 0.152975
O O20 0.543297 0.086594 0.801595
O O21 0.440339 0.220170 0.788452
O O22 0.329047 0.020559 0.851818
O O23 0.240358 0.120179 0.924952
O O24 0.116378 0.232755 0.906693
#
# Coordination Sequence:
#
# PCOD9577228 Si02
#       8
#     6   6   6   6   6   6   6   6
#     4  10  20  34  52  73  97 126 161 201 244 288
#     4   9  17  30  49  72  97 125 158 198 243 289
#     4  10  20  33  50  72  99 131 165 201 241 287
#     4   9  17  30  49  72  96 123 157 198 243 288
#     4  10  20  34  52  74 101 132 165 202 245 292
#     4  10  20  34  53  76 102 132 165 200 238 283
#     4  10  20  33  49  70  97 129 163 198 239 288
#     4  10  20  34  52  73  97 126 162 204 249 295
#
# _framework density 16.275354
#
# number of rings (size 3 to 8) (size 9 to 14) (size 15 to 20)
#    0.000    2.250    0.000    3.250    0.000    1.500 
#    0.000    1.250    0.000   17.500    0.000    0.000 
#    0.000    0.000    0.000    0.000    0.000    0.000 
#
# Total GULP energy -267809.372689 kJ/mol
# GULP energy per Si atom -5579.361931 kJ/mol
# Density = 1.623831 g / cm^3
# Si number density = 16.275354 Si / 1000 Ang^3
#
#
#
# Elastic Constant Matrix: (Units=GPa)
#
#
# Indices 1 2 3 4 5 6 
#
# 1 122.8664 83.0831 90.9268 2.4585 0.0002 0.0000
# 2 83.0831 122.8664 90.9268 -2.4585 -0.0002 0.0000
# 3 90.9268 90.9268 135.3369 0.0000 0.0000 0.0000
# 4 2.4585 -2.4585 0.0000 26.5801 0.0000 -0.0002
# 5 0.0002 -0.0002 0.0000 0.0000 26.5801 2.4585
# 6 0.0000 0.0000 0.0000 -0.0002 2.4585 19.8916
#
#
#
# Elastic Compliance Matrix: (Units=1/GPa)
#
#
# Indices 1 2 3 4 5 6 
#
# 1 0.018682 -0.006745 -0.008020 -0.002352 0.000000 0.000000
# 2 -0.006745 0.018682 -0.008020 0.002352 0.000000 0.000000
# 3 -0.008020 -0.008020 0.018166 0.000000 0.000000 0.000000
# 4 -0.002352 0.002352 0.000000 0.038057 0.000000 0.000000
# 5 0.000000 0.000000 0.000000 0.000000 0.038057 -0.004704
# 6 0.000000 0.000000 0.000000 0.000000 -0.004704 0.050854
#
#
# Mechanical properties :
#
#
# Convention : Reuss Voigt Hill
#
# Bulk Modulus (GPa) = 100.40376 101.21591 100.80983
# Shear Modulus (GPa) = 21.60869 22.35257 21.98063
#
# Velocity S-wave (km/s) = 3.64771 3.70996 3.67897
# Velocity P-wave (km/s) = 8.91996 8.98201 8.95104
#
# Compressibility (1/GPa) = 0.00995979
#
# Stress axis : x y z
#
# Youngs Moduli (GPa) = 53.52705 53.52705 55.04841
#
# Poissons Ratio (x) = 0.36102 0.44150
# Poissons Ratio (y) = 0.36102 0.44150
# Poissons Ratio (z) = 0.42930 0.42930
#
# Static dielectric constant tensor:
#      x y z
#    x 1.515060 0.000000 0.000000 
#    y 0.000000 1.515060 0.000000 
#    z 0.000000 0.000000 1.532980 
# 
# From -- ./inp_files/1097.got.cif
#   From: 2010.05.17/outbox.cif.g08.bks.cpg/sg156_cif.got.tgz:1097.got - 2010.05.20 10:49:08.
