data_PCOD9577482
_publ_section_title
;
Structure prediction by ZEFSAII (Michael W. Deem and Ramdas Pophale) SiO2 
 PCOD9577482
Probable space group: R 3 M
;
_chemical_formula_sum "Si O2"
_cell_formula_units_Z 126
_cell_length_a 17.337066
_cell_length_b 17.337066
_cell_length_c 27.064738
_cell_angle_alpha 90.000000
_cell_angle_beta 90.000000
_cell_angle_gamma 120.000000
_cell_volume 7045.075699
_symmetry_space_group_name_H-M "R 3 M"
_symmetry_group_IT_number 160
_symmetry_cell_setting 'hexagonal'
loop_
_space_group_symop_operation_xyz
x,y,z
-y,x-y,z
-x+y,-x,z
-x+y,y,z
x,x-y,z
-y,-x,z
2/3+x,1/3+y,1/3+z
2/3-y,1/3+x-y,1/3+z
2/3-x+y,1/3-x,1/3+z
2/3-x+y,1/3+y,1/3+z
2/3+x,1/3+x-y,1/3+z
2/3-y,1/3-x,1/3+z
1/3+x,2/3+y,2/3+z
1/3-y,2/3+x-y,2/3+z
1/3-x+y,2/3-x,2/3+z
1/3-x+y,2/3+y,2/3+z
1/3+x,2/3+x-y,2/3+z
1/3-y,2/3-x,2/3+z
loop_
_atom_site_type_symbol
_atom_site_label
_atom_site_fract_x
_atom_site_fract_y
_atom_site_fract_z
Si Si1 0.098621 0.380725 0.968205
Si Si2 0.748659 0.674259 0.116538
Si Si3 0.168485 0.001271 0.849239
Si Si4 0.721314 0.096178 0.532792
Si Si5 0.825438 0.824357 0.968052
Si Si6 0.179197 0.998171 0.495036
Si Si7 0.901971 0.272870 0.729369
O O1 0.197651 0.395301 0.968929
O O2 0.077391 0.403358 0.914112
O O3 0.033233 0.276340 0.981104
O O4 0.082490 0.435376 0.010473
O O5 0.844604 0.689207 0.100946
O O6 0.708588 0.595045 0.157092
O O7 0.752501 0.754540 0.148461
O O8 0.671237 0.637999 0.075662
O O9 0.064611 0.935390 0.838183
O O10 0.200451 0.100226 0.831425
O O11 0.177527 0.003090 0.908156
O O12 0.805861 0.194140 0.537962
O O13 0.760155 0.028610 0.526804
O O14 0.902703 0.805405 0.985530
O O15 0.847064 0.923532 0.982632
O O16 0.092758 0.907243 0.511937
O O17 0.203690 0.980396 0.440159
O O18 0.161237 0.080619 0.494626
O O19 0.832833 0.167168 0.729464
#
# Coordination Sequence:
#
# PCOD9577482 Si02
#       7
#    18  18  18  18  18  18  18
#     4  11  21  35  54  76 103 139 178 216 260 310
#     4  10  19  34  55  77 104 137 174 214 256 309
#     4   9  15  25  44  73 105 134 164 205 254 303
#     4  10  20  34  53  77 105 137 173 216 264 310
#     4   9  17  28  46  73 105 136 168 210 260 309
#     4   9  18  33  54  80 107 138 174 216 262 310
#     4  10  21  35  53  78 107 139 175 217 261 307
#
# _framework density 17.884833
#
# number of rings (size 3 to 8) (size 9 to 14) (size 15 to 20)
#    0.000    2.286    1.429    2.143    0.000    3.429 
#    0.000    0.000    0.000    6.286    0.000    1.000 
#    0.000    0.000    0.000    0.000    0.000    0.000 
#
# Total GULP energy -234116.218006 kJ/mol
# GULP energy per Si atom -5574.195667 kJ/mol
# Density = 1.784413 g / cm^3
# Si number density = 17.884833 Si / 1000 Ang^3
#
#
#
# Elastic Constant Matrix: (Units=GPa)
#
#
# Indices 1 2 3 4 5 6 
#
# 1 81.2525 48.0928 27.8493 0.9991 0.0001 0.0000
# 2 48.0928 81.2525 27.8493 -0.9991 -0.0001 0.0000
# 3 27.8493 27.8493 59.9330 0.0000 0.0000 0.0000
# 4 0.9991 -0.9991 0.0000 17.4732 0.0000 -0.0001
# 5 0.0001 -0.0001 0.0000 0.0000 17.4732 0.9991
# 6 0.0000 0.0000 0.0000 -0.0001 0.9991 16.5798
#
#
#
# Elastic Compliance Matrix: (Units=1/GPa)
#
#
# Indices 1 2 3 4 5 6 
#
# 1 0.019963 -0.010298 -0.004491 -0.001730 0.000000 0.000000
# 2 -0.010298 0.019963 -0.004491 0.001730 0.000000 0.000000
# 3 -0.004491 -0.004491 0.020859 0.000000 0.000000 0.000000
# 4 -0.001730 0.001730 0.000000 0.057428 0.000000 0.000000
# 5 0.000000 0.000000 0.000000 0.000000 0.057428 -0.003461
# 6 0.000000 0.000000 0.000000 0.000000 -0.003461 0.060523
#
#
# Mechanical properties :
#
#
# Convention : Reuss Voigt Hill
#
# Bulk Modulus (GPa) = 44.99453 47.78006 46.38730
# Shear Modulus (GPa) = 17.72206 18.21503 17.96854
#
# Velocity S-wave (km/s) = 3.15127 3.19480 3.17311
# Velocity P-wave (km/s) = 6.20106 6.35471 6.27836
#
# Compressibility (1/GPa) = 0.02222492
#
# Stress axis : x y z
#
# Youngs Moduli (GPa) = 50.09190 50.09190 47.94055
#
# Poissons Ratio (x) = 0.51585 0.21531
# Poissons Ratio (y) = 0.51585 0.21531
# Poissons Ratio (z) = 0.22497 0.22497
#
# Static dielectric constant tensor:
#      x y z
#    x 1.627980 0.000000 0.000000 
#    y 0.000000 1.627980 0.000000 
#    z 0.000000 0.000000 1.598110 
# 
# From -- ./inp_files/3770.got.cif
#   From: 2010.05.17/outbox.cif.g08.bks.cpg/sg160_2_cif.got.tgz:3770.got - 2010.05.20 10:51:19.
