data_PCOD9577345
_publ_section_title
;
Structure prediction by ZEFSAII (Michael W. Deem and Ramdas Pophale) SiO2 
 PCOD9577345
Probable space group: P 3 1 C
;
_chemical_formula_sum "Si O2"
_cell_formula_units_Z 42
_cell_length_a 22.293596
_cell_length_b 22.293596
_cell_length_c 5.413887
_cell_angle_alpha 90.000000
_cell_angle_beta 90.000000
_cell_angle_gamma 120.000000
_cell_volume 2330.236882
_symmetry_space_group_name_H-M "P 3 1 C"
_symmetry_group_IT_number 159
_symmetry_cell_setting 'hexagonal'
loop_
_space_group_symop_operation_xyz
x,y,z
-y,x-y,z
-x+y,-x,z
y,x,1/2+z
x-y,-y,1/2+z
-x,-x+y,1/2+z
loop_
_atom_site_type_symbol
_atom_site_label
_atom_site_fract_x
_atom_site_fract_y
_atom_site_fract_z
Si Si1 0.265002 0.192304 0.981010
Si Si2 0.876583 0.974301 0.973843
Si Si3 0.329777 0.398569 0.404954
Si Si4 0.856116 0.735044 0.476707
Si Si5 0.455439 0.369396 0.405177
Si Si6 0.650823 0.693607 0.894299
Si Si7 0.046142 0.482098 0.953952
O O1 0.183409 0.167388 0.986729
O O2 0.318294 0.272477 0.934602
O O3 0.276113 0.153964 0.748359
O O4 0.282978 0.172260 0.243989
O O5 0.920913 0.004318 0.729565
O O6 0.819310 0.893470 0.957423
O O7 0.403096 0.400739 0.394751
O O8 0.330258 0.440595 0.645873
O O9 0.322741 0.430751 0.149700
O O10 0.774847 0.690309 0.442457
O O11 0.531155 0.435634 0.433262
O O12 0.665508 0.680577 0.612660
O O13 0.568128 0.646721 0.934707
O O14 0.994340 0.460028 0.716279
#
# Coordination Sequence:
#
# PCOD9577345 Si02
#       7
#     6   6   6   6   6   6   6
#     4  10  19  28  43  64  96 124 147 168 225 290
#     4   8  16  25  39  57  84 114 140 163 206 266
#     4  10  18  23  39  61  90 120 146 166 210 263
#     4  10  19  31  43  63  86 119 162 187 219 273
#     4  10  17  24  38  59  90 113 158 168 209 256
#     4  10  21  33  51  61  83 120 171 202 237 255
#     4  10  16  30  41  61  81 116 152 196 222 259
#
# _framework density 18.023917999999998
#
# number of rings (size 3 to 8) (size 9 to 14) (size 15 to 20)
#    0.000    2.286    2.857    1.714   12.000    0.000 
#    0.000    0.000    0.000    0.000    0.000    0.000 
#    0.000    0.000    0.000  248.571    0.000    0.000 
#
# Total GULP energy -233922.550591 kJ/mol
# GULP energy per Si atom -5569.584538 kJ/mol
# Density = 1.798289 g / cm^3
# Si number density = 18.023918 Si / 1000 Ang^3
#
#
#
# Elastic Constant Matrix: (Units=GPa)
#
#
# Indices 1 2 3 4 5 6 
#
# 1 42.8124 12.6477 -10.9753 0.0000 1.0533 0.0000
# 2 12.6477 42.8124 -10.9753 0.0000 -1.0533 0.0000
# 3 -10.9753 -10.9753 109.6473 0.0000 0.0000 0.0000
# 4 0.0000 0.0000 0.0000 3.5044 0.0000 -1.0533
# 5 1.0533 -1.0533 0.0000 0.0000 3.5044 0.0000
# 6 0.0000 0.0000 0.0000 -1.0533 0.0000 15.0824
#
#
#
# Elastic Compliance Matrix: (Units=1/GPa)
#
#
# Indices 1 2 3 4 5 6 
#
# 1 0.026318 -0.007544 0.001879 0.000000 -0.010178 0.000000
# 2 -0.007544 0.026318 0.001879 0.000000 0.010178 0.000000
# 3 0.001879 0.001879 0.009496 0.000000 0.000000 0.000000
# 4 0.000000 0.000000 0.000000 0.291471 0.000000 0.020356
# 5 -0.010178 0.010178 0.000000 0.000000 0.291471 0.000000
# 6 0.000000 0.000000 0.000000 0.020356 0.000000 0.067724
#
#
# Mechanical properties :
#
#
# Convention : Reuss Voigt Hill
#
# Bulk Modulus (GPa) = 18.32742 19.62960 18.97851
# Shear Modulus (GPa) = 6.76995 18.05659 12.41327
#
# Velocity S-wave (km/s) = 1.94017 3.16858 2.62718
# Velocity P-wave (km/s) = 3.89993 4.92960 4.44469
#
# Compressibility (1/GPa) = 0.05456305
#
# Stress axis : x y z
#
# Youngs Moduli (GPa) = 37.99616 37.99616 105.30337
#
# Poissons Ratio (x) = 0.28663 -0.19790
# Poissons Ratio (y) = 0.28663 -0.19790
# Poissons Ratio (z) = -0.07141 -0.07141
#
# Static dielectric constant tensor:
#      x y z
#    x 1.632900 0.000000 0.000000 
#    y 0.000000 1.632900 0.000000 
#    z 0.000000 0.000000 1.742770 
# 
# From -- ./inp_files/116.got.cif
#   From: 2010.05.17/outbox.cif.g08.bks.cpg/sg159_cif.got.tgz:116.got - 2010.05.20 10:50:30.
