data_PCOD9577023
_publ_section_title
;
Structure prediction by ZEFSAII (Michael W. Deem and Ramdas Pophale) SiO2 
 PCOD9577023
Probable space group: R 3 2
;
_chemical_formula_sum "Si O2"
_cell_formula_units_Z 63
_cell_length_a 14.349417
_cell_length_b 14.349417
_cell_length_c 14.119721
_cell_angle_alpha 90.000000
_cell_angle_beta 90.000000
_cell_angle_gamma 120.000000
_cell_volume 2517.823369
_symmetry_space_group_name_H-M "R 3 2"
_symmetry_group_IT_number 155
_symmetry_cell_setting 'hexagonal'
loop_
_space_group_symop_operation_xyz
x,y,z
-y,x-y,z
-x+y,-x,z
x-y,-y,-z
-x,-x+y,-z
y,x,-z
2/3+x,1/3+y,1/3+z
2/3-y,1/3+x-y,1/3+z
2/3-x+y,1/3-x,1/3+z
2/3+x-y,1/3-y,1/3-z
2/3-x,1/3-x+y,1/3-z
2/3+y,1/3+x,1/3-z
1/3+x,2/3+y,2/3+z
1/3-y,2/3+x-y,2/3+z
1/3-x+y,2/3-x,2/3+z
1/3+x-y,2/3-y,2/3-z
1/3-x,2/3-x+y,2/3-z
1/3+y,2/3+x,2/3-z
loop_
_atom_site_type_symbol
_atom_site_label
_atom_site_fract_x
_atom_site_fract_y
_atom_site_fract_z
Si Si1 0.773982 0.945269 0.136341
Si Si2 0.333334 0.888008 0.666667
Si Si3 0.194460 0.861127 0.833334
Si Si4 0.666667 0.120639 0.833334
Si Si5 0.192478 0.600509 0.996051
O O1 0.807170 0.883806 0.062290
O O2 0.653165 0.912285 0.107400
O O3 0.780971 0.904035 0.241083
O O4 0.840120 0.073659 0.148151
O O5 0.265172 0.917384 0.740064
O O6 0.741568 0.217906 0.765040
O O7 0.270682 0.551260 0.990249
#
# Coordination Sequence:
#
# PCOD9577023 Si02
#       5
#    18   9   9   9  18
#     4  11  24  46  76 108 152 203 267 326 410 470
#     4  12  26  50  80 114 166 204 274 352 398 492
#     4  11  26  50  74 119 154 212 268 331 410 485
#     4  11  22  44  74 101 148 206 256 321 394 489
#     4  10  22  40  67 101 144 190 255 309 382 486
#
# _framework density 25.021614
#
# number of rings (size 3 to 8) (size 9 to 14) (size 15 to 20)
#    0.571    0.571    0.000    6.000    0.000    4.571 
#   22.286    0.000    0.000    0.000    0.000    0.000 
#    0.000    0.000    0.000    0.000    0.000    0.000 
#
# Total GULP energy -117343.596889 kJ/mol
# GULP energy per Si atom -5587.790328 kJ/mol
# Density = 2.496466 g / cm^3
# Si number density = 25.021614 Si / 1000 Ang^3
#
#
#
# Elastic Constant Matrix: (Units=GPa)
#
#
# Indices 1 2 3 4 5 6 
#
# 1 102.8973 24.0436 43.3460 9.7674 -0.0001 0.0000
# 2 24.0436 102.8973 43.3460 -9.7674 0.0001 0.0000
# 3 43.3460 43.3460 165.4337 0.0000 0.0000 0.0000
# 4 9.7674 -9.7674 0.0000 45.3139 0.0000 0.0001
# 5 -0.0001 0.0001 0.0000 0.0000 45.3139 9.7674
# 6 0.0000 0.0000 0.0000 0.0001 9.7674 39.4269
#
#
#
# Elastic Compliance Matrix: (Units=1/GPa)
#
#
# Indices 1 2 3 4 5 6 
#
# 1 0.011496 -0.001901 -0.002514 -0.002888 0.000000 0.000000
# 2 -0.001901 0.011496 -0.002514 0.002888 0.000000 0.000000
# 3 -0.002514 -0.002514 0.007362 0.000000 0.000000 0.000000
# 4 -0.002888 0.002888 0.000000 0.023313 0.000000 0.000000
# 5 0.000000 0.000000 0.000000 0.000000 0.023313 -0.005775
# 6 0.000000 0.000000 0.000000 0.000000 -0.005775 0.026794
#
#
# Mechanical properties :
#
#
# Convention : Reuss Voigt Hill
#
# Bulk Modulus (GPa) = 60.62263 65.85551 63.23907
# Shear Modulus (GPa) = 40.60716 43.37710 41.99213
#
# Velocity S-wave (km/s) = 4.03287 4.16815 4.10107
# Velocity P-wave (km/s) = 6.77983 7.03855 6.91040
#
# Compressibility (1/GPa) = 0.01649549
#
# Stress axis : x y z
#
# Youngs Moduli (GPa) = 86.98826 86.98826 135.83134
#
# Poissons Ratio (x) = 0.16539 0.34147
# Poissons Ratio (y) = 0.16539 0.34147
# Poissons Ratio (z) = 0.21868 0.21868
#
# Static dielectric constant tensor:
#      x y z
#    x 1.985160 0.000000 0.000000 
#    y 0.000000 1.985160 0.000000 
#    z 0.000000 0.000000 1.991300 
# 
# From -- ./inp_files/3621.got.cif
#   From: 2010.05.17/outbox.cif.g08.bks.cpg/sg155_2_cif.got.tgz:3621.got - 2010.05.20 10:44:35.
