data_PCOD9577784
_publ_section_title
;
Structure prediction by ZEFSAII (Michael W. Deem and Ramdas Pophale) SiO2 
 PCOD9577784
Probable space group: P -3 1 M 
;
_chemical_formula_sum "Si O2"
_cell_formula_units_Z 48
_cell_length_a 13.315577
_cell_length_b 13.315577
_cell_length_c 16.690064
_cell_angle_alpha 90.000000
_cell_angle_beta 90.000000
_cell_angle_gamma 120.000000
_cell_volume 2562.763998
_symmetry_space_group_name_H-M "P -3 1 M "
_symmetry_group_IT_number 162
_symmetry_cell_setting 'hexagonal'
loop_
_space_group_symop_operation_xyz
x,y,z
-y,x-y,z
-x+y,-x,z
-y,-x,-z
-x+y,y,-z
x,x-y,-z
-x,-y,-z
y,-x+y,-z
x-y,x,-z
y,x,z
x-y,-y,z
-x,-x+y,z
loop_
_atom_site_type_symbol
_atom_site_label
_atom_site_fract_x
_atom_site_fract_y
_atom_site_fract_z
Si Si1 0.133632 0.699187 0.157893
Si Si2 0.133632 0.434444 0.657893
Si Si3 0.635772 0.501220 0.423676
Si Si4 0.635772 0.501220 0.076324
O O1 0.152544 0.738145 0.250000
O O2 0.145045 0.584360 0.148410
O O3 0.230597 0.792812 0.099659
O O4 0.000000 0.656290 0.135779
O O5 0.230597 0.437785 0.599660
O O6 0.145044 0.560684 0.648410
O O7 0.000000 0.343709 0.635780
O O8 0.585408 0.414593 0.500000
O O9 0.593832 0.593832 0.436057
O O10 0.593832 0.593832 0.063943
O O11 0.585408 0.414593 0.000000
#
# Coordination Sequence:
#
# PCOD9577784 Si02
#       4
#    12  12  12  12
#     4  10  20  33  51  76 105 139 179 223 275 335
#     4  10  20  33  51  76 105 139 179 223 275 335
#     4  10  20  34  53  76 104 140 182 228 275 326
#     4  10  20  34  53  76 104 140 182 228 275 326
#
# _framework density 18.729779000000001
#
# number of rings (size 3 to 8) (size 9 to 14) (size 15 to 20)
#    0.000    2.000    0.000    4.000    0.000    3.000 
#    0.000    0.000    0.000    1.000    0.000    0.000 
#    0.000   12.000    0.000    0.000    0.000    0.000 
#
# Total GULP energy -267707.065249 kJ/mol
# GULP energy per Si atom -5577.230526 kJ/mol
# Density = 1.868715 g / cm^3
# Si number density = 18.729779 Si / 1000 Ang^3
#
#
#
# Elastic Constant Matrix: (Units=GPa)
#
#
# Indices 1 2 3 4 5 6 
#
# 1 120.9412 69.5148 56.1238 0.0000 0.0000 0.0000
# 2 69.5148 120.9412 56.1238 0.0000 0.0000 0.0000
# 3 56.1238 56.1238 109.7967 0.0000 0.0000 0.0000
# 4 0.0000 0.0000 0.0000 24.7201 0.0000 0.0000
# 5 0.0000 0.0000 0.0000 0.0000 24.7201 0.0000
# 6 0.0000 0.0000 0.0000 0.0000 0.0000 25.7132
#
#
#
# Elastic Compliance Matrix: (Units=1/GPa)
#
#
# Indices 1 2 3 4 5 6 
#
# 1 0.013480 -0.005965 -0.003841 0.000000 0.000000 0.000000
# 2 -0.005965 0.013480 -0.003841 0.000000 0.000000 0.000000
# 3 -0.003841 -0.003841 0.013035 0.000000 0.000000 0.000000
# 4 0.000000 0.000000 0.000000 0.040453 0.000000 0.000000
# 5 0.000000 0.000000 0.000000 0.000000 0.040453 0.000000
# 6 0.000000 0.000000 0.000000 0.000000 0.000000 0.038891
#
#
# Mechanical properties :
#
#
# Convention : Reuss Voigt Hill
#
# Bulk Modulus (GPa) = 78.74616 79.46711 79.10663
# Shear Modulus (GPa) = 26.13444 26.35846 26.24645
#
# Velocity S-wave (km/s) = 3.73948 3.75547 3.74748
# Velocity P-wave (km/s) = 7.79612 7.83103 7.81360
#
# Compressibility (1/GPa) = 0.01269903
#
# Stress axis : x y z
#
# Youngs Moduli (GPa) = 74.18508 74.18508 76.71938
#
# Poissons Ratio (x) = 0.44255 0.29468
# Poissons Ratio (y) = 0.44255 0.29468
# Poissons Ratio (z) = 0.28495 0.28495
#
# Static dielectric constant tensor:
#      x y z
#    x 1.656220 0.000000 0.000000 
#    y 0.000000 1.656220 0.000000 
#    z 0.000000 0.000000 1.736450 
# 
# From -- ./inp_files/2808.got.cif
#   From: 2010.05.17/outbox.cif.g08.bks.cpg/sg162_2_cif.got.tgz:2808.got - 2010.05.20 10:53:12.
