data_PCOD9577211
_publ_section_title
;
Structure prediction by ZEFSAII (Michael W. Deem and Ramdas Pophale) SiO2 
 PCOD9577211
Probable space group: P 3 M 1
;
_chemical_formula_sum "Si O2"
_cell_formula_units_Z 48
_cell_length_a 12.917594
_cell_length_b 12.917594
_cell_length_c 20.835300
_cell_angle_alpha 90.000000
_cell_angle_beta 90.000000
_cell_angle_gamma 120.000000
_cell_volume 3010.881414
_symmetry_space_group_name_H-M "P 3 M 1"
_symmetry_group_IT_number 156
_symmetry_cell_setting 'hexagonal'
loop_
_space_group_symop_operation_xyz
x,y,z
-y,x-y,z
-x+y,-x,z
-x+y,y,z
x,x-y,z
-y,-x,z
loop_
_atom_site_type_symbol
_atom_site_label
_atom_site_fract_x
_atom_site_fract_y
_atom_site_fract_z
Si Si1 0.911146 0.577600 0.685510
Si Si2 0.333347 0.912877 0.043269
Si Si3 0.753465 0.999334 0.923110
Si Si4 0.666897 0.088117 0.538230
Si Si5 0.999700 0.755140 0.307187
Si Si6 0.755083 0.755053 0.158964
Si Si7 0.579580 0.912879 0.422558
Si Si8 0.333110 0.912714 0.802645
O O1 0.793517 0.587034 0.697869
O O2 0.879044 0.439522 0.690093
O O3 0.950856 0.616371 0.611966
O O4 0.013792 0.649111 0.737279
O O5 0.459125 0.918250 0.037374
O O6 0.224282 0.775719 0.042009
O O7 0.320978 0.971364 0.109011
O O8 0.308391 0.979151 0.984937
O O9 0.784340 0.892170 0.924209
O O10 0.672368 0.978242 0.860416
O O11 0.873033 0.126968 0.923282
O O12 0.556379 0.112757 0.532017
O O13 0.790651 0.209350 0.527560
O O14 0.645757 0.990108 0.485397
O O15 0.875439 0.750877 0.318928
O O16 0.000814 0.719543 0.233082
O O17 0.022541 0.678073 0.359115
O O18 0.109287 0.890713 0.313668
O O19 0.874151 0.748302 0.146037
O O20 0.784069 0.892035 0.151962
O O21 0.450783 0.901566 0.419503
O O22 0.568023 0.784012 0.426201
O O23 0.454659 0.909317 0.814525
O O24 0.220484 0.779517 0.798206
#
# Coordination Sequence:
#
# PCOD9577211 Si02
#       8
#     6   6   6   6   6   6   6   6
#     4   9  17  30  49  72  96 122 154 194 239 283
#     4  10  20  33  50  72  99 131 164 196 230 273
#     4  10  20  34  53  75  97 122 155 198 245 288
#     4   9  17  30  49  71  93 119 154 197 241 282
#     4   9  17  30  49  72  95 120 153 195 242 286
#     4   9  17  30  50  74  97 121 152 194 241 285
#     4  10  20  32  46  66  94 128 162 194 232 280
#     4  10  20  33  50  72  99 131 164 196 230 273
#
# _framework density 15.942175000000001
#
# number of rings (size 3 to 8) (size 9 to 14) (size 15 to 20)
#    0.000    2.500    0.000    2.500    0.000    3.000 
#    0.000    2.500    0.000    9.000    0.000    0.000 
#    0.000    0.000    0.000    0.000    0.000    0.000 
#
# Total GULP energy -267642.201369 kJ/mol
# GULP energy per Si atom -5575.879195 kJ/mol
# Density = 1.590589 g / cm^3
# Si number density = 15.942175 Si / 1000 Ang^3
#
#
#
# Elastic Constant Matrix: (Units=GPa)
#
#
# Indices 1 2 3 4 5 6 
#
# 1 104.3023 66.9675 78.9921 0.3451 0.0003 0.0000
# 2 66.9675 104.3023 78.9921 -0.3451 -0.0003 0.0000
# 3 78.9921 78.9921 122.8577 0.0000 0.0000 0.0000
# 4 0.3451 -0.3451 0.0000 24.4377 0.0000 -0.0003
# 5 0.0003 -0.0003 0.0000 0.0000 24.4377 0.3451
# 6 0.0000 0.0000 0.0000 -0.0003 0.3451 18.6674
#
#
#
# Elastic Compliance Matrix: (Units=1/GPa)
#
#
# Indices 1 2 3 4 5 6 
#
# 1 0.020570 -0.006221 -0.009226 -0.000378 0.000000 0.000000
# 2 -0.006221 0.020570 -0.009226 0.000378 0.000000 0.000000
# 3 -0.009226 -0.009226 0.020003 0.000000 0.000000 0.000000
# 4 -0.000378 0.000378 0.000000 0.040931 0.000000 0.000001
# 5 0.000000 0.000000 0.000000 0.000000 0.040931 -0.000757
# 6 0.000000 0.000000 0.000000 0.000001 -0.000757 0.053583
#
#
# Mechanical properties :
#
#
# Convention : Reuss Voigt Hill
#
# Bulk Modulus (GPa) = 84.76121 86.81838 85.78980
# Shear Modulus (GPa) = 20.01068 20.60925 20.30996
#
# Velocity S-wave (km/s) = 3.54673 3.59938 3.57315
# Velocity P-wave (km/s) = 8.36993 8.47647 8.42337
#
# Compressibility (1/GPa) = 0.01179785
#
# Stress axis : x y z
#
# Youngs Moduli (GPa) = 48.61408 48.61408 49.99306
#
# Poissons Ratio (x) = 0.30245 0.46121
# Poissons Ratio (y) = 0.30245 0.46121
# Poissons Ratio (z) = 0.44849 0.44849
#
# Static dielectric constant tensor:
#      x y z
#    x 1.501580 0.000000 0.000000 
#    y 0.000000 1.501580 0.000000 
#    z 0.000000 0.000000 1.539270 
# 
# From -- ./inp_files/1086.got.cif
#   From: 2010.05.17/outbox.cif.g08.bks.cpg/sg156_cif.got.tgz:1086.got - 2010.05.20 10:49:08.
