data_PCOD9577462
_publ_section_title
;
Structure prediction by ZEFSAII (Michael W. Deem and Ramdas Pophale) SiO2 
 PCOD9577462
Probable space group: R 3 M
;
_chemical_formula_sum "Si O2"
_cell_formula_units_Z 108
_cell_length_a 22.867261
_cell_length_b 22.867261
_cell_length_c 14.673796
_cell_angle_alpha 90.000000
_cell_angle_beta 90.000000
_cell_angle_gamma 120.000000
_cell_volume 6645.098245
_symmetry_space_group_name_H-M "R 3 M"
_symmetry_group_IT_number 160
_symmetry_cell_setting 'hexagonal'
loop_
_space_group_symop_operation_xyz
x,y,z
-y,x-y,z
-x+y,-x,z
-x+y,y,z
x,x-y,z
-y,-x,z
2/3+x,1/3+y,1/3+z
2/3-y,1/3+x-y,1/3+z
2/3-x+y,1/3-x,1/3+z
2/3-x+y,1/3+y,1/3+z
2/3+x,1/3+x-y,1/3+z
2/3-y,1/3-x,1/3+z
1/3+x,2/3+y,2/3+z
1/3-y,2/3+x-y,2/3+z
1/3-x+y,2/3-x,2/3+z
1/3-x+y,2/3+y,2/3+z
1/3+x,2/3+x-y,2/3+z
1/3-y,2/3-x,2/3+z
loop_
_atom_site_type_symbol
_atom_site_label
_atom_site_fract_x
_atom_site_fract_y
_atom_site_fract_z
Si Si1 0.707257 0.155376 0.520032
Si Si2 0.588611 0.540865 0.870215
Si Si3 0.936340 0.564110 0.671320
Si Si4 0.063858 0.598808 0.540134
Si Si5 0.817150 0.772729 0.003406
Si Si6 0.018129 0.721351 0.686449
O O1 0.767521 0.232480 0.516507
O O2 0.743094 0.109299 0.520070
O O3 0.663459 0.130947 0.611523
O O4 0.656957 0.133387 0.434860
O O5 0.528277 0.471724 0.910671
O O6 0.603489 0.528212 0.767633
O O7 0.652208 0.576340 0.937887
O O8 0.997719 0.571671 0.606421
O O9 0.963884 0.642188 0.697275
O O10 0.067672 0.533836 0.511403
O O11 0.128610 0.651257 0.597581
O O12 0.059063 0.636447 0.451069
O O13 0.889410 0.778819 0.992052
O O14 0.756997 0.694767 0.994861
#
# Coordination Sequence:
#
# PCOD9577462 Si02
#       6
#    18  18  18  18  18  18
#     4  10  19  32  51  77 108 138 174 217 271 330
#     4  10  19  32  52  77 110 146 176 219 271 327
#     4  10  17  31  51  78 106 140 178 214 264 322
#     4  11  20  33  54  77 104 139 182 228 268 319
#     4  11  21  32  51  77 107 143 181 221 272 327
#     4  10  19  32  48  76 110 140 176 219 268 317
#
# _framework density 16.252580999999999
#
# number of rings (size 3 to 8) (size 9 to 14) (size 15 to 20)
#    0.000    1.667    5.000    3.500    0.000    1.333 
#    0.000    5.000    0.000    2.667    0.000    0.000 
#    0.000    0.000    0.000    0.000    0.000    0.000 
#
# Total GULP energy -200600.757874 kJ/mol
# GULP energy per Si atom -5572.243274 kJ/mol
# Density = 1.621559 g / cm^3
# Si number density = 16.252581 Si / 1000 Ang^3
#
#
#
# Elastic Constant Matrix: (Units=GPa)
#
#
# Indices 1 2 3 4 5 6 
#
# 1 51.8606 31.0031 27.7038 1.0527 0.0002 0.0000
# 2 31.0031 51.8606 27.7038 -1.0527 -0.0002 0.0000
# 3 27.7038 27.7038 89.0927 0.0000 0.0000 0.0000
# 4 1.0527 -1.0527 0.0000 10.3554 0.0000 -0.0002
# 5 0.0002 -0.0002 0.0000 0.0000 10.3554 1.0527
# 6 0.0000 0.0000 0.0000 -0.0002 1.0527 10.4288
#
#
#
# Elastic Compliance Matrix: (Units=1/GPa)
#
#
# Indices 1 2 3 4 5 6 
#
# 1 0.031839 -0.016603 -0.004738 -0.004925 -0.000001 0.000000
# 2 -0.016603 0.031839 -0.004738 0.004925 0.000001 0.000000
# 3 -0.004738 -0.004738 0.014171 0.000000 0.000000 0.000000
# 4 -0.004925 0.004925 0.000000 0.097569 0.000000 0.000002
# 5 -0.000001 0.000001 0.000000 0.000000 0.097569 -0.009849
# 6 0.000000 0.000000 0.000000 0.000002 -0.009849 0.096883
#
#
# Mechanical properties :
#
#
# Convention : Reuss Voigt Hill
#
# Bulk Modulus (GPa) = 38.92296 40.62614 39.77455
# Shear Modulus (GPa) = 11.61200 13.32147 12.46674
#
# Velocity S-wave (km/s) = 2.67586 2.86606 2.77259
# Velocity P-wave (km/s) = 5.79204 6.00029 5.89708
#
# Compressibility (1/GPa) = 0.02569178
#
# Stress axis : x y z
#
# Youngs Moduli (GPa) = 31.40836 31.40836 70.56827
#
# Poissons Ratio (x) = 0.52147 0.33433
# Poissons Ratio (y) = 0.52147 0.33433
# Poissons Ratio (z) = 0.14880 0.14880
#
# Static dielectric constant tensor:
#      x y z
#    x 1.556120 0.000000 0.000000 
#    y 0.000000 1.556120 0.000000 
#    z 0.000000 0.000000 1.587650 
# 
# From -- ./inp_files/1682.got.cif
#   From: 2010.05.17/outbox.cif.g08.bks.cpg/sg160_1_cif.got.tgz:1682.got - 2010.05.20 10:51:19.
