data_PCOD9577024
_publ_section_title
;
Structure prediction by ZEFSAII (Michael W. Deem and Ramdas Pophale) SiO2 
 PCOD9577024
Probable space group: R 3 2
;
_chemical_formula_sum "Si O2"
_cell_formula_units_Z 90
_cell_length_a 17.397036
_cell_length_b 17.397036
_cell_length_c 16.302861
_cell_angle_alpha 90.000000
_cell_angle_beta 90.000000
_cell_angle_gamma 120.000000
_cell_volume 4273.118944
_symmetry_space_group_name_H-M "R 3 2"
_symmetry_group_IT_number 155
_symmetry_cell_setting 'hexagonal'
loop_
_space_group_symop_operation_xyz
x,y,z
-y,x-y,z
-x+y,-x,z
x-y,-y,-z
-x,-x+y,-z
y,x,-z
2/3+x,1/3+y,1/3+z
2/3-y,1/3+x-y,1/3+z
2/3-x+y,1/3-x,1/3+z
2/3+x-y,1/3-y,1/3-z
2/3-x,1/3-x+y,1/3-z
2/3+y,1/3+x,1/3-z
1/3+x,2/3+y,2/3+z
1/3-y,2/3+x-y,2/3+z
1/3-x+y,2/3-x,2/3+z
1/3+x-y,2/3-y,2/3-z
1/3-x,2/3-x+y,2/3-z
1/3+y,2/3+x,2/3-z
loop_
_atom_site_type_symbol
_atom_site_label
_atom_site_fract_x
_atom_site_fract_y
_atom_site_fract_z
Si Si1 0.014443 0.499092 0.345187
Si Si2 0.055701 0.857627 0.865885
Si Si3 0.760039 0.811222 0.291940
Si Si4 0.542436 0.893931 0.983085
Si Si5 0.859500 0.796885 0.887577
O O1 0.954584 0.509093 0.415764
O O2 0.943947 0.419282 0.289000
O O3 0.088910 0.476762 0.374633
O O4 0.069169 0.593803 0.299714
O O5 0.022100 0.812615 0.775269
O O6 0.962351 0.833350 0.906307
O O7 0.120784 0.964032 0.873125
O O8 0.666667 0.750891 0.333334
O O9 0.803773 0.909515 0.332343
O O10 0.746369 0.830486 0.198701
O O11 0.594253 0.000000 0.000000
#
# Coordination Sequence:
#
# PCOD9577024 Si02
#       5
#    18  18  18  18  18
#     4  12  23  39  65  98 134 181 228 286 351 422
#     4  11  22  39  64  99 141 177 229 281 351 433
#     4  10  23  42  62  91 131 177 232 279 338 415
#     4  10  22  41  63  90 132 181 230 280 335 417
#     4  11  23  39  65  99 137 183 221 284 355 421
#
# _framework density 21.061900000000001
#
# number of rings (size 3 to 8) (size 9 to 14) (size 15 to 20)
#    0.000    1.200    2.000    4.600    0.000    4.000 
#    1.200    5.000    0.000    0.000    0.000    0.000 
#    0.000    0.000    0.000    0.000    0.000    0.000 
#
# Total GULP energy -167039.990505 kJ/mol
# GULP energy per Si atom -5567.999684 kJ/mol
# Density = 2.101396 g / cm^3
# Si number density = 21.061900 Si / 1000 Ang^3
#
#
#
# Elastic Constant Matrix: (Units=GPa)
#
#
# Indices 1 2 3 4 5 6 
#
# 1 155.7239 65.2914 36.3583 -2.3412 -0.0001 0.0000
# 2 65.2914 155.7239 36.3583 2.3412 0.0001 0.0000
# 3 36.3583 36.3583 50.9550 0.0000 0.0000 0.0000
# 4 -2.3412 2.3412 0.0000 28.8086 0.0000 0.0001
# 5 -0.0001 0.0001 0.0000 0.0000 28.8086 -2.3412
# 6 0.0000 0.0000 0.0000 0.0001 -2.3412 45.2163
#
#
#
# Elastic Compliance Matrix: (Units=1/GPa)
#
#
# Indices 1 2 3 4 5 6 
#
# 1 0.008509 -0.002596 -0.004219 0.000902 0.000000 0.000000
# 2 -0.002596 0.008509 -0.004219 -0.000902 0.000000 0.000000
# 3 -0.004219 -0.004219 0.025646 0.000000 0.000000 0.000000
# 4 0.000902 -0.000902 0.000000 0.034858 0.000000 0.000000
# 5 0.000000 0.000000 0.000000 0.000000 0.034858 0.001805
# 6 0.000000 0.000000 0.000000 0.000000 0.001805 0.022209
#
#
# Mechanical properties :
#
#
# Convention : Reuss Voigt Hill
#
# Bulk Modulus (GPa) = 48.55416 70.93543 59.74480
# Shear Modulus (GPa) = 30.57686 35.52636 33.05161
#
# Velocity S-wave (km/s) = 3.81433 4.11147 3.96569
# Velocity P-wave (km/s) = 6.51935 7.50277 7.02828
#
# Compressibility (1/GPa) = 0.02059556
#
# Stress axis : x y z
#
# Youngs Moduli (GPa) = 117.52725 117.52725 38.99269
#
# Poissons Ratio (x) = 0.30510 0.16451
# Poissons Ratio (y) = 0.30510 0.16451
# Poissons Ratio (z) = 0.49583 0.49583
#
# Static dielectric constant tensor:
#      x y z
#    x 1.799480 0.000000 0.000000 
#    y 0.000000 1.799480 0.000000 
#    z 0.000000 0.000000 1.853350 
# 
# From -- ./inp_files/6133.got.cif
#   From: 2010.05.17/outbox.cif.g08.bks.cpg/sg155_4_cif.got.tgz:6133.got - 2010.05.20 10:44:35.
