data_PCOD9577655
_publ_section_title
;
Structure prediction by ZEFSAII (Michael W. Deem and Ramdas Pophale) SiO2 
 PCOD9577655
Probable space group: P -3 1 M 
;
_chemical_formula_sum "Si O2"
_cell_formula_units_Z 60
_cell_length_a 31.046710
_cell_length_b 31.046710
_cell_length_c 5.306191
_cell_angle_alpha 90.000000
_cell_angle_beta 90.000000
_cell_angle_gamma 120.000000
_cell_volume 4429.397747
_symmetry_space_group_name_H-M "P -3 1 M "
_symmetry_group_IT_number 162
_symmetry_cell_setting 'hexagonal'
loop_
_space_group_symop_operation_xyz
x,y,z
-y,x-y,z
-x+y,-x,z
-y,-x,-z
-x+y,y,-z
x,x-y,-z
-x,-y,-z
y,-x+y,-z
x-y,x,-z
y,x,z
x-y,-y,z
-x,-x+y,z
loop_
_atom_site_type_symbol
_atom_site_label
_atom_site_fract_x
_atom_site_fract_y
_atom_site_fract_z
Si Si1 0.352666 0.060244 0.749999
Si Si2 0.708059 0.826294 0.750000
Si Si3 0.826654 0.885844 0.750000
Si Si4 0.939342 0.444108 0.250000
Si Si5 0.405572 0.345368 0.750000
O O1 0.320938 0.087836 0.750000
O O2 0.386699 0.074077 0.501380
O O3 0.316510 0.000000 0.749999
O O4 0.386699 0.074077 0.998618
O O5 0.696718 0.848359 0.500000
O O6 0.767390 0.847266 0.750000
O O7 0.696718 0.848359 0.000000
O O8 0.837884 0.918942 0.500000
O O9 0.856646 0.856646 0.750000
O O10 0.837884 0.918942 0.000000
O O11 0.923913 0.461957 0.500000
O O12 0.922350 0.386073 0.250000
O O13 0.000000 0.473792 0.250000
O O14 0.923913 0.461957 0.000000
O O15 0.377347 0.377347 0.750000
#
# Coordination Sequence:
#
# PCOD9577655 Si02
#       5
#    12  12  12  12  12
#     4  10  18  29  43  58  80 103 128 165 206 247
#     4  10  20  32  46  64  82 103 131 163 204 248
#     4  10  20  34  52  70  87 105 127 155 192 245
#     4   9  15  23  35  51  74 102 132 165 196 224
#     4   9  17  26  38  57  77 103 134 162 200 238
#
# _framework density 13.545861
#
# number of rings (size 3 to 8) (size 9 to 14) (size 15 to 20)
#    0.000    2.400    0.000    3.600    0.000    4.800 
#    0.000    6.000    0.000    4.000    0.000    0.000 
#    0.000    0.000    0.000    0.000    0.000    0.000 
#
# Total GULP energy -334512.367224 kJ/mol
# GULP energy per Si atom -5575.206120 kJ/mol
# Density = 1.351503 g / cm^3
# Si number density = 13.545861 Si / 1000 Ang^3
#
#
#
# Elastic Constant Matrix: (Units=GPa)
#
#
# Indices 1 2 3 4 5 6 
#
# 1 94.2216 44.5986 65.8991 0.0000 0.0000 0.0000
# 2 44.5986 94.2216 65.8991 0.0000 0.0000 0.0000
# 3 65.8991 65.8991 166.5584 0.0000 0.0000 0.0000
# 4 0.0000 0.0000 0.0000 11.1588 0.0000 0.0000
# 5 0.0000 0.0000 0.0000 0.0000 11.1588 0.0000
# 6 0.0000 0.0000 0.0000 0.0000 0.0000 24.8115
#
#
#
# Elastic Compliance Matrix: (Units=1/GPa)
#
#
# Indices 1 2 3 4 5 6 
#
# 1 0.015845 -0.004307 -0.004565 0.000000 0.000000 0.000000
# 2 -0.004307 0.015845 -0.004565 0.000000 0.000000 0.000000
# 3 -0.004565 -0.004565 0.009616 0.000000 0.000000 0.000000
# 4 0.000000 0.000000 0.000000 0.089615 0.000000 0.000000
# 5 0.000000 0.000000 0.000000 0.000000 0.089615 0.000000
# 6 0.000000 0.000000 0.000000 0.000000 0.000000 0.040304
#
#
# Mechanical properties :
#
#
# Convention : Reuss Voigt Hill
#
# Bulk Modulus (GPa) = 69.29176 78.64390 73.96783
# Shear Modulus (GPa) = 17.09259 21.33282 19.21271
#
# Velocity S-wave (km/s) = 3.55608 3.97275 3.77018
# Velocity P-wave (km/s) = 8.25381 8.90097 8.58349
#
# Compressibility (1/GPa) = 0.01443173
#
# Stress axis : x y z
#
# Youngs Moduli (GPa) = 63.11261 63.11261 103.99281
#
# Poissons Ratio (x) = 0.27184 0.47471
# Poissons Ratio (y) = 0.27184 0.47471
# Poissons Ratio (z) = 0.28810 0.28810
#
# Static dielectric constant tensor:
#      x y z
#    x 1.415630 0.000000 0.000000 
#    y 0.000000 1.415630 0.000000 
#    z 0.000000 0.000000 1.456160 
# 
# From -- ./inp_files/656.got.cif
#   From: 2010.05.17/outbox.cif.g08.bks.cpg/sg162_1_cif.got.tgz:656.got - 2010.05.20 10:53:12.
