data_PCOD9577707
_publ_section_title
;
Structure prediction by ZEFSAII (Michael W. Deem and Ramdas Pophale) SiO2 
 PCOD9577707
Probable space group: P -3 1 M 
;
_chemical_formula_sum "Si O2"
_cell_formula_units_Z 64
_cell_length_a 14.027312
_cell_length_b 14.027312
_cell_length_c 18.001331
_cell_angle_alpha 90.000000
_cell_angle_beta 90.000000
_cell_angle_gamma 120.000000
_cell_volume 3067.497115
_symmetry_space_group_name_H-M "P -3 1 M "
_symmetry_group_IT_number 162
_symmetry_cell_setting 'hexagonal'
loop_
_space_group_symop_operation_xyz
x,y,z
-y,x-y,z
-x+y,-x,z
-y,-x,-z
-x+y,y,-z
x,x-y,-z
-x,-y,-z
y,-x+y,-z
x-y,x,-z
y,x,z
x-y,-y,z
-x,-x+y,z
loop_
_atom_site_type_symbol
_atom_site_label
_atom_site_fract_x
_atom_site_fract_y
_atom_site_fract_z
Si Si1 0.873841 0.238163 0.272519
Si Si2 0.881525 0.120874 0.132904
Si Si3 0.527808 0.874593 0.338715
Si Si4 0.577551 0.453158 0.182799
Si Si5 0.554835 0.869089 0.050555
Si Si6 0.666668 0.333334 0.411851
O O1 0.877457 0.149207 0.218746
O O2 0.784869 0.178429 0.336235
O O3 0.831027 0.304009 0.219986
O O4 0.000000 0.323785 0.295939
O O5 0.781284 0.123049 0.094418
O O6 0.000000 0.210722 0.102157
O O7 0.862645 0.000000 0.124101
O O8 0.495835 0.878570 0.252537
O O9 0.417378 0.788266 0.380610
O O10 0.587673 0.000000 0.366402
O O11 0.543164 0.543164 0.163450
O O12 0.545160 0.382002 0.108423
O O13 0.604302 0.000000 0.025034
O O14 0.524529 0.762265 0.000000
O O15 0.666668 0.333334 0.500000
#
# Coordination Sequence:
#
# PCOD9577707 Si02
#       6
#    12  12  12  12  12   4
#     4  10  19  33  58  90 119 152 201 262 319 366
#     4  10  19  31  49  76 110 148 194 248 310 371
#     4  11  21  39  66  94 127 169 213 257 305 367
#     4   9  18  33  55  83 113 154 210 261 303 362
#     4  10  19  32  50  76 115 159 205 259 318 373
#     4  12  27  42  66 105 142 170 199 243 303 372
#
# _framework density 20.863914999999999
#
# number of rings (size 3 to 8) (size 9 to 14) (size 15 to 20)
#    0.000    1.875    3.750    1.312    0.000    0.375 
#    0.000    0.938    0.000    7.875    0.000    0.000 
#    0.000    2.250    0.000    0.000    0.000    0.000 
#
# Total GULP energy -356726.268540 kJ/mol
# GULP energy per Si atom -5573.847946 kJ/mol
# Density = 2.081643 g / cm^3
# Si number density = 20.863915 Si / 1000 Ang^3
#
#
#
# Elastic Constant Matrix: (Units=GPa)
#
#
# Indices 1 2 3 4 5 6 
#
# 1 107.4096 53.8123 25.5122 0.0000 1.4430 0.0000
# 2 53.8123 107.4095 25.5123 0.0002 -1.4431 -0.0001
# 3 25.5122 25.5123 50.8228 -0.0003 -0.0003 0.0000
# 4 0.0000 0.0002 -0.0003 7.4534 0.0001 -1.4430
# 5 1.4430 -1.4431 -0.0003 0.0001 7.4534 0.0001
# 6 0.0000 -0.0001 0.0000 -1.4430 0.0001 26.7986
#
#
#
# Elastic Compliance Matrix: (Units=1/GPa)
#
#
# Indices 1 2 3 4 5 6 
#
# 1 0.013114 -0.005740 -0.003702 0.000000 -0.003650 0.000000
# 2 -0.005740 0.013114 -0.003702 0.000000 0.003650 0.000000
# 3 -0.003702 -0.003702 0.023393 0.000001 0.000001 0.000000
# 4 0.000000 0.000000 0.000001 0.135580 -0.000001 0.007300
# 5 -0.003650 0.003650 0.000001 -0.000001 0.135580 0.000000
# 6 0.000000 0.000000 0.000000 0.007300 0.000000 0.037709
#
#
# Mechanical properties :
#
#
# Convention : Reuss Voigt Hill
#
# Bulk Modulus (GPa) = 42.85576 52.81285 47.83431
# Shear Modulus (GPa) = 12.73709 19.06143 15.89926
#
# Velocity S-wave (km/s) = 2.47348 3.02587 2.76351
# Velocity P-wave (km/s) = 5.36122 6.12991 5.75841
#
# Compressibility (1/GPa) = 0.02333409
#
# Stress axis : x y z
#
# Youngs Moduli (GPa) = 76.25321 76.25313 42.74848
#
# Poissons Ratio (x) = 0.43770 0.15824
# Poissons Ratio (y) = 0.43770 0.15824
# Poissons Ratio (z) = 0.28227 0.28227
#
# Static dielectric constant tensor:
#      x y z
#    x 1.810860 0.000000 0.000000 
#    y 0.000000 1.810860 0.000000 
#    z 0.000000 0.000000 1.740200 
# 
# From -- ./inp_files/3452.got.cif
#   From: 2010.05.17/outbox.cif.g08.bks.cpg/sg162_2_cif.got.tgz:3452.got - 2010.05.20 10:53:12.
