data_PCOD9577108
_publ_section_title
;
Structure prediction by ZEFSAII (Michael W. Deem and Ramdas Pophale) SiO2 
 PCOD9577108
Probable space group: R 3 2
;
_chemical_formula_sum "Si O2"
_cell_formula_units_Z 108
_cell_length_a 21.737763
_cell_length_b 21.737763
_cell_length_c 14.831195
_cell_angle_alpha 90.000000
_cell_angle_beta 90.000000
_cell_angle_gamma 120.000000
_cell_volume 6069.270245
_symmetry_space_group_name_H-M "R 3 2"
_symmetry_group_IT_number 155
_symmetry_cell_setting 'hexagonal'
loop_
_space_group_symop_operation_xyz
x,y,z
-y,x-y,z
-x+y,-x,z
x-y,-y,-z
-x,-x+y,-z
y,x,-z
2/3+x,1/3+y,1/3+z
2/3-y,1/3+x-y,1/3+z
2/3-x+y,1/3-x,1/3+z
2/3+x-y,1/3-y,1/3-z
2/3-x,1/3-x+y,1/3-z
2/3+y,1/3+x,1/3-z
1/3+x,2/3+y,2/3+z
1/3-y,2/3+x-y,2/3+z
1/3-x+y,2/3-x,2/3+z
1/3+x-y,2/3-y,2/3-z
1/3-x,2/3-x+y,2/3-z
1/3+y,2/3+x,2/3-z
loop_
_atom_site_type_symbol
_atom_site_label
_atom_site_fract_x
_atom_site_fract_y
_atom_site_fract_z
Si Si1 0.717158 0.882364 0.745123
Si Si2 0.733455 0.733455 0.898793
Si Si3 0.874253 0.964870 0.090562
Si Si4 0.831534 0.382967 0.497323
Si Si5 0.137734 0.849864 0.097345
Si Si6 0.066977 0.701181 0.432947
O O1 0.666667 0.846886 0.833334
O O2 0.783775 0.868313 0.749666
O O3 0.673368 0.852797 0.653318
O O4 0.741267 0.965136 0.752754
O O5 0.666667 0.704601 0.833334
O O6 0.782198 0.819510 0.899989
O O7 0.789904 0.709246 0.872402
O O8 0.708774 0.708774 0.000000
O O9 0.888470 0.911145 0.151036
O O10 0.792043 0.917945 0.064391
O O11 0.890407 0.035719 0.141612
O O12 0.919935 0.000000 0.000000
O O13 0.098442 0.798485 0.181061
O O14 0.055152 0.721818 0.333334
O O15 0.000000 0.676636 0.500000
#
# Coordination Sequence:
#
# PCOD9577108 Si02
#       6
#    18  18  18  18  18  18
#     4  11  21  35  58  83 122 165 202 242 308 379
#     4  11  23  40  60  87 121 166 212 255 313 380
#     4  11  21  32  52  83 119 157 197 245 304 370
#     4  11  21  36  54  82 124 162 197 241 308 383
#     4  11  23  38  60  89 121 162 209 258 314 377
#     4  11  22  37  59  90 125 160 204 259 313 370
#
# _framework density 17.794561000000002
#
# number of rings (size 3 to 8) (size 9 to 14) (size 15 to 20)
#    0.000    1.000    3.333    6.333    2.333    0.667 
#    0.000    0.000    0.000    0.000    0.000    0.000 
#    0.000    0.000    6.000    0.000    0.000    0.000 
#
# Total GULP energy -200584.365377 kJ/mol
# GULP energy per Si atom -5571.787927 kJ/mol
# Density = 1.775406 g / cm^3
# Si number density = 17.794561 Si / 1000 Ang^3
#
#
#
# Elastic Constant Matrix: (Units=GPa)
#
#
# Indices 1 2 3 4 5 6 
#
# 1 109.8268 60.8187 59.6771 4.5243 0.0004 0.0000
# 2 60.8187 109.8268 59.6771 -4.5243 -0.0004 0.0000
# 3 59.6771 59.6771 103.8200 0.0000 0.0000 0.0000
# 4 4.5243 -4.5243 0.0000 27.5313 0.0000 -0.0004
# 5 0.0004 -0.0004 0.0000 0.0000 27.5313 4.5243
# 6 0.0000 0.0000 0.0000 -0.0004 4.5243 24.5040
#
#
#
# Elastic Compliance Matrix: (Units=1/GPa)
#
#
# Indices 1 2 3 4 5 6 
#
# 1 0.015422 -0.005622 -0.005633 -0.003458 0.000000 0.000000
# 2 -0.005622 0.015422 -0.005633 0.003458 0.000000 0.000000
# 3 -0.005633 -0.005633 0.016108 0.000000 0.000000 0.000000
# 4 -0.003458 0.003458 0.000000 0.037459 0.000000 0.000001
# 5 0.000000 0.000000 0.000000 0.000000 0.037459 -0.006916
# 6 0.000000 0.000000 0.000000 0.000001 -0.006916 0.042087
#
#
# Mechanical properties :
#
#
# Convention : Reuss Voigt Hill
#
# Bulk Modulus (GPa) = 75.89860 75.97995 75.93927
# Shear Modulus (GPa) = 24.73730 25.46670 25.10200
#
# Velocity S-wave (km/s) = 3.73253 3.78716 3.75994
# Velocity P-wave (km/s) = 7.83077 7.86858 7.84970
#
# Compressibility (1/GPa) = 0.01317547
#
# Stress axis : x y z
#
# Youngs Moduli (GPa) = 64.84358 64.84358 62.08014
#
# Poissons Ratio (x) = 0.36452 0.34971
# Poissons Ratio (y) = 0.36452 0.34971
# Poissons Ratio (z) = 0.36528 0.36528
#
# Static dielectric constant tensor:
#      x y z
#    x 1.655150 0.000000 0.000000 
#    y 0.000000 1.655150 0.000000 
#    z 0.000000 0.000000 1.612180 
# 
# From -- ./inp_files/5123.got.cif
#   From: 2010.05.17/outbox.cif.g08.bks.cpg/sg155_3_cif.got.tgz:5123.got - 2010.05.20 10:44:35.
