data_PCOD9577708
_publ_section_title
;
Structure prediction by ZEFSAII (Michael W. Deem and Ramdas Pophale) SiO2 
 PCOD9577708
Probable space group: P -3 1 M 
;
_chemical_formula_sum "Si O2"
_cell_formula_units_Z 96
_cell_length_a 14.315137
_cell_length_b 14.315137
_cell_length_c 28.315389
_cell_angle_alpha 90.000000
_cell_angle_beta 90.000000
_cell_angle_gamma 120.000000
_cell_volume 5025.093900
_symmetry_space_group_name_H-M "P -3 1 M "
_symmetry_group_IT_number 162
_symmetry_cell_setting 'hexagonal'
loop_
_space_group_symop_operation_xyz
x,y,z
-y,x-y,z
-x+y,-x,z
-y,-x,-z
-x+y,y,-z
x,x-y,-z
-x,-y,-z
y,-x+y,-z
x-y,x,-z
y,x,z
x-y,-y,z
-x,-x+y,z
loop_
_atom_site_type_symbol
_atom_site_label
_atom_site_fract_x
_atom_site_fract_y
_atom_site_fract_z
Si Si1 0.126356 0.439451 0.469576
Si Si2 0.123939 0.802440 0.407550
Si Si3 0.116977 0.232138 0.693374
Si Si4 0.876205 0.408870 0.280912
Si Si5 0.173197 0.421568 0.759655
Si Si6 0.458808 0.587428 0.613992
Si Si7 0.742799 0.871277 0.050551
Si Si8 0.129395 0.869946 0.155806
O O1 0.236898 0.473796 0.500000
O O2 0.122261 0.338186 0.443157
O O3 0.152685 0.534856 0.431636
O O4 0.000000 0.393594 0.487813
O O5 0.130804 0.868382 0.361208
O O6 0.150551 0.707670 0.394448
O O7 0.000000 0.743366 0.424751
O O8 0.207472 0.207472 0.710955
O O9 0.120666 0.330664 0.719851
O O10 0.000000 0.130246 0.700865
O O11 0.873750 0.499900 0.248696
O O12 0.807845 0.297670 0.254313
O O13 0.831515 0.406097 0.334219
O O14 0.000000 0.439289 0.286081
O O15 0.155077 0.354674 0.807434
O O16 0.516851 0.516851 0.618235
O O17 0.820666 0.820666 0.049756
O O18 0.691638 0.842832 0.102559
O O19 0.813942 0.000000 0.050489
O O20 0.681132 0.840566 0.000000
O O21 0.000000 0.825234 0.158485
O O22 0.196483 0.000000 0.164643
#
# Coordination Sequence:
#
# PCOD9577708 Si02
#       8
#    12  12  12  12  12  12  12  12
#     4  11  23  40  62  89 117 145 178 218 273 331
#     4  10  20  38  61  83 113 148 182 218 261 317
#     4  11  21  35  56  86 121 155 184 214 261 331
#     4  11  22  39  57  79 110 144 187 236 279 333
#     4  12  23  36  55  78 107 148 192 240 294 339
#     4   9  20  38  59  82 108 140 180 226 267 315
#     4   8  13  22  39  66 104 150 196 237 277 330
#     4  10  19  31  49  79 118 158 195 232 283 347
#
# _framework density 19.104120000000002
#
# number of rings (size 3 to 8) (size 9 to 14) (size 15 to 20)
#    0.000    1.750    1.250    4.375    0.000    3.000 
#    0.750    3.125    0.000    3.000    0.000    0.875 
#    0.000    5.000    0.000    0.000    0.000    0.000 
#
# Total GULP energy -534970.984677 kJ/mol
# GULP energy per Si atom -5572.614424 kJ/mol
# Density = 1.906064 g / cm^3
# Si number density = 19.104120 Si / 1000 Ang^3
#
#
#
# Elastic Constant Matrix: (Units=GPa)
#
#
# Indices 1 2 3 4 5 6 
#
# 1 76.8926 27.7428 23.5036 0.0000 -0.8599 0.0000
# 2 27.7428 76.8926 23.5036 0.0000 0.8599 0.0000
# 3 23.5036 23.5036 90.3307 0.0000 0.0000 0.0000
# 4 0.0000 0.0000 0.0000 21.5761 0.0000 0.8599
# 5 -0.8599 0.8599 0.0000 0.0000 21.5761 0.0000
# 6 0.0000 0.0000 0.0000 0.8599 0.0000 24.5749
#
#
#
# Elastic Compliance Matrix: (Units=1/GPa)
#
#
# Indices 1 2 3 4 5 6 
#
# 1 0.015598 -0.004776 -0.002816 0.000000 0.000812 0.000000
# 2 -0.004776 0.015598 -0.002816 0.000000 -0.000812 0.000000
# 3 -0.002816 -0.002816 0.012536 0.000000 0.000000 0.000000
# 4 0.000000 0.000000 0.000000 0.046412 0.000000 -0.001624
# 5 0.000812 -0.000812 0.000000 0.000000 0.046412 0.000000
# 6 0.000000 0.000000 0.000000 -0.001624 0.000000 0.040749
#
#
# Mechanical properties :
#
#
# Convention : Reuss Voigt Hill
#
# Bulk Modulus (GPa) = 43.63680 43.73511 43.68596
# Shear Modulus (GPa) = 24.30016 24.83648 24.56832
#
# Velocity S-wave (km/s) = 3.57036 3.60954 3.59001
# Velocity P-wave (km/s) = 6.31568 6.34937 6.33255
#
# Compressibility (1/GPa) = 0.02291644
#
# Stress axis : x y z
#
# Youngs Moduli (GPa) = 64.10999 64.10999 79.77175
#
# Poissons Ratio (x) = 0.30620 0.22462
# Poissons Ratio (y) = 0.30620 0.22462
# Poissons Ratio (z) = 0.18052 0.18052
#
# Static dielectric constant tensor:
#      x y z
#    x 1.638560 0.000000 0.000000 
#    y 0.000000 1.638560 0.000000 
#    z 0.000000 0.000000 1.737420 
# 
# From -- ./inp_files/4106.got.cif
#   From: 2010.05.17/outbox.cif.g08.bks.cpg/sg162_3_cif.got.tgz:4106.got - 2010.05.20 10:53:12.
