data_PCOD9577916
_publ_section_title
;
Structure prediction by ZEFSAII (Michael W. Deem and Ramdas Pophale) SiO2 
 PCOD9577916
Probable space group: P -3 1 M 
;
_chemical_formula_sum "Si O2"
_cell_formula_units_Z 72
_cell_length_a 14.313283
_cell_length_b 14.313283
_cell_length_c 18.793986
_cell_angle_alpha 90.000000
_cell_angle_beta 90.000000
_cell_angle_gamma 120.000000
_cell_volume 3334.479464
_symmetry_space_group_name_H-M "P -3 1 M "
_symmetry_group_IT_number 162
_symmetry_cell_setting 'hexagonal'
loop_
_space_group_symop_operation_xyz
x,y,z
-y,x-y,z
-x+y,-x,z
-y,-x,-z
-x+y,y,-z
x,x-y,-z
-x,-y,-z
y,-x+y,-z
x-y,x,-z
y,x,z
x-y,-y,z
-x,-x+y,z
loop_
_atom_site_type_symbol
_atom_site_label
_atom_site_fract_x
_atom_site_fract_y
_atom_site_fract_z
Si Si1 0.687087 0.807665 0.427081
Si Si2 0.882568 0.765333 0.267157
Si Si3 0.129165 0.668590 0.966409
Si Si4 0.821720 0.272317 0.197021
Si Si5 0.130992 0.636346 0.435828
Si Si6 0.121164 0.521150 0.724327
O O1 0.744025 0.872013 0.500000
O O2 0.701655 0.701655 0.427475
O O3 0.731218 0.860007 0.350242
O O4 0.575172 0.808686 0.432415
O O5 0.867444 0.867444 0.260403
O O6 0.800054 0.673921 0.215334
O O7 0.000000 0.792000 0.248152
O O8 0.160910 0.686739 0.883317
O O9 0.000000 0.625529 0.974598
O O10 0.215625 0.784376 0.000000
O O11 0.145529 0.572765 0.000000
O O12 0.879227 0.376245 0.245661
O O13 0.699673 0.201950 0.226554
O O14 0.158786 0.579393 0.500000
O O15 0.154002 0.608244 0.357787
O O16 0.000000 0.586860 0.440108
O O17 0.000000 0.420405 0.726843
#
# Coordination Sequence:
#
# PCOD9577916 Si02
#       6
#    12  12  12  12  12  12
#     4  11  23  40  65  96 136 187 244 300 359 419
#     4  11  23  40  64  97 140 189 239 288 344 413
#     4  11  25  46  74 109 144 185 232 284 355 435
#     4  12  24  43  70 102 137 173 226 284 352 429
#     4  10  22  40  64  94 132 187 249 307 366 420
#     4  11  24  43  66  98 139 181 232 296 360 416
#
# _framework density 21.592576000000001
#
# number of rings (size 3 to 8) (size 9 to 14) (size 15 to 20)
#    0.000    1.000    1.667    5.167    2.333    2.667 
#    0.000    0.000    0.000    7.000    0.000    0.000 
#    0.000    0.000    0.000    0.000    0.000    0.000 
#
# Total GULP energy -401938.661982 kJ/mol
# GULP energy per Si atom -5582.481416 kJ/mol
# Density = 2.154343 g / cm^3
# Si number density = 21.592576 Si / 1000 Ang^3
#
#
#
# Elastic Constant Matrix: (Units=GPa)
#
#
# Indices 1 2 3 4 5 6 
#
# 1 135.7784 62.6069 61.7832 0.0000 -5.8900 0.0000
# 2 62.6069 135.7784 61.7832 0.0000 5.8900 0.0000
# 3 61.7832 61.7832 165.2992 0.0000 0.0000 0.0000
# 4 0.0000 0.0000 0.0000 30.5000 0.0000 5.8900
# 5 -5.8900 5.8900 0.0000 0.0000 30.5000 0.0000
# 6 0.0000 0.0000 0.0000 5.8900 0.0000 36.5858
#
#
#
# Elastic Compliance Matrix: (Units=1/GPa)
#
#
# Indices 1 2 3 4 5 6 
#
# 1 0.010338 -0.003767 -0.002456 0.000000 0.002724 0.000000
# 2 -0.003767 0.010338 -0.002456 0.000000 -0.002724 0.000000
# 3 -0.002456 -0.002456 0.007885 0.000000 0.000000 0.000000
# 4 0.000000 0.000000 0.000000 0.033839 0.000000 -0.005448
# 5 0.002724 -0.002724 0.000000 0.000000 0.033839 0.000000
# 6 0.000000 0.000000 0.000000 -0.005448 0.000000 0.028210
#
#
# Mechanical properties :
#
#
# Convention : Reuss Voigt Hill
#
# Bulk Modulus (GPa) = 89.26210 89.91140 89.58675
# Shear Modulus (GPa) = 34.35461 36.22932 35.29196
#
# Velocity S-wave (km/s) = 3.99311 4.10061 4.04722
# Velocity P-wave (km/s) = 7.91763 8.00939 7.96364
#
# Compressibility (1/GPa) = 0.01120296
#
# Stress axis : x y z
#
# Youngs Moduli (GPa) = 96.73362 96.73362 126.81688
#
# Poissons Ratio (x) = 0.36443 0.31143
# Poissons Ratio (y) = 0.36443 0.31143
# Poissons Ratio (z) = 0.23755 0.23755
#
# Static dielectric constant tensor:
#      x y z
#    x 1.841290 0.000000 0.000000 
#    y 0.000000 1.841290 0.000000 
#    z 0.000000 0.000000 1.807010 
# 
# From -- ./inp_files/3517.got.cif
#   From: 2010.05.17/outbox.cif.g08.bks.cpg/sg162_2_cif.got.tgz:3517.got - 2010.05.20 10:53:12.
