data_PCOD9577289
_publ_section_title
;
Structure prediction by ZEFSAII (Michael W. Deem and Ramdas Pophale) SiO2 
 PCOD9577289
Probable space group: P 3 C 1
;
_chemical_formula_sum "Si O2"
_cell_formula_units_Z 24
_cell_length_a 13.641184
_cell_length_b 13.641184
_cell_length_c 5.549040
_cell_angle_alpha 90.000000
_cell_angle_beta 90.000000
_cell_angle_gamma 120.000000
_cell_volume 894.236971
_symmetry_space_group_name_H-M "P 3 C 1"
_symmetry_group_IT_number 158
_symmetry_cell_setting 'hexagonal'
loop_
_space_group_symop_operation_xyz
x,y,z
-y,x-y,z
-x+y,-x,z
-x+y,y,1/2+z
x,x-y,1/2+z
-y,-x,1/2+z
loop_
_atom_site_type_symbol
_atom_site_label
_atom_site_fract_x
_atom_site_fract_y
_atom_site_fract_z
Si Si1 0.871962 0.232806 0.020900
Si Si2 0.530221 0.041024 0.624141
Si Si3 0.173573 0.726860 0.116164
Si Si4 0.066636 0.186033 0.081190
O O1 0.787531 0.183667 0.252744
O O2 0.972537 0.361106 0.086298
O O3 0.949862 0.178945 0.015981
O O4 0.561261 0.105508 0.875788
O O5 0.404629 0.930736 0.620526
O O6 0.243457 0.753442 0.864094
O O7 0.128696 0.817270 0.111490
O O8 0.092167 0.138590 0.846298
#
# Coordination Sequence:
#
# PCOD9577289 Si02
#       4
#     6   6   6   6
#     4  12  26  44  71 110 153 213 272 321 403 495
#     4  12  23  42  74 108 152 208 269 335 405 482
#     4  10  20  36  64 102 136 181 245 313 393 475
#     4  10  19  38  67  98 135 180 240 309 385 470
#
# _framework density 26.838525000000001
#
# number of rings (size 3 to 8) (size 9 to 14) (size 15 to 20)
#    0.000    1.000    0.000   10.500    0.000    0.000 
#    0.000    0.000    0.000   73.000    0.000    0.000 
#    0.000    0.000    0.000    0.000    0.000    0.000 
#
# Total GULP energy -133717.794650 kJ/mol
# GULP energy per Si atom -5571.574777 kJ/mol
# Density = 2.677744 g / cm^3
# Si number density = 26.838525 Si / 1000 Ang^3
#
#
#
# Elastic Constant Matrix: (Units=GPa)
#
#
# Indices 1 2 3 4 5 6 
#
# 1 113.1002 15.6122 16.7720 0.9464 0.0000 0.0000
# 2 15.6122 113.1002 16.7720 -0.9464 0.0000 0.0000
# 3 16.7720 16.7720 262.0295 0.0000 0.0000 0.0000
# 4 0.9464 -0.9464 0.0000 48.2124 0.0000 0.0000
# 5 0.0000 0.0000 0.0000 0.0000 48.2124 0.9464
# 6 0.0000 0.0000 0.0000 0.0000 0.9464 48.7440
#
#
#
# Elastic Compliance Matrix: (Units=1/GPa)
#
#
# Indices 1 2 3 4 5 6 
#
# 1 0.009081 -0.001180 -0.000506 -0.000201 0.000000 0.000000
# 2 -0.001180 0.009081 -0.000506 0.000201 0.000000 0.000000
# 3 -0.000506 -0.000506 0.003881 0.000000 0.000000 0.000000
# 4 -0.000201 0.000201 0.000000 0.020749 0.000000 0.000000
# 5 0.000000 0.000000 0.000000 0.000000 0.020749 -0.000403
# 6 0.000000 0.000000 0.000000 0.000000 -0.000403 0.020523
#
#
# Mechanical properties :
#
#
# Convention : Reuss Voigt Hill
#
# Bulk Modulus (GPa) = 56.62417 65.17136 60.89776
# Shear Modulus (GPa) = 53.00199 58.30533 55.65366
#
# Velocity S-wave (km/s) = 4.44875 4.66601 4.55867
# Velocity P-wave (km/s) = 6.89437 7.30509 7.10270
#
# Compressibility (1/GPa) = 0.01766030
#
# Stress axis : x y z
#
# Youngs Moduli (GPa) = 110.11610 110.11610 257.65852
#
# Poissons Ratio (x) = 0.12997 0.13031
# Poissons Ratio (y) = 0.12997 0.13031
# Poissons Ratio (z) = 0.05569 0.05569
#
# Static dielectric constant tensor:
#      x y z
#    x 2.176390 0.000000 0.000000 
#    y 0.000000 2.176390 0.000000 
#    z 0.000000 0.000000 2.224080 
# 
# From -- ./inp_files/13.got.cif
#   From: 2010.05.17/outbox.cif.g08.bks.cpg/sg158_cif.got.tgz:13.got - 2010.05.20 10:49:59.
