data_PCOD9577693
_publ_section_title
;
Structure prediction by ZEFSAII (Michael W. Deem and Ramdas Pophale) SiO2 
 PCOD9577693
Probable space group: P -3 1 M 
;
_chemical_formula_sum "Si O2"
_cell_formula_units_Z 60
_cell_length_a 17.911791
_cell_length_b 17.911791
_cell_length_c 12.467142
_cell_angle_alpha 90.000000
_cell_angle_beta 90.000000
_cell_angle_gamma 120.000000
_cell_volume 3463.981501
_symmetry_space_group_name_H-M "P -3 1 M "
_symmetry_group_IT_number 162
_symmetry_cell_setting 'hexagonal'
loop_
_space_group_symop_operation_xyz
x,y,z
-y,x-y,z
-x+y,-x,z
-y,-x,-z
-x+y,y,-z
x,x-y,-z
-x,-y,-z
y,-x+y,-z
x-y,x,-z
y,x,z
x-y,-y,z
-x,-x+y,z
loop_
_atom_site_type_symbol
_atom_site_label
_atom_site_fract_x
_atom_site_fract_y
_atom_site_fract_z
Si Si1 0.494736 0.828013 0.959867
Si Si2 0.444516 0.226549 0.753945
Si Si3 0.903216 0.561631 0.582329
Si Si4 0.675609 0.775088 0.922120
Si Si5 0.487813 0.097736 0.659800
O O1 0.510402 0.819394 0.834086
O O2 0.428424 0.856847 0.000000
O O3 0.461387 0.730694 0.000000
O O4 0.588069 0.883777 0.015999
O O5 0.426838 0.258743 0.642981
O O6 0.359175 0.156802 0.815565
O O7 0.495647 0.174732 0.733332
O O8 0.895042 0.472917 0.627575
O O9 0.895908 0.551909 0.454252
O O10 0.000000 0.636012 0.608564
O O11 0.736563 0.736563 0.901827
O O12 0.714638 0.857319 0.000000
O O13 0.426636 0.000000 0.703612
#
# Coordination Sequence:
#
# PCOD9577693 Si02
#       5
#    12  12  12  12  12
#     4   9  20  33  46  68 101 137 168 213 252 294
#     4  10  19  30  52  73  93 131 174 213 256 299
#     4   9  19  33  49  70  99 132 169 210 260 302
#     4   9  20  36  52  74  99 128 166 212 262 310
#     4   9  18  34  50  69  99 133 170 215 253 303
#
# _framework density 17.321110000000001
#
# number of rings (size 3 to 8) (size 9 to 14) (size 15 to 20)
#    0.000    3.200    0.000    2.600    5.600    3.600 
#    1.200    0.000    0.000    0.200    0.000    0.000 
#    0.000    0.000    0.000    0.000    0.000   49.400 
#
# Total GULP energy -334150.400161 kJ/mol
# GULP energy per Si atom -5569.173336 kJ/mol
# Density = 1.728169 g / cm^3
# Si number density = 17.321110 Si / 1000 Ang^3
#
#
#
# Elastic Constant Matrix: (Units=GPa)
#
#
# Indices 1 2 3 4 5 6 
#
# 1 60.2354 24.4755 12.6360 0.0001 -1.2905 0.0000
# 2 24.4755 60.2354 12.6360 -0.0001 1.2905 0.0000
# 3 12.6360 12.6360 38.8152 0.0000 0.0000 0.0000
# 4 0.0001 -0.0001 0.0000 14.7071 0.0000 1.2905
# 5 -1.2905 1.2905 0.0000 0.0000 14.7071 0.0001
# 6 0.0000 0.0000 0.0000 1.2905 0.0001 17.8800
#
#
#
# Elastic Compliance Matrix: (Units=1/GPa)
#
#
# Indices 1 2 3 4 5 6 
#
# 1 0.020609 -0.007534 -0.004256 0.000000 0.002469 0.000000
# 2 -0.007534 0.020609 -0.004256 0.000000 -0.002469 0.000000
# 3 -0.004256 -0.004256 0.028534 0.000000 0.000000 0.000000
# 4 0.000000 0.000000 0.000000 0.068428 0.000000 -0.004939
# 5 0.002469 -0.002469 0.000000 0.000000 0.068428 0.000000
# 6 0.000000 0.000000 0.000000 -0.004939 0.000000 0.056285
#
#
# Mechanical properties :
#
#
# Convention : Reuss Voigt Hill
#
# Bulk Modulus (GPa) = 26.55462 28.75345 27.65404
# Shear Modulus (GPa) = 16.25816 16.76140 16.50978
#
# Velocity S-wave (km/s) = 3.06703 3.11414 3.09068
# Velocity P-wave (km/s) = 5.28264 5.43753 5.36065
#
# Compressibility (1/GPa) = 0.03765823
#
# Stress axis : x y z
#
# Youngs Moduli (GPa) = 48.52346 48.52346 35.04544
#
# Poissons Ratio (x) = 0.36557 0.14917
# Poissons Ratio (y) = 0.36557 0.14917
# Poissons Ratio (z) = 0.20653 0.20653
#
# Static dielectric constant tensor:
#      x y z
#    x 1.588710 0.000000 0.000000 
#    y 0.000000 1.588710 0.000000 
#    z 0.000000 0.000000 1.653170 
# 
# From -- ./inp_files/2321.got.cif
#   From: 2010.05.17/outbox.cif.g08.bks.cpg/sg162_2_cif.got.tgz:2321.got - 2010.05.20 10:53:12.
