data_PCOD9577585
_publ_section_title
;
Structure prediction by ZEFSAII (Michael W. Deem and Ramdas Pophale) SiO2 
 PCOD9577585
Probable space group: R 3 C
;
_chemical_formula_sum "Si O2"
_cell_formula_units_Z 66
_cell_length_a 12.365204
_cell_length_b 12.365204
_cell_length_c 18.728125
_cell_angle_alpha 90.000000
_cell_angle_beta 90.000000
_cell_angle_gamma 120.000000
_cell_volume 2479.861936
_symmetry_space_group_name_H-M "R 3 C"
_symmetry_group_IT_number 161
_symmetry_cell_setting 'hexagonal'
loop_
_space_group_symop_operation_xyz
x,y,z
-y,x-y,z
-x+y,-x,z
-x+y,y,1/2+z
x,x-y,1/2+z
-y,-x,1/2+z
2/3+x,1/3+y,1/3+z
2/3-y,1/3+x-y,1/3+z
2/3-x+y,1/3-x,1/3+z
2/3-x+y,1/3+y,5/6+z
2/3+x,1/3+x-y,5/6+z
2/3-y,1/3-x,5/6+z
1/3+x,2/3+y,2/3+z
1/3-y,2/3+x-y,2/3+z
1/3-x+y,2/3-x,2/3+z
1/3-x+y,2/3+y,1/6+z
1/3+x,2/3+x-y,1/6+z
1/3-y,2/3-x,1/6+z
loop_
_atom_site_type_symbol
_atom_site_label
_atom_site_fract_x
_atom_site_fract_y
_atom_site_fract_z
Si Si1 0.000000 0.000000 0.385414
Si Si2 0.000000 0.000000 0.714393
Si Si3 0.443150 0.318039 0.959977
Si Si4 0.313336 0.273831 0.481293
Si Si5 0.194528 0.924947 0.424710
O O1 0.000000 0.000000 0.299591
O O2 0.879386 0.875799 0.413489
O O3 0.882534 0.007501 0.682614
O O4 0.480855 0.390297 0.884519
O O5 0.315530 0.321121 0.976051
O O6 0.408161 0.000693 0.016667
O O7 0.385211 0.214923 0.442306
O O8 0.209397 0.295203 0.445348
#
# Coordination Sequence:
#
# PCOD9577585 Si02
#       5
#     6   6  18  18  18
#     4  12  24  46  71 100 147 192 235 293 370 438
#     4  12  30  46  65 115 153 189 235 308 361 423
#     4  10  26  45  73 103 147 188 241 296 359 433
#     4  10  23  45  72 107 134 193 235 300 358 432
#     4  10  23  44  75 101 137 188 244 295 360 436
#
# _framework density 26.614384999999999
#
# number of rings (size 3 to 8) (size 9 to 14) (size 15 to 20)
#    1.636    0.000    2.727    0.000    7.636    2.182 
#    4.909    0.000    0.000    0.000    0.000    0.000 
#    0.000    0.000    0.000    0.000    0.000    0.000 
#
# Total GULP energy -122987.807029 kJ/mol
# GULP energy per Si atom -5590.354865 kJ/mol
# Density = 2.655381 g / cm^3
# Si number density = 26.614385 Si / 1000 Ang^3
#
#
#
# Elastic Constant Matrix: (Units=GPa)
#
#
# Indices 1 2 3 4 5 6 
#
# 1 113.9255 17.8696 30.1900 11.2670 0.0000 0.0000
# 2 17.8696 113.9255 30.1900 -11.2670 0.0000 0.0000
# 3 30.1900 30.1900 89.0254 0.0000 0.0000 0.0000
# 4 11.2670 -11.2670 0.0000 41.7012 0.0000 0.0000
# 5 0.0000 0.0000 0.0000 0.0000 41.7012 11.2670
# 6 0.0000 0.0000 0.0000 0.0000 11.2670 48.0280
#
#
#
# Elastic Compliance Matrix: (Units=1/GPa)
#
#
# Indices 1 2 3 4 5 6 
#
# 1 0.010049 -0.001066 -0.003046 -0.003003 0.000000 0.000000
# 2 -0.001066 0.010049 -0.003046 0.003003 0.000000 0.000000
# 3 -0.003046 -0.003046 0.013299 0.000000 0.000000 0.000000
# 4 -0.003003 0.003003 0.000000 0.025603 0.000000 0.000000
# 5 0.000000 0.000000 0.000000 0.000000 0.025603 -0.006006
# 6 0.000000 0.000000 0.000000 0.000000 -0.006006 0.022230
#
#
# Mechanical properties :
#
#
# Convention : Reuss Voigt Hill
#
# Bulk Modulus (GPa) = 52.41131 52.59729 52.50430
# Shear Modulus (GPa) = 39.21241 42.19450 40.70346
#
# Velocity S-wave (km/s) = 3.84259 3.98603 3.91497
# Velocity P-wave (km/s) = 6.27877 6.40236 6.34087
#
# Compressibility (1/GPa) = 0.01907985
#
# Stress axis : x y z
#
# Youngs Moduli (GPa) = 99.51090 99.51090 75.19423
#
# Poissons Ratio (x) = 0.10608 0.22907
# Poissons Ratio (y) = 0.10608 0.22907
# Poissons Ratio (z) = 0.30315 0.30315
#
# Static dielectric constant tensor:
#      x y z
#    x 2.093690 0.000000 0.000000 
#    y 0.000000 2.093690 0.000000 
#    z 0.000000 0.000000 2.138750 
# 
# From -- ./inp_files/1281.got.cif
#   From: 2010.05.17/outbox.cif.g08.bks.cpg/sg161_cif.got.tgz:1281.got - 2010.05.20 10:52:32.
