data_PCOD9577359
_publ_section_title
;
Structure prediction by ZEFSAII (Michael W. Deem and Ramdas Pophale) SiO2 
 PCOD9577359
Probable space group: P 3 1 C
;
_chemical_formula_sum "Si O2"
_cell_formula_units_Z 48
_cell_length_a 11.388835
_cell_length_b 11.388835
_cell_length_c 20.613041
_cell_angle_alpha 90.000000
_cell_angle_beta 90.000000
_cell_angle_gamma 120.000000
_cell_volume 2315.428106
_symmetry_space_group_name_H-M "P 3 1 C"
_symmetry_group_IT_number 159
_symmetry_cell_setting 'hexagonal'
loop_
_space_group_symop_operation_xyz
x,y,z
-y,x-y,z
-x+y,-x,z
y,x,1/2+z
x-y,-y,1/2+z
-x,-x+y,1/2+z
loop_
_atom_site_type_symbol
_atom_site_label
_atom_site_fract_x
_atom_site_fract_y
_atom_site_fract_z
Si Si1 0.843343 0.990899 0.130130
Si Si2 0.284082 0.370132 0.531766
Si Si3 0.621556 0.566836 0.081201
Si Si4 0.015729 0.416636 0.371355
Si Si5 0.272198 0.375048 0.385081
Si Si6 0.092166 0.737681 0.242850
Si Si7 0.509631 0.182403 0.490743
Si Si8 0.568324 0.595589 0.226849
O O1 0.747791 0.989334 0.074541
O O2 0.992878 0.122548 0.126070
O O3 0.771478 0.988459 0.196155
O O4 0.421670 0.502780 0.554270
O O5 0.165575 0.404194 0.549178
O O6 0.274005 0.326542 0.457162
O O7 0.626712 0.574189 0.159465
O O8 0.573072 0.667105 0.051946
O O9 0.140610 0.391932 0.382485
O O10 0.087147 0.579414 0.379201
O O11 0.958973 0.379032 0.297782
O O12 0.900676 0.341814 0.425458
O O13 0.260985 0.304487 0.316284
O O14 0.251890 0.844496 0.231310
O O15 0.070702 0.590221 0.226663
O O16 0.663248 0.205768 0.491998
#
# Coordination Sequence:
#
# PCOD9577359 Si02
#       8
#     6   6   6   6   6   6   6   6
#     4  10  24  44  61  81 129 176 208 254 319 367
#     4  12  22  41  65  96 129 161 207 265 320 389
#     4  12  24  40  66  97 127 160 206 259 329 381
#     4  10  19  42  60  95 128 161 204 262 320 370
#     4  10  19  35  66  93 123 163 208 261 317 375
#     4  10  20  40  64  97 125 161 215 266 313 371
#     4  10  24  40  60  91 125 171 202 255 316 370
#     4  10  22  36  66  96 126 161 208 262 316 375
#
# _framework density 20.730508
#
# number of rings (size 3 to 8) (size 9 to 14) (size 15 to 20)
#    0.500    1.000    3.750    1.500    1.750    3.000 
#    2.250    5.000    0.000    0.000    0.000    0.000 
#    0.000    0.000    0.000    0.000    0.000    0.000 
#
# Total GULP energy -267747.270218 kJ/mol
# GULP energy per Si atom -5578.068130 kJ/mol
# Density = 2.068332 g / cm^3
# Si number density = 20.730508 Si / 1000 Ang^3
#
#
#
# Elastic Constant Matrix: (Units=GPa)
#
#
# Indices 1 2 3 4 5 6 
#
# 1 64.9191 10.0179 24.8403 0.0000 -0.2605 0.0000
# 2 10.0179 64.9191 24.8403 0.0000 0.2605 0.0000
# 3 24.8403 24.8403 155.2217 0.0000 0.0000 0.0000
# 4 0.0000 0.0000 0.0000 19.4084 0.0000 0.2605
# 5 -0.2605 0.2605 0.0000 0.0000 19.4084 0.0000
# 6 0.0000 0.0000 0.0000 0.2605 0.0000 27.4506
#
#
#
# Elastic Compliance Matrix: (Units=1/GPa)
#
#
# Indices 1 2 3 4 5 6 
#
# 1 0.016573 -0.001644 -0.002389 0.000000 0.000244 0.000000
# 2 -0.001644 0.016573 -0.002389 0.000000 -0.000244 0.000000
# 3 -0.002389 -0.002389 0.007207 0.000000 0.000000 0.000000
# 4 0.000000 0.000000 0.000000 0.051531 0.000000 -0.000489
# 5 0.000244 -0.000244 0.000000 0.000000 0.051531 0.000000
# 6 0.000000 0.000000 0.000000 -0.000489 0.000000 0.036434
#
#
# Mechanical properties :
#
#
# Convention : Reuss Voigt Hill
#
# Bulk Modulus (GPa) = 36.35338 44.93967 40.64652
# Shear Modulus (GPa) = 24.76952 28.27757 26.52354
#
# Velocity S-wave (km/s) = 3.46039 3.69732 3.58081
# Velocity P-wave (km/s) = 5.79137 6.32076 6.06185
#
# Compressibility (1/GPa) = 0.02750776
#
# Stress axis : x y z
#
# Youngs Moduli (GPa) = 60.34046 60.34046 138.75339
#
# Poissons Ratio (x) = 0.09921 0.33148
# Poissons Ratio (y) = 0.09921 0.33148
# Poissons Ratio (z) = 0.14415 0.14415
#
# Static dielectric constant tensor:
#      x y z
#    x 1.748840 0.000000 0.000000 
#    y 0.000000 1.748840 0.000000 
#    z 0.000000 0.000000 1.765680 
# 
# From -- ./inp_files/1212.got.cif
#   From: 2010.05.17/outbox.cif.g08.bks.cpg/sg159_cif.got.tgz:1212.got - 2010.05.20 10:50:30.
