data_PCOD9577220
_publ_section_title
;
Structure prediction by ZEFSAII (Michael W. Deem and Ramdas Pophale) SiO2 
 PCOD9577220
Probable space group: P 3 M 1
;
_chemical_formula_sum "Si O2"
_cell_formula_units_Z 48
_cell_length_a 12.983907
_cell_length_b 12.983907
_cell_length_c 20.599567
_cell_angle_alpha 90.000000
_cell_angle_beta 90.000000
_cell_angle_gamma 120.000000
_cell_volume 3007.457616
_symmetry_space_group_name_H-M "P 3 M 1"
_symmetry_group_IT_number 156
_symmetry_cell_setting 'hexagonal'
loop_
_space_group_symop_operation_xyz
x,y,z
-y,x-y,z
-x+y,-x,z
-x+y,y,z
x,x-y,z
-y,-x,z
loop_
_atom_site_type_symbol
_atom_site_label
_atom_site_fract_x
_atom_site_fract_y
_atom_site_fract_z
Si Si1 0.577834 0.910955 0.480300
Si Si2 0.244224 0.244269 0.600108
Si Si3 0.423606 0.090553 0.213951
Si Si4 0.575769 0.667079 0.865620
Si Si5 0.910874 0.333445 0.979788
Si Si6 0.333685 0.424543 0.714200
Si Si7 0.424794 0.091642 0.364932
Si Si8 0.088945 0.666651 0.099536
O O1 0.453272 0.906544 0.491629
O O2 0.558489 0.779245 0.475011
O O3 0.667706 0.975100 0.539714
O O4 0.634751 0.985746 0.414816
O O5 0.107766 0.215531 0.600451
O O6 0.304520 0.317825 0.665539
O O7 0.251110 0.125555 0.595223
O O8 0.559459 0.118918 0.205733
O O9 0.416232 0.208116 0.199521
O O10 0.391300 0.058359 0.289521
O O11 0.346044 0.983992 0.165133
O O12 0.585224 0.792612 0.880873
O O13 0.439244 0.560757 0.873457
O O14 0.652598 0.636329 0.913983
O O15 0.606996 0.667146 0.789916
O O16 0.881431 0.440716 0.980472
O O17 0.792255 0.207746 0.985039
O O18 0.000172 0.358730 0.039537
O O19 0.227101 0.454201 0.705926
O O20 0.459098 0.540903 0.699488
O O21 0.561914 0.123827 0.371180
O O22 0.413598 0.206799 0.379527
O O23 0.117587 0.558794 0.099464
O O24 0.208116 0.791885 0.094173
#
# Coordination Sequence:
#
# PCOD9577220 Si02
#       8
#     6   6   6   6   6   6   6   6
#     4  10  20  33  50  72  97 125 157 195 240 287
#     4  10  20  33  49  68  92 124 161 199 236 277
#     4   9  17  30  50  74  98 125 158 196 234 274
#     4   9  17  30  50  75 100 126 157 194 235 278
#     4  10  20  33  50  71  95 124 158 197 239 283
#     4   9  17  30  50  75 100 126 157 194 235 278
#     4   9  17  30  49  73  99 127 159 194 233 276
#     4  10  20  33  50  72  97 125 157 195 240 287
#
# _framework density 15.960324
#
# number of rings (size 3 to 8) (size 9 to 14) (size 15 to 20)
#    0.000    2.500    0.000    2.500    0.000    3.000 
#    0.000    3.750    0.000    9.000    0.000    0.000 
#    0.000    0.000    0.000    0.000    0.000    0.000 
#
# Total GULP energy -267701.290751 kJ/mol
# GULP energy per Si atom -5577.110224 kJ/mol
# Density = 1.592400 g / cm^3
# Si number density = 15.960324 Si / 1000 Ang^3
#
#
#
# Elastic Constant Matrix: (Units=GPa)
#
#
# Indices 1 2 3 4 5 6 
#
# 1 121.7837 83.7716 77.8286 -1.2853 0.0002 0.0000
# 2 83.7716 121.7837 77.8286 1.2853 -0.0002 0.0000
# 3 77.8286 77.8286 93.3727 0.0000 0.0000 0.0000
# 4 -1.2853 1.2853 0.0000 21.9933 0.0000 -0.0002
# 5 0.0002 -0.0002 0.0000 0.0000 21.9933 -1.2853
# 6 0.0000 0.0000 0.0000 -0.0002 -1.2853 19.0060
#
#
#
# Elastic Compliance Matrix: (Units=1/GPa)
#
#
# Indices 1 2 3 4 5 6 
#
# 1 0.019801 -0.006611 -0.010995 0.001543 0.000000 0.000000
# 2 -0.006611 0.019801 -0.010995 -0.001543 0.000000 0.000000
# 3 -0.010995 -0.010995 0.029039 0.000000 0.000000 0.000000
# 4 0.001543 -0.001543 0.000000 0.045649 0.000000 0.000001
# 5 0.000000 0.000000 0.000000 0.000000 0.045649 0.003087
# 6 0.000000 0.000000 0.000000 0.000001 0.003087 0.052824
#
#
# Mechanical properties :
#
#
# Convention : Reuss Voigt Hill
#
# Bulk Modulus (GPa) = 87.40579 90.64417 89.02498
# Shear Modulus (GPa) = 18.26308 19.09927 18.68117
#
# Velocity S-wave (km/s) = 3.38639 3.46305 3.42493
# Velocity P-wave (km/s) = 8.37696 8.53856 8.45815
#
# Compressibility (1/GPa) = 0.01144089
#
# Stress axis : x y z
#
# Youngs Moduli (GPa) = 50.50185 50.50185 34.43686
#
# Poissons Ratio (x) = 0.33385 0.37863
# Poissons Ratio (y) = 0.33385 0.37863
# Poissons Ratio (z) = 0.55526 0.55526
#
# Static dielectric constant tensor:
#      x y z
#    x 1.502900 0.000000 0.000000 
#    y 0.000000 1.502900 0.000000 
#    z 0.000000 0.000000 1.543240 
# 
# From -- ./inp_files/1126.got.cif
#   From: 2010.05.17/outbox.cif.g08.bks.cpg/sg156_cif.got.tgz:1126.got - 2010.05.20 10:49:08.
