data_PCOD9577844
_publ_section_title
;
Structure prediction by ZEFSAII (Michael W. Deem and Ramdas Pophale) SiO2 
 PCOD9577844
Probable space group: P -3 1 M 
;
_chemical_formula_sum "Si O2"
_cell_formula_units_Z 96
_cell_length_a 23.504447
_cell_length_b 23.504447
_cell_length_c 10.897279
_cell_angle_alpha 90.000000
_cell_angle_beta 90.000000
_cell_angle_gamma 120.000000
_cell_volume 5213.732888
_symmetry_space_group_name_H-M "P -3 1 M "
_symmetry_group_IT_number 162
_symmetry_cell_setting 'hexagonal'
loop_
_space_group_symop_operation_xyz
x,y,z
-y,x-y,z
-x+y,-x,z
-y,-x,-z
-x+y,y,-z
x,x-y,-z
-x,-y,-z
y,-x+y,-z
x-y,x,-z
y,x,z
x-y,-y,z
-x,-x+y,z
loop_
_atom_site_type_symbol
_atom_site_label
_atom_site_fract_x
_atom_site_fract_y
_atom_site_fract_z
Si Si1 0.922893 0.657758 0.761074
Si Si2 0.868944 0.601228 0.023328
Si Si3 0.152043 0.783752 0.272126
Si Si4 0.699104 0.077430 0.488129
Si Si5 0.335915 0.787860 0.939752
Si Si6 0.500719 0.573305 0.623424
Si Si7 0.490772 0.750942 0.368535
Si Si8 0.601425 0.395389 0.305737
O O1 0.862162 0.671592 0.748058
O O2 0.910558 0.614904 0.635254
O O3 0.000000 0.714001 0.755898
O O4 0.910092 0.624980 0.896976
O O5 0.892956 0.639366 0.153452
O O6 0.846263 0.525935 0.051027
O O7 0.801714 0.603428 0.000000
O O8 0.115022 0.762447 0.401747
O O9 0.206200 0.758444 0.278036
O O10 0.645418 0.090932 0.422585
O O11 0.670589 0.000000 0.476189
O O12 0.347059 0.763965 0.809236
O O13 0.275374 0.724627 0.000000
O O14 0.405031 0.810062 0.000000
O O15 0.464575 0.535426 0.500000
O O16 0.538056 0.538056 0.678510
O O17 0.445195 0.573285 0.706141
O O18 0.525715 0.762858 0.500000
O O19 0.449763 0.675672 0.325054
O O20 0.436145 0.772339 0.402493
#
# Coordination Sequence:
#
# PCOD9577844 Si02
#       8
#    12  12  12  12  12  12  12  12
#     4  10  22  37  59  86 113 144 186 232 280 334
#     4   9  20  37  54  73 101 138 181 221 276 335
#     4  11  21  39  59  84 114 150 184 231 282 340
#     4  10  20  36  59  88 114 149 191 232 283 338
#     4  11  22  36  51  70  92 130 176 224 280 345
#     4  10  21  36  54  78 109 140 177 225 284 348
#     4  12  23  36  54  80 108 135 175 232 292 350
#     4  12  24  37  54  77 104 137 177 228 292 349
#
# _framework density 18.412911000000001
#
# number of rings (size 3 to 8) (size 9 to 14) (size 15 to 20)
#    0.000    1.375    2.500    3.375    5.250    0.500 
#    0.000    0.625    0.000    0.750    0.000    0.000 
#    0.000    0.000    0.000    0.375    0.000   12.000 
#
# Total GULP energy -534617.721812 kJ/mol
# GULP energy per Si atom -5568.934602 kJ/mol
# Density = 1.837100 g / cm^3
# Si number density = 18.412911 Si / 1000 Ang^3
#
#
#
# Elastic Constant Matrix: (Units=GPa)
#
#
# Indices 1 2 3 4 5 6 
#
# 1 61.5393 34.0977 27.0560 0.0002 2.0031 0.0000
# 2 34.0977 61.5393 27.0560 -0.0002 -2.0031 0.0000
# 3 27.0560 27.0560 103.5047 0.0000 0.0000 0.0000
# 4 0.0002 -0.0002 0.0000 21.6533 0.0000 -2.0031
# 5 2.0031 -2.0031 0.0000 0.0000 21.6533 0.0002
# 6 0.0000 0.0000 0.0000 -2.0031 0.0002 13.7208
#
#
#
# Elastic Compliance Matrix: (Units=1/GPa)
#
#
# Indices 1 2 3 4 5 6 
#
# 1 0.024606 -0.012334 -0.003208 0.000000 -0.003417 0.000000
# 2 -0.012334 0.024606 -0.003208 0.000000 0.003417 0.000000
# 3 -0.003208 -0.003208 0.011338 0.000000 0.000000 0.000000
# 4 0.000000 0.000000 0.000000 0.046814 0.000000 0.006834
# 5 -0.003417 0.003417 0.000000 0.000000 0.046814 -0.000001
# 6 0.000000 0.000000 0.000000 0.006834 -0.000001 0.073880
#
#
# Mechanical properties :
#
#
# Convention : Reuss Voigt Hill
#
# Bulk Modulus (GPa) = 43.38401 44.77808 44.08104
# Shear Modulus (GPa) = 18.29887 20.63039 19.46463
#
# Velocity S-wave (km/s) = 3.15589 3.35091 3.25486
# Velocity P-wave (km/s) = 6.07391 6.27241 6.17396
#
# Compressibility (1/GPa) = 0.02304997
#
# Stress axis : x y z
#
# Youngs Moduli (GPa) = 40.64129 40.64129 88.19619
#
# Poissons Ratio (x) = 0.50129 0.28290
# Poissons Ratio (y) = 0.50129 0.28290
# Poissons Ratio (z) = 0.13036 0.13036
#
# Static dielectric constant tensor:
#      x y z
#    x 1.660380 0.000000 0.000000 
#    y 0.000000 1.660380 0.000000 
#    z 0.000000 0.000000 0.448150 
# 
# From -- ./inp_files/2672.got.cif
#   From: 2010.05.17/outbox.cif.g08.bks.cpg/sg162_2_cif.got.tgz:2672.got - 2010.05.20 10:53:12.
