data_PCOD9577903
_publ_section_title
;
Structure prediction by ZEFSAII (Michael W. Deem and Ramdas Pophale) SiO2 
 PCOD9577903
Probable space group: P -3 1 M 
;
_chemical_formula_sum "Si O2"
_cell_formula_units_Z 48
_cell_length_a 16.158536
_cell_length_b 16.158536
_cell_length_c 9.753480
_cell_angle_alpha 90.000000
_cell_angle_beta 90.000000
_cell_angle_gamma 120.000000
_cell_volume 2205.434935
_symmetry_space_group_name_H-M "P -3 1 M "
_symmetry_group_IT_number 162
_symmetry_cell_setting 'hexagonal'
loop_
_space_group_symop_operation_xyz
x,y,z
-y,x-y,z
-x+y,-x,z
-y,-x,-z
-x+y,y,-z
x,x-y,-z
-x,-y,-z
y,-x+y,-z
x-y,x,-z
y,x,z
x-y,-y,z
-x,-x+y,z
loop_
_atom_site_type_symbol
_atom_site_label
_atom_site_fract_x
_atom_site_fract_y
_atom_site_fract_z
Si Si1 0.454202 0.567165 0.160146
Si Si2 0.109655 0.753384 0.882190
Si Si3 0.813879 0.708278 0.637719
Si Si4 0.662313 0.171652 0.416995
O O1 0.488885 0.488885 0.181469
O O2 0.545212 0.670771 0.182322
O O3 0.368729 0.545669 0.262022
O O4 0.432937 0.567064 0.000000
O O5 0.125516 0.822029 0.756072
O O6 0.000000 0.700093 0.934602
O O7 0.185469 0.814532 0.000000
O O8 0.873896 0.747792 0.500000
O O9 0.773200 0.773200 0.690146
O O10 0.723573 0.604926 0.595041
O O11 0.731672 0.268329 0.500000
O O12 0.562140 0.124280 0.500000
#
# Coordination Sequence:
#
# PCOD9577903 Si02
#       4
#    12  12  12  12
#     4  10  21  38  62  93 129 169 213 261 316 382
#     4  11  23  41  66  94 123 160 207 258 315 380
#     4  11  23  40  63  90 122 164 211 258 311 371
#     4  11  23  38  59  91 130 171 214 262 315 372
#
# _framework density 21.764415
#
# number of rings (size 3 to 8) (size 9 to 14) (size 15 to 20)
#    0.000    1.250    0.000    7.000    0.000    6.000 
#    0.000    0.000    0.000   13.500    0.000    0.000 
#    0.000    0.000    0.000    0.000    0.000    0.000 
#
# Total GULP energy -268413.281953 kJ/mol
# GULP energy per Si atom -5591.943374 kJ/mol
# Density = 2.171488 g / cm^3
# Si number density = 21.764415 Si / 1000 Ang^3
#
#
#
# Elastic Constant Matrix: (Units=GPa)
#
#
# Indices 1 2 3 4 5 6 
#
# 1 62.8638 43.7220 17.6502 -0.0025 27.8752 0.0000
# 2 43.7220 62.8638 17.6502 0.0025 -27.8752 0.0000
# 3 17.6502 17.6502 105.8671 0.0000 0.0000 0.0000
# 4 -0.0025 0.0025 0.0000 -52.4583 0.0000 -27.8752
# 5 27.8752 -27.8752 0.0000 0.0000 -52.4583 -0.0025
# 6 0.0000 0.0000 0.0000 -27.8752 -0.0025 9.5709
#
#
#
# Elastic Compliance Matrix: (Units=1/GPa)
#
#
# Indices 1 2 3 4 5 6 
#
# 1 0.015218 -0.005288 -0.001656 -0.000001 0.010896 0.000000
# 2 -0.005288 0.015218 -0.001656 0.000001 -0.010896 0.000000
# 3 -0.001656 -0.001656 0.009998 0.000000 0.000000 0.000000
# 4 -0.000001 0.000001 0.000000 -0.007483 0.000000 -0.021793
# 5 0.010896 -0.010896 0.000000 0.000000 -0.007483 -0.000002
# 6 0.000000 0.000000 0.000000 -0.021793 -0.000002 0.041012
#
#
# Mechanical properties :
#
#
# Convention : Reuss Voigt Hill
#
# Bulk Modulus (GPa) = 43.03611 43.29328 43.16469
# Shear Modulus (GPa) = 54.68994 -8.89766 22.89614
#
# Velocity S-wave (km/s) = 5.01824 -2.02412 3.24697
# Velocity P-wave (km/s) = 7.30708 3.80424 5.82519
#
# Compressibility (1/GPa) = 0.02323630
#
# Stress axis : x y z
#
# Youngs Moduli (GPa) = 65.71081 65.71081 100.02142
#
# Poissons Ratio (x) = 0.34746 0.16560
# Poissons Ratio (y) = 0.34746 0.16560
# Poissons Ratio (z) = 0.10879 0.10879
#
# Static dielectric constant tensor:
#      x y z
#    x 1.819100 0.000000 0.000000 
#    y 0.000000 1.819100 0.000000 
#    z 0.000000 0.000000 2.153220 
# 
# From -- ./inp_files/1222.got.cif
#   From: 2010.05.17/outbox.cif.g08.bks.cpg/sg162_1_cif.got.tgz:1222.got - 2010.05.20 10:53:12.
