data_PCOD9577549
_publ_section_title
;
Structure prediction by ZEFSAII (Michael W. Deem and Ramdas Pophale) SiO2 
 PCOD9577549
Probable space group: R 3 C
;
_chemical_formula_sum "Si O2"
_cell_formula_units_Z 90
_cell_length_a 18.513366
_cell_length_b 18.513366
_cell_length_c 15.053186
_cell_angle_alpha 90.000000
_cell_angle_beta 90.000000
_cell_angle_gamma 120.000000
_cell_volume 4468.171495
_symmetry_space_group_name_H-M "R 3 C"
_symmetry_group_IT_number 161
_symmetry_cell_setting 'hexagonal'
loop_
_space_group_symop_operation_xyz
x,y,z
-y,x-y,z
-x+y,-x,z
-x+y,y,1/2+z
x,x-y,1/2+z
-y,-x,1/2+z
2/3+x,1/3+y,1/3+z
2/3-y,1/3+x-y,1/3+z
2/3-x+y,1/3-x,1/3+z
2/3-x+y,1/3+y,5/6+z
2/3+x,1/3+x-y,5/6+z
2/3-y,1/3-x,5/6+z
1/3+x,2/3+y,2/3+z
1/3-y,2/3+x-y,2/3+z
1/3-x+y,2/3-x,2/3+z
1/3-x+y,2/3+y,1/6+z
1/3+x,2/3+x-y,1/6+z
1/3-y,2/3-x,1/6+z
loop_
_atom_site_type_symbol
_atom_site_label
_atom_site_fract_x
_atom_site_fract_y
_atom_site_fract_z
Si Si1 0.972765 0.221115 0.784828
Si Si2 0.151504 0.531529 0.609454
Si Si3 0.798097 0.709669 0.303865
Si Si4 0.196047 0.478286 0.149571
Si Si5 0.661977 0.039535 0.432336
O O1 0.885097 0.143210 0.753113
O O2 0.947018 0.266154 0.861935
O O3 0.016652 0.283029 0.702309
O O4 0.026849 0.189208 0.838552
O O5 0.212311 0.504377 0.655439
O O6 0.185651 0.627959 0.627734
O O7 0.056916 0.477176 0.643059
O O8 0.824153 0.750821 0.399258
O O9 0.727633 0.727971 0.265879
O O10 0.137300 0.426903 0.230270
#
# Coordination Sequence:
#
# PCOD9577549 Si02
#       5
#    18  18  18  18  18
#     4  10  22  40  63  89 133 162 220 266 332 392
#     4  10  22  41  62  93 128 178 216 269 334 394
#     4  10  20  40  59  92 125 166 217 267 328 387
#     4  11  22  41  66  92 136 172 222 273 332 401
#     4  11  20  40  60  92 124 162 211 275 318 396
#
# _framework density 20.142467
#
# number of rings (size 3 to 8) (size 9 to 14) (size 15 to 20)
#    0.000    1.600    4.000    0.400    0.000    1.600 
#   21.600    4.000    0.000    0.000    0.000    0.000 
#    0.000    0.000    0.000    0.000    0.000    0.000 
#
# Total GULP energy -167276.749973 kJ/mol
# GULP energy per Si atom -5575.891666 kJ/mol
# Density = 2.009662 g / cm^3
# Si number density = 20.142467 Si / 1000 Ang^3
#
#
#
# Elastic Constant Matrix: (Units=GPa)
#
#
# Indices 1 2 3 4 5 6 
#
# 1 -367.9955 499.8978 32.3831 311.5060 0.0000 0.0000
# 2 499.8978 -367.9955 32.3831 -311.5060 0.0000 0.0000
# 3 32.3831 32.3831 84.2033 0.0000 0.0000 0.0000
# 4 311.5060 -311.5060 0.0000 -188.7024 0.0000 0.0000
# 5 0.0000 0.0000 0.0000 0.0000 -188.7024 311.5060
# 6 0.0000 0.0000 0.0000 0.0000 311.5060 -433.9466
#
#
#
# Elastic Compliance Matrix: (Units=1/GPa)
#
#
# Indices 1 2 3 4 5 6 
#
# 1 0.007787 0.001559 -0.003594 0.010281 0.000000 0.000000
# 2 0.001559 0.007787 -0.003594 -0.010281 0.000000 0.000000
# 3 -0.003594 -0.003594 0.014641 0.000000 0.000000 0.000000
# 4 0.010281 -0.010281 0.000000 0.028645 0.000000 0.000000
# 5 0.000000 0.000000 0.000000 0.000000 0.028645 0.020562
# 6 0.000000 0.000000 0.000000 0.000000 0.020562 0.012456
#
#
# Mechanical properties :
#
#
# Convention : Reuss Voigt Hill
#
# Bulk Modulus (GPa) = 52.75480 53.06004 52.90742
# Shear Modulus (GPa) = 42.53911 -243.36705 -100.41397
#
# Velocity S-wave (km/s) = 4.60054 -11.00387 -7.06825
# Velocity P-wave (km/s) = 7.38022 11.62099 6.34743
#
# Compressibility (1/GPa) = 0.01895562
#
# Stress axis : x y z
#
# Youngs Moduli (GPa) = 128.41587 128.41587 68.30265
#
# Poissons Ratio (x) = -0.20021 0.24551
# Poissons Ratio (y) = -0.20021 0.24551
# Poissons Ratio (z) = 0.46158 0.46158
#
# Static dielectric constant tensor:
#      x y z
#    x 1.760500 0.000000 0.000000 
#    y 0.000000 1.760500 0.000000 
#    z 0.000000 0.000000 1.733250 
# 
# From -- ./inp_files/1349.got.cif
#   From: 2010.05.17/outbox.cif.g08.bks.cpg/sg161_cif.got.tgz:1349.got - 2010.05.20 10:52:32.
