data_PCOD9577009
_publ_section_title
;
Structure prediction by ZEFSAII (Michael W. Deem and Ramdas Pophale) SiO2 
 PCOD9577009
Probable space group: R 3 2
;
_chemical_formula_sum "Si O2"
_cell_formula_units_Z 72
_cell_length_a 16.236392
_cell_length_b 16.236392
_cell_length_c 13.001507
_cell_angle_alpha 90.000000
_cell_angle_beta 90.000000
_cell_angle_gamma 120.000000
_cell_volume 2968.269858
_symmetry_space_group_name_H-M "R 3 2"
_symmetry_group_IT_number 155
_symmetry_cell_setting 'hexagonal'
loop_
_space_group_symop_operation_xyz
x,y,z
-y,x-y,z
-x+y,-x,z
x-y,-y,-z
-x,-x+y,-z
y,x,-z
2/3+x,1/3+y,1/3+z
2/3-y,1/3+x-y,1/3+z
2/3-x+y,1/3-x,1/3+z
2/3+x-y,1/3-y,1/3-z
2/3-x,1/3-x+y,1/3-z
2/3+y,1/3+x,1/3-z
1/3+x,2/3+y,2/3+z
1/3-y,2/3+x-y,2/3+z
1/3-x+y,2/3-x,2/3+z
1/3+x-y,2/3-y,2/3-z
1/3-x,2/3-x+y,2/3-z
1/3+y,2/3+x,2/3-z
loop_
_atom_site_type_symbol
_atom_site_label
_atom_site_fract_x
_atom_site_fract_y
_atom_site_fract_z
Si Si1 0.318746 0.135996 0.285517
Si Si2 0.414476 0.580216 0.751578
Si Si3 0.555891 0.237600 0.042360
Si Si4 0.378408 0.300933 0.570819
O O1 0.333334 0.116216 0.166667
O O2 0.409561 0.168737 0.357009
O O3 0.217421 0.049750 0.324793
O O4 0.303212 0.227441 0.278850
O O5 0.333334 0.558611 0.666667
O O6 0.443533 0.666440 0.832897
O O7 0.379364 0.492806 0.829046
O O8 0.653530 0.239767 0.011122
O O9 0.295246 0.295246 0.500000
O O10 0.333334 0.231479 0.666667
#
# Coordination Sequence:
#
# PCOD9577009 Si02
#       4
#    18  18  18  18
#     4  11  20  35  55  89 130 159 207 271 327 383
#     4  12  21  36  64  97 128 168 221 272 325 389
#     4  10  22  38  60  95 134 165 208 273 336 381
#     4  11  17  31  57  89 120 157 208 270 319 367
#
# _framework density 24.256554000000001
#
# number of rings (size 3 to 8) (size 9 to 14) (size 15 to 20)
#    0.500    0.500   10.000    0.000    0.000    4.000 
#    0.000    0.000    5.500    0.000    0.000    3.500 
#    0.000    0.000    0.000    0.000    0.000    0.000 
#
# Total GULP energy -133751.191540 kJ/mol
# GULP energy per Si atom -5572.966314 kJ/mol
# Density = 2.420135 g / cm^3
# Si number density = 24.256554 Si / 1000 Ang^3
#
#
#
# Elastic Constant Matrix: (Units=GPa)
#
#
# Indices 1 2 3 4 5 6 
#
# 1 79.6624 28.3078 9.7262 10.3533 0.0000 0.0000
# 2 28.3078 79.6624 9.7262 -10.3533 0.0000 0.0000
# 3 9.7262 9.7262 58.2273 0.0000 0.0000 0.0000
# 4 10.3533 -10.3533 0.0000 33.0816 0.0000 0.0000
# 5 0.0000 0.0000 0.0000 0.0000 33.0816 10.3533
# 6 0.0000 0.0000 0.0000 0.0000 10.3533 25.6773
#
#
#
# Elastic Compliance Matrix: (Units=1/GPa)
#
#
# Indices 1 2 3 4 5 6 
#
# 1 0.015917 -0.006368 -0.001595 -0.006974 0.000000 0.000000
# 2 -0.006368 0.015917 -0.001595 0.006974 0.000000 0.000000
# 3 -0.001595 -0.001595 0.017707 0.000000 0.000000 0.000000
# 4 -0.006974 0.006974 0.000000 0.034594 0.000000 0.000000
# 5 0.000000 0.000000 0.000000 0.000000 0.034594 -0.013948
# 6 0.000000 0.000000 0.000000 0.000000 -0.013948 0.044569
#
#
# Mechanical properties :
#
#
# Convention : Reuss Voigt Hill
#
# Bulk Modulus (GPa) = 32.86771 34.78585 33.82678
# Shear Modulus (GPa) = 25.96673 29.68757 27.82715
#
# Velocity S-wave (km/s) = 3.27540 3.50222 3.39071
# Velocity P-wave (km/s) = 5.28051 5.54311 5.41340
#
# Compressibility (1/GPa) = 0.03042500
#
# Stress axis : x y z
#
# Youngs Moduli (GPa) = 62.82654 62.82654 56.47498
#
# Poissons Ratio (x) = 0.40006 0.09008
# Poissons Ratio (y) = 0.40006 0.09008
# Poissons Ratio (z) = 0.10021 0.10021
#
# Static dielectric constant tensor:
#      x y z
#    x 1.990220 0.000000 0.000000 
#    y 0.000000 1.990220 0.000000 
#    z 0.000000 0.000000 1.964510 
# 
# From -- ./inp_files/4832.got.cif
#   From: 2010.05.17/outbox.cif.g08.bks.cpg/sg155_3_cif.got.tgz:4832.got - 2010.05.20 10:44:35.
