data_PCOD9577690
_publ_section_title
;
Structure prediction by ZEFSAII (Michael W. Deem and Ramdas Pophale) SiO2 
 PCOD9577690
Probable space group: P -3 1 M 
;
_chemical_formula_sum "Si O2"
_cell_formula_units_Z 36
_cell_length_a 21.937109
_cell_length_b 21.937109
_cell_length_c 4.943470
_cell_angle_alpha 90.000000
_cell_angle_beta 90.000000
_cell_angle_gamma 120.000000
_cell_volume 2060.256633
_symmetry_space_group_name_H-M "P -3 1 M "
_symmetry_group_IT_number 162
_symmetry_cell_setting 'hexagonal'
loop_
_space_group_symop_operation_xyz
x,y,z
-y,x-y,z
-x+y,-x,z
-y,-x,-z
-x+y,y,-z
x,x-y,-z
-x,-y,-z
y,-x+y,-z
x-y,x,-z
y,x,z
x-y,-y,z
-x,-x+y,z
loop_
_atom_site_type_symbol
_atom_site_label
_atom_site_fract_x
_atom_site_fract_y
_atom_site_fract_z
Si Si1 0.777660 0.079126 0.507858
Si Si2 0.602940 0.872451 0.002885
Si Si3 0.417516 0.920551 0.258809
O O1 0.859004 0.140997 0.500000
O O2 0.754147 0.084542 0.808756
O O3 0.758865 0.000000 0.447821
O O4 0.732143 0.099450 0.302847
O O5 0.542153 0.881498 0.862726
O O6 0.582806 0.791403 0.000000
O O7 0.445386 0.890772 0.500000
O O8 0.438249 0.000000 0.347047
O O9 0.463428 0.926855 0.000000
#
# Coordination Sequence:
#
# PCOD9577690 Si02
#       3
#    12  12  12
#     4  10  19  31  49  72  99 131 165 204 248 296
#     4  10  20  33  50  72  99 130 163 202 248 296
#     4  10  19  30  47  71  97 124 155 197 247 295
#
# _framework density 17.473551
#
# number of rings (size 3 to 8) (size 9 to 14) (size 15 to 20)
#    0.000    2.000    0.000    5.000    0.000    2.667 
#    0.000    0.000    0.000    1.000    0.000    7.000 
#    0.000    8.000    0.000    0.000    0.000    1.333 
#
# Total GULP energy -200430.872554 kJ/mol
# GULP energy per Si atom -5567.524238 kJ/mol
# Density = 1.743378 g / cm^3
# Si number density = 17.473551 Si / 1000 Ang^3
#
#
#
# Elastic Constant Matrix: (Units=GPa)
#
#
# Indices 1 2 3 4 5 6 
#
# 1 160.0711 5.6895 17.8549 -0.0011 -5.4292 0.0000
# 2 5.6895 160.0711 17.8549 0.0011 5.4292 0.0000
# 3 17.8549 17.8549 86.6393 0.0000 0.0000 0.0000
# 4 -0.0011 0.0011 0.0000 17.1315 0.0000 5.4292
# 5 -5.4292 5.4292 0.0000 0.0000 17.1315 -0.0011
# 6 0.0000 0.0000 0.0000 5.4292 -0.0011 77.1908
#
#
#
# Elastic Compliance Matrix: (Units=1/GPa)
#
#
# Indices 1 2 3 4 5 6 
#
# 1 0.006469 -0.000156 -0.001301 0.000000 0.002100 0.000000
# 2 -0.000156 0.006469 -0.001301 0.000000 -0.002100 0.000000
# 3 -0.001301 -0.001301 0.012078 0.000000 0.000000 0.000000
# 4 0.000000 0.000000 0.000000 0.059703 0.000000 -0.004199
# 5 0.002100 -0.002100 0.000000 0.000000 0.059703 0.000001
# 6 0.000000 0.000000 0.000000 -0.004199 0.000001 0.013250
#
#
# Mechanical properties :
#
#
# Convention : Reuss Voigt Hill
#
# Bulk Modulus (GPa) = 51.28096 54.39780 52.83938
# Shear Modulus (GPa) = 29.46576 46.64958 38.05767
#
# Velocity S-wave (km/s) = 4.11092 5.17254 4.67198
# Velocity P-wave (km/s) = 7.20724 8.17757 7.70769
#
# Compressibility (1/GPa) = 0.01950041
#
# Stress axis : x y z
#
# Youngs Moduli (GPa) = 154.58097 154.58097 82.79278
#
# Poissons Ratio (x) = 0.02412 0.10772
# Poissons Ratio (y) = 0.02412 0.10772
# Poissons Ratio (z) = 0.20111 0.20111
#
# Static dielectric constant tensor:
#      x y z
#    x 1.638720 0.000000 0.000000 
#    y 0.000000 1.638720 0.000000 
#    z 0.000000 0.000000 1.615330 
# 
# From -- ./inp_files/266.got.cif
#   From: 2010.05.17/outbox.cif.g08.bks.cpg/sg162_1_cif.got.tgz:266.got - 2010.05.20 10:53:12.
