data_PCOD9577306
_publ_section_title
;
Structure prediction by ZEFSAII (Michael W. Deem and Ramdas Pophale) SiO2 
 PCOD9577306
Probable space group: P 3 C 1
;
_chemical_formula_sum "Si O2"
_cell_formula_units_Z 48
_cell_length_a 14.258719
_cell_length_b 14.258719
_cell_length_c 13.034328
_cell_angle_alpha 90.000000
_cell_angle_beta 90.000000
_cell_angle_gamma 120.000000
_cell_volume 2294.987360
_symmetry_space_group_name_H-M "P 3 C 1"
_symmetry_group_IT_number 158
_symmetry_cell_setting 'hexagonal'
loop_
_space_group_symop_operation_xyz
x,y,z
-y,x-y,z
-x+y,-x,z
-x+y,y,1/2+z
x,x-y,1/2+z
-y,-x,1/2+z
loop_
_atom_site_type_symbol
_atom_site_label
_atom_site_fract_x
_atom_site_fract_y
_atom_site_fract_z
Si Si1 0.414265 0.207801 0.355790
Si Si2 0.539798 0.080932 0.855790
Si Si3 0.234808 0.779800 0.384693
Si Si4 0.876733 0.779557 0.994658
Si Si5 0.363548 0.459024 0.202525
Si Si6 0.969785 0.762143 0.202526
Si Si7 0.112890 0.569490 0.494658
Si Si8 0.098525 0.211658 0.384693
O O1 0.465007 0.131674 0.337964
O O2 0.505842 0.333333 0.358055
O O3 0.345149 0.176816 0.460974
O O4 0.326785 0.196541 0.270453
O O5 0.463577 0.993451 0.770452
O O6 0.501666 0.011816 0.960973
O O7 0.192471 0.716433 0.277619
O O8 0.157557 0.694459 0.470795
O O9 0.355921 0.819974 0.417578
O O10 0.212805 0.879471 0.382125
O O11 0.796431 0.824223 0.970795
O O12 0.977412 0.846693 0.917578
O O13 0.924135 0.796820 0.107698
O O14 0.296349 0.333333 0.166639
O O15 0.409198 0.539351 0.107698
O O16 0.049766 0.859138 0.277619
#
# Coordination Sequence:
#
# PCOD9577306 Si02
#       8
#     6   6   6   6   6   6   6   6
#     4  10  21  37  58  85 117 153 194 240 290 346
#     4  10  21  37  58  85 117 153 194 240 290 346
#     4  10  22  38  56  83 115 145 185 236 285 336
#     4  11  21  38  60  82 113 152 192 234 287 347
#     4   9  20  37  56  82 115 148 187 236 286 341
#     4   9  20  37  56  82 115 148 187 236 286 341
#     4  11  21  38  60  82 113 152 192 234 287 347
#     4  10  22  38  56  83 115 145 185 236 285 336
#
# _framework density 20.915147000000001
#
# number of rings (size 3 to 8) (size 9 to 14) (size 15 to 20)
#    0.000    2.000    0.000    5.250    0.000    6.000 
#    0.000    0.000    0.000    3.000    0.000    0.000 
#    0.000    0.000    0.000    0.000    0.000    0.000 
#
# Total GULP energy -268249.723670 kJ/mol
# GULP energy per Si atom -5588.535910 kJ/mol
# Density = 2.086754 g / cm^3
# Si number density = 20.915147 Si / 1000 Ang^3
#
#
#
# Elastic Constant Matrix: (Units=GPa)
#
#
# Indices 1 2 3 4 5 6 
#
# 1 71.7130 4.0096 -1.1729 0.0000 0.0000 0.0000
# 2 4.0096 71.7130 -1.1729 0.0000 0.0000 0.0000
# 3 -1.1729 -1.1729 60.9017 0.0000 0.0000 0.0000
# 4 0.0000 0.0000 0.0000 9.7288 0.0000 0.0000
# 5 0.0000 0.0000 0.0000 0.0000 9.7288 0.0000
# 6 0.0000 0.0000 0.0000 0.0000 0.0000 33.8517
#
#
#
# Elastic Compliance Matrix: (Units=1/GPa)
#
#
# Indices 1 2 3 4 5 6 
#
# 1 0.013992 -0.000778 0.000254 0.000000 0.000000 0.000000
# 2 -0.000778 0.013992 0.000254 0.000000 0.000000 0.000000
# 3 0.000254 0.000254 0.016430 0.000000 0.000000 0.000000
# 4 0.000000 0.000000 0.000000 0.102788 0.000000 0.000000
# 5 0.000000 0.000000 0.000000 0.000000 0.102788 0.000000
# 6 0.000000 0.000000 0.000000 0.000000 0.000000 0.029541
#
#
# Mechanical properties :
#
#
# Convention : Reuss Voigt Hill
#
# Bulk Modulus (GPa) = 22.79169 23.07280 22.93224
# Shear Modulus (GPa) = 16.96677 24.17277 20.56977
#
# Velocity S-wave (km/s) = 2.85128 3.40333 3.13946
# Velocity P-wave (km/s) = 4.66483 5.14773 4.91221
#
# Compressibility (1/GPa) = 0.04387564
#
# Stress axis : x y z
#
# Youngs Moduli (GPa) = 71.46864 71.46864 60.86532
#
# Poissons Ratio (x) = 0.05561 -0.01549
# Poissons Ratio (y) = 0.05561 -0.01549
# Poissons Ratio (z) = -0.01819 -0.01819
#
# Static dielectric constant tensor:
#      x y z
#    x 1.734900 0.000000 0.000000 
#    y 0.000000 1.734900 0.000000 
#    z 0.000000 0.000000 1.753740 
# 
# From -- ./inp_files/382.got.cif
#   From: 2010.05.17/outbox.cif.g08.bks.cpg/sg158_cif.got.tgz:382.got - 2010.05.20 10:49:59.
