data_PCOD9577973
_publ_section_title
;
Structure prediction by ZEFSAII (Michael W. Deem and Ramdas Pophale) SiO2 
 PCOD9577973
Probable space group: P -3 1 C
;
_chemical_formula_sum "Si O2"
_cell_formula_units_Z 84
_cell_length_a 32.990015
_cell_length_b 32.990015
_cell_length_c 5.544309
_cell_angle_alpha 90.000000
_cell_angle_beta 90.000000
_cell_angle_gamma 120.000000
_cell_volume 5225.683282
_symmetry_space_group_name_H-M "P -3 1 C"
_symmetry_group_IT_number 163
_symmetry_cell_setting 'hexagonal'
loop_
_space_group_symop_operation_xyz
x,y,z
-y,x-y,z
-x+y,-x,z
-y,-x,1/2-z
-x+y,y,1/2-z
x,x-y,1/2-z
-x,-y,-z
y,-x+y,-z
x-y,x,-z
y,x,1/2+z
x-y,-y,1/2+z
-x,-x+y,1/2+z
loop_
_atom_site_type_symbol
_atom_site_label
_atom_site_fract_x
_atom_site_fract_y
_atom_site_fract_z
Si Si1 0.711853 0.423705 0.250000
Si Si2 0.125289 0.725907 0.750002
Si Si3 0.361222 0.542867 0.250000
Si Si4 0.288492 0.576984 0.250000
Si Si5 0.720859 0.741933 0.250000
Si Si6 0.492205 0.668108 0.750000
Si Si7 0.127678 0.777585 0.250002
Si Si8 0.016813 0.646940 0.750000
O O1 0.698307 0.396614 0.498974
O O2 0.768105 0.456629 0.250000
O O3 0.162452 0.708219 0.750000
O O4 0.130715 0.753406 0.499712
O O5 0.072392 0.681815 0.750001
O O6 0.130715 0.753405 0.000294
O O7 0.404732 0.595269 0.250000
O O8 0.313639 0.545895 0.250000
O O9 0.360433 0.518195 0.500452
O O10 0.360433 0.518195 0.999548
O O11 0.747922 0.747922 0.500001
O O12 0.695631 0.772328 0.249999
O O13 0.679353 0.687134 0.250001
O O14 0.169881 0.830120 0.250000
O O15 0.000000 0.618757 0.500000
#
# Coordination Sequence:
#
# PCOD9577973 Si02
#       8
#     6  12  12   6  12  12  12  12
#     4   8  16  30  44  56  94 116 136 160 206 266
#     4  12  21  34  47  69 102 126 157 194 231 286
#     4  10  19  36  53  67  92 118 143 180 223 264
#     4   8  16  30  48  70  80 110 146 168 198 256
#     4  10  16  32  49  61  87 130 166 195 240 278
#     4  10  21  32  47  72  90 119 150 175 219 279
#     4  12  23  31  45  73  99 131 165 199 235 276
#     4  10  16  30  50  64  85 126 160 192 231 272
#
# _framework density 16.074452000000001
#
# number of rings (size 3 to 8) (size 9 to 14) (size 15 to 20)
#    0.000    1.714    5.714    1.714    2.000    0.000 
#    3.000    0.000    0.000    0.000    0.000    0.000 
#    0.000   11.429    0.000    0.000    0.000    0.000 
#
# Total GULP energy -467757.247026 kJ/mol
# GULP energy per Si atom -5568.538655 kJ/mol
# Density = 1.603787 g / cm^3
# Si number density = 16.074452 Si / 1000 Ang^3
#
#
#
# Elastic Constant Matrix: (Units=GPa)
#
#
# Indices 1 2 3 4 5 6 
#
# 1 35.1532 36.7910 31.1171 0.0000 -0.0001 0.0000
# 2 36.7910 35.1532 31.1171 0.0000 0.0001 0.0000
# 3 31.1171 31.1171 212.4940 0.0000 0.0000 0.0000
# 4 0.0000 0.0000 0.0000 12.9473 0.0000 0.0001
# 5 -0.0001 0.0001 0.0000 0.0000 12.9473 0.0000
# 6 0.0000 0.0000 0.0000 0.0001 0.0000 -0.8189
#
#
#
# Elastic Compliance Matrix: (Units=1/GPa)
#
#
# Indices 1 2 3 4 5 6 
#
# 1 -0.297346 0.313262 -0.002331 0.000000 -0.000005 0.000000
# 2 0.313262 -0.297346 -0.002331 0.000000 0.000005 0.000000
# 3 -0.002331 -0.002331 0.005389 0.000000 0.000000 0.000000
# 4 0.000000 0.000000 0.000000 0.077236 0.000000 0.000009
# 5 -0.000005 0.000005 0.000000 0.000000 0.077236 0.000000
# 6 0.000000 0.000000 0.000000 0.000009 0.000000 -1.221217
#
#
# Mechanical properties :
#
#
# Convention : Reuss Voigt Hill
#
# Bulk Modulus (GPa) = 35.84553 53.42789 44.63671
# Shear Modulus (GPa) = -2.20853 17.26684 7.52916
#
# Velocity S-wave (km/s) = -1.17342 3.28102 2.16659
# Velocity P-wave (km/s) = 4.52904 6.90387 5.83848
#
# Compressibility (1/GPa) = 0.02789748
#
# Stress axis : x y z
#
# Youngs Moduli (GPa) = -3.36308 -3.36308 185.57658
#
# Poissons Ratio (x) = 1.05353 0.43252
# Poissons Ratio (y) = 1.05353 0.43252
# Poissons Ratio (z) = -0.00784 -0.00784
#
# Static dielectric constant tensor:
#      x y z
#    x 1.514970 0.000000 0.000000 
#    y 0.000000 1.514970 0.000000 
#    z 0.000000 0.000000 1.666760 
# 
# From -- ./inp_files/466.got.cif
#   From: 2010.05.17/outbox.cif.g08.bks.cpg/sg163_1_cif.got.tgz:466.got - 2010.05.20 10:56:03.
