data_PCOD9577455
_publ_section_title
;
Structure prediction by ZEFSAII (Michael W. Deem and Ramdas Pophale) SiO2 
 PCOD9577455
Probable space group: P 3 1 C
;
_chemical_formula_sum "Si O2"
_cell_formula_units_Z 34
_cell_length_a 16.165770
_cell_length_b 16.165770
_cell_length_c 7.418833
_cell_angle_alpha 90.000000
_cell_angle_beta 90.000000
_cell_angle_gamma 120.000000
_cell_volume 1679.032172
_symmetry_space_group_name_H-M "P 3 1 C"
_symmetry_group_IT_number 159
_symmetry_cell_setting 'hexagonal'
loop_
_space_group_symop_operation_xyz
x,y,z
-y,x-y,z
-x+y,-x,z
y,x,1/2+z
x-y,-y,1/2+z
-x,-x+y,1/2+z
loop_
_atom_site_type_symbol
_atom_site_label
_atom_site_fract_x
_atom_site_fract_y
_atom_site_fract_z
Si Si1 0.133168 0.402909 0.445210
Si Si2 0.333335 0.666667 0.869558
Si Si3 0.230917 0.765958 0.811655
Si Si4 0.333334 0.666668 0.434776
Si Si5 0.470585 0.329635 0.828499
Si Si6 0.073897 0.398232 0.045129
Si Si7 0.066125 0.584189 0.941074
O O1 0.185851 0.466864 0.622411
O O2 0.234815 0.660856 0.369026
O O3 0.221462 0.389911 0.379755
O O4 0.028893 0.331749 0.527001
O O5 0.297713 0.737120 0.924898
O O6 0.333334 0.666667 0.652129
O O7 0.133511 0.664547 0.793816
O O8 0.232802 0.848160 0.933781
O O9 0.428981 0.105272 0.751885
O O10 0.448430 0.404159 0.926991
O O11 0.469636 0.357258 0.622392
O O12 0.066725 0.484912 0.950670
#
# Coordination Sequence:
#
# PCOD9577455 Si02
#       7
#     6   2   6   2   6   6   6
#     4  12  25  43  66  90 125 170 229 266 323 383
#     4  12  24  37  59  91 127 173 226 274 311 382
#     4  12  25  41  62  93 128 171 223 269 321 380
#     4  12  24  40  65  88 121 179 238 256 323 394
#     4  12  26  41  64  95 129 180 218 278 320 385
#     4  12  24  43  64  92 125 177 218 273 317 384
#     4  12  26  41  62  91 137 168 222 274 331 376
#
# _framework density 20.249759000000001
#
# number of rings (size 3 to 8) (size 9 to 14) (size 15 to 20)
#    0.000    0.000    7.059    4.235    0.000    0.000 
#    0.000    0.000    0.000    0.000    0.000    0.000 
#    1.765    0.706    0.000    0.000    0.000    0.000 
#
# Total GULP energy -189445.764396 kJ/mol
# GULP energy per Si atom -5571.934247 kJ/mol
# Density = 2.020367 g / cm^3
# Si number density = 20.249759 Si / 1000 Ang^3
#
#
#
# Elastic Constant Matrix: (Units=GPa)
#
#
# Indices 1 2 3 4 5 6 
#
# 1 95.6140 35.3347 24.2025 -0.0002 1.3359 0.0000
# 2 35.3347 95.6140 24.2023 -0.0003 -1.3362 0.0000
# 3 24.2025 24.2023 92.4809 -0.0002 -0.0001 -0.0002
# 4 -0.0002 -0.0003 -0.0002 33.3191 0.0000 -1.3361
# 5 1.3359 -1.3362 -0.0001 0.0000 33.3191 -0.0001
# 6 0.0000 0.0000 -0.0002 -1.3361 -0.0001 30.1397
#
#
#
# Elastic Compliance Matrix: (Units=1/GPa)
#
#
# Indices 1 2 3 4 5 6 
#
# 1 0.012537 -0.004082 -0.002213 0.000000 -0.000666 0.000000
# 2 -0.004082 0.012537 -0.002213 0.000000 0.000666 0.000000
# 3 -0.002213 -0.002213 0.011971 0.000000 0.000000 0.000000
# 4 0.000000 0.000000 0.000000 0.030066 0.000000 0.001333
# 5 -0.000666 0.000666 0.000000 0.000000 0.030066 0.000000
# 6 0.000000 0.000000 0.000000 0.001333 0.000000 0.033238
#
#
# Mechanical properties :
#
#
# Convention : Reuss Voigt Hill
#
# Bulk Modulus (GPa) = 49.92558 50.13198 50.02878
# Shear Modulus (GPa) = 32.44513 32.68686 32.56600
#
# Velocity S-wave (km/s) = 4.00715 4.02205 4.01461
# Velocity P-wave (km/s) = 6.79103 6.81027 6.80066
#
# Compressibility (1/GPa) = 0.02002981
#
# Stress axis : x y z
#
# Youngs Moduli (GPa) = 79.76576 79.76580 83.53461
#
# Poissons Ratio (x) = 0.32563 0.18483
# Poissons Ratio (y) = 0.32563 0.18482
# Poissons Ratio (z) = 0.17649 0.17648
#
# Static dielectric constant tensor:
#      x y z
#    x 1.765050 0.000000 0.000000 
#    y 0.000000 1.765050 0.000000 
#    z 0.000000 0.000000 1.825580 
# 
# From -- ./inp_files/404.got.cif
#   From: 2010.05.17/outbox.cif.g08.bks.cpg/sg159_cif.got.tgz:404.got - 2010.05.20 10:50:30.
