data_PCOD9577087
_publ_section_title
;
Structure prediction by ZEFSAII (Michael W. Deem and Ramdas Pophale) SiO2 
 PCOD9577087
Probable space group: R 3 2
;
_chemical_formula_sum "Si O2"
_cell_formula_units_Z 54
_cell_length_a 14.196043
_cell_length_b 14.196043
_cell_length_c 12.127429
_cell_angle_alpha 90.000000
_cell_angle_beta 90.000000
_cell_angle_gamma 120.000000
_cell_volume 2116.576572
_symmetry_space_group_name_H-M "R 3 2"
_symmetry_group_IT_number 155
_symmetry_cell_setting 'hexagonal'
loop_
_space_group_symop_operation_xyz
x,y,z
-y,x-y,z
-x+y,-x,z
x-y,-y,-z
-x,-x+y,-z
y,x,-z
2/3+x,1/3+y,1/3+z
2/3-y,1/3+x-y,1/3+z
2/3-x+y,1/3-x,1/3+z
2/3+x-y,1/3-y,1/3-z
2/3-x,1/3-x+y,1/3-z
2/3+y,1/3+x,1/3-z
1/3+x,2/3+y,2/3+z
1/3-y,2/3+x-y,2/3+z
1/3-x+y,2/3-x,2/3+z
1/3+x-y,2/3-y,2/3-z
1/3-x,2/3-x+y,2/3-z
1/3+y,2/3+x,2/3-z
loop_
_atom_site_type_symbol
_atom_site_label
_atom_site_fract_x
_atom_site_fract_y
_atom_site_fract_z
Si Si1 0.636553 0.743503 0.068666
Si Si2 0.656651 0.126417 0.965694
Si Si3 0.802465 0.386255 0.162743
O O1 0.560594 0.666667 0.166667
O O2 0.589130 0.806186 0.000264
O O3 0.749311 0.838895 0.118982
O O4 0.667469 0.667469 0.000000
O O5 0.666667 0.138965 0.833334
O O6 0.593925 0.176531 0.032662
O O7 0.599590 0.000000 0.000000
O O8 0.736552 0.448697 0.195112
#
# Coordination Sequence:
#
# PCOD9577087 Si02
#       3
#    18  18  18
#     4  12  29  48  79 111 158 205 262 319 389 462
#     4  12  27  46  78 112 157 198 258 317 387 462
#     4  10  26  47  75 109 151 194 260 309 391 449
#
# _framework density 25.512896999999999
#
# number of rings (size 3 to 8) (size 9 to 14) (size 15 to 20)
#    0.667    0.000    3.333    2.000   14.000    1.333 
#    0.000    0.000    0.000    0.000    0.000    0.000 
#    0.000    0.000    0.000    0.000    0.000    0.000 
#
# Total GULP energy -100695.638100 kJ/mol
# GULP energy per Si atom -5594.202117 kJ/mol
# Density = 2.545483 g / cm^3
# Si number density = 25.512897 Si / 1000 Ang^3
#
#
#
# Elastic Constant Matrix: (Units=GPa)
#
#
# Indices 1 2 3 4 5 6 
#
# 1 131.9875 43.1837 7.2958 4.3051 -0.0002 0.0000
# 2 43.1837 131.9875 7.2958 -4.3051 0.0002 0.0000
# 3 7.2958 7.2958 63.0450 0.0000 0.0000 0.0000
# 4 4.3051 -4.3051 0.0000 35.1988 0.0000 0.0002
# 5 -0.0002 0.0002 0.0000 0.0000 35.1988 4.3051
# 6 0.0000 0.0000 0.0000 0.0002 4.3051 44.4019
#
#
#
# Elastic Compliance Matrix: (Units=1/GPa)
#
#
# Indices 1 2 3 4 5 6 
#
# 1 0.008580 -0.002816 -0.000667 -0.001394 0.000000 0.000000
# 2 -0.002816 0.008580 -0.000667 0.001394 0.000000 0.000000
# 3 -0.000667 -0.000667 0.016016 0.000000 0.000000 0.000000
# 4 -0.001394 0.001394 0.000000 0.028751 0.000000 0.000000
# 5 0.000000 0.000000 0.000000 0.000000 0.028751 -0.002788
# 6 0.000000 0.000000 0.000000 0.000000 -0.002788 0.022792
#
#
# Mechanical properties :
#
#
# Convention : Reuss Voigt Hill
#
# Bulk Modulus (GPa) = 40.19881 49.17452 44.68667
# Shear Modulus (GPa) = 38.44316 40.90954 39.67635
#
# Velocity S-wave (km/s) = 3.88598 4.00870 3.94782
# Velocity P-wave (km/s) = 5.99374 6.38298 6.19142
#
# Compressibility (1/GPa) = 0.02487636
#
# Stress axis : x y z
#
# Youngs Moduli (GPa) = 116.54883 116.54883 62.43723
#
# Poissons Ratio (x) = 0.32818 0.04165
# Poissons Ratio (y) = 0.32818 0.04165
# Poissons Ratio (z) = 0.07775 0.07775
#
# Static dielectric constant tensor:
#      x y z
#    x 2.000040 0.000000 0.000000 
#    y 0.000000 2.000040 0.000000 
#    z 0.000000 0.000000 2.089720 
# 
# From -- ./inp_files/4639.got.cif
#   From: 2010.05.17/outbox.cif.g08.bks.cpg/sg155_3_cif.got.tgz:4639.got - 2010.05.20 10:44:35.
