data_PCOD9577246
_publ_section_title
;
Structure prediction by ZEFSAII (Michael W. Deem and Ramdas Pophale) SiO2 
 PCOD9577246
Probable space group: P 3 1 M
;
_chemical_formula_sum "Si O2"
_cell_formula_units_Z 48
_cell_length_a 16.673273
_cell_length_b 16.673273
_cell_length_c 12.061325
_cell_angle_alpha 90.000000
_cell_angle_beta 90.000000
_cell_angle_gamma 120.000000
_cell_volume 2903.804500
_symmetry_space_group_name_H-M "P 3 1 M"
_symmetry_group_IT_number 157
_symmetry_cell_setting 'hexagonal'
loop_
_space_group_symop_operation_xyz
x,y,z
-y,x-y,z
-x+y,-x,z
y,x,z
x-y,-y,z
-x,-x+y,z
loop_
_atom_site_type_symbol
_atom_site_label
_atom_site_fract_x
_atom_site_fract_y
_atom_site_fract_z
Si Si1 0.668410 0.148554 0.111110
Si Si2 0.893963 0.287437 0.870622
Si Si3 0.712563 0.106037 0.870621
Si Si4 0.287439 0.393477 0.351601
Si Si5 0.148555 0.480144 0.111111
Si Si6 0.287435 0.893962 0.351601
Si Si7 0.556190 0.443812 0.484709
Si Si8 0.887622 0.443811 0.737517
O O1 0.689193 0.109925 0.222467
O O2 0.564205 0.128410 0.111109
O O3 0.741453 0.258546 0.111109
O O4 0.689194 0.109924 0.999755
O O5 0.819640 0.180360 0.851912
O O6 0.862040 0.350350 0.802688
O O7 0.000000 0.321124 0.840503
O O8 0.890076 0.310805 0.999756
O O9 0.649650 0.137960 0.802688
O O10 0.678876 0.000000 0.840503
O O11 0.321128 0.321128 0.381719
O O12 0.180362 0.360722 0.370311
O O13 0.350352 0.488314 0.419535
O O14 0.109927 0.420731 0.222468
O O15 0.350350 0.862043 0.419539
O O16 0.321121 0.000000 0.381715
O O17 0.499998 0.499998 0.486517
O O18 0.572979 0.427021 0.611113
O O19 0.000000 0.500000 0.735711
#
# Coordination Sequence:
#
# PCOD9577246 Si02
#       8
#     6   6   6   6   6   6   6   6
#     4  10  18  29  48  73 100 128 160 199 242 290
#     4  10  20  33  51  73  99 131 166 204 245 289
#     4  10  20  33  51  73  99 131 166 204 245 289
#     4  10  20  33  51  73  99 131 166 204 245 289
#     4  10  18  29  48  73 100 128 160 199 242 290
#     4  10  20  33  51  73  99 131 166 204 245 289
#     4   9  18  33  51  71  97 128 161 197 239 291
#     4   9  18  33  51  71  97 128 161 197 239 291
#
# _framework density 16.530038999999999
#
# number of rings (size 3 to 8) (size 9 to 14) (size 15 to 20)
#    0.000    2.250    2.500    1.000    0.000    2.000 
#    1.500    0.000    0.000    0.500    0.000    0.000 
#    0.000    6.000    0.000   12.500    0.000    0.000 
#
# Total GULP energy -267666.922718 kJ/mol
# GULP energy per Si atom -5576.394223 kJ/mol
# Density = 1.649242 g / cm^3
# Si number density = 16.530039 Si / 1000 Ang^3
#
#
#
# Elastic Constant Matrix: (Units=GPa)
#
#
# Indices 1 2 3 4 5 6 
#
# 1 90.1573 54.9471 15.6811 0.0000 0.0002 0.0000
# 2 54.9471 90.1573 15.6811 0.0000 -0.0002 0.0000
# 3 15.6811 15.6811 99.0230 0.0000 0.0000 0.0000
# 4 0.0000 0.0000 0.0000 -25.2881 0.0000 -0.0002
# 5 0.0002 -0.0002 0.0000 0.0000 -25.2881 0.0000
# 6 0.0000 0.0000 0.0000 -0.0002 0.0000 17.6051
#
#
#
# Elastic Compliance Matrix: (Units=1/GPa)
#
#
# Indices 1 2 3 4 5 6 
#
# 1 0.017768 -0.010633 -0.001130 0.000000 0.000000 0.000000
# 2 -0.010633 0.017768 -0.001130 0.000000 0.000000 0.000000
# 3 -0.001130 -0.001130 0.010457 0.000000 0.000000 0.000000
# 4 0.000000 0.000000 0.000000 -0.039544 0.000000 -0.000001
# 5 0.000000 0.000000 0.000000 0.000000 -0.039544 0.000000
# 6 0.000000 0.000000 0.000000 -0.000001 0.000000 0.056802
#
#
# Mechanical properties :
#
#
# Convention : Reuss Voigt Hill
#
# Bulk Modulus (GPa) = 49.48501 50.21737 49.85119
# Shear Modulus (GPa) = 88.92437 6.27433 47.59935
#
# Velocity S-wave (km/s) = 7.34251 1.95037 5.37198
# Velocity P-wave (km/s) = 10.09379 5.95964 8.28861
#
# Compressibility (1/GPa) = 0.02020814
#
# Stress axis : x y z
#
# Youngs Moduli (GPa) = 56.27987 56.27987 95.63376
#
# Poissons Ratio (x) = 0.59840 0.10807
# Poissons Ratio (y) = 0.59840 0.10807
# Poissons Ratio (z) = 0.06360 0.06360
#
# Static dielectric constant tensor:
#      x y z
#    x 1.558460 0.000000 0.000000 
#    y 0.000000 1.558460 0.000000 
#    z 0.000000 0.000000 1.565800 
# 
# From -- ./inp_files/647.got.cif
#   From: 2010.05.17/outbox.cif.g08.bks.cpg/sg157_cif.got.tgz:647.got - 2010.05.20 10:49:36.
