data_PCOD9577937
_publ_section_title
;
Structure prediction by ZEFSAII (Michael W. Deem and Ramdas Pophale) SiO2 
 PCOD9577937
Probable space group: P -3 1 M 
;
_chemical_formula_sum "Si O2"
_cell_formula_units_Z 42
_cell_length_a 23.200274
_cell_length_b 23.200274
_cell_length_c 5.168287
_cell_angle_alpha 90.000000
_cell_angle_beta 90.000000
_cell_angle_gamma 120.000000
_cell_volume 2409.148009
_symmetry_space_group_name_H-M "P -3 1 M "
_symmetry_group_IT_number 162
_symmetry_cell_setting 'hexagonal'
loop_
_space_group_symop_operation_xyz
x,y,z
-y,x-y,z
-x+y,-x,z
-y,-x,-z
-x+y,y,-z
x,x-y,-z
-x,-y,-z
y,-x+y,-z
x-y,x,-z
y,x,z
x-y,-y,z
-x,-x+y,z
loop_
_atom_site_type_symbol
_atom_site_label
_atom_site_fract_x
_atom_site_fract_y
_atom_site_fract_z
Si Si1 0.580402 0.790201 0.500000
Si Si2 0.924172 0.328327 0.372168
Si Si3 0.897479 0.505704 0.129218
Si Si4 0.693151 0.447530 0.750880
O O1 0.616074 0.868208 0.562975
O O2 0.526849 0.778988 0.276494
O O3 0.924659 0.374199 0.612858
O O4 0.000000 0.345796 0.337413
O O5 0.900255 0.348315 0.109922
O O6 0.823482 0.449627 0.221872
O O7 0.928518 0.464259 0.000000
O O8 0.709578 0.419155 0.500000
O O9 0.710388 0.420776 0.000000
#
# Coordination Sequence:
#
# PCOD9577937 Si02
#       4
#     6  12  12  12
#     4   8  18  32  52  66  94 122 159 196 236 292
#     4  11  22  34  52  76  99 132 167 199 252 310
#     4  11  21  34  50  76 101 130 160 213 263 302
#     4   9  15  30  50  66  82 120 164 190 238 301
#
# _framework density 17.433547000000001
#
# number of rings (size 3 to 8) (size 9 to 14) (size 15 to 20)
#    0.857    1.143    2.857    1.714    0.000    3.429 
#    0.000    0.000    0.000    0.571    7.429    0.000 
#    0.000    0.000    0.000    0.429    0.000    0.000 
#
# Total GULP energy -233828.276989 kJ/mol
# GULP energy per Si atom -5567.339928 kJ/mol
# Density = 1.739387 g / cm^3
# Si number density = 17.433547 Si / 1000 Ang^3
#
#
#
# Elastic Constant Matrix: (Units=GPa)
#
#
# Indices 1 2 3 4 5 6 
#
# 1 65.0329 58.8098 14.3046 0.0000 -7.2932 0.0000
# 2 58.8098 65.0329 14.3046 0.0000 7.2932 0.0000
# 3 14.3046 14.3046 137.7076 0.0000 0.0000 0.0000
# 4 0.0000 0.0000 0.0000 3.5829 0.0000 7.2932
# 5 -7.2932 7.2932 0.0000 0.0000 3.5829 0.0000
# 6 0.0000 0.0000 0.0000 7.2932 0.0000 3.1115
#
#
#
# Elastic Compliance Matrix: (Units=1/GPa)
#
#
# Indices 1 2 3 4 5 6 
#
# 1 -0.017169 0.025442 -0.000859 0.000000 -0.086736 0.000000
# 2 0.025442 -0.017169 -0.000859 0.000000 0.086736 0.000000
# 3 -0.000859 -0.000859 0.007440 0.000000 0.000000 0.000000
# 4 0.000000 0.000000 0.000000 -0.074009 0.000000 0.173473
# 5 -0.086736 0.086736 0.000000 0.000000 -0.074009 0.000001
# 6 0.000000 0.000000 0.000000 0.173473 0.000001 -0.085222
#
#
# Mechanical properties :
#
#
# Convention : Reuss Voigt Hill
#
# Bulk Modulus (GPa) = 48.66349 49.17904 48.92126
# Shear Modulus (GPa) = -16.62596 14.07910 -1.27343
#
# Velocity S-wave (km/s) = -3.09152 2.84489 -0.85559
# Velocity P-wave (km/s) = 3.90269 6.24995 5.21022
#
# Compressibility (1/GPa) = 0.02054929
#
# Stress axis : x y z
#
# Youngs Moduli (GPa) = -58.24520 -58.24520 134.40305
#
# Poissons Ratio (x) = 1.48188 0.11551
# Poissons Ratio (y) = 1.48188 0.11551
# Poissons Ratio (z) = -0.05006 -0.05006
#
# Static dielectric constant tensor:
#      x y z
#    x 1.645230 0.000000 0.000000 
#    y 0.000000 1.645230 0.000000 
#    z 0.000000 0.000000 1.643460 
# 
# From -- ./inp_files/439.got.cif
#   From: 2010.05.17/outbox.cif.g08.bks.cpg/sg162_1_cif.got.tgz:439.got - 2010.05.20 10:53:12.
