data_PCOD9577630
_publ_section_title
;
Structure prediction by ZEFSAII (Michael W. Deem and Ramdas Pophale) SiO2 
 PCOD9577630
Probable space group: R 3 C
;
_chemical_formula_sum "Si O2"
_cell_formula_units_Z 28
_cell_length_a 18.000000
_cell_length_b 18.000000
_cell_length_c 15.000000
_cell_angle_alpha 90.000000
_cell_angle_beta 90.000000
_cell_angle_gamma 120.000000
_cell_volume 4208.883462
_symmetry_space_group_name_H-M "R 3 C"
_symmetry_group_IT_number 161
_symmetry_cell_setting 'hexagonal'
loop_
_space_group_symop_operation_xyz
x,y,z
-y,x-y,z
-x+y,-x,z
-x+y,y,1/2+z
x,x-y,1/2+z
-y,-x,1/2+z
2/3+x,1/3+y,1/3+z
2/3-y,1/3+x-y,1/3+z
2/3-x+y,1/3-x,1/3+z
2/3-x+y,1/3+y,5/6+z
2/3+x,1/3+x-y,5/6+z
2/3-y,1/3-x,5/6+z
1/3+x,2/3+y,2/3+z
1/3-y,2/3+x-y,2/3+z
1/3-x+y,2/3-x,2/3+z
1/3-x+y,2/3+y,1/6+z
1/3+x,2/3+x-y,1/6+z
1/3-y,2/3-x,1/6+z
loop_
_atom_site_type_symbol
_atom_site_label
_atom_site_fract_x
_atom_site_fract_y
_atom_site_fract_z
Si Si1 0.739579 0.771618 0.103331
Si Si2 0.856133 0.453328 0.453980
Si Si3 0.693537 0.949115 0.821749
Si Si4 0.333334 0.666668 0.826577
Si Si5 0.067647 0.880836 0.967322
Si Si6 0.000000 0.000000 0.945805
O O1 0.829570 0.772286 0.104754
O O2 0.714248 0.760874 0.212151
O O3 0.666479 0.698733 0.039230
O O4 0.767077 0.859447 0.045154
O O5 0.767122 0.400215 0.510879
O O6 0.835792 0.482843 0.359300
O O7 0.929321 0.539111 0.498650
O O8 0.753390 0.927461 0.885289
O O9 0.333334 0.666667 0.719482
O O10 0.060088 0.959736 0.923954
#
# Coordination Sequence:
#
# PCOD9577630 Si02
#       6
#    18  18  18   6  18   6
#     4  12  26  48  72 110 152 200 254 302 388 451
#     4  11  22  45  75  98 146 196 247 310 368 446
#     4  12  28  44  73 114 155 199 244 321 382 455
#     4   9  18  42  76  96 129 202 240 300 361 438
#     4  11  22  50  72 104 148 194 253 309 374 442
#     4   9  18  45  78  94 138 195 238 312 351 448
#
# _framework density 6.652596
#
# number of rings (size 3 to 8) (size 9 to 14) (size 15 to 20)
#    0.000    0.857    8.571    1.286    3.000    0.000 
#    7.714    0.000    0.000    0.000    0.000    0.000 
#    0.000    0.000    0.000    0.000    0.000    0.000 
#
# Total GULP energy -155888.153698 kJ/mol
# GULP energy per Si atom -5567.434061 kJ/mol
# Density = 0.663745 g / cm^3
# Si number density = 6.652596 Si / 1000 Ang^3
#
#
#
# Elastic Constant Matrix: (Units=GPa)
#
#
# Indices 1 2 3 4 5 6 
#
# 1 130.8115 52.5053 52.2957 0.5185 0.0000 0.0000
# 2 52.5053 130.8105 52.2954 -0.5185 0.0000 0.0000
# 3 52.2957 52.2954 132.0722 0.0000 0.0000 0.0000
# 4 0.5185 -0.5185 0.0000 35.6311 0.0000 0.0000
# 5 0.0000 0.0000 0.0000 0.0000 35.6313 0.5185
# 6 0.0000 0.0000 0.0000 0.0000 0.5185 39.1532
#
#
#
# Elastic Compliance Matrix: (Units=1/GPa)
#
#
# Indices 1 2 3 4 5 6 
#
# 1 0.009910 -0.002863 -0.002790 -0.000186 0.000000 0.000000
# 2 -0.002863 0.009910 -0.002790 0.000186 0.000000 0.000000
# 3 -0.002790 -0.002790 0.009781 0.000000 0.000000 0.000000
# 4 -0.000186 0.000186 0.000000 0.028071 0.000000 0.000000
# 5 0.000000 0.000000 0.000000 0.000000 0.028071 -0.000372
# 6 0.000000 0.000000 0.000000 0.000000 -0.000372 0.025546
#
#
# Mechanical properties :
#
#
# Convention : Reuss Voigt Hill
#
# Bulk Modulus (GPa) = 78.65308 78.65411 78.65360
# Shear Modulus (GPa) = 37.76041 37.85630 37.80835
#
# Velocity S-wave (km/s) = 4.35445 4.35997 4.35721
# Velocity P-wave (km/s) = 8.04841 8.05243 8.05042
#
# Compressibility (1/GPa) = 0.01271406
#
# Stress axis : x y z
#
# Youngs Moduli (GPa) = 100.90839 100.90773 102.23495
#
# Poissons Ratio (x) = 0.28889 0.28528
# Poissons Ratio (y) = 0.28889 0.28527
# Poissons Ratio (z) = 0.28157 0.28157
#
# Static dielectric constant tensor:
#      x y z
#    x 1.782870 0.000000 0.000000 
#    y 0.000000 1.782870 0.000000 
#    z 0.000000 0.000000 1.697950 
# 
# From -- ./inp_files/848.got.cif
#   From: 2010.05.17/outbox.ucp.g08.bks.cvg/sg161_cif.got.tgz:848.got - 2010.06.11 15:15:21.
