data_PCOD9577597
_publ_section_title
;
Structure prediction by ZEFSAII (Michael W. Deem and Ramdas Pophale) SiO2 
 PCOD9577597
Probable space group: R 3 C
;
_chemical_formula_sum "Si O2"
_cell_formula_units_Z 66
_cell_length_a 14.538772
_cell_length_b 14.538772
_cell_length_c 13.190811
_cell_angle_alpha 90.000000
_cell_angle_beta 90.000000
_cell_angle_gamma 120.000000
_cell_volume 2414.668859
_symmetry_space_group_name_H-M "R 3 C"
_symmetry_group_IT_number 161
_symmetry_cell_setting 'hexagonal'
loop_
_space_group_symop_operation_xyz
x,y,z
-y,x-y,z
-x+y,-x,z
-x+y,y,1/2+z
x,x-y,1/2+z
-y,-x,1/2+z
2/3+x,1/3+y,1/3+z
2/3-y,1/3+x-y,1/3+z
2/3-x+y,1/3-x,1/3+z
2/3-x+y,1/3+y,5/6+z
2/3+x,1/3+x-y,5/6+z
2/3-y,1/3-x,5/6+z
1/3+x,2/3+y,2/3+z
1/3-y,2/3+x-y,2/3+z
1/3-x+y,2/3-x,2/3+z
1/3-x+y,2/3+y,1/6+z
1/3+x,2/3+x-y,1/6+z
1/3-y,2/3-x,1/6+z
loop_
_atom_site_type_symbol
_atom_site_label
_atom_site_fract_x
_atom_site_fract_y
_atom_site_fract_z
Si Si1 0.482090 0.985643 0.014414
Si Si2 0.597952 0.490969 0.189135
Si Si3 0.666668 0.333335 0.212710
Si Si4 0.028184 0.219850 0.551485
Si Si5 0.666668 0.333334 0.968201
O O1 0.535896 0.916993 0.985569
O O2 0.388480 0.915265 0.097224
O O3 0.557943 0.082786 0.090379
O O4 0.452010 0.041398 0.927951
O O5 0.626772 0.412575 0.245129
O O6 0.544797 0.543314 0.255593
O O7 0.666668 0.333334 0.090350
O O8 0.032317 0.118715 0.595952
#
# Coordination Sequence:
#
# PCOD9577597 Si02
#       5
#    18  18   6  18   6
#     4  10  24  52  75 114 161 206 264 337 398 482
#     4  10  26  50  75 114 161 211 265 332 399 474
#     4  12  24  49  86 112 172 209 268 334 401 481
#     4  10  25  49  79 118 156 209 270 333 404 477
#     4  12  21  52  83 118 154 221 271 328 398 490
#
# _framework density 27.332937999999999
#
# number of rings (size 3 to 8) (size 9 to 14) (size 15 to 20)
#    1.636    0.000    2.727    0.000    3.818    2.182 
#   19.636    0.000    0.000    0.000    0.000    0.000 
#    0.000    0.000    0.000    0.000    0.000    0.000 
#
# Total GULP energy -122883.822744 kJ/mol
# GULP energy per Si atom -5585.628307 kJ/mol
# Density = 2.727073 g / cm^3
# Si number density = 27.332938 Si / 1000 Ang^3
#
#
#
# Elastic Constant Matrix: (Units=GPa)
#
#
# Indices 1 2 3 4 5 6 
#
# 1 177.0845 75.8477 30.0982 10.9581 0.0000 0.0000
# 2 75.8477 177.0818 30.0980 -10.9591 0.0000 0.0000
# 3 30.0982 30.0980 133.8204 0.0000 0.0000 0.0000
# 4 10.9581 -10.9591 0.0000 35.8756 0.0000 0.0000
# 5 0.0000 0.0000 0.0000 0.0000 35.8760 10.9583
# 6 0.0000 0.0000 0.0000 0.0000 10.9583 50.6173
#
#
#
# Elastic Compliance Matrix: (Units=1/GPa)
#
#
# Indices 1 2 3 4 5 6 
#
# 1 0.007377 -0.003200 -0.000940 -0.003231 0.000000 0.000000
# 2 -0.003200 0.007377 -0.000940 0.003231 0.000000 0.000000
# 3 -0.000940 -0.000940 0.007895 0.000000 0.000000 0.000000
# 4 -0.003231 0.003231 0.000000 0.029848 0.000000 0.000000
# 5 0.000000 0.000000 0.000000 0.000000 0.029847 -0.006462
# 6 0.000000 0.000000 0.000000 0.000000 -0.006462 0.021155
#
#
# Mechanical properties :
#
#
# Convention : Reuss Voigt Hill
#
# Bulk Modulus (GPa) = 80.05291 84.45272 82.25281
# Shear Modulus (GPa) = 42.43660 47.93664 45.18662
#
# Velocity S-wave (km/s) = 3.94456 4.19239 4.07036
# Velocity P-wave (km/s) = 7.07797 7.37561 7.22833
#
# Compressibility (1/GPa) = 0.01249174
#
# Stress axis : x y z
#
# Youngs Moduli (GPa) = 135.55116 135.54861 126.65719
#
# Poissons Ratio (x) = 0.43377 0.11900
# Poissons Ratio (y) = 0.43378 0.11900
# Poissons Ratio (z) = 0.12735 0.12735
#
# Static dielectric constant tensor:
#      x y z
#    x 2.190490 0.000000 0.000000 
#    y 0.000000 2.190500 0.000000 
#    z 0.000000 0.000000 2.194770 
# 
# From -- ./inp_files/1208.got.cif
#   From: 2010.05.17/outbox.cif.g08.bks.cpg/sg161_cif.got.tgz:1208.got - 2010.05.20 10:52:32.
