data_PCOD9577471
_publ_section_title
;
Structure prediction by ZEFSAII (Michael W. Deem and Ramdas Pophale) SiO2 
 PCOD9577471
Probable space group: R 3 M
;
_chemical_formula_sum "Si O2"
_cell_formula_units_Z 69
_cell_length_a 18.690456
_cell_length_b 18.690456
_cell_length_c 13.342182
_cell_angle_alpha 90.000000
_cell_angle_beta 90.000000
_cell_angle_gamma 120.000000
_cell_volume 4036.428711
_symmetry_space_group_name_H-M "R 3 M"
_symmetry_group_IT_number 160
_symmetry_cell_setting 'hexagonal'
loop_
_space_group_symop_operation_xyz
x,y,z
-y,x-y,z
-x+y,-x,z
-x+y,y,z
x,x-y,z
-y,-x,z
2/3+x,1/3+y,1/3+z
2/3-y,1/3+x-y,1/3+z
2/3-x+y,1/3-x,1/3+z
2/3-x+y,1/3+y,1/3+z
2/3+x,1/3+x-y,1/3+z
2/3-y,1/3-x,1/3+z
1/3+x,2/3+y,2/3+z
1/3-y,2/3+x-y,2/3+z
1/3-x+y,2/3-x,2/3+z
1/3-x+y,2/3+y,2/3+z
1/3+x,2/3+x-y,2/3+z
1/3-y,2/3-x,2/3+z
loop_
_atom_site_type_symbol
_atom_site_label
_atom_site_fract_x
_atom_site_fract_y
_atom_site_fract_z
Si Si1 0.544758 0.618969 0.276423
Si Si2 0.913953 0.827905 0.575039
Si Si3 0.328291 0.164146 0.427314
Si Si4 0.000000 0.000000 0.233204
Si Si5 0.000000 0.000000 0.467419
Si Si6 0.431049 0.862097 0.908012
Si Si7 0.014780 0.278304 0.374799
O O1 0.476095 0.523906 0.299825
O O2 0.502625 0.675425 0.295702
O O3 0.630431 0.670422 0.336510
O O4 0.567725 0.624538 0.157076
O O5 0.870036 0.740072 0.517243
O O6 0.952916 0.905832 0.502274
O O7 0.417816 0.208908 0.474359
O O8 0.309966 0.083552 0.368693
O O9 0.901286 0.950643 0.212251
O O10 0.000000 0.000000 0.351413
O O11 0.380635 0.895608 0.973463
#
# Coordination Sequence:
#
# PCOD9577471 Si02
#       7
#    18   9   9   3   3   9  18
#     4  11  21  35  56  82 111 149 183 228 283 336
#     4  10  18  32  52  80 108 135 182 230 289 336
#     4  10  22  36  56  78 110 156 181 230 290 324
#     4  12  24  30  54  90 108 151 185 238 297 330
#     4  12  18  30  54  84 108 139 185 244 303 333
#     4  12  20  38  58  84 118 145 191 240 289 343
#     4  11  20  38  57  80 113 146 187 233 282 337
#
# _framework density 17.094318999999999
#
# number of rings (size 3 to 8) (size 9 to 14) (size 15 to 20)
#    0.000    1.043    7.826    3.913    0.000    0.000 
#    4.696    0.000    0.000    0.000    0.000    0.000 
#    0.000    0.000    0.000    0.000    0.000    0.000 
#
# Total GULP energy -128057.878909 kJ/mol
# GULP energy per Si atom -5567.733866 kJ/mol
# Density = 1.705541 g / cm^3
# Si number density = 17.094319 Si / 1000 Ang^3
#
#
#
# Elastic Constant Matrix: (Units=GPa)
#
#
# Indices 1 2 3 4 5 6 
#
# 1 145.7649 66.9213 31.1817 5.7071 -0.0003 0.0000
# 2 66.9213 145.7649 31.1817 -5.7071 0.0003 0.0000
# 3 31.1817 31.1817 28.6789 0.0000 0.0000 0.0000
# 4 5.7071 -5.7071 0.0000 4.3849 0.0000 0.0003
# 5 -0.0003 0.0003 0.0000 0.0000 4.3849 5.7071
# 6 0.0000 0.0000 0.0000 0.0003 5.7071 39.4218
#
#
#
# Elastic Compliance Matrix: (Units=1/GPa)
#
#
# Indices 1 2 3 4 5 6 
#
# 1 0.011265 -0.004363 -0.007505 -0.020341 0.000001 0.000000
# 2 -0.004363 0.011265 -0.007505 0.020341 -0.000001 0.000000
# 3 -0.007505 -0.007505 0.051188 0.000000 0.000000 0.000000
# 4 -0.020341 0.020341 0.000000 0.281003 0.000000 -0.000002
# 5 0.000001 -0.000001 0.000000 0.000000 0.281003 -0.040681
# 6 0.000000 0.000000 0.000000 -0.000002 -0.040681 0.031256
#
#
# Mechanical properties :
#
#
# Convention : Reuss Voigt Hill
#
# Bulk Modulus (GPa) = 28.59270 64.30870 46.45070
# Shear Modulus (GPa) = 6.96979 22.36660 14.66819
#
# Velocity S-wave (km/s) = 2.02141 3.62114 2.93247
# Velocity P-wave (km/s) = 4.71284 7.42867 6.22077
#
# Compressibility (1/GPa) = 0.03497396
#
# Stress axis : x y z
#
# Youngs Moduli (GPa) = 88.76933 88.76933 19.53587
#
# Poissons Ratio (x) = 0.38729 0.14661
# Poissons Ratio (y) = 0.38729 0.14661
# Poissons Ratio (z) = 0.66618 0.66618
#
# Static dielectric constant tensor:
#      x y z
#    x 1.548170 0.000000 0.000000 
#    y 0.000000 1.548170 0.000000 
#    z 0.000000 0.000000 1.576520 
# 
# From -- ./inp_files/2106.got.cif
#   From: 2010.05.17/outbox.cif.g08.bks.cpg/sg160_2_cif.got.tgz:2106.got - 2010.05.20 10:51:19.
