data_PCOD9577831
_publ_section_title
;
Structure prediction by ZEFSAII (Michael W. Deem and Ramdas Pophale) SiO2 
 PCOD9577831
Probable space group: P -3 1 M 
;
_chemical_formula_sum "Si O2"
_cell_formula_units_Z 84
_cell_length_a 18.839424
_cell_length_b 18.839424
_cell_length_c 14.475510
_cell_angle_alpha 90.000000
_cell_angle_beta 90.000000
_cell_angle_gamma 120.000000
_cell_volume 4449.382541
_symmetry_space_group_name_H-M "P -3 1 M "
_symmetry_group_IT_number 162
_symmetry_cell_setting 'hexagonal'
loop_
_space_group_symop_operation_xyz
x,y,z
-y,x-y,z
-x+y,-x,z
-y,-x,-z
-x+y,y,-z
x,x-y,-z
-x,-y,-z
y,-x+y,-z
x-y,x,-z
y,x,z
x-y,-y,z
-x,-x+y,z
loop_
_atom_site_type_symbol
_atom_site_label
_atom_site_fract_x
_atom_site_fract_y
_atom_site_fract_z
Si Si1 0.232923 0.754991 0.602045
Si Si2 0.577115 0.144021 0.395731
Si Si3 0.317159 0.414033 0.090588
Si Si4 0.187853 0.093772 0.604740
Si Si5 0.417885 0.151084 0.120029
Si Si6 0.758982 0.670459 0.293651
Si Si7 0.908129 0.471935 0.808975
O O1 0.220414 0.779587 0.500000
O O2 0.326745 0.816805 0.623388
O O3 0.214783 0.662093 0.598585
O O4 0.164839 0.754579 0.666390
O O5 0.552903 0.105805 0.500000
O O6 0.537310 0.094204 0.302197
O O7 0.344600 0.344600 0.108656
O O8 0.233826 0.411684 0.125185
O O9 0.391923 0.496634 0.135665
O O10 0.300463 0.414635 0.981063
O O11 0.222251 0.111126 0.500000
O O12 0.114621 0.114621 0.602785
O O13 0.254298 0.154847 0.675966
O O14 0.154451 0.000000 0.626895
O O15 0.343929 0.090317 0.185334
O O16 0.500118 0.156706 0.162626
O O17 0.690585 0.690585 0.331865
O O18 0.000000 0.542829 0.834393
#
# Coordination Sequence:
#
# PCOD9577831 Si02
#       7
#    12  12  12  12  12  12  12
#     4  10  20  36  54  78 111 150 196 240 291 349
#     4  10  21  36  57  82 113 154 201 249 298 355
#     4  10  23  42  63  89 121 156 200 253 311 370
#     4   9  18  33  54  81 115 157 202 248 299 357
#     4  11  22  39  63  89 116 157 200 245 307 368
#     4  11  21  34  55  83 115 151 193 242 299 356
#     4  11  22  38  60  87 121 160 199 251 312 364
#
# _framework density 18.879023
#
# number of rings (size 3 to 8) (size 9 to 14) (size 15 to 20)
#    0.000    1.714    1.429    3.429    0.000    3.714 
#    0.857    2.857    0.000    0.000    0.000    0.000 
#    0.000    0.000    0.000   27.000    0.000    0.000 
#
# Total GULP energy -467661.824203 kJ/mol
# GULP energy per Si atom -5567.402669 kJ/mol
# Density = 1.883605 g / cm^3
# Si number density = 18.879023 Si / 1000 Ang^3
#
#
#
# Elastic Constant Matrix: (Units=GPa)
#
#
# Indices 1 2 3 4 5 6 
#
# 1 96.4308 61.1161 43.5418 0.0001 -2.2401 0.0000
# 2 61.1161 96.4308 43.5418 -0.0001 2.2401 0.0000
# 3 43.5418 43.5418 101.1423 0.0000 0.0000 0.0000
# 4 0.0001 -0.0001 0.0000 24.6872 0.0000 2.2401
# 5 -2.2401 2.2401 0.0000 0.0000 24.6872 0.0001
# 6 0.0000 0.0000 0.0000 2.2401 0.0001 17.6574
#
#
#
# Elastic Compliance Matrix: (Units=1/GPa)
#
#
# Indices 1 2 3 4 5 6 
#
# 1 0.018488 -0.010159 -0.003586 0.000000 0.002599 0.000000
# 2 -0.010159 0.018488 -0.003586 0.000000 -0.002599 0.000000
# 3 -0.003586 -0.003586 0.012974 0.000000 0.000000 0.000000
# 4 0.000000 0.000000 0.000000 0.040979 0.000000 -0.005199
# 5 0.002599 -0.002599 0.000000 0.000000 0.040979 0.000000
# 6 0.000000 0.000000 0.000000 -0.005199 0.000000 0.057293
#
#
# Mechanical properties :
#
#
# Convention : Reuss Voigt Hill
#
# Bulk Modulus (GPa) = 65.40234 65.60037 65.50136
# Shear Modulus (GPa) = 21.83810 23.12664 22.48237
#
# Velocity S-wave (km/s) = 3.40478 3.50378 3.45464
# Velocity P-wave (km/s) = 7.08341 7.15485 7.11922
#
# Compressibility (1/GPa) = 0.01528997
#
# Stress axis : x y z
#
# Youngs Moduli (GPa) = 54.08925 54.08925 77.07464
#
# Poissons Ratio (x) = 0.54947 0.27637
# Poissons Ratio (y) = 0.54947 0.27637
# Poissons Ratio (z) = 0.19395 0.19395
#
# Static dielectric constant tensor:
#      x y z
#    x 1.662270 0.000000 0.000000 
#    y 0.000000 1.662270 0.000000 
#    z 0.000000 0.000000 1.708620 
# 
# From -- ./inp_files/3181.got.cif
#   From: 2010.05.17/outbox.cif.g08.bks.cpg/sg162_2_cif.got.tgz:3181.got - 2010.05.20 10:53:12.
