data_PCOD9577904
_publ_section_title
;
Structure prediction by ZEFSAII (Michael W. Deem and Ramdas Pophale) SiO2 
 PCOD9577904
Probable space group: P -3 1 M 
;
_chemical_formula_sum "Si O2"
_cell_formula_units_Z 42
_cell_length_a 14.562756
_cell_length_b 14.562756
_cell_length_c 12.529963
_cell_angle_alpha 90.000000
_cell_angle_beta 90.000000
_cell_angle_gamma 120.000000
_cell_volume 2301.269948
_symmetry_space_group_name_H-M "P -3 1 M "
_symmetry_group_IT_number 162
_symmetry_cell_setting 'hexagonal'
loop_
_space_group_symop_operation_xyz
x,y,z
-y,x-y,z
-x+y,-x,z
-y,-x,-z
-x+y,y,-z
x,x-y,-z
-x,-y,-z
y,-x+y,-z
x-y,x,-z
y,x,z
x-y,-y,z
-x,-x+y,z
loop_
_atom_site_type_symbol
_atom_site_label
_atom_site_fract_x
_atom_site_fract_y
_atom_site_fract_z
Si Si1 0.123967 0.876088 0.373259
Si Si2 0.415548 0.182925 0.805893
Si Si3 0.874436 0.125565 0.000000
Si Si4 0.121908 0.542253 0.120727
O O1 0.134699 0.865302 0.500000
O O2 0.159325 0.807294 0.303767
O O3 0.000000 0.833646 0.351750
O O4 0.193679 0.000000 0.344597
O O5 0.495003 0.307327 0.824676
O O6 0.486495 0.128063 0.818239
O O7 0.327827 0.143632 0.899838
O O8 0.000000 0.179383 0.020039
O O9 0.000000 0.449892 0.111961
O O10 0.160992 0.580496 0.000000
#
# Coordination Sequence:
#
# PCOD9577904 Si02
#       4
#    12  12   6  12
#     4  10  21  39  63  91 124 162 201 243 298 366
#     4  12  23  38  60  85 117 155 203 252 295 353
#     4  12  23  36  56  86 122 154 189 242 308 370
#     4  11  21  36  56  81 112 151 193 237 298 358
#
# _framework density 18.250792000000001
#
# number of rings (size 3 to 8) (size 9 to 14) (size 15 to 20)
#    0.000    0.857    2.857    6.143    0.000    1.143 
#    0.000    4.286    0.000    5.143    0.000    0.000 
#    0.000    0.000    0.000    0.000    0.000    0.000 
#
# Total GULP energy -234888.212253 kJ/mol
# GULP energy per Si atom -5592.576482 kJ/mol
# Density = 1.820925 g / cm^3
# Si number density = 18.250792 Si / 1000 Ang^3
#
#
#
# Elastic Constant Matrix: (Units=GPa)
#
#
# Indices 1 2 3 4 5 6 
#
# 1 79.9362 12.3384 22.5162 0.0002 6.0812 0.0000
# 2 12.3384 79.9362 22.5162 -0.0002 -6.0812 0.0000
# 3 22.5162 22.5162 50.1046 0.0000 0.0000 0.0000
# 4 0.0002 -0.0002 0.0000 25.6410 0.0000 -6.0812
# 5 6.0812 -6.0812 0.0000 0.0000 25.6410 0.0002
# 6 0.0000 0.0000 0.0000 -6.0812 0.0002 33.7989
#
#
#
# Elastic Compliance Matrix: (Units=1/GPa)
#
#
# Indices 1 2 3 4 5 6 
#
# 1 0.014667 -0.000786 -0.006238 0.000000 -0.003665 0.000000
# 2 -0.000786 0.014667 -0.006238 0.000000 0.003665 0.000000
# 3 -0.006238 -0.006238 0.025565 0.000000 0.000000 0.000000
# 4 0.000000 0.000000 0.000000 0.040738 0.000000 0.007330
# 5 -0.003665 0.003665 0.000000 0.000000 0.040738 0.000000
# 6 0.000000 0.000000 0.000000 0.007330 0.000000 0.030906
#
#
# Mechanical properties :
#
#
# Convention : Reuss Voigt Hill
#
# Bulk Modulus (GPa) = 35.24174 36.07985 35.66080
# Shear Modulus (GPa) = 24.59856 27.18994 25.89425
#
# Velocity S-wave (km/s) = 3.67523 3.86397 3.77078
# Velocity P-wave (km/s) = 6.11240 6.30229 6.20807
#
# Compressibility (1/GPa) = 0.02837544
#
# Stress axis : x y z
#
# Youngs Moduli (GPa) = 68.17938 68.17938 39.11611
#
# Poissons Ratio (x) = 0.05356 0.24401
# Poissons Ratio (y) = 0.05356 0.24401
# Poissons Ratio (z) = 0.42531 0.42531
#
# Static dielectric constant tensor:
#      x y z
#    x 1.616490 0.000000 0.000000 
#    y 0.000000 1.616490 0.000000 
#    z 0.000000 0.000000 1.610230 
# 
# From -- ./inp_files/1996.got.cif
#   From: 2010.05.17/outbox.cif.g08.bks.cpg/sg162_1_cif.got.tgz:1996.got - 2010.05.20 10:53:12.
