data_PCOD9577551
_publ_section_title
;
Structure prediction by ZEFSAII (Michael W. Deem and Ramdas Pophale) SiO2 
 PCOD9577551
Probable space group: R 3 C
;
_chemical_formula_sum "Si O2"
_cell_formula_units_Z 120
_cell_length_a 19.555943
_cell_length_b 19.555943
_cell_length_c 15.604725
_cell_angle_alpha 90.000000
_cell_angle_beta 90.000000
_cell_angle_gamma 120.000000
_cell_volume 5168.259085
_symmetry_space_group_name_H-M "R 3 C"
_symmetry_group_IT_number 161
_symmetry_cell_setting 'hexagonal'
loop_
_space_group_symop_operation_xyz
x,y,z
-y,x-y,z
-x+y,-x,z
-x+y,y,1/2+z
x,x-y,1/2+z
-y,-x,1/2+z
2/3+x,1/3+y,1/3+z
2/3-y,1/3+x-y,1/3+z
2/3-x+y,1/3-x,1/3+z
2/3-x+y,1/3+y,5/6+z
2/3+x,1/3+x-y,5/6+z
2/3-y,1/3-x,5/6+z
1/3+x,2/3+y,2/3+z
1/3-y,2/3+x-y,2/3+z
1/3-x+y,2/3-x,2/3+z
1/3-x+y,2/3+y,1/6+z
1/3+x,2/3+x-y,1/6+z
1/3-y,2/3-x,1/6+z
loop_
_atom_site_type_symbol
_atom_site_label
_atom_site_fract_x
_atom_site_fract_y
_atom_site_fract_z
Si Si1 0.531745 0.463740 0.643590
Si Si2 0.842432 0.426552 0.804780
Si Si3 0.000000 0.000000 0.688716
Si Si4 0.333334 0.666668 0.062253
Si Si5 0.381895 0.922060 0.439984
Si Si6 0.947970 0.173563 0.136878
Si Si7 0.779115 0.867331 0.942918
Si Si8 0.404429 0.561442 0.782993
O O1 0.573822 0.474423 0.734355
O O2 0.455173 0.377009 0.631497
O O3 0.589423 0.473890 0.565875
O O4 0.507445 0.529028 0.631897
O O5 0.754240 0.376380 0.767499
O O6 0.851973 0.514487 0.796227
O O7 0.865878 0.433431 0.903854
O O8 0.000000 0.000000 0.792348
O O9 0.913156 0.941754 0.651111
O O10 0.421326 0.885148 0.505636
O O11 0.386939 0.897864 0.343268
O O12 0.428842 0.016249 0.452934
O O13 0.040535 0.204479 0.128933
O O14 0.818122 0.938078 0.013232
#
# Coordination Sequence:
#
# PCOD9577551 Si02
#       8
#    18  18   6   6  18  18  18  18
#     4  10  20  41  64  86 123 161 204 256 313 372
#     4  10  22  40  60  90 123 160 204 252 311 372
#     4  12  24  40  68  97 127 170 214 271 335 388
#     4  12  24  40  65  94 133 170 205 265 326 385
#     4  10  21  41  63  88 124 163 206 257 312 378
#     4  10  22  39  62  91 121 161 209 256 309 379
#     4   9  21  38  60  87 120 158 200 253 306 371
#     4  11  22  41  64  93 127 163 210 264 320 379
#
# _framework density 23.21865
#
# number of rings (size 3 to 8) (size 9 to 14) (size 15 to 20)
#    0.000    1.800    0.000    4.500    0.000    7.200 
#    0.000   27.000    0.000    0.000    0.000    0.000 
#    0.000    0.000    0.000    0.000    0.000    0.000 
#
# Total GULP energy -223320.623267 kJ/mol
# GULP energy per Si atom -5583.015582 kJ/mol
# Density = 2.316580 g / cm^3
# Si number density = 23.218650 Si / 1000 Ang^3
#
#
#
# Elastic Constant Matrix: (Units=GPa)
#
#
# Indices 1 2 3 4 5 6 
#
# 1 52.3894 10.9876 10.0332 -1.2989 0.0000 0.0000
# 2 10.9876 52.3885 10.0332 1.2995 0.0000 0.0000
# 3 10.0332 10.0332 135.4168 0.0001 0.0000 0.0000
# 4 -1.2989 1.2995 0.0001 32.0829 0.0000 0.0000
# 5 0.0000 0.0000 0.0000 0.0000 32.0829 -1.2991
# 6 0.0000 0.0000 0.0000 0.0000 -1.2991 20.7006
#
#
#
# Elastic Compliance Matrix: (Units=1/GPa)
#
#
# Indices 1 2 3 4 5 6 
#
# 1 0.020186 -0.004029 -0.001197 0.000980 0.000000 0.000000
# 2 -0.004029 0.020187 -0.001197 -0.000981 0.000000 0.000000
# 3 -0.001197 -0.001197 0.007562 0.000000 0.000000 0.000000
# 4 0.000980 -0.000981 0.000000 0.031249 0.000000 0.000000
# 5 0.000000 0.000000 0.000000 0.000000 0.031249 0.001961
# 6 0.000000 0.000000 0.000000 0.000000 0.001961 0.048431
#
#
# Mechanical properties :
#
#
# Convention : Reuss Voigt Hill
#
# Bulk Modulus (GPa) = 28.49903 33.58920 31.04411
# Shear Modulus (GPa) = 27.26195 30.91598 29.08897
#
# Velocity S-wave (km/s) = 3.43029 3.65295 3.54337
# Velocity P-wave (km/s) = 5.29056 5.68243 5.48999
#
# Compressibility (1/GPa) = 0.03508891
#
# Stress axis : x y z
#
# Youngs Moduli (GPa) = 49.53838 49.53748 132.24010
#
# Poissons Ratio (x) = 0.19958 0.15831
# Poissons Ratio (y) = 0.19958 0.15831
# Poissons Ratio (z) = 0.05930 0.05930
#
# Static dielectric constant tensor:
#      x y z
#    x 1.896370 0.000000 0.000000 
#    y 0.000000 1.896380 0.000000 
#    z 0.000000 0.000000 2.000730 
# 
# From -- ./inp_files/1476.got.cif
#   From: 2010.05.17/outbox.cif.g08.bks.cpg/sg161_cif.got.tgz:1476.got - 2010.05.20 10:52:32.
