data_PCOD9577379
_publ_section_title
;
Structure prediction by ZEFSAII (Michael W. Deem and Ramdas Pophale) SiO2 
 PCOD9577379
Probable space group: P 3 1 C
;
_chemical_formula_sum "Si O2"
_cell_formula_units_Z 40
_cell_length_a 11.981514
_cell_length_b 11.981514
_cell_length_c 14.316498
_cell_angle_alpha 90.000000
_cell_angle_beta 90.000000
_cell_angle_gamma 120.000000
_cell_volume 1779.880429
_symmetry_space_group_name_H-M "P 3 1 C"
_symmetry_group_IT_number 159
_symmetry_cell_setting 'hexagonal'
loop_
_space_group_symop_operation_xyz
x,y,z
-y,x-y,z
-x+y,-x,z
y,x,1/2+z
x-y,-y,1/2+z
-x,-x+y,1/2+z
loop_
_atom_site_type_symbol
_atom_site_label
_atom_site_fract_x
_atom_site_fract_y
_atom_site_fract_z
Si Si1 0.001278 0.745736 0.545360
Si Si2 0.333334 0.666666 0.361182
Si Si3 0.256085 0.999883 0.318070
Si Si4 0.254256 0.998706 0.545360
Si Si5 0.743806 0.999900 0.318070
Si Si6 0.666668 0.333334 0.636903
Si Si7 0.518184 0.481814 0.850454
Si Si8 0.951897 0.475945 0.554092
O O1 0.117379 0.882610 0.576138
O O2 0.862720 0.725453 0.573114
O O3 0.002990 0.747062 0.431835
O O4 0.018348 0.626779 0.576384
O O5 0.333334 0.666667 0.248598
O O6 0.408158 0.591822 0.389347
O O7 0.268006 0.133997 0.289270
O O8 0.252928 0.996992 0.431835
O O9 0.377663 0.983232 0.294370
O O10 0.122893 0.877095 0.286671
O O11 0.373212 0.981634 0.576384
O O12 0.605579 0.983252 0.294369
O O13 0.811414 0.405696 0.598801
O O14 0.471411 0.528598 0.940278
#
# Coordination Sequence:
#
# PCOD9577379 Si02
#       8
#     6   2   6   6   6   2   6   6
#     4   9  16  27  45  75 113 150 197 260 319 369
#     4  12  24  42  66  96 133 176 220 285 354 408
#     4   9  16  27  45  75 113 150 197 260 319 369
#     4   9  16  27  45  75 113 150 197 260 319 369
#     4   9  16  27  45  75 113 150 197 260 319 369
#     4  12  24  42  66  96 133 176 220 285 354 408
#     4  10  20  34  56  88 124 160 224 270 324 391
#     4  10  20  34  56  88 124 160 224 270 324 391
#
# _framework density 22.473420000000001
#
# number of rings (size 3 to 8) (size 9 to 14) (size 15 to 20)
#    0.000    2.400    3.000    0.600    4.200    2.400 
#    1.800    0.000    0.000    1.800    0.000    0.000 
#    0.000    0.000    0.000    0.000    0.000    0.000 
#
# Total GULP energy -223606.556879 kJ/mol
# GULP energy per Si atom -5590.163922 kJ/mol
# Density = 2.242227 g / cm^3
# Si number density = 22.473420 Si / 1000 Ang^3
#
#
#
# Elastic Constant Matrix: (Units=GPa)
#
#
# Indices 1 2 3 4 5 6 
#
# 1 164.8938 76.5400 -11.9851 0.0000 0.0008 0.0000
# 2 76.5400 164.8938 -11.9850 -0.0001 -0.0009 0.0000
# 3 -11.9851 -11.9850 94.2518 0.0000 0.0000 0.0000
# 4 0.0000 -0.0001 0.0000 -12.3858 0.0000 -0.0008
# 5 0.0008 -0.0009 0.0000 0.0000 -12.3857 0.0000
# 6 0.0000 0.0000 0.0000 -0.0008 0.0000 44.1770
#
#
#
# Elastic Compliance Matrix: (Units=1/GPa)
#
#
# Indices 1 2 3 4 5 6 
#
# 1 0.007757 -0.003562 0.000533 0.000000 0.000001 0.000000
# 2 -0.003562 0.007757 0.000533 0.000000 -0.000001 0.000000
# 3 0.000533 0.000533 0.010746 0.000000 0.000000 0.000000
# 4 0.000000 0.000000 0.000000 -0.080738 0.000000 -0.000002
# 5 0.000001 -0.000001 0.000000 0.000000 -0.080738 0.000000
# 6 0.000000 0.000000 0.000000 -0.000002 0.000000 0.022636
#
#
# Mechanical properties :
#
#
# Convention : Reuss Voigt Hill
#
# Bulk Modulus (GPa) = 47.01684 58.79769 52.90726
# Shear Modulus (GPa) = -49.75046 28.64572 -10.55237
#
# Velocity S-wave (km/s) = -4.71015 3.57410 -2.16926
# Velocity P-wave (km/s) = 2.93500 6.57664 4.16161
#
# Compressibility (1/GPa) = 0.02126898
#
# Stress axis : x y z
#
# Youngs Moduli (GPa) = 128.92408 128.92407 93.06193
#
# Poissons Ratio (x) = 0.45918 -0.04964
# Poissons Ratio (y) = 0.45918 -0.04964
# Poissons Ratio (z) = -0.06877 -0.06877
#
# Static dielectric constant tensor:
#      x y z
#    x 1.784820 0.000000 0.000000 
#    y 0.000000 1.784820 0.000000 
#    z 0.000000 0.000000 1.848150 
# 
# From -- ./inp_files/1142.got.cif
#   From: 2010.05.17/outbox.cif.g08.bks.cpg/sg159_cif.got.tgz:1142.got - 2010.05.20 10:50:30.
