data_PCOD9577057
_publ_section_title
;
Structure prediction by ZEFSAII (Michael W. Deem and Ramdas Pophale) SiO2 
 PCOD9577057
Probable space group: R 3 2
;
_chemical_formula_sum "Si O2"
_cell_formula_units_Z 63
_cell_length_a 17.368680
_cell_length_b 17.368680
_cell_length_c 9.008047
_cell_angle_alpha 90.000000
_cell_angle_beta 90.000000
_cell_angle_gamma 120.000000
_cell_volume 2353.395414
_symmetry_space_group_name_H-M "R 3 2"
_symmetry_group_IT_number 155
_symmetry_cell_setting 'hexagonal'
loop_
_space_group_symop_operation_xyz
x,y,z
-y,x-y,z
-x+y,-x,z
x-y,-y,-z
-x,-x+y,-z
y,x,-z
2/3+x,1/3+y,1/3+z
2/3-y,1/3+x-y,1/3+z
2/3-x+y,1/3-x,1/3+z
2/3+x-y,1/3-y,1/3-z
2/3-x,1/3-x+y,1/3-z
2/3+y,1/3+x,1/3-z
1/3+x,2/3+y,2/3+z
1/3-y,2/3+x-y,2/3+z
1/3-x+y,2/3-x,2/3+z
1/3+x-y,2/3-y,2/3-z
1/3-x,2/3-x+y,2/3-z
1/3+y,2/3+x,2/3-z
loop_
_atom_site_type_symbol
_atom_site_label
_atom_site_fract_x
_atom_site_fract_y
_atom_site_fract_z
Si Si1 0.048797 0.485722 0.202458
Si Si2 0.910348 0.104192 0.833454
Si Si3 0.333334 0.379215 0.166667
Si Si4 0.769333 0.527371 0.146444
O O1 0.116511 0.449844 0.166667
O O2 0.058153 0.580342 0.155052
O O3 0.060887 0.505149 0.378378
O O4 0.049290 0.470407 0.861293
O O5 0.002714 0.114158 0.782369
O O6 0.833227 0.009495 0.778359
O O7 0.899258 0.099778 0.010849
O O8 0.334684 0.333334 0.333334
#
# Coordination Sequence:
#
# PCOD9577057 Si02
#       4
#    18  18   9  18
#     4  12  29  47  78 124 177 223 286 376 457 534
#     4  10  23  46  79 115 160 217 299 359 429 538
#     4  12  32  60  98 130 184 248 314 378 462 558
#     4  10  23  45  76 114 154 226 281 357 437 529
#
# _framework density 26.769829000000001
#
# number of rings (size 3 to 8) (size 9 to 14) (size 15 to 20)
#    0.000    1.143    0.000    3.143   16.000    6.857 
#    0.857    0.000    0.000    0.000    0.000    0.000 
#    0.000    0.000    0.000    0.000    0.000    0.000 
#
# Total GULP energy -117028.261186 kJ/mol
# GULP energy per Si atom -5572.774342 kJ/mol
# Density = 2.670890 g / cm^3
# Si number density = 26.769829 Si / 1000 Ang^3
#
#
#
# Elastic Constant Matrix: (Units=GPa)
#
#
# Indices 1 2 3 4 5 6 
#
# 1 147.3341 73.5566 56.7105 -7.3840 0.0001 0.0000
# 2 73.5566 147.3341 56.7104 7.3840 -0.0001 0.0000
# 3 56.7105 56.7104 154.4385 0.0000 0.0001 0.0000
# 4 -7.3840 7.3840 0.0000 33.2889 0.0000 -0.0001
# 5 0.0001 -0.0001 0.0001 0.0000 33.2889 -7.3840
# 6 0.0000 0.0000 0.0000 -0.0001 -7.3840 36.8888
#
#
#
# Elastic Compliance Matrix: (Units=1/GPa)
#
#
# Indices 1 2 3 4 5 6 
#
# 1 0.009882 -0.004302 -0.002049 0.003146 0.000000 0.000000
# 2 -0.004302 0.009882 -0.002049 -0.003146 0.000000 0.000000
# 3 -0.002049 -0.002049 0.007980 0.000000 0.000000 0.000000
# 4 0.003146 -0.003146 0.000000 0.031436 0.000000 0.000000
# 5 0.000000 0.000000 0.000000 0.000000 0.031436 0.006292
# 6 0.000000 0.000000 0.000000 0.000000 0.006292 0.028368
#
#
# Mechanical properties :
#
#
# Convention : Reuss Voigt Hill
#
# Bulk Modulus (GPa) = 91.38168 91.45130 91.41649
# Shear Modulus (GPa) = 35.86037 38.16860 37.01449
#
# Velocity S-wave (km/s) = 3.66400 3.78008 3.72249
# Velocity P-wave (km/s) = 7.21873 7.29988 7.25942
#
# Compressibility (1/GPa) = 0.01094311
#
# Stress axis : x y z
#
# Youngs Moduli (GPa) = 101.19873 101.19873 125.31930
#
# Poissons Ratio (x) = 0.43541 0.25674
# Poissons Ratio (y) = 0.43541 0.25674
# Poissons Ratio (z) = 0.20732 0.20732
#
# Static dielectric constant tensor:
#      x y z
#    x 2.098610 0.000000 0.000000 
#    y 0.000000 2.098610 0.000000 
#    z 0.000000 0.000000 2.223830 
# 
# From -- ./inp_files/1969.got.cif
#   From: 2010.05.17/outbox.cif.g08.bks.cpg/sg155_1_cif.got.tgz:1969.got - 2010.05.20 10:44:35.
