data_PCOD9577936
_publ_section_title
;
Structure prediction by ZEFSAII (Michael W. Deem and Ramdas Pophale) SiO2 
 PCOD9577936
Probable space group: P -3 1 M 
;
_chemical_formula_sum "Si O2"
_cell_formula_units_Z 48
_cell_length_a 24.771755
_cell_length_b 24.771755
_cell_length_c 4.959525
_cell_angle_alpha 90.000000
_cell_angle_beta 90.000000
_cell_angle_gamma 120.000000
_cell_volume 2635.628940
_symmetry_space_group_name_H-M "P -3 1 M "
_symmetry_group_IT_number 162
_symmetry_cell_setting 'hexagonal'
loop_
_space_group_symop_operation_xyz
x,y,z
-y,x-y,z
-x+y,-x,z
-y,-x,-z
-x+y,y,-z
x,x-y,-z
-x,-y,-z
y,-x+y,-z
x-y,x,-z
y,x,z
x-y,-y,z
-x,-x+y,z
loop_
_atom_site_type_symbol
_atom_site_label
_atom_site_fract_x
_atom_site_fract_y
_atom_site_fract_z
Si Si1 0.498282 0.427490 0.238059
Si Si2 0.659381 0.766608 0.987616
Si Si3 0.000000 0.874404 0.418127
Si Si4 0.391778 0.317549 0.511893
Si Si5 0.200669 0.200669 0.906808
O O1 0.533019 0.466982 0.500000
O O2 0.448881 0.448881 0.140515
O O3 0.457634 0.358210 0.358259
O O4 0.549564 0.450437 0.000000
O O5 0.614223 0.712805 0.197156
O O6 0.731342 0.791330 0.057934
O O7 0.646457 0.823228 0.000000
O O8 0.649234 0.738087 0.691086
O O9 0.060816 0.939185 0.500000
O O10 0.000000 0.822332 0.608030
O O11 0.000000 0.849914 0.115785
O O12 0.362254 0.362254 0.541538
#
# Coordination Sequence:
#
# PCOD9577936 Si02
#       5
#    12  12   6  12   6
#     4   9  17  29  49  77 104 136 169 202 241 296
#     4  12  23  37  54  76 103 142 187 230 281 332
#     4  12  25  42  60  78  96 119 158 228 311 378
#     4  11  20  36  54  75 108 140 178 221 268 321
#     4  12  24  42  57  78  98 135 178 230 275 356
#
# _framework density 18.211973
#
# number of rings (size 3 to 8) (size 9 to 14) (size 15 to 20)
#    0.000    1.000    2.500    6.125    0.000    4.000 
#    0.000    1.250    0.000    0.000    0.000    0.000 
#    0.000    0.000    0.000   63.000    0.000    0.000 
#
# Total GULP energy -267921.898268 kJ/mol
# GULP energy per Si atom -5581.706214 kJ/mol
# Density = 1.817052 g / cm^3
# Si number density = 18.211973 Si / 1000 Ang^3
#
#
#
# Elastic Constant Matrix: (Units=GPa)
#
#
# Indices 1 2 3 4 5 6 
#
# 1 48.3483 24.5902 2.4893 0.0039 -1.7076 0.0000
# 2 24.5902 48.3483 2.4893 -0.0039 1.7076 0.0000
# 3 2.4893 2.4893 80.3643 0.0000 0.0000 0.0000
# 4 0.0039 -0.0039 0.0000 -7.9330 0.0000 1.7076
# 5 -1.7076 1.7076 0.0000 0.0000 -7.9330 0.0039
# 6 0.0000 0.0000 0.0000 1.7076 0.0039 11.8790
#
#
#
# Elastic Compliance Matrix: (Units=1/GPa)
#
#
# Indices 1 2 3 4 5 6 
#
# 1 0.027283 -0.013544 -0.000426 0.000020 -0.008788 0.000000
# 2 -0.013544 0.027283 -0.000426 -0.000020 0.008788 0.000000
# 3 -0.000426 -0.000426 0.012470 0.000000 0.000000 0.000000
# 4 0.000020 -0.000020 0.000000 -0.122273 0.000000 0.017576
# 5 -0.008788 0.008788 0.000000 0.000000 -0.122273 0.000041
# 6 0.000000 0.000000 0.000000 0.017576 0.000041 0.081655
#
#
# Mechanical properties :
#
#
# Convention : Reuss Voigt Hill
#
# Bulk Modulus (GPa) = 26.14662 26.24428 26.19545
# Shear Modulus (GPa) = -92.05534 9.03543 -41.50995
#
# Velocity S-wave (km/s) = -7.11733 2.22981 -4.77935
# Velocity P-wave (km/s) = 7.29066 4.59033 4.00516
#
# Compressibility (1/GPa) = 0.03824586
#
# Stress axis : x y z
#
# Youngs Moduli (GPa) = 36.65225 36.65225 80.19443
#
# Poissons Ratio (x) = 0.49643 0.03413
# Poissons Ratio (y) = 0.49643 0.03413
# Poissons Ratio (z) = 0.01560 0.01560
#
# Static dielectric constant tensor:
#      x y z
#    x 1.595320 0.000000 0.000000 
#    y 0.000000 1.595320 0.000000 
#    z 0.000000 0.000000 1.616740 
# 
# From -- ./inp_files/514.got.cif
#   From: 2010.05.17/outbox.cif.g08.bks.cpg/sg162_1_cif.got.tgz:514.got - 2010.05.20 10:53:12.
