data_PCOD9577564
_publ_section_title
;
Structure prediction by ZEFSAII (Michael W. Deem and Ramdas Pophale) SiO2 
 PCOD9577564
Probable space group: R 3 C
;
_chemical_formula_sum "Si O2"
_cell_formula_units_Z 120
_cell_length_a 16.232595
_cell_length_b 16.232595
_cell_length_c 24.812256
_cell_angle_alpha 90.000000
_cell_angle_beta 90.000000
_cell_angle_gamma 120.000000
_cell_volume 5662.038153
_symmetry_space_group_name_H-M "R 3 C"
_symmetry_group_IT_number 161
_symmetry_cell_setting 'hexagonal'
loop_
_space_group_symop_operation_xyz
x,y,z
-y,x-y,z
-x+y,-x,z
-x+y,y,1/2+z
x,x-y,1/2+z
-y,-x,1/2+z
2/3+x,1/3+y,1/3+z
2/3-y,1/3+x-y,1/3+z
2/3-x+y,1/3-x,1/3+z
2/3-x+y,1/3+y,5/6+z
2/3+x,1/3+x-y,5/6+z
2/3-y,1/3-x,5/6+z
1/3+x,2/3+y,2/3+z
1/3-y,2/3+x-y,2/3+z
1/3-x+y,2/3-x,2/3+z
1/3-x+y,2/3+y,1/6+z
1/3+x,2/3+x-y,1/6+z
1/3-y,2/3-x,1/6+z
loop_
_atom_site_type_symbol
_atom_site_label
_atom_site_fract_x
_atom_site_fract_y
_atom_site_fract_z
Si Si1 0.023043 0.566561 0.392826
Si Si2 0.666668 0.333334 0.158173
Si Si3 0.534414 0.732712 0.936003
Si Si4 0.238010 0.785199 0.641192
Si Si5 0.678690 0.611953 0.101437
Si Si6 0.746682 0.072932 0.385631
Si Si7 0.740910 0.102161 0.857943
Si Si8 0.666667 0.333334 0.287803
O O1 0.130394 0.655633 0.391799
O O2 0.028749 0.482734 0.424135
O O3 0.963398 0.521482 0.337849
O O4 0.964891 0.614289 0.418462
O O5 0.666668 0.333334 0.222731
O O6 0.589768 0.358867 0.134576
O O7 0.564560 0.837725 0.914703
O O8 0.615823 0.745781 0.978582
O O9 0.254339 0.828785 0.581401
O O10 0.258690 0.698886 0.640696
O O11 0.320536 0.875591 0.670958
O O12 0.658109 0.686368 0.069583
O O13 0.655433 0.609039 0.164836
O O14 0.791019 0.183606 0.375343
#
# Coordination Sequence:
#
# PCOD9577564 Si02
#       8
#    18   6  18  18  18  18  18   6
#     4  11  23  42  65  96 138 180 229 289 353 427
#     4  12  24  39  69 108 139 182 232 306 366 406
#     4  11  22  41  65  99 142 174 234 293 352 429
#     4  11  24  41  65  98 130 185 225 288 357 425
#     4  10  23  41  67  96 133 182 231 291 351 420
#     4  11  22  43  64  96 134 174 224 285 344 425
#     4  10  22  41  64  97 131 178 236 277 352 415
#     4  12  24  42  69 102 145 173 241 303 363 421
#
# _framework density 21.193781000000001
#
# number of rings (size 3 to 8) (size 9 to 14) (size 15 to 20)
#    0.000    1.200    3.000    3.600    0.000    4.800 
#    0.000    0.000    0.000    0.000    0.000    0.000 
#    0.000    0.000    0.000    0.000    0.000    0.000 
#
# Total GULP energy -222984.935180 kJ/mol
# GULP energy per Si atom -5574.623380 kJ/mol
# Density = 2.114554 g / cm^3
# Si number density = 21.193781 Si / 1000 Ang^3
#
#
#
# Elastic Constant Matrix: (Units=GPa)
#
#
# Indices 1 2 3 4 5 6 
#
# 1 127.6221 54.3391 34.0974 -4.8527 0.0000 0.0000
# 2 54.3391 127.6224 34.0972 4.8527 0.0000 0.0000
# 3 34.0974 34.0972 57.7297 -0.0001 0.0000 0.0000
# 4 -4.8527 4.8527 -0.0001 29.9159 0.0000 0.0000
# 5 0.0000 0.0000 0.0000 0.0000 29.9156 -4.8527
# 6 0.0000 0.0000 0.0000 0.0000 -4.8527 36.6418
#
#
#
# Elastic Compliance Matrix: (Units=1/GPa)
#
#
# Indices 1 2 3 4 5 6 
#
# 1 0.010502 -0.003444 -0.004169 0.002262 0.000000 0.000000
# 2 -0.003444 0.010502 -0.004169 -0.002262 0.000000 0.000000
# 3 -0.004169 -0.004169 0.022246 0.000000 0.000000 0.000000
# 4 0.002262 -0.002262 0.000000 0.034161 0.000000 0.000000
# 5 0.000000 0.000000 0.000000 0.000000 0.034161 0.004524
# 6 0.000000 0.000000 0.000000 0.000000 0.004524 0.027890
#
#
# Mechanical properties :
#
#
# Convention : Reuss Voigt Hill
#
# Bulk Modulus (GPa) = 50.79330 62.00462 56.39896
# Shear Modulus (GPa) = 29.48337 31.99068 30.73703
#
# Velocity S-wave (km/s) = 3.73384 3.88936 3.81239
# Velocity P-wave (km/s) = 6.52739 7.03485 6.78587
#
# Compressibility (1/GPa) = 0.01968763
#
# Stress axis : x y z
#
# Youngs Moduli (GPa) = 95.22288 95.22331 44.95090
#
# Poissons Ratio (x) = 0.32792 0.18739
# Poissons Ratio (y) = 0.32791 0.18739
# Poissons Ratio (z) = 0.39696 0.39696
#
# Static dielectric constant tensor:
#      x y z
#    x 1.846460 0.000000 0.000000 
#    y 0.000000 1.846460 0.000000 
#    z 0.000000 0.000000 1.921620 
# 
# From -- ./inp_files/2448.got.cif
#   From: 2010.05.17/outbox.cif.g08.bks.cpg/sg161_cif.got.tgz:2448.got - 2010.05.20 10:52:32.
