data_PCOD9577705
_publ_section_title
;
Structure prediction by ZEFSAII (Michael W. Deem and Ramdas Pophale) SiO2 
 PCOD9577705
Probable space group: P -3 1 M 
;
_chemical_formula_sum "Si O2"
_cell_formula_units_Z 76
_cell_length_a 18.579191
_cell_length_b 18.579191
_cell_length_c 16.971463
_cell_angle_alpha 90.000000
_cell_angle_beta 90.000000
_cell_angle_gamma 120.000000
_cell_volume 5073.451490
_symmetry_space_group_name_H-M "P -3 1 M "
_symmetry_group_IT_number 162
_symmetry_cell_setting 'hexagonal'
loop_
_space_group_symop_operation_xyz
x,y,z
-y,x-y,z
-x+y,-x,z
-y,-x,-z
-x+y,y,-z
x,x-y,-z
-x,-y,-z
y,-x+y,-z
x-y,x,-z
y,x,z
x-y,-y,z
-x,-x+y,z
loop_
_atom_site_type_symbol
_atom_site_label
_atom_site_fract_x
_atom_site_fract_y
_atom_site_fract_z
Si Si1 0.666668 0.333334 0.404950
Si Si2 0.902556 0.367072 0.307943
Si Si3 0.499304 0.165600 0.130843
Si Si4 0.904391 0.640341 1.000000
Si Si5 0.473860 0.236930 0.594163
Si Si6 0.499304 0.333705 0.130843
Si Si7 0.535485 0.632930 0.692057
O O1 0.666668 0.333334 0.500000
O O2 0.714363 0.428725 0.379969
O O3 0.863876 0.340549 0.220925
O O4 0.853012 0.291794 0.367766
O O5 0.893275 0.446638 0.331926
O O6 0.000000 0.399988 0.304997
O O7 0.420282 0.114163 0.074923
O O8 0.522842 0.261421 0.124254
O O9 0.577536 0.155072 0.108215
O O10 0.000000 0.712435 1.000000
O O11 0.833368 0.666736 0.000000
O O12 0.885837 0.579717 0.074923
O O13 0.468954 0.234477 0.500000
O O14 0.438781 0.146989 0.632234
O O15 0.476671 0.340549 0.220925
O O16 0.600014 0.600014 0.695002
#
# Coordination Sequence:
#
# PCOD9577705 Si02
#       7
#     4  12  12  12  12  12  12
#     4   9  18  30  45  66  84 115 158 193 243 297
#     4  10  20  32  47  68  93 122 160 203 243 283
#     4  10  19  31  49  72  99 131 164 197 230 272
#     4  10  21  35  51  72  99 131 164 198 241 289
#     4  11  20  32  48  64  89 122 158 201 245 292
#     4  10  19  31  49  72  99 131 164 197 230 272
#     4  10  20  32  47  68  93 122 160 203 243 283
#
# _framework density 14.979941
#
# number of rings (size 3 to 8) (size 9 to 14) (size 15 to 20)
#    0.000    1.895    3.158    1.737    0.000    3.158 
#    0.000    3.158    0.000    0.158    0.000    0.000 
#    0.000    0.000    0.000    0.474    0.000    2.053 
#
# Total GULP energy -424049.460273 kJ/mol
# GULP energy per Si atom -5579.598161 kJ/mol
# Density = 1.494585 g / cm^3
# Si number density = 14.979941 Si / 1000 Ang^3
#
#
#
# Elastic Constant Matrix: (Units=GPa)
#
#
# Indices 1 2 3 4 5 6 
#
# 1 73.5045 42.1392 25.0979 0.0000 0.0000 0.0000
# 2 42.1392 73.5045 25.0979 0.0000 0.0000 0.0000
# 3 25.0979 25.0979 62.9955 -0.0001 0.0000 0.0000
# 4 0.0000 0.0000 -0.0001 15.0608 0.0000 0.0000
# 5 0.0000 0.0000 0.0000 0.0000 15.0607 0.0000
# 6 0.0000 0.0000 0.0000 0.0000 0.0000 15.6827
#
#
#
# Elastic Compliance Matrix: (Units=1/GPa)
#
#
# Indices 1 2 3 4 5 6 
#
# 1 0.021169 -0.010714 -0.004165 0.000000 0.000000 0.000000
# 2 -0.010714 0.021169 -0.004165 0.000000 0.000000 0.000000
# 3 -0.004165 -0.004165 0.019193 0.000000 0.000000 0.000000
# 4 0.000000 0.000000 0.000000 0.066398 0.000000 0.000000
# 5 0.000000 0.000000 0.000000 0.000000 0.066398 0.000000
# 6 0.000000 0.000000 0.000000 0.000000 0.000000 0.063765
#
#
# Mechanical properties :
#
#
# Convention : Reuss Voigt Hill
#
# Bulk Modulus (GPa) = 42.65856 43.85274 43.25565
# Shear Modulus (GPa) = 16.44770 17.00548 16.72659
#
# Velocity S-wave (km/s) = 3.31718 3.37295 3.34518
# Velocity P-wave (km/s) = 6.57347 6.67135 6.62259
#
# Compressibility (1/GPa) = 0.02344196
#
# Stress axis : x y z
#
# Youngs Moduli (GPa) = 47.23932 47.23932 52.10164
#
# Poissons Ratio (x) = 0.50610 0.21703
# Poissons Ratio (y) = 0.50610 0.21703
# Poissons Ratio (z) = 0.19677 0.19677
#
# Static dielectric constant tensor:
#      x y z
#    x 1.486750 0.000000 0.000000 
#    y 0.000000 1.486750 0.000000 
#    z 0.000000 0.000000 1.498070 
# 
# From -- ./inp_files/3119.got.cif
#   From: 2010.05.17/outbox.cif.g08.bks.cpg/sg162_2_cif.got.tgz:3119.got - 2010.05.20 10:53:12.
