data_PCOD9577459
_publ_section_title
;
Structure prediction by ZEFSAII (Michael W. Deem and Ramdas Pophale) SiO2 
 PCOD9577459
Probable space group: P 3 1 C
;
_chemical_formula_sum "Si O2"
_cell_formula_units_Z 48
_cell_length_a 18.000000
_cell_length_b 18.000000
_cell_length_c 9.000000
_cell_angle_alpha 90.000000
_cell_angle_beta 90.000000
_cell_angle_gamma 120.000000
_cell_volume 2525.330077
_symmetry_space_group_name_H-M "P 3 1 C"
_symmetry_group_IT_number 159
_symmetry_cell_setting 'hexagonal'
loop_
_space_group_symop_operation_xyz
x,y,z
-y,x-y,z
-x+y,-x,z
y,x,1/2+z
x-y,-y,1/2+z
-x,-x+y,1/2+z
loop_
_atom_site_type_symbol
_atom_site_label
_atom_site_fract_x
_atom_site_fract_y
_atom_site_fract_z
Si Si1 0.507464 0.937474 0.337200
Si Si2 0.931339 0.814477 0.706620
Si Si3 0.334253 0.908066 0.475399
Si Si4 0.072925 0.353277 0.800465
Si Si5 0.176938 0.065673 0.348966
Si Si6 0.879495 0.459703 0.494987
Si Si7 0.836604 0.612905 0.809989
Si Si8 0.778250 0.252076 0.499569
O O1 0.415141 0.896193 0.425884
O O2 0.569750 0.894993 0.359229
O O3 0.551900 0.038243 0.385875
O O4 0.486064 0.919963 0.161390
O O5 0.908388 0.817160 0.528056
O O6 0.898546 0.868442 0.805721
O O7 0.889092 0.715089 0.766152
O O8 0.032574 0.864494 0.748141
O O9 0.324846 0.921651 0.649385
O O10 0.240437 0.831635 0.425365
O O11 0.350041 0.995272 0.394918
O O12 0.057353 0.257705 0.790846
O O13 0.163200 0.400574 0.884810
O O14 0.825943 0.355809 0.494719
O O15 0.805916 0.483911 0.462225
O O16 0.783420 0.565488 0.661458
#
# Coordination Sequence:
#
# PCOD9577459 Si02
#       8
#     6   6   6   6   6   6   6   6
#     4  11  25  42  70 102 139 181 228 289 359 416
#     4  12  26  44  68  97 142 177 240 282 349 405
#     4  12  23  45  70 101 133 185 230 289 347 426
#     4  12  24  41  74  98 134 179 244 277 351 422
#     4  12  26  44  67 100 133 189 227 293 343 415
#     4  11  24  43  72  97 143 181 235 288 359 421
#     4  11  25  44  69 102 139 180 235 289 347 419
#     4  11  23  45  66 103 131 186 231 287 347 426
#
# _framework density 19.007415999999999
#
# number of rings (size 3 to 8) (size 9 to 14) (size 15 to 20)
#    0.000    0.500    5.000    3.500    3.500    1.000 
#    0.750    0.000    0.000    0.000    0.000    0.000 
#    0.000    0.000    0.000    0.000    0.000    0.000 
#
# Total GULP energy -267773.230608 kJ/mol
# GULP energy per Si atom -5578.608971 kJ/mol
# Density = 1.896415 g / cm^3
# Si number density = 19.007416 Si / 1000 Ang^3
#
#
#
# Elastic Constant Matrix: (Units=GPa)
#
#
# Indices 1 2 3 4 5 6 
#
# 1 121.5500 31.4483 13.9233 0.0000 -1.5706 0.0000
# 2 31.4483 121.5500 13.9233 0.0000 1.5706 0.0000
# 3 13.9233 13.9233 72.1584 0.0000 0.0000 0.0000
# 4 0.0000 0.0000 0.0000 34.4169 0.0000 1.5706
# 5 -1.5706 1.5706 0.0000 0.0000 34.4169 0.0000
# 6 0.0000 0.0000 0.0000 1.5706 0.0000 45.0508
#
#
#
# Elastic Compliance Matrix: (Units=1/GPa)
#
#
# Indices 1 2 3 4 5 6 
#
# 1 0.008945 -0.002171 -0.001307 0.000000 0.000507 0.000000
# 2 -0.002171 0.008945 -0.001307 0.000000 -0.000507 0.000000
# 3 -0.001307 -0.001307 0.014363 0.000000 0.000000 0.000000
# 4 0.000000 0.000000 0.000000 0.029102 0.000000 -0.001015
# 5 0.000507 -0.000507 0.000000 0.000000 0.029102 0.000000
# 6 0.000000 0.000000 0.000000 -0.001015 0.000000 0.022233
#
#
# Mechanical properties :
#
#
# Convention : Reuss Voigt Hill
#
# Bulk Modulus (GPa) = 44.08703 48.20534 46.14618
# Shear Modulus (GPa) = 38.51471 39.84114 39.17793
#
# Velocity S-wave (km/s) = 4.50633 4.58327 4.54496
# Velocity P-wave (km/s) = 7.09373 7.30923 7.20229
#
# Compressibility (1/GPa) = 0.02268241
#
# Stress axis : x y z
#
# Youngs Moduli (GPa) = 111.79325 111.79325 69.62425
#
# Poissons Ratio (x) = 0.24272 0.09100
# Poissons Ratio (y) = 0.24272 0.09100
# Poissons Ratio (z) = 0.14612 0.14612
#
# Static dielectric constant tensor:
#      x y z
#    x 1.705430 0.000000 0.000000 
#    y 0.000000 1.705430 0.000000 
#    z 0.000000 0.000000 1.672800 
# 
# From -- ./inp_files/487.got.cif
#   From: 2010.05.17/outbox.ucp.g08.bks.cvg/sg159_cif.got.tgz:487.got - 2010.06.11 15:14:30.
