data_PCOD9577647
_publ_section_title
;
Structure prediction by ZEFSAII (Michael W. Deem and Ramdas Pophale) SiO2 
 PCOD9577647
Probable space group: P -3 1 M 
;
_chemical_formula_sum "Si O2"
_cell_formula_units_Z 96
_cell_length_a 18.250634
_cell_length_b 18.250634
_cell_length_c 21.056565
_cell_angle_alpha 90.000000
_cell_angle_beta 90.000000
_cell_angle_gamma 120.000000
_cell_volume 6073.989944
_symmetry_space_group_name_H-M "P -3 1 M "
_symmetry_group_IT_number 162
_symmetry_cell_setting 'hexagonal'
loop_
_space_group_symop_operation_xyz
x,y,z
-y,x-y,z
-x+y,-x,z
-y,-x,-z
-x+y,y,-z
x,x-y,-z
-x,-y,-z
y,-x+y,-z
x-y,x,-z
y,x,z
x-y,-y,z
-x,-x+y,z
loop_
_atom_site_type_symbol
_atom_site_label
_atom_site_fract_x
_atom_site_fract_y
_atom_site_fract_z
Si Si1 0.502822 0.833261 0.000000
Si Si2 0.839418 0.507057 0.500000
Si Si3 0.096453 0.637098 0.133894
Si Si4 0.902754 0.268926 0.382013
Si Si5 0.669031 0.503077 0.729443
Si Si6 0.633828 0.902754 0.382013
Si Si7 0.669031 0.165953 0.729443
Si Si8 0.903547 0.362901 0.133894
O O1 0.551326 0.869766 0.933875
O O2 0.425840 0.851679 0.000000
O O3 0.467706 0.733853 0.000000
O O4 0.551326 0.869766 0.066125
O O5 0.740465 0.480929 0.500000
O O6 0.849532 0.424766 0.500000
O O7 0.881087 0.566485 0.561188
O O8 0.881087 0.566485 0.438811
O O9 0.147447 0.680092 0.197430
O O10 0.097938 0.548969 0.130407
O O11 0.000000 0.612234 0.142328
O O12 0.830296 0.169704 0.384683
O O13 0.888133 0.307426 0.317388
O O14 0.000000 0.292715 0.386961
O O15 0.692574 0.580707 0.682612
O O16 0.736266 0.472532 0.715324
O O17 0.573868 0.426132 0.720490
O O18 0.707285 0.000000 0.386961
O O19 0.680092 0.147447 0.802570
O O20 0.000000 0.387765 0.142328
#
# Coordination Sequence:
#
# PCOD9577647 Si02
#       8
#    12  12  12  12  12  12  12  12
#     4  10  18  27  39  55  76 101 132 174 225 276
#     4  10  20  33  50  73 102 134 165 194 224 261
#     4   9  17  28  41  56  76 106 144 183 220 261
#     4  10  21  35  51  71  94 122 155 193 236 279
#     4  10  19  30  45  66  93 123 154 187 223 265
#     4  10  21  35  51  71  94 122 155 193 236 279
#     4  10  19  30  45  66  93 123 154 187 223 265
#     4   9  17  28  41  56  76 106 144 183 220 261
#
# _framework density 15.805097
#
# number of rings (size 3 to 8) (size 9 to 14) (size 15 to 20)
#    0.000    2.250    0.000    3.500    0.000    5.000 
#    0.000    5.000    0.000    0.250    0.000    0.000 
#    0.000    3.000    0.000    0.000    0.000    0.000 
#
# Total GULP energy -534938.561137 kJ/mol
# GULP energy per Si atom -5572.276679 kJ/mol
# Density = 1.576912 g / cm^3
# Si number density = 15.805097 Si / 1000 Ang^3
#
#
#
# Elastic Constant Matrix: (Units=GPa)
#
#
# Indices 1 2 3 4 5 6 
#
# 1 69.4315 52.1688 30.3939 0.0000 0.0000 0.0000
# 2 52.1688 69.4315 30.3939 0.0000 0.0000 0.0000
# 3 30.3939 30.3939 89.8414 0.0000 0.0000 0.0000
# 4 0.0000 0.0000 0.0000 16.7201 0.0000 0.0000
# 5 0.0000 0.0000 0.0000 0.0000 16.7201 0.0000
# 6 0.0000 0.0000 0.0000 0.0000 0.0000 8.6313
#
#
#
# Elastic Compliance Matrix: (Units=1/GPa)
#
#
# Indices 1 2 3 4 5 6 
#
# 1 0.033913 -0.024016 -0.003348 0.000000 0.000000 0.000000
# 2 -0.024016 0.033913 -0.003348 0.000000 0.000000 0.000000
# 3 -0.003348 -0.003348 0.013396 0.000000 0.000000 0.000000
# 4 0.000000 0.000000 0.000000 0.059808 0.000000 0.000000
# 5 0.000000 0.000000 0.000000 0.000000 0.059808 0.000000
# 6 0.000000 0.000000 0.000000 0.000000 0.000000 0.115857
#
#
# Mechanical properties :
#
#
# Convention : Reuss Voigt Hill
#
# Bulk Modulus (GPa) = 50.51077 50.51307 50.51192
# Shear Modulus (GPa) = 12.99648 16.13082 14.56365
#
# Velocity S-wave (km/s) = 2.87068 3.19816 3.03884
# Velocity P-wave (km/s) = 6.55863 6.75774 6.65893
#
# Compressibility (1/GPa) = 0.01979776
#
# Stress axis : x y z
#
# Youngs Moduli (GPa) = 29.48720 29.48720 74.64749
#
# Poissons Ratio (x) = 0.70815 0.24995
# Poissons Ratio (y) = 0.70815 0.24995
# Poissons Ratio (z) = 0.09873 0.09873
#
# Static dielectric constant tensor:
#      x y z
#    x 1.518420 0.000000 0.000000 
#    y 0.000000 1.518420 0.000000 
#    z 0.000000 0.000000 1.564720 
# 
# From -- ./inp_files/3915.got.cif
#   From: 2010.05.17/outbox.cif.g08.bks.cpg/sg162_2_cif.got.tgz:3915.got - 2010.05.20 10:53:12.
