data_PCOD9577417
_publ_section_title
;
Structure prediction by ZEFSAII (Michael W. Deem and Ramdas Pophale) SiO2 
 PCOD9577417
Probable space group: P 3 1 C
;
_chemical_formula_sum "Si O2"
_cell_formula_units_Z 48
_cell_length_a 13.359813
_cell_length_b 13.359813
_cell_length_c 14.022333
_cell_angle_alpha 90.000000
_cell_angle_beta 90.000000
_cell_angle_gamma 120.000000
_cell_volume 2167.462871
_symmetry_space_group_name_H-M "P 3 1 C"
_symmetry_group_IT_number 159
_symmetry_cell_setting 'hexagonal'
loop_
_space_group_symop_operation_xyz
x,y,z
-y,x-y,z
-x+y,-x,z
y,x,1/2+z
x-y,-y,1/2+z
-x,-x+y,1/2+z
loop_
_atom_site_type_symbol
_atom_site_label
_atom_site_fract_x
_atom_site_fract_y
_atom_site_fract_z
Si Si1 0.494717 0.922623 0.436990
Si Si2 0.231982 0.529066 0.002628
Si Si3 0.597477 0.761049 0.384986
Si Si4 0.581587 0.395338 0.122284
Si Si5 0.055410 0.263198 0.004641
Si Si6 0.076412 0.839913 0.817644
Si Si7 0.764608 0.834682 0.223394
Si Si8 0.505578 0.854506 0.829133
O O1 0.567448 0.860207 0.410573
O O2 0.364208 0.850102 0.398847
O O3 0.482564 0.918236 0.551194
O O4 0.550358 0.049434 0.394103
O O5 0.365440 0.580213 0.037711
O O6 0.132456 0.401636 0.021424
O O7 0.263224 0.523545 0.889725
O O8 0.699394 0.765481 0.454063
O O9 0.639851 0.777065 0.274882
O O10 0.541972 0.260625 0.101922
O O11 0.562869 0.400573 0.232846
O O12 0.058620 0.218673 0.110143
O O13 0.122378 0.226255 0.928439
O O14 0.086073 0.726893 0.803054
O O15 0.959804 0.827270 0.774790
O O16 0.180831 0.940910 0.760693
#
# Coordination Sequence:
#
# PCOD9577417 Si02
#       8
#     6   6   6   6   6   6   6   6
#     4  12  23  43  68  99 148 187 227 296 360 411
#     4   9  19  40  63  96 141 176 222 290 353 405
#     4  11  24  45  65 103 145 191 234 289 357 437
#     4  10  22  41  68  98 132 179 244 281 348 428
#     4  10  24  43  71 102 142 188 237 294 357 430
#     4  10  24  43  66 100 136 179 234 300 348 418
#     4  11  24  46  70 100 141 184 244 292 362 422
#     4  11  22  37  67 104 133 182 232 290 345 423
#
# _framework density 22.145709
#
# number of rings (size 3 to 8) (size 9 to 14) (size 15 to 20)
#    0.500    1.000    2.500    2.000    1.750    7.000 
#    2.250    0.000    0.000    0.000    0.000    0.000 
#    0.000    0.000    0.000    0.000    0.000    0.000 
#
# Total GULP energy -267579.703061 kJ/mol
# GULP energy per Si atom -5574.577147 kJ/mol
# Density = 2.209530 g / cm^3
# Si number density = 22.145709 Si / 1000 Ang^3
#
#
#
# Elastic Constant Matrix: (Units=GPa)
#
#
# Indices 1 2 3 4 5 6 
#
# 1 -560.5274 635.7374 16.2185 0.0000 374.9800 0.0000
# 2 635.7374 -560.5274 16.2185 0.0000 -374.9800 0.0000
# 3 16.2185 16.2185 125.1252 0.0000 0.0000 0.0000
# 4 0.0000 0.0000 0.0000 -198.3051 0.0000 -374.9800
# 5 374.9800 -374.9800 0.0000 0.0000 -198.3051 0.0000
# 6 0.0000 0.0000 0.0000 -374.9800 0.0000 -598.1324
#
#
#
# Elastic Compliance Matrix: (Units=1/GPa)
#
#
# Indices 1 2 3 4 5 6 
#
# 1 0.009295 0.004788 -0.001825 0.000000 0.008523 0.000000
# 2 0.004788 0.009295 -0.001825 0.000000 -0.008523 0.000000
# 3 -0.001825 -0.001825 0.008465 0.000000 0.000000 0.000000
# 4 0.000000 0.000000 0.000000 0.027191 0.000000 -0.017047
# 5 0.008523 -0.008523 0.000000 0.000000 0.027191 0.000000
# 6 0.000000 0.000000 0.000000 -0.017047 0.000000 0.009015
#
#
# Mechanical properties :
#
#
# Convention : Reuss Voigt Hill
#
# Bulk Modulus (GPa) = 34.09460 37.82436 35.95948
# Shear Modulus (GPa) = 51.04326 -309.88877 -129.42275
#
# Velocity S-wave (km/s) = 4.80613 -11.84211 -7.65299
# Velocity P-wave (km/s) = 6.79908 13.03318 7.86245
#
# Compressibility (1/GPa) = 0.02933016
#
# Stress axis : x y z
#
# Youngs Moduli (GPa) = 107.57960 107.57960 118.13042
#
# Poissons Ratio (x) = -0.51509 0.21564
# Poissons Ratio (y) = -0.51509 0.21564
# Poissons Ratio (z) = 0.19638 0.19638
#
# Static dielectric constant tensor:
#      x y z
#    x 2.228240 0.000000 0.000000 
#    y 0.000000 2.228240 0.000000 
#    z 0.000000 0.000000 1.822240 
# 
# From -- ./inp_files/737.got.cif
#   From: 2010.05.17/outbox.cif.g08.bks.cpg/sg159_cif.got.tgz:737.got - 2010.05.20 10:50:30.
