data_PCOD9577386
_publ_section_title
;
Structure prediction by ZEFSAII (Michael W. Deem and Ramdas Pophale) SiO2 
 PCOD9577386
Probable space group: P 3 1 C
;
_chemical_formula_sum "Si O2"
_cell_formula_units_Z 48
_cell_length_a 17.329974
_cell_length_b 17.329974
_cell_length_c 8.945861
_cell_angle_alpha 90.000000
_cell_angle_beta 90.000000
_cell_angle_gamma 120.000000
_cell_volume 2326.743985
_symmetry_space_group_name_H-M "P 3 1 C"
_symmetry_group_IT_number 159
_symmetry_cell_setting 'hexagonal'
loop_
_space_group_symop_operation_xyz
x,y,z
-y,x-y,z
-x+y,-x,z
y,x,1/2+z
x-y,-y,1/2+z
-x,-x+y,1/2+z
loop_
_atom_site_type_symbol
_atom_site_label
_atom_site_fract_x
_atom_site_fract_y
_atom_site_fract_z
Si Si1 0.134886 0.368921 0.347460
Si Si2 0.074586 0.179870 0.709135
Si Si3 0.869693 0.492758 0.547905
Si Si4 0.287477 0.818595 0.038014
Si Si5 0.813149 0.927426 0.373459
Si Si6 0.390198 0.918576 0.523024
Si Si7 0.282414 0.936978 0.775263
Si Si8 0.458251 0.475659 0.774978
O O1 0.153024 0.402505 0.178293
O O2 0.163458 0.294973 0.372098
O O3 0.158796 0.455473 0.451482
O O4 0.027590 0.311247 0.363887
O O5 0.083167 0.154886 0.541204
O O6 0.145098 0.171564 0.812421
O O7 0.094994 0.280729 0.710279
O O8 0.974563 0.119685 0.771018
O O9 0.850036 0.391287 0.556338
O O10 0.776382 0.489130 0.539518
O O11 0.935435 0.541197 0.688505
O O12 0.924394 0.539529 0.397101
O O13 0.280816 0.863937 0.885732
O O14 0.350718 0.960791 0.639454
O O15 0.452480 0.971919 0.381893
O O16 0.460019 0.916787 0.642791
#
# Coordination Sequence:
#
# PCOD9577386 Si02
#       8
#     6   6   6   6   6   6   6   6
#     4  11  21  37  66  97 120 161 218 275 310 370
#     4  11  24  38  57  82 123 167 216 268 332 384
#     4  11  23  44  67  97 133 178 212 271 334 411
#     4  12  25  42  70  99 136 166 218 271 331 385
#     4  11  24  38  57  82 123 167 216 268 332 384
#     4  11  16  34  65  98 115 152 220 270 303 374
#     4  11  21  37  66  97 120 161 218 275 310 370
#     4  10  20  38  72  94 130 172 218 260 336 410
#
# _framework density 20.629688000000002
#
# number of rings (size 3 to 8) (size 9 to 14) (size 15 to 20)
#    0.000    1.000    5.000    3.500    7.000    0.000 
#    2.250    2.500    0.000    0.000    0.000    0.000 
#    0.000    0.000    0.000    0.000    0.000    0.000 
#
# Total GULP energy -267430.302276 kJ/mol
# GULP energy per Si atom -5571.464631 kJ/mol
# Density = 2.058273 g / cm^3
# Si number density = 20.629688 Si / 1000 Ang^3
#
#
#
# Elastic Constant Matrix: (Units=GPa)
#
#
# Indices 1 2 3 4 5 6 
#
# 1 43.4216 -0.2964 9.3474 0.0000 -0.9687 0.0000
# 2 -0.2964 43.4216 9.3474 0.0000 0.9687 0.0000
# 3 9.3474 9.3474 129.5228 0.0000 0.0000 0.0000
# 4 0.0000 0.0000 0.0000 16.9637 0.0000 0.9687
# 5 -0.9687 0.9687 0.0000 0.0000 16.9637 0.0000
# 6 0.0000 0.0000 0.0000 0.9687 0.0000 21.8590
#
#
#
# Elastic Compliance Matrix: (Units=1/GPa)
#
#
# Indices 1 2 3 4 5 6 
#
# 1 0.023435 0.000503 -0.001727 0.000000 0.001309 0.000000
# 2 0.000503 0.023435 -0.001727 0.000000 -0.001309 0.000000
# 3 -0.001727 -0.001727 0.007970 0.000000 0.000000 0.000000
# 4 0.000000 0.000000 0.000000 0.059099 0.000000 -0.002619
# 5 0.001309 -0.001309 0.000000 0.000000 0.059099 0.000000
# 6 0.000000 0.000000 0.000000 -0.002619 0.000000 0.045864
#
#
# Mechanical properties :
#
#
# Convention : Reuss Voigt Hill
#
# Bulk Modulus (GPa) = 20.43557 28.12920 24.28239
# Shear Modulus (GPa) = 20.73682 24.35512 22.54597
#
# Velocity S-wave (km/s) = 3.17392 3.43969 3.30947
# Velocity P-wave (km/s) = 4.83312 5.42588 5.13806
#
# Compressibility (1/GPa) = 0.04893428
#
# Stress axis : x y z
#
# Youngs Moduli (GPa) = 42.67211 42.67211 125.47077
#
# Poissons Ratio (x) = -0.02145 0.21675
# Poissons Ratio (y) = -0.02145 0.21675
# Poissons Ratio (z) = 0.07372 0.07372
#
# Static dielectric constant tensor:
#      x y z
#    x 1.778530 0.000000 0.000000 
#    y 0.000000 1.778530 0.000000 
#    z 0.000000 0.000000 1.752480 
# 
# From -- ./inp_files/479.got.cif
#   From: 2010.05.17/outbox.cif.g08.bks.cpg/sg159_cif.got.tgz:479.got - 2010.05.20 10:50:30.
