data_PCOD9577394
_publ_section_title
;
Structure prediction by ZEFSAII (Michael W. Deem and Ramdas Pophale) SiO2 
 PCOD9577394
Probable space group: P 3 1 C
;
_chemical_formula_sum "Si O2"
_cell_formula_units_Z 18
_cell_length_a 8.190103
_cell_length_b 8.190103
_cell_length_c 13.111126
_cell_angle_alpha 90.000000
_cell_angle_beta 90.000000
_cell_angle_gamma 120.000000
_cell_volume 761.639308
_symmetry_space_group_name_H-M "P 3 1 C"
_symmetry_group_IT_number 159
_symmetry_cell_setting 'hexagonal'
loop_
_space_group_symop_operation_xyz
x,y,z
-y,x-y,z
-x+y,-x,z
y,x,1/2+z
x-y,-y,1/2+z
-x,-x+y,1/2+z
loop_
_atom_site_type_symbol
_atom_site_label
_atom_site_fract_x
_atom_site_fract_y
_atom_site_fract_z
Si Si1 0.044395 0.346069 0.977440
Si Si2 0.959219 0.646783 0.060824
Si Si3 0.877668 0.748959 0.268853
O O1 0.145502 0.370984 0.868877
O O2 0.201522 0.382279 0.061231
O O3 0.948052 0.468787 0.004942
O O4 0.874240 0.133719 0.990965
O O5 0.859765 0.625868 0.169611
O O6 0.799688 0.897267 0.266465
#
# Coordination Sequence:
#
# PCOD9577394 Si02
#       3
#     6   6   6
#     4  12  24  45  74 111 155 200 256 329 393 472
#     4  12  24  45  74 111 155 200 256 329 393 472
#     4  10  20  44  76 100 140 204 254 300 394 462
#
# _framework density 23.633233000000001
#
# number of rings (size 3 to 8) (size 9 to 14) (size 15 to 20)
#    0.667    0.000    6.667    2.000    0.000    2.667 
#    0.000    0.000    0.000    0.000    0.000    0.000 
#    0.000    0.000    0.000    0.000    0.000    0.000 
#
# Total GULP energy -100250.150668 kJ/mol
# GULP energy per Si atom -5569.452815 kJ/mol
# Density = 2.357944 g / cm^3
# Si number density = 23.633233 Si / 1000 Ang^3
#
#
#
# Elastic Constant Matrix: (Units=GPa)
#
#
# Indices 1 2 3 4 5 6 
#
# 1 91.9249 14.5334 41.9261 0.0000 15.1021 0.0000
# 2 14.5334 91.9249 41.9261 0.0000 -15.1021 0.0000
# 3 41.9261 41.9261 226.9394 0.0000 0.0000 0.0000
# 4 0.0000 0.0000 0.0000 27.0080 0.0000 -15.1021
# 5 15.1021 -15.1021 0.0000 0.0000 27.0080 0.0000
# 6 0.0000 0.0000 0.0000 -15.1021 0.0000 38.6958
#
#
#
# Elastic Compliance Matrix: (Units=1/GPa)
#
#
# Indices 1 2 3 4 5 6 
#
# 1 0.013761 -0.002768 -0.002031 0.000000 -0.009242 0.000000
# 2 -0.002768 0.013761 -0.002031 0.000000 0.009242 0.000000
# 3 -0.002031 -0.002031 0.005157 0.000000 0.000000 0.000000
# 4 0.000000 0.000000 0.000000 0.047362 0.000000 0.018484
# 5 -0.009242 0.009242 0.000000 0.000000 0.047362 0.000000
# 6 0.000000 0.000000 0.000000 0.018484 0.000000 0.033057
#
#
# Mechanical properties :
#
#
# Convention : Reuss Voigt Hill
#
# Bulk Modulus (GPa) = 52.57837 67.50673 60.04255
# Shear Modulus (GPa) = 27.70733 39.36927 33.53830
#
# Velocity S-wave (km/s) = 3.42773 4.08590 3.77120
# Velocity P-wave (km/s) = 6.16131 7.13343 6.66512
#
# Compressibility (1/GPa) = 0.01901923
#
# Stress axis : x y z
#
# Youngs Moduli (GPa) = 72.67088 72.67088 193.91618
#
# Poissons Ratio (x) = 0.20113 0.39383
# Poissons Ratio (y) = 0.20113 0.39383
# Poissons Ratio (z) = 0.14759 0.14759
#
# Static dielectric constant tensor:
#      x y z
#    x 1.948130 0.000000 0.000000 
#    y 0.000000 1.948130 0.000000 
#    z 0.000000 0.000000 2.016940 
# 
# From -- ./inp_files/580.got.cif
#   From: 2010.05.17/outbox.cif.g08.bks.cpg/sg159_cif.got.tgz:580.got - 2010.05.20 10:50:30.
