data_PCOD9577425
_publ_section_title
;
Structure prediction by ZEFSAII (Michael W. Deem and Ramdas Pophale) SiO2 
 PCOD9577425
Probable space group: P 3 1 C
;
_chemical_formula_sum "Si O2"
_cell_formula_units_Z 36
_cell_length_a 8.802335
_cell_length_b 8.802335
_cell_length_c 27.402481
_cell_angle_alpha 90.000000
_cell_angle_beta 90.000000
_cell_angle_gamma 120.000000
_cell_volume 1838.722976
_symmetry_space_group_name_H-M "P 3 1 C"
_symmetry_group_IT_number 159
_symmetry_cell_setting 'hexagonal'
loop_
_space_group_symop_operation_xyz
x,y,z
-y,x-y,z
-x+y,-x,z
y,x,1/2+z
x-y,-y,1/2+z
-x,-x+y,1/2+z
loop_
_atom_site_type_symbol
_atom_site_label
_atom_site_fract_x
_atom_site_fract_y
_atom_site_fract_z
Si Si1 0.362355 0.879569 0.372820
Si Si2 0.655567 0.652312 0.173102
Si Si3 0.993749 0.674956 0.519152
Si Si4 0.681207 0.006251 0.634054
Si Si5 0.344433 0.996745 0.480103
Si Si6 0.879569 0.362356 0.280385
O O1 0.183008 0.690863 0.371735
O O2 0.372615 0.975061 0.423217
O O3 0.388971 1.000000 0.326603
O O4 0.699062 0.848114 0.162253
O O5 0.479814 0.517917 0.144638
O O6 0.627385 0.602445 0.229988
O O7 0.814618 0.629129 0.153548
O O8 0.982160 0.701199 0.576603
O O9 0.848114 0.699063 0.490953
O O10 0.185383 0.814511 0.499658
O O11 0.961896 0.482083 0.508568
O O12 0.816992 0.507856 0.281471
#
# Coordination Sequence:
#
# PCOD9577425 Si02
#       6
#     6   6   6   6   6   6
#     4  10  23  43  69 102 132 178 225 281 352 406
#     4  12  25  45  66 102 141 179 237 288 346 417
#     4  12  24  42  68  97 137 187 234 287 346 412
#     4  12  24  42  68  97 137 187 234 287 346 412
#     4  12  25  45  66 102 141 179 237 288 346 417
#     4  10  23  43  69 102 132 178 225 281 352 406
#
# _framework density 19.578807000000001
#
# number of rings (size 3 to 8) (size 9 to 14) (size 15 to 20)
#    0.667    0.000    3.333    5.000    4.667    0.000 
#    0.000    0.000    0.000    0.667    0.000    0.000 
#    0.000    0.000    0.000    0.000    0.000    0.000 
#
# Total GULP energy -201258.711237 kJ/mol
# GULP energy per Si atom -5590.519757 kJ/mol
# Density = 1.953424 g / cm^3
# Si number density = 19.578807 Si / 1000 Ang^3
#
#
#
# Elastic Constant Matrix: (Units=GPa)
#
#
# Indices 1 2 3 4 5 6 
#
# 1 39.4645 11.4075 44.5481 0.0000 0.0014 0.0000
# 2 11.4075 39.4645 44.5481 0.0000 -0.0014 0.0000
# 3 44.5481 44.5481 196.0496 0.0000 0.0000 0.0000
# 4 0.0000 0.0000 0.0000 -10.3494 0.0000 -0.0014
# 5 0.0014 -0.0014 0.0000 0.0000 -10.3494 0.0000
# 6 0.0000 0.0000 0.0000 -0.0014 0.0000 14.0285
#
#
#
# Elastic Compliance Matrix: (Units=1/GPa)
#
#
# Indices 1 2 3 4 5 6 
#
# 1 0.034146 -0.001495 -0.007419 0.000000 0.000005 0.000000
# 2 -0.001495 0.034146 -0.007419 0.000000 -0.000005 0.000000
# 3 -0.007419 -0.007419 0.008472 0.000000 0.000000 0.000000
# 4 0.000000 0.000000 0.000000 -0.096624 0.000000 -0.000010
# 5 0.000005 -0.000005 0.000000 0.000000 -0.096624 0.000000
# 6 0.000000 0.000000 0.000000 -0.000010 0.000000 0.071283
#
#
# Mechanical properties :
#
#
# Convention : Reuss Voigt Hill
#
# Bulk Modulus (GPa) = 22.67692 52.88733 37.78213
# Shear Modulus (GPa) = 2307.08265 10.29762 1158.69013
#
# Velocity S-wave (km/s) = 34.36445 2.29586 24.35350
# Velocity P-wave (km/s) = 39.82664 5.83945 28.46279
#
# Compressibility (1/GPa) = 0.04409770
#
# Stress axis : x y z
#
# Youngs Moduli (GPa) = 29.28565 29.28565 118.02899
#
# Poissons Ratio (x) = 0.04379 0.87569
# Poissons Ratio (y) = 0.04379 0.87569
# Poissons Ratio (z) = 0.21728 0.21728
#
# Static dielectric constant tensor:
#      x y z
#    x 1.677420 0.000000 0.000000 
#    y 0.000000 1.677420 0.000000 
#    z 0.000000 0.000000 1.643370 
# 
# From -- ./inp_files/1272.got.cif
#   From: 2010.05.17/outbox.cif.g08.bks.cpg/sg159_cif.got.tgz:1272.got - 2010.05.20 10:50:30.
