data_PCOD9577773
_publ_section_title
;
Structure prediction by ZEFSAII (Michael W. Deem and Ramdas Pophale) SiO2 
 PCOD9577773
Probable space group: P -3 1 M 
;
_chemical_formula_sum "Si O2"
_cell_formula_units_Z 60
_cell_length_a 17.880283
_cell_length_b 17.880283
_cell_length_c 13.030729
_cell_angle_alpha 90.000000
_cell_angle_beta 90.000000
_cell_angle_gamma 120.000000
_cell_volume 3607.847077
_symmetry_space_group_name_H-M "P -3 1 M "
_symmetry_group_IT_number 162
_symmetry_cell_setting 'hexagonal'
loop_
_space_group_symop_operation_xyz
x,y,z
-y,x-y,z
-x+y,-x,z
-y,-x,-z
-x+y,y,-z
x,x-y,-z
-x,-y,-z
y,-x+y,-z
x-y,x,-z
y,x,z
x-y,-y,z
-x,-x+y,z
loop_
_atom_site_type_symbol
_atom_site_label
_atom_site_fract_x
_atom_site_fract_y
_atom_site_fract_z
Si Si1 0.104933 0.628928 0.129825
Si Si2 0.459771 0.355296 0.900743
Si Si3 0.898528 0.633578 0.702148
Si Si4 0.332855 0.841968 0.487566
Si Si5 0.730746 0.099461 0.319393
O O1 0.134710 0.557507 0.134323
O O2 0.129060 0.691510 0.226088
O O3 0.000000 0.575125 0.130928
O O4 0.132854 0.672581 0.017804
O O5 0.411983 0.411983 0.904495
O O6 0.408273 0.284803 0.815282
O O7 0.877171 0.557397 0.620545
O O8 0.832715 0.667176 0.675963
O O9 0.000000 0.702506 0.696763
O O10 0.258097 0.741904 0.500000
O O11 0.426507 0.853013 0.500000
O O12 0.312460 0.891059 0.577091
O O13 0.702488 0.000000 0.303767
#
# Coordination Sequence:
#
# PCOD9577773 Si02
#       5
#    12  12  12  12  12
#     4   8  14  26  45  68  92 117 146 181 222 271
#     4   8  14  26  45  68  92 117 146 181 222 271
#     4  10  20  32  47  68  93 122 157 197 237 274
#     4  10  20  33  50  73 100 126 149 176 216 269
#     4  10  20  32  47  68  93 122 157 197 237 274
#
# _framework density 16.630417000000001
#
# number of rings (size 3 to 8) (size 9 to 14) (size 15 to 20)
#    0.000    2.800    0.000    3.200    0.000    4.000 
#    0.000    0.000    0.000    1.200    0.000    0.000 
#    0.000    4.800    0.000   10.000    0.000    0.000 
#
# Total GULP energy -334294.297649 kJ/mol
# GULP energy per Si atom -5571.571627 kJ/mol
# Density = 1.659257 g / cm^3
# Si number density = 16.630417 Si / 1000 Ang^3
#
#
#
# Elastic Constant Matrix: (Units=GPa)
#
#
# Indices 1 2 3 4 5 6 
#
# 1 37.4050 19.4136 -8.3272 -0.0001 -2.1023 0.0000
# 2 19.4136 37.4050 -8.3272 0.0001 2.1023 0.0000
# 3 -8.3272 -8.3272 50.1857 0.0000 0.0000 0.0000
# 4 -0.0001 0.0001 0.0000 14.2286 0.0000 2.1023
# 5 -2.1023 2.1023 0.0000 0.0000 14.2286 -0.0001
# 6 0.0000 0.0000 0.0000 2.1023 -0.0001 8.9957
#
#
#
# Elastic Compliance Matrix: (Units=1/GPa)
#
#
# Indices 1 2 3 4 5 6 
#
# 1 0.038035 -0.019535 0.003070 0.000000 0.008506 0.000000
# 2 -0.019535 0.038035 0.003070 0.000000 -0.008506 0.000000
# 3 0.003070 0.003070 0.020945 0.000000 0.000000 0.000000
# 4 0.000000 0.000000 0.000000 0.072794 0.000000 -0.017012
# 5 0.008506 -0.008506 0.000000 0.000000 0.072794 0.000000
# 6 0.000000 0.000000 0.000000 -0.017012 0.000000 0.115140
#
#
# Mechanical properties :
#
#
# Convention : Reuss Voigt Hill
#
# Bulk Modulus (GPa) = 14.24049 14.50157 14.37103
# Shear Modulus (GPa) = 12.25666 15.63971 13.94819
#
# Velocity S-wave (km/s) = 2.71772 3.06997 2.89920
# Velocity P-wave (km/s) = 4.29296 4.61574 4.45728
#
# Compressibility (1/GPa) = 0.07022229
#
# Stress axis : x y z
#
# Youngs Moduli (GPa) = 26.29179 26.29179 47.74490
#
# Poissons Ratio (x) = 0.51361 -0.14656
# Poissons Ratio (y) = 0.51361 -0.14656
# Poissons Ratio (z) = -0.08071 -0.08071
#
# Static dielectric constant tensor:
#      x y z
#    x 1.552380 0.000000 0.000000 
#    y 0.000000 1.552380 0.000000 
#    z 0.000000 0.000000 1.581900 
# 
# From -- ./inp_files/2305.got.cif
#   From: 2010.05.17/outbox.cif.g08.bks.cpg/sg162_2_cif.got.tgz:2305.got - 2010.05.20 10:53:12.
