data_PCOD9577012
_publ_section_title
;
Structure prediction by ZEFSAII (Michael W. Deem and Ramdas Pophale) SiO2 
 PCOD9577012
Probable space group: R 3 2
;
_chemical_formula_sum "Si O2"
_cell_formula_units_Z 33
_cell_length_a 7.103141
_cell_length_b 7.103141
_cell_length_c 36.597261
_cell_angle_alpha 90.000000
_cell_angle_beta 90.000000
_cell_angle_gamma 120.000000
_cell_volume 1599.116433
_symmetry_space_group_name_H-M "R 3 2"
_symmetry_group_IT_number 155
_symmetry_cell_setting 'hexagonal'
loop_
_space_group_symop_operation_xyz
x,y,z
-y,x-y,z
-x+y,-x,z
x-y,-y,-z
-x,-x+y,-z
y,x,-z
2/3+x,1/3+y,1/3+z
2/3-y,1/3+x-y,1/3+z
2/3-x+y,1/3-x,1/3+z
2/3+x-y,1/3-y,1/3-z
2/3-x,1/3-x+y,1/3-z
2/3+y,1/3+x,1/3-z
1/3+x,2/3+y,2/3+z
1/3-y,2/3+x-y,2/3+z
1/3-x+y,2/3-x,2/3+z
1/3+x-y,2/3-y,2/3-z
1/3-x,2/3-x+y,2/3-z
1/3+y,2/3+x,2/3-z
loop_
_atom_site_type_symbol
_atom_site_label
_atom_site_fract_x
_atom_site_fract_y
_atom_site_fract_z
Si Si1 0.000000 0.248494 0.000000
Si Si2 0.934527 0.390422 0.077046
Si Si3 0.000000 0.000000 0.543282
O O1 0.201555 0.201555 0.000000
O O2 0.989111 0.367691 0.963711
O O3 0.841324 0.555827 0.081314
O O4 0.122558 0.459555 0.106206
O O5 0.000000 0.000000 0.500000
#
# Coordination Sequence:
#
# PCOD9577012 Si02
#       3
#     9  18   6
#     4  10  22  38  68 104 144 170 214 278 346 414
#     4  10  25  42  65 103 135 176 227 276 342 405
#     4  12  27  48  69  96 138 186 237 282 330 402
#
# _framework density 20.636396000000001
#
# number of rings (size 3 to 8) (size 9 to 14) (size 15 to 20)
#    1.636    0.000    0.000    3.273   11.455    2.182 
#    3.273    0.000    0.000    0.000    0.000    0.000 
#    0.000    0.000    0.000    0.000    0.000    0.000 
#
# Total GULP energy -61309.393641 kJ/mol
# GULP energy per Si atom -5573.581240 kJ/mol
# Density = 2.058943 g / cm^3
# Si number density = 20.636396 Si / 1000 Ang^3
#
#
#
# Elastic Constant Matrix: (Units=GPa)
#
#
# Indices 1 2 3 4 5 6 
#
# 1 92.9416 41.4939 66.3333 11.7835 0.0000 0.0000
# 2 41.4939 92.9416 66.3333 -11.7835 0.0000 0.0000
# 3 66.3333 66.3333 208.2009 0.0000 0.0000 0.0000
# 4 11.7835 -11.7835 0.0000 22.0322 0.0000 0.0000
# 5 0.0000 0.0000 0.0000 0.0000 22.0322 11.7835
# 6 0.0000 0.0000 0.0000 0.0000 11.7835 25.7239
#
#
#
# Elastic Compliance Matrix: (Units=1/GPa)
#
#
# Indices 1 2 3 4 5 6 
#
# 1 0.018297 -0.007447 -0.003457 -0.013769 0.000000 0.000000
# 2 -0.007447 0.018297 -0.003457 0.013769 0.000000 0.000000
# 3 -0.003457 -0.003457 0.007006 0.000000 0.000000 0.000000
# 4 -0.013769 0.013769 0.000000 0.060116 0.000000 0.000000
# 5 0.000000 0.000000 0.000000 0.000000 0.060116 -0.027538
# 6 0.000000 0.000000 0.000000 0.000000 -0.027538 0.051489
#
#
# Mechanical properties :
#
#
# Convention : Reuss Voigt Hill
#
# Bulk Modulus (GPa) = 67.21224 82.48946 74.85085
# Shear Modulus (GPa) = 20.08009 28.61920 24.34965
#
# Velocity S-wave (km/s) = 3.12275 3.72806 3.43875
# Velocity P-wave (km/s) = 6.75593 7.65446 7.21919
#
# Compressibility (1/GPa) = 0.01487824
#
# Stress axis : x y z
#
# Youngs Moduli (GPa) = 54.65335 54.65335 142.74026
#
# Poissons Ratio (x) = 0.40702 0.49342
# Poissons Ratio (y) = 0.40702 0.49342
# Poissons Ratio (z) = 0.18892 0.18892
#
# Static dielectric constant tensor:
#      x y z
#    x 1.775930 0.000000 0.000000 
#    y 0.000000 1.775930 0.000000 
#    z 0.000000 0.000000 1.650770 
# 
# From -- ./inp_files/7641.got.cif
#   From: 2010.05.17/outbox.cif.g08.bks.cpg/sg155_4_cif.got.tgz:7641.got - 2010.05.20 10:44:35.
