data_PCOD9577875
_publ_section_title
;
Structure prediction by ZEFSAII (Michael W. Deem and Ramdas Pophale) SiO2 
 PCOD9577875
Probable space group: P -3 1 M 
;
_chemical_formula_sum "Si O2"
_cell_formula_units_Z 84
_cell_length_a 17.554131
_cell_length_b 17.554131
_cell_length_c 16.522193
_cell_angle_alpha 90.000000
_cell_angle_beta 90.000000
_cell_angle_gamma 120.000000
_cell_volume 4409.171511
_symmetry_space_group_name_H-M "P -3 1 M "
_symmetry_group_IT_number 162
_symmetry_cell_setting 'hexagonal'
loop_
_space_group_symop_operation_xyz
x,y,z
-y,x-y,z
-x+y,-x,z
-y,-x,-z
-x+y,y,-z
x,x-y,-z
-x,-y,-z
y,-x+y,-z
x-y,x,-z
y,x,z
x-y,-y,z
-x,-x+y,z
loop_
_atom_site_type_symbol
_atom_site_label
_atom_site_fract_x
_atom_site_fract_y
_atom_site_fract_z
Si Si1 0.104559 0.746054 0.144703
Si Si2 0.670941 0.165599 0.995624
Si Si3 0.542829 0.897109 0.822485
Si Si4 0.799300 0.695305 0.259574
Si Si5 0.512156 0.893130 0.438960
Si Si6 0.690512 0.795732 0.575498
Si Si7 0.501885 0.609089 0.743285
O O1 0.127965 0.709929 0.063430
O O2 0.147058 0.845666 0.177976
O O3 0.130714 0.700211 0.216254
O O4 0.000000 0.703750 0.143819
O O5 0.729491 0.270510 0.000000
O O6 0.567372 0.134744 0.000000
O O7 0.690563 0.141870 0.907216
O O8 0.600954 0.890222 0.751801
O O9 0.442845 0.858094 0.796521
O O10 0.583053 0.000000 0.838336
O O11 0.767225 0.767225 0.261284
O O12 0.849357 0.695952 0.341350
O O13 0.430472 0.860943 0.500000
O O14 0.591164 0.871961 0.448199
O O15 0.478411 0.863867 0.348231
O O16 0.562454 0.000000 0.441723
O O17 0.724100 0.862050 0.500000
O O18 0.746263 0.746263 0.586415
O O19 0.552650 0.552650 0.743184
#
# Coordination Sequence:
#
# PCOD9577875 Si02
#       7
#    12  12  12  12  12  12  12
#     4  11  21  37  63  88 116 159 211 267 320 376
#     4  12  23  37  55  86 129 169 205 246 309 378
#     4  10  21  35  56  87 118 155 208 257 307 374
#     4  11  23  40  61  87 124 164 211 267 323 385
#     4   9  18  32  55  87 119 151 191 241 300 367
#     4  11  23  40  63  93 126 162 211 268 330 393
#     4   9  17  32  55  83 112 145 192 247 298 362
#
# _framework density 19.051197999999999
#
# number of rings (size 3 to 8) (size 9 to 14) (size 15 to 20)
#    0.000    1.571    4.286    1.429    2.000    0.571 
#    0.000    0.000    0.000    5.714    3.714    0.000 
#    0.000    0.571    0.000    0.000    0.000    0.000 
#
# Total GULP energy -467950.670919 kJ/mol
# GULP energy per Si atom -5570.841320 kJ/mol
# Density = 1.900784 g / cm^3
# Si number density = 19.051198 Si / 1000 Ang^3
#
#
#
# Elastic Constant Matrix: (Units=GPa)
#
#
# Indices 1 2 3 4 5 6 
#
# 1 82.1578 40.7636 42.3650 -0.0001 2.9450 0.0000
# 2 40.7636 82.1578 42.3650 0.0001 -2.9450 0.0000
# 3 42.3650 42.3650 131.0747 0.0000 0.0000 0.0000
# 4 -0.0001 0.0001 0.0000 22.6336 0.0000 -2.9450
# 5 2.9450 -2.9450 0.0000 0.0000 22.6336 -0.0001
# 6 0.0000 0.0000 0.0000 -2.9450 -0.0001 20.6971
#
#
#
# Elastic Compliance Matrix: (Units=1/GPa)
#
#
# Indices 1 2 3 4 5 6 
#
# 1 0.017540 -0.007073 -0.003383 0.000000 -0.003203 0.000000
# 2 -0.007073 0.017540 -0.003383 0.000000 0.003203 0.000000
# 3 -0.003383 -0.003383 0.009816 0.000000 0.000000 0.000000
# 4 0.000000 0.000000 0.000000 0.045016 0.000000 0.006405
# 5 -0.003203 0.003203 0.000000 0.000000 0.045016 0.000000
# 6 0.000000 0.000000 0.000000 0.006405 0.000000 0.049227
#
#
# Mechanical properties :
#
#
# Convention : Reuss Voigt Hill
#
# Bulk Modulus (GPa) = 58.07827 60.70863 59.39345
# Shear Modulus (GPa) = 22.98071 24.51931 23.75001
#
# Velocity S-wave (km/s) = 3.47689 3.59140 3.53461
# Velocity P-wave (km/s) = 6.83154 7.00948 6.92108
#
# Compressibility (1/GPa) = 0.01721814
#
# Stress axis : x y z
#
# Youngs Moduli (GPa) = 57.01102 57.01102 101.87237
#
# Poissons Ratio (x) = 0.40325 0.34465
# Poissons Ratio (y) = 0.40325 0.34465
# Poissons Ratio (z) = 0.19288 0.19288
#
# Static dielectric constant tensor:
#      x y z
#    x 1.702020 0.000000 0.000000 
#    y 0.000000 1.702020 0.000000 
#    z 0.000000 0.000000 1.680880 
# 
# From -- ./inp_files/3164.got.cif
#   From: 2010.05.17/outbox.cif.g08.bks.cpg/sg162_2_cif.got.tgz:3164.got - 2010.05.20 10:53:12.
