data_PCOD9577845
_publ_section_title
;
Structure prediction by ZEFSAII (Michael W. Deem and Ramdas Pophale) SiO2 
 PCOD9577845
Probable space group: P -3 1 M 
;
_chemical_formula_sum "Si O2"
_cell_formula_units_Z 60
_cell_length_a 15.299618
_cell_length_b 15.299618
_cell_length_c 14.285271
_cell_angle_alpha 90.000000
_cell_angle_beta 90.000000
_cell_angle_gamma 120.000000
_cell_volume 2895.878192
_symmetry_space_group_name_H-M "P -3 1 M "
_symmetry_group_IT_number 162
_symmetry_cell_setting 'hexagonal'
loop_
_space_group_symop_operation_xyz
x,y,z
-y,x-y,z
-x+y,-x,z
-y,-x,-z
-x+y,y,-z
x,x-y,-z
-x,-y,-z
y,-x+y,-z
x-y,x,-z
y,x,z
x-y,-y,z
-x,-x+y,z
loop_
_atom_site_type_symbol
_atom_site_label
_atom_site_fract_x
_atom_site_fract_y
_atom_site_fract_z
Si Si1 0.315325 0.194994 0.398564
Si Si2 0.392538 0.515807 0.404962
Si Si3 0.758170 0.555718 0.890440
Si Si4 0.120165 0.579009 0.798948
Si Si5 0.881020 0.114962 0.796316
O O1 0.289097 0.144549 0.500000
O O2 0.259813 0.259813 0.388428
O O3 0.434063 0.274787 0.396554
O O4 0.278663 0.123380 0.308653
O O5 0.420668 0.579333 0.500000
O O6 0.451715 0.451715 0.409381
O O7 0.429024 0.577438 0.309397
O O8 0.642475 0.494184 0.856908
O O9 0.818415 0.509107 0.838309
O O10 0.809077 0.671885 0.859304
O O11 0.773490 0.546980 0.000000
O O12 0.000000 0.533854 0.804895
O O13 0.000000 0.153323 0.793071
O O14 0.817693 0.000000 0.829019
#
# Coordination Sequence:
#
# PCOD9577845 Si02
#       5
#    12  12  12  12  12
#     4  10  20  36  59  90 128 170 216 265 321 392
#     4   9  19  35  59  92 130 166 202 252 317 388
#     4  12  26  44  69  99 129 170 225 278 336 404
#     4  11  24  45  68  96 134 171 209 264 330 394
#     4  11  24  43  66  96 134 178 230 286 341 398
#
# _framework density 20.719103
#
# number of rings (size 3 to 8) (size 9 to 14) (size 15 to 20)
#    0.000    1.400    2.000    3.000    2.800    4.000 
#    0.000    0.000    0.000    4.800    0.000    0.000 
#    0.000    0.000    0.000    0.000    0.000    0.000 
#
# Total GULP energy -335568.866588 kJ/mol
# GULP energy per Si atom -5592.814443 kJ/mol
# Density = 2.067195 g / cm^3
# Si number density = 20.719103 Si / 1000 Ang^3
#
#
#
# Elastic Constant Matrix: (Units=GPa)
#
#
# Indices 1 2 3 4 5 6 
#
# 1 149.4754 -86.2586 -7.3361 0.0006 79.1053 0.0000
# 2 -86.2586 149.4754 -7.3361 -0.0006 -79.1053 0.0000
# 3 -7.3361 -7.3361 91.8604 0.0000 0.0000 0.0000
# 4 0.0006 -0.0006 0.0000 77.9854 0.0000 -79.1053
# 5 79.1053 -79.1053 0.0000 0.0000 77.9854 0.0006
# 6 0.0000 0.0000 0.0000 -79.1053 0.0006 117.8670
#
#
#
# Elastic Compliance Matrix: (Units=1/GPa)
#
#
# Indices 1 2 3 4 5 6 
#
# 1 0.014703 0.001414 0.001287 0.000000 -0.013480 0.000000
# 2 0.001414 0.014703 0.001287 0.000000 0.013480 0.000000
# 3 0.001287 0.001287 0.011092 0.000000 0.000000 0.000000
# 4 0.000000 0.000000 0.000000 0.040169 0.000000 0.026959
# 5 -0.013480 0.013480 0.000000 0.000000 0.040169 0.000000
# 6 0.000000 0.000000 0.000000 0.026959 0.000000 0.026578
#
#
# Mechanical properties :
#
#
# Convention : Reuss Voigt Hill
#
# Bulk Modulus (GPa) = 20.62923 20.99440 20.81181
# Shear Modulus (GPa) = 32.13472 87.55034 59.84253
#
# Velocity S-wave (km/s) = 3.94251 6.50750 5.38010
# Velocity P-wave (km/s) = 5.54101 8.16200 6.97571
#
# Compressibility (1/GPa) = 0.04847492
#
# Stress axis : x y z
#
# Youngs Moduli (GPa) = 68.01311 68.01311 90.15775
#
# Poissons Ratio (x) = -0.09619 -0.11605
# Poissons Ratio (y) = -0.09619 -0.11605
# Poissons Ratio (z) = -0.08754 -0.08754
#
# Static dielectric constant tensor:
#      x y z
#    x 1.722940 0.000000 0.000000 
#    y 0.000000 1.722940 0.000000 
#    z 0.000000 0.000000 1.802050 
# 
# From -- ./inp_files/2931.got.cif
#   From: 2010.05.17/outbox.cif.g08.bks.cpg/sg162_2_cif.got.tgz:2931.got - 2010.05.20 10:53:12.
