data_PCOD9577149
_publ_section_title
;
Structure prediction by ZEFSAII (Michael W. Deem and Ramdas Pophale) SiO2 
 PCOD9577149
Probable space group: R 3 2
;
_chemical_formula_sum "Si O2"
_cell_formula_units_Z 69
_cell_length_a 13.675709
_cell_length_b 13.675709
_cell_length_c 17.328202
_cell_angle_alpha 90.000000
_cell_angle_beta 90.000000
_cell_angle_gamma 120.000000
_cell_volume 2806.621423
_symmetry_space_group_name_H-M "R 3 2"
_symmetry_group_IT_number 155
_symmetry_cell_setting 'hexagonal'
loop_
_space_group_symop_operation_xyz
x,y,z
-y,x-y,z
-x+y,-x,z
x-y,-y,-z
-x,-x+y,-z
y,x,-z
2/3+x,1/3+y,1/3+z
2/3-y,1/3+x-y,1/3+z
2/3-x+y,1/3-x,1/3+z
2/3+x-y,1/3-y,1/3-z
2/3-x,1/3-x+y,1/3-z
2/3+y,1/3+x,1/3-z
1/3+x,2/3+y,2/3+z
1/3-y,2/3+x-y,2/3+z
1/3-x+y,2/3-x,2/3+z
1/3+x-y,2/3-y,2/3-z
1/3-x,2/3-x+y,2/3-z
1/3+y,2/3+x,2/3-z
loop_
_atom_site_type_symbol
_atom_site_label
_atom_site_fract_x
_atom_site_fract_y
_atom_site_fract_z
Si Si1 0.483778 0.129806 0.684130
Si Si2 0.169016 0.440225 0.735818
Si Si3 0.046375 0.713042 0.833334
Si Si4 0.779983 0.619025 0.543980
Si Si5 0.333335 0.666668 0.256250
O O1 0.473938 0.195221 0.610490
O O2 0.396184 0.118877 0.750541
O O3 0.607572 0.204194 0.716819
O O4 0.446341 0.009154 0.647565
O O5 0.196707 0.530040 0.666667
O O6 0.255249 0.412796 0.781144
O O7 0.098295 0.463595 0.802201
O O8 0.023528 0.596112 0.869233
O O9 0.333334 0.666668 0.166667
#
# Coordination Sequence:
#
# PCOD9577149 Si02
#       5
#    18  18   9  18   6
#     4  11  24  46  70 109 153 203 257 329 400 478
#     4  12  24  48  79 103 158 213 259 319 406 480
#     4  12  26  48  78 116 160 204 274 334 396 500
#     4  11  26  46  76 110 152 207 262 327 409 465
#     4  12  30  39  75 117 151 191 274 333 399 489
#
# _framework density 24.584717000000001
#
# number of rings (size 3 to 8) (size 9 to 14) (size 15 to 20)
#    0.000    0.522    5.217    1.565    5.478    5.217 
#    1.565    0.000    0.000    0.000    0.000    0.000 
#    0.000    0.000    0.000    0.000    0.000    0.000 
#
# Total GULP energy -128371.355513 kJ/mol
# GULP energy per Si atom -5581.363283 kJ/mol
# Density = 2.452876 g / cm^3
# Si number density = 24.584717 Si / 1000 Ang^3
#
#
#
# Elastic Constant Matrix: (Units=GPa)
#
#
# Indices 1 2 3 4 5 6 
#
# 1 245.2382 -144.4604 37.1052 -0.0980 -0.0166 0.0255
# 2 -144.4604 245.2340 37.0747 0.0979 0.0165 -0.0212
# 3 37.1052 37.0747 175.7798 -0.0004 0.0000 0.0013
# 4 -0.0980 0.0979 -0.0004 24.2991 0.0001 0.0150
# 5 -0.0166 0.0165 0.0000 0.0001 24.2985 -0.0871
# 6 0.0255 -0.0212 0.0013 0.0150 -0.0871 194.6067
#
#
#
# Elastic Compliance Matrix: (Units=1/GPa)
#
#
# Indices 1 2 3 4 5 6 
#
# 1 0.007157 0.004591 -0.002479 0.000010 0.000002 0.000000
# 2 0.004591 0.007157 -0.002479 -0.000010 -0.000002 0.000000
# 3 -0.002479 -0.002479 0.006735 0.000000 0.000000 0.000000
# 4 0.000010 -0.000010 0.000000 0.041154 0.000000 -0.000003
# 5 0.000002 -0.000002 0.000000 0.000000 0.041155 0.000018
# 6 0.000000 0.000000 0.000000 -0.000003 0.000018 0.005139
#
#
# Mechanical properties :
#
#
# Convention : Reuss Voigt Hill
#
# Bulk Modulus (GPa) = 49.22438 58.41012 53.81725
# Shear Modulus (GPa) = 43.10292 97.74302 70.42297
#
# Velocity S-wave (km/s) = 4.19171 6.31221 5.35791
# Velocity P-wave (km/s) = 6.59493 8.77129 7.75979
#
# Compressibility (1/GPa) = 0.02031514
#
# Stress axis : x y z
#
# Youngs Moduli (GPa) = 139.72344 139.72854 148.47834
#
# Poissons Ratio (x) = -0.64146 0.36808
# Poissons Ratio (y) = -0.64144 0.36801
# Poissons Ratio (z) = 0.34638 0.34632
#
# Static dielectric constant tensor:
#      x y z
#    x 1.898910 0.000020 -0.000010 
#    y 0.000020 1.899120 0.000010 
#    z -0.000010 0.000010 1.974630 
# 
# From -- ./inp_files/5932.got.cif
#   From: 2010.05.17/outbox.cif.g08.bks.cpg/sg155_3_cif.got.tgz:5932.got - 2010.05.20 10:44:35.
