data_PCOD9577627
_publ_section_title
;
Structure prediction by ZEFSAII (Michael W. Deem and Ramdas Pophale) SiO2 
 PCOD9577627
Probable space group: R 3 C
;
_chemical_formula_sum "Si O2"
_cell_formula_units_Z 42
_cell_length_a 21.000000
_cell_length_b 21.000000
_cell_length_c 18.000000
_cell_angle_alpha 90.000000
_cell_angle_beta 90.000000
_cell_angle_gamma 120.000000
_cell_volume 6874.509655
_symmetry_space_group_name_H-M "R 3 C"
_symmetry_group_IT_number 161
_symmetry_cell_setting 'hexagonal'
loop_
_space_group_symop_operation_xyz
x,y,z
-y,x-y,z
-x+y,-x,z
-x+y,y,1/2+z
x,x-y,1/2+z
-y,-x,1/2+z
2/3+x,1/3+y,1/3+z
2/3-y,1/3+x-y,1/3+z
2/3-x+y,1/3-x,1/3+z
2/3-x+y,1/3+y,5/6+z
2/3+x,1/3+x-y,5/6+z
2/3-y,1/3-x,5/6+z
1/3+x,2/3+y,2/3+z
1/3-y,2/3+x-y,2/3+z
1/3-x+y,2/3-x,2/3+z
1/3-x+y,2/3+y,1/6+z
1/3+x,2/3+x-y,1/6+z
1/3-y,2/3-x,1/6+z
loop_
_atom_site_type_symbol
_atom_site_label
_atom_site_fract_x
_atom_site_fract_y
_atom_site_fract_z
Si Si1 0.214071 0.788618 0.629984
Si Si2 0.753378 0.606714 0.033423
Si Si3 0.767855 0.977182 0.684101
Si Si4 0.366342 0.477600 0.706000
Si Si5 0.331065 0.308361 0.281377
Si Si6 0.105907 0.729776 0.492963
Si Si7 0.166999 0.964366 0.014964
O O1 0.211204 0.856083 0.669999
O O2 0.166612 0.715045 0.677787
O O3 0.174150 0.769676 0.549982
O O4 0.300012 0.814848 0.632127
O O5 0.808653 0.574907 0.049194
O O6 0.705399 0.564681 0.961216
O O7 0.698934 0.610909 0.094763
O O8 0.806296 0.989547 0.602643
O O9 0.692074 0.971976 0.656428
O O10 0.793183 0.037854 0.749620
O O11 0.396039 0.426567 0.668222
O O12 0.419829 0.560874 0.680698
O O13 0.375925 0.325067 0.203887
O O14 0.067243 0.779917 0.487958
#
# Coordination Sequence:
#
# PCOD9577627 Si02
#       7
#    18  18  18  18  18  18  18
#     4  11  20  38  58  86 119 160 197 254 301 359
#     4  11  19  37  59  86 125 155 195 253 309 362
#     4  10  19  34  57  88 122 160 194 250 302 361
#     4  10  21  39  57  86 121 156 205 250 301 363
#     4  10  19  32  56  87 119 157 190 247 303 363
#     4  10  19  35  60  85 123 155 199 250 300 358
#     4  10  21  39  61  82 121 167 200 248 308 362
#
# _framework density 6.1095269999999999
#
# number of rings (size 3 to 8) (size 9 to 14) (size 15 to 20)
#    0.000    1.714    8.571    0.857    0.000    0.000 
#    8.571    0.000    0.000    0.000    0.000    0.000 
#    0.000    0.000    0.000    0.000    0.000    0.000 
#
# Total GULP energy -233989.172544 kJ/mol
# GULP energy per Si atom -5571.170775 kJ/mol
# Density = 0.609562 g / cm^3
# Si number density = 6.109527 Si / 1000 Ang^3
#
#
#
# Elastic Constant Matrix: (Units=GPa)
#
#
# Indices 1 2 3 4 5 6 
#
# 1 90.4781 34.7735 36.1235 6.1184 0.0000 0.0000
# 2 34.7735 90.4781 36.1235 -6.1184 0.0000 0.0000
# 3 36.1235 36.1235 62.5950 0.0000 0.0000 0.0000
# 4 6.1184 -6.1184 0.0000 27.0562 0.0000 0.0000
# 5 0.0000 0.0000 0.0000 0.0000 27.0562 6.1184
# 6 0.0000 0.0000 0.0000 0.0000 6.1184 27.8523
#
#
#
# Elastic Compliance Matrix: (Units=1/GPa)
#
#
# Indices 1 2 3 4 5 6 
#
# 1 0.015429 -0.003461 -0.006907 -0.004272 0.000000 0.000000
# 2 -0.003461 0.015429 -0.006907 0.004272 0.000000 0.000000
# 3 -0.006907 -0.006907 0.023947 0.000000 0.000000 0.000000
# 4 -0.004272 0.004272 0.000000 0.038892 0.000000 0.000000
# 5 0.000000 0.000000 0.000000 0.000000 0.038892 -0.008544
# 6 0.000000 0.000000 0.000000 0.000000 -0.008544 0.037781
#
#
# Mechanical properties :
#
#
# Convention : Reuss Voigt Hill
#
# Bulk Modulus (GPa) = 49.36695 50.84358 50.10526
# Shear Modulus (GPa) = 23.62157 25.49499 24.55828
#
# Velocity S-wave (km/s) = 3.59386 3.73365 3.66442
# Velocity P-wave (km/s) = 6.64936 6.81081 6.73057
#
# Compressibility (1/GPa) = 0.02025647
#
# Stress axis : x y z
#
# Youngs Moduli (GPa) = 64.81298 64.81298 41.75835
#
# Poissons Ratio (x) = 0.22433 0.28841
# Poissons Ratio (y) = 0.22433 0.28841
# Poissons Ratio (z) = 0.44764 0.44764
#
# Static dielectric constant tensor:
#      x y z
#    x 1.654550 0.000000 0.000000 
#    y 0.000000 1.654550 0.000000 
#    z 0.000000 0.000000 1.659900 
# 
# From -- ./inp_files/1426.got.cif
#   From: 2010.05.17/outbox.ucp.g08.bks.cvg/sg161_cif.got.tgz:1426.got - 2010.06.11 15:15:21.
