data_PCOD9577912
_publ_section_title
;
Structure prediction by ZEFSAII (Michael W. Deem and Ramdas Pophale) SiO2 
 PCOD9577912
Probable space group: P -3 1 M 
;
_chemical_formula_sum "Si O2"
_cell_formula_units_Z 48
_cell_length_a 17.259048
_cell_length_b 17.259048
_cell_length_c 9.104135
_cell_angle_alpha 90.000000
_cell_angle_beta 90.000000
_cell_angle_gamma 120.000000
_cell_volume 2348.567214
_symmetry_space_group_name_H-M "P -3 1 M "
_symmetry_group_IT_number 162
_symmetry_cell_setting 'hexagonal'
loop_
_space_group_symop_operation_xyz
x,y,z
-y,x-y,z
-x+y,-x,z
-y,-x,-z
-x+y,y,-z
x,x-y,-z
-x,-y,-z
y,-x+y,-z
x-y,x,-z
y,x,z
x-y,-y,z
-x,-x+y,z
loop_
_atom_site_type_symbol
_atom_site_label
_atom_site_fract_x
_atom_site_fract_y
_atom_site_fract_z
Si Si1 0.513325 0.618689 0.113396
Si Si2 0.102703 0.790245 0.879435
Si Si3 0.783695 0.682501 0.611591
Si Si4 0.665239 0.167057 0.556968
O O1 0.549633 0.549633 0.145596
O O2 0.598432 0.707681 0.049651
O O3 0.495618 0.652047 0.267944
O O4 0.431632 0.568369 0.000000
O O5 0.173154 0.832612 0.747741
O O6 0.000000 0.747853 0.829327
O O7 0.132937 0.867064 0.000000
O O8 0.866407 0.732813 0.500000
O O9 0.739811 0.739811 0.659464
O O10 0.710649 0.595980 0.519719
O O11 0.732247 0.267754 0.500000
O O12 0.566457 0.132914 0.500000
#
# Coordination Sequence:
#
# PCOD9577912 Si02
#       4
#    12  12  12  12
#     4  10  22  39  61  93 132 174 224 277 328 393
#     4  11  23  42  65  95 132 172 223 277 337 407
#     4  11  22  40  67  95 128 171 222 278 334 401
#     4  11  23  40  61  93 134 173 217 271 331 397
#
# _framework density 20.437992999999999
#
# number of rings (size 3 to 8) (size 9 to 14) (size 15 to 20)
#    0.000    1.250    5.000    2.500    3.500    2.000 
#    0.000    0.000    0.000   10.500    0.000    0.000 
#    0.000    0.000    0.000    0.000    0.000    0.000 
#
# Total GULP energy -267573.721717 kJ/mol
# GULP energy per Si atom -5574.452536 kJ/mol
# Density = 2.039148 g / cm^3
# Si number density = 20.437993 Si / 1000 Ang^3
#
#
#
# Elastic Constant Matrix: (Units=GPa)
#
#
# Indices 1 2 3 4 5 6 
#
# 1 91.4682 55.0225 46.3066 0.0002 5.3277 0.0000
# 2 55.0225 91.4682 46.3066 -0.0002 -5.3277 0.0000
# 3 46.3066 46.3066 119.6586 0.0000 0.0000 0.0000
# 4 0.0002 -0.0002 0.0000 33.9181 0.0000 -5.3277
# 5 5.3277 -5.3277 0.0000 0.0000 33.9181 0.0002
# 6 0.0000 0.0000 0.0000 -5.3277 0.0002 18.2228
#
#
#
# Elastic Compliance Matrix: (Units=1/GPa)
#
#
# Indices 1 2 3 4 5 6 
#
# 1 0.018898 -0.009861 -0.003497 0.000000 -0.004517 0.000000
# 2 -0.009861 0.018898 -0.003497 0.000000 0.004517 0.000000
# 3 -0.003497 -0.003497 0.011064 0.000000 0.000000 0.000000
# 4 0.000000 0.000000 0.000000 0.030902 0.000000 0.009035
# 5 -0.004517 0.004517 0.000000 0.000000 0.030902 0.000000
# 6 0.000000 0.000000 0.000000 0.009035 0.000000 0.057518
#
#
# Mechanical properties :
#
#
# Convention : Reuss Voigt Hill
#
# Bulk Modulus (GPa) = 66.00944 66.42961 66.21953
# Shear Modulus (GPa) = 24.16131 27.54241 25.85186
#
# Velocity S-wave (km/s) = 3.44201 3.67496 3.56039
# Velocity P-wave (km/s) = 6.94004 7.11201 7.02655
#
# Compressibility (1/GPa) = 0.01514935
#
# Stress axis : x y z
#
# Youngs Moduli (GPa) = 52.91525 52.91525 90.38291
#
# Poissons Ratio (x) = 0.52178 0.31611
# Poissons Ratio (y) = 0.52178 0.31611
# Poissons Ratio (z) = 0.18507 0.18507
#
# Static dielectric constant tensor:
#      x y z
#    x 1.761150 0.000000 0.000000 
#    y 0.000000 1.761150 0.000000 
#    z 0.000000 0.000000 1.763690 
# 
# From -- ./inp_files/1192.got.cif
#   From: 2010.05.17/outbox.cif.g08.bks.cpg/sg162_1_cif.got.tgz:1192.got - 2010.05.20 10:53:12.
