data_PCOD9577629
_publ_section_title
;
Structure prediction by ZEFSAII (Michael W. Deem and Ramdas Pophale) SiO2 
 PCOD9577629
Probable space group: R 3 C
;
_chemical_formula_sum "Si O2"
_cell_formula_units_Z 22
_cell_length_a 15.000000
_cell_length_b 15.000000
_cell_length_c 18.000000
_cell_angle_alpha 90.000000
_cell_angle_beta 90.000000
_cell_angle_gamma 120.000000
_cell_volume 3507.402885
_symmetry_space_group_name_H-M "R 3 C"
_symmetry_group_IT_number 161
_symmetry_cell_setting 'hexagonal'
loop_
_space_group_symop_operation_xyz
x,y,z
-y,x-y,z
-x+y,-x,z
-x+y,y,1/2+z
x,x-y,1/2+z
-y,-x,1/2+z
2/3+x,1/3+y,1/3+z
2/3-y,1/3+x-y,1/3+z
2/3-x+y,1/3-x,1/3+z
2/3-x+y,1/3+y,5/6+z
2/3+x,1/3+x-y,5/6+z
2/3-y,1/3-x,5/6+z
1/3+x,2/3+y,2/3+z
1/3-y,2/3+x-y,2/3+z
1/3-x+y,2/3-x,2/3+z
1/3-x+y,2/3+y,1/6+z
1/3+x,2/3+x-y,1/6+z
1/3-y,2/3-x,1/6+z
loop_
_atom_site_type_symbol
_atom_site_label
_atom_site_fract_x
_atom_site_fract_y
_atom_site_fract_z
Si Si1 0.525167 0.106095 0.807252
Si Si2 0.534475 0.422728 0.136506
Si Si3 0.642646 0.683759 0.559001
Si Si4 0.000000 0.000000 0.543315
Si Si5 0.666668 0.333334 0.558106
O O1 0.500899 0.124084 0.721233
O O2 0.279318 0.036459 0.526436
O O3 0.580258 0.037064 0.791255
O O4 0.604858 0.216455 0.844048
O O5 0.433267 0.407158 0.091037
O O6 0.619995 0.541759 0.158118
O O7 0.590324 0.371491 0.091349
O O8 0.000000 0.000000 0.634004
#
# Coordination Sequence:
#
# PCOD9577629 Si02
#       5
#    18  18  18   6   6
#     4  10  24  44  76 100 150 192 241 306 368 443
#     4  10  25  47  73 108 148 196 241 311 371 451
#     4  10  24  45  77 106 145 190 245 300 375 439
#     4  12  25  47  67 105 154 206 244 309 376 431
#     4  12  28  41  73 111 151 194 259 300 370 446
#
# _framework density 6.2724469999999997
#
# number of rings (size 3 to 8) (size 9 to 14) (size 15 to 20)
#    1.636    0.000    0.000    3.273    7.636    2.182 
#    0.000    0.000    0.000    0.000    0.000    0.000 
#    0.000    0.000    0.000    0.000    0.000    0.000 
#
# Total GULP energy -122519.028798 kJ/mol
# GULP energy per Si atom -5569.046764 kJ/mol
# Density = 0.625817 g / cm^3
# Si number density = 6.272447 Si / 1000 Ang^3
#
#
#
# Elastic Constant Matrix: (Units=GPa)
#
#
# Indices 1 2 3 4 5 6 
#
# 1 142.0473 66.2218 65.6708 3.7718 0.0000 0.0000
# 2 66.2218 142.0463 65.6706 -3.7717 0.0000 0.0000
# 3 65.6708 65.6706 135.4876 0.0001 0.0000 0.0000
# 4 3.7718 -3.7717 0.0001 48.8741 0.0000 0.0000
# 5 0.0000 0.0000 0.0000 0.0000 48.8742 3.7718
# 6 0.0000 0.0000 0.0000 0.0000 3.7718 37.9126
#
#
#
# Elastic Compliance Matrix: (Units=1/GPa)
#
#
# Indices 1 2 3 4 5 6 
#
# 1 0.010103 -0.003188 -0.003352 -0.001026 0.000000 0.000000
# 2 -0.003188 0.010103 -0.003352 0.001026 0.000000 0.000000
# 3 -0.003352 -0.003352 0.010630 0.000000 0.000000 0.000000
# 4 -0.001026 0.001026 0.000000 0.020619 0.000000 0.000000
# 5 0.000000 0.000000 0.000000 0.000000 0.020619 -0.002051
# 6 0.000000 0.000000 0.000000 0.000000 -0.002051 0.026581
#
#
# Mechanical properties :
#
#
# Convention : Reuss Voigt Hill
#
# Bulk Modulus (GPa) = 90.47118 90.52306 90.49712
# Shear Modulus (GPa) = 40.94304 41.93339 41.43822
#
# Velocity S-wave (km/s) = 4.66962 4.72576 4.69778
# Velocity P-wave (km/s) = 8.78959 8.83107 8.81035
#
# Compressibility (1/GPa) = 0.01105324
#
# Stress axis : x y z
#
# Youngs Moduli (GPa) = 98.98297 98.98224 94.07337
#
# Poissons Ratio (x) = 0.31551 0.31532
# Poissons Ratio (y) = 0.31551 0.31532
# Poissons Ratio (z) = 0.33177 0.33177
#
# Static dielectric constant tensor:
#      x y z
#    x 1.666410 0.000000 0.000000 
#    y 0.000000 1.666410 0.000000 
#    z 0.000000 0.000000 1.659940 
# 
# From -- ./inp_files/1207.got.cif
#   From: 2010.05.17/outbox.ucp.g08.bks.cvg/sg161_cif.got.tgz:1207.got - 2010.06.11 15:15:21.
