data_PCOD9577119
_publ_section_title
;
Structure prediction by ZEFSAII (Michael W. Deem and Ramdas Pophale) SiO2 
 PCOD9577119
Probable space group: R 3 2
;
_chemical_formula_sum "Si O2"
_cell_formula_units_Z 105
_cell_length_a 18.407593
_cell_length_b 18.407593
_cell_length_c 18.901067
_cell_angle_alpha 90.000000
_cell_angle_beta 90.000000
_cell_angle_gamma 120.000000
_cell_volume 5546.397098
_symmetry_space_group_name_H-M "R 3 2"
_symmetry_group_IT_number 155
_symmetry_cell_setting 'hexagonal'
loop_
_space_group_symop_operation_xyz
x,y,z
-y,x-y,z
-x+y,-x,z
x-y,-y,-z
-x,-x+y,-z
y,x,-z
2/3+x,1/3+y,1/3+z
2/3-y,1/3+x-y,1/3+z
2/3-x+y,1/3-x,1/3+z
2/3+x-y,1/3-y,1/3-z
2/3-x,1/3-x+y,1/3-z
2/3+y,1/3+x,1/3-z
1/3+x,2/3+y,2/3+z
1/3-y,2/3+x-y,2/3+z
1/3-x+y,2/3-x,2/3+z
1/3+x-y,2/3-y,2/3-z
1/3-x,2/3-x+y,2/3-z
1/3+y,2/3+x,2/3-z
loop_
_atom_site_type_symbol
_atom_site_label
_atom_site_fract_x
_atom_site_fract_y
_atom_site_fract_z
Si Si1 0.096193 0.757739 0.010470
Si Si2 0.515988 0.481153 0.827575
Si Si3 0.666667 0.333334 0.750518
Si Si4 0.000008 0.333341 0.166667
Si Si5 0.132906 0.959994 0.380727
Si Si6 0.645606 0.735247 0.973787
Si Si7 0.075683 0.819680 0.282292
O O1 0.133320 0.761640 0.090719
O O2 0.167558 0.843680 0.977795
O O3 0.094853 0.682507 0.966554
O O4 0.000000 0.736785 0.000000
O O5 0.588887 0.576080 0.810831
O O6 0.567336 0.453605 0.883131
O O7 0.443874 0.485502 0.872550
O O8 0.666668 0.333334 0.833334
O O9 0.757600 0.349414 0.728672
O O10 0.931563 0.301503 0.104934
O O11 0.084932 0.903839 0.312916
O O12 0.228378 0.013887 0.354049
O O13 0.717280 0.717280 0.000000
O O14 0.137780 0.804447 0.333334
#
# Coordination Sequence:
#
# PCOD9577119 Si02
#       7
#    18  18   6   9  18  18  18
#     4  11  25  40  60  95 134 173 216 276 340 409
#     4  11  21  39  68  89 129 173 224 279 327 382
#     4  12  30  33  54  99 144 183 205 245 343 423
#     4  12  22  38  70 104 116 162 228 284 328 372
#     4  11  22  40  58  96 134 173 219 268 329 403
#     4  12  22  40  69  98 121 166 231 288 323 392
#     4   9  20  37  60  89 126 170 208 264 325 389
#
# _framework density 18.931208999999999
#
# number of rings (size 3 to 8) (size 9 to 14) (size 15 to 20)
#    0.000    1.029    5.143    1.543    6.000    6.857 
#    0.000    0.000    0.000    0.343    0.000    0.000 
#    0.000    0.000    0.000    0.000    0.000    0.000 
#
# Total GULP energy -195012.382159 kJ/mol
# GULP energy per Si atom -5571.782347 kJ/mol
# Density = 1.888812 g / cm^3
# Si number density = 18.931209 Si / 1000 Ang^3
#
#
#
# Elastic Constant Matrix: (Units=GPa)
#
#
# Indices 1 2 3 4 5 6 
#
# 1 73.7142 60.3944 41.6788 -8.8953 0.0038 0.0014
# 2 60.3944 73.7111 41.6780 8.8956 -0.0039 -0.0019
# 3 41.6788 41.6780 92.5904 0.0000 0.0000 0.0000
# 4 -8.8953 8.8956 0.0000 27.4648 0.0002 -0.0024
# 5 0.0038 -0.0039 0.0000 0.0002 27.4662 -8.8945
# 6 0.0014 -0.0019 0.0000 -0.0024 -8.8945 6.6573
#
#
#
# Elastic Compliance Matrix: (Units=1/GPa)
#
#
# Indices 1 2 3 4 5 6 
#
# 1 0.071347 -0.060995 -0.004660 0.042864 -0.000043 -0.000075
# 2 -0.060995 0.071351 -0.004661 -0.042865 0.000044 0.000076
# 3 -0.004660 -0.004661 0.014996 0.000000 0.000000 -0.000001
# 4 0.042864 -0.042865 0.000000 0.064176 -0.000021 -0.000026
# 5 -0.000043 0.000044 0.000000 -0.000021 0.064174 0.085741
# 6 -0.000075 0.000076 -0.000001 -0.000026 0.085741 0.264767
#
#
# Mechanical properties :
#
#
# Convention : Reuss Voigt Hill
#
# Bulk Modulus (GPa) = 58.61310 58.61314 58.61312
# Shear Modulus (GPa) = 7.17225 18.73529 12.95377
#
# Velocity S-wave (km/s) = 1.94854 3.14928 2.61866
# Velocity P-wave (km/s) = 6.00756 6.65224 6.33810
#
# Compressibility (1/GPa) = 0.01706103
#
# Stress axis : x y z
#
# Youngs Moduli (GPa) = 14.01597 14.01530 66.68445
#
# Poissons Ratio (x) = 0.85487 0.31077
# Poissons Ratio (y) = 0.85491 0.31079
# Poissons Ratio (z) = 0.06532 0.06532
#
# Static dielectric constant tensor:
#      x y z
#    x 1.716040 0.000000 0.000000 
#    y 0.000000 1.716040 0.000000 
#    z 0.000000 0.000000 1.737080 
# 
# From -- ./inp_files/7011.got.cif
#   From: 2010.05.17/outbox.cif.g08.bks.cpg/sg155_4_cif.got.tgz:7011.got - 2010.05.20 10:44:35.
