data_PCOD9577080
_publ_section_title
;
Structure prediction by ZEFSAII (Michael W. Deem and Ramdas Pophale) SiO2 
 PCOD9577080
Probable space group: R 3 2
;
_chemical_formula_sum "Si O2"
_cell_formula_units_Z 75
_cell_length_a 12.042080
_cell_length_b 12.042080
_cell_length_c 28.766092
_cell_angle_alpha 90.000000
_cell_angle_beta 90.000000
_cell_angle_gamma 120.000000
_cell_volume 3612.555375
_symmetry_space_group_name_H-M "R 3 2"
_symmetry_group_IT_number 155
_symmetry_cell_setting 'hexagonal'
loop_
_space_group_symop_operation_xyz
x,y,z
-y,x-y,z
-x+y,-x,z
x-y,-y,-z
-x,-x+y,-z
y,x,-z
2/3+x,1/3+y,1/3+z
2/3-y,1/3+x-y,1/3+z
2/3-x+y,1/3-x,1/3+z
2/3+x-y,1/3-y,1/3-z
2/3-x,1/3-x+y,1/3-z
2/3+y,1/3+x,1/3-z
1/3+x,2/3+y,2/3+z
1/3-y,2/3+x-y,2/3+z
1/3-x+y,2/3-x,2/3+z
1/3+x-y,2/3-y,2/3-z
1/3-x,2/3-x+y,2/3-z
1/3+y,2/3+x,2/3-z
loop_
_atom_site_type_symbol
_atom_site_label
_atom_site_fract_x
_atom_site_fract_y
_atom_site_fract_z
Si Si1 0.333334 0.666668 0.222075
Si Si2 0.229253 0.500732 0.410933
Si Si3 0.000000 0.000000 0.056874
Si Si4 0.034718 0.333334 0.333334
Si Si5 0.598221 0.067766 0.883328
Si Si6 0.280683 0.189655 0.954932
O O1 0.333334 0.666668 0.166667
O O2 0.248713 0.519281 0.234759
O O3 0.384479 0.581609 0.412006
O O4 0.155815 0.417880 0.366219
O O5 0.190642 0.394963 0.450725
O O6 0.854567 0.951094 0.070153
O O7 0.000000 0.000000 0.000000
O O8 0.002164 0.431577 0.305757
O O9 0.666667 0.100801 0.833334
O O10 0.696107 0.065621 0.920593
O O11 0.248940 0.248940 0.000000
#
# Coordination Sequence:
#
# PCOD9577080 Si02
#       6
#     6  18   6   9  18  18
#     4   9  21  45  72  96 127 170 235 279 324 417
#     4  10  26  44  62  99 141 175 230 283 334 417
#     4   9  18  36  60  96 130 155 220 285 330 417
#     4  12  22  40  70 100 134 188 218 294 362 392
#     4  11  24  46  68  98 136 183 228 283 350 417
#     4  11  21  40  67 100 132 171 230 285 345 411
#
# _framework density 20.760926999999999
#
# number of rings (size 3 to 8) (size 9 to 14) (size 15 to 20)
#    0.480    0.960    3.600    2.880    5.040    0.000 
#    8.640    1.200    0.000    0.000    0.000    0.000 
#    0.000    0.000    0.000    0.000    0.000    0.000 
#
# Total GULP energy -139382.545711 kJ/mol
# GULP energy per Si atom -5575.301828 kJ/mol
# Density = 2.071367 g / cm^3
# Si number density = 20.760927 Si / 1000 Ang^3
#
#
#
# Elastic Constant Matrix: (Units=GPa)
#
#
# Indices 1 2 3 4 5 6 
#
# 1 99.8420 49.1196 26.7163 4.8886 0.0004 -0.0001
# 2 49.1196 99.8397 26.7157 -4.8889 -0.0002 0.0001
# 3 26.7163 26.7157 47.6830 -0.0001 0.0002 0.0000
# 4 4.8886 -4.8889 -0.0001 21.2903 -0.0001 -0.0001
# 5 0.0004 -0.0002 0.0002 -0.0001 21.2912 4.8885
# 6 -0.0001 0.0001 0.0000 -0.0001 4.8885 25.3609
#
#
#
# Elastic Compliance Matrix: (Units=1/GPa)
#
#
# Indices 1 2 3 4 5 6 
#
# 1 0.014515 -0.006114 -0.004707 -0.004737 0.000000 0.000000
# 2 -0.006114 0.014515 -0.004707 0.004737 0.000000 0.000000
# 3 -0.004707 -0.004707 0.026247 0.000000 0.000000 0.000000
# 4 -0.004737 0.004737 0.000000 0.049145 0.000000 0.000000
# 5 0.000000 0.000000 0.000000 0.000000 0.049143 -0.009473
# 6 0.000000 0.000000 0.000000 0.000000 -0.009473 0.041257
#
#
# Mechanical properties :
#
#
# Convention : Reuss Voigt Hill
#
# Bulk Modulus (GPa) = 41.28684 50.27421 45.78052
# Shear Modulus (GPa) = 21.37194 23.24269 22.30731
#
# Velocity S-wave (km/s) = 3.21196 3.34958 3.28149
# Velocity P-wave (km/s) = 5.80392 6.26322 6.03794
#
# Compressibility (1/GPa) = 0.02422079
#
# Stress axis : x y z
#
# Youngs Moduli (GPa) = 68.89392 68.89254 38.09999
#
# Poissons Ratio (x) = 0.42118 0.17935
# Poissons Ratio (y) = 0.42118 0.17935
# Poissons Ratio (z) = 0.32431 0.32430
#
# Static dielectric constant tensor:
#      x y z
#    x 1.793660 0.000000 0.000000 
#    y 0.000000 1.793670 0.000000 
#    z 0.000000 0.000000 1.724930 
# 
# From -- ./inp_files/8318.got.cif
#   From: 2010.05.17/outbox.cif.g08.bks.cpg/sg155_5_cif.got.tgz:8318.got - 2010.05.20 10:44:35.
