data_PCOD9577297
_publ_section_title
;
Structure prediction by ZEFSAII (Michael W. Deem and Ramdas Pophale) SiO2 
 PCOD9577297
Probable space group: P 3 C 1
;
_chemical_formula_sum "Si O2"
_cell_formula_units_Z 42
_cell_length_a 8.911167
_cell_length_b 8.911167
_cell_length_c 32.314667
_cell_angle_alpha 90.000000
_cell_angle_beta 90.000000
_cell_angle_gamma 120.000000
_cell_volume 2222.283603
_symmetry_space_group_name_H-M "P 3 C 1"
_symmetry_group_IT_number 158
_symmetry_cell_setting 'hexagonal'
loop_
_space_group_symop_operation_xyz
x,y,z
-y,x-y,z
-x+y,-x,z
-x+y,y,1/2+z
x,x-y,1/2+z
-y,-x,1/2+z
loop_
_atom_site_type_symbol
_atom_site_label
_atom_site_fract_x
_atom_site_fract_y
_atom_site_fract_z
Si Si1 0.423510 0.893132 0.712560
Si Si2 0.893134 0.423522 0.295860
Si Si3 0.649518 0.644475 0.627494
Si Si4 0.675765 0.996957 0.595430
Si Si5 0.996957 0.675767 0.412990
Si Si6 0.195391 0.195392 0.504210
Si Si7 0.644472 0.649513 0.380927
O O1 0.222091 0.739801 0.710853
O O2 0.499989 0.999995 0.754211
O O3 0.431200 0.006327 0.673267
O O4 0.777900 0.517711 0.297566
O O5 0.006324 0.431213 0.335155
O O6 0.653950 0.824171 0.617392
O O7 0.503834 0.498058 0.598799
O O8 0.836570 0.669485 0.617662
O O9 0.718000 0.997539 0.547200
O O10 0.997543 0.718012 0.461219
O O11 0.824178 0.653966 0.391026
O O12 0.163440 0.832905 0.390758
O O13 0.005756 0.501932 0.409623
O O14 0.999999 0.163045 0.504211
#
# Coordination Sequence:
#
# PCOD9577297 Si02
#       7
#     6   6   6   6   6   6   6
#     4  10  23  41  65  98 134 173 221 285 341 414
#     4  10  23  41  65  98 134 173 221 285 341 414
#     4  12  24  45  66 105 132 188 227 281 352 412
#     4  12  24  42  72  95 140 177 230 285 338 418
#     4  12  24  42  72  95 140 177 230 285 338 418
#     4  10  20  42  66 100 134 178 224 278 346 394
#     4  12  24  45  66 105 132 188 227 281 352 412
#
# _framework density 18.899478999999999
#
# number of rings (size 3 to 8) (size 9 to 14) (size 15 to 20)
#    0.857    0.000    5.714    1.714    4.000    2.286 
#    0.000    0.000    0.000    2.286    0.000    0.000 
#    0.000    0.000    0.000    0.000    0.000    0.000 
#
# Total GULP energy -234067.242007 kJ/mol
# GULP energy per Si atom -5573.029572 kJ/mol
# Density = 1.885646 g / cm^3
# Si number density = 18.899479 Si / 1000 Ang^3
#
#
#
# Elastic Constant Matrix: (Units=GPa)
#
#
# Indices 1 2 3 4 5 6 
#
# 1 97.0129 36.9896 53.4190 -3.4984 0.0000 0.0000
# 2 36.9896 97.0129 53.4190 3.4984 0.0000 0.0000
# 3 53.4190 53.4190 206.4185 0.0000 0.0000 0.0000
# 4 -3.4984 3.4984 0.0000 36.1464 0.0000 0.0000
# 5 0.0000 0.0000 0.0000 0.0000 36.1464 -3.4984
# 6 0.0000 0.0000 0.0000 0.0000 -3.4984 30.0116
#
#
#
# Elastic Compliance Matrix: (Units=1/GPa)
#
#
# Indices 1 2 3 4 5 6 
#
# 1 0.013126 -0.003724 -0.002433 0.001631 0.000000 0.000000
# 2 -0.003724 0.013126 -0.002433 -0.001631 0.000000 0.000000
# 3 -0.002433 -0.002433 0.006104 0.000000 0.000000 0.000000
# 4 0.001631 -0.001631 0.000000 0.027981 0.000000 0.000000
# 5 0.000000 0.000000 0.000000 0.000000 0.027981 0.003262
# 6 0.000000 0.000000 0.000000 0.000000 0.003262 0.033701
#
#
# Mechanical properties :
#
#
# Convention : Reuss Voigt Hill
#
# Bulk Modulus (GPa) = 65.89382 76.45549 71.17465
# Shear Modulus (GPa) = 34.65991 37.56868 36.11430
#
# Velocity S-wave (km/s) = 4.28706 4.46333 4.37608
# Velocity P-wave (km/s) = 7.71014 8.19166 7.95455
#
# Compressibility (1/GPa) = 0.01517593
#
# Stress axis : x y z
#
# Youngs Moduli (GPa) = 76.18212 76.18212 163.82848
#
# Poissons Ratio (x) = 0.28369 0.39864
# Poissons Ratio (y) = 0.28369 0.39864
# Poissons Ratio (z) = 0.18537 0.18537
#
# Static dielectric constant tensor:
#      x y z
#    x 1.664760 0.000000 0.000000 
#    y 0.000000 1.664760 0.000000 
#    z 0.000000 0.000000 1.739810 
# 
# From -- ./inp_files/781.got.cif
#   From: 2010.05.17/outbox.cif.g08.bks.cpg/sg158_cif.got.tgz:781.got - 2010.05.20 10:49:59.
