data_PCOD9577416
_publ_section_title
;
Structure prediction by ZEFSAII (Michael W. Deem and Ramdas Pophale) SiO2 
 PCOD9577416
Probable space group: P 3 1 C
;
_chemical_formula_sum "Si O2"
_cell_formula_units_Z 40
_cell_length_a 14.304169
_cell_length_b 14.304169
_cell_length_c 12.057160
_cell_angle_alpha 90.000000
_cell_angle_beta 90.000000
_cell_angle_gamma 120.000000
_cell_volume 2136.490278
_symmetry_space_group_name_H-M "P 3 1 C"
_symmetry_group_IT_number 159
_symmetry_cell_setting 'hexagonal'
loop_
_space_group_symop_operation_xyz
x,y,z
-y,x-y,z
-x+y,-x,z
y,x,1/2+z
x-y,-y,1/2+z
-x,-x+y,1/2+z
loop_
_atom_site_type_symbol
_atom_site_label
_atom_site_fract_x
_atom_site_fract_y
_atom_site_fract_z
Si Si1 0.232858 0.425172 0.342750
Si Si2 0.357322 0.182497 0.182125
Si Si3 0.052632 0.386357 0.509764
Si Si4 0.904057 0.523042 0.048443
Si Si5 0.415846 0.184834 0.436759
Si Si6 0.333334 0.666667 0.988820
Si Si7 0.736493 0.061679 0.626135
Si Si8 0.333335 0.666668 0.255667
O O1 0.122655 0.376773 0.411053
O O2 0.323853 0.435097 0.429360
O O3 0.225783 0.356134 0.236854
O O4 0.268524 0.545163 0.301336
O O5 0.336712 0.075646 0.119122
O O6 0.465263 0.284381 0.127442
O O7 0.375499 0.180237 0.311670
O O8 0.268470 0.216057 0.146894
O O9 0.101582 0.512600 0.534766
O O10 0.929487 0.331421 0.473734
O O11 0.018125 0.609111 0.102698
O O12 0.541869 0.274926 0.449477
O O13 0.339906 0.205627 0.520366
O O14 0.333334 0.666667 0.122802
#
# Coordination Sequence:
#
# PCOD9577416 Si02
#       8
#     6   6   6   6   6   2   6   2
#     4  11  21  38  62  88 125 173 213 261 313 393
#     4   9  25  41  63  91 124 177 211 259 328 379
#     4  11  24  39  64  97 125 167 225 268 317 393
#     4   9  21  39  62  88 127 165 215 251 332 392
#     4  12  25  41  64  97 138 165 218 272 321 393
#     4  12  27  39  55 107 139 177 201 265 335 385
#     4  10  22  41  64  86 125 174 211 263 325 387
#     4  12  21  36  58  92 133 162 222 247 311 394
#
# _framework density 18.722296
#
# number of rings (size 3 to 8) (size 9 to 14) (size 15 to 20)
#    0.900    0.600    3.000    1.800    4.200    1.200 
#    0.900    0.000    0.000    0.600    3.900    0.000 
#    0.000    0.000    0.000    0.000    0.000    0.000 
#
# Total GULP energy -222963.797409 kJ/mol
# GULP energy per Si atom -5574.094935 kJ/mol
# Density = 1.867968 g / cm^3
# Si number density = 18.722296 Si / 1000 Ang^3
#
#
#
# Elastic Constant Matrix: (Units=GPa)
#
#
# Indices 1 2 3 4 5 6 
#
# 1 39.3809 4.7730 14.1878 0.0001 -4.3274 0.0001
# 2 4.7730 39.3812 14.1879 0.0002 4.3276 0.0001
# 3 14.1878 14.1879 132.6617 0.0003 0.0002 0.0001
# 4 0.0001 0.0002 0.0003 17.0984 -0.0002 4.3276
# 5 -4.3274 4.3276 0.0002 -0.0002 17.0987 0.0001
# 6 0.0001 0.0001 0.0001 4.3276 0.0001 17.3040
#
#
#
# Elastic Compliance Matrix: (Units=1/GPa)
#
#
# Indices 1 2 3 4 5 6 
#
# 1 0.027584 -0.003264 -0.002601 0.000000 0.007807 0.000000
# 2 -0.003264 0.027583 -0.002601 0.000000 -0.007807 0.000000
# 3 -0.002601 -0.002601 0.008094 0.000000 0.000000 0.000000
# 4 0.000000 0.000000 0.000000 0.062437 0.000001 -0.015615
# 5 0.007807 -0.007807 0.000000 0.000001 0.062436 -0.000001
# 6 0.000000 0.000000 0.000000 -0.015615 -0.000001 0.061695
#
#
# Mechanical properties :
#
#
# Convention : Reuss Voigt Hill
#
# Bulk Modulus (GPa) = 21.58448 30.85790 26.22119
# Shear Modulus (GPa) = 17.71766 22.18523 19.95144
#
# Velocity S-wave (km/s) = 3.07960 3.44606 3.26797
# Velocity P-wave (km/s) = 4.91925 5.68784 5.31745
#
# Compressibility (1/GPa) = 0.04632959
#
# Stress axis : x y z
#
# Youngs Moduli (GPa) = 36.25353 36.25370 123.54391
#
# Poissons Ratio (x) = 0.11833 0.32133
# Poissons Ratio (y) = 0.11833 0.32132
# Poissons Ratio (z) = 0.09429 0.09429
#
# Static dielectric constant tensor:
#      x y z
#    x 1.669620 0.000000 0.000000 
#    y 0.000000 1.669620 0.000000 
#    z 0.000000 0.000000 1.642800 
# 
# From -- ./inp_files/695.got.cif
#   From: 2010.05.17/outbox.cif.g08.bks.cpg/sg159_cif.got.tgz:695.got - 2010.05.20 10:50:30.
