data_PCOD9577254
_publ_section_title
;
Structure prediction by ZEFSAII (Michael W. Deem and Ramdas Pophale) SiO2 
 PCOD9577254
Probable space group: P 3 1 M
;
_chemical_formula_sum "Si O2"
_cell_formula_units_Z 32
_cell_length_a 15.083702
_cell_length_b 15.083702
_cell_length_c 7.658827
_cell_angle_alpha 90.000000
_cell_angle_beta 90.000000
_cell_angle_gamma 120.000000
_cell_volume 1509.067892
_symmetry_space_group_name_H-M "P 3 1 M"
_symmetry_group_IT_number 157
_symmetry_cell_setting 'hexagonal'
loop_
_space_group_symop_operation_xyz
x,y,z
-y,x-y,z
-x+y,-x,z
y,x,z
x-y,-y,z
-x,-x+y,z
loop_
_atom_site_type_symbol
_atom_site_label
_atom_site_fract_x
_atom_site_fract_y
_atom_site_fract_z
Si Si1 0.263114 0.828956 0.962820
Si Si2 0.000000 0.000000 0.468143
Si Si3 0.511919 0.399054 0.539529
Si Si4 0.000000 0.000000 0.037739
Si Si5 0.736886 0.565842 0.543062
Si Si6 0.795203 0.795203 0.459116
Si Si7 0.600946 0.112865 0.966353
Si Si8 0.204797 0.000000 0.046766
O O1 0.267131 0.825167 0.752941
O O2 0.195129 0.713180 0.027601
O O3 0.378882 0.870765 0.025541
O O4 0.216274 0.901805 0.000588
O O5 0.896577 0.896577 0.527649
O O6 0.000000 0.000000 0.252941
O O7 0.425545 0.425545 0.489209
O O8 0.621118 0.491882 0.480341
O O9 0.481949 0.286820 0.478281
O O10 0.515615 0.398126 0.752941
O O11 0.000000 0.103423 0.978234
O O12 0.783726 0.685531 0.505294
O O13 0.804462 0.804462 0.252941
O O14 0.574455 0.000000 0.016673
#
# Coordination Sequence:
#
# PCOD9577254 Si02
#       8
#     6   1   6   1   6   3   6   3
#     4  10  19  35  59  86 115 146 182 227 278 338
#     4   9  24  45  58  71 106 156 199 233 286 345
#     4   9  17  30  52  84 114 140 173 218 275 332
#     4   9  24  45  58  71 106 156 199 233 286 345
#     4  10  19  35  59  86 115 146 182 227 278 338
#     4  11  23  41  60  79 108 152 197 241 286 333
#     4   9  17  30  52  84 114 140 173 218 275 332
#     4  11  23  41  60  79 108 152 197 241 286 333
#
# _framework density 21.205141000000001
#
# number of rings (size 3 to 8) (size 9 to 14) (size 15 to 20)
#    0.000    2.250    1.875    1.312    2.625    3.000 
#    0.000    4.688    0.000    0.000    0.000    0.000 
#    0.000    0.000    0.000    0.000    0.000    0.000 
#
# Total GULP energy -178606.700991 kJ/mol
# GULP energy per Si atom -5581.459406 kJ/mol
# Density = 2.115688 g / cm^3
# Si number density = 21.205141 Si / 1000 Ang^3
#
#
#
# Elastic Constant Matrix: (Units=GPa)
#
#
# Indices 1 2 3 4 5 6 
#
# 1 158.6835 71.7625 1.4506 0.0000 0.0000 0.0000
# 2 71.7625 158.6835 1.4506 0.0000 0.0000 0.0000
# 3 1.4506 1.4506 36.9519 0.0000 0.0000 0.0000
# 4 0.0000 0.0000 0.0000 16.0304 0.0000 0.0000
# 5 0.0000 0.0000 0.0000 0.0000 16.0304 0.0000
# 6 0.0000 0.0000 0.0000 0.0000 0.0000 43.4605
#
#
#
# Elastic Compliance Matrix: (Units=1/GPa)
#
#
# Indices 1 2 3 4 5 6 
#
# 1 0.007923 -0.003582 -0.000170 0.000000 0.000000 0.000000
# 2 -0.003582 0.007923 -0.000170 0.000000 0.000000 0.000000
# 3 -0.000170 -0.000170 0.027076 0.000000 0.000000 0.000000
# 4 0.000000 0.000000 0.000000 0.062381 0.000000 0.000000
# 5 0.000000 0.000000 0.000000 0.000000 0.062381 0.000000
# 6 0.000000 0.000000 0.000000 0.000000 0.000000 0.023009
#
#
# Mechanical properties :
#
#
# Convention : Reuss Voigt Hill
#
# Bulk Modulus (GPa) = 28.50874 55.96070 42.23472
# Shear Modulus (GPa) = 23.78332 33.74793 28.76563
#
# Velocity S-wave (km/s) = 3.35264 3.99369 3.68712
# Velocity P-wave (km/s) = 5.33482 6.90749 6.17146
#
# Compressibility (1/GPa) = 0.03507696
#
# Stress axis : x y z
#
# Youngs Moduli (GPa) = 126.21271 126.21271 36.93364
#
# Poissons Ratio (x) = 0.45204 0.00629
# Poissons Ratio (y) = 0.45204 0.00629
# Poissons Ratio (z) = 0.02151 0.02151
#
# Static dielectric constant tensor:
#      x y z
#    x 1.749340 0.000000 0.000000 
#    y 0.000000 1.749340 0.000000 
#    z 0.000000 0.000000 1.806150 
# 
# From -- ./inp_files/393.got.cif
#   From: 2010.05.17/outbox.cif.g08.bks.cpg/sg157_cif.got.tgz:393.got - 2010.05.20 10:49:36.
