data_PCOD9577946
_publ_section_title
;
Structure prediction by ZEFSAII (Michael W. Deem and Ramdas Pophale) SiO2 
 PCOD9577946
Probable space group: P -3 1 M 
;
_chemical_formula_sum "Si O2"
_cell_formula_units_Z 60
_cell_length_a 29.895584
_cell_length_b 29.895584
_cell_length_c 5.183314
_cell_angle_alpha 90.000000
_cell_angle_beta 90.000000
_cell_angle_gamma 120.000000
_cell_volume 4011.919717
_symmetry_space_group_name_H-M "P -3 1 M "
_symmetry_group_IT_number 162
_symmetry_cell_setting 'hexagonal'
loop_
_space_group_symop_operation_xyz
x,y,z
-y,x-y,z
-x+y,-x,z
-y,-x,-z
-x+y,y,-z
x,x-y,-z
-x,-y,-z
y,-x+y,-z
x-y,x,-z
y,x,z
x-y,-y,z
-x,-x+y,z
loop_
_atom_site_type_symbol
_atom_site_label
_atom_site_fract_x
_atom_site_fract_y
_atom_site_fract_z
Si Si1 0.178257 0.061087 0.763453
Si Si2 0.936794 0.671542 0.509774
Si Si3 0.516833 0.579616 0.894733
Si Si4 0.062785 0.429932 0.394997
Si Si5 0.277179 0.214819 0.011777
O O1 0.183190 0.091595 0.500000
O O2 0.233475 0.073191 0.878975
O O3 0.145752 0.000000 0.709517
O O4 0.153865 0.076933 0.000000
O O5 0.920448 0.612599 0.561671
O O6 0.920052 0.679411 0.229397
O O7 0.000000 0.703566 0.510251
O O8 0.919351 0.697576 0.731449
O O9 0.545568 0.545568 0.880976
O O10 0.526806 0.606805 0.617415
O O11 0.459817 0.540184 0.000000
O O12 0.545575 0.622344 0.113450
O O13 0.000000 0.398200 0.405863
O O14 0.247985 0.247985 0.997376
#
# Coordination Sequence:
#
# PCOD9577946 Si02
#       5
#    12  12  12  12  12
#     4  11  22  37  56  75  93 111 129 147 171 209
#     4   9  15  24  37  54  75  95 118 147 180 217
#     4   9  15  21  27  37  56  84 120 158 191 221
#     4   9  15  21  30  43  60  86 117 150 187 221
#     4   9  17  28  43  62  81  99 117 141 172 207
#
# _framework density 14.955432999999999
#
# number of rings (size 3 to 8) (size 9 to 14) (size 15 to 20)
#    0.000    2.600    0.000    3.600    0.000   10.400 
#    0.000    0.000    0.000    4.000    0.000    0.000 
#    0.000    0.000    0.000    0.000    0.000    0.000 
#
# Total GULP energy -334123.354890 kJ/mol
# GULP energy per Si atom -5568.722582 kJ/mol
# Density = 1.492139 g / cm^3
# Si number density = 14.955433 Si / 1000 Ang^3
#
#
#
# Elastic Constant Matrix: (Units=GPa)
#
#
# Indices 1 2 3 4 5 6 
#
# 1 19.7198 7.4002 -9.1944 -0.0001 -1.9001 0.0000
# 2 7.4002 19.7198 -9.1944 0.0001 1.9001 0.0000
# 3 -9.1944 -9.1944 45.9275 0.0000 0.0000 0.0000
# 4 -0.0001 0.0001 0.0000 18.7782 0.0000 1.9001
# 5 -1.9001 1.9001 0.0000 0.0000 18.7782 -0.0001
# 6 0.0000 0.0000 0.0000 1.9001 -0.0001 6.1598
#
#
#
# Elastic Compliance Matrix: (Units=1/GPa)
#
#
# Indices 1 2 3 4 5 6 
#
# 1 0.063226 -0.020561 0.008541 0.000000 0.008478 0.000000
# 2 -0.020561 0.063226 0.008541 0.000000 -0.008478 0.000000
# 3 0.008541 0.008541 0.025193 0.000000 0.000000 0.000000
# 4 0.000000 0.000000 0.000000 0.054969 0.000000 -0.016956
# 5 0.008478 -0.008478 0.000000 0.000000 0.054969 0.000001
# 6 0.000000 0.000000 0.000000 -0.016956 0.000001 0.167574
#
#
# Mechanical properties :
#
#
# Convention : Reuss Voigt Hill
#
# Bulk Modulus (GPa) = 6.91146 7.04331 6.97738
# Shear Modulus (GPa) = 10.32324 15.16694 12.74509
#
# Velocity S-wave (km/s) = 2.63014 3.18802 2.92242
# Velocity P-wave (km/s) = 3.72222 4.27446 4.00786
#
# Compressibility (1/GPa) = 0.14468723
#
# Stress axis : x y z
#
# Youngs Moduli (GPa) = 15.81631 15.81631 39.69317
#
# Poissons Ratio (x) = 0.32520 -0.33903
# Poissons Ratio (y) = 0.32520 -0.33903
# Poissons Ratio (z) = -0.13509 -0.13509
#
# Static dielectric constant tensor:
#      x y z
#    x 1.499990 0.000000 0.000000 
#    y 0.000000 1.499990 0.000000 
#    z 0.000000 0.000000 1.521820 
# 
# From -- ./inp_files/660.got.cif
#   From: 2010.05.17/outbox.cif.g08.bks.cpg/sg162_1_cif.got.tgz:660.got - 2010.05.20 10:53:12.
