data_PCOD9577199
_publ_section_title
;
Structure prediction by ZEFSAII (Michael W. Deem and Ramdas Pophale) SiO2 
 PCOD9577199
Probable space group: P 3 M 1
;
_chemical_formula_sum "Si O2"
_cell_formula_units_Z 48
_cell_length_a 23.095269
_cell_length_b 23.095269
_cell_length_c 6.879934
_cell_angle_alpha 90.000000
_cell_angle_beta 90.000000
_cell_angle_gamma 120.000000
_cell_volume 3178.051669
_symmetry_space_group_name_H-M "P 3 M 1"
_symmetry_group_IT_number 156
_symmetry_cell_setting 'hexagonal'
loop_
_space_group_symop_operation_xyz
x,y,z
-y,x-y,z
-x+y,-x,z
-x+y,y,z
x,x-y,z
-y,-x,z
loop_
_atom_site_type_symbol
_atom_site_label
_atom_site_fract_x
_atom_site_fract_y
_atom_site_fract_z
Si Si1 0.592440 0.542072 0.987100
Si Si2 0.808540 0.747639 0.844126
Si Si3 0.394234 0.475206 0.253458
Si Si4 0.969996 0.261495 0.445202
Si Si5 0.272167 0.410951 0.985656
Si Si6 0.875405 0.259107 0.110487
Si Si7 0.041835 0.405174 0.652384
Si Si8 0.194550 0.255717 0.111928
O O1 0.535521 0.464479 0.980823
O O2 0.666667 0.559925 0.048792
O O3 0.593893 0.578438 0.784576
O O4 0.568439 0.577990 0.144777
O O5 0.885071 0.770141 0.882811
O O6 0.791883 0.735366 0.617611
O O7 0.764895 0.676219 0.952810
O O8 0.786331 0.796549 0.940253
O O9 0.448264 0.551737 0.214768
O O10 0.389852 0.458551 0.479974
O O11 0.323115 0.452997 0.157333
O O12 0.011693 0.333334 0.548793
O O13 0.911772 0.260561 0.313010
O O14 0.017440 0.249188 0.300604
O O15 0.214409 0.428817 0.951731
O O16 0.315895 0.417481 0.796981
O O17 0.236022 0.333334 0.048790
O O18 0.797813 0.202188 0.116765
O O19 0.118926 0.237851 0.145854
#
# Coordination Sequence:
#
# PCOD9577199 Si02
#       8
#     6   6   6   6   6   6   6   6
#     4  10  19  31  47  70  98 128 161 197 237 285
#     4  10  19  32  50  70  97 129 160 196 238 283
#     4  10  19  32  50  70  97 129 160 196 238 283
#     4  11  17  30  48  72 100 125 155 190 236 287
#     4  10  20  32  48  73 101 128 157 193 239 289
#     4  10  19  31  47  70  98 128 161 197 237 285
#     4  11  17  30  48  72 100 125 155 190 236 287
#     4  10  20  32  48  73 101 128 157 193 239 289
#
# _framework density 15.103593
#
# number of rings (size 3 to 8) (size 9 to 14) (size 15 to 20)
#    0.000    1.750    5.000    2.250    0.000    2.500 
#    0.000    0.000    0.000    0.750    0.000    1.750 
#    0.000    1.000    0.000    0.000    0.000    0.000 
#
# Total GULP energy -267669.425185 kJ/mol
# GULP energy per Si atom -5576.446358 kJ/mol
# Density = 1.506922 g / cm^3
# Si number density = 15.103593 Si / 1000 Ang^3
#
#
#
# Elastic Constant Matrix: (Units=GPa)
#
#
# Indices 1 2 3 4 5 6 
#
# 1 90.4067 49.7466 32.1512 0.7679 -0.0002 0.0000
# 2 49.7466 90.4067 32.1512 -0.7679 0.0002 0.0000
# 3 32.1512 32.1512 99.0415 0.0000 0.0000 0.0000
# 4 0.7679 -0.7679 0.0000 10.7193 0.0000 0.0002
# 5 -0.0002 0.0002 0.0000 0.0000 10.7193 0.7679
# 6 0.0000 0.0000 0.0000 0.0002 0.7679 20.3300
#
#
#
# Elastic Compliance Matrix: (Units=1/GPa)
#
#
# Indices 1 2 3 4 5 6 
#
# 1 0.016522 -0.008139 -0.002722 -0.001767 0.000000 0.000000
# 2 -0.008139 0.016522 -0.002722 0.001767 0.000000 0.000000
# 3 -0.002722 -0.002722 0.011864 0.000000 0.000000 0.000000
# 4 -0.001767 0.001767 0.000000 0.093543 0.000000 -0.000001
# 5 0.000000 0.000000 0.000000 0.000000 0.093543 -0.003533
# 6 0.000000 0.000000 0.000000 -0.000001 -0.003533 0.049322
#
#
# Mechanical properties :
#
#
# Convention : Reuss Voigt Hill
#
# Bulk Modulus (GPa) = 56.35410 56.43921 56.39666
# Shear Modulus (GPa) = 15.90359 19.40743 17.65551
#
# Velocity S-wave (km/s) = 3.24847 3.58852 3.42272
# Velocity P-wave (km/s) = 7.17376 7.39047 7.28292
#
# Compressibility (1/GPa) = 0.01774494
#
# Stress axis : x y z
#
# Youngs Moduli (GPa) = 60.52427 60.52427 84.29046
#
# Poissons Ratio (x) = 0.49258 0.22940
# Poissons Ratio (y) = 0.49258 0.22940
# Poissons Ratio (z) = 0.16472 0.16472
#
# Static dielectric constant tensor:
#      x y z
#    x 1.490910 0.000000 0.000000 
#    y 0.000000 1.490910 0.000000 
#    z 0.000000 0.000000 1.509370 
# 
# From -- ./inp_files/254.got.cif
#   From: 2010.05.17/outbox.cif.g08.bks.cpg/sg156_cif.got.tgz:254.got - 2010.05.20 10:49:08.
