data_PCOD9577553
_publ_section_title
;
Structure prediction by ZEFSAII (Michael W. Deem and Ramdas Pophale) SiO2 
 PCOD9577553
Probable space group: R 3 C
;
_chemical_formula_sum "Si O2"
_cell_formula_units_Z 144
_cell_length_a 20.524505
_cell_length_b 20.524505
_cell_length_c 20.705686
_cell_angle_alpha 90.000000
_cell_angle_beta 90.000000
_cell_angle_gamma 120.000000
_cell_volume 7553.802732
_symmetry_space_group_name_H-M "R 3 C"
_symmetry_group_IT_number 161
_symmetry_cell_setting 'hexagonal'
loop_
_space_group_symop_operation_xyz
x,y,z
-y,x-y,z
-x+y,-x,z
-x+y,y,1/2+z
x,x-y,1/2+z
-y,-x,1/2+z
2/3+x,1/3+y,1/3+z
2/3-y,1/3+x-y,1/3+z
2/3-x+y,1/3-x,1/3+z
2/3-x+y,1/3+y,5/6+z
2/3+x,1/3+x-y,5/6+z
2/3-y,1/3-x,5/6+z
1/3+x,2/3+y,2/3+z
1/3-y,2/3+x-y,2/3+z
1/3-x+y,2/3-x,2/3+z
1/3-x+y,2/3+y,1/6+z
1/3+x,2/3+x-y,1/6+z
1/3-y,2/3-x,1/6+z
loop_
_atom_site_type_symbol
_atom_site_label
_atom_site_fract_x
_atom_site_fract_y
_atom_site_fract_z
Si Si1 0.119348 0.266308 0.239095
Si Si2 0.628123 0.679520 0.960337
Si Si3 0.734271 0.506112 0.958368
Si Si4 0.509389 0.736737 0.777676
Si Si5 0.361279 0.421022 0.595580
Si Si6 0.904887 0.255348 0.899436
Si Si7 0.191044 0.341073 0.362685
Si Si8 0.218246 0.409310 0.648038
O O1 0.123982 0.203748 0.197995
O O2 0.179277 0.294637 0.296834
O O3 0.135900 0.331594 0.186426
O O4 0.040574 0.248956 0.270902
O O5 0.633594 0.688357 0.037455
O O6 0.676488 0.640020 0.943891
O O7 0.658732 0.753398 0.916803
O O8 0.650016 0.439923 0.949233
O O9 0.795963 0.481317 0.951648
O O10 0.748957 0.573935 0.909864
O O11 0.575319 0.776472 0.831887
O O12 0.543253 0.753978 0.705546
O O13 0.386078 0.397285 0.660891
O O14 0.441801 0.473111 0.561726
O O15 0.303178 0.447039 0.621574
O O16 0.895838 0.177440 0.925428
#
# Coordination Sequence:
#
# PCOD9577553 Si02
#       8
#    18  18  18  18  18  18  18  18
#     4   9  19  37  60  88 128 163 214 265 319 376
#     4  11  21  39  62  96 128 166 214 274 328 388
#     4  11  21  39  64  91 126 175 213 273 317 384
#     4  11  22  40  63  96 128 169 225 260 324 390
#     4  11  21  38  60  88 134 162 212 262 326 385
#     4  11  23  38  63  94 128 171 213 267 338 382
#     4  10  22  37  63  94 129 176 209 272 329 390
#     4  10  21  38  57  89 127 164 208 267 315 393
#
# _framework density 19.063247
#
# number of rings (size 3 to 8) (size 9 to 14) (size 15 to 20)
#    0.000    1.500    3.750    2.500    0.000    7.000 
#    0.000    0.000    0.000    0.000    0.000    0.000 
#    0.000    0.000    0.000    0.000    0.000    0.000 
#
# Total GULP energy -267417.278766 kJ/mol
# GULP energy per Si atom -5571.193308 kJ/mol
# Density = 1.901986 g / cm^3
# Si number density = 19.063247 Si / 1000 Ang^3
#
#
#
# Elastic Constant Matrix: (Units=GPa)
#
#
# Indices 1 2 3 4 5 6 
#
# 1 68.2735 14.2451 39.2858 5.0643 0.0000 0.0000
# 2 14.2451 68.2735 39.2858 -5.0643 0.0000 0.0000
# 3 39.2858 39.2858 132.4868 0.0000 0.0000 0.0000
# 4 5.0643 -5.0643 0.0000 28.8834 0.0000 0.0000
# 5 0.0000 0.0000 0.0000 0.0000 28.8834 5.0643
# 6 0.0000 0.0000 0.0000 0.0000 5.0643 27.0142
#
#
#
# Elastic Compliance Matrix: (Units=1/GPa)
#
#
# Indices 1 2 3 4 5 6 
#
# 1 0.018012 -0.001126 -0.005007 -0.003356 0.000000 0.000000
# 2 -0.001126 0.018012 -0.005007 0.003356 0.000000 0.000000
# 3 -0.005007 -0.005007 0.010517 0.000000 0.000000 0.000000
# 4 -0.003356 0.003356 0.000000 0.035799 0.000000 0.000000
# 5 0.000000 0.000000 0.000000 0.000000 0.035799 -0.006711
# 6 0.000000 0.000000 0.000000 0.000000 -0.006711 0.038276
#
#
# Mechanical properties :
#
#
# Convention : Reuss Voigt Hill
#
# Bulk Modulus (GPa) = 41.21838 50.51856 45.86847
# Shear Modulus (GPa) = 26.76919 28.70401 27.73660
#
# Velocity S-wave (km/s) = 3.75137 3.88458 3.81856
# Velocity P-wave (km/s) = 6.35866 6.83213 6.59964
#
# Compressibility (1/GPa) = 0.02426102
#
# Stress axis : x y z
#
# Youngs Moduli (GPa) = 55.51857 55.51857 95.08019
#
# Poissons Ratio (x) = 0.06251 0.47608
# Poissons Ratio (y) = 0.06251 0.47608
# Poissons Ratio (z) = 0.27799 0.27799
#
# Static dielectric constant tensor:
#      x y z
#    x 1.683700 0.000000 0.000000 
#    y 0.000000 1.683700 0.000000 
#    z 0.000000 0.000000 1.691750 
# 
# From -- ./inp_files/1786.got.cif
#   From: 2010.05.17/outbox.cif.g08.bks.cpg/sg161_cif.got.tgz:1786.got - 2010.05.20 10:52:32.
