data_PCOD9577536
_publ_section_title
;
Structure prediction by ZEFSAII (Michael W. Deem and Ramdas Pophale) SiO2 
 PCOD9577536
Probable space group: R 3 C
;
_chemical_formula_sum "Si O2"
_cell_formula_units_Z 126
_cell_length_a 18.494466
_cell_length_b 18.494466
_cell_length_c 19.634012
_cell_angle_alpha 90.000000
_cell_angle_beta 90.000000
_cell_angle_gamma 120.000000
_cell_volume 5815.984980
_symmetry_space_group_name_H-M "R 3 C"
_symmetry_group_IT_number 161
_symmetry_cell_setting 'hexagonal'
loop_
_space_group_symop_operation_xyz
x,y,z
-y,x-y,z
-x+y,-x,z
-x+y,y,1/2+z
x,x-y,1/2+z
-y,-x,1/2+z
2/3+x,1/3+y,1/3+z
2/3-y,1/3+x-y,1/3+z
2/3-x+y,1/3-x,1/3+z
2/3-x+y,1/3+y,5/6+z
2/3+x,1/3+x-y,5/6+z
2/3-y,1/3-x,5/6+z
1/3+x,2/3+y,2/3+z
1/3-y,2/3+x-y,2/3+z
1/3-x+y,2/3-x,2/3+z
1/3-x+y,2/3+y,1/6+z
1/3+x,2/3+x-y,1/6+z
1/3-y,2/3-x,1/6+z
loop_
_atom_site_type_symbol
_atom_site_label
_atom_site_fract_x
_atom_site_fract_y
_atom_site_fract_z
Si Si1 0.750977 0.746859 0.001570
Si Si2 0.438941 0.230374 0.724383
Si Si3 0.864854 0.308539 0.981345
Si Si4 0.916802 0.515587 0.228071
Si Si5 0.926253 0.486196 0.383691
Si Si6 0.543304 0.088567 0.088628
Si Si7 0.779727 0.854852 0.245127
O O1 0.793448 0.824719 0.948062
O O2 0.720954 0.653796 0.972150
O O3 0.816628 0.756610 0.060330
O O4 0.666851 0.737084 0.034044
O O5 0.467356 0.160865 0.735487
O O6 0.339035 0.184236 0.732152
O O7 0.465045 0.248169 0.644601
O O8 0.858285 0.353262 0.914584
O O9 0.888695 0.375229 0.042594
O O10 0.779054 0.233359 0.007649
O O11 0.931405 0.495798 0.303290
O O12 0.905122 0.447279 0.170966
O O13 0.013542 0.555293 0.416728
O O14 0.642780 0.144365 0.077220
#
# Coordination Sequence:
#
# PCOD9577536 Si02
#       7
#    18  18  18  18  18  18  18
#     4  10  23  39  63  95 123 174 204 273 326 369
#     4  10  19  41  65  90 126 163 219 261 320 383
#     4  11  22  39  61  92 127 164 213 260 327 384
#     4  10  22  38  62  94 123 168 212 262 325 377
#     4  11  23  38  58  99 128 159 211 266 327 384
#     4  10  20  41  61  85 124 165 212 262 301 390
#     4  10  23  38  62  91 125 173 207 262 322 383
#
# _framework density 21.664428999999998
#
# number of rings (size 3 to 8) (size 9 to 14) (size 15 to 20)
#    0.000    1.714    2.857    1.714    4.000    6.857 
#    0.857    0.000    0.000    0.571    0.000    0.000 
#    0.000    0.000    0.000    0.000    0.000    0.000 
#
# Total GULP energy -234038.351133 kJ/mol
# GULP energy per Si atom -5572.341694 kJ/mol
# Density = 2.161512 g / cm^3
# Si number density = 21.664429 Si / 1000 Ang^3
#
#
#
# Elastic Constant Matrix: (Units=GPa)
#
#
# Indices 1 2 3 4 5 6 
#
# 1 56.8267 27.4715 27.7444 7.7843 0.0000 0.0000
# 2 27.4715 56.8267 27.7444 -7.7843 0.0000 0.0000
# 3 27.7444 27.7444 106.3762 0.0000 0.0000 0.0000
# 4 7.7843 -7.7843 0.0000 34.7320 0.0000 0.0000
# 5 0.0000 0.0000 0.0000 0.0000 34.7320 7.7843
# 6 0.0000 0.0000 0.0000 0.0000 7.7843 14.6776
#
#
#
# Elastic Compliance Matrix: (Units=1/GPa)
#
#
# Indices 1 2 3 4 5 6 
#
# 1 0.026491 -0.012170 -0.003735 -0.008665 0.000000 0.000000
# 2 -0.012170 0.026491 -0.003735 0.008665 0.000000 0.000000
# 3 -0.003735 -0.003735 0.011349 0.000000 0.000000 0.000000
# 4 -0.008665 0.008665 0.000000 0.032676 0.000000 0.000000
# 5 0.000000 0.000000 0.000000 0.000000 0.032676 -0.017330
# 6 0.000000 0.000000 0.000000 0.000000 -0.017330 0.077322
#
#
# Mechanical properties :
#
#
# Convention : Reuss Voigt Hill
#
# Bulk Modulus (GPa) = 39.91885 42.88336 41.40111
# Shear Modulus (GPa) = 19.63587 25.96625 22.80106
#
# Velocity S-wave (km/s) = 3.01385 3.46579 3.24769
# Velocity P-wave (km/s) = 5.52966 5.98773 5.76325
#
# Compressibility (1/GPa) = 0.02505082
#
# Stress axis : x y z
#
# Youngs Moduli (GPa) = 37.74843 37.74843 88.11359
#
# Poissons Ratio (x) = 0.45939 0.32912
# Poissons Ratio (y) = 0.45939 0.32912
# Poissons Ratio (z) = 0.14100 0.14100
#
# Static dielectric constant tensor:
#      x y z
#    x 1.841970 0.000000 0.000000 
#    y 0.000000 1.841970 0.000000 
#    z 0.000000 0.000000 1.852590 
# 
# From -- ./inp_files/1435.got.cif
#   From: 2010.05.17/outbox.cif.g08.bks.cpg/sg161_cif.got.tgz:1435.got - 2010.05.20 10:52:32.
