data_PCOD9577128
_publ_section_title
;
Structure prediction by ZEFSAII (Michael W. Deem and Ramdas Pophale) SiO2 
 PCOD9577128
Probable space group: R 3 2
;
_chemical_formula_sum "Si O2"
_cell_formula_units_Z 69
_cell_length_a 20.779261
_cell_length_b 20.779261
_cell_length_c 8.559011
_cell_angle_alpha 90.000000
_cell_angle_beta 90.000000
_cell_angle_gamma 120.000000
_cell_volume 3200.474803
_symmetry_space_group_name_H-M "R 3 2"
_symmetry_group_IT_number 155
_symmetry_cell_setting 'hexagonal'
loop_
_space_group_symop_operation_xyz
x,y,z
-y,x-y,z
-x+y,-x,z
x-y,-y,-z
-x,-x+y,-z
y,x,-z
2/3+x,1/3+y,1/3+z
2/3-y,1/3+x-y,1/3+z
2/3-x+y,1/3-x,1/3+z
2/3+x-y,1/3-y,1/3-z
2/3-x,1/3-x+y,1/3-z
2/3+y,1/3+x,1/3-z
1/3+x,2/3+y,2/3+z
1/3-y,2/3+x-y,2/3+z
1/3-x+y,2/3-x,2/3+z
1/3+x-y,2/3-y,2/3-z
1/3-x,2/3-x+y,2/3-z
1/3+y,2/3+x,2/3-z
loop_
_atom_site_type_symbol
_atom_site_label
_atom_site_fract_x
_atom_site_fract_y
_atom_site_fract_z
Si Si1 0.243291 0.934709 0.674351
Si Si2 0.382182 0.209678 0.524960
Si Si3 0.046021 0.666667 0.666667
Si Si4 0.333334 0.666667 0.972147
Si Si5 0.200979 0.516745 0.347593
O O1 0.213828 0.876008 0.534292
O O2 0.333334 0.985708 0.666667
O O3 0.200304 0.979519 0.697676
O O4 0.222900 0.889567 0.833334
O O5 0.333334 0.212674 0.666667
O O6 0.387360 0.263226 0.386117
O O7 0.461957 0.229771 0.594631
O O8 0.000000 0.647107 0.500000
O O9 0.323928 0.735513 0.914583
O O10 0.333334 0.666668 0.166667
O O11 0.203218 0.536551 0.166667
#
# Coordination Sequence:
#
# PCOD9577128 Si02
#       5
#    18  18   9   6  18
#     4  12  23  40  71 107 146 187 255 332 399 452
#     4  12  25  45  76 108 150 210 261 331 405 477
#     4  12  28  54  78 112 158 210 272 326 404 494
#     4   9  24  42  63 103 146 208 253 299 382 475
#     4  11  22  43  71 105 147 194 256 316 386 472
#
# _framework density 21.559303
#
# number of rings (size 3 to 8) (size 9 to 14) (size 15 to 20)
#    0.000    0.522    6.522    2.348    0.000    4.174 
#    4.696    0.000    0.000    3.130    0.000    0.000 
#    0.000    0.000    0.000    0.000    0.000    0.000 
#
# Total GULP energy -128080.506033 kJ/mol
# GULP energy per Si atom -5568.717654 kJ/mol
# Density = 2.151023 g / cm^3
# Si number density = 21.559303 Si / 1000 Ang^3
#
#
#
# Elastic Constant Matrix: (Units=GPa)
#
#
# Indices 1 2 3 4 5 6 
#
# 1 145.3921 50.1425 35.1722 3.4445 0.0002 0.0016
# 2 50.1425 145.3869 35.1687 -3.4451 -0.0025 -0.0013
# 3 35.1722 35.1687 105.8220 0.0001 -0.0015 0.0002
# 4 3.4445 -3.4451 0.0001 34.2054 0.0001 -0.0002
# 5 0.0002 -0.0025 -0.0015 0.0001 34.2039 3.4437
# 6 0.0016 -0.0013 0.0002 -0.0002 3.4437 47.6245
#
#
#
# Elastic Compliance Matrix: (Units=1/GPa)
#
#
# Indices 1 2 3 4 5 6 
#
# 1 0.008192 -0.002384 -0.001931 -0.001065 0.000000 0.000000
# 2 -0.002384 0.008193 -0.001930 0.001065 0.000000 0.000000
# 3 -0.001931 -0.001930 0.010733 0.000000 0.000000 0.000000
# 4 -0.001065 0.001065 0.000000 0.029450 0.000000 0.000000
# 5 0.000000 0.000000 0.000000 0.000000 0.029451 -0.002130
# 6 0.000000 0.000000 0.000000 0.000000 -0.002130 0.021152
#
#
# Mechanical properties :
#
#
# Convention : Reuss Voigt Hill
#
# Bulk Modulus (GPa) = 68.36047 70.84088 69.60068
# Shear Modulus (GPa) = 40.14912 41.61460 40.88186
#
# Velocity S-wave (km/s) = 4.32008 4.39821 4.35932
# Velocity P-wave (km/s) = 7.52735 7.66305 7.59550
#
# Compressibility (1/GPa) = 0.01462834
#
# Stress axis : x y z
#
# Youngs Moduli (GPa) = 122.06558 122.06275 93.16975
#
# Poissons Ratio (x) = 0.29096 0.17988
# Poissons Ratio (y) = 0.29096 0.17986
# Poissons Ratio (z) = 0.23567 0.23563
#
# Static dielectric constant tensor:
#      x y z
#    x 1.889350 0.000000 0.000000 
#    y 0.000000 1.889370 0.000000 
#    z 0.000000 0.000000 1.907040 
# 
# From -- ./inp_files/2177.got.cif
#   From: 2010.05.17/outbox.cif.g08.bks.cpg/sg155_2_cif.got.tgz:2177.got - 2010.05.20 10:44:35.
