data_PCOD9577212
_publ_section_title
;
Structure prediction by ZEFSAII (Michael W. Deem and Ramdas Pophale) SiO2 
 PCOD9577212
Probable space group: P 3 M 1
;
_chemical_formula_sum "Si O2"
_cell_formula_units_Z 48
_cell_length_a 12.715034
_cell_length_b 12.715034
_cell_length_c 21.317759
_cell_angle_alpha 90.000000
_cell_angle_beta 90.000000
_cell_angle_gamma 120.000000
_cell_volume 2984.744987
_symmetry_space_group_name_H-M "P 3 M 1"
_symmetry_group_IT_number 156
_symmetry_cell_setting 'hexagonal'
loop_
_space_group_symop_operation_xyz
x,y,z
-y,x-y,z
-x+y,-x,z
-x+y,y,z
x,x-y,z
-y,-x,z
loop_
_atom_site_type_symbol
_atom_site_label
_atom_site_fract_x
_atom_site_fract_y
_atom_site_fract_z
Si Si1 0.583651 0.666311 0.192630
Si Si2 0.916681 0.582992 0.313528
Si Si3 0.666591 0.583095 0.678342
Si Si4 0.999854 0.250431 0.935168
Si Si5 0.000202 0.750186 0.556923
Si Si6 0.999925 0.252009 0.797678
Si Si7 0.083299 0.666915 0.434968
Si Si8 0.251864 0.251845 0.072481
O O1 0.578629 0.789315 0.200657
O O2 0.449166 0.550835 0.189432
O O3 0.649770 0.645556 0.251630
O O4 0.656998 0.679124 0.128937
O O5 0.794862 0.589723 0.314736
O O6 0.887129 0.443565 0.312942
O O7 0.998641 0.644454 0.374747
O O8 0.777903 0.555806 0.679994
O O9 0.539603 0.460398 0.673908
O O10 0.690003 0.668550 0.618298
O O11 0.677066 0.657266 0.741409
O O12 0.119637 0.239273 0.933012
O O13 0.995951 0.302904 0.867098
O O14 0.882850 0.117151 0.937308
O O15 0.001237 0.305977 0.003156
O O16 0.880188 0.760377 0.547707
O O17 0.024531 0.689844 0.496493
O O18 0.117538 0.882463 0.565655
O O19 0.125873 0.251746 0.790842
O O20 0.886309 0.113692 0.794828
O O21 0.095627 0.547814 0.442852
O O22 0.214539 0.785462 0.425381
O O23 0.252359 0.126180 0.080152
O O24 0.113449 0.226897 0.073683
#
# Coordination Sequence:
#
# PCOD9577212 Si02
#       8
#     6   6   6   6   6   6   6   6
#     4  10  20  33  49  68  92 124 161 199 236 278
#     4  10  20  34  52  73  96 122 154 194 240 285
#     4  10  20  33  48  66  90 122 159 196 234 278
#     4   8  13  22  39  65  94 121 149 184 231 284
#     4  10  20  34  53  76 101 127 156 195 243 290
#     4   9  16  27  46  71  96 120 149 190 239 288
#     4  10  20  34  53  76 103 135 168 198 226 264
#     4   9  16  27  45  69  96 123 152 190 237 287
#
# _framework density 16.081776999999999
#
# number of rings (size 3 to 8) (size 9 to 14) (size 15 to 20)
#    0.000    2.500    0.000    2.875    0.000    2.000 
#    0.000    3.125    0.000   10.500    0.000    0.000 
#    0.000    0.000    0.000    0.000    0.000    0.000 
#
# Total GULP energy -267468.724187 kJ/mol
# GULP energy per Si atom -5572.265087 kJ/mol
# Density = 1.604517 g / cm^3
# Si number density = 16.081777 Si / 1000 Ang^3
#
#
#
# Elastic Constant Matrix: (Units=GPa)
#
#
# Indices 1 2 3 4 5 6 
#
# 1 96.2110 63.1918 83.0713 -3.3802 0.0003 0.0000
# 2 63.1918 96.2110 83.0713 3.3802 -0.0003 0.0000
# 3 83.0713 83.0713 175.4263 0.0000 0.0000 0.0000
# 4 -3.3802 3.3802 0.0000 20.9062 0.0000 -0.0003
# 5 0.0003 -0.0003 0.0000 0.0000 20.9062 -3.3802
# 6 0.0000 0.0000 0.0000 -0.0003 -3.3802 16.5096
#
#
#
# Elastic Compliance Matrix: (Units=1/GPa)
#
#
# Indices 1 2 3 4 5 6 
#
# 1 0.021855 -0.009468 -0.005866 0.005064 0.000000 0.000000
# 2 -0.009468 0.021855 -0.005866 -0.005064 0.000000 0.000000
# 3 -0.005866 -0.005866 0.011256 0.000000 0.000000 0.000000
# 4 0.005064 -0.005064 0.000000 0.049470 0.000000 0.000001
# 5 0.000000 0.000000 0.000000 0.000000 0.049470 0.010129
# 6 0.000000 0.000000 0.000000 0.000001 0.010129 0.062645
#
#
# Mechanical properties :
#
#
# Convention : Reuss Voigt Hill
#
# Bulk Modulus (GPa) = 79.57381 91.83524 85.70452
# Shear Modulus (GPa) = 19.00140 20.89866 19.95003
#
# Velocity S-wave (km/s) = 3.44110 3.60880 3.52595
# Velocity P-wave (km/s) = 8.08556 8.63677 8.36571
#
# Compressibility (1/GPa) = 0.01256695
#
# Stress axis : x y z
#
# Youngs Moduli (GPa) = 45.75652 45.75652 88.84272
#
# Poissons Ratio (x) = 0.43320 0.52114
# Poissons Ratio (y) = 0.43320 0.52114
# Poissons Ratio (z) = 0.26840 0.26840
#
# Static dielectric constant tensor:
#      x y z
#    x 1.503660 0.000000 0.000000 
#    y 0.000000 1.503660 0.000000 
#    z 0.000000 0.000000 1.563680 
# 
# From -- ./inp_files/1090.got.cif
#   From: 2010.05.17/outbox.cif.g08.bks.cpg/sg156_cif.got.tgz:1090.got - 2010.05.20 10:49:08.
