data_PCOD9577763
_publ_section_title
;
Structure prediction by ZEFSAII (Michael W. Deem and Ramdas Pophale) SiO2 
 PCOD9577763
Probable space group: P -3 1 M 
;
_chemical_formula_sum "Si O2"
_cell_formula_units_Z 76
_cell_length_a 16.882288
_cell_length_b 16.882288
_cell_length_c 14.703009
_cell_angle_alpha 90.000000
_cell_angle_beta 90.000000
_cell_angle_gamma 120.000000
_cell_volume 3629.104420
_symmetry_space_group_name_H-M "P -3 1 M "
_symmetry_group_IT_number 162
_symmetry_cell_setting 'hexagonal'
loop_
_space_group_symop_operation_xyz
x,y,z
-y,x-y,z
-x+y,-x,z
-y,-x,-z
-x+y,y,-z
x,x-y,-z
-x,-y,-z
y,-x+y,-z
x-y,x,-z
y,x,z
x-y,-y,z
-x,-x+y,z
loop_
_atom_site_type_symbol
_atom_site_label
_atom_site_fract_x
_atom_site_fract_y
_atom_site_fract_z
Si Si1 0.328183 0.479951 0.714371
Si Si2 0.667274 0.152323 0.507679
Si Si3 0.175834 0.520244 0.789522
Si Si4 0.106847 0.758955 0.076428
Si Si5 0.896959 0.207314 0.589689
Si Si6 0.103405 0.808016 0.775188
Si Si7 0.666667 0.333334 0.895866
O O1 0.322178 0.447582 0.610376
O O2 0.254160 0.514820 0.729198
O O3 0.431747 0.561270 0.732806
O O4 0.287005 0.393286 0.781568
O O5 0.739170 0.260831 0.500000
O O6 0.565592 0.131184 0.500000
O O7 0.701490 0.108646 0.431402
O O8 0.123285 0.429576 0.851865
O O9 0.232698 0.600722 0.860722
O O10 0.126021 0.843343 0.141834
O O11 0.000000 0.702911 0.044341
O O12 0.188214 0.811787 0.000000
O O13 0.850949 0.149052 0.500000
O O14 0.851205 0.158477 0.682753
O O15 0.000000 0.232880 0.593940
O O16 0.000000 0.782989 0.768106
O O17 0.666668 0.333334 0.000000
#
# Coordination Sequence:
#
# PCOD9577763 Si02
#       7
#    12  12  12  12  12  12   4
#     4  10  19  35  56  89 131 177 217 262 301 358
#     4  11  21  33  55  89 131 178 226 261 301 355
#     4   9  20  34  58  89 129 172 215 251 302 360
#     4  11  24  44  70  98 126 160 206 262 331 399
#     4  11  23  41  62  89 122 165 215 264 323 384
#     4  11  23  43  67  90 125 168 209 262 330 393
#     4   9  15  30  54  84 124 170 211 252 288 348
#
# _framework density 20.941806
#
# number of rings (size 3 to 8) (size 9 to 14) (size 15 to 20)
#    0.000    1.579    3.158    3.316    2.211    0.947 
#    0.000    0.000    0.000   19.421    0.000    0.000 
#    0.000    0.000    0.000    0.000    0.000    0.000 
#
# Total GULP energy -423573.057968 kJ/mol
# GULP energy per Si atom -5573.329710 kJ/mol
# Density = 2.089414 g / cm^3
# Si number density = 20.941806 Si / 1000 Ang^3
#
#
#
# Elastic Constant Matrix: (Units=GPa)
#
#
# Indices 1 2 3 4 5 6 
#
# 1 54.3609 41.6370 4.3635 0.0004 -3.6314 0.0007
# 2 41.6370 54.3617 4.3633 -0.0002 3.6318 -0.0004
# 3 4.3635 4.3633 66.1196 -0.0001 -0.0001 -0.0001
# 4 0.0004 -0.0002 -0.0001 18.9330 -0.0001 3.6314
# 5 -3.6314 3.6318 -0.0001 -0.0001 18.9332 -0.0004
# 6 0.0007 -0.0004 -0.0001 3.6314 -0.0004 6.3620
#
#
#
# Elastic Compliance Matrix: (Units=1/GPa)
#
#
# Indices 1 2 3 4 5 6 
#
# 1 0.049366 -0.038886 -0.000692 0.000000 0.016928 -0.000007
# 2 -0.038886 0.049366 -0.000691 0.000000 -0.016928 0.000006
# 3 -0.000692 -0.000691 0.015215 0.000000 0.000000 0.000000
# 4 0.000000 0.000000 0.000000 0.059311 -0.000001 -0.033855
# 5 0.016928 -0.016928 0.000000 -0.000001 0.059311 0.000001
# 6 -0.000007 0.000006 0.000000 -0.033855 0.000001 0.176509
#
#
# Mechanical properties :
#
#
# Convention : Reuss Voigt Hill
#
# Bulk Modulus (GPa) = 29.93250 30.61886 30.27568
# Shear Modulus (GPa) = 9.98493 17.14419 13.56456
#
# Velocity S-wave (km/s) = 2.18593 2.86432 2.54781
# Velocity P-wave (km/s) = 4.54920 5.05883 4.81077
#
# Compressibility (1/GPa) = 0.03340851
#
# Stress axis : x y z
#
# Youngs Moduli (GPa) = 20.25667 20.25691 65.72291
#
# Poissons Ratio (x) = 0.78772 0.04546
# Poissons Ratio (y) = 0.78771 0.04544
# Poissons Ratio (z) = 0.01401 0.01401
#
# Static dielectric constant tensor:
#      x y z
#    x 1.800580 0.000000 0.000000 
#    y 0.000000 1.800580 0.000000 
#    z 0.000000 0.000000 1.785410 
# 
# From -- ./inp_files/3103.got.cif
#   From: 2010.05.17/outbox.cif.g08.bks.cpg/sg162_2_cif.got.tgz:3103.got - 2010.05.20 10:53:12.
