data_PCOD9577048
_publ_section_title
;
Structure prediction by ZEFSAII (Michael W. Deem and Ramdas Pophale) SiO2 
 PCOD9577048
Probable space group: R 3 2
;
_chemical_formula_sum "Si O2"
_cell_formula_units_Z 69
_cell_length_a 20.861150
_cell_length_b 20.861150
_cell_length_c 8.767452
_cell_angle_alpha 90.000000
_cell_angle_beta 90.000000
_cell_angle_gamma 120.000000
_cell_volume 3304.307988
_symmetry_space_group_name_H-M "R 3 2"
_symmetry_group_IT_number 155
_symmetry_cell_setting 'hexagonal'
loop_
_space_group_symop_operation_xyz
x,y,z
-y,x-y,z
-x+y,-x,z
x-y,-y,-z
-x,-x+y,-z
y,x,-z
2/3+x,1/3+y,1/3+z
2/3-y,1/3+x-y,1/3+z
2/3-x+y,1/3-x,1/3+z
2/3+x-y,1/3-y,1/3-z
2/3-x,1/3-x+y,1/3-z
2/3+y,1/3+x,1/3-z
1/3+x,2/3+y,2/3+z
1/3-y,2/3+x-y,2/3+z
1/3-x+y,2/3-x,2/3+z
1/3+x-y,2/3-y,2/3-z
1/3-x,2/3-x+y,2/3-z
1/3+y,2/3+x,2/3-z
loop_
_atom_site_type_symbol
_atom_site_label
_atom_site_fract_x
_atom_site_fract_y
_atom_site_fract_z
Si Si1 0.250624 0.128556 0.223846
Si Si2 0.880213 0.858936 0.801910
Si Si3 0.155001 0.405917 0.224637
Si Si4 0.666667 0.180765 0.333334
Si Si5 0.333334 0.666667 0.988248
O O1 0.333334 0.166366 0.166667
O O2 0.257391 0.125388 0.407410
O O3 0.203890 0.042142 0.171107
O O4 0.210998 0.168751 0.137318
O O5 0.876458 0.806793 0.665308
O O6 0.934163 0.857309 0.928395
O O7 0.919624 0.942527 0.739955
O O8 0.092464 0.425798 0.166667
O O9 0.120578 0.333334 0.333334
O O10 0.333334 0.666668 0.166667
#
# Coordination Sequence:
#
# PCOD9577048 Si02
#       5
#    18  18  18   9   6
#     4  11  24  43  68 100 152 193 252 311 388 462
#     4  11  24  40  68 110 148 190 244 316 382 459
#     4  10  23  43  66 103 149 201 252 310 389 466
#     4  12  24  40  72 106 148 188 252 306 390 454
#     4  12  21  37  65 103 150 184 227 307 387 442
#
# _framework density 20.881831999999999
#
# number of rings (size 3 to 8) (size 9 to 14) (size 15 to 20)
#    0.000    1.043    2.609    4.696    0.000    6.261 
#    0.000    0.000    8.609    0.000    0.000    0.000 
#    0.000    0.000    0.000    0.000    0.000    0.000 
#
# Total GULP energy -128209.073005 kJ/mol
# GULP energy per Si atom -5574.307522 kJ/mol
# Density = 2.083430 g / cm^3
# Si number density = 20.881832 Si / 1000 Ang^3
#
#
#
# Elastic Constant Matrix: (Units=GPa)
#
#
# Indices 1 2 3 4 5 6 
#
# 1 97.1584 32.5882 54.7528 -3.3903 0.0008 -0.0003
# 2 32.5882 97.1605 54.7470 3.3905 -0.0017 0.0001
# 3 54.7528 54.7470 166.1441 0.0003 0.0030 -0.0003
# 4 -3.3903 3.3905 0.0003 48.5333 0.0008 0.0005
# 5 0.0008 -0.0017 0.0030 0.0008 48.5358 -3.3913
# 6 -0.0003 0.0001 -0.0003 0.0005 -3.3913 32.2847
#
#
#
# Elastic Compliance Matrix: (Units=1/GPa)
#
#
# Indices 1 2 3 4 5 6 
#
# 1 0.013139 -0.002462 -0.003519 0.001090 0.000000 0.000000
# 2 -0.002462 0.013138 -0.003518 -0.001090 0.000001 0.000000
# 3 -0.003519 -0.003518 0.008338 0.000000 -0.000001 0.000000
# 4 0.001090 -0.001090 0.000000 0.020757 0.000000 0.000000
# 5 0.000000 0.000001 -0.000001 0.000000 0.020756 0.002180
# 6 0.000000 0.000000 0.000000 0.000000 0.002180 0.031203
#
#
# Mechanical properties :
#
#
# Convention : Reuss Voigt Hill
#
# Bulk Modulus (GPa) = 64.03039 71.62656 67.82848
# Shear Modulus (GPa) = 38.01278 40.42910 39.22094
#
# Velocity S-wave (km/s) = 4.27121 4.40488 4.33856
# Velocity P-wave (km/s) = 7.41985 7.76183 7.59276
#
# Compressibility (1/GPa) = 0.01561758
#
# Stress axis : x y z
#
# Youngs Moduli (GPa) = 76.10738 76.11297 119.93823
#
# Poissons Ratio (x) = 0.18742 0.42202
# Poissons Ratio (y) = 0.18741 0.42192
# Poissons Ratio (z) = 0.26780 0.26775
#
# Static dielectric constant tensor:
#      x y z
#    x 1.751630 0.000000 0.000000 
#    y 0.000000 1.751630 0.000000 
#    z 0.000000 0.000000 1.852740 
# 
# From -- ./inp_files/2157.got.cif
#   From: 2010.05.17/outbox.cif.g08.bks.cpg/sg155_2_cif.got.tgz:2157.got - 2010.05.20 10:44:35.
