data_PCOD9577487
_publ_section_title
;
Structure prediction by ZEFSAII (Michael W. Deem and Ramdas Pophale) SiO2 
 PCOD9577487
Probable space group: R 3 M
;
_chemical_formula_sum "Si O2"
_cell_formula_units_Z 51
_cell_length_a 11.563763
_cell_length_b 11.563763
_cell_length_c 28.289347
_cell_angle_alpha 90.000000
_cell_angle_beta 90.000000
_cell_angle_gamma 120.000000
_cell_volume 3276.060541
_symmetry_space_group_name_H-M "R 3 M"
_symmetry_group_IT_number 160
_symmetry_cell_setting 'hexagonal'
loop_
_space_group_symop_operation_xyz
x,y,z
-y,x-y,z
-x+y,-x,z
-x+y,y,z
x,x-y,z
-y,-x,z
2/3+x,1/3+y,1/3+z
2/3-y,1/3+x-y,1/3+z
2/3-x+y,1/3-x,1/3+z
2/3-x+y,1/3+y,1/3+z
2/3+x,1/3+x-y,1/3+z
2/3-y,1/3-x,1/3+z
1/3+x,2/3+y,2/3+z
1/3-y,2/3+x-y,2/3+z
1/3-x+y,2/3-x,2/3+z
1/3-x+y,2/3+y,2/3+z
1/3+x,2/3+x-y,2/3+z
1/3-y,2/3-x,2/3+z
loop_
_atom_site_type_symbol
_atom_site_label
_atom_site_fract_x
_atom_site_fract_y
_atom_site_fract_z
Si Si1 0.912464 0.087537 0.690830
Si Si2 0.030827 0.515414 0.933880
Si Si3 0.820658 0.179342 0.783393
Si Si4 0.000000 0.000000 0.418587
Si Si5 0.333333 0.666667 0.972008
Si Si6 0.394835 0.329513 0.510498
O O1 0.869333 0.130668 0.643253
O O2 0.864688 0.135313 0.735985
O O3 0.072084 0.144168 0.692037
O O4 0.182110 0.591055 0.952931
O O5 0.016206 0.616742 0.898087
O O6 0.742459 0.257542 0.770251
O O7 0.949504 0.278309 0.813976
O O8 0.000000 0.000000 0.361857
O O9 0.413618 0.206809 0.492098
O O10 0.533527 0.466474 0.509577
#
# Coordination Sequence:
#
# PCOD9577487 Si02
#       6
#     9   9   9   3   3  18
#     4  10  24  38  55  83 121 156 201 236 312 365
#     4  10  19  36  61  84 112 146 195 261 288 356
#     4  12  22  38  58  86 123 160 197 251 297 368
#     4  12  21  36  57  93 108 153 207 246 297 352
#     4  12  18  36  63  84 108 141 204 258 306 331
#     4  10  21  36  60  86 118 151 202 243 300 356
#
# _framework density 15.567477
#
# number of rings (size 3 to 8) (size 9 to 14) (size 15 to 20)
#    1.412    0.000    5.294    1.412    2.471    0.000 
#    4.235    0.000    0.000    0.000    0.000    0.000 
#    0.000    0.000    0.000    0.000    0.000    0.000 
#
# Total GULP energy -94673.042131 kJ/mol
# GULP energy per Si atom -5569.002478 kJ/mol
# Density = 1.553204 g / cm^3
# Si number density = 15.567477 Si / 1000 Ang^3
#
#
#
# Elastic Constant Matrix: (Units=GPa)
#
#
# Indices 1 2 3 4 5 6 
#
# 1 120.3060 70.9866 79.8978 3.7256 0.0002 -0.0003
# 2 70.9866 120.3060 79.8978 -3.7256 -0.0001 0.0002
# 3 79.8978 79.8978 127.7461 0.0000 0.0000 0.0000
# 4 3.7256 -3.7256 0.0000 30.0657 -0.0001 0.0002
# 5 0.0002 -0.0001 0.0000 -0.0001 30.0657 3.7255
# 6 -0.0003 0.0002 0.0000 0.0002 3.7255 24.6597
#
#
#
# Elastic Compliance Matrix: (Units=1/GPa)
#
#
# Indices 1 2 3 4 5 6 
#
# 1 0.015805 -0.004858 -0.006847 -0.002560 0.000000 0.000000
# 2 -0.004858 0.015805 -0.006847 0.002560 0.000000 0.000000
# 3 -0.006847 -0.006847 0.016392 0.000000 0.000000 0.000000
# 4 -0.002560 0.002560 0.000000 0.033895 0.000000 0.000000
# 5 0.000000 0.000000 0.000000 0.000000 0.033895 -0.005121
# 6 0.000000 0.000000 0.000000 0.000000 -0.005121 0.041326
#
#
# Mechanical properties :
#
#
# Convention : Reuss Voigt Hill
#
# Bulk Modulus (GPa) = 91.74653 92.21364 91.98008
# Shear Modulus (GPa) = 25.27121 26.12996 25.70058
#
# Velocity S-wave (km/s) = 4.03343 4.10139 4.06755
# Velocity P-wave (km/s) = 8.98633 9.04389 9.01516
#
# Compressibility (1/GPa) = 0.01089960
#
# Stress axis : x y z
#
# Youngs Moduli (GPa) = 63.27160 63.27159 61.00374
#
# Poissons Ratio (x) = 0.30737 0.41767
# Poissons Ratio (y) = 0.30737 0.41767
# Poissons Ratio (z) = 0.43320 0.43320
#
# Static dielectric constant tensor:
#      x y z
#    x 1.498520 0.000000 0.000000 
#    y 0.000000 1.498520 0.000000 
#    z 0.000000 0.000000 1.506300 
# 
# From -- ./inp_files/3164.got.cif
#   From: 2010.05.17/outbox.cif.g08.bks.cpg/sg160_2_cif.got.tgz:3164.got - 2010.05.20 10:51:19.
