data_PCOD9577453
_publ_section_title
;
Structure prediction by ZEFSAII (Michael W. Deem and Ramdas Pophale) SiO2 
 PCOD9577453
Probable space group: P 3 1 C
;
_chemical_formula_sum "Si O2"
_cell_formula_units_Z 20
_cell_length_a 7.844491
_cell_length_b 7.844491
_cell_length_c 16.061096
_cell_angle_alpha 90.000000
_cell_angle_beta 90.000000
_cell_angle_gamma 120.000000
_cell_volume 855.924283
_symmetry_space_group_name_H-M "P 3 1 C"
_symmetry_group_IT_number 159
_symmetry_cell_setting 'hexagonal'
loop_
_space_group_symop_operation_xyz
x,y,z
-y,x-y,z
-x+y,-x,z
y,x,1/2+z
x-y,-y,1/2+z
-x,-x+y,1/2+z
loop_
_atom_site_type_symbol
_atom_site_label
_atom_site_fract_x
_atom_site_fract_y
_atom_site_fract_z
Si Si1 0.333335 0.666668 0.262175
Si Si2 0.666668 0.333335 0.514083
Si Si3 0.039798 0.684235 0.579046
Si Si4 0.666668 0.333334 0.316508
Si Si5 0.644439 0.684236 0.697211
Si Si6 0.666667 0.333334 0.959750
O O1 0.552464 0.736590 0.228147
O O2 0.333334 0.666667 0.361114
O O3 0.447538 0.263413 0.548110
O O4 0.666668 0.333334 0.415143
O O5 0.125574 0.874425 0.638129
O O6 0.073182 0.536590 0.638129
O O7 0.175532 0.720580 0.497977
O O8 0.720580 0.545049 0.278281
#
# Coordination Sequence:
#
# PCOD9577453 Si02
#       6
#     2   2   6   2   6   2
#     4  12  19  32  64  93 112 161 202 237 304 353
#     4  12  19  32  64  93 112 161 202 237 304 353
#     4   9  19  35  55  84 121 157 194 239 291 359
#     4   9  19  35  55  87 127 152 190 252 298 356
#     4   9  19  35  55  84 121 157 194 239 291 359
#     4   9  19  35  55  87 127 152 190 252 298 356
#
# _framework density 23.366554000000001
#
# number of rings (size 3 to 8) (size 9 to 14) (size 15 to 20)
#    0.000    2.400    0.000    6.000    0.000    0.000 
#    0.000    0.000    0.000  105.600    0.000   84.000 
#    0.000    0.000    0.000    1.800    0.000    0.000 
#
# Total GULP energy -111617.495505 kJ/mol
# GULP energy per Si atom -5580.874775 kJ/mol
# Density = 2.331337 g / cm^3
# Si number density = 23.366554 Si / 1000 Ang^3
#
#
#
# Elastic Constant Matrix: (Units=GPa)
#
#
# Indices 1 2 3 4 5 6 
#
# 1 116.1480 51.7558 56.0075 0.0000 -6.4582 0.0000
# 2 51.7558 116.1480 56.0074 0.0000 6.4582 0.0000
# 3 56.0075 56.0074 225.2556 -0.0001 0.0000 0.0000
# 4 0.0000 0.0000 -0.0001 18.1789 0.0000 6.4581
# 5 -6.4582 6.4582 0.0000 0.0000 18.1789 0.0000
# 6 0.0000 0.0000 0.0000 6.4581 0.0000 32.1961
#
#
#
# Elastic Compliance Matrix: (Units=1/GPa)
#
#
# Indices 1 2 3 4 5 6 
#
# 1 0.011931 -0.004791 -0.001775 0.000000 0.005940 0.000000
# 2 -0.004791 0.011931 -0.001775 0.000000 -0.005940 0.000000
# 3 -0.001775 -0.001775 0.005322 0.000000 0.000000 0.000000
# 4 0.000000 0.000000 0.000000 0.059230 0.000000 -0.011881
# 5 0.005940 -0.005940 0.000000 0.000000 0.059230 0.000000
# 6 0.000000 0.000000 0.000000 -0.011881 0.000000 0.033443
#
#
# Mechanical properties :
#
#
# Convention : Reuss Voigt Hill
#
# Bulk Modulus (GPa) = 79.99183 87.23254 83.61218
# Shear Modulus (GPa) = 24.76038 33.29615 29.02827
#
# Velocity S-wave (km/s) = 3.25876 3.77895 3.52845
# Velocity P-wave (km/s) = 6.96183 7.51358 7.24296
#
# Compressibility (1/GPa) = 0.01250128
#
# Stress axis : x y z
#
# Youngs Moduli (GPa) = 83.81670 83.81670 187.89091
#
# Poissons Ratio (x) = 0.40153 0.33357
# Poissons Ratio (y) = 0.40153 0.33357
# Poissons Ratio (z) = 0.14880 0.14880
#
# Static dielectric constant tensor:
#      x y z
#    x 1.953660 0.000000 0.000000 
#    y 0.000000 1.953660 0.000000 
#    z 0.000000 0.000000 1.815670 
# 
# From -- ./inp_files/1009.got.cif
#   From: 2010.05.17/outbox.cif.g08.bks.cpg/sg159_cif.got.tgz:1009.got - 2010.05.20 10:50:30.
