data_PCOD9577876
_publ_section_title
;
Structure prediction by ZEFSAII (Michael W. Deem and Ramdas Pophale) SiO2 
 PCOD9577876
Probable space group: P -3 1 M 
;
_chemical_formula_sum "Si O2"
_cell_formula_units_Z 60
_cell_length_a 15.184788
_cell_length_b 15.184788
_cell_length_c 14.198262
_cell_angle_alpha 90.000000
_cell_angle_beta 90.000000
_cell_angle_gamma 120.000000
_cell_volume 2835.197280
_symmetry_space_group_name_H-M "P -3 1 M "
_symmetry_group_IT_number 162
_symmetry_cell_setting 'hexagonal'
loop_
_space_group_symop_operation_xyz
x,y,z
-y,x-y,z
-x+y,-x,z
-y,-x,-z
-x+y,y,-z
x,x-y,-z
-x,-y,-z
y,-x+y,-z
x-y,x,-z
y,x,z
x-y,-y,z
-x,-x+y,z
loop_
_atom_site_type_symbol
_atom_site_label
_atom_site_fract_x
_atom_site_fract_y
_atom_site_fract_z
Si Si1 0.729566 0.114108 0.071376
Si Si2 0.884160 0.765072 0.229716
Si Si3 0.212879 0.651241 0.204631
Si Si4 0.563161 0.444827 0.393547
Si Si5 0.351631 0.117731 0.408667
O O1 0.811394 0.118453 0.146559
O O2 0.651378 0.134265 0.131473
O O3 0.671174 0.000000 0.029682
O O4 0.794646 0.205355 0.000000
O O5 0.811259 0.811259 0.210818
O O6 0.846510 0.700588 0.325536
O O7 0.000000 0.853952 0.240500
O O8 0.245367 0.565872 0.189726
O O9 0.176027 0.637018 0.312619
O O10 0.579759 0.420242 0.500000
O O11 0.474612 0.474612 0.396121
O O12 0.668042 0.547190 0.371114
O O13 0.373420 0.186710 0.500000
O O14 0.275379 0.000000 0.435704
#
# Coordination Sequence:
#
# PCOD9577876 Si02
#       5
#    12  12  12  12  12
#     4  11  24  44  70  98 129 167 215 273 336 395
#     4  10  21  38  62  91 126 164 209 262 325 396
#     4  10  24  41  63  91 127 171 216 266 318 383
#     4  10  22  37  58  90 126 165 215 265 319 383
#     4  10  21  35  56  87 123 164 210 258 319 385
#
# _framework density 21.162548999999999
#
# number of rings (size 3 to 8) (size 9 to 14) (size 15 to 20)
#    0.400    1.400    0.000    3.200    5.600    0.800 
#    0.000    4.000    0.000    6.400    0.000    0.000 
#    0.000    0.000    0.000    0.000    0.000    0.000 
#
# Total GULP energy -335172.676870 kJ/mol
# GULP energy per Si atom -5586.211281 kJ/mol
# Density = 2.111438 g / cm^3
# Si number density = 21.162549 Si / 1000 Ang^3
#
#
#
# Elastic Constant Matrix: (Units=GPa)
#
#
# Indices 1 2 3 4 5 6 
#
# 1 60.0795 6.1742 27.6647 -0.0001 1.4468 0.0000
# 2 6.1742 60.0795 27.6647 0.0001 -1.4468 0.0000
# 3 27.6647 27.6647 75.4748 0.0000 0.0000 0.0000
# 4 -0.0001 0.0001 0.0000 33.3387 0.0000 -1.4468
# 5 1.4468 -1.4468 0.0000 0.0000 33.3387 -0.0001
# 6 0.0000 0.0000 0.0000 -1.4468 -0.0001 26.9527
#
#
#
# Elastic Compliance Matrix: (Units=1/GPa)
#
#
# Indices 1 2 3 4 5 6 
#
# 1 0.020173 0.001579 -0.007973 0.000000 -0.000807 0.000000
# 2 0.001579 0.020173 -0.007973 0.000000 0.000807 0.000000
# 3 -0.007973 -0.007973 0.019094 0.000000 0.000000 0.000000
# 4 0.000000 0.000000 0.000000 0.030065 0.000000 0.001614
# 5 -0.000807 0.000807 0.000000 0.000000 0.030065 0.000000
# 6 0.000000 0.000000 0.000000 0.001614 0.000000 0.037189
#
#
# Mechanical properties :
#
#
# Convention : Reuss Voigt Hill
#
# Bulk Modulus (GPa) = 32.56684 35.40458 33.98571
# Shear Modulus (GPa) = 25.54548 27.66801 26.60674
#
# Velocity S-wave (km/s) = 3.47811 3.61973 3.54963
# Velocity P-wave (km/s) = 5.61712 5.85116 5.73533
#
# Compressibility (1/GPa) = 0.03070608
#
# Stress axis : x y z
#
# Youngs Moduli (GPa) = 49.57102 49.57102 52.37168
#
# Poissons Ratio (x) = -0.07826 0.41756
# Poissons Ratio (y) = -0.07826 0.41756
# Poissons Ratio (z) = 0.39523 0.39523
#
# Static dielectric constant tensor:
#      x y z
#    x 1.767360 0.000000 0.000000 
#    y 0.000000 1.767360 0.000000 
#    z 0.000000 0.000000 1.738770 
# 
# From -- ./inp_files/2942.got.cif
#   From: 2010.05.17/outbox.cif.g08.bks.cpg/sg162_2_cif.got.tgz:2942.got - 2010.05.20 10:53:12.
