data_PCOD9577640
_publ_section_title
;
Structure prediction by ZEFSAII (Michael W. Deem and Ramdas Pophale) SiO2 
 PCOD9577640
Probable space group: P -3 1 M 
;
_chemical_formula_sum "Si O2"
_cell_formula_units_Z 52
_cell_length_a 18.497485
_cell_length_b 18.497485
_cell_length_c 11.751991
_cell_angle_alpha 90.000000
_cell_angle_beta 90.000000
_cell_angle_gamma 120.000000
_cell_volume 3482.310157
_symmetry_space_group_name_H-M "P -3 1 M "
_symmetry_group_IT_number 162
_symmetry_cell_setting 'hexagonal'
loop_
_space_group_symop_operation_xyz
x,y,z
-y,x-y,z
-x+y,-x,z
-y,-x,-z
-x+y,y,-z
x,x-y,-z
-x,-y,-z
y,-x+y,-z
x-y,x,-z
y,x,z
x-y,-y,z
-x,-x+y,z
loop_
_atom_site_type_symbol
_atom_site_label
_atom_site_fract_x
_atom_site_fract_y
_atom_site_fract_z
Si Si1 0.095789 0.466039 0.978081
Si Si2 0.908133 0.582023 0.763221
Si Si3 0.333334 0.666667 0.137472
Si Si4 0.429194 0.524972 0.372010
Si Si5 0.789219 0.516584 0.224584
O O1 0.151725 0.453669 0.886425
O O2 0.000000 0.424982 0.936009
O O3 0.127427 0.563714 0.000000
O O4 0.094385 0.428126 0.100399
O O5 0.903201 0.500018 0.706973
O O6 0.821541 0.577800 0.735270
O O7 0.000000 0.657828 0.731566
O O8 0.427523 0.711084 0.185735
O O9 0.333334 0.666667 0.000000
O O10 0.441199 0.558802 0.500000
O O11 0.449861 0.449861 0.372836
O O12 0.340009 0.499178 0.320826
#
# Coordination Sequence:
#
# PCOD9577640 Si02
#       5
#    12  12   4  12  12
#     4  10  17  28  47  67  89 115 146 187 237 284
#     4  10  20  32  44  63  89 115 145 188 238 275
#     4  12  21  27  40  71  91 108 144 199 236 271
#     4  10  21  35  47  61  86 119 155 195 238 279
#     4  12  19  31  46  66  88 118 153 190 235 281
#
# _framework density 14.932615999999999
#
# number of rings (size 3 to 8) (size 9 to 14) (size 15 to 20)
#    0.000    1.385    4.615    3.462    0.000    0.923 
#    0.000    0.000    0.000    0.000    0.000    0.000 
#    0.000    0.000    0.000    5.538    0.000   41.538 
#
# Total GULP energy -290169.082125 kJ/mol
# GULP energy per Si atom -5580.174656 kJ/mol
# Density = 1.489863 g / cm^3
# Si number density = 14.932616 Si / 1000 Ang^3
#
#
#
# Elastic Constant Matrix: (Units=GPa)
#
#
# Indices 1 2 3 4 5 6 
#
# 1 77.6649 28.7197 32.1130 -0.0001 1.8508 -0.0001
# 2 28.7197 77.6649 32.1128 0.0000 -1.8509 0.0000
# 3 32.1130 32.1128 72.1570 -0.0001 -0.0001 -0.0001
# 4 -0.0001 0.0000 -0.0001 15.7234 0.0000 -1.8508
# 5 1.8508 -1.8509 -0.0001 0.0000 15.7236 -0.0001
# 6 -0.0001 0.0000 -0.0001 -1.8508 -0.0001 24.4726
#
#
#
# Elastic Compliance Matrix: (Units=1/GPa)
#
#
# Indices 1 2 3 4 5 6 
#
# 1 0.016734 -0.003881 -0.005720 0.000000 -0.002427 0.000000
# 2 -0.003881 0.016734 -0.005720 0.000000 0.002427 0.000000
# 3 -0.005720 -0.005720 0.018950 0.000000 0.000000 0.000000
# 4 0.000000 0.000000 0.000000 0.064171 0.000000 0.004853
# 5 -0.002427 0.002427 0.000000 0.000000 0.064170 0.000000
# 6 0.000000 0.000000 0.000000 0.004853 0.000000 0.041229
#
#
# Mechanical properties :
#
#
# Convention : Reuss Voigt Hill
#
# Bulk Modulus (GPa) = 45.92274 45.93087 45.92680
# Shear Modulus (GPa) = 19.23904 20.15335 19.69619
#
# Velocity S-wave (km/s) = 3.59331 3.67770 3.63575
# Velocity P-wave (km/s) = 6.93079 6.98996 6.96044
#
# Compressibility (1/GPa) = 0.02177570
#
# Stress axis : x y z
#
# Youngs Moduli (GPa) = 59.75896 59.75905 52.77009
#
# Poissons Ratio (x) = 0.23190 0.30186
# Poissons Ratio (y) = 0.23190 0.30185
# Poissons Ratio (z) = 0.34184 0.34183
#
# Static dielectric constant tensor:
#      x y z
#    x 1.515010 0.000000 0.000000 
#    y 0.000000 1.515010 0.000000 
#    z 0.000000 0.000000 1.511410 
# 
# From -- ./inp_files/2215.got.cif
#   From: 2010.05.17/outbox.cif.g08.bks.cpg/sg162_2_cif.got.tgz:2215.got - 2010.05.20 10:53:12.
