data_PCOD9577264
_publ_section_title
;
Structure prediction by ZEFSAII (Michael W. Deem and Ramdas Pophale) SiO2 
 PCOD9577264
Probable space group: P 3 1 M
;
_chemical_formula_sum "Si O2"
_cell_formula_units_Z 42
_cell_length_a 14.825140
_cell_length_b 14.825140
_cell_length_c 11.697531
_cell_angle_alpha 90.000000
_cell_angle_beta 90.000000
_cell_angle_gamma 120.000000
_cell_volume 2226.498685
_symmetry_space_group_name_H-M "P 3 1 M"
_symmetry_group_IT_number 157
_symmetry_cell_setting 'hexagonal'
loop_
_space_group_symop_operation_xyz
x,y,z
-y,x-y,z
-x+y,-x,z
y,x,z
x-y,-y,z
-x,-x+y,z
loop_
_atom_site_type_symbol
_atom_site_label
_atom_site_fract_x
_atom_site_fract_y
_atom_site_fract_z
Si Si1 0.268580 0.739196 0.718930
Si Si2 0.711883 0.118238 0.913435
Si Si3 0.809700 0.260050 0.464900
Si Si4 0.199725 0.626512 0.092647
Si Si5 0.116240 0.592128 0.346354
Si Si6 0.756992 0.878758 0.089592
Si Si7 0.120547 0.880453 0.349730
O O1 0.221605 0.613455 0.727251
O O2 0.208183 0.760507 0.818379
O O3 0.256768 0.781005 0.597314
O O4 0.656107 0.000000 0.866369
O O5 0.627049 0.132222 0.987267
O O6 0.800749 0.130156 0.001723
O O7 0.699772 0.202247 0.399493
O O8 0.871794 0.374502 0.410327
O O9 0.866019 0.195194 0.435950
O O10 0.256527 0.557936 0.087581
O O11 0.139519 0.598757 0.211604
O O12 0.000000 0.569817 0.364345
O O13 0.804357 0.804357 0.064133
O O14 0.715084 0.858025 0.220065
O O15 0.848112 0.000000 0.088952
O O16 0.000000 0.805585 0.376105
O O17 0.149030 0.000000 0.348197
#
# Coordination Sequence:
#
# PCOD9577264 Si02
#       7
#     6   6   6   6   6   6   6
#     4  10  22  44  65  76 114 166 202 246 298 360
#     4  11  22  37  59  91 119 151 207 259 303 359
#     4  12  21  41  59  90 119 160 206 257 298 373
#     4  10  20  37  59  80 120 161 193 236 309 366
#     4  12  22  36  61  90 122 158 200 253 314 369
#     4   9  19  37  61  89 123 160 197 245 305 371
#     4  10  21  38  62  92 127 162 202 252 311 370
#
# _framework density 18.863696999999998
#
# number of rings (size 3 to 8) (size 9 to 14) (size 15 to 20)
#    0.571    0.857    2.857    3.571    0.000    3.429 
#    0.000    4.286    0.000    0.000    0.000    2.000 
#    0.000    0.000    0.000    0.000    0.000    0.000 
#
# Total GULP energy -234291.785476 kJ/mol
# GULP energy per Si atom -5578.375845 kJ/mol
# Density = 1.882076 g / cm^3
# Si number density = 18.863697 Si / 1000 Ang^3
#
#
#
# Elastic Constant Matrix: (Units=GPa)
#
#
# Indices 1 2 3 4 5 6 
#
# 1 53.7641 16.5090 21.6948 0.0000 -3.9319 0.0000
# 2 16.5090 53.7641 21.6948 0.0000 3.9319 0.0000
# 3 21.6948 21.6948 87.9462 0.0000 0.0000 0.0000
# 4 0.0000 0.0000 0.0000 17.6237 0.0000 3.9319
# 5 -3.9319 3.9319 0.0000 0.0000 17.6237 0.0000
# 6 0.0000 0.0000 0.0000 3.9319 0.0000 18.6275
#
#
#
# Elastic Compliance Matrix: (Units=1/GPa)
#
#
# Indices 1 2 3 4 5 6 
#
# 1 0.022478 -0.005691 -0.004141 0.000000 0.006284 0.000000
# 2 -0.005691 0.022478 -0.004141 0.000000 -0.006284 0.000000
# 3 -0.004141 -0.004141 0.013414 0.000000 0.000000 0.000000
# 4 0.000000 0.000000 0.000000 0.059546 0.000000 -0.012569
# 5 0.006284 -0.006284 0.000000 0.000000 0.059546 0.000000
# 6 0.000000 0.000000 0.000000 -0.012569 0.000000 0.056337
#
#
# Mechanical properties :
#
#
# Convention : Reuss Voigt Hill
#
# Bulk Modulus (GPa) = 32.86936 35.03020 33.94978
# Shear Modulus (GPa) = 18.39012 19.81336 19.10174
#
# Velocity S-wave (km/s) = 3.12572 3.24442 3.18562
# Velocity P-wave (km/s) = 5.52171 5.71362 5.61849
#
# Compressibility (1/GPa) = 0.03042347
#
# Stress axis : x y z
#
# Youngs Moduli (GPa) = 44.48832 44.48832 74.55082
#
# Poissons Ratio (x) = 0.25317 0.30872
# Poissons Ratio (y) = 0.25317 0.30872
# Poissons Ratio (z) = 0.18423 0.18423
#
# Static dielectric constant tensor:
#      x y z
#    x 1.659070 0.000000 0.000000 
#    y 0.000000 1.659070 0.000000 
#    z 0.000000 0.000000 1.640780 
# 
# From -- ./inp_files/588.got.cif
#   From: 2010.05.17/outbox.cif.g08.bks.cpg/sg157_cif.got.tgz:588.got - 2010.05.20 10:49:36.
