data_PCOD9577895
_publ_section_title
;
Structure prediction by ZEFSAII (Michael W. Deem and Ramdas Pophale) SiO2 
 PCOD9577895
Probable space group: P -3 1 M 
;
_chemical_formula_sum "Si O2"
_cell_formula_units_Z 66
_cell_length_a 26.819564
_cell_length_b 26.819564
_cell_length_c 5.263606
_cell_angle_alpha 90.000000
_cell_angle_beta 90.000000
_cell_angle_gamma 120.000000
_cell_volume 3278.818914
_symmetry_space_group_name_H-M "P -3 1 M "
_symmetry_group_IT_number 162
_symmetry_cell_setting 'hexagonal'
loop_
_space_group_symop_operation_xyz
x,y,z
-y,x-y,z
-x+y,-x,z
-y,-x,-z
-x+y,y,-z
x,x-y,-z
-x,-y,-z
y,-x+y,-z
x-y,x,-z
y,x,z
x-y,-y,z
-x,-x+y,z
loop_
_atom_site_type_symbol
_atom_site_label
_atom_site_fract_x
_atom_site_fract_y
_atom_site_fract_z
Si Si1 0.155976 0.577988 0.500000
Si Si2 0.456580 0.390711 0.248033
Si Si3 0.553269 0.308541 0.758335
Si Si4 0.665210 0.862154 0.242232
Si Si5 0.710204 0.649128 0.453021
Si Si6 0.285526 0.853748 0.065121
O O1 0.112104 0.517235 0.630503
O O2 0.200436 0.576066 0.297965
O O3 0.442427 0.442427 0.203066
O O4 0.405628 0.345400 0.427917
O O5 0.450101 0.351194 0.006211
O O6 0.560147 0.280074 0.500000
O O7 0.486359 0.285910 0.818574
O O8 0.575880 0.287940 0.000000
O O9 0.675439 0.837720 0.500000
O O10 0.682359 0.926842 0.322115
O O11 0.689496 0.844748 0.000000
O O12 0.597364 0.839614 0.172818
O O13 0.689228 0.689228 0.326342
O O14 0.734134 0.621043 0.256229
#
# Coordination Sequence:
#
# PCOD9577895 Si02
#       6
#     6  12  12  12  12  12
#     4  12  25  50  70  98 122 162 196 250 312 392
#     4  10  22  40  65  98 132 160 186 230 301 398
#     4  12  29  46  72  94 115 148 201 257 306 361
#     4  11  22  35  58  88 120 160 207 246 289 348
#     4  10  21  38  58  93 129 161 195 245 307 374
#     4  11  22  38  66  91 124 154 197 235 300 366
#
# _framework density 20.129200999999998
#
# number of rings (size 3 to 8) (size 9 to 14) (size 15 to 20)
#    0.000    1.091    3.636    2.455    5.091    3.636 
#    0.545    0.909    4.000    0.000    0.000    0.000 
#    0.000    0.000    0.000    0.000    0.000    0.000 
#
# Total GULP energy -368018.327538 kJ/mol
# GULP energy per Si atom -5576.035266 kJ/mol
# Density = 2.008339 g / cm^3
# Si number density = 20.129201 Si / 1000 Ang^3
#
#
#
# Elastic Constant Matrix: (Units=GPa)
#
#
# Indices 1 2 3 4 5 6 
#
# 1 45.4847 45.1515 26.1016 0.0000 -0.8627 0.0000
# 2 45.1515 45.4847 26.1016 0.0000 0.8627 0.0000
# 3 26.1016 26.1016 108.9136 0.0000 0.0000 0.0000
# 4 0.0000 0.0000 0.0000 20.2483 0.0000 0.8627
# 5 -0.8627 0.8627 0.0000 0.0000 20.2483 0.0000
# 6 0.0000 0.0000 0.0000 0.8627 0.0000 0.1666
#
#
#
# Elastic Compliance Matrix: (Units=1/GPa)
#
#
# Indices 1 2 3 4 5 6 
#
# 1 1.932270 -1.919470 -0.003068 0.000007 0.164109 0.000000
# 2 -1.919470 1.932270 -0.003068 -0.000007 -0.164109 0.000000
# 3 -0.003068 -0.003068 0.010652 0.000000 0.000000 0.000000
# 4 0.000007 -0.000007 0.000000 0.063371 0.000000 -0.328218
# 5 0.164109 -0.164109 0.000000 0.000000 0.063371 0.000013
# 6 0.000000 0.000000 0.000000 -0.328218 0.000013 7.703482
#
#
# Mechanical properties :
#
#
# Convention : Reuss Voigt Hill
#
# Bulk Modulus (GPa) = 41.69878 43.84360 42.77119
# Shear Modulus (GPa) = 0.32124 14.96785 7.64455
#
# Velocity S-wave (km/s) = 0.39992 2.72984 1.95089
# Velocity P-wave (km/s) = 4.57971 5.63599 5.13509
#
# Compressibility (1/GPa) = 0.02398152
#
# Stress axis : x y z
#
# Youngs Moduli (GPa) = 0.51753 0.51753 93.88010
#
# Poissons Ratio (x) = 0.99338 0.28798
# Poissons Ratio (y) = 0.99338 0.28798
# Poissons Ratio (z) = 0.00159 0.00159
#
# Static dielectric constant tensor:
#      x y z
#    x 1.782140 0.000000 0.000000 
#    y 0.000000 1.782140 0.000000 
#    z 0.000000 0.000000 1.838340 
# 
# From -- ./inp_files/720.got.cif
#   From: 2010.05.17/outbox.cif.g08.bks.cpg/sg162_1_cif.got.tgz:720.got - 2010.05.20 10:53:12.
