data_PCOD9577967
_publ_section_title
;
Structure prediction by ZEFSAII (Michael W. Deem and Ramdas Pophale) SiO2 
 PCOD9577967
Probable space group: P -3 1 M 
;
_chemical_formula_sum "Si O2"
_cell_formula_units_Z 46
_cell_length_a 15.000000
_cell_length_b 15.000000
_cell_length_c 12.000000
_cell_angle_alpha 90.000000
_cell_angle_beta 90.000000
_cell_angle_gamma 120.000000
_cell_volume 2338.268590
_symmetry_space_group_name_H-M "P -3 1 M "
_symmetry_group_IT_number 162
_symmetry_cell_setting 'hexagonal'
loop_
_space_group_symop_operation_xyz
x,y,z
-y,x-y,z
-x+y,-x,z
-y,-x,-z
-x+y,y,-z
x,x-y,-z
-x,-y,-z
y,-x+y,-z
x-y,x,-z
y,x,z
x-y,-y,z
-x,-x+y,z
loop_
_atom_site_type_symbol
_atom_site_label
_atom_site_fract_x
_atom_site_fract_y
_atom_site_fract_z
Si Si1 0.666667 0.333335 0.131864
Si Si2 0.714051 0.595026 0.584098
Si Si3 0.752335 0.876168 0.000000
Si Si4 0.882247 0.436873 0.250000
Si Si5 0.660379 0.778557 0.236598
O O1 0.782415 0.411116 0.176202
O O2 0.666668 0.333334 0.000000
O O3 0.788716 0.577432 0.500000
O O4 0.661594 0.661594 0.541265
O O5 0.620076 0.490037 0.637300
O O6 0.792878 0.656104 0.685458
O O7 0.682929 0.819697 0.109152
O O8 0.823319 0.823319 0.980863
O O9 0.877762 0.326799 0.256306
O O10 0.000000 0.516882 0.209700
O O11 0.747053 0.747053 0.264062
#
# Coordination Sequence:
#
# PCOD9577967 Si02
#       5
#     4  12   6  12  12
#     4  12  24  42  67  98 136 174 222 280 326 391
#     4  11  23  41  66  93 125 166 216 276 334 395
#     4  10  21  38  64  94 130 172 217 270 326 388
#     4  10  23  42  63  93 130 171 218 265 326 397
#     4  10  21  39  62  93 128 168 214 262 323 393
#
# _framework density 19.672675999999999
#
# number of rings (size 3 to 8) (size 9 to 14) (size 15 to 20)
#    0.000    1.565    2.609    1.696    1.826    1.565 
#    0.000    3.913    0.000    6.261    0.000    0.000 
#    0.000    0.000    0.000    0.000    0.000    0.000 
#
# Total GULP energy -256768.870131 kJ/mol
# GULP energy per Si atom -5581.931959 kJ/mol
# Density = 1.962790 g / cm^3
# Si number density = 19.672676 Si / 1000 Ang^3
#
#
#
# Elastic Constant Matrix: (Units=GPa)
#
#
# Indices 1 2 3 4 5 6 
#
# 1 126.0835 46.5099 48.9780 0.0001 -3.7227 0.0001
# 2 46.5099 126.0836 48.9776 0.0002 3.7227 0.0002
# 3 48.9780 48.9776 99.5807 0.0003 0.0002 -0.0002
# 4 0.0001 0.0002 0.0003 26.9218 0.0001 3.7226
# 5 -3.7227 3.7227 0.0002 0.0001 26.9219 0.0001
# 6 0.0001 0.0002 -0.0002 3.7226 0.0001 39.7869
#
#
#
# Elastic Compliance Matrix: (Units=1/GPa)
#
#
# Indices 1 2 3 4 5 6 
#
# 1 0.010385 -0.002347 -0.003953 0.000000 0.001761 0.000000
# 2 -0.002347 0.010385 -0.003953 0.000000 -0.001760 0.000000
# 3 -0.003953 -0.003953 0.013931 0.000000 0.000000 0.000000
# 4 0.000000 0.000000 0.000000 0.037631 0.000000 -0.003521
# 5 0.001761 -0.001760 0.000000 0.000000 0.037631 0.000000
# 6 0.000000 0.000000 0.000000 -0.003521 0.000000 0.025463
#
#
# Mechanical properties :
#
#
# Convention : Reuss Voigt Hill
#
# Bulk Modulus (GPa) = 70.45650 71.18654 70.82152
# Shear Modulus (GPa) = 31.12078 32.54495 31.83286
#
# Velocity S-wave (km/s) = 3.98166 4.07175 4.02696
# Velocity P-wave (km/s) = 7.55184 7.64000 7.59605
#
# Compressibility (1/GPa) = 0.01419315
#
# Stress axis : x y z
#
# Youngs Moduli (GPa) = 96.29563 96.29616 71.78328
#
# Poissons Ratio (x) = 0.22601 0.28378
# Poissons Ratio (y) = 0.22601 0.28377
# Poissons Ratio (z) = 0.38068 0.38068
#
# Static dielectric constant tensor:
#      x y z
#    x 1.692400 0.000000 0.000000 
#    y 0.000000 1.692400 0.000000 
#    z 0.000000 0.000000 1.711740 
# 
# From -- ./inp_files/2093.got.cif
#   From: 2010.05.17/outbox.ucp.g08.bks.cvg/sg162_2_cif.got.tgz:2093.got - 2010.06.11 15:15:45.
