data_PCOD9577758
_publ_section_title
;
Structure prediction by ZEFSAII (Michael W. Deem and Ramdas Pophale) SiO2 
 PCOD9577758
Probable space group: P -3 1 M 
;
_chemical_formula_sum "Si O2"
_cell_formula_units_Z 78
_cell_length_a 23.845154
_cell_length_b 23.845154
_cell_length_c 8.809252
_cell_angle_alpha 90.000000
_cell_angle_beta 90.000000
_cell_angle_gamma 120.000000
_cell_volume 4337.804037
_symmetry_space_group_name_H-M "P -3 1 M "
_symmetry_group_IT_number 162
_symmetry_cell_setting 'hexagonal'
loop_
_space_group_symop_operation_xyz
x,y,z
-y,x-y,z
-x+y,-x,z
-y,-x,-z
-x+y,y,-z
x,x-y,-z
-x,-y,-z
y,-x+y,-z
x-y,x,-z
y,x,z
x-y,-y,z
-x,-x+y,z
loop_
_atom_site_type_symbol
_atom_site_label
_atom_site_fract_x
_atom_site_fract_y
_atom_site_fract_z
Si Si1 0.192904 0.809318 0.179874
Si Si2 0.797103 0.382501 0.320919
Si Si3 0.480908 0.070341 0.389087
Si Si4 0.195337 0.926102 0.657842
Si Si5 0.922693 0.077308 0.500000
Si Si6 0.073240 0.716684 0.614820
Si Si7 0.245677 0.716778 0.176518
O O1 0.127125 0.805365 0.233703
O O2 0.250635 0.873800 0.255062
O O3 0.205426 0.751251 0.227638
O O4 0.191945 0.808056 0.000000
O O5 0.791693 0.395847 0.500000
O O6 0.866170 0.388034 0.291694
O O7 0.743660 0.310922 0.274555
O O8 0.792805 0.434476 0.215290
O O9 0.534925 0.069850 0.500000
O O10 0.421598 0.077735 0.457701
O O11 0.445790 0.000000 0.311893
O O12 0.124949 0.918665 0.626414
O O13 0.227945 0.917458 0.503874
O O14 0.241684 0.000000 0.708396
O O15 0.000000 0.110071 0.463765
O O16 0.000000 0.685400 0.673726
O O17 0.266056 0.733945 0.000000
#
# Coordination Sequence:
#
# PCOD9577758 Si02
#       7
#    12  12  12  12   6  12  12
#     4  11  23  37  55  83 118 155 191 230 281 343
#     4  11  22  36  60  84 104 137 189 238 279 332
#     4   9  19  34  55  85 111 137 178 233 291 335
#     4  10  21  36  59  87 116 151 192 239 285 334
#     4  10  19  34  58  90 122 152 188 232 284 336
#     4  10  19  36  61  84 112 148 189 239 289 335
#     4  11  24  40  55  76 113 152 184 231 290 347
#
# _framework density 17.981448
#
# number of rings (size 3 to 8) (size 9 to 14) (size 15 to 20)
#    0.000    1.692    3.077    1.308    4.308    1.846 
#    0.000    0.000    0.000    2.769    0.000    0.000 
#    0.000    3.077    0.000    0.000    0.000    0.000 
#
# Total GULP energy -434406.868907 kJ/mol
# GULP energy per Si atom -5569.318832 kJ/mol
# Density = 1.794052 g / cm^3
# Si number density = 17.981448 Si / 1000 Ang^3
#
#
#
# Elastic Constant Matrix: (Units=GPa)
#
#
# Indices 1 2 3 4 5 6 
#
# 1 119.1777 46.5126 22.3061 -0.0002 0.4507 0.0000
# 2 46.5126 119.1777 22.3061 0.0002 -0.4507 0.0000
# 3 22.3061 22.3061 39.4733 0.0000 0.0000 0.0000
# 4 -0.0002 0.0002 0.0000 17.8120 0.0000 -0.4507
# 5 0.4507 -0.4507 0.0000 0.0000 17.8120 -0.0002
# 6 0.0000 0.0000 0.0000 -0.4507 -0.0002 36.3326
#
#
#
# Elastic Compliance Matrix: (Units=1/GPa)
#
#
# Indices 1 2 3 4 5 6 
#
# 1 0.010442 -0.003324 -0.004023 0.000000 -0.000348 0.000000
# 2 -0.003324 0.010442 -0.004023 0.000000 0.000348 0.000000
# 3 -0.004023 -0.004023 0.029880 0.000000 0.000000 0.000000
# 4 0.000000 0.000000 0.000000 0.056159 0.000000 0.000697
# 5 -0.000348 0.000348 0.000000 0.000000 0.056159 0.000000
# 6 0.000000 0.000000 0.000000 0.000697 0.000000 0.027532
#
#
# Mechanical properties :
#
#
# Convention : Reuss Voigt Hill
#
# Bulk Modulus (GPa) = 35.68064 51.11979 43.40021
# Shear Modulus (GPa) = 22.45217 26.83825 24.64521
#
# Velocity S-wave (km/s) = 3.53743 3.86755 3.70617
# Velocity P-wave (km/s) = 6.04737 6.95951 6.51941
#
# Compressibility (1/GPa) = 0.02802641
#
# Stress axis : x y z
#
# Youngs Moduli (GPa) = 95.76469 95.76469 33.46736
#
# Poissons Ratio (x) = 0.31830 0.13463
# Poissons Ratio (y) = 0.31830 0.13463
# Poissons Ratio (z) = 0.38522 0.38522
#
# Static dielectric constant tensor:
#      x y z
#    x 1.656570 0.000000 0.000000 
#    y 0.000000 1.656570 0.000000 
#    z 0.000000 0.000000 1.594250 
# 
# From -- ./inp_files/1823.got.cif
#   From: 2010.05.17/outbox.cif.g08.bks.cpg/sg162_1_cif.got.tgz:1823.got - 2010.05.20 10:53:12.
