data_PCOD9577470
_publ_section_title
;
Structure prediction by ZEFSAII (Michael W. Deem and Ramdas Pophale) SiO2 
 PCOD9577470
Probable space group: R 3 M
;
_chemical_formula_sum "Si O2"
_cell_formula_units_Z 126
_cell_length_a 21.584513
_cell_length_b 21.584513
_cell_length_c 16.017366
_cell_angle_alpha 90.000000
_cell_angle_beta 90.000000
_cell_angle_gamma 120.000000
_cell_volume 6462.584576
_symmetry_space_group_name_H-M "R 3 M"
_symmetry_group_IT_number 160
_symmetry_cell_setting 'hexagonal'
loop_
_space_group_symop_operation_xyz
x,y,z
-y,x-y,z
-x+y,-x,z
-x+y,y,z
x,x-y,z
-y,-x,z
2/3+x,1/3+y,1/3+z
2/3-y,1/3+x-y,1/3+z
2/3-x+y,1/3-x,1/3+z
2/3-x+y,1/3+y,1/3+z
2/3+x,1/3+x-y,1/3+z
2/3-y,1/3-x,1/3+z
1/3+x,2/3+y,2/3+z
1/3-y,2/3+x-y,2/3+z
1/3-x+y,2/3-x,2/3+z
1/3-x+y,2/3+y,2/3+z
1/3+x,2/3+x-y,2/3+z
1/3-y,2/3-x,2/3+z
loop_
_atom_site_type_symbol
_atom_site_label
_atom_site_fract_x
_atom_site_fract_y
_atom_site_fract_z
Si Si1 0.533055 0.604022 0.780179
Si Si2 0.774024 0.767326 0.633565
Si Si3 0.448479 0.034182 0.366913
Si Si4 0.231273 0.186708 0.449493
Si Si5 0.742310 0.626870 0.217050
Si Si6 0.482182 0.667791 0.467269
Si Si7 0.730315 0.756123 0.293725
O O1 0.454874 0.545127 0.754701
O O2 0.567638 0.669148 0.716739
O O3 0.583186 0.568046 0.784700
O O4 0.532205 0.626035 0.876038
O O5 0.696505 0.761461 0.638515
O O6 0.807269 0.793068 0.542242
O O7 0.823026 0.815901 0.708961
O O8 0.754203 0.684535 0.644042
O O9 0.529817 0.059633 0.348811
O O10 0.426898 0.994482 0.457311
O O11 0.212559 0.106280 0.431389
O O12 0.210013 0.221307 0.374655
O O13 0.814390 0.628780 0.247134
O O14 0.681200 0.545348 0.198701
O O15 0.728178 0.681597 0.269922
O O16 0.479536 0.739768 0.483929
O O17 0.403581 0.596420 0.468408
#
# Coordination Sequence:
#
# PCOD9577470 Si02
#       7
#    18  18  18  18  18  18  18
#     4   9  18  32  50  76 106 137 178 225 272 325
#     4  10  19  31  50  77 111 140 175 225 264 315
#     4   9  16  31  52  74 103 138 178 225 276 318
#     4  10  19  31  51  78 110 147 177 209 265 335
#     4   8  16  30  52  79 101 129 173 225 271 317
#     4  10  20  36  56  77 104 141 182 223 267 320
#     4  10  18  31  53  75 109 142 174 212 271 332
#
# _framework density 19.496842999999998
#
# number of rings (size 3 to 8) (size 9 to 14) (size 15 to 20)
#    0.000    2.571    1.429    2.286    2.000    1.143 
#    0.000    2.857    0.000    0.286    0.000    0.000 
#    0.000    0.000    0.000    0.000    0.000    0.000 
#
# Total GULP energy -234337.310159 kJ/mol
# GULP energy per Si atom -5579.459766 kJ/mol
# Density = 1.945247 g / cm^3
# Si number density = 19.496843 Si / 1000 Ang^3
#
#
#
# Elastic Constant Matrix: (Units=GPa)
#
#
# Indices 1 2 3 4 5 6 
#
# 1 68.6418 25.6049 8.5627 2.6891 0.0000 0.0000
# 2 25.6049 68.6418 8.5627 -2.6891 0.0000 0.0000
# 3 8.5627 8.5627 94.8504 0.0000 0.0000 0.0000
# 4 2.6891 -2.6891 0.0000 12.0437 0.0000 0.0000
# 5 0.0000 0.0000 0.0000 0.0000 12.0437 2.6891
# 6 0.0000 0.0000 0.0000 0.0000 2.6891 21.5184
#
#
#
# Elastic Compliance Matrix: (Units=1/GPa)
#
#
# Indices 1 2 3 4 5 6 
#
# 1 0.017345 -0.006558 -0.000974 -0.005337 0.000000 0.000000
# 2 -0.006558 0.017345 -0.000974 0.005337 0.000000 0.000000
# 3 -0.000974 -0.000974 0.010719 0.000000 0.000000 0.000000
# 4 -0.005337 0.005337 0.000000 0.085414 0.000000 0.000000
# 5 0.000000 0.000000 0.000000 0.000000 0.085414 -0.010674
# 6 0.000000 0.000000 0.000000 0.000000 -0.010674 0.047806
#
#
# Mechanical properties :
#
#
# Convention : Reuss Voigt Hill
#
# Bulk Modulus (GPa) = 35.21349 35.28827 35.25088
# Shear Modulus (GPa) = 17.21051 21.74808 19.47930
#
# Velocity S-wave (km/s) = 2.97431 3.34348 3.16428
# Velocity P-wave (km/s) = 5.46769 5.74839 5.60980
#
# Compressibility (1/GPa) = 0.02839821
#
# Stress axis : x y z
#
# Youngs Moduli (GPa) = 57.65305 57.65305 93.29448
#
# Poissons Ratio (x) = 0.37807 0.09085
# Poissons Ratio (y) = 0.37807 0.09085
# Poissons Ratio (z) = 0.05614 0.05614
#
# Static dielectric constant tensor:
#      x y z
#    x 1.692250 0.000000 0.000000 
#    y 0.000000 1.692250 0.000000 
#    z 0.000000 0.000000 1.725540 
# 
# From -- ./inp_files/2890.got.cif
#   From: 2010.05.17/outbox.cif.g08.bks.cpg/sg160_2_cif.got.tgz:2890.got - 2010.05.20 10:51:19.
