data_PCOD9577855
_publ_section_title
;
Structure prediction by ZEFSAII (Michael W. Deem and Ramdas Pophale) SiO2 
 PCOD9577855
Probable space group: P -3 1 M 
;
_chemical_formula_sum "Si O2"
_cell_formula_units_Z 84
_cell_length_a 17.280794
_cell_length_b 17.280794
_cell_length_c 15.835250
_cell_angle_alpha 90.000000
_cell_angle_beta 90.000000
_cell_angle_gamma 120.000000
_cell_volume 4095.273792
_symmetry_space_group_name_H-M "P -3 1 M "
_symmetry_group_IT_number 162
_symmetry_cell_setting 'hexagonal'
loop_
_space_group_symop_operation_xyz
x,y,z
-y,x-y,z
-x+y,-x,z
-y,-x,-z
-x+y,y,-z
x,x-y,-z
-x,-y,-z
y,-x+y,-z
x-y,x,-z
y,x,z
x-y,-y,z
-x,-x+y,z
loop_
_atom_site_type_symbol
_atom_site_label
_atom_site_fract_x
_atom_site_fract_y
_atom_site_fract_z
Si Si1 0.102812 0.301927 0.749475
Si Si2 0.562984 0.349662 0.748710
Si Si3 0.271601 0.375667 0.842112
Si Si4 0.521347 0.182338 0.446361
Si Si5 0.313009 0.208342 0.580455
Si Si6 0.836107 0.326030 0.802798
Si Si7 0.896004 0.537636 0.018641
O O1 0.167066 0.304991 0.825507
O O2 0.150370 0.301635 0.663245
O O3 0.109763 0.399151 0.753689
O O4 0.000000 0.227057 0.755718
O O5 0.457713 0.284690 0.782958
O O6 0.561610 0.355039 0.647337
O O7 0.569147 0.441650 0.790463
O O8 0.575792 0.259356 0.769217
O O9 0.330191 0.330191 0.818087
O O10 0.300872 0.414301 0.936377
O O11 0.569746 0.139491 0.500000
O O12 0.539307 0.269654 0.500000
O O13 0.414924 0.126667 0.433248
O O14 0.290046 0.145023 0.500000
O O15 0.250436 0.250436 0.587632
O O16 0.836561 0.306454 0.901093
O O17 0.000000 0.593755 0.045308
O O18 0.874286 0.437143 0.000000
#
# Coordination Sequence:
#
# PCOD9577855 Si02
#       7
#    12  12  12  12  12  12  12
#     4  11  24  42  67  94 124 170 222 275 335 399
#     4  11  22  36  59  90 125 175 221 266 325 367
#     4  10  21  40  64  93 132 174 216 269 339 398
#     4  11  23  39  63  95 132 179 224 270 322 379
#     4  11  24  45  68  96 131 169 214 273 339 404
#     4  11  22  39  58  92 131 172 226 268 311 378
#     4  10  20  37  62  93 130 175 218 268 324 386
#
# _framework density 20.511448999999999
#
# number of rings (size 3 to 8) (size 9 to 14) (size 15 to 20)
#    0.000    1.286    4.286    2.571    2.000    3.143 
#    0.000    0.000    0.000    6.286    0.000    0.000 
#    0.000    0.000    0.000   34.857    0.000    0.000 
#
# Total GULP energy -468004.786299 kJ/mol
# GULP energy per Si atom -5571.485551 kJ/mol
# Density = 2.046476 g / cm^3
# Si number density = 20.511449 Si / 1000 Ang^3
#
#
#
# Elastic Constant Matrix: (Units=GPa)
#
#
# Indices 1 2 3 4 5 6 
#
# 1 104.0322 64.6456 54.2139 0.0000 6.3680 0.0000
# 2 64.6456 104.0322 54.2139 0.0000 -6.3680 0.0000
# 3 54.2139 54.2139 151.3898 0.0000 0.0000 0.0000
# 4 0.0000 0.0000 0.0000 15.1480 0.0000 -6.3680
# 5 6.3680 -6.3680 0.0000 0.0000 15.1480 0.0000
# 6 0.0000 0.0000 0.0000 -6.3680 0.0000 19.6933
#
#
#
# Elastic Compliance Matrix: (Units=1/GPa)
#
#
# Indices 1 2 3 4 5 6 
#
# 1 0.018542 -0.010841 -0.002758 0.000000 -0.012353 0.000000
# 2 -0.010841 0.018542 -0.002758 0.000000 0.012353 0.000000
# 3 -0.002758 -0.002758 0.008581 0.000000 0.000000 0.000000
# 4 0.000000 0.000000 0.000000 0.076401 0.000000 0.024705
# 5 -0.012353 0.012353 0.000000 0.000000 0.076401 0.000000
# 6 0.000000 0.000000 0.000000 0.024705 0.000000 0.058767
#
#
# Mechanical properties :
#
#
# Convention : Reuss Voigt Hill
#
# Bulk Modulus (GPa) = 77.20998 78.40009 77.80504
# Shear Modulus (GPa) = 16.99142 22.42325 19.70733
#
# Velocity S-wave (km/s) = 2.88129 3.30995 3.10303
# Velocity P-wave (km/s) = 6.98522 7.27415 7.13115
#
# Compressibility (1/GPa) = 0.01295169
#
# Stress axis : x y z
#
# Youngs Moduli (GPa) = 53.93030 53.93030 116.54060
#
# Poissons Ratio (x) = 0.58467 0.32140
# Poissons Ratio (y) = 0.58467 0.32140
# Poissons Ratio (z) = 0.14873 0.14873
#
# Static dielectric constant tensor:
#      x y z
#    x 1.972910 0.000000 0.000000 
#    y 0.000000 1.972910 0.000000 
#    z 0.000000 0.000000 1.758600 
# 
# From -- ./inp_files/3204.got.cif
#   From: 2010.05.17/outbox.cif.g08.bks.cpg/sg162_2_cif.got.tgz:3204.got - 2010.05.20 10:53:12.
