data_PCOD9577181
_publ_section_title
;
Structure prediction by ZEFSAII (Michael W. Deem and Ramdas Pophale) SiO2 
 PCOD9577181
Probable space group: R 3 2
;
_chemical_formula_sum "Si O2"
_cell_formula_units_Z 72
_cell_length_a 23.413844
_cell_length_b 23.413844
_cell_length_c 7.655002
_cell_angle_alpha 90.000000
_cell_angle_beta 90.000000
_cell_angle_gamma 120.000000
_cell_volume 3634.305079
_symmetry_space_group_name_H-M "R 3 2"
_symmetry_group_IT_number 155
_symmetry_cell_setting 'hexagonal'
loop_
_space_group_symop_operation_xyz
x,y,z
-y,x-y,z
-x+y,-x,z
x-y,-y,-z
-x,-x+y,-z
y,x,-z
2/3+x,1/3+y,1/3+z
2/3-y,1/3+x-y,1/3+z
2/3-x+y,1/3-x,1/3+z
2/3+x-y,1/3-y,1/3-z
2/3-x,1/3-x+y,1/3-z
2/3+y,1/3+x,1/3-z
1/3+x,2/3+y,2/3+z
1/3-y,2/3+x-y,2/3+z
1/3-x+y,2/3-x,2/3+z
1/3+x-y,2/3-y,2/3-z
1/3-x,2/3-x+y,2/3-z
1/3+y,2/3+x,2/3-z
loop_
_atom_site_type_symbol
_atom_site_label
_atom_site_fract_x
_atom_site_fract_y
_atom_site_fract_z
Si Si1 0.756899 0.618843 0.508493
Si Si2 0.592925 0.711784 0.985411
Si Si3 0.404142 0.587969 0.944711
Si Si4 0.928624 0.075519 0.298477
O O1 0.800191 0.666667 0.666667
O O2 0.778679 0.670472 0.353192
O O3 0.680708 0.598805 0.533857
O O4 0.758524 0.551020 0.523462
O O5 0.560569 0.666667 0.166667
O O6 0.545779 0.737583 0.911994
O O7 0.328914 0.538525 0.893302
O O8 0.423596 0.663924 0.917175
O O9 0.407291 0.585249 0.157102
#
# Coordination Sequence:
#
# PCOD9577181 Si02
#       4
#    18  18  18  18
#     4   9  14  23  32  48  71 101 120 144 170 204
#     4   9  14  23  33  47  73  99 121 143 172 202
#     4   9  14  19  30  45  71  95 116 132 168 212
#     4   9  13  20  28  47  68  98 115 133 164 216
#
# _framework density 19.811215000000001
#
# number of rings (size 3 to 8) (size 9 to 14) (size 15 to 20)
#    0.000    3.000    7.500    0.500    0.000    2.000 
#    0.000    0.000    0.000    0.000    0.000    0.000 
#    0.000   80.000    0.000   66.500    0.000    0.000 
#
# Total GULP energy -133646.077430 kJ/mol
# GULP energy per Si atom -5568.586560 kJ/mol
# Density = 1.976612 g / cm^3
# Si number density = 19.811215 Si / 1000 Ang^3
#
#
#
# Elastic Constant Matrix: (Units=GPa)
#
#
# Indices 1 2 3 4 5 6 
#
# 1 133.8242 69.1777 18.5053 0.3825 -0.0452 0.0113
# 2 69.1777 133.8669 18.5942 -0.3773 -0.0070 -0.0040
# 3 18.5053 18.5942 58.0051 0.0148 -0.1510 0.0252
# 4 0.3825 -0.3773 0.0148 5.6429 0.0107 0.0062
# 5 -0.0452 -0.0070 -0.1510 0.0107 5.5571 0.3817
# 6 0.0113 -0.0040 0.0252 0.0062 0.3817 32.3390
#
#
#
# Elastic Compliance Matrix: (Units=1/GPa)
#
#
# Indices 1 2 3 4 5 6 
#
# 1 0.010353 -0.005122 -0.001661 -0.001040 0.000035 -0.000003
# 2 -0.005122 0.010354 -0.001685 0.001044 -0.000077 0.000005
# 3 -0.001661 -0.001685 0.018311 -0.000049 0.000484 -0.000020
# 4 -0.001040 0.001044 -0.000049 0.177355 -0.000349 -0.000029
# 5 0.000035 -0.000077 0.000484 -0.000349 0.180112 -0.002126
# 6 -0.000003 0.000005 -0.000020 -0.000029 -0.002126 0.030948
#
#
# Mechanical properties :
#
#
# Convention : Reuss Voigt Hill
#
# Bulk Modulus (GPa) = 45.28627 59.80563 52.54595
# Shear Modulus (GPa) = 11.06856 23.33572 17.20214
#
# Velocity S-wave (km/s) = 2.36625 3.43578 2.94990
# Velocity P-wave (km/s) = 5.51127 6.78180 6.17927
#
# Compressibility (1/GPa) = 0.02208175
#
# Stress axis : x y z
#
# Youngs Moduli (GPa) = 96.59054 96.57918 54.61139
#
# Poissons Ratio (x) = 0.49471 0.09068
# Poissons Ratio (y) = 0.49477 0.09205
# Poissons Ratio (z) = 0.16039 0.16278
#
# Static dielectric constant tensor:
#      x y z
#    x 1.696150 0.000000 0.000010 
#    y 0.000000 1.696160 0.000010 
#    z 0.000010 0.000010 1.899610 
# 
# From -- ./inp_files/3874.got.cif
#   From: 2010.05.17/outbox.cif.g08.bks.cpg/sg155_2_cif.got.tgz:3874.got - 2010.05.20 10:44:35.
