data_PCOD9577969
_publ_section_title
;
Structure prediction by ZEFSAII (Michael W. Deem and Ramdas Pophale) SiO2 
 PCOD9577969
Probable space group: P -3 1 C
;
_chemical_formula_sum "Si O2"
_cell_formula_units_Z 46
_cell_length_a 13.517174
_cell_length_b 13.517174
_cell_length_c 13.455360
_cell_angle_alpha 90.000000
_cell_angle_beta 90.000000
_cell_angle_gamma 120.000000
_cell_volume 2129.108345
_symmetry_space_group_name_H-M "P -3 1 C"
_symmetry_group_IT_number 163
_symmetry_cell_setting 'hexagonal'
loop_
_space_group_symop_operation_xyz
x,y,z
-y,x-y,z
-x+y,-x,z
-y,-x,1/2-z
-x+y,y,1/2-z
x,x-y,1/2-z
-x,-y,-z
y,-x+y,-z
x-y,x,-z
y,x,1/2+z
x-y,-y,1/2+z
-x,-x+y,1/2+z
loop_
_atom_site_type_symbol
_atom_site_label
_atom_site_fract_x
_atom_site_fract_y
_atom_site_fract_z
Si Si1 0.666667 0.333334 0.630942
Si Si2 0.808275 0.043467 0.042712
Si Si3 0.651346 0.504180 0.485914
Si Si4 0.703567 0.851784 0.750000
Si Si5 0.493265 0.652826 0.656770
O O1 0.666668 0.333334 0.750000
O O2 0.648531 0.434729 0.584049
O O3 0.835878 0.066653 0.159482
O O4 0.707984 0.068649 0.012060
O O5 0.919325 0.137947 0.986131
O O6 0.534740 0.445783 0.422412
O O7 0.736101 0.482647 0.411188
O O8 0.618116 0.726787 0.703369
O O9 0.408373 0.591628 0.750000
#
# Coordination Sequence:
#
# PCOD9577969 Si02
#       5
#     4  12  12   6  12
#     4   9  18  36  58  89 133 177 183 219 343 413
#     4  11  24  44  64  86 121 165 221 273 311 345
#     4   9  19  31  60  94 125 156 202 259 294 375
#     4  10  22  36  64 102 120 158 204 260 314 380
#     4  10  13  26  60  92 117 149 186 238 307 364
#
# _framework density 21.605288000000002
#
# number of rings (size 3 to 8) (size 9 to 14) (size 15 to 20)
#    0.000    2.087    5.217    0.783    1.826    1.043 
#    4.696   11.739    0.000    0.000    0.000    0.000 
#    0.000    0.000    0.000    0.000    0.000    0.000 
#
# Total GULP energy -256694.279188 kJ/mol
# GULP energy per Si atom -5580.310417 kJ/mol
# Density = 2.155611 g / cm^3
# Si number density = 21.605288 Si / 1000 Ang^3
#
#
#
# Elastic Constant Matrix: (Units=GPa)
#
#
# Indices 1 2 3 4 5 6 
#
# 1 68.8794 27.1390 30.3750 0.0000 7.5705 0.0000
# 2 27.1390 68.8791 30.3750 -0.0001 -7.5705 -0.0002
# 3 30.3750 30.3750 177.4087 0.0000 0.0000 0.0001
# 4 0.0000 -0.0001 0.0000 22.6457 -0.0001 -7.5705
# 5 7.5705 -7.5705 0.0000 -0.0001 22.6458 -0.0001
# 6 0.0000 -0.0002 0.0001 -7.5705 -0.0001 20.8700
#
#
#
# Elastic Compliance Matrix: (Units=1/GPa)
#
#
# Indices 1 2 3 4 5 6 
#
# 1 0.019472 -0.007792 -0.002000 0.000000 -0.009114 0.000000
# 2 -0.007792 0.019472 -0.002000 0.000000 0.009114 0.000000
# 3 -0.002000 -0.002000 0.006321 0.000000 0.000000 0.000000
# 4 0.000000 0.000000 0.000000 0.050253 0.000000 0.018229
# 5 -0.009114 0.009114 0.000000 0.000000 0.050252 0.000001
# 6 0.000000 0.000000 0.000000 0.018229 0.000001 0.054528
#
#
# Mechanical properties :
#
#
# Convention : Reuss Voigt Hill
#
# Bulk Modulus (GPa) = 46.12069 54.54945 50.33507
# Shear Modulus (GPa) = 21.63485 28.38418 25.00952
#
# Velocity S-wave (km/s) = 3.16787 3.62852 3.40599
# Velocity P-wave (km/s) = 5.89694 6.54659 6.23024
#
# Compressibility (1/GPa) = 0.02168224
#
# Stress axis : x y z
#
# Youngs Moduli (GPa) = 51.35621 51.35592 158.19064
#
# Poissons Ratio (x) = 0.40016 0.31635
# Poissons Ratio (y) = 0.40017 0.31635
# Poissons Ratio (z) = 0.10270 0.10270
#
# Static dielectric constant tensor:
#      x y z
#    x 1.827500 0.000000 0.000000 
#    y 0.000000 1.827500 0.000000 
#    z 0.000000 0.000000 1.803690 
# 
# From -- ./inp_files/1584.got.cif
#   From: 2010.05.17/outbox.cif.g08.bks.cpg/sg163_1_cif.got.tgz:1584.got - 2010.05.20 10:56:03.
