data_PCOD9577677
_publ_section_title
;
Structure prediction by ZEFSAII (Michael W. Deem and Ramdas Pophale) SiO2 
 PCOD9577677
Probable space group: P -3 1 M 
;
_chemical_formula_sum "Si O2"
_cell_formula_units_Z 40
_cell_length_a 13.179118
_cell_length_b 13.179118
_cell_length_c 17.944328
_cell_angle_alpha 90.000000
_cell_angle_beta 90.000000
_cell_angle_gamma 120.000000
_cell_volume 2699.171774
_symmetry_space_group_name_H-M "P -3 1 M "
_symmetry_group_IT_number 162
_symmetry_cell_setting 'hexagonal'
loop_
_space_group_symop_operation_xyz
x,y,z
-y,x-y,z
-x+y,-x,z
-y,-x,-z
-x+y,y,-z
x,x-y,-z
-x,-y,-z
y,-x+y,-z
x-y,x,-z
y,x,z
x-y,-y,z
-x,-x+y,z
loop_
_atom_site_type_symbol
_atom_site_label
_atom_site_fract_x
_atom_site_fract_y
_atom_site_fract_z
Si Si1 0.552406 0.864202 0.216156
Si Si2 0.465952 0.139344 0.956446
Si Si3 0.666668 0.333334 0.411490
Si Si4 0.656537 0.135933 0.690931
O O1 0.519218 0.827296 0.130388
O O2 0.440168 0.858660 0.256149
O O3 0.580190 0.776394 0.261801
O O4 0.654033 0.000000 0.218139
O O5 0.386180 0.000000 0.960223
O O6 0.585171 0.170342 0.000000
O O7 0.411054 0.205527 0.000000
O O8 0.666668 0.333334 0.500000
O O9 0.779118 0.329647 0.377838
O O10 0.606863 0.000000 0.671741
#
# Coordination Sequence:
#
# PCOD9577677 Si02
#       4
#    12  12   4  12
#     4   9  17  28  42  62  85 110 146 184 213 251
#     4  10  19  28  40  60  85 113 144 181 224 264
#     4   9  18  30  45  72 100 113 133 168 201 249
#     4   9  17  30  47  64  86 117 143 169 211 253
#
# _framework density 14.81936
#
# number of rings (size 3 to 8) (size 9 to 14) (size 15 to 20)
#    0.000    2.700    0.000    2.700    0.000    4.200 
#    0.000    0.000    0.000    0.900    0.000    0.000 
#    0.000    1.200    0.000    0.000    0.000    0.000 
#
# Total GULP energy -222806.329112 kJ/mol
# GULP energy per Si atom -5570.158228 kJ/mol
# Density = 1.478563 g / cm^3
# Si number density = 14.819360 Si / 1000 Ang^3
#
#
#
# Elastic Constant Matrix: (Units=GPa)
#
#
# Indices 1 2 3 4 5 6 
#
# 1 64.5881 35.9522 44.6781 -0.0001 1.5487 -0.0001
# 2 35.9522 64.5876 44.6776 0.0000 -1.5489 -0.0001
# 3 44.6781 44.6776 135.6495 -0.0003 -0.0003 -0.0001
# 4 -0.0001 0.0000 -0.0003 12.1676 -0.0001 -1.5488
# 5 1.5487 -1.5489 -0.0003 -0.0001 12.1677 0.0000
# 6 -0.0001 -0.0001 -0.0001 -1.5488 0.0000 14.3179
#
#
#
# Elastic Compliance Matrix: (Units=1/GPa)
#
#
# Indices 1 2 3 4 5 6 
#
# 1 0.024736 -0.010673 -0.004632 0.000000 -0.004507 0.000000
# 2 -0.010673 0.024736 -0.004632 0.000000 0.004507 0.000000
# 3 -0.004632 -0.004632 0.010423 0.000000 0.000000 0.000000
# 4 0.000000 0.000000 0.000000 0.083333 0.000000 0.009014
# 5 -0.004507 0.004507 0.000000 0.000000 0.083333 0.000000
# 6 0.000000 0.000000 0.000000 0.009014 0.000000 0.070818
#
#
# Mechanical properties :
#
#
# Convention : Reuss Voigt Hill
#
# Bulk Modulus (GPa) = 49.94619 57.27125 53.60872
# Shear Modulus (GPa) = 14.53804 17.03178 15.78491
#
# Velocity S-wave (km/s) = 3.13552 3.39380 3.26721
# Velocity P-wave (km/s) = 6.84727 7.35441 7.10536
#
# Compressibility (1/GPa) = 0.02002155
#
# Stress axis : x y z
#
# Youngs Moduli (GPa) = 40.42709 40.42696 95.94171
#
# Poissons Ratio (x) = 0.43148 0.44438
# Poissons Ratio (y) = 0.43148 0.44437
# Poissons Ratio (z) = 0.18725 0.18725
#
# Static dielectric constant tensor:
#      x y z
#    x 1.498960 0.000000 0.000000 
#    y 0.000000 1.498960 0.000000 
#    z 0.000000 0.000000 1.480330 
# 
# From -- ./inp_files/2778.got.cif
#   From: 2010.05.17/outbox.cif.g08.bks.cpg/sg162_2_cif.got.tgz:2778.got - 2010.05.20 10:53:12.
