data_PCOD9577234
_publ_section_title
;
Structure prediction by ZEFSAII (Michael W. Deem and Ramdas Pophale) SiO2 
 PCOD9577234
Probable space group: P 3 M 1
;
_chemical_formula_sum "Si O2"
_cell_formula_units_Z 42
_cell_length_a 12.909014
_cell_length_b 12.909014
_cell_length_c 18.385494
_cell_angle_alpha 90.000000
_cell_angle_beta 90.000000
_cell_angle_gamma 120.000000
_cell_volume 2653.334957
_symmetry_space_group_name_H-M "P 3 M 1"
_symmetry_group_IT_number 156
_symmetry_cell_setting 'hexagonal'
loop_
_space_group_symop_operation_xyz
x,y,z
-y,x-y,z
-x+y,-x,z
-x+y,y,z
x,x-y,z
-y,-x,z
loop_
_atom_site_type_symbol
_atom_site_label
_atom_site_fract_x
_atom_site_fract_y
_atom_site_fract_z
Si Si1 0.087185 0.419821 0.415600
Si Si2 0.579053 0.667193 0.980648
Si Si3 0.420651 0.332706 0.851189
Si Si4 0.000154 0.753638 0.552585
Si Si5 0.246525 0.246657 0.279049
Si Si6 0.333715 0.913165 0.145779
Si Si7 0.666569 0.087641 0.686936
O O1 0.225352 0.450704 0.413926
O O2 0.079248 0.539624 0.415414
O O3 0.027712 0.338997 0.486836
O O4 0.024008 0.336734 0.345733
O O5 0.576794 0.788397 0.972162
O O6 0.445337 0.554664 0.975229
O O7 0.653766 0.653370 0.916198
O O8 0.620284 0.663846 0.063084
O O9 0.423696 0.211848 0.859498
O O10 0.554209 0.445792 0.855832
O O11 0.377669 0.335581 0.769091
O O12 0.878936 0.757871 0.538964
O O13 0.981075 0.678750 0.626240
O O14 0.113351 0.886650 0.558353
O O15 0.252155 0.126078 0.284587
O O16 0.304910 0.319178 0.204971
O O17 0.109189 0.218377 0.280819
O O18 0.458485 0.916970 0.160226
O O19 0.224091 0.775910 0.149554
O O20 0.540599 0.081197 0.672943
O O21 0.774326 0.225675 0.685330
#
# Coordination Sequence:
#
# PCOD9577234 Si02
#       7
#     6   6   6   6   6   6   6
#     4  10  20  34  53  75  97 121 151 190 232 271
#     4   9  17  29  46  68  93 121 153 191 235 281
#     4   9  17  29  46  67  91 121 157 196 235 276
#     4  10  20  33  50  71  96 126 157 189 226 272
#     4  10  20  33  50  71  96 126 157 189 225 269
#     4   9  17  30  49  71  93 119 153 194 237 278
#     4   9  17  30  48  69  92 120 156 197 238 277
#
# _framework density 15.829136
#
# number of rings (size 3 to 8) (size 9 to 14) (size 15 to 20)
#    0.000    2.571    0.000    2.286    0.000    3.429 
#    0.000    2.857    0.000    6.571    0.000    0.000 
#    0.000    0.000    0.000    0.000    0.000    0.000 
#
# Total GULP energy -234112.636176 kJ/mol
# GULP energy per Si atom -5574.110385 kJ/mol
# Density = 1.579311 g / cm^3
# Si number density = 15.829136 Si / 1000 Ang^3
#
#
#
# Elastic Constant Matrix: (Units=GPa)
#
#
# Indices 1 2 3 4 5 6 
#
# 1 88.9289 69.2792 78.8187 -3.6351 -0.0002 0.0000
# 2 69.2792 88.9289 78.8187 3.6351 0.0002 0.0000
# 3 78.8187 78.8187 147.4208 0.0000 0.0000 0.0000
# 4 -3.6351 3.6351 0.0000 23.7064 0.0000 0.0002
# 5 -0.0002 0.0002 0.0000 0.0000 23.7064 -3.6351
# 6 0.0000 0.0000 0.0000 0.0002 -3.6351 9.8248
#
#
#
# Elastic Compliance Matrix: (Units=1/GPa)
#
#
# Indices 1 2 3 4 5 6 
#
# 1 0.033740 -0.020213 -0.007232 0.008273 0.000000 0.000000
# 2 -0.020213 0.033740 -0.007232 -0.008273 0.000000 0.000000
# 3 -0.007232 -0.007232 0.014517 0.000000 0.000000 0.000000
# 4 0.008273 -0.008273 0.000000 0.044720 0.000000 -0.000001
# 5 0.000000 0.000000 0.000000 0.000000 0.044720 0.016546
# 6 0.000000 0.000000 0.000000 -0.000001 0.016546 0.107905
#
#
# Mechanical properties :
#
#
# Convention : Reuss Voigt Hill
#
# Bulk Modulus (GPa) = 79.10284 86.56799 82.83541
# Shear Modulus (GPa) = 14.16800 18.00499 16.08649
#
# Velocity S-wave (km/s) = 2.99500 3.37628 3.19134
# Velocity P-wave (km/s) = 7.87664 8.36701 8.12552
#
# Compressibility (1/GPa) = 0.01264177
#
# Stress axis : x y z
#
# Youngs Moduli (GPa) = 29.63876 29.63876 68.88636
#
# Poissons Ratio (x) = 0.59908 0.49820
# Poissons Ratio (y) = 0.59908 0.49820
# Poissons Ratio (z) = 0.21435 0.21435
#
# Static dielectric constant tensor:
#      x y z
#    x 1.497870 0.000000 0.000000 
#    y 0.000000 1.497870 0.000000 
#    z 0.000000 0.000000 1.544960 
# 
# From -- ./inp_files/957.got.cif
#   From: 2010.05.17/outbox.cif.g08.bks.cpg/sg156_cif.got.tgz:957.got - 2010.05.20 10:49:08.
