data_PCOD9577053
_publ_section_title
;
Structure prediction by ZEFSAII (Michael W. Deem and Ramdas Pophale) SiO2 
 PCOD9577053
Probable space group: R 3 2
;
_chemical_formula_sum "Si O2"
_cell_formula_units_Z 66
_cell_length_a 13.670070
_cell_length_b 13.670070
_cell_length_c 17.754867
_cell_angle_alpha 90.000000
_cell_angle_beta 90.000000
_cell_angle_gamma 120.000000
_cell_volume 2873.356628
_symmetry_space_group_name_H-M "R 3 2"
_symmetry_group_IT_number 155
_symmetry_cell_setting 'hexagonal'
loop_
_space_group_symop_operation_xyz
x,y,z
-y,x-y,z
-x+y,-x,z
x-y,-y,-z
-x,-x+y,-z
y,x,-z
2/3+x,1/3+y,1/3+z
2/3-y,1/3+x-y,1/3+z
2/3-x+y,1/3-x,1/3+z
2/3+x-y,1/3-y,1/3-z
2/3-x,1/3-x+y,1/3-z
2/3+y,1/3+x,1/3-z
1/3+x,2/3+y,2/3+z
1/3-y,2/3+x-y,2/3+z
1/3-x+y,2/3-x,2/3+z
1/3+x-y,2/3-y,2/3-z
1/3-x,2/3-x+y,2/3-z
1/3+y,2/3+x,2/3-z
loop_
_atom_site_type_symbol
_atom_site_label
_atom_site_fract_x
_atom_site_fract_y
_atom_site_fract_z
Si Si1 0.554200 0.546280 0.870585
Si Si2 0.000000 0.000000 0.901738
Si Si3 0.000000 0.000000 0.723223
Si Si4 0.259508 0.159216 0.945001
Si Si5 0.804027 0.820757 0.663315
O O1 0.666667 0.649836 0.833334
O O2 0.462470 0.479952 0.805893
O O3 0.515150 0.601837 0.934246
O O4 0.611215 0.488635 0.919669
O O5 0.000000 0.000000 0.811819
O O6 0.932560 0.869808 0.928279
O O7 0.050791 0.927660 0.687819
O O8 0.247059 0.247059 0.000000
O O9 0.342103 0.124482 0.986585
#
# Coordination Sequence:
#
# PCOD9577053 Si02
#       5
#    18   6   6  18  18
#     4   9  20  40  68  96 138 190 233 290 373 435
#     4  12  25  40  72 115 148 184 248 310 379 442
#     4  12  24  49  74 103 144 205 251 313 357 446
#     4  11  24  42  70 112 144 185 242 310 371 442
#     4  10  23  44  70  97 147 194 241 298 373 438
#
# _framework density 22.969650999999999
#
# number of rings (size 3 to 8) (size 9 to 14) (size 15 to 20)
#    0.000    1.636    2.727    0.818   15.273    0.000 
#    4.909   15.000    0.000    0.000    0.000    0.000 
#    0.000    0.000    0.000    0.000    0.000    0.000 
#
# Total GULP energy -122538.230148 kJ/mol
# GULP energy per Si atom -5569.919552 kJ/mol
# Density = 2.291737 g / cm^3
# Si number density = 22.969651 Si / 1000 Ang^3
#
#
#
# Elastic Constant Matrix: (Units=GPa)
#
#
# Indices 1 2 3 4 5 6 
#
# 1 73.4424 40.1538 63.4310 11.8671 0.0000 0.0000
# 2 40.1538 73.4424 63.4310 -11.8671 0.0000 0.0000
# 3 63.4310 63.4310 197.1120 0.0000 0.0000 0.0000
# 4 11.8671 -11.8671 0.0000 42.7111 0.0000 0.0000
# 5 0.0000 0.0000 0.0000 0.0000 42.7111 11.8671
# 6 0.0000 0.0000 0.0000 0.0000 11.8671 16.6443
#
#
#
# Elastic Compliance Matrix: (Units=1/GPa)
#
#
# Indices 1 2 3 4 5 6 
#
# 1 0.025602 -0.011860 -0.004422 -0.010409 0.000000 0.000000
# 2 -0.011860 0.025602 -0.004422 0.010409 0.000000 0.000000
# 3 -0.004422 -0.004422 0.007919 0.000000 0.000000 0.000000
# 4 -0.010409 0.010409 0.000000 0.029197 0.000000 0.000000
# 5 0.000000 0.000000 0.000000 0.000000 0.029197 -0.020817
# 6 0.000000 0.000000 0.000000 0.000000 -0.020817 0.074923
#
#
# Mechanical properties :
#
#
# Convention : Reuss Voigt Hill
#
# Bulk Modulus (GPa) = 56.45179 75.33650 65.89414
# Shear Modulus (GPa) = 20.85485 32.21203 26.53344
#
# Velocity S-wave (km/s) = 3.01646 3.74889 3.40244
# Velocity P-wave (km/s) = 6.06317 7.18390 6.64720
#
# Compressibility (1/GPa) = 0.01771423
#
# Stress axis : x y z
#
# Youngs Moduli (GPa) = 39.06016 39.06016 126.27348
#
# Poissons Ratio (x) = 0.46325 0.55839
# Poissons Ratio (y) = 0.46325 0.55839
# Poissons Ratio (z) = 0.17273 0.17273
#
# Static dielectric constant tensor:
#      x y z
#    x 1.908320 0.000000 0.000000 
#    y 0.000000 1.908320 0.000000 
#    z 0.000000 0.000000 1.883420 
# 
# From -- ./inp_files/5840.got.cif
#   From: 2010.05.17/outbox.cif.g08.bks.cpg/sg155_3_cif.got.tgz:5840.got - 2010.05.20 10:44:35.
