data_PCOD9577688
_publ_section_title
;
Structure prediction by ZEFSAII (Michael W. Deem and Ramdas Pophale) SiO2 
 PCOD9577688
Probable space group: P -3 1 M 
;
_chemical_formula_sum "Si O2"
_cell_formula_units_Z 70
_cell_length_a 17.536046
_cell_length_b 17.536046
_cell_length_c 18.601689
_cell_angle_alpha 90.000000
_cell_angle_beta 90.000000
_cell_angle_gamma 120.000000
_cell_volume 4953.890045
_symmetry_space_group_name_H-M "P -3 1 M "
_symmetry_group_IT_number 162
_symmetry_cell_setting 'hexagonal'
loop_
_space_group_symop_operation_xyz
x,y,z
-y,x-y,z
-x+y,-x,z
-y,-x,-z
-x+y,y,-z
x,x-y,-z
-x,-y,-z
y,-x+y,-z
x-y,x,-z
y,x,z
x-y,-y,z
-x,-x+y,z
loop_
_atom_site_type_symbol
_atom_site_label
_atom_site_fract_x
_atom_site_fract_y
_atom_site_fract_z
Si Si1 0.780322 0.101768 0.210272
Si Si2 0.105360 0.894388 0.341479
Si Si3 0.895479 0.104522 0.500000
Si Si4 0.333334 0.666667 0.911852
Si Si5 0.101463 0.897873 0.079376
Si Si6 0.102732 0.460212 0.015666
Si Si7 0.784216 0.530871 0.114362
O O1 0.840798 0.122828 0.280381
O O2 0.839518 0.106365 0.142090
O O3 0.753272 0.173270 0.188290
O O4 0.702070 0.000000 0.215984
O O5 0.125426 0.871939 0.421609
O O6 0.000000 0.859429 0.338143
O O7 0.160282 0.000000 0.330480
O O8 0.000000 0.148025 0.497587
O O9 0.257574 0.573610 0.884271
O O10 0.333334 0.666667 0.000000
O O11 0.000000 0.874338 0.074802
O O12 0.164371 0.000000 0.094867
O O13 0.122912 0.877089 0.000000
O O14 0.163109 0.458047 0.080241
O O15 0.000000 0.394785 0.028344
O O16 0.114568 0.557284 0.000000
O O17 0.137958 0.435589 0.944564
#
# Coordination Sequence:
#
# PCOD9577688 Si02
#       7
#    12  12   6   4  12  12  12
#     4  10  21  30  39  59  87 117 141 175 220 261
#     4   9  16  27  42  62  88 120 156 187 219 255
#     4   8  13  22  40  62  84 112 150 192 220 250
#     4  12  18  36  54  69  72 106 146 187 240 279
#     4   9  17  27  37  48  68 105 151 184 204 229
#     4  10  19  30  47  67  82 104 142 187 228 261
#     4  11  19  33  47  61  85 109 143 179 220 276
#
# _framework density 14.13031
#
# number of rings (size 3 to 8) (size 9 to 14) (size 15 to 20)
#    0.000    2.229    3.429    1.457    2.400    3.429 
#    0.000    1.714    0.000    0.000    0.000    0.000 
#    0.000    1.371    0.000    8.571    0.000    0.000 
#
# Total GULP energy -389933.889410 kJ/mol
# GULP energy per Si atom -5570.484134 kJ/mol
# Density = 1.409815 g / cm^3
# Si number density = 14.130310 Si / 1000 Ang^3
#
#
#
# Elastic Constant Matrix: (Units=GPa)
#
#
# Indices 1 2 3 4 5 6 
#
# 1 54.7215 21.9872 28.8855 0.0000 -2.5860 -0.0002
# 2 21.9872 54.7210 28.8854 0.0000 2.5861 -0.0002
# 3 28.8855 28.8854 94.5554 0.0000 0.0000 0.0000
# 4 0.0000 0.0000 0.0000 15.9739 0.0000 2.5861
# 5 -2.5860 2.5861 0.0000 0.0000 15.9739 0.0000
# 6 -0.0002 -0.0002 0.0000 2.5861 0.0000 16.3669
#
#
#
# Elastic Compliance Matrix: (Units=1/GPa)
#
#
# Indices 1 2 3 4 5 6 
#
# 1 0.024141 -0.007210 -0.005172 0.000000 0.005076 0.000000
# 2 -0.007210 0.024142 -0.005172 0.000000 -0.005076 0.000000
# 3 -0.005172 -0.005172 0.013736 0.000000 0.000000 0.000000
# 4 0.000000 0.000000 0.000000 0.064246 0.000000 -0.010151
# 5 0.005076 -0.005076 0.000000 0.000000 0.064246 0.000000
# 6 0.000000 0.000000 0.000000 -0.010151 0.000000 0.062703
#
#
# Mechanical properties :
#
#
# Convention : Reuss Voigt Hill
#
# Bulk Modulus (GPa) = 37.16098 40.39045 38.77571
# Shear Modulus (GPa) = 16.81847 17.94560 17.38203
#
# Velocity S-wave (km/s) = 3.45373 3.56758 3.51112
# Velocity P-wave (km/s) = 6.50078 6.75400 6.62860
#
# Compressibility (1/GPa) = 0.02690995
#
# Stress axis : x y z
#
# Youngs Moduli (GPa) = 41.42259 41.42221 72.80112
#
# Poissons Ratio (x) = 0.29864 0.37656
# Poissons Ratio (y) = 0.29864 0.37656
# Poissons Ratio (z) = 0.21426 0.21426
#
# Static dielectric constant tensor:
#      x y z
#    x 1.489320 0.000000 0.000000 
#    y 0.000000 1.489320 0.000000 
#    z 0.000000 0.000000 1.473200 
# 
# From -- ./inp_files/3611.got.cif
#   From: 2010.05.17/outbox.cif.g08.bks.cpg/sg162_2_cif.got.tgz:3611.got - 2010.05.20 10:53:12.
