data_PCOD9577851
_publ_section_title
;
Structure prediction by ZEFSAII (Michael W. Deem and Ramdas Pophale) SiO2 
 PCOD9577851
Probable space group: P -3 1 M 
;
_chemical_formula_sum "Si O2"
_cell_formula_units_Z 48
_cell_length_a 15.301976
_cell_length_b 15.301976
_cell_length_c 11.408768
_cell_angle_alpha 90.000000
_cell_angle_beta 90.000000
_cell_angle_gamma 120.000000
_cell_volume 2313.472883
_symmetry_space_group_name_H-M "P -3 1 M "
_symmetry_group_IT_number 162
_symmetry_cell_setting 'hexagonal'
loop_
_space_group_symop_operation_xyz
x,y,z
-y,x-y,z
-x+y,-x,z
-y,-x,-z
-x+y,y,-z
x,x-y,-z
-x,-y,-z
y,-x+y,-z
x-y,x,-z
y,x,z
x-y,-y,z
-x,-x+y,z
loop_
_atom_site_type_symbol
_atom_site_label
_atom_site_fract_x
_atom_site_fract_y
_atom_site_fract_z
Si Si1 0.266590 0.440595 0.693875
Si Si2 0.568409 0.118875 0.130662
Si Si3 0.222214 0.882201 0.877694
Si Si4 0.107977 0.456660 0.546965
O O1 0.359122 0.523230 0.773672
O O2 0.192743 0.346717 0.775044
O O3 0.199916 0.482469 0.631563
O O4 0.297241 0.405861 0.575729
O O5 0.674921 0.122443 0.142109
O O6 0.483512 0.000000 0.127499
O O7 0.581951 0.163901 0.000000
O O8 0.255439 0.000000 0.872871
O O9 0.168984 0.831017 0.000000
O O10 0.115845 0.557923 0.500000
O O11 0.000000 0.390467 0.608523
#
# Coordination Sequence:
#
# PCOD9577851 Si02
#       4
#    12  12  12  12
#     4  11  21  36  59  89 114 163 217 261 311 378
#     4  10  20  37  58  85 127 165 200 250 318 386
#     4  11  23  40  61  92 129 169 214 266 324 389
#     4  10  22  41  59  80 120 168 212 267 321 369
#
# _framework density 20.748027
#
# number of rings (size 3 to 8) (size 9 to 14) (size 15 to 20)
#    0.000    1.500    2.500    3.000    0.000    5.000 
#   21.000    1.250    0.000    0.250    0.000    0.000 
#    0.000    0.000    0.000   31.750    0.000    0.000 
#
# Total GULP energy -267452.891459 kJ/mol
# GULP energy per Si atom -5571.935239 kJ/mol
# Density = 2.070080 g / cm^3
# Si number density = 20.748027 Si / 1000 Ang^3
#
#
#
# Elastic Constant Matrix: (Units=GPa)
#
#
# Indices 1 2 3 4 5 6 
#
# 1 94.7871 22.2865 33.9574 0.0005 7.2069 0.0000
# 2 22.2865 94.7871 33.9574 -0.0005 -7.2069 0.0000
# 3 33.9574 33.9574 148.3042 0.0000 0.0000 0.0000
# 4 0.0005 -0.0005 0.0000 28.7735 0.0000 -7.2069
# 5 7.2069 -7.2069 0.0000 0.0000 28.7735 0.0005
# 6 0.0000 0.0000 0.0000 -7.2069 0.0005 36.2503
#
#
#
# Elastic Compliance Matrix: (Units=1/GPa)
#
#
# Indices 1 2 3 4 5 6 
#
# 1 0.012183 -0.002333 -0.002255 0.000000 -0.003636 0.000000
# 2 -0.002333 0.012183 -0.002255 0.000000 0.003636 0.000000
# 3 -0.002255 -0.002255 0.007776 0.000000 0.000000 0.000000
# 4 0.000000 0.000000 0.000000 0.036575 0.000000 0.007272
# 5 -0.003636 0.003636 0.000000 0.000000 0.036575 0.000000
# 6 0.000000 0.000000 0.000000 0.007272 0.000000 0.029032
#
#
# Mechanical properties :
#
#
# Convention : Reuss Voigt Hill
#
# Bulk Modulus (GPa) = 54.18812 57.58680 55.88746
# Shear Modulus (GPa) = 32.43325 35.27128 33.85226
#
# Velocity S-wave (km/s) = 3.95802 4.12756 4.04368
# Velocity P-wave (km/s) = 6.86016 7.10853 6.98545
#
# Compressibility (1/GPa) = 0.01845423
#
# Stress axis : x y z
#
# Youngs Moduli (GPa) = 82.08229 82.08229 128.60539
#
# Poissons Ratio (x) = 0.19149 0.29005
# Poissons Ratio (y) = 0.19149 0.29005
# Poissons Ratio (z) = 0.18513 0.18513
#
# Static dielectric constant tensor:
#      x y z
#    x 1.806120 0.000000 0.000000 
#    y 0.000000 1.806120 0.000000 
#    z 0.000000 0.000000 1.910990 
# 
# From -- ./inp_files/2131.got.cif
#   From: 2010.05.17/outbox.cif.g08.bks.cpg/sg162_2_cif.got.tgz:2131.got - 2010.05.20 10:53:12.
