data_PCOD9577369
_publ_section_title
;
Structure prediction by ZEFSAII (Michael W. Deem and Ramdas Pophale) SiO2 
 PCOD9577369
Probable space group: P 3 1 C
;
_chemical_formula_sum "Si O2"
_cell_formula_units_Z 40
_cell_length_a 19.578769
_cell_length_b 19.578769
_cell_length_c 8.679117
_cell_angle_alpha 90.000000
_cell_angle_beta 90.000000
_cell_angle_gamma 120.000000
_cell_volume 2881.223441
_symmetry_space_group_name_H-M "P 3 1 C"
_symmetry_group_IT_number 159
_symmetry_cell_setting 'hexagonal'
loop_
_space_group_symop_operation_xyz
x,y,z
-y,x-y,z
-x+y,-x,z
y,x,1/2+z
x-y,-y,1/2+z
-x,-x+y,1/2+z
loop_
_atom_site_type_symbol
_atom_site_label
_atom_site_fract_x
_atom_site_fract_y
_atom_site_fract_z
Si Si1 0.625991 0.085660 0.783650
Si Si2 0.333334 0.666668 0.652201
Si Si3 0.526662 0.611360 0.152227
Si Si4 0.242361 0.752249 0.152182
Si Si5 0.333334 0.666668 0.283015
Si Si6 0.625991 0.085660 0.151569
Si Si7 0.242361 0.752249 0.783035
Si Si8 0.473338 0.084698 0.282991
O O1 0.556953 0.101986 0.722718
O O2 0.709065 0.155444 0.723368
O O3 0.602154 0.000000 0.717609
O O4 0.623721 0.083800 0.967609
O O5 0.333334 0.666667 0.467608
O O6 0.284825 0.706505 0.715718
O O7 0.542324 0.698323 0.188810
O O8 0.590674 0.590674 0.217609
O O9 0.521257 0.601371 0.967609
O O10 0.284826 0.706506 0.219499
O O11 0.236821 0.743402 0.967609
O O12 0.709066 0.155443 0.211850
O O13 0.556953 0.101986 0.212501
O O14 0.301677 0.844000 0.746408
#
# Coordination Sequence:
#
# PCOD9577369 Si02
#       8
#     6   2   6   6   2   6   6   6
#     4  11  21  32  47  64  87 114 148 187 225 270
#     4  12  22  29  43  66  85 113 154 192 226 266
#     4  10  20  32  47  63  87 115 145 184 226 268
#     4  11  21  33  47  63  88 118 148 188 230 265
#     4  12  22  29  43  66  85 113 154 192 226 266
#     4  11  21  32  47  64  87 114 148 187 225 270
#     4  11  21  33  47  63  88 118 148 188 230 265
#     4  10  20  32  47  63  87 115 145 184 226 268
#
# _framework density 13.882991000000001
#
# number of rings (size 3 to 8) (size 9 to 14) (size 15 to 20)
#    0.000    1.200    3.000    7.200    0.000    3.600 
#    0.000    0.000    0.000    0.000    0.000    0.000 
#    0.000    0.000    0.000    0.900    0.000   14.400 
#
# Total GULP energy -223386.433808 kJ/mol
# GULP energy per Si atom -5584.660845 kJ/mol
# Density = 1.385139 g / cm^3
# Si number density = 13.882991 Si / 1000 Ang^3
#
#
#
# Elastic Constant Matrix: (Units=GPa)
#
#
# Indices 1 2 3 4 5 6 
#
# 1 94.6073 50.3008 46.8708 0.0000 0.0000 0.0010
# 2 50.3008 94.6083 46.8704 0.0000 0.0000 -0.0001
# 3 46.8708 46.8704 96.9601 0.0000 0.0000 -0.0004
# 4 0.0000 0.0000 0.0000 23.7887 0.0000 0.0000
# 5 0.0000 0.0000 0.0000 0.0000 23.7887 0.0000
# 6 0.0010 -0.0001 -0.0004 0.0000 0.0000 22.1528
#
#
#
# Elastic Compliance Matrix: (Units=1/GPa)
#
#
# Indices 1 2 3 4 5 6 
#
# 1 0.016305 -0.006265 -0.004854 0.000000 0.000000 -0.000001
# 2 -0.006265 0.016305 -0.004854 0.000000 0.000000 0.000000
# 3 -0.004854 -0.004854 0.015006 0.000000 0.000000 0.000000
# 4 0.000000 0.000000 0.000000 0.042037 0.000000 0.000000
# 5 0.000000 0.000000 0.000000 0.000000 0.042037 0.000000
# 6 -0.000001 0.000000 0.000000 0.000000 0.000000 0.045141
#
#
# Mechanical properties :
#
#
# Convention : Reuss Voigt Hill
#
# Bulk Modulus (GPa) = 63.80493 63.80664 63.80578
# Shear Modulus (GPa) = 23.36454 23.42160 23.39307
#
# Velocity S-wave (km/s) = 4.10684 4.11185 4.10935
# Velocity P-wave (km/s) = 8.27931 8.28270 8.28101
#
# Compressibility (1/GPa) = 0.01567277
#
# Stress axis : x y z
#
# Youngs Moduli (GPa) = 61.32916 61.33033 66.63950
#
# Poissons Ratio (x) = 0.38421 0.32346
# Poissons Ratio (y) = 0.38420 0.32344
# Poissons Ratio (z) = 0.29768 0.29767
#
# Static dielectric constant tensor:
#      x y z
#    x 1.448420 0.000000 0.000000 
#    y 0.000000 1.448420 0.000000 
#    z 0.000000 0.000000 1.461760 
# 
# From -- ./inp_files/475.got.cif
#   From: 2010.05.17/outbox.cif.g08.bks.cpg/sg159_cif.got.tgz:475.got - 2010.05.20 10:50:30.
