data_PCOD9577446
_publ_section_title
;
Structure prediction by ZEFSAII (Michael W. Deem and Ramdas Pophale) SiO2 
 PCOD9577446
Probable space group: P 3 1 C
;
_chemical_formula_sum "Si O2"
_cell_formula_units_Z 28
_cell_length_a 13.055005
_cell_length_b 13.055005
_cell_length_c 8.524510
_cell_angle_alpha 90.000000
_cell_angle_beta 90.000000
_cell_angle_gamma 120.000000
_cell_volume 1258.212922
_symmetry_space_group_name_H-M "P 3 1 C"
_symmetry_group_IT_number 159
_symmetry_cell_setting 'hexagonal'
loop_
_space_group_symop_operation_xyz
x,y,z
-y,x-y,z
-x+y,-x,z
y,x,1/2+z
x-y,-y,1/2+z
-x,-x+y,1/2+z
loop_
_atom_site_type_symbol
_atom_site_label
_atom_site_fract_x
_atom_site_fract_y
_atom_site_fract_z
Si Si1 0.333334 0.666668 0.371667
Si Si2 0.041204 0.217413 0.530154
Si Si3 0.333333 0.666666 0.004955
Si Si4 0.864103 0.520669 0.294455
Si Si5 0.176208 0.217413 0.846461
Si Si6 0.135897 0.479331 0.582162
O O1 0.207560 0.565976 0.440265
O O2 0.333334 0.666667 0.188310
O O3 0.100517 0.201033 0.688308
O O4 0.119362 0.210530 0.387842
O O5 0.051778 0.344925 0.535733
O O6 0.908832 0.119364 0.488774
O O7 0.434027 0.792438 0.936354
O O8 0.948222 0.655075 0.340883
O O9 0.759867 0.519734 0.188307
O O10 0.920616 0.460307 0.188311
#
# Coordination Sequence:
#
# PCOD9577446 Si02
#       6
#     2   6   2   6   6   6
#     4   9  16  29  55  87 118 152 199 261 319 371
#     4  11  23  40  61  88 124 168 212 255 302 365
#     4   9  16  29  55  87 118 152 199 261 319 371
#     4   8  17  37  59  81 118 162 202 254 316 370
#     4  11  23  40  61  88 124 168 212 255 302 365
#     4   8  17  37  59  81 118 162 202 254 316 370
#
# _framework density 22.253784
#
# number of rings (size 3 to 8) (size 9 to 14) (size 15 to 20)
#    0.000    2.571    0.000    3.429    0.000    3.429 
#    0.000   21.429    0.000    7.714    0.000    0.000 
#    0.000    0.000    0.000    0.000    0.000    0.000 
#
# Total GULP energy -156501.618554 kJ/mol
# GULP energy per Si atom -5589.343520 kJ/mol
# Density = 2.220313 g / cm^3
# Si number density = 22.253784 Si / 1000 Ang^3
#
#
#
# Elastic Constant Matrix: (Units=GPa)
#
#
# Indices 1 2 3 4 5 6 
#
# 1 94.2952 53.9104 21.3482 0.0000 1.1224 -0.0001
# 2 53.9104 94.2949 21.3480 0.0001 -1.1223 -0.0002
# 3 21.3482 21.3480 108.9804 0.0002 0.0001 -0.0001
# 4 0.0000 0.0001 0.0002 14.4765 -0.0001 -1.1223
# 5 1.1224 -1.1223 0.0001 -0.0001 14.4766 0.0000
# 6 -0.0001 -0.0002 -0.0001 -1.1223 0.0000 20.1923
#
#
#
# Elastic Compliance Matrix: (Units=1/GPa)
#
#
# Indices 1 2 3 4 5 6 
#
# 1 0.016010 -0.008859 -0.001401 0.000000 -0.001928 0.000000
# 2 -0.008859 0.016010 -0.001401 0.000000 0.001928 0.000000
# 3 -0.001401 -0.001401 0.009725 0.000000 0.000000 0.000000
# 4 0.000000 0.000000 0.000000 0.069376 0.000000 0.003856
# 5 -0.001928 0.001928 0.000000 0.000000 0.069376 0.000000
# 6 0.000000 0.000000 0.000000 0.003856 0.000000 0.049738
#
#
# Mechanical properties :
#
#
# Convention : Reuss Voigt Hill
#
# Bulk Modulus (GPa) = 54.27858 54.53152 54.40505
# Shear Modulus (GPa) = 19.25317 23.22669 21.23993
#
# Velocity S-wave (km/s) = 2.94456 3.23417 3.09276
# Velocity P-wave (km/s) = 6.00035 6.20516 6.10362
#
# Compressibility (1/GPa) = 0.01842347
#
# Stress axis : x y z
#
# Youngs Moduli (GPa) = 62.46110 62.46092 102.83033
#
# Poissons Ratio (x) = 0.55334 0.14404
# Poissons Ratio (y) = 0.55335 0.14404
# Poissons Ratio (z) = 0.08750 0.08749
#
# Static dielectric constant tensor:
#      x y z
#    x 1.803250 0.000000 0.000000 
#    y 0.000000 1.803250 0.000000 
#    z 0.000000 0.000000 1.838930 
# 
# From -- ./inp_files/368.got.cif
#   From: 2010.05.17/outbox.cif.g08.bks.cpg/sg159_cif.got.tgz:368.got - 2010.05.20 10:50:30.
