data_PCOD9577535
_publ_section_title
;
Structure prediction by ZEFSAII (Michael W. Deem and Ramdas Pophale) SiO2 
 PCOD9577535
Probable space group: R 3 C
;
_chemical_formula_sum "Si O2"
_cell_formula_units_Z 126
_cell_length_a 18.656867
_cell_length_b 18.656867
_cell_length_c 22.081212
_cell_angle_alpha 90.000000
_cell_angle_beta 90.000000
_cell_angle_gamma 120.000000
_cell_volume 6656.270616
_symmetry_space_group_name_H-M "R 3 C"
_symmetry_group_IT_number 161
_symmetry_cell_setting 'hexagonal'
loop_
_space_group_symop_operation_xyz
x,y,z
-y,x-y,z
-x+y,-x,z
-x+y,y,1/2+z
x,x-y,1/2+z
-y,-x,1/2+z
2/3+x,1/3+y,1/3+z
2/3-y,1/3+x-y,1/3+z
2/3-x+y,1/3-x,1/3+z
2/3-x+y,1/3+y,5/6+z
2/3+x,1/3+x-y,5/6+z
2/3-y,1/3-x,5/6+z
1/3+x,2/3+y,2/3+z
1/3-y,2/3+x-y,2/3+z
1/3-x+y,2/3-x,2/3+z
1/3-x+y,2/3+y,1/6+z
1/3+x,2/3+x-y,1/6+z
1/3-y,2/3-x,1/6+z
loop_
_atom_site_type_symbol
_atom_site_label
_atom_site_fract_x
_atom_site_fract_y
_atom_site_fract_z
Si Si1 0.316155 0.366170 0.717792
Si Si2 0.739286 0.301565 0.785519
Si Si3 0.171357 0.204337 0.837414
Si Si4 0.341830 0.307784 0.910286
Si Si5 0.945323 0.518824 0.082662
Si Si6 0.062627 0.540018 0.685252
Si Si7 0.987394 0.508850 0.949084
O O1 0.303843 0.354730 0.645684
O O2 0.311980 0.283711 0.743296
O O3 0.407796 0.442405 0.726187
O O4 0.242529 0.377048 0.745425
O O5 0.754044 0.393970 0.791379
O O6 0.775492 0.296305 0.721197
O O7 0.780694 0.270384 0.833629
O O8 0.258428 0.272695 0.869686
O O9 0.196622 0.155568 0.789435
O O10 0.134156 0.253855 0.803218
O O11 0.385460 0.258096 0.886284
O O12 0.413827 0.403970 0.914223
O O13 0.007953 0.503925 0.123815
O O14 0.938288 0.490833 0.013201
#
# Coordination Sequence:
#
# PCOD9577535 Si02
#       7
#    18  18  18  18  18  18  18
#     4  10  21  36  57  89 119 153 199 249 299 357
#     4  10  23  37  58  89 120 158 198 240 309 365
#     4  10  19  41  58  87 120 149 207 248 294 358
#     4  10  22  35  60  88 114 160 201 243 304 354
#     4   9  20  36  61  86 112 154 200 244 296 348
#     4  11  21  38  59  86 124 153 196 250 302 358
#     4  10  20  37  59  87 119 149 199 250 298 352
#
# _framework density 18.929518999999999
#
# number of rings (size 3 to 8) (size 9 to 14) (size 15 to 20)
#    0.286    1.714    2.857    0.000    2.000    5.714 
#    2.571    0.000    0.000    0.000    0.000    0.000 
#    0.000    0.000    0.000    0.000    0.000    0.000 
#
# Total GULP energy -234047.949647 kJ/mol
# GULP energy per Si atom -5572.570230 kJ/mol
# Density = 1.888643 g / cm^3
# Si number density = 18.929519 Si / 1000 Ang^3
#
#
#
# Elastic Constant Matrix: (Units=GPa)
#
#
# Indices 1 2 3 4 5 6 
#
# 1 70.9867 28.7655 9.4507 -2.1306 0.0000 0.0000
# 2 28.7655 70.9867 9.4507 2.1306 0.0000 0.0000
# 3 9.4507 9.4507 37.7098 0.0000 0.0000 0.0000
# 4 -2.1306 2.1306 0.0000 33.9669 0.0000 0.0000
# 5 0.0000 0.0000 0.0000 0.0000 33.9669 -2.1306
# 6 0.0000 0.0000 0.0000 0.0000 -2.1306 21.1106
#
#
#
# Elastic Compliance Matrix: (Units=1/GPa)
#
#
# Indices 1 2 3 4 5 6 
#
# 1 0.017180 -0.006656 -0.002638 0.001495 0.000000 0.000000
# 2 -0.006656 0.017180 -0.002638 -0.001495 0.000000 0.000000
# 3 -0.002638 -0.002638 0.027840 0.000000 0.000000 0.000000
# 4 0.001495 -0.001495 0.000000 0.029628 0.000000 0.000000
# 5 0.000000 0.000000 0.000000 0.000000 0.029628 0.002990
# 6 0.000000 0.000000 0.000000 0.000000 0.002990 0.047671
#
#
# Mechanical properties :
#
#
# Convention : Reuss Voigt Hill
#
# Bulk Modulus (GPa) = 26.08302 30.55742 28.32022
# Shear Modulus (GPa) = 24.29904 26.60997 25.45451
#
# Velocity S-wave (km/s) = 3.58671 3.75339 3.67099
# Velocity P-wave (km/s) = 5.56431 5.91284 5.74122
#
# Compressibility (1/GPa) = 0.03833911
#
# Stress axis : x y z
#
# Youngs Moduli (GPa) = 58.20662 58.20662 35.91902
#
# Poissons Ratio (x) = 0.38740 0.09474
# Poissons Ratio (y) = 0.38740 0.09474
# Poissons Ratio (z) = 0.15353 0.15353
#
# Static dielectric constant tensor:
#      x y z
#    x 1.668560 0.000000 0.000000 
#    y 0.000000 1.668560 0.000000 
#    z 0.000000 0.000000 1.682000 
# 
# From -- ./inp_files/1916.got.cif
#   From: 2010.05.17/outbox.cif.g08.bks.cpg/sg161_cif.got.tgz:1916.got - 2010.05.20 10:52:32.
