data_PCOD9577716
_publ_section_title
;
Structure prediction by ZEFSAII (Michael W. Deem and Ramdas Pophale) SiO2 
 PCOD9577716
Probable space group: P -3 1 M 
;
_chemical_formula_sum "Si O2"
_cell_formula_units_Z 48
_cell_length_a 16.874332
_cell_length_b 16.874332
_cell_length_c 9.148915
_cell_angle_alpha 90.000000
_cell_angle_beta 90.000000
_cell_angle_gamma 120.000000
_cell_volume 2256.074327
_symmetry_space_group_name_H-M "P -3 1 M "
_symmetry_group_IT_number 162
_symmetry_cell_setting 'hexagonal'
loop_
_space_group_symop_operation_xyz
x,y,z
-y,x-y,z
-x+y,-x,z
-y,-x,-z
-x+y,y,-z
x,x-y,-z
-x,-y,-z
y,-x+y,-z
x-y,x,-z
y,x,z
x-y,-y,z
-x,-x+y,z
loop_
_atom_site_type_symbol
_atom_site_label
_atom_site_fract_x
_atom_site_fract_y
_atom_site_fract_z
Si Si1 0.104415 0.211444 0.177396
Si Si2 0.552318 0.110627 0.670984
Si Si3 0.278329 0.894783 0.802426
Si Si4 0.499908 0.834295 0.938087
O O1 0.148368 0.148368 0.221068
O O2 0.172287 0.315636 0.228074
O O3 0.000000 0.167326 0.225921
O O4 0.105997 0.211994 0.000000
O O5 0.564793 0.129585 0.500000
O O6 0.481944 0.143134 0.728149
O O7 0.645184 0.155871 0.766801
O O8 0.502555 0.000000 0.692584
O O9 0.327067 0.000000 0.759004
O O10 0.293581 0.888902 0.976617
O O11 0.435816 0.871632 0.000000
O O12 0.464761 0.732381 0.000000
#
# Coordination Sequence:
#
# PCOD9577716 Si02
#       4
#    12  12  12  12
#     4   9  16  26  43  72 110 149 189 236 289 341
#     4   9  18  34  56  81 109 143 189 247 303 350
#     4   9  17  30  50  76 106 144 191 239 289 348
#     4  10  19  32  50  75 106 142 181 224 279 346
#
# _framework density 21.275895999999999
#
# number of rings (size 3 to 8) (size 9 to 14) (size 15 to 20)
#    0.000    2.750    0.000    2.000    0.000    4.000 
#    0.000    6.250    0.000    0.000    0.000    5.250 
#    0.000    9.000    0.000    8.250    0.000  310.250 
#
# Total GULP energy -267262.970694 kJ/mol
# GULP energy per Si atom -5567.978556 kJ/mol
# Density = 2.122747 g / cm^3
# Si number density = 21.275896 Si / 1000 Ang^3
#
#
#
# Elastic Constant Matrix: (Units=GPa)
#
#
# Indices 1 2 3 4 5 6 
#
# 1 113.1650 42.4084 38.3144 0.0000 -5.3744 0.0000
# 2 42.4084 113.1650 38.3144 0.0000 5.3744 0.0000
# 3 38.3144 38.3144 109.5168 0.0000 0.0000 0.0000
# 4 0.0000 0.0000 0.0000 15.4104 0.0000 5.3744
# 5 -5.3744 5.3744 0.0000 0.0000 15.4104 0.0000
# 6 0.0000 0.0000 0.0000 5.3744 0.0000 35.3783
#
#
#
# Elastic Compliance Matrix: (Units=1/GPa)
#
#
# Indices 1 2 3 4 5 6 
#
# 1 0.011345 -0.003579 -0.002717 0.000000 0.005205 0.000000
# 2 -0.003579 0.011345 -0.002717 0.000000 -0.005205 0.000000
# 3 -0.002717 -0.002717 0.011032 0.000000 0.000000 0.000000
# 4 0.000000 0.000000 0.000000 0.068521 0.000000 -0.010409
# 5 0.005205 -0.005205 0.000000 0.000000 0.068521 0.000000
# 6 0.000000 0.000000 0.000000 -0.010409 0.000000 0.029847
#
#
# Mechanical properties :
#
#
# Convention : Reuss Voigt Hill
#
# Bulk Modulus (GPa) = 63.70885 63.76903 63.73894
# Shear Modulus (GPa) = 22.33449 27.69381 25.01415
#
# Velocity S-wave (km/s) = 3.24351 3.61176 3.43257
# Velocity P-wave (km/s) = 6.63598 6.88698 6.76265
#
# Compressibility (1/GPa) = 0.01569641
#
# Stress axis : x y z
#
# Youngs Moduli (GPa) = 88.14580 88.14580 90.64473
#
# Poissons Ratio (x) = 0.31545 0.24628
# Poissons Ratio (y) = 0.31545 0.24628
# Poissons Ratio (z) = 0.23949 0.23949
#
# Static dielectric constant tensor:
#      x y z
#    x 1.810650 0.000000 0.000000 
#    y 0.000000 1.810650 0.000000 
#    z 0.000000 0.000000 1.807950 
# 
# From -- ./inp_files/1208.got.cif
#   From: 2010.05.17/outbox.cif.g08.bks.cpg/sg162_1_cif.got.tgz:1208.got - 2010.05.20 10:53:12.
