data_PCOD9577367
_publ_section_title
;
Structure prediction by ZEFSAII (Michael W. Deem and Ramdas Pophale) SiO2 
 PCOD9577367
Probable space group: P 3 1 C
;
_chemical_formula_sum "Si O2"
_cell_formula_units_Z 24
_cell_length_a 6.871343
_cell_length_b 6.871343
_cell_length_c 22.018723
_cell_angle_alpha 90.000000
_cell_angle_beta 90.000000
_cell_angle_gamma 120.000000
_cell_volume 900.338902
_symmetry_space_group_name_H-M "P 3 1 C"
_symmetry_group_IT_number 159
_symmetry_cell_setting 'hexagonal'
loop_
_space_group_symop_operation_xyz
x,y,z
-y,x-y,z
-x+y,-x,z
y,x,1/2+z
x-y,-y,1/2+z
-x,-x+y,1/2+z
loop_
_atom_site_type_symbol
_atom_site_label
_atom_site_fract_x
_atom_site_fract_y
_atom_site_fract_z
Si Si1 0.879512 0.263215 0.806180
Si Si2 0.384253 0.112596 0.051291
Si Si3 0.120487 0.383702 0.928461
Si Si4 0.615747 0.728344 0.683349
O O1 0.897707 0.509754 0.806693
O O2 1.000000 0.255163 0.867320
O O3 0.991683 0.253166 0.743655
O O4 0.618296 0.105213 0.050211
O O5 0.277766 0.023669 0.117320
O O6 0.253166 0.991683 0.990986
O O7 0.387953 0.490246 0.927948
O O8 0.513082 0.894787 0.684429
#
# Coordination Sequence:
#
# PCOD9577367 Si02
#       4
#     6   6   6   6
#     4  10  20  30  50  74  98 129 168 209 238 286
#     4   8  16  32  54  74  98 129 159 197 247 298
#     4  10  20  30  50  74  98 129 168 209 238 286
#     4   8  16  32  54  74  98 129 159 197 247 298
#
# _framework density 26.656631999999998
#
# number of rings (size 3 to 8) (size 9 to 14) (size 15 to 20)
#    2.000    1.000    0.000    3.000    0.000    2.000 
#    0.000    0.000    0.000   18.000    0.000    0.000 
#    0.000    0.000    0.000    0.000    0.000    0.000 
#
# Total GULP energy -134035.770079 kJ/mol
# GULP energy per Si atom -5584.823753 kJ/mol
# Density = 2.659596 g / cm^3
# Si number density = 26.656632 Si / 1000 Ang^3
#
#
#
# Elastic Constant Matrix: (Units=GPa)
#
#
# Indices 1 2 3 4 5 6 
#
# 1 108.4581 22.3369 63.6749 0.0000 0.0000 0.0000
# 2 22.3369 108.4581 63.6749 0.0000 0.0000 0.0000
# 3 63.6749 63.6749 335.0955 0.0000 0.0000 0.0000
# 4 0.0000 0.0000 0.0000 -17.5262 0.0000 0.0000
# 5 0.0000 0.0000 0.0000 0.0000 -17.5262 0.0000
# 6 0.0000 0.0000 0.0000 0.0000 0.0000 43.0606
#
#
#
# Elastic Compliance Matrix: (Units=1/GPa)
#
#
# Indices 1 2 3 4 5 6 
#
# 1 0.010496 -0.001115 -0.001783 0.000000 0.000000 0.000000
# 2 -0.001115 0.010496 -0.001783 0.000000 0.000000 0.000000
# 3 -0.001783 -0.001783 0.003662 0.000000 0.000000 0.000000
# 4 0.000000 0.000000 0.000000 -0.057057 0.000000 0.000000
# 5 0.000000 0.000000 0.000000 0.000000 -0.057057 0.000000
# 6 0.000000 0.000000 0.000000 0.000000 0.000000 0.023223
#
#
# Mechanical properties :
#
#
# Convention : Reuss Voigt Hill
#
# Bulk Modulus (GPa) = 65.38663 94.59836 79.99250
# Shear Modulus (GPa) = -96.56539 28.42329 -34.07105
#
# Velocity S-wave (km/s) = -6.02530 3.26893 -3.57899
# Velocity P-wave (km/s) = 4.88091 7.05781 3.60481
#
# Compressibility (1/GPa) = 0.01529365
#
# Stress axis : x y z
#
# Youngs Moduli (GPa) = 95.27093 95.27093 273.09777
#
# Poissons Ratio (x) = 0.10624 0.48683
# Poissons Ratio (y) = 0.10624 0.48683
# Poissons Ratio (z) = 0.16983 0.16983
#
# Static dielectric constant tensor:
#      x y z
#    x 2.071390 0.000000 0.000000 
#    y 0.000000 2.071390 0.000000 
#    z 0.000000 0.000000 2.000130 
# 
# From -- ./inp_files/1218.got.cif
#   From: 2010.05.17/outbox.cif.g08.bks.cpg/sg159_cif.got.tgz:1218.got - 2010.05.20 10:50:30.
