data_PCOD9577314
_publ_section_title
;
Structure prediction by ZEFSAII (Michael W. Deem and Ramdas Pophale) SiO2 
 PCOD9577314
Probable space group: P 3 C 1
;
_chemical_formula_sum "Si O2"
_cell_formula_units_Z 42
_cell_length_a 8.858496
_cell_length_b 8.858496
_cell_length_c 32.217087
_cell_angle_alpha 90.000000
_cell_angle_beta 90.000000
_cell_angle_gamma 120.000000
_cell_volume 2189.459360
_symmetry_space_group_name_H-M "P 3 C 1"
_symmetry_group_IT_number 158
_symmetry_cell_setting 'hexagonal'
loop_
_space_group_symop_operation_xyz
x,y,z
-y,x-y,z
-x+y,-x,z
-x+y,y,1/2+z
x,x-y,1/2+z
-y,-x,1/2+z
loop_
_atom_site_type_symbol
_atom_site_label
_atom_site_fract_x
_atom_site_fract_y
_atom_site_fract_z
Si Si1 0.558871 0.748537 0.721180
Si Si2 0.113789 0.886213 0.637053
Si Si3 0.305594 0.327645 0.307353
Si Si4 0.558871 0.748540 0.052926
Si Si5 0.305594 0.977948 0.966753
Si Si6 0.983524 0.645842 0.935026
Si Si7 0.983524 0.645842 0.839079
O O1 0.451621 0.851994 0.723218
O O2 0.659198 0.807617 0.678098
O O3 0.673868 0.764889 0.760946
O O4 0.148422 0.807622 0.596007
O O5 0.905960 0.811918 0.637053
O O6 0.484391 0.505614 0.316925
O O7 0.156286 0.322009 0.336583
O O8 0.339639 0.170282 0.316723
O O9 0.451619 0.851995 0.050888
O O10 0.673867 0.764892 0.013159
O O11 0.339635 0.169355 0.957383
O O12 0.156289 0.834274 0.937522
O O13 0.484393 0.978781 0.957181
O O14 0.936102 0.594141 0.887053
#
# Coordination Sequence:
#
# PCOD9577314 Si02
#       7
#     6   6   6   6   6   6   6
#     4  10  21  44  68  96 132 183 222 274 350 417
#     4  10  24  36  68 106 130 168 220 286 336 416
#     4  12  25  43  67  99 133 185 232 288 354 422
#     4  10  21  44  68  96 132 183 222 274 350 417
#     4  12  25  43  67  99 133 185 232 288 354 422
#     4  12  24  42  64  95 135 178 232 290 348 412
#     4  12  24  42  64  95 135 178 232 290 348 412
#
# _framework density 19.18282
#
# number of rings (size 3 to 8) (size 9 to 14) (size 15 to 20)
#    0.857    0.000    2.857    5.143    4.000    0.000 
#    0.000    0.000    0.000    4.571    0.000    0.000 
#    0.000    0.000    0.000    0.000    0.000    0.000 
#
# Total GULP energy -234319.233813 kJ/mol
# GULP energy per Si atom -5579.029376 kJ/mol
# Density = 1.913916 g / cm^3
# Si number density = 19.182820 Si / 1000 Ang^3
#
#
#
# Elastic Constant Matrix: (Units=GPa)
#
#
# Indices 1 2 3 4 5 6 
#
# 1 74.1697 4.8474 34.8938 -0.0001 0.0000 0.0000
# 2 4.8474 74.1697 34.8938 0.0001 0.0000 0.0000
# 3 34.8938 34.8938 188.2474 0.0000 0.0000 0.0000
# 4 -0.0001 0.0001 0.0000 27.7983 0.0000 0.0000
# 5 0.0000 0.0000 0.0000 0.0000 27.7983 -0.0001
# 6 0.0000 0.0000 0.0000 0.0000 -0.0001 34.6612
#
#
#
# Elastic Compliance Matrix: (Units=1/GPa)
#
#
# Indices 1 2 3 4 5 6 
#
# 1 0.014779 0.000354 -0.002805 0.000000 0.000000 0.000000
# 2 0.000354 0.014779 -0.002805 0.000000 0.000000 0.000000
# 3 -0.002805 -0.002805 0.006352 0.000000 0.000000 0.000000
# 4 0.000000 0.000000 0.000000 0.035973 0.000000 0.000000
# 5 0.000000 0.000000 0.000000 0.000000 0.035973 0.000000
# 6 0.000000 0.000000 0.000000 0.000000 0.000000 0.028851
#
#
# Mechanical properties :
#
#
# Convention : Reuss Voigt Hill
#
# Bulk Modulus (GPa) = 39.37378 53.98412 46.67895
# Shear Modulus (GPa) = 32.11582 35.51500 33.81541
#
# Velocity S-wave (km/s) = 4.09613 4.30745 4.20312
# Velocity P-wave (km/s) = 6.55295 7.27612 6.92398
#
# Compressibility (1/GPa) = 0.02539761
#
# Stress axis : x y z
#
# Youngs Moduli (GPa) = 67.66298 67.66298 157.42932
#
# Poissons Ratio (x) = -0.02394 0.44160
# Poissons Ratio (y) = -0.02394 0.44160
# Poissons Ratio (z) = 0.18980 0.18980
#
# Static dielectric constant tensor:
#      x y z
#    x 1.667170 0.000000 0.000000 
#    y 0.000000 1.667170 0.000000 
#    z 0.000000 0.000000 1.692300 
# 
# From -- ./inp_files/782.got.cif
#   From: 2010.05.17/outbox.cif.g08.bks.cpg/sg158_cif.got.tgz:782.got - 2010.05.20 10:49:59.
