data_PCOD9577822
_publ_section_title
;
Structure prediction by ZEFSAII (Michael W. Deem and Ramdas Pophale) SiO2 
 PCOD9577822
Probable space group: P -3 1 M 
;
_chemical_formula_sum "Si O2"
_cell_formula_units_Z 96
_cell_length_a 13.931834
_cell_length_b 13.931834
_cell_length_c 26.196164
_cell_angle_alpha 90.000000
_cell_angle_beta 90.000000
_cell_angle_gamma 120.000000
_cell_volume 4403.367317
_symmetry_space_group_name_H-M "P -3 1 M "
_symmetry_group_IT_number 162
_symmetry_cell_setting 'hexagonal'
loop_
_space_group_symop_operation_xyz
x,y,z
-y,x-y,z
-x+y,-x,z
-y,-x,-z
-x+y,y,-z
x,x-y,-z
-x,-y,-z
y,-x+y,-z
x-y,x,-z
y,x,z
x-y,-y,z
-x,-x+y,z
loop_
_atom_site_type_symbol
_atom_site_label
_atom_site_fract_x
_atom_site_fract_y
_atom_site_fract_z
Si Si1 0.760333 0.206626 0.679630
Si Si2 0.697621 0.130582 0.214962
Si Si3 0.870452 0.437322 0.875506
Si Si4 0.796619 0.129298 0.868809
Si Si5 0.417531 0.289892 0.042313
Si Si6 0.572537 0.120848 0.375696
Si Si7 0.875244 0.570050 0.533060
Si Si8 0.876259 0.749943 0.610643
O O1 0.795468 0.259603 0.734796
O O2 0.790233 0.304690 0.638908
O O3 0.632256 0.125563 0.668190
O O4 0.832938 0.151946 0.663113
O O5 0.633868 0.170752 0.176200
O O6 0.803756 0.146864 0.182654
O O7 0.619007 0.000000 0.227700
O O8 0.864304 0.547861 0.874526
O O9 0.831800 0.364219 0.926661
O O10 0.000000 0.475273 0.875267
O O11 0.869804 0.202573 0.915961
O O12 0.759211 0.000000 0.868966
O O13 0.366857 0.366857 0.023475
O O14 0.430482 0.215241 0.000000
O O15 0.525433 0.133100 0.429590
O O16 0.558987 0.000000 0.374344
O O17 0.765699 0.531397 0.500000
O O18 0.875667 0.665468 0.568631
O O19 0.000000 0.628214 0.508887
O O20 0.790874 0.790874 0.599145
O O21 0.000000 0.851873 0.612651
#
# Coordination Sequence:
#
# PCOD9577822 Si02
#       8
#    12  12  12  12  12  12  12  12
#     4  11  22  38  59  84 117 157 195 242 303 349
#     4  10  21  37  57  81 116 152 188 237 293 348
#     4   8  18  36  54  81 114 145 187 237 284 337
#     4  10  20  36  59  84 115 154 195 238 288 345
#     4  10  20  37  60  85 117 154 193 239 291 344
#     4  10  22  39  58  85 117 149 195 244 290 355
#     4   9  18  34  57  84 115 149 187 236 292 350
#     4  10  20  35  56  83 115 151 192 237 288 350
#
# _framework density 21.801496
#
# number of rings (size 3 to 8) (size 9 to 14) (size 15 to 20)
#    0.000    2.250    0.000    4.500    1.750    1.500 
#    6.000    4.375    0.000   13.500    0.000    0.000 
#    0.000    0.500    0.000    0.000    0.000    0.000 
#
# Total GULP energy -536170.768084 kJ/mol
# GULP energy per Si atom -5585.112168 kJ/mol
# Density = 2.175188 g / cm^3
# Si number density = 21.801496 Si / 1000 Ang^3
#
#
#
# Elastic Constant Matrix: (Units=GPa)
#
#
# Indices 1 2 3 4 5 6 
#
# 1 73.2390 11.8517 17.7506 0.0000 -0.3313 0.0000
# 2 11.8517 73.2390 17.7506 0.0000 0.3313 0.0000
# 3 17.7506 17.7506 73.2069 0.0000 0.0000 0.0000
# 4 0.0000 0.0000 0.0000 12.8758 0.0000 0.3313
# 5 -0.3313 0.3313 0.0000 0.0000 12.8758 0.0000
# 6 0.0000 0.0000 0.0000 0.3313 0.0000 30.6937
#
#
#
# Elastic Compliance Matrix: (Units=1/GPa)
#
#
# Indices 1 2 3 4 5 6 
#
# 1 0.014685 -0.001610 -0.003170 0.000000 0.000419 0.000000
# 2 -0.001610 0.014685 -0.003170 0.000000 -0.000419 0.000000
# 3 -0.003170 -0.003170 0.015197 0.000000 0.000000 0.000000
# 4 0.000000 0.000000 0.000000 0.077687 0.000000 -0.000839
# 5 0.000419 -0.000419 0.000000 0.000000 0.077687 0.000000
# 6 0.000000 0.000000 0.000000 -0.000839 0.000000 0.032589
#
#
# Mechanical properties :
#
#
# Convention : Reuss Voigt Hill
#
# Bulk Modulus (GPa) = 34.88462 34.93227 34.90844
# Shear Modulus (GPa) = 19.38096 22.77786 21.07941
#
# Velocity S-wave (km/s) = 2.98480 3.23582 3.11284
# Velocity P-wave (km/s) = 5.28342 5.47890 5.38205
#
# Compressibility (1/GPa) = 0.02866593
#
# Stress axis : x y z
#
# Youngs Moduli (GPa) = 68.09807 68.09807 65.80109
#
# Poissons Ratio (x) = 0.10963 0.20861
# Poissons Ratio (y) = 0.10963 0.20861
# Poissons Ratio (z) = 0.21589 0.21589
#
# Static dielectric constant tensor:
#      x y z
#    x 1.792900 0.000000 0.000000 
#    y 0.000000 1.792900 0.000000 
#    z 0.000000 0.000000 1.825560 
# 
# From -- ./inp_files/4079.got.cif
#   From: 2010.05.17/outbox.cif.g08.bks.cpg/sg162_3_cif.got.tgz:4079.got - 2010.05.20 10:53:12.
