data_PCOD9577244
_publ_section_title
;
Structure prediction by ZEFSAII (Michael W. Deem and Ramdas Pophale) SiO2 
 PCOD9577244
Probable space group: P 3 M 1
;
_chemical_formula_sum "Si O2"
_cell_formula_units_Z 48
_cell_length_a 20.802214
_cell_length_b 20.802214
_cell_length_c 8.579115
_cell_angle_alpha 90.000000
_cell_angle_beta 90.000000
_cell_angle_gamma 120.000000
_cell_volume 3215.083383
_symmetry_space_group_name_H-M "P 3 M 1"
_symmetry_group_IT_number 156
_symmetry_cell_setting 'hexagonal'
loop_
_space_group_symop_operation_xyz
x,y,z
-y,x-y,z
-x+y,-x,z
-x+y,y,z
x,x-y,z
-y,-x,z
loop_
_atom_site_type_symbol
_atom_site_label
_atom_site_fract_x
_atom_site_fract_y
_atom_site_fract_z
Si Si1 0.613701 0.077875 0.642800
Si Si2 0.386301 0.922128 0.142800
Si Si3 0.480550 0.814375 0.863040
Si Si4 0.747735 0.642805 0.226895
Si Si5 0.519450 0.333825 0.363036
Si Si6 0.642805 0.747735 0.726895
Si Si7 0.670921 0.030474 0.927538
Si Si8 0.329080 0.359553 0.427540
O O1 0.532518 0.065036 0.680120
O O2 0.655575 0.151222 0.536510
O O3 0.656923 0.076932 0.796107
O O4 0.609051 0.012617 0.532683
O O5 0.467484 0.934967 0.180120
O O6 0.343079 0.923070 0.296107
O O7 0.344426 0.848780 0.036513
O O8 0.390950 0.987384 0.032681
O O9 0.413310 0.826619 0.812875
O O10 0.457232 0.728616 0.862111
O O11 0.554292 0.857917 0.759081
O O12 0.831385 0.662769 0.261449
O O13 0.696376 0.554292 0.259079
O O14 0.713003 0.679729 0.339030
O O15 0.735611 0.657302 0.048714
O O16 0.542770 0.271385 0.362106
O O17 0.586690 0.413311 0.312870
O O18 0.662768 0.831384 0.761448
O O19 0.679729 0.713003 0.839029
O O20 0.657301 0.735611 0.548714
#
# Coordination Sequence:
#
# PCOD9577244 Si02
#       8
#     6   6   6   6   6   6   6   6
#     4   9  16  25  39  58  80 107 143 185 220 254
#     4   9  16  25  39  58  80 107 143 185 220 254
#     4   9  17  28  41  57  80 113 151 189 226 260
#     4   9  18  31  45  63  86 111 140 172 210 253
#     4   9  17  28  41  57  80 113 151 189 226 260
#     4   9  18  31  45  63  86 111 140 172 210 253
#     4   9  17  28  43  62  83 109 138 170 214 255
#     4   9  17  28  43  62  83 109 138 170 214 255
#
# _framework density 14.929627999999999
#
# number of rings (size 3 to 8) (size 9 to 14) (size 15 to 20)
#    0.000    3.000    0.000    1.000    0.000    8.000 
#    0.000    3.750    0.000    0.000    0.000    8.750 
#    0.000    0.000    0.000    7.500    0.000    0.000 
#
# Total GULP energy -267248.139955 kJ/mol
# GULP energy per Si atom -5567.669582 kJ/mol
# Density = 1.489565 g / cm^3
# Si number density = 14.929628 Si / 1000 Ang^3
#
#
#
# Elastic Constant Matrix: (Units=GPa)
#
#
# Indices 1 2 3 4 5 6 
#
# 1 43.7131 21.0717 20.7738 0.0000 -0.0003 0.0000
# 2 21.0717 43.7131 20.7738 0.0000 0.0003 0.0000
# 3 20.7738 20.7738 75.0908 0.0000 0.0000 0.0000
# 4 0.0000 0.0000 0.0000 11.1220 0.0000 0.0003
# 5 -0.0003 0.0003 0.0000 0.0000 11.1220 0.0000
# 6 0.0000 0.0000 0.0000 0.0003 0.0000 11.3207
#
#
#
# Elastic Compliance Matrix: (Units=1/GPa)
#
#
# Indices 1 2 3 4 5 6 
#
# 1 0.031466 -0.012701 -0.005191 0.000000 0.000001 0.000000
# 2 -0.012701 0.031466 -0.005191 0.000000 -0.000001 0.000000
# 3 -0.005191 -0.005191 0.016190 0.000000 0.000000 0.000000
# 4 0.000000 0.000000 0.000000 0.089912 0.000000 -0.000002
# 5 0.000001 -0.000001 0.000000 0.000000 0.089912 0.000000
# 6 0.000000 0.000000 0.000000 -0.000002 0.000000 0.088334
#
#
# Mechanical properties :
#
#
# Convention : Reuss Voigt Hill
#
# Bulk Modulus (GPa) = 30.34508 31.97286 31.15897
# Shear Modulus (GPa) = 12.36304 13.37278 12.86791
#
# Velocity S-wave (km/s) = 2.88077 2.99611 2.93901
# Velocity P-wave (km/s) = 5.60666 5.78196 5.69499
#
# Compressibility (1/GPa) = 0.03295427
#
# Stress axis : x y z
#
# Youngs Moduli (GPa) = 31.78040 31.78040 61.76818
#
# Poissons Ratio (x) = 0.40364 0.32066
# Poissons Ratio (y) = 0.40364 0.32066
# Poissons Ratio (z) = 0.16498 0.16498
#
# Static dielectric constant tensor:
#      x y z
#    x 1.492580 0.000000 0.000000 
#    y 0.000000 1.492580 0.000000 
#    z 0.000000 0.000000 1.502500 
# 
# From -- ./inp_files/585.got.cif
#   From: 2010.05.17/outbox.cif.g08.bks.cpg/sg156_cif.got.tgz:585.got - 2010.05.20 10:49:08.
