data_PCOD9577970
_publ_section_title
;
Structure prediction by ZEFSAII (Michael W. Deem and Ramdas Pophale) SiO2 
 PCOD9577970
Probable space group: P -3 1 C
;
_chemical_formula_sum "Si O2"
_cell_formula_units_Z 40
_cell_length_a 18.678676
_cell_length_b 18.678676
_cell_length_c 8.087283
_cell_angle_alpha 90.000000
_cell_angle_beta 90.000000
_cell_angle_gamma 120.000000
_cell_volume 2443.573745
_symmetry_space_group_name_H-M "P -3 1 C"
_symmetry_group_IT_number 163
_symmetry_cell_setting 'hexagonal'
loop_
_space_group_symop_operation_xyz
x,y,z
-y,x-y,z
-x+y,-x,z
-y,-x,1/2-z
-x+y,y,1/2-z
x,x-y,1/2-z
-x,-y,-z
y,-x+y,-z
x-y,x,-z
y,x,1/2+z
x-y,-y,1/2+z
-x,-x+y,1/2+z
loop_
_atom_site_type_symbol
_atom_site_label
_atom_site_fract_x
_atom_site_fract_y
_atom_site_fract_z
Si Si1 0.628093 0.538925 0.739030
Si Si2 0.098499 0.470315 0.608375
Si Si3 0.666667 0.333335 0.951000
Si Si4 0.491029 0.668780 0.929934
O O1 0.558765 0.441236 0.750000
O O2 0.579050 0.584618 0.679145
O O3 0.688913 0.547645 0.591306
O O4 0.661742 0.562304 0.924732
O O5 0.156084 0.466597 0.751374
O O6 0.127548 0.567405 0.583061
O O7 0.666668 0.333334 0.750000
O O8 0.576978 0.306096 0.025522
#
# Coordination Sequence:
#
# PCOD9577970 Si02
#       4
#    12  12   4  12
#     4  10  14  26  42  61  69  74 109 151 182 191
#     4  10  16  25  44  60  66  78 108 154 180 186
#     4  12  24  37  38  49  85 113 118 121 161 250
#     4  10  20  29  41  53  71  96 115 133 164 209
#
# _framework density 16.369467
#
# number of rings (size 3 to 8) (size 9 to 14) (size 15 to 20)
#    0.000    1.800    6.000    4.500    0.000    4.800 
#    0.000    3.000    0.000    0.000    0.000    0.000 
#    0.000    0.000    0.000    0.000    0.000    0.000 
#
# Total GULP energy -222889.215756 kJ/mol
# GULP energy per Si atom -5572.230394 kJ/mol
# Density = 1.633221 g / cm^3
# Si number density = 16.369467 Si / 1000 Ang^3
#
#
#
# Elastic Constant Matrix: (Units=GPa)
#
#
# Indices 1 2 3 4 5 6 
#
# 1 26.0686 11.1861 18.9767 0.0001 1.9527 0.0002
# 2 11.1861 26.0690 18.9767 0.0003 -1.9526 0.0002
# 3 18.9767 18.9767 209.1086 -0.0001 -0.0001 0.0000
# 4 0.0001 0.0003 -0.0001 6.4866 0.0001 -1.9526
# 5 1.9527 -1.9526 -0.0001 0.0001 6.4863 0.0001
# 6 0.0002 0.0002 0.0000 -1.9526 0.0001 7.4414
#
#
#
# Elastic Compliance Matrix: (Units=1/GPa)
#
#
# Indices 1 2 3 4 5 6 
#
# 1 0.051266 -0.021689 -0.002684 0.000001 -0.021963 0.000000
# 2 -0.021689 0.051265 -0.002684 -0.000003 0.021962 -0.000002
# 3 -0.002684 -0.002684 0.005269 0.000000 0.000000 0.000000
# 4 0.000001 -0.000003 0.000000 0.167383 -0.000005 0.043920
# 5 -0.021963 0.021962 0.000000 -0.000005 0.167394 -0.000004
# 6 0.000000 -0.000002 0.000000 0.043920 -0.000004 0.145908
#
#
# Mechanical properties :
#
#
# Convention : Reuss Voigt Hill
#
# Bulk Modulus (GPa) = 18.62682 39.94724 29.28703
# Shear Modulus (GPa) = 7.57005 18.22331 12.89668
#
# Velocity S-wave (km/s) = 2.15280 3.34016 2.80991
# Velocity P-wave (km/s) = 4.19322 6.27153 5.33456
#
# Compressibility (1/GPa) = 0.05368603
#
# Stress axis : x y z
#
# Youngs Moduli (GPa) = 19.50597 19.50633 189.77615
#
# Poissons Ratio (x) = 0.42308 0.50938
# Poissons Ratio (y) = 0.42307 0.50937
# Poissons Ratio (z) = 0.05236 0.05236
#
# Static dielectric constant tensor:
#      x y z
#    x 1.575590 0.000000 0.000000 
#    y 0.000000 1.575590 0.000000 
#    z 0.000000 0.000000 1.735820 
# 
# From -- ./inp_files/791.got.cif
#   From: 2010.05.17/outbox.cif.g08.bks.cpg/sg163_1_cif.got.tgz:791.got - 2010.05.20 10:56:03.
