data_PCOD9577014
_publ_section_title
;
Structure prediction by ZEFSAII (Michael W. Deem and Ramdas Pophale) SiO2 
 PCOD9577014
Probable space group: R 3 2
;
_chemical_formula_sum "Si O2"
_cell_formula_units_Z 108
_cell_length_a 22.595412
_cell_length_b 22.595412
_cell_length_c 12.283497
_cell_angle_alpha 90.000000
_cell_angle_beta 90.000000
_cell_angle_gamma 120.000000
_cell_volume 5431.167351
_symmetry_space_group_name_H-M "R 3 2"
_symmetry_group_IT_number 155
_symmetry_cell_setting 'hexagonal'
loop_
_space_group_symop_operation_xyz
x,y,z
-y,x-y,z
-x+y,-x,z
x-y,-y,-z
-x,-x+y,-z
y,x,-z
2/3+x,1/3+y,1/3+z
2/3-y,1/3+x-y,1/3+z
2/3-x+y,1/3-x,1/3+z
2/3+x-y,1/3-y,1/3-z
2/3-x,1/3-x+y,1/3-z
2/3+y,1/3+x,1/3-z
1/3+x,2/3+y,2/3+z
1/3-y,2/3+x-y,2/3+z
1/3-x+y,2/3-x,2/3+z
1/3+x-y,2/3-y,2/3-z
1/3-x,2/3-x+y,2/3-z
1/3+y,2/3+x,2/3-z
loop_
_atom_site_type_symbol
_atom_site_label
_atom_site_fract_x
_atom_site_fract_y
_atom_site_fract_z
Si Si1 0.493173 0.413789 0.536035
Si Si2 0.825776 0.413497 0.351293
Si Si3 0.823398 0.076247 0.827587
Si Si4 0.694734 0.742682 0.712348
Si Si5 0.278760 0.138884 0.432108
Si Si6 0.250719 0.079682 0.654826
O O1 0.461951 0.461951 0.500000
O O2 0.557911 0.424755 0.464482
O O3 0.436251 0.335589 0.516261
O O4 0.513410 0.424484 0.663041
O O5 0.796242 0.333334 0.333334
O O6 0.765769 0.432436 0.333334
O O7 0.881291 0.462100 0.263182
O O8 0.790267 0.123867 0.845050
O O9 0.875412 0.104559 0.726527
O O10 0.657730 0.666667 0.666667
O O11 0.666667 0.739198 0.833334
O O12 0.679368 0.787066 0.628247
O O13 0.776411 0.771667 0.701511
O O14 0.236492 0.086477 0.528398
O O15 0.333334 0.118546 0.666667
#
# Coordination Sequence:
#
# PCOD9577014 Si02
#       6
#    18  18  18  18  18  18
#     4  11  23  42  59  90 122 160 208 261 314 381
#     4  10  22  40  64  91 119 155 203 267 326 382
#     4  10  22  39  60  84 122 158 204 261 308 378
#     4  11  21  35  59  89 128 164 200 252 313 381
#     4  11  22  39  56  85 122 162 209 248 312 370
#     4   9  20  38  54  85 119 156 202 248 303 370
#
# _framework density 19.885227
#
# number of rings (size 3 to 8) (size 9 to 14) (size 15 to 20)
#    0.000    1.667    1.667    4.167    2.333    1.333 
#    9.000    0.000    0.000    0.000    0.000    0.000 
#    0.000    0.000    0.000    0.000    0.000    0.000 
#
# Total GULP energy -200870.784764 kJ/mol
# GULP energy per Si atom -5579.744021 kJ/mol
# Density = 1.983997 g / cm^3
# Si number density = 19.885227 Si / 1000 Ang^3
#
#
#
# Elastic Constant Matrix: (Units=GPa)
#
#
# Indices 1 2 3 4 5 6 
#
# 1 72.3281 38.8017 25.7825 2.7216 -0.0002 0.0000
# 2 38.8017 72.3281 25.7825 -2.7216 0.0002 0.0000
# 3 25.7825 25.7825 156.7262 0.0000 0.0000 0.0000
# 4 2.7216 -2.7216 0.0000 20.2901 0.0000 0.0001
# 5 -0.0002 0.0002 0.0000 0.0000 20.2901 2.7216
# 6 0.0000 0.0000 0.0000 0.0001 2.7216 16.7632
#
#
#
# Elastic Compliance Matrix: (Units=1/GPa)
#
#
# Indices 1 2 3 4 5 6 
#
# 1 0.020117 -0.010375 -0.001603 -0.004090 0.000000 0.000000
# 2 -0.010375 0.020117 -0.001603 0.004090 0.000000 0.000000
# 3 -0.001603 -0.001603 0.006908 0.000000 0.000000 0.000000
# 4 -0.004090 0.004090 0.000000 0.050382 0.000000 0.000000
# 5 0.000000 0.000000 0.000000 0.000000 0.050382 -0.008180
# 6 0.000000 0.000000 0.000000 0.000000 -0.008180 0.060983
#
#
# Mechanical properties :
#
#
# Convention : Reuss Voigt Hill
#
# Bulk Modulus (GPa) = 50.04622 53.56840 51.80731
# Shear Modulus (GPa) = 20.60084 25.53640 23.06862
#
# Velocity S-wave (km/s) = 3.22217 3.58745 3.40970
# Velocity P-wave (km/s) = 6.25023 6.64507 6.45067
#
# Compressibility (1/GPa) = 0.01998153
#
# Stress axis : x y z
#
# Youngs Moduli (GPa) = 49.70994 49.70994 144.76298
#
# Poissons Ratio (x) = 0.51572 0.23200
# Poissons Ratio (y) = 0.51572 0.23200
# Poissons Ratio (z) = 0.07967 0.07967
#
# Static dielectric constant tensor:
#      x y z
#    x 1.728530 0.000000 0.000000 
#    y 0.000000 1.728530 0.000000 
#    z 0.000000 0.000000 1.756060 
# 
# From -- ./inp_files/4073.got.cif
#   From: 2010.05.17/outbox.cif.g08.bks.cpg/sg155_3_cif.got.tgz:4073.got - 2010.05.20 10:44:35.
