data_PCOD9577280
_publ_section_title
;
Structure prediction by ZEFSAII (Michael W. Deem and Ramdas Pophale) SiO2 
 PCOD9577280
Probable space group: P 3 C 1
;
_chemical_formula_sum "Si O2"
_cell_formula_units_Z 40
_cell_length_a 11.995739
_cell_length_b 11.995739
_cell_length_c 14.426890
_cell_angle_alpha 90.000000
_cell_angle_beta 90.000000
_cell_angle_gamma 120.000000
_cell_volume 1797.866201
_symmetry_space_group_name_H-M "P 3 C 1"
_symmetry_group_IT_number 158
_symmetry_cell_setting 'hexagonal'
loop_
_space_group_symop_operation_xyz
x,y,z
-y,x-y,z
-x+y,-x,z
-x+y,y,1/2+z
x,x-y,1/2+z
-y,-x,1/2+z
loop_
_atom_site_type_symbol
_atom_site_label
_atom_site_fract_x
_atom_site_fract_y
_atom_site_fract_z
Si Si1 0.270643 0.242728 0.299650
Si Si2 0.666668 0.333334 0.325963
Si Si3 0.027915 0.757469 0.799668
Si Si4 0.972087 0.242728 0.573092
Si Si5 0.666668 0.333335 0.546766
Si Si6 0.512586 0.471454 0.792478
Si Si7 0.027913 0.270446 0.073073
Si Si8 0.512586 0.471456 0.580258
O O1 0.147890 0.254662 0.326898
O O2 0.275245 0.242182 0.186371
O O3 0.401305 0.367265 0.333540
O O4 0.256067 0.107402 0.328989
O O5 0.666668 0.333334 0.436364
O O6 0.807004 0.366354 0.292758
O O7 0.026779 0.754703 0.686371
O O8 0.032432 0.631215 0.831410
O O9 0.965966 0.367266 0.539199
O O10 0.106772 0.254658 0.545843
O O11 0.851334 0.107404 0.543753
O O12 0.559356 0.366360 0.579972
O O13 0.501900 0.504936 0.686368
O O14 0.032432 0.401217 0.041329
#
# Coordination Sequence:
#
# PCOD9577280 Si02
#       8
#     6   2   6   6   2   6   6   6
#     4   9  16  26  44  71 101 129 160 200 246 298
#     4  12  22  32  52  78 100 125 172 222 253 290
#     4   9  16  26  44  71 101 129 160 200 246 298
#     4   9  16  26  44  71 101 129 160 200 246 298
#     4  12  22  32  52  78 100 125 172 222 253 290
#     4  10  18  32  52  74 102 133 164 204 259 306
#     4   9  16  26  44  71 101 129 160 200 246 298
#     4  10  18  32  52  74 102 133 164 204 259 306
#
# _framework density 22.248597
#
# number of rings (size 3 to 8) (size 9 to 14) (size 15 to 20)
#    0.000    2.400    3.000    1.500    0.000    2.400 
#    1.800    0.000    0.000    1.800    0.000    0.000 
#    0.000    0.000    0.000    0.000    0.000    0.000 
#
# Total GULP energy -223469.000534 kJ/mol
# GULP energy per Si atom -5586.725013 kJ/mol
# Density = 2.219796 g / cm^3
# Si number density = 22.248597 Si / 1000 Ang^3
#
#
#
# Elastic Constant Matrix: (Units=GPa)
#
#
# Indices 1 2 3 4 5 6 
#
# 1 130.9682 54.5237 -30.8406 0.0001 0.0000 0.0000
# 2 54.5237 130.9701 -30.8406 0.0010 0.0000 0.0000
# 3 -30.8406 -30.8406 78.5040 0.0000 0.0000 0.0000
# 4 0.0001 0.0010 0.0000 -19.2136 0.0000 0.0000
# 5 0.0000 0.0000 0.0000 0.0000 -19.2140 -0.0006
# 6 0.0000 0.0000 0.0000 0.0000 -0.0006 38.2226
#
#
#
# Elastic Compliance Matrix: (Units=1/GPa)
#
#
# Indices 1 2 3 4 5 6 
#
# 1 0.009641 -0.003440 0.002436 0.000000 0.000000 0.000000
# 2 -0.003440 0.009641 0.002436 0.000000 0.000000 0.000000
# 3 0.002436 0.002436 0.014652 0.000000 0.000000 0.000000
# 4 0.000000 0.000000 0.000000 -0.052046 0.000000 0.000000
# 5 0.000000 0.000000 0.000000 0.000000 -0.052045 -0.000001
# 6 0.000000 0.000000 0.000000 0.000000 -0.000001 0.026163
#
#
# Mechanical properties :
#
#
# Convention : Reuss Voigt Hill
#
# Bulk Modulus (GPa) = 27.17459 36.23635 31.70547
# Shear Modulus (GPa) = -144.53990 23.13230 -60.70380
#
# Velocity S-wave (km/s) = -8.06888 3.22797 -5.22911
# Velocity P-wave (km/s) = 8.63531 5.49685 4.70920
#
# Compressibility (1/GPa) = 0.03679909
#
# Stress axis : x y z
#
# Youngs Moduli (GPa) = 103.72104 103.72263 68.24868
#
# Poissons Ratio (x) = 0.35681 -0.16626
# Poissons Ratio (y) = 0.35681 -0.16626
# Poissons Ratio (z) = -0.25268 -0.25268
#
# Static dielectric constant tensor:
#      x y z
#    x 1.771410 0.000000 0.000000 
#    y 0.000000 1.771410 0.000000 
#    z 0.000000 0.000000 1.842490 
# 
# From -- ./inp_files/664.got.cif
#   From: 2010.05.17/outbox.cif.g08.bks.cpg/sg158_cif.got.tgz:664.got - 2010.05.20 10:49:59.
