data_PCOD9577039
_publ_section_title
;
Structure prediction by ZEFSAII (Michael W. Deem and Ramdas Pophale) SiO2 
 PCOD9577039
Probable space group: R 3 2
;
_chemical_formula_sum "Si O2"
_cell_formula_units_Z 51
_cell_length_a 14.526795
_cell_length_b 14.526795
_cell_length_c 10.271482
_cell_angle_alpha 90.000000
_cell_angle_beta 90.000000
_cell_angle_gamma 120.000000
_cell_volume 1877.168928
_symmetry_space_group_name_H-M "R 3 2"
_symmetry_group_IT_number 155
_symmetry_cell_setting 'hexagonal'
loop_
_space_group_symop_operation_xyz
x,y,z
-y,x-y,z
-x+y,-x,z
x-y,-y,-z
-x,-x+y,-z
y,x,-z
2/3+x,1/3+y,1/3+z
2/3-y,1/3+x-y,1/3+z
2/3-x+y,1/3-x,1/3+z
2/3+x-y,1/3-y,1/3-z
2/3-x,1/3-x+y,1/3-z
2/3+y,1/3+x,1/3-z
1/3+x,2/3+y,2/3+z
1/3-y,2/3+x-y,2/3+z
1/3-x+y,2/3-x,2/3+z
1/3+x-y,2/3-y,2/3-z
1/3-x,2/3-x+y,2/3-z
1/3+y,2/3+x,2/3-z
loop_
_atom_site_type_symbol
_atom_site_label
_atom_site_fract_x
_atom_site_fract_y
_atom_site_fract_z
Si Si1 0.838201 0.046116 0.267783
Si Si2 0.161545 0.333334 0.333334
Si Si3 0.082437 0.528078 0.734391
Si Si4 0.666668 0.333334 0.680592
O O1 0.824374 0.144126 0.306170
O O2 0.957841 0.074852 0.293023
O O3 0.763198 0.947573 0.363143
O O4 0.803150 0.979983 0.132202
O O5 0.096963 0.304707 0.199934
O O6 0.159432 0.492765 0.666667
O O7 0.666668 0.333334 0.833334
#
# Coordination Sequence:
#
# PCOD9577039 Si02
#       4
#    18   9  18   6
#     4  10  24  49  79 117 166 229 293 365 440 545
#     4   8  20  44  78 110 164 216 308 342 440 530
#     4  10  22  49  84 123 166 230 305 363 448 536
#     4  12  24  48  73 113 172 222 285 370 455 523
#
# _framework density 27.168572000000001
#
# number of rings (size 3 to 8) (size 9 to 14) (size 15 to 20)
#    2.118    0.000    0.000    3.176    0.000    0.000 
#   15.882    3.529    7.765    0.000    0.000    0.000 
#    0.000    0.000    0.000    0.000    0.000    0.000 
#
# Total GULP energy -95031.339560 kJ/mol
# GULP energy per Si atom -5590.078798 kJ/mol
# Density = 2.710674 g / cm^3
# Si number density = 27.168572 Si / 1000 Ang^3
#
#
#
# Elastic Constant Matrix: (Units=GPa)
#
#
# Indices 1 2 3 4 5 6 
#
# 1 182.9488 79.6921 74.0696 7.2181 -0.0003 -0.0001
# 2 79.6921 182.9461 74.0690 -7.2189 0.0002 0.0000
# 3 74.0696 74.0690 253.5106 0.0007 0.0001 0.0000
# 4 7.2181 -7.2189 0.0007 35.3932 -0.0001 0.0001
# 5 -0.0003 0.0002 0.0001 -0.0001 35.3949 7.2188
# 6 -0.0001 0.0000 0.0000 0.0001 7.2188 51.6285
#
#
#
# Elastic Compliance Matrix: (Units=1/GPa)
#
#
# Indices 1 2 3 4 5 6 
#
# 1 0.007264 -0.002705 -0.001332 -0.002033 0.000000 0.000000
# 2 -0.002705 0.007264 -0.001332 0.002033 0.000000 0.000000
# 3 -0.001332 -0.001332 0.004723 0.000000 0.000000 0.000000
# 4 -0.002033 0.002033 0.000000 0.029083 0.000000 0.000000
# 5 0.000000 0.000000 0.000000 0.000000 0.029082 -0.004066
# 6 0.000000 0.000000 0.000000 0.000000 -0.004066 0.019938
#
#
# Mechanical properties :
#
#
# Convention : Reuss Voigt Hill
#
# Bulk Modulus (GPa) = 117.47215 119.45187 118.46201
# Shear Modulus (GPa) = 45.07369 50.58830 47.83099
#
# Velocity S-wave (km/s) = 4.07755 4.31979 4.20041
# Velocity P-wave (km/s) = 8.09325 8.30320 8.19890
#
# Compressibility (1/GPa) = 0.00851266
#
# Stress axis : x y z
#
# Youngs Moduli (GPa) = 137.66844 137.66607 211.73276
#
# Poissons Ratio (x) = 0.37240 0.28202
# Poissons Ratio (y) = 0.37241 0.28202
# Poissons Ratio (z) = 0.18337 0.18337
#
# Static dielectric constant tensor:
#      x y z
#    x 2.245370 0.000000 0.000000 
#    y 0.000000 2.245400 0.000000 
#    z 0.000000 0.000000 2.236460 
# 
# From -- ./inp_files/1683.got.cif
#   From: 2010.05.17/outbox.cif.g08.bks.cpg/sg155_1_cif.got.tgz:1683.got - 2010.05.20 10:44:35.
