data_PCOD9577521
_publ_section_title
;
Structure prediction by ZEFSAII (Michael W. Deem and Ramdas Pophale) SiO2 
 PCOD9577521
Probable space group: R 3 C
;
_chemical_formula_sum "Si O2"
_cell_formula_units_Z 144
_cell_length_a 19.904008
_cell_length_b 19.904008
_cell_length_c 18.751911
_cell_angle_alpha 90.000000
_cell_angle_beta 90.000000
_cell_angle_gamma 120.000000
_cell_volume 6433.647170
_symmetry_space_group_name_H-M "R 3 C"
_symmetry_group_IT_number 161
_symmetry_cell_setting 'hexagonal'
loop_
_space_group_symop_operation_xyz
x,y,z
-y,x-y,z
-x+y,-x,z
-x+y,y,1/2+z
x,x-y,1/2+z
-y,-x,1/2+z
2/3+x,1/3+y,1/3+z
2/3-y,1/3+x-y,1/3+z
2/3-x+y,1/3-x,1/3+z
2/3-x+y,1/3+y,5/6+z
2/3+x,1/3+x-y,5/6+z
2/3-y,1/3-x,5/6+z
1/3+x,2/3+y,2/3+z
1/3-y,2/3+x-y,2/3+z
1/3-x+y,2/3-x,2/3+z
1/3-x+y,2/3+y,1/6+z
1/3+x,2/3+x-y,1/6+z
1/3-y,2/3-x,1/6+z
loop_
_atom_site_type_symbol
_atom_site_label
_atom_site_fract_x
_atom_site_fract_y
_atom_site_fract_z
Si Si1 0.106478 0.498292 0.681051
Si Si2 0.691374 0.031892 0.488309
Si Si3 0.568986 0.391901 0.943214
Si Si4 0.333345 0.580638 0.429457
Si Si5 0.238367 0.339117 0.305268
Si Si6 0.684454 0.763271 0.161018
Si Si7 0.415170 0.154733 0.645043
Si Si8 0.793236 0.984403 0.038123
O O1 0.070152 0.418109 0.638643
O O2 0.191295 0.520461 0.709717
O O3 0.055502 0.471717 0.754403
O O4 0.108948 0.576792 0.658428
O O5 0.600486 0.970410 0.503279
O O6 0.728690 0.079061 0.560744
O O7 0.699949 0.092779 0.428678
O O8 0.516357 0.429987 0.965666
O O9 0.650413 0.461138 0.916386
O O10 0.569468 0.344542 0.012301
O O11 0.406284 0.666858 0.443932
O O12 0.346717 0.519942 0.473955
O O13 0.321384 0.366265 0.341171
O O14 0.158313 0.277560 0.341424
O O15 0.721124 0.817492 0.228934
O O16 0.592053 0.721619 0.160372
#
# Coordination Sequence:
#
# PCOD9577521 Si02
#       8
#    18  18  18  18  18  18  18  18
#     4  10  21  36  51  80 112 135 183 227 261 339
#     4   9  21  32  55  82 103 144 182 217 284 318
#     4  10  18  32  55  80 105 136 177 220 284 322
#     4  10  22  32  50  85 112 145 179 221 287 334
#     4  10  19  33  53  82 106 138 178 229 273 331
#     4   9  19  34  52  81 101 140 182 213 279 323
#     4  11  18  36  55  79 116 139 179 230 277 333
#     4  11  20  35  57  75 111 147 170 227 275 322
#
# _framework density 22.382327
#
# number of rings (size 3 to 8) (size 9 to 14) (size 15 to 20)
#    0.250    2.000    5.000    1.500    3.500    0.000 
#    3.000    3.750    0.000    0.000    0.000    0.000 
#    0.000    0.000    0.000    0.000    0.000    0.000 
#
# Total GULP energy -267697.040961 kJ/mol
# GULP energy per Si atom -5577.021687 kJ/mol
# Density = 2.233138 g / cm^3
# Si number density = 22.382327 Si / 1000 Ang^3
#
#
#
# Elastic Constant Matrix: (Units=GPa)
#
#
# Indices 1 2 3 4 5 6 
#
# 1 102.8233 43.1768 10.7415 -4.9618 0.0000 0.0000
# 2 43.1768 102.8233 10.7415 4.9618 0.0000 0.0000
# 3 10.7415 10.7415 22.1736 0.0000 0.0000 0.0000
# 4 -4.9618 4.9618 0.0000 25.5428 0.0000 0.0000
# 5 0.0000 0.0000 0.0000 0.0000 25.5428 -4.9618
# 6 0.0000 0.0000 0.0000 0.0000 -4.9618 29.8233
#
#
#
# Elastic Compliance Matrix: (Units=1/GPa)
#
#
# Indices 1 2 3 4 5 6 
#
# 1 0.012350 -0.004975 -0.003573 0.003366 0.000000 0.000000
# 2 -0.004975 0.012350 -0.003573 -0.003366 0.000000 0.000000
# 3 -0.003573 -0.003573 0.048560 0.000000 0.000000 0.000000
# 4 0.003366 -0.003366 0.000000 0.040458 0.000000 0.000000
# 5 0.000000 0.000000 0.000000 0.000000 0.040458 0.006731
# 6 0.000000 0.000000 0.000000 0.000000 0.006731 0.034651
#
#
# Mechanical properties :
#
#
# Convention : Reuss Voigt Hill
#
# Bulk Modulus (GPa) = 20.40009 39.68221 30.04115
# Shear Modulus (GPa) = 21.79534 27.05913 24.42724
#
# Velocity S-wave (km/s) = 3.12392 3.48077 3.30716
# Velocity P-wave (km/s) = 4.70595 5.82427 5.29472
#
# Compressibility (1/GPa) = 0.04901938
#
# Stress axis : x y z
#
# Youngs Moduli (GPa) = 80.97046 80.97046 20.59311
#
# Poissons Ratio (x) = 0.40284 0.07357
# Poissons Ratio (y) = 0.40284 0.07357
# Poissons Ratio (z) = 0.28928 0.28928
#
# Static dielectric constant tensor:
#      x y z
#    x 1.859560 0.000000 0.000000 
#    y 0.000000 1.859560 0.000000 
#    z 0.000000 0.000000 1.881500 
# 
# From -- ./inp_files/2179.got.cif
#   From: 2010.05.17/outbox.cif.g08.bks.cpg/sg161_cif.got.tgz:2179.got - 2010.05.20 10:52:32.
