data_PCOD9577988
_publ_section_title
;
Structure prediction by ZEFSAII (Michael W. Deem and Ramdas Pophale) SiO2 
 PCOD9577988
Probable space group: P -3 1 C
;
_chemical_formula_sum "Si O2"
_cell_formula_units_Z 72
_cell_length_a 23.075247
_cell_length_b 23.075247
_cell_length_c 10.212910
_cell_angle_alpha 90.000000
_cell_angle_beta 90.000000
_cell_angle_gamma 120.000000
_cell_volume 4709.478877
_symmetry_space_group_name_H-M "P -3 1 C"
_symmetry_group_IT_number 163
_symmetry_cell_setting 'hexagonal'
loop_
_space_group_symop_operation_xyz
x,y,z
-y,x-y,z
-x+y,-x,z
-y,-x,1/2-z
-x+y,y,1/2-z
x,x-y,1/2-z
-x,-y,-z
y,-x+y,-z
x-y,x,-z
y,x,1/2+z
x-y,-y,1/2+z
-x,-x+y,1/2+z
loop_
_atom_site_type_symbol
_atom_site_label
_atom_site_fract_x
_atom_site_fract_y
_atom_site_fract_z
Si Si1 0.936809 0.402905 0.403096
Si Si2 0.218843 0.919885 0.250010
Si Si3 0.533898 0.597094 0.596890
Si Si4 0.878402 0.255702 0.014090
Si Si5 0.798631 0.070214 0.249988
Si Si6 0.121592 0.744296 0.514068
O O1 0.909387 0.454690 0.415907
O O2 0.955798 0.404525 0.249991
O O3 0.888665 0.326893 0.445054
O O4 0.000005 0.430410 0.499988
O O5 0.143368 0.856633 0.250000
O O6 0.255693 0.912970 0.377687
O O7 0.255703 0.912966 0.122352
O O8 0.221983 0.990990 0.249998
O O9 0.561761 0.673107 0.554937
O O10 0.801068 0.198928 0.004717
O O11 0.911153 0.231172 0.124654
O O12 0.878537 0.121464 0.250000
O O13 0.768837 0.088836 0.124602
#
# Coordination Sequence:
#
# PCOD9577988 Si02
#       6
#    12  12  12  12  12  12
#     4  10  20  32  48  71  98 127 156 192 238 286
#     4  10  20  32  47  70  99 127 161 201 243 291
#     4  10  20  32  48  71  98 127 156 192 238 286
#     4  10  20  32  48  70  96 127 160 198 240 283
#     4  10  18  30  49  70  93 125 159 197 243 289
#     4  10  20  32  48  70  96 127 160 198 240 283
#
# _framework density 15.288315000000001
#
# number of rings (size 3 to 8) (size 9 to 14) (size 15 to 20)
#    0.000    2.000    1.667    3.000    2.333    0.000 
#    0.000    0.000    0.000    1.000    0.000    0.000 
#    0.000    8.000    0.000    0.000    0.000    1.333 
#
# Total GULP energy -401406.897448 kJ/mol
# GULP energy per Si atom -5575.095798 kJ/mol
# Density = 1.525352 g / cm^3
# Si number density = 15.288315 Si / 1000 Ang^3
#
#
#
# Elastic Constant Matrix: (Units=GPa)
#
#
# Indices 1 2 3 4 5 6 
#
# 1 93.0294 42.9985 35.1644 0.0000 -0.1252 0.0000
# 2 42.9985 93.0294 35.1644 0.0000 0.1252 0.0000
# 3 35.1644 35.1644 128.0706 0.0000 0.0000 0.0000
# 4 0.0000 0.0000 0.0000 -191.8358 0.0000 0.1252
# 5 -0.1252 0.1252 0.0000 0.0000 -191.8358 0.0000
# 6 0.0000 0.0000 0.0000 0.1252 0.0000 25.0154
#
#
#
# Elastic Compliance Matrix: (Units=1/GPa)
#
#
# Indices 1 2 3 4 5 6 
#
# 1 0.014278 -0.005710 -0.002352 0.000000 -0.000013 0.000000
# 2 -0.005710 0.014278 -0.002352 0.000000 0.000013 0.000000
# 3 -0.002352 -0.002352 0.009100 0.000000 0.000000 0.000000
# 4 0.000000 0.000000 0.000000 -0.005213 0.000000 0.000026
# 5 -0.000013 0.000013 0.000000 0.000000 -0.005213 0.000000
# 6 0.000000 0.000000 0.000000 0.000026 0.000000 0.039975
#
#
# Mechanical properties :
#
#
# Convention : Reuss Voigt Hill
#
# Bulk Modulus (GPa) = 59.43308 60.08710 59.76009
# Shear Modulus (GPa) = 53.39416 -58.34445 -2.47515
#
# Velocity S-wave (km/s) = 5.91613 -6.18430 -1.27377
# Velocity P-wave (km/s) = 9.25347 3.40679 6.08361
#
# Compressibility (1/GPa) = 0.01682565
#
# Stress axis : x y z
#
# Youngs Moduli (GPa) = 70.03954 70.03954 109.88996
#
# Poissons Ratio (x) = 0.39992 0.25851
# Poissons Ratio (y) = 0.39992 0.25851
# Poissons Ratio (z) = 0.16476 0.16476
#
# Static dielectric constant tensor:
#      x y z
#    x 1.501020 0.000000 0.000000 
#    y 0.000000 1.501020 0.000000 
#    z 0.000000 0.000000 1.524870 
# 
# From -- ./inp_files/1219.got.cif
#   From: 2010.05.17/outbox.cif.g08.bks.cpg/sg163_1_cif.got.tgz:1219.got - 2010.05.20 10:56:03.
