data_PCOD9577217
_publ_section_title
;
Structure prediction by ZEFSAII (Michael W. Deem and Ramdas Pophale) SiO2 
 PCOD9577217
Probable space group: P 3 M 1
;
_chemical_formula_sum "Si O2"
_cell_formula_units_Z 48
_cell_length_a 12.972185
_cell_length_b 12.972185
_cell_length_c 20.682639
_cell_angle_alpha 90.000000
_cell_angle_beta 90.000000
_cell_angle_gamma 120.000000
_cell_volume 3014.136046
_symmetry_space_group_name_H-M "P 3 M 1"
_symmetry_group_IT_number 156
_symmetry_cell_setting 'hexagonal'
loop_
_space_group_symop_operation_xyz
x,y,z
-y,x-y,z
-x+y,-x,z
-x+y,y,z
x,x-y,z
-y,-x,z
loop_
_atom_site_type_symbol
_atom_site_label
_atom_site_fract_x
_atom_site_fract_y
_atom_site_fract_z
Si Si1 0.666582 0.577931 0.506570
Si Si2 0.088786 0.422021 0.126225
Si Si3 0.000188 0.242277 0.390673
Si Si4 0.333431 0.422118 0.626225
Si Si5 0.909831 0.333004 0.741195
Si Si6 0.756837 0.756507 0.241194
Si Si7 0.666479 0.575424 0.890673
Si Si8 0.244597 0.244682 0.006571
O O1 0.786323 0.572645 0.518245
O O2 0.553587 0.446414 0.500991
O O3 0.685802 0.653336 0.441426
O O4 0.640744 0.642161 0.565715
O O5 0.225391 0.450781 0.126657
O O6 0.081976 0.540988 0.121802
O O7 0.025927 0.334750 0.065716
O O8 0.028167 0.347677 0.191159
O O9 0.126845 0.253689 0.404980
O O10 0.000361 0.278240 0.316025
O O11 0.895495 0.104505 0.395317
O O12 0.207656 0.415311 0.621803
O O13 0.441279 0.558722 0.626654
O O14 0.347158 0.361500 0.691158
O O15 0.880634 0.440317 0.734441
O O16 0.792219 0.207782 0.727390
O O17 0.944911 0.333694 0.816026
O O18 0.874448 0.748895 0.227388
O O19 0.786035 0.893018 0.234438
O O20 0.771173 0.542346 0.895316
O O21 0.539823 0.460178 0.904979
O O22 0.699132 0.679997 0.941427
O O23 0.113079 0.226157 0.000990
O O24 0.239314 0.119657 0.018246
#
# Coordination Sequence:
#
# PCOD9577217 Si02
#       8
#     6   6   6   6   6   6   6   6
#     4  10  20  33  50  71  95 124 158 197 239 283
#     4  10  20  33  49  68  92 122 155 193 236 283
#     4   9  17  30  49  73  99 127 159 194 233 276
#     4  10  20  33  49  68  92 122 155 193 236 283
#     4   9  17  30  50  74  98 125 158 196 234 274
#     4   9  17  30  50  74  98 125 158 196 234 274
#     4   9  17  30  49  73  99 127 159 194 233 276
#     4  10  20  33  50  71  95 124 158 197 239 283
#
# _framework density 15.924961
#
# number of rings (size 3 to 8) (size 9 to 14) (size 15 to 20)
#    0.000    2.500    0.000    2.500    0.000    3.000 
#    0.000    2.500    0.000    6.000    0.000    0.000 
#    0.000    0.000    0.000    0.000    0.000    0.000 
#
# Total GULP energy -267684.905070 kJ/mol
# GULP energy per Si atom -5576.768856 kJ/mol
# Density = 1.588872 g / cm^3
# Si number density = 15.924961 Si / 1000 Ang^3
#
#
#
# Elastic Constant Matrix: (Units=GPa)
#
#
# Indices 1 2 3 4 5 6 
#
# 1 120.8244 82.7965 84.1668 0.0001 0.0002 0.0000
# 2 82.7965 120.8244 84.1668 -0.0001 -0.0002 0.0000
# 3 84.1668 84.1668 112.3958 0.0000 0.0000 0.0000
# 4 0.0001 -0.0001 0.0000 22.9568 0.0000 -0.0002
# 5 0.0002 -0.0002 0.0000 0.0000 22.9568 0.0001
# 6 0.0000 0.0000 0.0000 -0.0002 0.0001 19.0139
#
#
#
# Elastic Compliance Matrix: (Units=1/GPa)
#
#
# Indices 1 2 3 4 5 6 
#
# 1 0.019594 -0.006702 -0.009654 0.000000 0.000000 0.000000
# 2 -0.006702 0.019594 -0.009654 0.000000 0.000000 0.000000
# 3 -0.009654 -0.009654 0.023356 0.000000 0.000000 0.000000
# 4 0.000000 0.000000 0.000000 0.043560 0.000000 0.000000
# 5 0.000000 0.000000 0.000000 0.000000 0.043560 0.000000
# 6 0.000000 0.000000 0.000000 0.000000 0.000000 0.052593
#
#
# Mechanical properties :
#
#
# Convention : Reuss Voigt Hill
#
# Bulk Modulus (GPa) = 95.02428 95.14495 95.08462
# Shear Modulus (GPa) = 19.39582 19.84648 19.62115
#
# Velocity S-wave (km/s) = 3.49370 3.53406 3.51394
# Velocity P-wave (km/s) = 8.72205 8.74804 8.73506
#
# Compressibility (1/GPa) = 0.01052363
#
# Stress axis : x y z
#
# Youngs Moduli (GPa) = 51.03496 51.03496 42.81508
#
# Poissons Ratio (x) = 0.34204 0.41335
# Poissons Ratio (y) = 0.34204 0.41335
# Poissons Ratio (z) = 0.49271 0.49271
#
# Static dielectric constant tensor:
#      x y z
#    x 1.503060 0.000000 0.000000 
#    y 0.000000 1.503060 0.000000 
#    z 0.000000 0.000000 1.534080 
# 
# From -- ./inp_files/1092.got.cif
#   From: 2010.05.17/outbox.cif.g08.bks.cpg/sg156_cif.got.tgz:1092.got - 2010.05.20 10:49:08.
