data_PCOD9577484
_publ_section_title
;
Structure prediction by ZEFSAII (Michael W. Deem and Ramdas Pophale) SiO2 
 PCOD9577484
Probable space group: R 3 M
;
_chemical_formula_sum "Si O2"
_cell_formula_units_Z 144
_cell_length_a 22.296453
_cell_length_b 22.296453
_cell_length_c 19.418263
_cell_angle_alpha 90.000000
_cell_angle_beta 90.000000
_cell_angle_gamma 120.000000
_cell_volume 8360.121118
_symmetry_space_group_name_H-M "R 3 M"
_symmetry_group_IT_number 160
_symmetry_cell_setting 'hexagonal'
loop_
_space_group_symop_operation_xyz
x,y,z
-y,x-y,z
-x+y,-x,z
-x+y,y,z
x,x-y,z
-y,-x,z
2/3+x,1/3+y,1/3+z
2/3-y,1/3+x-y,1/3+z
2/3-x+y,1/3-x,1/3+z
2/3-x+y,1/3+y,1/3+z
2/3+x,1/3+x-y,1/3+z
2/3-y,1/3-x,1/3+z
1/3+x,2/3+y,2/3+z
1/3-y,2/3+x-y,2/3+z
1/3-x+y,2/3-x,2/3+z
1/3-x+y,2/3+y,2/3+z
1/3+x,2/3+x-y,2/3+z
1/3-y,2/3-x,2/3+z
loop_
_atom_site_type_symbol
_atom_site_label
_atom_site_fract_x
_atom_site_fract_y
_atom_site_fract_z
Si Si1 0.746831 0.804007 0.239183
Si Si2 0.391710 0.268541 0.417156
Si Si3 0.803771 0.334045 0.343842
Si Si4 0.919826 0.390504 0.949828
Si Si5 0.274944 0.210158 0.771852
Si Si6 0.761472 0.808846 0.491248
Si Si7 0.285965 0.428148 0.031088
Si Si8 0.000712 0.137104 0.845188
O O1 0.772455 0.886228 0.240172
O O2 0.743564 0.778634 0.161000
O O3 0.666665 0.765792 0.261185
O O4 0.787461 0.784194 0.294274
O O5 0.389005 0.194503 0.421489
O O6 0.455638 0.317618 0.369185
O O7 0.317383 0.248134 0.386077
O O8 0.813551 0.406776 0.367999
O O9 0.729398 0.270603 0.367205
O O10 0.802584 0.333333 0.261182
O O11 0.894202 0.447101 0.948828
O O12 0.879213 0.330067 0.894725
O O13 0.923072 0.368388 0.028012
O O14 0.277650 0.138825 0.767515
O O15 0.349276 0.264081 0.802921
O O16 0.211027 0.195310 0.819840
O O17 0.765212 0.882606 0.497057
O O18 0.807546 0.807551 0.427834
O O19 0.215946 0.431891 0.025287
O O20 0.073443 0.146886 0.821031
O O21 0.937271 0.062730 0.821826
#
# Coordination Sequence:
#
# PCOD9577484 Si02
#       8
#    18  18  18  18  18  18  18  18
#     4  10  19  35  57  78 104 140 182 225 267 322
#     4   9  19  34  52  77 107 139 174 219 268 314
#     4   9  17  31  52  76 105 141 180 220 266 322
#     4  10  19  35  57  78 104 140 182 225 267 322
#     4   9  19  34  52  77 107 139 174 219 268 314
#     4  11  21  35  57  83 109 141 184 226 270 326
#     4  11  21  35  57  83 109 141 184 226 270 326
#     4   9  17  31  52  76 105 141 180 220 266 322
#
# _framework density 17.224630999999999
#
# number of rings (size 3 to 8) (size 9 to 14) (size 15 to 20)
#    0.000    2.250    2.500    1.000    0.000    3.000 
#    0.000    0.000    0.000    5.250    0.000    0.000 
#    0.000    0.000    0.000    0.000    0.000    0.000 
#
# Total GULP energy -267468.837446 kJ/mol
# GULP energy per Si atom -5572.267447 kJ/mol
# Density = 1.718543 g / cm^3
# Si number density = 17.224631 Si / 1000 Ang^3
#
#
#
# Elastic Constant Matrix: (Units=GPa)
#
#
# Indices 1 2 3 4 5 6 
#
# 1 82.4863 49.0966 37.1479 -9.6971 0.0000 0.0000
# 2 49.0966 82.4863 37.1479 9.6971 0.0000 0.0000
# 3 37.1479 37.1479 68.9974 0.0000 0.0000 0.0000
# 4 -9.6971 9.6971 0.0000 29.7689 0.0000 0.0000
# 5 0.0000 0.0000 0.0000 0.0000 29.7689 -9.6971
# 6 0.0000 0.0000 0.0000 0.0000 -9.6971 16.6948
#
#
#
# Elastic Compliance Matrix: (Units=1/GPa)
#
#
# Indices 1 2 3 4 5 6 
#
# 1 0.023929 -0.013010 -0.005879 0.012032 0.000000 0.000000
# 2 -0.013010 0.023929 -0.005879 -0.012032 0.000000 0.000000
# 3 -0.005879 -0.005879 0.020824 0.000000 0.000000 0.000000
# 4 0.012032 -0.012032 0.000000 0.041431 0.000000 0.000000
# 5 0.000000 0.000000 0.000000 0.000000 0.041431 0.024065
# 6 0.000000 0.000000 0.000000 0.000000 0.024065 0.073877
#
#
# Mechanical properties :
#
#
# Convention : Reuss Voigt Hill
#
# Bulk Modulus (GPa) = 52.22869 53.41721 52.82295
# Shear Modulus (GPa) = 17.77230 22.61838 20.19534
#
# Velocity S-wave (km/s) = 3.21564 3.62766 3.42785
# Velocity P-wave (km/s) = 6.64643 6.97323 6.81179
#
# Compressibility (1/GPa) = 0.01914657
#
# Stress axis : x y z
#
# Youngs Moduli (GPa) = 41.79076 41.79076 48.02259
#
# Poissons Ratio (x) = 0.54368 0.28232
# Poissons Ratio (y) = 0.54368 0.28232
# Poissons Ratio (z) = 0.24568 0.24568
#
# Static dielectric constant tensor:
#      x y z
#    x 1.584540 0.000000 0.000000 
#    y 0.000000 1.584540 0.000000 
#    z 0.000000 0.000000 1.600310 
# 
# From -- ./inp_files/3461.got.cif
#   From: 2010.05.17/outbox.cif.g08.bks.cpg/sg160_2_cif.got.tgz:3461.got - 2010.05.20 10:51:19.
