data_PCOD9577931
_publ_section_title
;
Structure prediction by ZEFSAII (Michael W. Deem and Ramdas Pophale) SiO2 
 PCOD9577931
Probable space group: P -3 1 M 
;
_chemical_formula_sum "Si O2"
_cell_formula_units_Z 84
_cell_length_a 18.451773
_cell_length_b 18.451773
_cell_length_c 14.478716
_cell_angle_alpha 90.000000
_cell_angle_beta 90.000000
_cell_angle_gamma 120.000000
_cell_volume 4269.105501
_symmetry_space_group_name_H-M "P -3 1 M "
_symmetry_group_IT_number 162
_symmetry_cell_setting 'hexagonal'
loop_
_space_group_symop_operation_xyz
x,y,z
-y,x-y,z
-x+y,-x,z
-y,-x,-z
-x+y,y,-z
x,x-y,-z
-x,-y,-z
y,-x+y,-z
x-y,x,-z
y,x,z
x-y,-y,z
-x,-x+y,z
loop_
_atom_site_type_symbol
_atom_site_label
_atom_site_fract_x
_atom_site_fract_y
_atom_site_fract_z
Si Si1 0.683495 0.783934 0.575243
Si Si2 0.401410 0.503585 0.220970
Si Si3 0.097872 0.401517 0.941156
Si Si4 0.772342 0.862868 0.900491
Si Si5 0.442666 0.341137 0.856309
Si Si6 0.695952 0.790671 0.264054
Si Si7 0.898428 0.514194 0.431805
O O1 0.713729 0.856865 0.500000
O O2 0.739743 0.739743 0.581801
O O3 0.687672 0.832312 0.669454
O O4 0.589545 0.709973 0.547816
O O5 0.448127 0.448127 0.225989
O O6 0.325121 0.457999 0.149529
O O7 0.465923 0.591403 0.175662
O O8 0.381687 0.512544 0.326416
O O9 0.096867 0.315747 0.925607
O O10 0.000000 0.376152 0.945471
O O11 0.134153 0.439124 0.041572
O O12 0.832741 0.832741 0.858794
O O13 0.750531 0.911086 0.825367
O O14 0.806332 0.903166 0.000000
O O15 0.389386 0.389386 0.861705
O O16 0.394485 0.273100 0.777802
O O17 0.738220 0.738220 0.305450
O O18 0.869167 0.434584 0.500000
O O19 0.000000 0.560629 0.432820
#
# Coordination Sequence:
#
# PCOD9577931 Si02
#       7
#    12  12  12  12  12  12  12
#     4  11  24  42  65  92 120 157 207 267 331 390
#     4   9  16  27  48  76 112 146 171 217 284 354
#     4   9  16  28  46  75 110 145 184 229 290 360
#     4  11  20  33  53  76 111 155 204 265 328 381
#     4   9  17  28  47  79 114 148 185 232 288 354
#     4  11  22  37  57  84 118 159 211 267 327 382
#     4   9  19  35  57  87 116 143 181 233 298 372
#
# _framework density 19.676254
#
# number of rings (size 3 to 8) (size 9 to 14) (size 15 to 20)
#    0.000    2.143    1.429    2.571    2.000    4.000 
#    0.000    0.000    0.000    8.857    0.000    0.000 
#    1.429    0.286    0.000    0.000    0.000    0.000 
#
# Total GULP energy -468323.355819 kJ/mol
# GULP energy per Si atom -5575.278045 kJ/mol
# Density = 1.963147 g / cm^3
# Si number density = 19.676254 Si / 1000 Ang^3
#
#
#
# Elastic Constant Matrix: (Units=GPa)
#
#
# Indices 1 2 3 4 5 6 
#
# 1 64.4823 24.1122 31.1844 0.0000 -3.2558 0.0000
# 2 24.1122 64.4823 31.1844 0.0000 3.2558 0.0000
# 3 31.1844 31.1844 95.7179 0.0000 0.0000 0.0000
# 4 0.0000 0.0000 0.0000 26.6807 0.0000 3.2558
# 5 -3.2558 3.2558 0.0000 0.0000 26.6807 0.0000
# 6 0.0000 0.0000 0.0000 3.2558 0.0000 20.1851
#
#
#
# Elastic Compliance Matrix: (Units=1/GPa)
#
#
# Indices 1 2 3 4 5 6 
#
# 1 0.019957 -0.005311 -0.004772 0.000000 0.003083 0.000000
# 2 -0.005311 0.019957 -0.004772 0.000000 -0.003083 0.000000
# 3 -0.004772 -0.004772 0.013557 0.000000 0.000000 0.000000
# 4 0.000000 0.000000 0.000000 0.038233 0.000000 -0.006167
# 5 0.003083 -0.003083 0.000000 0.000000 0.038233 0.000000
# 6 0.000000 0.000000 0.000000 -0.006167 0.000000 0.050536
#
#
# Mechanical properties :
#
#
# Convention : Reuss Voigt Hill
#
# Bulk Modulus (GPa) = 42.08280 44.18276 43.13278
# Shear Modulus (GPa) = 22.92494 23.92271 23.42383
#
# Velocity S-wave (km/s) = 3.41707 3.49064 3.45405
# Velocity P-wave (km/s) = 6.08297 6.22492 6.15436
#
# Compressibility (1/GPa) = 0.02376268
#
# Stress axis : x y z
#
# Youngs Moduli (GPa) = 50.10674 50.10674 73.76467
#
# Poissons Ratio (x) = 0.26610 0.35199
# Poissons Ratio (y) = 0.26610 0.35199
# Poissons Ratio (z) = 0.23910 0.23910
#
# Static dielectric constant tensor:
#      x y z
#    x 1.695390 0.000000 0.000000 
#    y 0.000000 1.695390 0.000000 
#    z 0.000000 0.000000 1.724230 
# 
# From -- ./inp_files/3168.got.cif
#   From: 2010.05.17/outbox.cif.g08.bks.cpg/sg162_2_cif.got.tgz:3168.got - 2010.05.20 10:53:12.
