data_PCOD9577806
_publ_section_title
;
Structure prediction by ZEFSAII (Michael W. Deem and Ramdas Pophale) SiO2 
 PCOD9577806
Probable space group: P -3 1 M 
;
_chemical_formula_sum "Si O2"
_cell_formula_units_Z 84
_cell_length_a 19.628204
_cell_length_b 19.628204
_cell_length_c 14.255673
_cell_angle_alpha 90.000000
_cell_angle_beta 90.000000
_cell_angle_gamma 120.000000
_cell_volume 4756.412181
_symmetry_space_group_name_H-M "P -3 1 M "
_symmetry_group_IT_number 162
_symmetry_cell_setting 'hexagonal'
loop_
_space_group_symop_operation_xyz
x,y,z
-y,x-y,z
-x+y,-x,z
-y,-x,-z
-x+y,y,-z
x,x-y,-z
-x,-y,-z
y,-x+y,-z
x-y,x,-z
y,x,z
x-y,-y,z
-x,-x+y,z
loop_
_atom_site_type_symbol
_atom_site_label
_atom_site_fract_x
_atom_site_fract_y
_atom_site_fract_z
Si Si1 0.093226 0.763943 0.452791
Si Si2 0.909773 0.174809 0.085252
Si Si3 0.576543 0.906520 0.945217
Si Si4 0.903976 0.508206 0.756960
Si Si5 0.680279 0.907054 0.229809
Si Si6 0.095598 0.619835 0.544575
Si Si7 0.369726 0.904162 0.855654
O O1 0.153377 0.846624 0.500000
O O2 0.102334 0.776085 0.341221
O O3 0.114995 0.698214 0.487592
O O4 0.000000 0.727721 0.475369
O O5 0.899160 0.245634 0.042914
O O6 0.854248 0.138690 0.174467
O O7 0.000000 0.212540 0.112174
O O8 0.885994 0.114007 0.000000
O O9 0.541420 0.876059 0.842720
O O10 0.607663 0.000000 0.942414
O O11 0.521405 0.875613 0.036396
O O12 0.877211 0.514050 0.652879
O O13 0.880832 0.421097 0.790934
O O14 0.000000 0.558843 0.753317
O O15 0.594603 0.881568 0.189467
O O16 0.734425 0.000000 0.208909
O O17 0.122117 0.561059 0.500000
O O18 0.000000 0.569412 0.544821
O O19 0.419821 0.000000 0.858784
#
# Coordination Sequence:
#
# PCOD9577806 Si02
#       7
#    12  12  12  12  12  12  12
#     4  10  22  37  56  81 111 146 191 247 304 356
#     4  11  21  34  53  76 106 142 183 231 289 353
#     4   9  17  27  42  70 104 134 162 203 257 315
#     4   9  16  25  44  72 103 134 162 197 247 307
#     4  10  20  35  53  74 102 141 183 229 294 354
#     4   9  17  31  50  75 106 139 176 217 267 328
#     4   9  15  27  46  70 103 135 163 198 250 320
#
# _framework density 17.660368999999999
#
# number of rings (size 3 to 8) (size 9 to 14) (size 15 to 20)
#    0.000    2.429    1.429    1.714    2.000    5.714 
#    0.000    0.000    0.000    3.000    0.000    0.000 
#    1.429    0.286    0.000    0.000    0.000    0.000 
#
# Total GULP energy -468084.914862 kJ/mol
# GULP energy per Si atom -5572.439463 kJ/mol
# Density = 1.762017 g / cm^3
# Si number density = 17.660369 Si / 1000 Ang^3
#
#
#
# Elastic Constant Matrix: (Units=GPa)
#
#
# Indices 1 2 3 4 5 6 
#
# 1 51.0593 23.4710 33.8536 0.0002 1.9492 0.0000
# 2 23.4710 51.0593 33.8536 -0.0002 -1.9492 0.0000
# 3 33.8536 33.8536 100.3104 0.0000 0.0000 0.0000
# 4 0.0002 -0.0002 0.0000 22.4383 0.0000 -1.9492
# 5 1.9492 -1.9492 0.0000 0.0000 22.4383 0.0002
# 6 0.0000 0.0000 0.0000 -1.9492 0.0002 13.7941
#
#
#
# Elastic Compliance Matrix: (Units=1/GPa)
#
#
# Indices 1 2 3 4 5 6 
#
# 1 0.028024 -0.008674 -0.006530 0.000000 -0.003188 0.000000
# 2 -0.008674 0.028024 -0.006530 0.000000 0.003188 0.000000
# 3 -0.006530 -0.006530 0.014377 0.000000 0.000000 0.000000
# 4 0.000000 0.000000 0.000000 0.045121 0.000000 0.006376
# 5 -0.003188 0.003188 0.000000 0.000000 0.045121 -0.000001
# 6 0.000000 0.000000 0.000000 0.006376 -0.000001 0.073396
#
#
# Mechanical properties :
#
#
# Convention : Reuss Voigt Hill
#
# Bulk Modulus (GPa) = 37.09858 42.75391 39.92625
# Shear Modulus (GPa) = 17.45106 19.15086 18.30096
#
# Velocity S-wave (km/s) = 3.14689 3.29659 3.22261
# Velocity P-wave (km/s) = 5.85288 6.22507 6.04184
#
# Compressibility (1/GPa) = 0.02695521
#
# Stress axis : x y z
#
# Youngs Moduli (GPa) = 35.68393 35.68393 69.55611
#
# Poissons Ratio (x) = 0.30952 0.45423
# Poissons Ratio (y) = 0.30952 0.45423
# Poissons Ratio (z) = 0.23303 0.23303
#
# Static dielectric constant tensor:
#      x y z
#    x 1.608060 0.000000 0.000000 
#    y 0.000000 1.608060 0.000000 
#    z 0.000000 0.000000 1.632460 
# 
# From -- ./inp_files/3183.got.cif
#   From: 2010.05.17/outbox.cif.g08.bks.cpg/sg162_2_cif.got.tgz:3183.got - 2010.05.20 10:53:12.
