data_PCOD9577594
_publ_section_title
;
Structure prediction by ZEFSAII (Michael W. Deem and Ramdas Pophale) SiO2 
 PCOD9577594
Probable space group: R 3 C
;
_chemical_formula_sum "Si O2"
_cell_formula_units_Z 54
_cell_length_a 9.738544
_cell_length_b 9.738544
_cell_length_c 21.794491
_cell_angle_alpha 90.000000
_cell_angle_beta 90.000000
_cell_angle_gamma 120.000000
_cell_volume 1790.051080
_symmetry_space_group_name_H-M "R 3 C"
_symmetry_group_IT_number 161
_symmetry_cell_setting 'hexagonal'
loop_
_space_group_symop_operation_xyz
x,y,z
-y,x-y,z
-x+y,-x,z
-x+y,y,1/2+z
x,x-y,1/2+z
-y,-x,1/2+z
2/3+x,1/3+y,1/3+z
2/3-y,1/3+x-y,1/3+z
2/3-x+y,1/3-x,1/3+z
2/3-x+y,1/3+y,5/6+z
2/3+x,1/3+x-y,5/6+z
2/3-y,1/3-x,5/6+z
1/3+x,2/3+y,2/3+z
1/3-y,2/3+x-y,2/3+z
1/3-x+y,2/3-x,2/3+z
1/3-x+y,2/3+y,1/6+z
1/3+x,2/3+x-y,1/6+z
1/3-y,2/3-x,1/6+z
loop_
_atom_site_type_symbol
_atom_site_label
_atom_site_fract_x
_atom_site_fract_y
_atom_site_fract_z
Si Si1 0.124182 0.288851 0.939110
Si Si2 0.782455 0.560124 0.626198
Si Si3 0.856223 0.647172 0.986814
O O1 0.131103 0.244716 0.869764
O O2 0.178309 0.193993 0.983061
O O3 0.241102 0.475419 0.959837
O O4 0.955847 0.271681 0.955948
O O5 0.761831 0.563344 0.550652
O O6 0.958128 0.735412 0.618761
#
# Coordination Sequence:
#
# PCOD9577594 Si02
#       3
#    18  18  18
#     4  10  24  48  72 114 160 206 268 334 398 494
#     4  10  25  45  75 108 156 204 266 326 402 476
#     4  10  25  45  75 108 156 204 266 326 402 476
#
# _framework density 30.166736
#
# number of rings (size 3 to 8) (size 9 to 14) (size 15 to 20)
#    2.000    0.000    0.000    1.333    9.333    0.000 
#    2.000    3.333    0.000    0.000    0.000    0.000 
#    0.000    0.000    0.000    0.000    0.000    0.000 
#
# Total GULP energy -100371.553925 kJ/mol
# GULP energy per Si atom -5576.197440 kJ/mol
# Density = 3.009808 g / cm^3
# Si number density = 30.166736 Si / 1000 Ang^3
#
#
#
# Elastic Constant Matrix: (Units=GPa)
#
#
# Indices 1 2 3 4 5 6 
#
# 1 168.8841 41.6539 102.7413 -6.1590 0.0000 0.0000
# 2 41.6539 168.8841 102.7413 6.1590 0.0000 0.0000
# 3 102.7413 102.7413 213.9778 0.0000 0.0000 0.0000
# 4 -6.1590 6.1590 0.0000 80.3380 0.0000 0.0000
# 5 0.0000 0.0000 0.0000 0.0000 80.3380 -6.1590
# 6 0.0000 0.0000 0.0000 0.0000 -6.1590 63.6151
#
#
#
# Elastic Compliance Matrix: (Units=1/GPa)
#
#
# Indices 1 2 3 4 5 6 
#
# 1 0.008429 0.000510 -0.004292 0.000607 0.000000 0.000000
# 2 0.000510 0.008429 -0.004292 -0.000607 0.000000 0.000000
# 3 -0.004292 -0.004292 0.008795 0.000000 0.000000 0.000000
# 4 0.000607 -0.000607 0.000000 0.012540 0.000000 0.000000
# 5 0.000000 0.000000 0.000000 0.000000 0.012540 0.001214
# 6 0.000000 0.000000 0.000000 0.000000 0.001214 0.015837
#
#
# Mechanical properties :
#
#
# Convention : Reuss Voigt Hill
#
# Bulk Modulus (GPa) = 105.21284 116.22433 110.71858
# Shear Modulus (GPa) = 58.21716 65.16556 61.69136
#
# Velocity S-wave (km/s) = 4.39777 4.65281 4.52709
# Velocity P-wave (km/s) = 7.79358 8.21437 8.00674
#
# Compressibility (1/GPa) = 0.00950454
#
# Stress axis : x y z
#
# Youngs Moduli (GPa) = 118.64489 118.64489 113.70364
#
# Poissons Ratio (x) = -0.06051 0.48799
# Poissons Ratio (y) = -0.06051 0.48799
# Poissons Ratio (z) = 0.50920 0.50920
#
# Static dielectric constant tensor:
#      x y z
#    x 3.033540 0.000000 0.000000 
#    y 0.000000 3.033540 0.000000 
#    z 0.000000 0.000000 2.055260 
# 
# From -- ./inp_files/1597.got.cif
#   From: 2010.05.17/outbox.cif.g08.bks.cpg/sg161_cif.got.tgz:1597.got - 2010.05.20 10:52:32.
