data_PCOD9577749
_publ_section_title
;
Structure prediction by ZEFSAII (Michael W. Deem and Ramdas Pophale) SiO2 
 PCOD9577749
Probable space group: P -3 1 M 
;
_chemical_formula_sum "Si O2"
_cell_formula_units_Z 72
_cell_length_a 33.890933
_cell_length_b 33.890933
_cell_length_c 4.940849
_cell_angle_alpha 90.000000
_cell_angle_beta 90.000000
_cell_angle_gamma 120.000000
_cell_volume 4914.725460
_symmetry_space_group_name_H-M "P -3 1 M "
_symmetry_group_IT_number 162
_symmetry_cell_setting 'hexagonal'
loop_
_space_group_symop_operation_xyz
x,y,z
-y,x-y,z
-x+y,-x,z
-y,-x,-z
-x+y,y,-z
x,x-y,-z
-x,-y,-z
y,-x+y,-z
x-y,x,-z
y,x,z
x-y,-y,z
-x,-x+y,z
loop_
_atom_site_type_symbol
_atom_site_label
_atom_site_fract_x
_atom_site_fract_y
_atom_site_fract_z
Si Si1 0.000000 0.856542 0.383069
Si Si2 0.234676 0.090531 0.738279
Si Si3 0.052137 0.429608 0.034690
Si Si4 0.052886 0.698832 0.659367
Si Si5 0.089989 0.089989 0.898221
Si Si6 0.947011 0.248919 0.824164
Si Si7 0.052387 0.569107 0.443039
O O1 0.046600 0.855294 0.398749
O O2 0.000000 0.894057 0.589421
O O3 0.000000 0.870748 0.074290
O O4 0.254074 0.127037 0.500000
O O5 0.272145 0.077165 0.816249
O O6 0.221925 0.110963 0.000000
O O7 0.073242 0.401786 0.181244
O O8 0.050092 0.460499 0.271681
O O9 0.000000 0.391657 0.954421
O O10 0.072453 0.462411 0.775264
O O11 0.071381 0.726670 0.382108
O O12 0.000000 0.660877 0.601393
O O13 0.053539 0.734153 0.875942
O O14 0.043794 0.087587 0.000000
O O15 0.000000 0.268920 0.745053
O O16 0.073535 0.536768 0.500000
O O17 0.000000 0.535531 0.344814
#
# Coordination Sequence:
#
# PCOD9577749 Si02
#       7
#     6  12  12  12   6  12  12
#     4  12  24  42  59  78  98 114 134 150 175 216
#     4  12  24  38  56  76  93 112 130 153 184 231
#     4   9  15  23  33  51  70  96 133 163 197 230
#     4   9  17  27  45  60  80 103 128 164 193 227
#     4  12  25  42  62  80  98 116 134 152 170 194
#     4  10  19  34  48  67  85 104 127 152 191 227
#     4   9  15  21  30  44  70 101 132 167 200 231
#
# _framework density 14.649853
#
# number of rings (size 3 to 8) (size 9 to 14) (size 15 to 20)
#    0.000    1.833    0.833    5.583    0.000    6.000 
#    0.000    0.833    0.000    0.000    0.000    0.000 
#    0.000    0.000    0.000    0.000    0.000    0.000 
#
# Total GULP energy -400944.408627 kJ/mol
# GULP energy per Si atom -5568.672342 kJ/mol
# Density = 1.461651 g / cm^3
# Si number density = 14.649853 Si / 1000 Ang^3
#
#
#
# Elastic Constant Matrix: (Units=GPa)
#
#
# Indices 1 2 3 4 5 6 
#
# 1 27.8808 12.9377 1.7951 -0.0001 3.2881 0.0000
# 2 12.9377 27.8808 1.7951 0.0001 -3.2881 0.0000
# 3 1.7951 1.7951 73.0533 0.0000 0.0000 0.0000
# 4 -0.0001 0.0001 0.0000 18.0114 0.0000 -3.2881
# 5 3.2881 -3.2881 0.0000 0.0000 18.0114 -0.0001
# 6 0.0000 0.0000 0.0000 -3.2881 -0.0001 7.4715
#
#
#
# Elastic Compliance Matrix: (Units=1/GPa)
#
#
# Indices 1 2 3 4 5 6 
#
# 1 0.048659 -0.024107 -0.000603 0.000000 -0.013284 0.000000
# 2 -0.024107 0.048659 -0.000603 0.000000 0.013284 0.000000
# 3 -0.000603 -0.000603 0.013718 0.000000 0.000000 0.000000
# 4 0.000000 0.000000 0.000000 0.060370 0.000000 0.026568
# 5 -0.013284 0.013284 0.000000 0.000000 0.060370 0.000001
# 6 0.000000 0.000000 0.000000 0.026568 0.000001 0.145533
#
#
# Mechanical properties :
#
#
# Convention : Reuss Voigt Hill
#
# Bulk Modulus (GPa) = 16.55396 17.98566 17.26981
# Shear Modulus (GPa) = 11.15885 16.18466 13.67175
#
# Velocity S-wave (km/s) = 2.76289 3.32741 3.05820
# Velocity P-wave (km/s) = 4.63707 5.20249 4.92789
#
# Compressibility (1/GPa) = 0.06040850
#
# Stress axis : x y z
#
# Youngs Moduli (GPa) = 20.55111 20.55111 72.89541
#
# Poissons Ratio (x) = 0.49543 0.04398
# Poissons Ratio (y) = 0.49543 0.04398
# Poissons Ratio (z) = 0.01240 0.01240
#
# Static dielectric constant tensor:
#      x y z
#    x 1.503920 0.000000 0.000000 
#    y 0.000000 1.503920 0.000000 
#    z 0.000000 0.000000 1.521030 
# 
# From -- ./inp_files/768.got.cif
#   From: 2010.05.17/outbox.cif.g08.bks.cpg/sg162_1_cif.got.tgz:768.got - 2010.05.20 10:53:12.
