data_PCOD9577838
_publ_section_title
;
Structure prediction by ZEFSAII (Michael W. Deem and Ramdas Pophale) SiO2 
 PCOD9577838
Probable space group: P -3 1 M 
;
_chemical_formula_sum "Si O2"
_cell_formula_units_Z 42
_cell_length_a 19.510359
_cell_length_b 19.510359
_cell_length_c 6.254244
_cell_angle_alpha 90.000000
_cell_angle_beta 90.000000
_cell_angle_gamma 120.000000
_cell_volume 2061.749860
_symmetry_space_group_name_H-M "P -3 1 M "
_symmetry_group_IT_number 162
_symmetry_cell_setting 'hexagonal'
loop_
_space_group_symop_operation_xyz
x,y,z
-y,x-y,z
-x+y,-x,z
-y,-x,-z
-x+y,y,-z
x,x-y,-z
-x,-y,-z
y,-x+y,-z
x-y,x,-z
y,x,z
x-y,-y,z
-x,-x+y,z
loop_
_atom_site_type_symbol
_atom_site_label
_atom_site_fract_x
_atom_site_fract_y
_atom_site_fract_z
Si Si1 0.910899 0.367768 0.799796
Si Si2 0.757969 0.665165 0.500059
Si Si3 0.298674 0.814714 0.184246
Si Si4 0.797291 0.398646 0.500000
O O1 0.906191 0.285663 0.721177
O O2 0.852273 0.378587 0.646421
O O3 0.000000 0.434739 0.761417
O O4 0.885335 0.365524 0.043384
O O5 0.853130 0.706260 0.500000
O O6 0.720365 0.720365 0.443793
O O7 0.734182 0.592543 0.334672
O O8 0.328189 0.764476 0.324658
O O9 0.240151 0.759850 0.000000
#
# Coordination Sequence:
#
# PCOD9577838 Si02
#       4
#    12  12  12   6
#     4  10  20  36  58  85 117 149 191 246 302 350
#     4  10  20  36  59  92 121 153 198 246 299 360
#     4  11  21  37  59  84 117 156 198 248 296 353
#     4  10  23  34  56  88 110 148 200 246 294 348
#
# _framework density 20.371046
#
# number of rings (size 3 to 8) (size 9 to 14) (size 15 to 20)
#    0.000    1.714    2.857    2.143    0.000    4.571 
#    0.000    0.000    0.000   11.714    0.000    0.000 
#    0.000    1.143    0.000    0.000    0.000    0.000 
#
# Total GULP energy -234238.751589 kJ/mol
# GULP energy per Si atom -5577.113133 kJ/mol
# Density = 2.032468 g / cm^3
# Si number density = 20.371046 Si / 1000 Ang^3
#
#
#
# Elastic Constant Matrix: (Units=GPa)
#
#
# Indices 1 2 3 4 5 6 
#
# 1 85.4253 52.2735 26.6679 0.0003 -8.1784 0.0000
# 2 52.2735 85.4253 26.6679 -0.0003 8.1784 0.0000
# 3 26.6679 26.6679 96.7264 0.0000 0.0000 0.0000
# 4 0.0003 -0.0003 0.0000 8.8363 0.0000 8.1784
# 5 -8.1784 8.1784 0.0000 0.0000 8.8363 0.0003
# 6 0.0000 0.0000 0.0000 8.1784 0.0003 16.5759
#
#
#
# Elastic Compliance Matrix: (Units=1/GPa)
#
#
# Indices 1 2 3 4 5 6 
#
# 1 0.031823 -0.023692 -0.002242 -0.000002 0.051381 0.000000
# 2 -0.023692 0.031823 -0.002242 0.000002 -0.051381 0.000000
# 3 -0.002242 -0.002242 0.011574 0.000000 0.000000 0.000000
# 4 -0.000002 0.000002 0.000000 0.208279 0.000000 -0.102763
# 5 0.051381 -0.051381 0.000000 0.000000 0.208279 -0.000004
# 6 0.000000 0.000000 0.000000 -0.102763 -0.000004 0.111030
#
#
# Mechanical properties :
#
#
# Convention : Reuss Voigt Hill
#
# Bulk Modulus (GPa) = 52.99696 53.19952 53.09824
# Shear Modulus (GPa) = 7.51371 17.64757 12.58064
#
# Velocity S-wave (km/s) = 1.92261 2.94650 2.48780
# Velocity P-wave (km/s) = 5.56784 6.14392 5.86296
#
# Compressibility (1/GPa) = 0.01886901
#
# Stress axis : x y z
#
# Youngs Moduli (GPa) = 31.42398 31.42398 86.39696
#
# Poissons Ratio (x) = 0.74451 0.19367
# Poissons Ratio (y) = 0.74451 0.19367
# Poissons Ratio (z) = 0.07044 0.07044
#
# Static dielectric constant tensor:
#      x y z
#    x 1.813910 0.000000 0.000000 
#    y 0.000000 1.813910 0.000000 
#    z 0.000000 0.000000 1.757870 
# 
# From -- ./inp_files/339.got.cif
#   From: 2010.05.17/outbox.cif.g08.bks.cpg/sg162_1_cif.got.tgz:339.got - 2010.05.20 10:53:12.
