data_PCOD9577911
_publ_section_title
;
Structure prediction by ZEFSAII (Michael W. Deem and Ramdas Pophale) SiO2 
 PCOD9577911
Probable space group: P -3 1 M 
;
_chemical_formula_sum "Si O2"
_cell_formula_units_Z 72
_cell_length_a 14.446305
_cell_length_b 14.446305
_cell_length_c 17.153868
_cell_angle_alpha 90.000000
_cell_angle_beta 90.000000
_cell_angle_gamma 120.000000
_cell_volume 3100.318095
_symmetry_space_group_name_H-M "P -3 1 M "
_symmetry_group_IT_number 162
_symmetry_cell_setting 'hexagonal'
loop_
_space_group_symop_operation_xyz
x,y,z
-y,x-y,z
-x+y,-x,z
-y,-x,-z
-x+y,y,-z
x,x-y,-z
-x,-y,-z
y,-x+y,-z
x-y,x,-z
y,x,z
x-y,-y,z
-x,-x+y,z
loop_
_atom_site_type_symbol
_atom_site_label
_atom_site_fract_x
_atom_site_fract_y
_atom_site_fract_z
Si Si1 0.465899 0.875657 0.804520
Si Si2 0.327678 0.201573 0.875028
Si Si3 0.181666 0.764243 0.420348
Si Si4 0.166513 0.500999 0.947441
Si Si5 0.461692 0.878907 0.624969
Si Si6 0.241765 0.119790 0.708589
O O1 0.568001 0.872065 0.837668
O O2 0.370225 0.815792 0.863940
O O3 0.437945 0.843309 0.715352
O O4 0.497898 0.000000 0.808940
O O5 0.253429 0.253429 0.905337
O O6 0.378043 0.141141 0.926649
O O7 0.268199 0.130034 0.800299
O O8 0.178509 0.821492 0.500000
O O9 0.120899 0.637169 0.415940
O O10 0.306146 0.801282 0.414347
O O11 0.147177 0.804782 0.345157
O O12 0.267769 0.535538 0.000000
O O13 0.108728 0.554364 0.000000
O O14 0.559903 0.000000 0.625787
O O15 0.204086 0.204086 0.690984
O O16 0.150935 0.000000 0.691382
#
# Coordination Sequence:
#
# PCOD9577911 Si02
#       6
#    12  12  12  12  12  12
#     4  10  22  39  61  88 120 167 218 266 319 387
#     4  10  22  42  64  88 126 174 224 273 327 395
#     4  12  25  41  65  99 137 176 222 278 344 419
#     4  12  24  37  59  92 136 174 212 261 337 403
#     4  11  24  44  66  91 128 176 226 273 325 393
#     4  11  24  46  73 101 133 176 233 292 349 406
#
# _framework density 23.223424000000001
#
# number of rings (size 3 to 8) (size 9 to 14) (size 15 to 20)
#    0.000    1.000    3.333    3.167    0.000    6.333 
#    0.000    0.000    0.000    1.000    0.000    0.000 
#    0.000    3.333    0.000    0.000    0.000    0.000 
#
# Total GULP energy -401524.568520 kJ/mol
# GULP energy per Si atom -5576.730118 kJ/mol
# Density = 2.317057 g / cm^3
# Si number density = 23.223424 Si / 1000 Ang^3
#
#
#
# Elastic Constant Matrix: (Units=GPa)
#
#
# Indices 1 2 3 4 5 6 
#
# 1 79.1588 24.9771 13.4001 0.0005 25.7091 0.0000
# 2 24.9771 79.1588 13.4001 -0.0005 -25.7091 0.0000
# 3 13.4001 13.4001 79.2847 0.0000 0.0000 0.0000
# 4 0.0005 -0.0005 0.0000 59.4216 0.0000 -25.7091
# 5 25.7091 -25.7091 0.0000 0.0000 59.4216 0.0005
# 6 0.0000 0.0000 0.0000 -25.7091 0.0005 27.0908
#
#
#
# Elastic Compliance Matrix: (Units=1/GPa)
#
#
# Indices 1 2 3 4 5 6 
#
# 1 0.020676 -0.010637 -0.001697 0.000000 -0.013548 0.000000
# 2 -0.010637 0.020676 -0.001697 0.000000 0.013548 0.000000
# 3 -0.001697 -0.001697 0.013186 0.000000 0.000000 0.000000
# 4 0.000000 0.000000 0.000000 0.028552 0.000000 0.027096
# 5 -0.013548 0.013548 0.000000 0.000000 0.028552 -0.000001
# 6 0.000000 0.000000 0.000000 0.027096 -0.000001 0.062627
#
#
# Mechanical properties :
#
#
# Convention : Reuss Voigt Hill
#
# Bulk Modulus (GPa) = 37.76700 37.90635 37.83668
# Shear Modulus (GPa) = 23.67903 41.57515 32.62709
#
# Velocity S-wave (km/s) = 3.19661 4.23569 3.75229
# Velocity P-wave (km/s) = 5.47012 6.34660 5.92459
#
# Compressibility (1/GPa) = 0.02647814
#
# Stress axis : x y z
#
# Youngs Moduli (GPa) = 48.36418 48.36418 75.83610
#
# Poissons Ratio (x) = 0.51445 0.12868
# Poissons Ratio (y) = 0.51445 0.12868
# Poissons Ratio (z) = 0.08206 0.08206
#
# Static dielectric constant tensor:
#      x y z
#    x 1.881830 0.000000 0.000000 
#    y 0.000000 1.881830 0.000000 
#    z 0.000000 0.000000 1.931950 
# 
# From -- ./inp_files/3536.got.cif
#   From: 2010.05.17/outbox.cif.g08.bks.cpg/sg162_2_cif.got.tgz:3536.got - 2010.05.20 10:53:12.
