data_PCOD9577320
_publ_section_title
;
Structure prediction by ZEFSAII (Michael W. Deem and Ramdas Pophale) SiO2 
 PCOD9577320
Probable space group: P 3 C 1
;
_chemical_formula_sum "Si O2"
_cell_formula_units_Z 16
_cell_length_a 6.918518
_cell_length_b 6.918518
_cell_length_c 19.331357
_cell_angle_alpha 90.000000
_cell_angle_beta 90.000000
_cell_angle_gamma 120.000000
_cell_volume 801.344247
_symmetry_space_group_name_H-M "P 3 C 1"
_symmetry_group_IT_number 158
_symmetry_cell_setting 'hexagonal'
loop_
_space_group_symop_operation_xyz
x,y,z
-y,x-y,z
-x+y,-x,z
-x+y,y,1/2+z
x,x-y,1/2+z
-y,-x,1/2+z
loop_
_atom_site_type_symbol
_atom_site_label
_atom_site_fract_x
_atom_site_fract_y
_atom_site_fract_z
Si Si1 0.333334 0.666666 0.026257
Si Si2 0.333334 0.666666 0.862560
Si Si3 0.062673 0.783953 0.265783
Si Si4 0.945387 0.396006 0.623034
O O1 0.346951 0.460027 0.059676
O O2 0.333334 0.666667 0.944409
O O3 0.553591 0.680284 0.829141
O O4 0.823109 0.771238 0.268212
O O5 0.065497 0.666667 0.194409
O O6 0.843557 0.562096 0.620606
#
# Coordination Sequence:
#
# PCOD9577320 Si02
#       4
#     2   2   6   6
#     4  12  25  41  58  90 133 161 193 240 301 377
#     4  12  25  41  58  90 133 161 193 240 301 377
#     4  10  22  41  66  89 117 154 207 255 296 342
#     4  10  22  41  66  89 117 154 207 255 296 342
#
# _framework density 19.966448
#
# number of rings (size 3 to 8) (size 9 to 14) (size 15 to 20)
#    1.500    0.000    0.000    6.750    0.000    3.000 
#    4.500    0.000    0.000    0.000    0.000    0.000 
#    0.000    0.000    0.000    0.000    0.000    0.000 
#
# Total GULP energy -89156.942891 kJ/mol
# GULP energy per Si atom -5572.308931 kJ/mol
# Density = 1.992100 g / cm^3
# Si number density = 19.966448 Si / 1000 Ang^3
#
#
#
# Elastic Constant Matrix: (Units=GPa)
#
#
# Indices 1 2 3 4 5 6 
#
# 1 98.6435 35.9887 66.4209 -3.3773 0.0000 0.0000
# 2 35.9887 98.6437 66.4208 3.3773 0.0000 0.0000
# 3 66.4209 66.4208 225.6675 -0.0002 0.0000 0.0000
# 4 -3.3773 3.3773 -0.0002 10.7828 0.0000 0.0000
# 5 0.0000 0.0000 0.0000 0.0000 10.7828 -3.3773
# 6 0.0000 0.0000 0.0000 0.0000 -3.3773 31.3275
#
#
#
# Elastic Compliance Matrix: (Units=1/GPa)
#
#
# Indices 1 2 3 4 5 6 
#
# 1 0.013493 -0.003025 -0.003081 0.005174 0.000000 0.000000
# 2 -0.003025 0.013493 -0.003081 -0.005174 0.000000 0.000000
# 3 -0.003081 -0.003081 0.006245 0.000000 0.000000 0.000000
# 4 0.005174 -0.005174 0.000000 0.095982 0.000000 0.000000
# 5 0.000000 0.000000 0.000000 0.000000 0.095982 0.010348
# 6 0.000000 0.000000 0.000000 0.000000 0.010348 0.033036
#
#
# Mechanical properties :
#
#
# Convention : Reuss Voigt Hill
#
# Bulk Modulus (GPa) = 67.31113 84.51283 75.91198
# Shear Modulus (GPa) = 17.75840 27.52022 22.63931
#
# Velocity S-wave (km/s) = 2.98554 3.71661 3.37095
# Velocity P-wave (km/s) = 6.75795 7.79980 7.29749
#
# Compressibility (1/GPa) = 0.01485638
#
# Stress axis : x y z
#
# Youngs Moduli (GPa) = 74.11289 74.11310 160.13004
#
# Poissons Ratio (x) = 0.22422 0.49335
# Poissons Ratio (y) = 0.22421 0.49335
# Poissons Ratio (z) = 0.22834 0.22834
#
# Static dielectric constant tensor:
#      x y z
#    x 1.751930 0.000000 0.000000 
#    y 0.000000 1.751930 0.000000 
#    z 0.000000 0.000000 1.619570 
# 
# From -- ./inp_files/287.got.cif
#   From: 2010.05.17/outbox.cif.g08.bks.cpg/sg158_cif.got.tgz:287.got - 2010.05.20 10:49:59.
