data_PCOD9577085
_publ_section_title
;
Structure prediction by ZEFSAII (Michael W. Deem and Ramdas Pophale) SiO2 
 PCOD9577085
Probable space group: R 3 2
;
_chemical_formula_sum "Si O2"
_cell_formula_units_Z 114
_cell_length_a 21.061238
_cell_length_b 21.061238
_cell_length_c 13.628359
_cell_angle_alpha 90.000000
_cell_angle_beta 90.000000
_cell_angle_gamma 120.000000
_cell_volume 5235.305008
_symmetry_space_group_name_H-M "R 3 2"
_symmetry_group_IT_number 155
_symmetry_cell_setting 'hexagonal'
loop_
_space_group_symop_operation_xyz
x,y,z
-y,x-y,z
-x+y,-x,z
x-y,-y,-z
-x,-x+y,-z
y,x,-z
2/3+x,1/3+y,1/3+z
2/3-y,1/3+x-y,1/3+z
2/3-x+y,1/3-x,1/3+z
2/3+x-y,1/3-y,1/3-z
2/3-x,1/3-x+y,1/3-z
2/3+y,1/3+x,1/3-z
1/3+x,2/3+y,2/3+z
1/3-y,2/3+x-y,2/3+z
1/3-x+y,2/3-x,2/3+z
1/3+x-y,2/3-y,2/3-z
1/3-x,2/3-x+y,2/3-z
1/3+y,2/3+x,2/3-z
loop_
_atom_site_type_symbol
_atom_site_label
_atom_site_fract_x
_atom_site_fract_y
_atom_site_fract_z
Si Si1 0.258898 0.359446 0.225070
Si Si2 0.370668 0.877850 0.773689
Si Si3 0.791819 0.975698 0.111811
Si Si4 0.333334 0.666668 0.553211
Si Si5 0.595806 0.414797 0.551094
Si Si6 0.073746 0.144965 0.564471
Si Si7 0.754700 0.618177 0.847050
O O1 0.333334 0.415340 0.166667
O O2 0.267199 0.333334 0.333334
O O3 0.226288 0.288849 0.155722
O O4 0.194738 0.382157 0.233777
O O5 0.333334 0.858848 0.666667
O O6 0.432484 0.854321 0.780051
O O7 0.310431 0.834171 0.858424
O O8 0.415017 0.965466 0.789779
O O9 0.845537 0.042983 0.181752
O O10 0.795613 0.000000 0.000000
O O11 0.333334 0.666668 0.666667
O O12 0.250740 0.620176 0.518804
O O13 0.603453 0.387792 0.658407
O O14 0.123962 0.123962 0.500000
O O15 0.097910 0.229830 0.586418
O O16 0.000000 0.110847 0.500000
O O17 0.666667 0.579051 0.833334
#
# Coordination Sequence:
#
# PCOD9577085 Si02
#       7
#    18  18  18   6  18  18  18
#     4  11  26  47  77 103 141 188 240 298 368 427
#     4  11  23  42  68 101 144 188 233 292 356 430
#     4  11  23  41  68 108 143 179 236 296 358 430
#     4  12  21  36  67 101 145 183 237 288 361 431
#     4  12  23  38  70 104 142 190 235 291 365 424
#     4  11  25  44  69 101 142 181 239 301 356 430
#     4  10  26  46  71  99 142 189 244 287 355 430
#
# _framework density 21.775236
#
# number of rings (size 3 to 8) (size 9 to 14) (size 15 to 20)
#    0.000    0.947    3.158    3.000    4.421    5.684 
#    0.000    0.789    0.000    0.316    0.000    0.000 
#    0.000    0.000    0.000    0.000    0.000    0.000 
#
# Total GULP energy -211832.863797 kJ/mol
# GULP energy per Si atom -5574.549047 kJ/mol
# Density = 2.172567 g / cm^3
# Si number density = 21.775236 Si / 1000 Ang^3
#
#
#
# Elastic Constant Matrix: (Units=GPa)
#
#
# Indices 1 2 3 4 5 6 
#
# 1 762.1813 -577.3764 33.6050 299.4417 -0.2330 -0.5702
# 2 -577.3764 762.1694 33.6399 -299.4386 0.2339 0.5720
# 3 33.6050 33.6399 150.2317 -0.0077 0.0062 0.0126
# 4 299.4417 -299.4386 -0.0077 151.5873 -0.1271 -0.3057
# 5 -0.2330 0.2339 0.0062 -0.1271 151.6009 299.5406
# 6 -0.5702 0.5720 0.0126 -0.3057 299.5406 670.1322
#
#
#
# Elastic Compliance Matrix: (Units=1/GPa)
#
#
# Indices 1 2 3 4 5 6 
#
# 1 0.006139 -0.000248 -0.001318 -0.012619 -0.000001 0.000000
# 2 -0.000248 0.006140 -0.001319 0.012618 0.000001 0.000000
# 3 -0.001318 -0.001319 0.007247 0.000000 0.000000 0.000000
# 4 -0.012619 0.012618 0.000000 0.056449 0.000001 0.000004
# 5 -0.000001 0.000001 0.000000 0.000001 0.056465 -0.025239
# 6 0.000000 0.000000 0.000000 0.000004 -0.025239 0.012774
#
#
# Mechanical properties :
#
#
# Convention : Reuss Voigt Hill
#
# Bulk Modulus (GPa) = 72.70159 72.70216 72.70188
# Shear Modulus (GPa) = 32.14003 340.31167 186.22585
#
# Velocity S-wave (km/s) = 3.84603 12.51491 9.25784
# Velocity P-wave (km/s) = 7.29262 15.56569 12.15469
#
# Compressibility (1/GPa) = 0.01375486
#
# Stress axis : x y z
#
# Youngs Moduli (GPa) = 162.88051 162.87918 137.99715
#
# Poissons Ratio (x) = 0.04047 0.18193
# Poissons Ratio (y) = 0.04047 0.18195
# Poissons Ratio (z) = 0.21473 0.21476
#
# Static dielectric constant tensor:
#      x y z
#    x 1.543750 -0.000300 0.000010 
#    y -0.000300 1.543330 -0.000040 
#    z 0.000010 -0.000040 1.824810 
# 
# From -- ./inp_files/5206.got.cif
#   From: 2010.05.17/outbox.cif.g08.bks.cpg/sg155_3_cif.got.tgz:5206.got - 2010.05.20 10:44:35.
