data_PCOD9577463
_publ_section_title
;
Structure prediction by ZEFSAII (Michael W. Deem and Ramdas Pophale) SiO2 
 PCOD9577463
Probable space group: R 3 M
;
_chemical_formula_sum "Si O2"
_cell_formula_units_Z 126
_cell_length_a 27.226688
_cell_length_b 27.226688
_cell_length_c 11.144242
_cell_angle_alpha 90.000000
_cell_angle_beta 90.000000
_cell_angle_gamma 120.000000
_cell_volume 7154.360094
_symmetry_space_group_name_H-M "R 3 M"
_symmetry_group_IT_number 160
_symmetry_cell_setting 'hexagonal'
loop_
_space_group_symop_operation_xyz
x,y,z
-y,x-y,z
-x+y,-x,z
-x+y,y,z
x,x-y,z
-y,-x,z
2/3+x,1/3+y,1/3+z
2/3-y,1/3+x-y,1/3+z
2/3-x+y,1/3-x,1/3+z
2/3-x+y,1/3+y,1/3+z
2/3+x,1/3+x-y,1/3+z
2/3-y,1/3-x,1/3+z
1/3+x,2/3+y,2/3+z
1/3-y,2/3+x-y,2/3+z
1/3-x+y,2/3-x,2/3+z
1/3-x+y,2/3+y,2/3+z
1/3+x,2/3+x-y,2/3+z
1/3-y,2/3-x,2/3+z
loop_
_atom_site_type_symbol
_atom_site_label
_atom_site_fract_x
_atom_site_fract_y
_atom_site_fract_z
Si Si1 0.571098 0.840489 0.253143
Si Si2 0.724541 0.707764 0.401819
Si Si3 0.207647 0.307911 0.718290
Si Si4 0.974281 0.411001 0.149108
Si Si5 0.824749 0.855485 0.747981
Si Si6 0.747092 0.004938 0.131700
Si Si7 0.178509 0.473538 0.636194
O O1 0.566921 0.783460 0.204310
O O2 0.589673 0.889332 0.155290
O O3 0.620837 0.866266 0.354640
O O4 0.512190 0.825895 0.319037
O O5 0.668166 0.705073 0.456439
O O6 0.736531 0.737785 0.273471
O O7 0.709858 0.642547 0.398632
O O8 0.162726 0.325452 0.761792
O O9 0.209974 0.312552 0.572861
O O10 0.184597 0.243700 0.756558
O O11 0.268572 0.353272 0.765716
O O12 0.917072 0.389418 0.225720
O O13 0.836087 0.918044 0.715645
O O14 0.851412 0.854914 0.876964
O O15 0.805136 0.009328 0.084525
O O16 0.238363 0.476725 0.661151
#
# Coordination Sequence:
#
# PCOD9577463 Si02
#       7
#    18  18  18  18  18  18  18
#     4  11  22  36  53  80 115 150 185 234 287 333
#     4  12  21  32  51  76 112 157 192 232 267 326
#     4  10  18  30  52  76 102 139 188 231 272 331
#     4  10  17  32  50  74 104 143 184 223 275 324
#     4  10  19  34  57  80 103 136 181 237 289 338
#     4  11  20  32  49  77 111 152 193 227 271 322
#     4  10  21  36  57  79 107 145 184 232 287 342
#
# _framework density 17.611639
#
# number of rings (size 3 to 8) (size 9 to 14) (size 15 to 20)
#    0.000    1.429    2.857    8.143    0.000    1.143 
#    0.000    0.714    0.000    2.286    0.000    0.000 
#    0.000    0.000    0.000    0.000    0.000    0.000 
#
# Total GULP energy -233927.704701 kJ/mol
# GULP energy per Si atom -5569.707255 kJ/mol
# Density = 1.757155 g / cm^3
# Si number density = 17.611639 Si / 1000 Ang^3
#
#
#
# Elastic Constant Matrix: (Units=GPa)
#
#
# Indices 1 2 3 4 5 6 
#
# 1 51.4525 28.2672 1.8053 -0.0302 -0.0120 -0.0009
# 2 28.2672 51.4573 1.8143 0.0270 -0.0007 -0.0005
# 3 1.8053 1.8143 51.3185 -0.0196 -0.0243 -0.0029
# 4 -0.0302 0.0270 -0.0196 31.0793 -0.0086 0.0022
# 5 -0.0120 -0.0007 -0.0243 -0.0086 31.0440 -0.0296
# 6 -0.0009 -0.0005 -0.0029 0.0022 -0.0296 11.5950
#
#
#
# Elastic Compliance Matrix: (Units=1/GPa)
#
#
# Indices 1 2 3 4 5 6 
#
# 1 0.027846 -0.015281 -0.000439 0.000040 0.000010 0.000002
# 2 -0.015281 0.027844 -0.000447 -0.000039 -0.000006 0.000000
# 3 -0.000439 -0.000447 0.019517 0.000012 0.000015 0.000005
# 4 0.000040 -0.000039 0.000012 0.032176 0.000009 -0.000006
# 5 0.000010 -0.000006 0.000015 0.000009 0.032212 0.000082
# 6 0.000002 0.000000 0.000005 -0.000006 0.000082 0.086244
#
#
# Mechanical properties :
#
#
# Convention : Reuss Voigt Hill
#
# Bulk Modulus (GPa) = 23.32499 24.22245 23.77372
# Shear Modulus (GPa) = 18.35093 22.89977 20.62535
#
# Velocity S-wave (km/s) = 3.23147 3.60983 3.42588
# Velocity P-wave (km/s) = 5.21498 5.58194 5.40157
#
# Compressibility (1/GPa) = 0.04287246
#
# Stress axis : x y z
#
# Youngs Moduli (GPa) = 35.91163 35.91451 51.23633
#
# Poissons Ratio (x) = 0.54882 0.02251
# Poissons Ratio (y) = 0.54878 0.02289
# Poissons Ratio (z) = 0.01578 0.01605
#
# Static dielectric constant tensor:
#      x y z
#    x 1.564770 0.000000 0.000000 
#    y 0.000000 1.564660 0.000010 
#    z 0.000000 0.000010 1.662770 
# 
# From -- ./inp_files/1822.got.cif
#   From: 2010.05.17/outbox.cif.g08.bks.cpg/sg160_1_cif.got.tgz:1822.got - 2010.05.20 10:51:19.
