data_PCOD9577511
_publ_section_title
;
Structure prediction by ZEFSAII (Michael W. Deem and Ramdas Pophale) SiO2 
 PCOD9577511
Probable space group: R 3 M
;
_chemical_formula_sum "Si O2"
_cell_formula_units_Z 42
_cell_length_a 18.000000
_cell_length_b 18.000000
_cell_length_c 27.000000
_cell_angle_alpha 90.000000
_cell_angle_beta 90.000000
_cell_angle_gamma 120.000000
_cell_volume 7575.990232
_symmetry_space_group_name_H-M "R 3 M"
_symmetry_group_IT_number 160
_symmetry_cell_setting 'hexagonal'
loop_
_space_group_symop_operation_xyz
x,y,z
-y,x-y,z
-x+y,-x,z
-x+y,y,z
x,x-y,z
-y,-x,z
2/3+x,1/3+y,1/3+z
2/3-y,1/3+x-y,1/3+z
2/3-x+y,1/3-x,1/3+z
2/3-x+y,1/3+y,1/3+z
2/3+x,1/3+x-y,1/3+z
2/3-y,1/3-x,1/3+z
1/3+x,2/3+y,2/3+z
1/3-y,2/3+x-y,2/3+z
1/3-x+y,2/3-x,2/3+z
1/3-x+y,2/3+y,2/3+z
1/3+x,2/3+x-y,2/3+z
1/3-y,2/3-x,2/3+z
loop_
_atom_site_type_symbol
_atom_site_label
_atom_site_fract_x
_atom_site_fract_y
_atom_site_fract_z
Si Si1 0.931613 0.238494 0.866796
Si Si2 0.165383 0.498106 0.075546
Si Si3 0.509958 0.843741 0.240013
Si Si4 0.334194 0.830362 0.955755
Si Si5 0.567807 0.605312 0.335930
Si Si6 0.695666 0.934055 0.948883
Si Si7 0.095697 0.362475 0.420843
O O1 0.848190 0.151811 0.885569
O O2 0.947784 0.225259 0.810753
O O3 0.901402 0.309737 0.870942
O O4 0.012640 0.259958 0.899878
O O5 0.242661 0.485322 0.093593
O O6 0.175727 0.587864 0.094648
O O7 0.170728 0.504371 0.015719
O O8 0.069889 0.423842 0.086209
O O9 0.411185 0.822370 0.234627
O O10 0.517450 0.758725 0.234441
O O11 0.543811 0.890194 0.293435
O O12 0.429179 0.858358 0.938713
O O13 0.266038 0.733963 0.939650
O O14 0.297154 0.890788 0.940868
O O15 0.491384 0.508617 0.337233
O O16 0.658309 0.612212 0.322662
O O17 0.579517 0.654461 0.386590
O O18 0.713328 0.856664 0.960464
O O19 0.180727 0.361454 0.402703
#
# Coordination Sequence:
#
# PCOD9577511 Si02
#       7
#    18  18  18  18  18  18  18
#     4   9  20  35  48  68  98 130 164 203 243 280
#     4   9  16  26  42  67  99 131 159 187 224 274
#     4   9  17  30  48  71 100 133 165 194 227 274
#     4   9  16  26  43  69  99 128 157 191 231 278
#     4  10  20  33  51  75  98 122 156 200 248 291
#     4  10  19  32  51  71  93 126 165 205 244 287
#     4  10  19  32  50  71  99 132 162 194 236 286
#
# _framework density 5.5438299999999998
#
# number of rings (size 3 to 8) (size 9 to 14) (size 15 to 20)
#    0.000    2.571    1.429    2.143    0.000    4.571 
#    0.000    0.000    0.000    4.286    0.000    0.000 
#    0.000    0.000    0.000    0.000    0.000    0.000 
#
# Total GULP energy -233889.978383 kJ/mol
# GULP energy per Si atom -5568.809009 kJ/mol
# Density = 0.553121 g / cm^3
# Si number density = 5.543830 Si / 1000 Ang^3
#
#
#
# Elastic Constant Matrix: (Units=GPa)
#
#
# Indices 1 2 3 4 5 6 
#
# 1 69.5114 41.2034 25.8276 3.1020 -0.0003 0.0000
# 2 41.2034 69.5114 25.8276 -3.1020 0.0003 0.0000
# 3 25.8276 25.8276 54.6300 0.0000 0.0000 0.0000
# 4 3.1020 -3.1020 0.0000 10.6635 0.0000 0.0003
# 5 -0.0003 0.0003 0.0000 0.0000 10.6635 3.1020
# 6 0.0000 0.0000 0.0000 0.0003 3.1020 14.1540
#
#
#
# Elastic Compliance Matrix: (Units=1/GPa)
#
#
# Indices 1 2 3 4 5 6 
#
# 1 0.024660 -0.013071 -0.005479 -0.010976 0.000001 0.000000
# 2 -0.013071 0.024660 -0.005479 0.010976 -0.000001 0.000000
# 3 -0.005479 -0.005479 0.023485 0.000000 0.000000 0.000000
# 4 -0.010976 0.010976 0.000000 0.100163 0.000000 -0.000002
# 5 0.000001 -0.000001 0.000000 0.000000 0.100163 -0.021952
# 6 0.000000 0.000000 0.000000 -0.000002 -0.021952 0.075462
#
#
# Mechanical properties :
#
#
# Convention : Reuss Voigt Hill
#
# Bulk Modulus (GPa) = 40.40835 42.15219 41.28027
# Shear Modulus (GPa) = 12.34872 13.81583 13.08228
#
# Velocity S-wave (km/s) = 2.72782 2.88532 2.80768
# Velocity P-wave (km/s) = 5.85409 6.04152 5.94854
#
# Compressibility (1/GPa) = 0.02474736
#
# Stress axis : x y z
#
# Youngs Moduli (GPa) = 40.55192 40.55192 42.57985
#
# Poissons Ratio (x) = 0.53007 0.23328
# Poissons Ratio (y) = 0.53007 0.23328
# Poissons Ratio (z) = 0.22217 0.22217
#
# Static dielectric constant tensor:
#      x y z
#    x 1.561480 0.000000 0.000000 
#    y 0.000000 1.561480 0.000000 
#    z 0.000000 0.000000 1.596700 
# 
# From -- ./inp_files/4147.got.cif
#   From: 2010.05.17/outbox.ucp.g08.bks.cvg/sg160_3_cif.got.tgz:4147.got - 2010.06.11 15:14:33.
