data_PCOD9577163
_publ_section_title
;
Structure prediction by ZEFSAII (Michael W. Deem and Ramdas Pophale) SiO2 
 PCOD9577163
Probable space group: R 3 2
;
_chemical_formula_sum "Si O2"
_cell_formula_units_Z 54
_cell_length_a 19.744375
_cell_length_b 19.744375
_cell_length_c 7.872475
_cell_angle_alpha 90.000000
_cell_angle_beta 90.000000
_cell_angle_gamma 120.000000
_cell_volume 2657.839207
_symmetry_space_group_name_H-M "R 3 2"
_symmetry_group_IT_number 155
_symmetry_cell_setting 'hexagonal'
loop_
_space_group_symop_operation_xyz
x,y,z
-y,x-y,z
-x+y,-x,z
x-y,-y,-z
-x,-x+y,-z
y,x,-z
2/3+x,1/3+y,1/3+z
2/3-y,1/3+x-y,1/3+z
2/3-x+y,1/3-x,1/3+z
2/3+x-y,1/3-y,1/3-z
2/3-x,1/3-x+y,1/3-z
2/3+y,1/3+x,1/3-z
1/3+x,2/3+y,2/3+z
1/3-y,2/3+x-y,2/3+z
1/3-x+y,2/3-x,2/3+z
1/3+x-y,2/3-y,2/3-z
1/3-x,2/3-x+y,2/3-z
1/3+y,2/3+x,2/3-z
loop_
_atom_site_type_symbol
_atom_site_label
_atom_site_fract_x
_atom_site_fract_y
_atom_site_fract_z
Si Si1 0.977042 0.213686 0.687413
Si Si2 0.521590 0.521590 0.500000
Si Si3 0.615985 0.000000 0.000000
Si Si4 0.481637 0.890581 0.776734
O O1 0.925127 0.258461 0.666667
O O2 0.934183 0.139153 0.810629
O O3 0.000000 0.200456 0.500000
O O4 0.060787 0.268724 0.768763
O O5 0.458306 0.495040 0.648652
O O6 0.648912 0.982246 0.166667
O O7 0.611668 0.075590 0.057394
O O8 0.496753 0.830086 0.666667
#
# Coordination Sequence:
#
# PCOD9577163 Si02
#       4
#    18   9   9  18
#     4  12  21  39  68 105 145 188 242 304 375 448
#     4  12  22  42  70 104 144 188 244 306 382 448
#     4  12  22  40  60  88 144 202 242 290 366 440
#     4  12  24  39  63 105 150 192 244 308 374 460
#
# _framework density 20.317257000000001
#
# number of rings (size 3 to 8) (size 9 to 14) (size 15 to 20)
#    0.000    0.000    8.333    3.000    0.000    0.000 
#    0.000    0.000    0.000    5.333    0.000    9.333 
#    0.000    0.000    0.000    0.000    0.000    0.000 
#
# Total GULP energy -100459.629571 kJ/mol
# GULP energy per Si atom -5581.090532 kJ/mol
# Density = 2.027101 g / cm^3
# Si number density = 20.317257 Si / 1000 Ang^3
#
#
#
# Elastic Constant Matrix: (Units=GPa)
#
#
# Indices 1 2 3 4 5 6 
#
# 1 90.7256 26.9661 44.5736 9.5514 0.0020 0.0009
# 2 26.9661 90.7245 44.5671 -9.5494 0.0006 -0.0003
# 3 44.5736 44.5671 142.6620 0.0111 0.0033 0.0018
# 4 9.5514 -9.5494 0.0111 8.1027 0.0009 0.0012
# 5 0.0020 0.0006 0.0033 0.0009 8.0963 9.5491
# 6 0.0009 -0.0003 0.0018 0.0012 9.5491 31.8787
#
#
#
# Elastic Compliance Matrix: (Units=1/GPa)
#
#
# Indices 1 2 3 4 5 6 
#
# 1 0.017687 -0.006557 -0.003475 -0.028572 0.000000 0.000001
# 2 -0.006557 0.017689 -0.003479 0.028582 -0.000001 0.000000
# 3 -0.003475 -0.003479 0.009182 -0.000016 -0.000003 0.000001
# 4 -0.028572 0.028582 -0.000016 0.190781 -0.000013 -0.000002
# 5 0.000000 -0.000001 -0.000003 -0.000013 0.190987 -0.057209
# 6 0.000001 0.000000 0.000001 -0.000002 -0.057209 0.048506
#
#
# Mechanical properties :
#
#
# Convention : Reuss Voigt Hill
#
# Bulk Modulus (GPa) = 57.03203 61.81396 59.42299
# Shear Modulus (GPa) = 9.84832 23.48256 16.66544
#
# Velocity S-wave (km/s) = 2.20404 3.40339 2.86713
# Velocity P-wave (km/s) = 5.88292 6.77750 6.34599
#
# Compressibility (1/GPa) = 0.01753401
#
# Stress axis : x y z
#
# Youngs Moduli (GPa) = 56.53949 56.53210 108.90384
#
# Poissons Ratio (x) = 0.37069 0.37849
# Poissons Ratio (y) = 0.37074 0.37893
# Poissons Ratio (z) = 0.19650 0.19670
#
# Static dielectric constant tensor:
#      x y z
#    x 2.101360 -0.000080 0.000030 
#    y -0.000080 2.101320 0.000060 
#    z 0.000030 0.000060 1.608930 
# 
# From -- ./inp_files/1944.got.cif
#   From: 2010.05.17/outbox.cif.g08.bks.cpg/sg155_1_cif.got.tgz:1944.got - 2010.05.20 10:44:35.
