data_PCOD9577166
_publ_section_title
;
Structure prediction by ZEFSAII (Michael W. Deem and Ramdas Pophale) SiO2 
 PCOD9577166
Probable space group: R 3 2
;
_chemical_formula_sum "Si O2"
_cell_formula_units_Z 84
_cell_length_a 15.876095
_cell_length_b 15.876095
_cell_length_c 15.910448
_cell_angle_alpha 90.000000
_cell_angle_beta 90.000000
_cell_angle_gamma 120.000000
_cell_volume 3472.965093
_symmetry_space_group_name_H-M "R 3 2"
_symmetry_group_IT_number 155
_symmetry_cell_setting 'hexagonal'
loop_
_space_group_symop_operation_xyz
x,y,z
-y,x-y,z
-x+y,-x,z
x-y,-y,-z
-x,-x+y,-z
y,x,-z
2/3+x,1/3+y,1/3+z
2/3-y,1/3+x-y,1/3+z
2/3-x+y,1/3-x,1/3+z
2/3+x-y,1/3-y,1/3-z
2/3-x,1/3-x+y,1/3-z
2/3+y,1/3+x,1/3-z
1/3+x,2/3+y,2/3+z
1/3-y,2/3+x-y,2/3+z
1/3-x+y,2/3-x,2/3+z
1/3+x-y,2/3-y,2/3-z
1/3-x,2/3-x+y,2/3-z
1/3+y,2/3+x,2/3-z
loop_
_atom_site_type_symbol
_atom_site_label
_atom_site_fract_x
_atom_site_fract_y
_atom_site_fract_z
Si Si1 0.860466 0.494220 0.748122
Si Si2 0.892266 0.470352 0.168005
Si Si3 0.878716 0.666667 0.166667
Si Si4 0.445728 0.003697 0.675098
Si Si5 0.666668 0.333334 0.722819
Si Si6 0.207707 0.333334 0.333334
Si Si7 0.666667 0.333334 0.525371
O O1 0.888397 0.555064 0.833334
O O2 0.745018 0.438478 0.751983
O O3 0.891293 0.576529 0.680311
O O4 0.894774 0.420071 0.718418
O O5 0.887875 0.569872 0.170822
O O6 0.934050 0.455101 0.255426
O O7 0.960775 0.476871 0.086902
O O8 0.780352 0.383599 0.164238
O O9 0.820036 0.666960 0.250052
O O10 0.333334 0.973382 0.666667
O O11 0.666668 0.333334 0.624727
#
# Coordination Sequence:
#
# PCOD9577166 Si02
#       7
#    18  18   9  18   6   9   6
#     4  12  25  48  76 113 153 208 268 332 404 492
#     4  12  25  45  78 112 156 208 269 331 415 494
#     4  12  24  46  74 108 156 206 270 334 404 506
#     4  12  27  48  76 117 162 208 271 341 408 483
#     4  12  25  49  75 112 155 206 268 334 406 490
#     4  12  22  42  80 110 148 206 268 326 400 500
#     4  12  24  46  74 112 157 206 256 339 419 503
#
# _framework density 24.186824999999999
#
# number of rings (size 3 to 8) (size 9 to 14) (size 15 to 20)
#    0.000    0.000    6.429    3.857    0.000    0.000 
#    5.786    2.143    0.000    0.000    0.000    0.000 
#    0.000    0.000    0.000    0.000    0.000    0.000 
#
# Total GULP energy -156249.260926 kJ/mol
# GULP energy per Si atom -5580.330747 kJ/mol
# Density = 2.413178 g / cm^3
# Si number density = 24.186825 Si / 1000 Ang^3
#
#
#
# Elastic Constant Matrix: (Units=GPa)
#
#
# Indices 1 2 3 4 5 6 
#
# 1 190.9065 -40.0796 40.0337 -21.0489 0.0020 0.0000
# 2 -40.0796 190.8943 40.0386 21.0495 -0.0020 0.0000
# 3 40.0337 40.0386 170.9331 0.0006 0.0000 0.0000
# 4 -21.0489 21.0495 0.0006 29.6633 0.0000 -0.0020
# 5 0.0020 -0.0020 0.0000 0.0000 29.6595 -21.0262
# 6 0.0000 0.0000 0.0000 -0.0020 -21.0262 115.3918
#
#
#
# Elastic Compliance Matrix: (Units=1/GPa)
#
#
# Indices 1 2 3 4 5 6 
#
# 1 0.006272 0.001300 -0.001773 0.003528 0.000000 0.000000
# 2 0.001300 0.006273 -0.001774 -0.003529 0.000000 0.000000
# 3 -0.001773 -0.001774 0.006681 0.000000 0.000000 0.000000
# 4 0.003528 -0.003529 0.000000 0.038719 0.000000 0.000001
# 5 0.000000 0.000000 0.000000 0.000000 0.038717 0.007055
# 6 0.000000 0.000000 0.000000 0.000001 0.007055 0.009952
#
#
# Mechanical properties :
#
#
# Convention : Reuss Voigt Hill
#
# Bulk Modulus (GPa) = 67.88449 70.30212 69.09330
# Shear Modulus (GPa) = 43.09648 69.12565 56.11106
#
# Velocity S-wave (km/s) = 4.22574 5.35181 4.82176
# Velocity P-wave (km/s) = 7.20672 8.20479 7.72190
#
# Compressibility (1/GPa) = 0.01473091
#
# Stress axis : x y z
#
# Youngs Moduli (GPa) = 159.44031 159.42590 149.67752
#
# Poissons Ratio (x) = -0.20721 0.26544
# Poissons Ratio (y) = -0.20723 0.26547
# Poissons Ratio (z) = 0.28275 0.28276
#
# Static dielectric constant tensor:
#      x y z
#    x 0.706230 0.000000 0.000000 
#    y 0.000000 0.707190 -0.000030 
#    z 0.000000 -0.000030 2.047780 
# 
# From -- ./inp_files/5031.got.cif
#   From: 2010.05.17/outbox.cif.g08.bks.cpg/sg155_3_cif.got.tgz:5031.got - 2010.05.20 10:44:35.
