data_PCOD9577798
_publ_section_title
;
Structure prediction by ZEFSAII (Michael W. Deem and Ramdas Pophale) SiO2 
 PCOD9577798
Probable space group: P -3 1 M 
;
_chemical_formula_sum "Si O2"
_cell_formula_units_Z 64
_cell_length_a 13.610905
_cell_length_b 13.610905
_cell_length_c 17.899563
_cell_angle_alpha 90.000000
_cell_angle_beta 90.000000
_cell_angle_gamma 120.000000
_cell_volume 2871.752881
_symmetry_space_group_name_H-M "P -3 1 M "
_symmetry_group_IT_number 162
_symmetry_cell_setting 'hexagonal'
loop_
_space_group_symop_operation_xyz
x,y,z
-y,x-y,z
-x+y,-x,z
-y,-x,-z
-x+y,y,-z
x,x-y,-z
-x,-y,-z
y,-x+y,-z
x-y,x,-z
y,x,z
x-y,-y,z
-x,-x+y,z
loop_
_atom_site_type_symbol
_atom_site_label
_atom_site_fract_x
_atom_site_fract_y
_atom_site_fract_z
Si Si1 0.875464 0.413097 0.703057
Si Si2 0.231445 0.407452 0.770917
Si Si3 0.865402 0.293354 0.068327
Si Si4 0.666668 0.333334 0.912211
Si Si5 0.866823 0.546050 0.451336
Si Si6 0.124884 0.248046 0.637567
O O1 0.880212 0.524739 0.733723
O O2 0.804066 0.307093 0.756672
O O3 0.843723 0.387594 0.615651
O O4 0.000000 0.430148 0.705421
O O5 0.226993 0.369541 0.855688
O O6 0.156387 0.299410 0.720140
O O7 0.793019 0.352202 0.099582
O O8 0.000000 0.378536 0.050520
O O9 0.791581 0.208420 0.000000
O O10 0.666668 0.333334 0.000000
O O11 0.752344 0.504688 0.500000
O O12 0.871780 0.653394 0.411078
O O13 0.000000 0.598144 0.479580
O O14 0.215334 0.215334 0.609919
O O15 0.000000 0.142369 0.635138
#
# Coordination Sequence:
#
# PCOD9577798 Si02
#       6
#    12  12  12   4  12  12
#     4  10  21  37  60  88 117 154 201 248 295 354
#     4  11  21  38  60  85 117 156 198 244 297 355
#     4  11  24  40  62  93 126 161 203 253 311 372
#     4   9  21  39  60  87 117 150 190 239 295 354
#     4   9  18  33  54  82 116 152 192 242 298 353
#     4  10  20  34  54  79 109 149 197 247 297 351
#
# _framework density 22.286041000000001
#
# number of rings (size 3 to 8) (size 9 to 14) (size 15 to 20)
#    0.000    1.875    0.000    5.625    0.000    4.875 
#    0.000    3.750    0.000   13.312    0.000    0.000 
#    0.000    0.750    0.000    0.000    0.000    0.000 
#
# Total GULP energy -356430.897099 kJ/mol
# GULP energy per Si atom -5569.232767 kJ/mol
# Density = 2.223532 g / cm^3
# Si number density = 22.286041 Si / 1000 Ang^3
#
#
#
# Elastic Constant Matrix: (Units=GPa)
#
#
# Indices 1 2 3 4 5 6 
#
# 1 81.8641 48.0576 42.0006 0.0001 -13.2243 0.0001
# 2 48.0576 81.8641 42.0005 0.0001 13.2243 0.0001
# 3 42.0006 42.0005 101.6352 0.0001 0.0001 0.0000
# 4 0.0001 0.0001 0.0001 -8.8341 0.0000 13.2244
# 5 -13.2243 13.2243 0.0001 0.0000 -8.8340 0.0002
# 6 0.0001 0.0001 0.0000 13.2244 0.0002 16.9031
#
#
#
# Elastic Compliance Matrix: (Units=1/GPa)
#
#
# Indices 1 2 3 4 5 6 
#
# 1 0.012064 -0.001560 -0.004340 0.000000 -0.020395 0.000000
# 2 -0.001560 0.012064 -0.004340 0.000000 0.020395 0.000000
# 3 -0.004340 -0.004340 0.013426 0.000000 0.000000 0.000000
# 4 0.000000 0.000000 0.000000 -0.052136 0.000000 0.040790
# 5 -0.020395 0.020395 0.000000 0.000000 -0.052137 0.000000
# 6 0.000000 0.000000 0.000000 0.040790 0.000000 0.027248
#
#
# Mechanical properties :
#
#
# Convention : Reuss Voigt Hill
#
# Bulk Modulus (GPa) = 58.57822 58.83123 58.70473
# Shear Modulus (GPa) = -375.98072 8.73396 -183.62338
#
# Velocity S-wave (km/s) = -13.00281 1.98180 -9.08696
# Velocity P-wave (km/s) = 14.10989 5.62959 9.14868
#
# Compressibility (1/GPa) = 0.01707119
#
# Stress axis : x y z
#
# Youngs Moduli (GPa) = 82.89328 82.89351 74.47967
#
# Poissons Ratio (x) = 0.12935 0.32328
# Poissons Ratio (y) = 0.12935 0.32328
# Poissons Ratio (z) = 0.35980 0.35980
#
# Static dielectric constant tensor:
#      x y z
#    x 1.928520 0.000000 0.000000 
#    y 0.000000 1.928520 0.000000 
#    z 0.000000 0.000000 1.875540 
# 
# From -- ./inp_files/3477.got.cif
#   From: 2010.05.17/outbox.cif.g08.bks.cpg/sg162_2_cif.got.tgz:3477.got - 2010.05.20 10:53:12.
