data_PCOD9577120
_publ_section_title
;
Structure prediction by ZEFSAII (Michael W. Deem and Ramdas Pophale) SiO2 
 PCOD9577120
Probable space group: R 3 2
;
_chemical_formula_sum "Si O2"
_cell_formula_units_Z 108
_cell_length_a 16.840947
_cell_length_b 16.840947
_cell_length_c 22.125100
_cell_angle_alpha 90.000000
_cell_angle_beta 90.000000
_cell_angle_gamma 120.000000
_cell_volume 5434.366097
_symmetry_space_group_name_H-M "R 3 2"
_symmetry_group_IT_number 155
_symmetry_cell_setting 'hexagonal'
loop_
_space_group_symop_operation_xyz
x,y,z
-y,x-y,z
-x+y,-x,z
x-y,-y,-z
-x,-x+y,-z
y,x,-z
2/3+x,1/3+y,1/3+z
2/3-y,1/3+x-y,1/3+z
2/3-x+y,1/3-x,1/3+z
2/3+x-y,1/3-y,1/3-z
2/3-x,1/3-x+y,1/3-z
2/3+y,1/3+x,1/3-z
1/3+x,2/3+y,2/3+z
1/3-y,2/3+x-y,2/3+z
1/3-x+y,2/3-x,2/3+z
1/3+x-y,2/3-y,2/3-z
1/3-x,2/3-x+y,2/3-z
1/3+y,2/3+x,2/3-z
loop_
_atom_site_type_symbol
_atom_site_label
_atom_site_fract_x
_atom_site_fract_y
_atom_site_fract_z
Si Si1 0.548392 0.734022 0.498723
Si Si2 0.781256 0.109956 0.065394
Si Si3 0.422396 0.967676 0.068978
Si Si4 0.017490 0.739889 0.430419
Si Si5 0.799249 0.526004 0.166977
Si Si6 0.205044 0.845176 0.061509
O O1 0.614833 0.728869 0.448191
O O2 0.518715 0.807294 0.479743
O O3 0.451942 0.642372 0.505654
O O4 0.606830 0.766825 0.560463
O O5 0.779194 0.177608 0.115473
O O6 0.829737 0.062238 0.100057
O O7 0.674955 0.029036 0.060324
O O8 0.835773 0.166417 0.006676
O O9 0.495464 0.936951 0.089010
O O10 0.314548 0.892967 0.069336
O O11 0.444166 0.000000 0.000000
O O12 0.000000 0.706492 0.500000
O O13 0.927846 0.745577 0.414034
#
# Coordination Sequence:
#
# PCOD9577120 Si02
#       6
#    18  18  18  18  18  18
#     4  12  25  44  67 100 136 177 224 295 343 407
#     4  11  21  44  68  97 125 187 227 270 340 431
#     4  12  26  45  68 103 137 179 229 283 342 405
#     4  12  22  47  76  97 134 187 233 280 346 415
#     4  11  24  42  67  96 133 173 233 275 347 408
#     4  12  26  41  69 102 137 175 226 284 347 401
#
# _framework density 19.873524
#
# number of rings (size 3 to 8) (size 9 to 14) (size 15 to 20)
#    0.000    0.333    6.667    3.333    7.000    0.000 
#    1.000    0.000    0.000    2.000    0.000    0.000 
#    0.000    0.000    0.000    0.000    0.000    0.000 
#
# Total GULP energy -200933.572000 kJ/mol
# GULP energy per Si atom -5581.488111 kJ/mol
# Density = 1.982829 g / cm^3
# Si number density = 19.873524 Si / 1000 Ang^3
#
#
#
# Elastic Constant Matrix: (Units=GPa)
#
#
# Indices 1 2 3 4 5 6 
#
# 1 104.5665 34.4822 31.8957 -1.1967 0.0000 0.0000
# 2 34.4822 104.5665 31.8957 1.1967 0.0000 0.0000
# 3 31.8957 31.8957 125.4268 0.0000 0.0000 0.0000
# 4 -1.1967 1.1967 0.0000 12.5303 0.0000 0.0000
# 5 0.0000 0.0000 0.0000 0.0000 12.5303 -1.1967
# 6 0.0000 0.0000 0.0000 0.0000 -1.1967 35.0422
#
#
#
# Elastic Compliance Matrix: (Units=1/GPa)
#
#
# Indices 1 2 3 4 5 6 
#
# 1 0.011228 -0.003087 -0.002070 0.001367 0.000000 0.000000
# 2 -0.003087 0.011228 -0.002070 -0.001367 0.000000 0.000000
# 3 -0.002070 -0.002070 0.009026 0.000000 0.000000 0.000000
# 4 0.001367 -0.001367 0.000000 0.080067 0.000000 0.000000
# 5 0.000000 0.000000 0.000000 0.000000 0.080067 0.002734
# 6 0.000000 0.000000 0.000000 0.000000 0.002734 0.028630
#
#
# Mechanical properties :
#
#
# Convention : Reuss Voigt Hill
#
# Bulk Modulus (GPa) = 58.72901 59.01190 58.87045
# Shear Modulus (GPa) = 20.80050 27.77299 24.28675
#
# Velocity S-wave (km/s) = 3.23870 3.74235 3.49960
# Velocity P-wave (km/s) = 6.60311 6.95930 6.78354
#
# Compressibility (1/GPa) = 0.01702736
#
# Stress axis : x y z
#
# Youngs Moduli (GPa) = 89.06005 89.06005 110.79403
#
# Poissons Ratio (x) = 0.27491 0.22939
# Poissons Ratio (y) = 0.27491 0.22939
# Poissons Ratio (z) = 0.18439 0.18439
#
# Static dielectric constant tensor:
#      x y z
#    x 1.720520 0.000000 0.000000 
#    y 0.000000 1.720520 0.000000 
#    z 0.000000 0.000000 1.736380 
# 
# From -- ./inp_files/6966.got.cif
#   From: 2010.05.17/outbox.cif.g08.bks.cpg/sg155_4_cif.got.tgz:6966.got - 2010.05.20 10:44:35.
