data_PCOD9577197
_publ_section_title
;
Structure prediction by ZEFSAII (Michael W. Deem and Ramdas Pophale) SiO2 
 PCOD9577197
Probable space group: P 3 M 1
;
_chemical_formula_sum "Si O2"
_cell_formula_units_Z 36
_cell_length_a 22.741220
_cell_length_b 22.741220
_cell_length_c 5.184257
_cell_angle_alpha 90.000000
_cell_angle_beta 90.000000
_cell_angle_gamma 120.000000
_cell_volume 2321.906213
_symmetry_space_group_name_H-M "P 3 M 1"
_symmetry_group_IT_number 156
_symmetry_cell_setting 'hexagonal'
loop_
_space_group_symop_operation_xyz
x,y,z
-y,x-y,z
-x+y,-x,z
-x+y,y,z
x,x-y,z
-y,-x,z
loop_
_atom_site_type_symbol
_atom_site_label
_atom_site_fract_x
_atom_site_fract_y
_atom_site_fract_z
Si Si1 0.176084 0.154099 0.704970
Si Si2 0.963045 0.304414 0.243727
Si Si3 0.894425 0.662070 0.742513
Si Si4 0.052902 0.818134 0.208136
Si Si5 0.481749 0.381116 0.088486
Si Si6 0.666177 0.472825 0.595188
O O1 0.146318 0.073159 0.712340
O O2 0.257323 0.187532 0.699391
O O3 0.161287 0.183921 0.450321
O O4 0.164190 0.187365 0.956751
O O5 0.935022 0.290762 0.534001
O O6 0.964309 0.372019 0.143399
O O7 0.024196 0.287643 0.219777
O O8 0.906721 0.251594 0.042575
O O9 0.815345 0.630689 0.682716
O O10 0.133933 0.866068 0.208961
O O11 0.541078 0.458923 0.071054
O O12 0.500203 0.347508 0.327337
O O13 0.486522 0.343802 0.831163
O O14 0.737703 0.475405 0.599733
O O15 0.604929 0.395072 0.624431
#
# Coordination Sequence:
#
# PCOD9577197 Si02
#       6
#     6   6   6   6   6   6
#     4   9  17  30  46  63  85 110 133 161 201 247
#     4  10  19  30  44  62  84 108 133 168 212 248
#     4   9  17  27  42  64  84 103 130 164 202 241
#     4  10  19  31  48  67  85 106 136 174 214 252
#     4  10  21  33  44  61  85 112 142 174 208 252
#     4  10  20  33  47  63  85 113 145 179 213 246
#
# _framework density 15.504503
#
# number of rings (size 3 to 8) (size 9 to 14) (size 15 to 20)
#    0.000    2.333    0.000    3.167    0.000    8.000 
#    0.000    1.667    0.000    6.667    0.000    0.000 
#    0.000    0.000    0.000    0.500    0.000    0.000 
#
# Total GULP energy -200446.242524 kJ/mol
# GULP energy per Si atom -5567.951181 kJ/mol
# Density = 1.546921 g / cm^3
# Si number density = 15.504503 Si / 1000 Ang^3
#
#
#
# Elastic Constant Matrix: (Units=GPa)
#
#
# Indices 1 2 3 4 5 6 
#
# 1 62.7500 51.0567 18.5230 6.6635 0.0002 0.0000
# 2 51.0567 62.7500 18.5230 -6.6635 -0.0002 0.0000
# 3 18.5230 18.5230 104.0125 0.0000 0.0000 0.0000
# 4 6.6635 -6.6635 0.0000 -3.8717 0.0000 -0.0002
# 5 0.0002 -0.0002 0.0000 0.0000 -3.8717 6.6635
# 6 0.0000 0.0000 0.0000 -0.0002 6.6635 5.8467
#
#
#
# Elastic Compliance Matrix: (Units=1/GPa)
#
#
# Indices 1 2 3 4 5 6 
#
# 1 0.019102 -0.009774 -0.001661 0.049699 0.000001 0.000000
# 2 -0.009774 0.019102 -0.001661 -0.049699 -0.000001 0.000000
# 3 -0.001661 -0.001661 0.010206 0.000000 0.000000 0.000000
# 4 0.049699 -0.049699 0.000000 -0.087213 0.000000 -0.000003
# 5 0.000001 -0.000001 0.000000 0.000000 -0.087213 0.099398
# 6 0.000000 0.000000 0.000000 -0.000003 0.099398 0.057752
#
#
# Mechanical properties :
#
#
# Convention : Reuss Voigt Hill
#
# Bulk Modulus (GPa) = 45.01141 45.07975 45.04558
# Shear Modulus (GPa) = -144.23847 9.04799 -67.59524
#
# Velocity S-wave (km/s) = -9.65567 2.41834 -6.60998
# Velocity P-wave (km/s) = 9.75782 6.07752 5.39810
#
# Compressibility (1/GPa) = 0.02221659
#
# Stress axis : x y z
#
# Youngs Moduli (GPa) = 52.35086 52.35086 97.98297
#
# Poissons Ratio (x) = 0.51170 0.16276
# Poissons Ratio (y) = 0.51170 0.16276
# Poissons Ratio (z) = 0.08696 0.08696
#
# Static dielectric constant tensor:
#      x y z
#    x 1.545290 0.000000 0.000000 
#    y 0.000000 1.545290 0.000000 
#    z 0.000000 0.000000 1.536250 
# 
# From -- ./inp_files/216.got.cif
#   From: 2010.05.17/outbox.cif.g08.bks.cpg/sg156_cif.got.tgz:216.got - 2010.05.20 10:49:08.
