data_PCOD9577461
_publ_section_title
;
Structure prediction by ZEFSAII (Michael W. Deem and Ramdas Pophale) SiO2 
 PCOD9577461
Probable space group: R 3 M
;
_chemical_formula_sum "Si O2"
_cell_formula_units_Z 126
_cell_length_a 17.410049
_cell_length_b 17.410049
_cell_length_c 25.885987
_cell_angle_alpha 90.000000
_cell_angle_beta 90.000000
_cell_angle_gamma 120.000000
_cell_volume 6795.092097
_symmetry_space_group_name_H-M "R 3 M"
_symmetry_group_IT_number 160
_symmetry_cell_setting 'hexagonal'
loop_
_space_group_symop_operation_xyz
x,y,z
-y,x-y,z
-x+y,-x,z
-x+y,y,z
x,x-y,z
-y,-x,z
2/3+x,1/3+y,1/3+z
2/3-y,1/3+x-y,1/3+z
2/3-x+y,1/3-x,1/3+z
2/3-x+y,1/3+y,1/3+z
2/3+x,1/3+x-y,1/3+z
2/3-y,1/3-x,1/3+z
1/3+x,2/3+y,2/3+z
1/3-y,2/3+x-y,2/3+z
1/3-x+y,2/3-x,2/3+z
1/3-x+y,2/3+y,2/3+z
1/3+x,2/3+x-y,2/3+z
1/3-y,2/3-x,2/3+z
loop_
_atom_site_type_symbol
_atom_site_label
_atom_site_fract_x
_atom_site_fract_y
_atom_site_fract_z
Si Si1 0.253431 0.917973 0.004633
Si Si2 0.251308 0.331214 0.181262
Si Si3 0.999446 0.820461 0.597658
Si Si4 0.618422 0.058260 0.042033
Si Si5 0.666667 0.502347 0.592946
Si Si6 0.333888 0.487681 0.588239
Si Si7 0.058262 0.439840 0.477196
O O1 0.160804 0.839197 0.027675
O O2 0.291930 0.869938 0.968735
O O3 0.228402 0.975106 0.965859
O O4 0.337497 0.980902 0.039211
O O5 0.172532 0.345064 0.158218
O O6 0.308441 0.413377 0.220034
O O7 0.203273 0.244682 0.217161
O O8 0.314239 0.310074 0.146685
O O9 0.924478 0.848955 0.593592
O O10 0.986704 0.777239 0.654494
O O11 0.096856 0.903145 0.591525
O O12 0.513992 0.027984 0.044403
O O13 0.666667 0.115171 0.092948
O O14 0.744422 0.488843 0.615243
O O15 0.588905 0.411096 0.570644
O O16 0.236478 0.472956 0.594373
O O17 0.408857 0.591144 0.592308
O O18 0.346630 0.457207 0.531401
O O19 0.027983 0.513992 0.474826
#
# Coordination Sequence:
#
# PCOD9577461 Si02
#       7
#    18  18  18  18  18  18  18
#     4  10  20  35  56  78 107 140 176 224 271 315
#     4  10  20  35  56  78 107 140 176 224 271 315
#     4  10  20  35  55  80 108 141 179 223 271 320
#     4  11  22  36  54  79 109 143 180 221 266 321
#     4  10  17  30  51  78 106 134 168 212 265 318
#     4  10  20  35  55  80 108 141 179 223 271 320
#     4  11  22  36  54  79 109 143 180 221 266 321
#
# _framework density 18.542795000000002
#
# number of rings (size 3 to 8) (size 9 to 14) (size 15 to 20)
#    0.000    1.714    2.857    2.143    0.000    4.000 
#    0.000    0.000    0.000    5.143    0.000    2.000 
#    0.000    0.000    0.000    0.000    0.000    0.000 
#
# Total GULP energy -234144.917458 kJ/mol
# GULP energy per Si atom -5574.878987 kJ/mol
# Density = 1.850059 g / cm^3
# Si number density = 18.542795 Si / 1000 Ang^3
#
#
#
# Elastic Constant Matrix: (Units=GPa)
#
#
# Indices 1 2 3 4 5 6 
#
# 1 113.0629 85.3767 45.9524 9.8732 -0.0019 0.0000
# 2 85.3767 113.0629 45.9524 -9.8732 0.0019 0.0000
# 3 45.9524 45.9524 71.8379 0.0000 0.0000 0.0000
# 4 9.8732 -9.8732 0.0000 11.0165 0.0000 0.0019
# 5 -0.0019 0.0019 0.0000 0.0000 11.0165 9.8732
# 6 0.0000 0.0000 0.0000 0.0019 9.8732 13.8431
#
#
#
# Elastic Compliance Matrix: (Units=1/GPa)
#
#
# Indices 1 2 3 4 5 6 
#
# 1 0.053636 -0.046475 -0.004580 -0.089722 0.000017 0.000000
# 2 -0.046475 0.053636 -0.004580 0.089722 -0.000017 0.000000
# 3 -0.004580 -0.004580 0.019780 0.000000 0.000000 0.000000
# 4 -0.089722 0.089722 0.000000 0.251595 0.000000 -0.000034
# 5 0.000017 -0.000017 0.000000 0.000000 0.251595 -0.179443
# 6 0.000000 0.000000 0.000000 -0.000034 -0.179443 0.200221
#
#
# Mechanical properties :
#
#
# Convention : Reuss Voigt Hill
#
# Bulk Modulus (GPa) = 63.37249 72.50294 67.93772
# Shear Modulus (GPa) = 5.27987 15.22070 10.25029
#
# Velocity S-wave (km/s) = 1.68925 2.86814 2.35370
# Velocity P-wave (km/s) = 6.16890 7.08192 6.64112
#
# Compressibility (1/GPa) = 0.01577972
#
# Stress axis : x y z
#
# Youngs Moduli (GPa) = 18.64432 18.64432 50.55563
#
# Poissons Ratio (x) = 0.86649 0.23157
# Poissons Ratio (y) = 0.86649 0.23157
# Poissons Ratio (z) = 0.08540 0.08540
#
# Static dielectric constant tensor:
#      x y z
#    x 1.663380 0.000000 0.000000 
#    y 0.000000 1.663380 0.000000 
#    z 0.000000 0.000000 1.636940 
# 
# From -- ./inp_files/3790.got.cif
#   From: 2010.05.17/outbox.cif.g08.bks.cpg/sg160_2_cif.got.tgz:3790.got - 2010.05.20 10:51:19.
