data_PCOD9577285
_publ_section_title
;
Structure prediction by ZEFSAII (Michael W. Deem and Ramdas Pophale) SiO2 
 PCOD9577285
Probable space group: P 3 C 1
;
_chemical_formula_sum "Si O2"
_cell_formula_units_Z 48
_cell_length_a 17.815495
_cell_length_b 17.815495
_cell_length_c 9.668807
_cell_angle_alpha 90.000000
_cell_angle_beta 90.000000
_cell_angle_gamma 120.000000
_cell_volume 2657.659329
_symmetry_space_group_name_H-M "P 3 C 1"
_symmetry_group_IT_number 158
_symmetry_cell_setting 'hexagonal'
loop_
_space_group_symop_operation_xyz
x,y,z
-y,x-y,z
-x+y,-x,z
-x+y,y,1/2+z
x,x-y,1/2+z
-y,-x,1/2+z
loop_
_atom_site_type_symbol
_atom_site_label
_atom_site_fract_x
_atom_site_fract_y
_atom_site_fract_z
Si Si1 0.394818 0.963929 0.108110
Si Si2 0.347680 0.250463 0.970708
Si Si3 0.569618 0.962608 0.102403
Si Si4 0.139569 0.146054 0.968853
Si Si5 0.755300 0.103783 0.648638
Si Si6 0.003532 0.859456 0.644978
Si Si7 0.154270 0.666929 0.348093
Si Si8 0.333671 0.841411 0.350216
O O1 0.494155 0.986943 0.110578
O O2 0.350275 0.921373 0.253324
O O3 0.387157 0.047892 0.082481
O O4 0.346183 0.886043 0.999810
O O5 0.243025 0.206422 0.971392
O O6 0.374204 0.253262 0.810484
O O7 0.384362 0.343804 0.040457
O O8 0.370050 0.188941 0.062453
O O9 0.575826 0.924820 0.249074
O O10 0.532941 0.878625 0.003630
O O11 0.112653 0.128236 0.806799
O O12 0.118858 0.060779 0.057599
O O13 0.091331 0.186487 0.055640
O O14 0.798185 0.042364 0.644714
O O15 0.241413 0.757260 0.329082
O O16 0.174758 0.588847 0.321395
#
# Coordination Sequence:
#
# PCOD9577285 Si02
#       8
#     6   6   6   6   6   6   6   6
#     4  10  21  38  58  84 116 153 192 239 291 345
#     4  10  22  40  59  82 111 142 186 238 290 347
#     4  10  21  38  58  84 116 153 192 239 291 345
#     4  10  20  34  52  74 105 143 183 227 272 324
#     4  10  22  40  59  82 111 142 186 238 290 347
#     4  10  20  34  52  74 105 143 183 227 272 324
#     4  10  21  32  57  84 118 166 206 238 283 338
#     4  10  19  36  53  82 124 160 204 246 281 326
#
# _framework density 18.061005999999999
#
# number of rings (size 3 to 8) (size 9 to 14) (size 15 to 20)
#    0.000    2.000    1.250    2.000    1.750    3.000 
#    0.000    2.500    0.000    0.500    0.000    0.000 
#    0.000    0.000    0.000    0.000    0.000    0.000 
#
# Total GULP energy -267773.932035 kJ/mol
# GULP energy per Si atom -5578.623584 kJ/mol
# Density = 1.801990 g / cm^3
# Si number density = 18.061006 Si / 1000 Ang^3
#
#
#
# Elastic Constant Matrix: (Units=GPa)
#
#
# Indices 1 2 3 4 5 6 
#
# 1 65.8135 46.1193 18.9985 -3.1252 0.0000 0.0000
# 2 46.1193 65.8135 18.9985 3.1252 0.0000 0.0000
# 3 18.9985 18.9985 85.5087 0.0000 0.0000 0.0000
# 4 -3.1252 3.1252 0.0000 18.7769 0.0000 0.0000
# 5 0.0000 0.0000 0.0000 0.0000 18.7769 -3.1252
# 6 0.0000 0.0000 0.0000 0.0000 -3.1252 9.8471
#
#
#
# Elastic Compliance Matrix: (Units=1/GPa)
#
#
# Indices 1 2 3 4 5 6 
#
# 1 0.031635 -0.021973 -0.002147 0.008922 0.000000 0.000000
# 2 -0.021973 0.031635 -0.002147 -0.008922 0.000000 0.000000
# 3 -0.002147 -0.002147 0.012649 0.000000 0.000000 0.000000
# 4 0.008922 -0.008922 0.000000 0.056227 0.000000 0.000000
# 5 0.000000 0.000000 0.000000 0.000000 0.056227 0.017845
# 6 0.000000 0.000000 0.000000 0.000000 0.017845 0.107216
#
#
# Mechanical properties :
#
#
# Convention : Reuss Voigt Hill
#
# Bulk Modulus (GPa) = 42.75950 42.81870 42.78910
# Shear Modulus (GPa) = 14.04819 18.34814 16.19816
#
# Velocity S-wave (km/s) = 2.79197 3.19077 2.99801
# Velocity P-wave (km/s) = 5.84122 6.11016 5.97720
#
# Compressibility (1/GPa) = 0.02338662
#
# Stress axis : x y z
#
# Youngs Moduli (GPa) = 31.61016 31.61016 79.05935
#
# Poissons Ratio (x) = 0.69456 0.16973
# Poissons Ratio (y) = 0.69456 0.16973
# Poissons Ratio (z) = 0.06786 0.06786
#
# Static dielectric constant tensor:
#      x y z
#    x 1.614440 0.000000 0.000000 
#    y 0.000000 1.614440 0.000000 
#    z 0.000000 0.000000 1.636560 
# 
# From -- ./inp_files/227.got.cif
#   From: 2010.05.17/outbox.cif.g08.bks.cpg/sg158_cif.got.tgz:227.got - 2010.05.20 10:49:59.
