data_PCOD9577383
_publ_section_title
;
Structure prediction by ZEFSAII (Michael W. Deem and Ramdas Pophale) SiO2 
 PCOD9577383
Probable space group: P 3 1 C
;
_chemical_formula_sum "Si O2"
_cell_formula_units_Z 34
_cell_length_a 14.888175
_cell_length_b 14.888175
_cell_length_c 9.044966
_cell_angle_alpha 90.000000
_cell_angle_beta 90.000000
_cell_angle_gamma 120.000000
_cell_volume 1736.282949
_symmetry_space_group_name_H-M "P 3 1 C"
_symmetry_group_IT_number 159
_symmetry_cell_setting 'hexagonal'
loop_
_space_group_symop_operation_xyz
x,y,z
-y,x-y,z
-x+y,-x,z
y,x,1/2+z
x-y,-y,1/2+z
-x,-x+y,1/2+z
loop_
_atom_site_type_symbol
_atom_site_label
_atom_site_fract_x
_atom_site_fract_y
_atom_site_fract_z
Si Si1 0.046867 0.399833 0.255360
Si Si2 0.666668 0.333335 0.815638
Si Si3 0.442666 0.248801 0.664321
Si Si4 0.022834 0.511418 0.493902
Si Si5 0.557335 0.751199 0.823491
Si Si6 0.333334 0.666668 0.672176
Si Si7 0.352964 0.399832 0.732445
O O1 0.131829 0.368380 0.222858
O O2 0.086945 0.474528 0.397282
O O3 0.041777 0.464506 0.114547
O O4 0.929116 0.316405 0.296290
O O5 0.552815 0.300957 0.748662
O O6 0.666668 0.333334 0.993907
O O7 0.461539 0.230769 0.493906
O O8 0.387288 0.316404 0.691519
O O9 0.958221 0.535493 0.373258
O O10 0.086944 0.612420 0.590522
O O11 0.447186 0.699046 0.739150
O O12 0.631621 0.868171 0.764951
#
# Coordination Sequence:
#
# PCOD9577383 Si02
#       7
#     6   2   6   6   6   2   6
#     4  11  24  40  66  87 132 164 220 257 324 371
#     4  12  28  35  64  99 130 173 229 249 316 380
#     4  12  26  44  61  94 130 179 209 271 318 381
#     4  10  20  38  62  92 120 168 200 270 304 382
#     4  12  26  44  61  94 130 179 209 271 318 381
#     4  12  28  35  64  99 130 173 229 249 316 380
#     4  11  24  40  66  87 132 164 220 257 324 371
#
# _framework density 19.582060999999999
#
# number of rings (size 3 to 8) (size 9 to 14) (size 15 to 20)
#    0.000    0.706    3.529    5.294    9.882    0.000 
#    0.000    0.000    0.000    0.706    0.000    0.000 
#    0.000    0.000    0.000    0.000    0.000    0.000 
#
# Total GULP energy -189854.827260 kJ/mol
# GULP energy per Si atom -5583.965508 kJ/mol
# Density = 1.953749 g / cm^3
# Si number density = 19.582061 Si / 1000 Ang^3
#
#
#
# Elastic Constant Matrix: (Units=GPa)
#
#
# Indices 1 2 3 4 5 6 
#
# 1 112.5529 69.5207 48.2995 0.0000 -5.2158 0.0000
# 2 69.5207 112.5529 48.2996 0.0000 5.2158 0.0000
# 3 48.2995 48.2996 153.4653 0.0000 0.0000 0.0000
# 4 0.0000 0.0000 0.0000 20.8860 0.0000 5.2158
# 5 -5.2158 5.2158 0.0000 0.0000 20.8861 0.0000
# 6 0.0000 0.0000 0.0000 5.2158 0.0000 21.5161
#
#
#
# Elastic Compliance Matrix: (Units=1/GPa)
#
#
# Indices 1 2 3 4 5 6 
#
# 1 0.015665 -0.009071 -0.002075 0.000000 0.006177 0.000000
# 2 -0.009071 0.015665 -0.002075 0.000000 -0.006177 0.000000
# 3 -0.002075 -0.002075 0.007822 0.000000 0.000000 0.000000
# 4 0.000000 0.000000 0.000000 0.050964 0.000000 -0.012354
# 5 0.006177 -0.006177 0.000000 0.000000 0.050964 0.000000
# 6 0.000000 0.000000 0.000000 -0.012354 0.000000 0.049472
#
#
# Mechanical properties :
#
#
# Convention : Reuss Voigt Hill
#
# Bulk Modulus (GPa) = 78.68767 78.97896 78.83332
# Shear Modulus (GPa) = 22.60092 26.82106 24.71099
#
# Velocity S-wave (km/s) = 3.40099 3.70493 3.55620
# Velocity P-wave (km/s) = 7.46278 7.66302 7.56356
#
# Compressibility (1/GPa) = 0.01270847
#
# Stress axis : x y z
#
# Youngs Moduli (GPa) = 63.83861 63.83860 127.83994
#
# Poissons Ratio (x) = 0.57910 0.26527
# Poissons Ratio (y) = 0.57910 0.26527
# Poissons Ratio (z) = 0.13247 0.13247
#
# Static dielectric constant tensor:
#      x y z
#    x 1.697610 0.000000 0.000000 
#    y 0.000000 1.697610 0.000000 
#    z 0.000000 0.000000 1.750180 
# 
# From -- ./inp_files/408.got.cif
#   From: 2010.05.17/outbox.cif.g08.bks.cpg/sg159_cif.got.tgz:408.got - 2010.05.20 10:50:30.
