data_PCOD9577132
_publ_section_title
;
Structure prediction by ZEFSAII (Michael W. Deem and Ramdas Pophale) SiO2 
 PCOD9577132
Probable space group: R 3 2
;
_chemical_formula_sum "Si O2"
_cell_formula_units_Z 48
_cell_length_a 11.884224
_cell_length_b 11.884224
_cell_length_c 21.072956
_cell_angle_alpha 90.000000
_cell_angle_beta 90.000000
_cell_angle_gamma 120.000000
_cell_volume 2577.494517
_symmetry_space_group_name_H-M "R 3 2"
_symmetry_group_IT_number 155
_symmetry_cell_setting 'hexagonal'
loop_
_space_group_symop_operation_xyz
x,y,z
-y,x-y,z
-x+y,-x,z
x-y,-y,-z
-x,-x+y,-z
y,x,-z
2/3+x,1/3+y,1/3+z
2/3-y,1/3+x-y,1/3+z
2/3-x+y,1/3-x,1/3+z
2/3+x-y,1/3-y,1/3-z
2/3-x,1/3-x+y,1/3-z
2/3+y,1/3+x,1/3-z
1/3+x,2/3+y,2/3+z
1/3-y,2/3+x-y,2/3+z
1/3-x+y,2/3-x,2/3+z
1/3+x-y,2/3-y,2/3-z
1/3-x,2/3-x+y,2/3-z
1/3+y,2/3+x,2/3-z
loop_
_atom_site_type_symbol
_atom_site_label
_atom_site_fract_x
_atom_site_fract_y
_atom_site_fract_z
Si Si1 0.000000 0.000000 0.847970
Si Si2 0.666668 0.333334 0.637264
Si Si3 0.661333 0.075387 0.228947
Si Si4 0.710866 0.822696 0.667866
O O1 0.990672 0.869099 0.873668
O O2 0.000000 0.000000 0.772170
O O3 0.650463 0.452819 0.660584
O O4 0.669698 0.003031 0.166667
O O5 0.790254 0.124150 0.271961
O O6 0.537264 0.991502 0.273143
O O7 0.631246 0.666667 0.666667
#
# Coordination Sequence:
#
# PCOD9577132 Si02
#       4
#     6   6  18  18
#     4  12  21  40  67 100 130 177 232 263 322 396
#     4  12  27  42  65 101 138 174 208 272 352 399
#     4  11  23  42  67  99 131 174 226 274 321 389
#     4  11  25  42  67  98 135 169 219 278 330 391
#
# _framework density 18.622736
#
# number of rings (size 3 to 8) (size 9 to 14) (size 15 to 20)
#    0.000    0.750    7.500    0.000    5.250    0.000 
#    0.000    5.625    0.000    0.000    0.000    0.000 
#    0.000    0.000    0.000    0.000    0.000    0.000 
#
# Total GULP energy -89467.727103 kJ/mol
# GULP energy per Si atom -5591.732944 kJ/mol
# Density = 1.858035 g / cm^3
# Si number density = 18.622736 Si / 1000 Ang^3
#
#
#
# Elastic Constant Matrix: (Units=GPa)
#
#
# Indices 1 2 3 4 5 6 
#
# 1 61.0758 10.2155 44.5224 7.9312 -0.0005 0.0000
# 2 10.2155 61.0750 44.5225 -7.9315 0.0005 0.0000
# 3 44.5224 44.5225 132.8745 -0.0001 0.0000 0.0000
# 4 7.9312 -7.9315 -0.0001 26.8714 0.0000 0.0005
# 5 -0.0005 0.0005 0.0000 0.0000 26.8716 7.9311
# 6 0.0000 0.0000 0.0000 0.0005 7.9311 25.4304
#
#
#
# Elastic Compliance Matrix: (Units=1/GPa)
#
#
# Indices 1 2 3 4 5 6 
#
# 1 0.022889 0.001234 -0.008083 -0.006392 0.000000 0.000000
# 2 0.001234 0.022889 -0.008083 0.006392 0.000000 0.000000
# 3 -0.008083 -0.008083 0.012943 0.000000 0.000000 0.000000
# 4 -0.006392 0.006392 0.000000 0.040988 0.000000 -0.000001
# 5 0.000000 0.000000 0.000000 0.000000 0.040987 -0.012783
# 6 0.000000 0.000000 0.000000 -0.000001 -0.012783 0.043310
#
#
# Mechanical properties :
#
#
# Convention : Reuss Voigt Hill
#
# Bulk Modulus (GPa) = 34.65393 50.39401 42.52397
# Shear Modulus (GPa) = 22.37258 26.21900 24.29579
#
# Velocity S-wave (km/s) = 3.46982 3.75627 3.61589
# Velocity P-wave (km/s) = 5.89081 6.77732 6.34955
#
# Compressibility (1/GPa) = 0.02885676
#
# Stress axis : x y z
#
# Youngs Moduli (GPa) = 43.68935 43.68831 77.26431
#
# Poissons Ratio (x) = -0.05390 0.62451
# Poissons Ratio (y) = -0.05390 0.62453
# Poissons Ratio (z) = 0.35313 0.35313
#
# Static dielectric constant tensor:
#      x y z
#    x 1.616570 0.000000 0.000000 
#    y 0.000000 1.616570 0.000000 
#    z 0.000000 0.000000 1.633320 
# 
# From -- ./inp_files/6555.got.cif
#   From: 2010.05.17/outbox.cif.g08.bks.cpg/sg155_4_cif.got.tgz:6555.got - 2010.05.20 10:44:35.
