data_PCOD9577721
_publ_section_title
;
Structure prediction by ZEFSAII (Michael W. Deem and Ramdas Pophale) SiO2 
 PCOD9577721
Probable space group: P -3 1 M 
;
_chemical_formula_sum "Si O2"
_cell_formula_units_Z 96
_cell_length_a 14.178959
_cell_length_b 14.178959
_cell_length_c 27.441582
_cell_angle_alpha 90.000000
_cell_angle_beta 90.000000
_cell_angle_gamma 120.000000
_cell_volume 4777.805541
_symmetry_space_group_name_H-M "P -3 1 M "
_symmetry_group_IT_number 162
_symmetry_cell_setting 'hexagonal'
loop_
_space_group_symop_operation_xyz
x,y,z
-y,x-y,z
-x+y,-x,z
-y,-x,-z
-x+y,y,-z
x,x-y,-z
-x,-y,-z
y,-x+y,-z
x-y,x,-z
y,x,z
x-y,-y,z
-x,-x+y,z
loop_
_atom_site_type_symbol
_atom_site_label
_atom_site_fract_x
_atom_site_fract_y
_atom_site_fract_z
Si Si1 0.393662 0.518321 0.190566
Si Si2 0.129449 0.872165 0.441772
Si Si3 0.871023 0.331829 0.023420
Si Si4 0.785399 0.658245 0.287604
Si Si5 0.713648 0.590125 0.630095
Si Si6 0.723885 0.546356 0.134551
Si Si7 0.874815 0.122024 0.816323
Si Si8 0.130264 0.567351 0.297236
O O1 0.420749 0.420749 0.189654
O O2 0.501852 0.625232 0.172556
O O3 0.301280 0.503044 0.152831
O O4 0.370497 0.540182 0.245711
O O5 0.136494 0.863507 0.500000
O O6 0.171817 0.799977 0.413790
O O7 0.000000 0.820323 0.430128
O O8 0.196991 0.000000 0.428459
O O9 0.841408 0.321983 0.080514
O O10 0.000000 0.372084 0.017676
O O11 0.784295 0.215706 0.000000
O O12 0.855154 0.427577 0.000000
O O13 0.742845 0.742845 0.297823
O O14 0.872898 0.662799 0.325239
O O15 0.831764 0.682067 0.233107
O O16 0.680858 0.538642 0.295247
O O17 0.629085 0.629085 0.615204
O O18 0.643080 0.471267 0.654935
O O19 0.802012 0.674605 0.140755
O O20 0.000000 0.203119 0.823801
O O21 0.850545 0.000000 0.810735
O O22 0.000000 0.519462 0.296543
#
# Coordination Sequence:
#
# PCOD9577721 Si02
#       8
#    12  12  12  12  12  12  12  12
#     4  11  22  38  58  87 123 156 194 242 295 355
#     4   9  17  30  51  81 116 153 196 250 309 366
#     4  11  25  45  69  96 127 163 206 260 319 377
#     4  10  19  34  53  76 113 154 193 236 286 344
#     4  10  19  32  51  77 108 147 196 242 291 352
#     4  12  23  39  63  90 117 153 199 248 303 357
#     4  11  22  37  57  85 122 164 203 241 288 352
#     4   9  19  34  50  74 112 153 191 235 282 341
#
# _framework density 20.092905999999999
#
# number of rings (size 3 to 8) (size 9 to 14) (size 15 to 20)
#    0.000    1.625    1.250    4.375    0.000    3.500 
#    0.750    0.000    0.000    4.875    0.000    4.375 
#    0.000    0.000    0.000    0.000    0.000    0.375 
#
# Total GULP energy -535777.112151 kJ/mol
# GULP energy per Si atom -5581.011585 kJ/mol
# Density = 2.004717 g / cm^3
# Si number density = 20.092906 Si / 1000 Ang^3
#
#
#
# Elastic Constant Matrix: (Units=GPa)
#
#
# Indices 1 2 3 4 5 6 
#
# 1 91.0822 37.6839 27.4788 0.0000 3.1321 0.0000
# 2 37.6839 91.0822 27.4788 0.0000 -3.1321 0.0000
# 3 27.4788 27.4788 87.9716 0.0000 0.0000 0.0000
# 4 0.0000 0.0000 0.0000 26.0147 0.0000 -3.1321
# 5 3.1321 -3.1321 0.0000 0.0000 26.0147 0.0000
# 6 0.0000 0.0000 0.0000 -3.1321 0.0000 26.6991
#
#
#
# Elastic Compliance Matrix: (Units=1/GPa)
#
#
# Indices 1 2 3 4 5 6 
#
# 1 0.013978 -0.005017 -0.002799 0.000000 -0.002287 0.000000
# 2 -0.005017 0.013978 -0.002799 0.000000 0.002287 0.000000
# 3 -0.002799 -0.002799 0.013116 0.000000 0.000000 0.000000
# 4 0.000000 0.000000 0.000000 0.038991 0.000000 0.004574
# 5 -0.002287 0.002287 0.000000 0.000000 0.038991 0.000000
# 6 0.000000 0.000000 0.000000 0.004574 0.000000 0.037991
#
#
# Mechanical properties :
#
#
# Convention : Reuss Voigt Hill
#
# Bulk Modulus (GPa) = 50.39984 50.60211 50.50097
# Shear Modulus (GPa) = 27.04333 27.57865 27.31099
#
# Velocity S-wave (km/s) = 3.67265 3.70882 3.69078
# Velocity P-wave (km/s) = 6.56676 6.60146 6.58413
#
# Compressibility (1/GPa) = 0.01984133
#
# Stress axis : x y z
#
# Youngs Moduli (GPa) = 71.54073 71.54073 76.24354
#
# Poissons Ratio (x) = 0.35895 0.21340
# Poissons Ratio (y) = 0.35895 0.21340
# Poissons Ratio (z) = 0.20024 0.20024
#
# Static dielectric constant tensor:
#      x y z
#    x 1.755540 0.000000 0.000000 
#    y 0.000000 1.755540 0.000000 
#    z 0.000000 0.000000 1.701800 
# 
# From -- ./inp_files/4066.got.cif
#   From: 2010.05.17/outbox.cif.g08.bks.cpg/sg162_3_cif.got.tgz:4066.got - 2010.05.20 10:53:12.
