data_PCOD9577493
_publ_section_title
;
Structure prediction by ZEFSAII (Michael W. Deem and Ramdas Pophale) SiO2 
 PCOD9577493
Probable space group: R 3 M
;
_chemical_formula_sum "Si O2"
_cell_formula_units_Z 126
_cell_length_a 17.291369
_cell_length_b 17.291369
_cell_length_c 26.222984
_cell_angle_alpha 90.000000
_cell_angle_beta 90.000000
_cell_angle_gamma 120.000000
_cell_volume 6790.026969
_symmetry_space_group_name_H-M "R 3 M"
_symmetry_group_IT_number 160
_symmetry_cell_setting 'hexagonal'
loop_
_space_group_symop_operation_xyz
x,y,z
-y,x-y,z
-x+y,-x,z
-x+y,y,z
x,x-y,z
-y,-x,z
2/3+x,1/3+y,1/3+z
2/3-y,1/3+x-y,1/3+z
2/3-x+y,1/3-x,1/3+z
2/3-x+y,1/3+y,1/3+z
2/3+x,1/3+x-y,1/3+z
2/3-y,1/3-x,1/3+z
1/3+x,2/3+y,2/3+z
1/3-y,2/3+x-y,2/3+z
1/3-x+y,2/3-x,2/3+z
1/3-x+y,2/3+y,2/3+z
1/3+x,2/3+x-y,2/3+z
1/3-y,2/3-x,2/3+z
loop_
_atom_site_type_symbol
_atom_site_label
_atom_site_fract_x
_atom_site_fract_y
_atom_site_fract_z
Si Si1 0.512530 0.844816 0.547573
Si Si2 0.177426 0.001253 0.403544
Si Si3 0.360566 0.093265 0.828030
Si Si4 0.711723 0.607602 0.634175
Si Si5 0.331608 0.847906 0.752263
Si Si6 0.711499 0.606200 0.523619
Si Si7 0.095481 0.368782 0.649841
O O1 0.431674 0.863348 0.542855
O O2 0.479203 0.739602 0.545870
O O3 0.588220 0.891032 0.503944
O O4 0.564001 0.879647 0.601599
O O5 0.195120 0.097560 0.420648
O O6 0.226364 0.962141 0.438669
O O7 0.209321 0.004458 0.346066
O O8 0.072541 0.927460 0.406411
O O9 0.381718 0.190859 0.846478
O O10 0.401777 0.041969 0.857802
O O11 0.813389 0.626778 0.634234
O O12 0.669776 0.568508 0.578705
O O13 0.702594 0.694130 0.644623
O O14 0.429114 0.858227 0.747979
O O15 0.255713 0.744288 0.753838
O O16 0.326315 0.893270 0.805174
O O17 0.311534 0.889363 0.702684
O O18 0.800474 0.600948 0.520527
O O19 0.167901 0.335802 0.648602
#
# Coordination Sequence:
#
# PCOD9577493 Si02
#       7
#    18  18  18  18  18  18  18
#     4  10  20  34  54  81 113 149 188 230 277 329
#     4  10  21  37  58  83 111 145 187 234 282 332
#     4  10  20  35  55  78 105 140 183 232 282 326
#     4  10  21  37  57  82 112 150 189 229 277 328
#     4  10  21  36  55  81 114 149 185 225 274 333
#     4  10  20  35  54  80 112 146 185 227 274 331
#     4  10  20  36  58  83 111 147 189 233 277 325
#
# _framework density 18.556628
#
# number of rings (size 3 to 8) (size 9 to 14) (size 15 to 20)
#    0.000    2.000    1.429    2.143    0.000    3.429 
#    0.000    2.143    0.000    2.286    0.000    0.000 
#    0.000    0.000    0.000    0.000    0.000    0.000 
#
# Total GULP energy -234073.353846 kJ/mol
# GULP energy per Si atom -5573.175092 kJ/mol
# Density = 1.851439 g / cm^3
# Si number density = 18.556628 Si / 1000 Ang^3
#
#
#
# Elastic Constant Matrix: (Units=GPa)
#
#
# Indices 1 2 3 4 5 6 
#
# 1 60.2073 24.5493 41.1356 -1.6440 0.0000 0.0000
# 2 24.5493 60.2073 41.1356 1.6440 0.0000 0.0000
# 3 41.1356 41.1356 111.8584 0.0000 0.0000 0.0000
# 4 -1.6440 1.6440 0.0000 20.7151 0.0000 0.0000
# 5 0.0000 0.0000 0.0000 0.0000 20.7151 -1.6440
# 6 0.0000 0.0000 0.0000 0.0000 -1.6440 17.8290
#
#
#
# Elastic Compliance Matrix: (Units=1/GPa)
#
#
# Indices 1 2 3 4 5 6 
#
# 1 0.023299 -0.004951 -0.006747 0.002242 0.000000 0.000000
# 2 -0.004951 0.023299 -0.006747 -0.002242 0.000000 0.000000
# 3 -0.006747 -0.006747 0.013903 0.000000 0.000000 0.000000
# 4 0.002242 -0.002242 0.000000 0.048630 0.000000 0.000000
# 5 0.000000 0.000000 0.000000 0.000000 0.048630 0.004484
# 6 0.000000 0.000000 0.000000 0.000000 0.004484 0.056502
#
#
# Mechanical properties :
#
#
# Convention : Reuss Voigt Hill
#
# Bulk Modulus (GPa) = 42.35686 49.54601 45.95144
# Shear Modulus (GPa) = 19.30312 20.21533 19.75923
#
# Velocity S-wave (km/s) = 3.22876 3.30417 3.26668
# Velocity P-wave (km/s) = 6.06425 6.42764 6.24859
#
# Compressibility (1/GPa) = 0.02360893
#
# Stress axis : x y z
#
# Youngs Moduli (GPa) = 42.91939 42.91939 71.92911
#
# Poissons Ratio (x) = 0.21251 0.48534
# Poissons Ratio (y) = 0.21251 0.48534
# Poissons Ratio (z) = 0.28960 0.28960
#
# Static dielectric constant tensor:
#      x y z
#    x 1.644590 0.000000 0.000000 
#    y 0.000000 1.644590 0.000000 
#    z 0.000000 0.000000 1.680100 
# 
# From -- ./inp_files/3795.got.cif
#   From: 2010.05.17/outbox.cif.g08.bks.cpg/sg160_2_cif.got.tgz:3795.got - 2010.05.20 10:51:19.
