data_PCOD9577573
_publ_section_title
;
Structure prediction by ZEFSAII (Michael W. Deem and Ramdas Pophale) SiO2 
 PCOD9577573
Probable space group: R 3 C
;
_chemical_formula_sum "Si O2"
_cell_formula_units_Z 102
_cell_length_a 13.951558
_cell_length_b 13.951558
_cell_length_c 28.025743
_cell_angle_alpha 90.000000
_cell_angle_beta 90.000000
_cell_angle_gamma 120.000000
_cell_volume 4724.253404
_symmetry_space_group_name_H-M "R 3 C"
_symmetry_group_IT_number 161
_symmetry_cell_setting 'hexagonal'
loop_
_space_group_symop_operation_xyz
x,y,z
-y,x-y,z
-x+y,-x,z
-x+y,y,1/2+z
x,x-y,1/2+z
-y,-x,1/2+z
2/3+x,1/3+y,1/3+z
2/3-y,1/3+x-y,1/3+z
2/3-x+y,1/3-x,1/3+z
2/3-x+y,1/3+y,5/6+z
2/3+x,1/3+x-y,5/6+z
2/3-y,1/3-x,5/6+z
1/3+x,2/3+y,2/3+z
1/3-y,2/3+x-y,2/3+z
1/3-x+y,2/3-x,2/3+z
1/3-x+y,2/3+y,1/6+z
1/3+x,2/3+x-y,1/6+z
1/3-y,2/3-x,1/6+z
loop_
_atom_site_type_symbol
_atom_site_label
_atom_site_fract_x
_atom_site_fract_y
_atom_site_fract_z
Si Si1 0.593615 0.858579 0.300187
Si Si2 0.666667 0.333334 0.051751
Si Si3 0.784404 0.562483 0.711631
Si Si4 0.763256 0.285778 0.316442
Si Si5 0.822379 0.533269 0.486916
Si Si6 0.000000 0.000000 0.330764
Si Si7 0.954401 0.636877 0.874329
O O1 0.667623 0.877689 0.347319
O O2 0.495280 0.884935 0.306443
O O3 0.533182 0.728728 0.286107
O O4 0.657496 0.932806 0.255419
O O5 0.666668 0.333334 0.107724
O O6 0.674213 0.444124 0.030271
O O7 0.803812 0.545033 0.766808
O O8 0.757337 0.451376 0.684346
O O9 0.673744 0.572619 0.709941
O O10 0.783097 0.411556 0.317727
O O11 0.826391 0.265861 0.359979
O O12 0.928041 0.647500 0.499601
#
# Coordination Sequence:
#
# PCOD9577573 Si02
#       7
#    18   6  18  18  18   6  18
#     4  10  23  39  68  94 139 180 235 297 361 428
#     4   9  18  36  66  85 128 178 219 291 357 405
#     4  11  24  45  65 104 136 183 247 293 363 444
#     4  10  24  46  66  98 143 187 233 283 375 433
#     4   9  21  40  56  98 132 168 233 291 351 418
#     4  12  21  42  72  88 140 187 228 303 360 417
#     4  11  25  40  67 103 132 185 241 290 357 433
#
# _framework density 21.590714999999999
#
# number of rings (size 3 to 8) (size 9 to 14) (size 15 to 20)
#    0.353    1.412    1.765    1.412    4.941    8.471 
#    0.000    0.000    0.000    0.000    0.000    0.000 
#    0.000    0.000    0.000    0.000    0.000    0.000 
#
# Total GULP energy -189583.704796 kJ/mol
# GULP energy per Si atom -5575.991318 kJ/mol
# Density = 2.154157 g / cm^3
# Si number density = 21.590715 Si / 1000 Ang^3
#
#
#
# Elastic Constant Matrix: (Units=GPa)
#
#
# Indices 1 2 3 4 5 6 
#
# 1 64.8413 29.1565 13.2649 3.4171 0.0000 0.0000
# 2 29.1565 64.8419 13.2647 -3.4171 0.0000 0.0000
# 3 13.2649 13.2647 83.8350 -0.0002 0.0000 0.0000
# 4 3.4171 -3.4171 -0.0002 26.0638 0.0000 0.0000
# 5 0.0000 0.0000 0.0000 0.0000 26.0638 3.4174
# 6 0.0000 0.0000 0.0000 0.0000 3.4174 17.8423
#
#
#
# Elastic Compliance Matrix: (Units=1/GPa)
#
#
# Indices 1 2 3 4 5 6 
#
# 1 0.019940 -0.008804 -0.001762 -0.003769 0.000000 0.000000
# 2 -0.008804 0.019940 -0.001762 0.003769 0.000000 0.000000
# 3 -0.001762 -0.001762 0.012486 0.000000 0.000000 0.000000
# 4 -0.003769 0.003769 0.000000 0.039356 0.000000 0.000000
# 5 0.000000 0.000000 0.000000 0.000000 0.039356 -0.007538
# 6 0.000000 0.000000 0.000000 0.000000 -0.007538 0.057490
#
#
# Mechanical properties :
#
#
# Convention : Reuss Voigt Hill
#
# Bulk Modulus (GPa) = 36.08867 36.09892 36.09380
# Shear Modulus (GPa) = 22.47585 24.51612 23.49599
#
# Velocity S-wave (km/s) = 3.22995 3.37336 3.30243
# Velocity P-wave (km/s) = 5.53726 5.65055 5.59419
#
# Compressibility (1/GPa) = 0.02770953
#
# Stress axis : x y z
#
# Youngs Moduli (GPa) = 50.14971 50.15025 80.09116
#
# Poissons Ratio (x) = 0.44154 0.14112
# Poissons Ratio (y) = 0.44154 0.14111
# Poissons Ratio (z) = 0.08837 0.08836
#
# Static dielectric constant tensor:
#      x y z
#    x 1.833130 0.000000 0.000000 
#    y 0.000000 1.833130 0.000000 
#    z 0.000000 0.000000 1.765590 
# 
# From -- ./inp_files/2402.got.cif
#   From: 2010.05.17/outbox.cif.g08.bks.cpg/sg161_cif.got.tgz:2402.got - 2010.05.20 10:52:32.
