data_PCOD9577491
_publ_section_title
;
Structure prediction by ZEFSAII (Michael W. Deem and Ramdas Pophale) SiO2 
 PCOD9577491
Probable space group: R 3 M
;
_chemical_formula_sum "Si O2"
_cell_formula_units_Z 90
_cell_length_a 17.470652
_cell_length_b 17.470652
_cell_length_c 14.520450
_cell_angle_alpha 90.000000
_cell_angle_beta 90.000000
_cell_angle_gamma 120.000000
_cell_volume 3838.211775
_symmetry_space_group_name_H-M "R 3 M"
_symmetry_group_IT_number 160
_symmetry_cell_setting 'hexagonal'
loop_
_space_group_symop_operation_xyz
x,y,z
-y,x-y,z
-x+y,-x,z
-x+y,y,z
x,x-y,z
-y,-x,z
2/3+x,1/3+y,1/3+z
2/3-y,1/3+x-y,1/3+z
2/3-x+y,1/3-x,1/3+z
2/3-x+y,1/3+y,1/3+z
2/3+x,1/3+x-y,1/3+z
2/3-y,1/3-x,1/3+z
1/3+x,2/3+y,2/3+z
1/3-y,2/3+x-y,2/3+z
1/3-x+y,2/3-x,2/3+z
1/3-x+y,2/3+y,2/3+z
1/3+x,2/3+x-y,2/3+z
1/3-y,2/3-x,2/3+z
loop_
_atom_site_type_symbol
_atom_site_label
_atom_site_fract_x
_atom_site_fract_y
_atom_site_fract_z
Si Si1 0.667028 0.157332 0.712451
Si Si2 0.504706 0.837838 0.823847
Si Si3 0.000202 0.171374 0.894627
Si Si4 0.028069 0.666670 0.692570
Si Si5 0.176361 0.000361 0.672690
O O1 0.583677 0.167353 0.740725
O O2 0.759328 0.240673 0.743178
O O3 0.667977 0.155267 0.600639
O O4 0.653864 0.062539 0.736742
O O5 0.431560 0.863120 0.794102
O O6 0.472723 0.736362 0.802526
O O7 0.596218 0.898551 0.772370
O O8 0.069696 0.139391 0.915946
O O9 0.031002 0.262885 0.946105
O O10 0.998689 0.178068 0.784501
O O11 0.901775 0.098226 0.924372
O O12 0.012819 0.742022 0.648394
O O13 0.185332 0.092666 0.641964
O O14 0.082982 0.917019 0.644420
#
# Coordination Sequence:
#
# PCOD9577491 Si02
#       5
#    18  18  18  18  18
#     4  10  21  37  55  75 101 136 175 211 250 300
#     4  10  20  34  53  77 106 138 170 206 251 305
#     4  10  20  34  53  77 106 138 170 206 251 305
#     4  12  21  32  51  80 110 132 164 212 263 304
#     4  10  21  37  55  75 101 136 175 211 250 300
#
# _framework density 23.448418
#
# number of rings (size 3 to 8) (size 9 to 14) (size 15 to 20)
#    0.000    1.600    0.000    6.200    0.000    6.400 
#    0.000    2.000    0.000    0.000    0.000    0.000 
#    0.000   19.200    0.000    0.000    0.000    0.000 
#
# Total GULP energy -167859.331579 kJ/mol
# GULP energy per Si atom -5595.311053 kJ/mol
# Density = 2.339505 g / cm^3
# Si number density = 23.448418 Si / 1000 Ang^3
#
#
#
# Elastic Constant Matrix: (Units=GPa)
#
#
# Indices 1 2 3 4 5 6 
#
# 1 125.2406 51.0309 -6.9539 8.3995 -0.0005 0.0000
# 2 51.0309 125.2406 -6.9539 -8.3995 0.0005 0.0000
# 3 -6.9539 -6.9539 57.9402 0.0000 0.0000 0.0000
# 4 8.3995 -8.3995 0.0000 9.6895 0.0000 0.0005
# 5 -0.0005 0.0005 0.0000 0.0000 9.6895 8.3995
# 6 0.0000 0.0000 0.0000 0.0005 8.3995 37.1048
#
#
#
# Elastic Compliance Matrix: (Units=1/GPa)
#
#
# Indices 1 2 3 4 5 6 
#
# 1 0.011246 -0.005519 0.000687 -0.014533 0.000001 0.000000
# 2 -0.005519 0.011246 0.000687 0.014533 -0.000001 0.000000
# 3 0.000687 0.000687 0.017424 0.000000 0.000000 0.000000
# 4 -0.014533 0.014533 0.000000 0.128400 0.000000 -0.000002
# 5 0.000001 -0.000001 0.000000 0.000000 0.128400 -0.029066
# 6 0.000000 0.000000 0.000000 -0.000002 -0.029066 0.033530
#
#
# Mechanical properties :
#
#
# Convention : Reuss Voigt Hill
#
# Bulk Modulus (GPa) = 31.61723 42.51860 37.06791
# Shear Modulus (GPa) = 14.32341 29.38334 21.85338
#
# Velocity S-wave (km/s) = 2.47421 3.54376 3.05614
# Velocity P-wave (km/s) = 4.65568 5.90902 5.31939
#
# Compressibility (1/GPa) = 0.03162833
#
# Stress axis : x y z
#
# Youngs Moduli (GPa) = 88.91851 88.91851 57.39153
#
# Poissons Ratio (x) = 0.49074 -0.03945
# Poissons Ratio (y) = 0.49074 -0.03945
# Poissons Ratio (z) = -0.06112 -0.06112
#
# Static dielectric constant tensor:
#      x y z
#    x 1.829370 0.000000 0.000000 
#    y 0.000000 1.829370 0.000000 
#    z 0.000000 0.000000 1.910490 
# 
# From -- ./inp_files/2758.got.cif
#   From: 2010.05.17/outbox.cif.g08.bks.cpg/sg160_2_cif.got.tgz:2758.got - 2010.05.20 10:51:19.
