data_PCOD9577378
_publ_section_title
;
Structure prediction by ZEFSAII (Michael W. Deem and Ramdas Pophale) SiO2 
 PCOD9577378
Probable space group: P 3 1 C
;
_chemical_formula_sum "Si O2"
_cell_formula_units_Z 28
_cell_length_a 13.878391
_cell_length_b 13.878391
_cell_length_c 8.897024
_cell_angle_alpha 90.000000
_cell_angle_beta 90.000000
_cell_angle_gamma 120.000000
_cell_volume 1484.067421
_symmetry_space_group_name_H-M "P 3 1 C"
_symmetry_group_IT_number 159
_symmetry_cell_setting 'hexagonal'
loop_
_space_group_symop_operation_xyz
x,y,z
-y,x-y,z
-x+y,-x,z
y,x,1/2+z
x-y,-y,1/2+z
-x,-x+y,1/2+z
loop_
_atom_site_type_symbol
_atom_site_label
_atom_site_fract_x
_atom_site_fract_y
_atom_site_fract_z
Si Si1 0.879569 0.342934 0.806840
Si Si2 0.463366 0.120433 0.448119
Si Si3 0.116420 0.879330 0.948999
Si Si4 0.333334 0.666667 0.447957
Si Si5 0.666668 0.333335 0.306997
Si Si6 0.879331 0.116421 0.805960
O O1 0.881239 0.359460 0.627479
O O2 0.785160 0.358741 0.884042
O O3 0.855295 0.217125 0.834045
O O4 0.000001 0.423400 0.877479
O O5 0.361831 0.144707 0.420914
O O6 0.573581 0.214842 0.370914
O O7 0.999999 0.790433 0.877480
O O8 0.155381 0.999999 0.877479
O O9 0.104290 0.884850 0.127480
O O10 0.333334 0.666667 0.627477
#
# Coordination Sequence:
#
# PCOD9577378 Si02
#       6
#     6   6   6   2   2   6
#     4  10  22  41  62  86 117 152 194 244 292 344
#     4  10  22  41  62  86 117 152 194 244 292 344
#     4  10  20  34  55  82 115 153 193 238 287 340
#     4  12  25  41  64  90 118 155 193 234 289 350
#     4  12  25  41  64  90 118 155 193 234 289 350
#     4  10  20  34  55  82 115 153 193 238 287 340
#
# _framework density 18.867066999999999
#
# number of rings (size 3 to 8) (size 9 to 14) (size 15 to 20)
#    0.000    1.714    0.000    4.286    0.000    6.857 
#    0.000    4.286    0.000    0.000    0.000    0.000 
#    0.000    0.000    0.000    0.000    0.000    0.000 
#
# Total GULP energy -156547.718242 kJ/mol
# GULP energy per Si atom -5590.989937 kJ/mol
# Density = 1.882412 g / cm^3
# Si number density = 18.867067 Si / 1000 Ang^3
#
#
#
# Elastic Constant Matrix: (Units=GPa)
#
#
# Indices 1 2 3 4 5 6 
#
# 1 105.3866 78.0240 70.7674 0.0001 -0.0001 -0.0002
# 2 78.0240 105.3856 70.7673 0.0000 0.0001 -0.0007
# 3 70.7674 70.7673 112.1464 -0.0001 -0.0001 -0.0001
# 4 0.0001 0.0000 -0.0001 31.8351 0.0000 0.0000
# 5 -0.0001 0.0001 -0.0001 0.0000 31.8351 -0.0001
# 6 -0.0002 -0.0007 -0.0001 0.0000 -0.0001 13.6808
#
#
#
# Elastic Compliance Matrix: (Units=1/GPa)
#
#
# Indices 1 2 3 4 5 6 
#
# 1 0.023587 -0.012960 -0.006706 0.000000 0.000000 0.000000
# 2 -0.012960 0.023587 -0.006706 0.000000 0.000000 0.000001
# 3 -0.006706 -0.006706 0.017380 0.000000 0.000000 0.000000
# 4 0.000000 0.000000 0.000000 0.031412 0.000000 0.000000
# 5 0.000000 0.000000 0.000000 0.000000 0.031412 0.000000
# 6 0.000000 0.000001 0.000000 0.000000 0.000000 0.073095
#
#
# Mechanical properties :
#
#
# Convention : Reuss Voigt Hill
#
# Bulk Modulus (GPa) = 84.67023 84.67067 84.67045
# Shear Modulus (GPa) = 19.44360 22.36086 20.90223
#
# Velocity S-wave (km/s) = 3.21371 3.44638 3.33208
# Velocity P-wave (km/s) = 7.66455 7.79818 7.73165
#
# Compressibility (1/GPa) = 0.01181053
#
# Stress axis : x y z
#
# Youngs Moduli (GPa) = 42.39647 42.39584 57.53625
#
# Poissons Ratio (x) = 0.54944 0.38584
# Poissons Ratio (y) = 0.54945 0.38585
# Poissons Ratio (z) = 0.28431 0.28431
#
# Static dielectric constant tensor:
#      x y z
#    x 1.639400 0.000000 0.000000 
#    y 0.000000 1.639400 0.000000 
#    z 0.000000 0.000000 1.620800 
# 
# From -- ./inp_files/367.got.cif
#   From: 2010.05.17/outbox.cif.g08.bks.cpg/sg159_cif.got.tgz:367.got - 2010.05.20 10:50:30.
