data_PCOD9577840
_publ_section_title
;
Structure prediction by ZEFSAII (Michael W. Deem and Ramdas Pophale) SiO2 
 PCOD9577840
Probable space group: P -3 1 M 
;
_chemical_formula_sum "Si O2"
_cell_formula_units_Z 60
_cell_length_a 20.486103
_cell_length_b 20.486103
_cell_length_c 8.850346
_cell_angle_alpha 90.000000
_cell_angle_beta 90.000000
_cell_angle_gamma 120.000000
_cell_volume 3216.692786
_symmetry_space_group_name_H-M "P -3 1 M "
_symmetry_group_IT_number 162
_symmetry_cell_setting 'hexagonal'
loop_
_space_group_symop_operation_xyz
x,y,z
-y,x-y,z
-x+y,-x,z
-y,-x,-z
-x+y,y,-z
x,x-y,-z
-x,-y,-z
y,-x+y,-z
x-y,x,-z
y,x,z
x-y,-y,z
-x,-x+y,z
loop_
_atom_site_type_symbol
_atom_site_label
_atom_site_fract_x
_atom_site_fract_y
_atom_site_fract_z
Si Si1 0.000000 0.559565 0.698801
Si Si2 0.779943 0.914560 0.169622
Si Si3 0.280335 0.079649 0.401281
Si Si4 0.395074 0.131284 0.823878
Si Si5 0.128503 0.417110 0.180133
Si Si6 0.000000 0.593620 0.346200
O O1 0.079072 0.624126 0.771593
O O2 0.000000 0.587640 0.527567
O O3 0.000000 0.481577 0.705250
O O4 0.784291 0.863876 0.300086
O O5 0.693825 0.897186 0.179178
O O6 0.836545 0.000000 0.199599
O O7 0.790417 0.895209 0.000000
O O8 0.310684 0.155342 0.500000
O O9 0.340502 0.086359 0.277815
O O10 0.247967 0.000000 0.485712
O O11 0.438302 0.222067 0.789047
O O12 0.408338 0.075356 0.717430
O O13 0.409783 0.121653 0.999361
#
# Coordination Sequence:
#
# PCOD9577840 Si02
#       6
#     6  12  12  12  12   6
#     4  11  25  39  57  91 129 163 195 245 297 373
#     4  11  20  32  54  80 111 148 189 247 291 343
#     4  11  22  34  52  81 112 148 194 248 297 346
#     4  10  20  36  58  87 116 153 193 246 297 355
#     4  10  21  35  58  87 117 149 197 246 297 356
#     4  11  25  39  59  87 131 163 197 239 309 364
#
# _framework density 18.652697
#
# number of rings (size 3 to 8) (size 9 to 14) (size 15 to 20)
#    0.000    1.400    6.000    1.800    5.600    1.600 
#    0.000    0.000    0.000    8.800    0.000    0.000 
#    0.000    0.000    0.000    0.000    0.000    0.000 
#
# Total GULP energy -334040.495250 kJ/mol
# GULP energy per Si atom -5567.341588 kJ/mol
# Density = 1.861024 g / cm^3
# Si number density = 18.652697 Si / 1000 Ang^3
#
#
#
# Elastic Constant Matrix: (Units=GPa)
#
#
# Indices 1 2 3 4 5 6 
#
# 1 108.0491 5.2028 14.6022 0.0003 6.7348 0.0000
# 2 5.2028 108.0491 14.6022 -0.0003 -6.7348 0.0000
# 3 14.6022 14.6022 62.8412 0.0000 0.0000 0.0000
# 4 0.0003 -0.0003 0.0000 28.9841 0.0000 -6.7348
# 5 6.7348 -6.7348 0.0000 0.0000 28.9841 0.0003
# 6 0.0000 0.0000 0.0000 -6.7348 0.0003 51.4231
#
#
#
# Elastic Compliance Matrix: (Units=1/GPa)
#
#
# Indices 1 2 3 4 5 6 
#
# 1 0.009711 -0.000318 -0.002183 0.000000 -0.002330 0.000000
# 2 -0.000318 0.009711 -0.002183 0.000000 0.002330 0.000000
# 3 -0.002183 -0.002183 0.016927 0.000000 0.000000 0.000000
# 4 0.000000 0.000000 0.000000 0.035585 0.000000 0.004660
# 5 -0.002330 0.002330 0.000000 0.000000 0.035585 0.000000
# 6 0.000000 0.000000 0.000000 0.004660 0.000000 0.020057
#
#
# Mechanical properties :
#
#
# Convention : Reuss Voigt Hill
#
# Bulk Modulus (GPa) = 37.06091 38.63932 37.85011
# Shear Modulus (GPa) = 34.26190 38.18042 36.22116
#
# Velocity S-wave (km/s) = 4.29048 4.52919 4.41145
# Velocity P-wave (km/s) = 6.66756 6.93625 6.80323
#
# Compressibility (1/GPa) = 0.02698261
#
# Stress axis : x y z
#
# Youngs Moduli (GPa) = 102.98060 102.98060 59.07567
#
# Poissons Ratio (x) = 0.03273 0.12894
# Poissons Ratio (y) = 0.03273 0.12894
# Poissons Ratio (z) = 0.22476 0.22476
#
# Static dielectric constant tensor:
#      x y z
#    x 1.685230 0.000000 0.000000 
#    y 0.000000 1.685230 0.000000 
#    z 0.000000 0.000000 1.706670 
# 
# From -- ./inp_files/1524.got.cif
#   From: 2010.05.17/outbox.cif.g08.bks.cpg/sg162_1_cif.got.tgz:1524.got - 2010.05.20 10:53:12.
