data_PCOD9577001
_publ_section_title
;
Structure prediction by ZEFSAII (Michael W. Deem and Ramdas Pophale) SiO2 
 PCOD9577001
Probable space group: R 3 2
;
_chemical_formula_sum "Si O2"
_cell_formula_units_Z 72
_cell_length_a 14.069493
_cell_length_b 14.069493
_cell_length_c 16.596490
_cell_angle_alpha 90.000000
_cell_angle_beta 90.000000
_cell_angle_gamma 120.000000
_cell_volume 2845.140880
_symmetry_space_group_name_H-M "R 3 2"
_symmetry_group_IT_number 155
_symmetry_cell_setting 'hexagonal'
loop_
_space_group_symop_operation_xyz
x,y,z
-y,x-y,z
-x+y,-x,z
x-y,-y,-z
-x,-x+y,-z
y,x,-z
2/3+x,1/3+y,1/3+z
2/3-y,1/3+x-y,1/3+z
2/3-x+y,1/3-x,1/3+z
2/3+x-y,1/3-y,1/3-z
2/3-x,1/3-x+y,1/3-z
2/3+y,1/3+x,1/3-z
1/3+x,2/3+y,2/3+z
1/3-y,2/3+x-y,2/3+z
1/3-x+y,2/3-x,2/3+z
1/3+x-y,2/3-y,2/3-z
1/3-x,2/3-x+y,2/3-z
1/3+y,2/3+x,2/3-z
loop_
_atom_site_type_symbol
_atom_site_label
_atom_site_fract_x
_atom_site_fract_y
_atom_site_fract_z
Si Si1 0.547141 0.788432 0.822029
Si Si2 0.555862 0.107683 0.879409
Si Si3 0.771644 0.587633 0.438681
Si Si4 0.133502 0.440264 0.990336
O O1 0.666667 0.893140 0.833334
O O2 0.473111 0.828560 0.777094
O O3 0.550001 0.693533 0.768966
O O4 0.525470 0.733383 0.910566
O O5 0.666667 0.142603 0.833334
O O6 0.499360 0.166027 0.833334
O O7 0.476935 0.980417 0.859317
O O8 0.552599 0.149861 0.967885
O O9 0.825790 0.688215 0.375213
O O10 0.000000 0.369675 0.000000
#
# Coordination Sequence:
#
# PCOD9577001 Si02
#       4
#    18  18  18  18
#     4  12  24  44  71 103 147 185 238 292 347 423
#     4  10  21  41  68 101 140 178 229 287 348 417
#     4  11  24  43  69 106 143 183 235 292 348 423
#     4  11  22  46  73  98 139 195 228 286 359 408
#
# _framework density 25.306304999999998
#
# number of rings (size 3 to 8) (size 9 to 14) (size 15 to 20)
#    0.000    1.000    5.000    2.250    0.000    5.000 
#    0.000    0.000    0.000    3.000    0.000    0.000 
#    0.000    0.000    0.000    0.000    0.000    0.000 
#
# Total GULP energy -133646.468914 kJ/mol
# GULP energy per Si atom -5568.602871 kJ/mol
# Density = 2.524871 g / cm^3
# Si number density = 25.306305 Si / 1000 Ang^3
#
#
#
# Elastic Constant Matrix: (Units=GPa)
#
#
# Indices 1 2 3 4 5 6 
#
# 1 95.4728 12.4680 12.4942 -7.9535 -0.0002 0.0000
# 2 12.4680 95.4728 12.4942 7.9535 0.0002 0.0000
# 3 12.4942 12.4942 89.2256 0.0000 0.0000 0.0000
# 4 -7.9535 7.9535 0.0000 27.7330 0.0000 0.0002
# 5 -0.0002 0.0002 0.0000 0.0000 27.7330 -7.9535
# 6 0.0000 0.0000 0.0000 0.0002 -7.9535 41.5024
#
#
#
# Elastic Compliance Matrix: (Units=1/GPa)
#
#
# Indices 1 2 3 4 5 6 
#
# 1 0.011161 -0.001587 -0.001341 0.003656 0.000000 0.000000
# 2 -0.001587 0.011161 -0.001341 -0.003656 0.000000 0.000000
# 3 -0.001341 -0.001341 0.011583 0.000000 0.000000 0.000000
# 4 0.003656 -0.003656 0.000000 0.038155 0.000000 0.000000
# 5 0.000000 0.000000 0.000000 0.000000 0.038155 0.007312
# 6 0.000000 0.000000 0.000000 0.000000 0.007312 0.025496
#
#
# Mechanical properties :
#
#
# Convention : Reuss Voigt Hill
#
# Bulk Modulus (GPa) = 39.41739 39.45377 39.43558
# Shear Modulus (GPa) = 32.74281 35.57467 34.15874
#
# Velocity S-wave (km/s) = 3.60093 3.75342 3.67796
# Velocity P-wave (km/s) = 5.73575 5.86588 5.80118
#
# Compressibility (1/GPa) = 0.02536951
#
# Stress axis : x y z
#
# Youngs Moduli (GPa) = 89.59432 89.59432 86.33318
#
# Poissons Ratio (x) = 0.14216 0.11575
# Poissons Ratio (y) = 0.14216 0.11575
# Poissons Ratio (z) = 0.12012 0.12012
#
# Static dielectric constant tensor:
#      x y z
#    x 2.015030 0.000000 0.000000 
#    y 0.000000 2.015030 0.000000 
#    z 0.000000 0.000000 2.260290 
# 
# From -- ./inp_files/5892.got.cif
#   From: 2010.05.17/outbox.cif.g08.bks.cpg/sg155_3_cif.got.tgz:5892.got - 2010.05.20 10:44:35.
