data_PCOD9577854
_publ_section_title
;
Structure prediction by ZEFSAII (Michael W. Deem and Ramdas Pophale) SiO2 
 PCOD9577854
Probable space group: P -3 1 M 
;
_chemical_formula_sum "Si O2"
_cell_formula_units_Z 84
_cell_length_a 14.594832
_cell_length_b 14.594832
_cell_length_c 23.500302
_cell_angle_alpha 90.000000
_cell_angle_beta 90.000000
_cell_angle_gamma 120.000000
_cell_volume 4335.131498
_symmetry_space_group_name_H-M "P -3 1 M "
_symmetry_group_IT_number 162
_symmetry_cell_setting 'hexagonal'
loop_
_space_group_symop_operation_xyz
x,y,z
-y,x-y,z
-x+y,-x,z
-y,-x,-z
-x+y,y,-z
x,x-y,-z
-x,-y,-z
y,-x+y,-z
x-y,x,-z
y,x,z
x-y,-y,z
-x,-x+y,z
loop_
_atom_site_type_symbol
_atom_site_label
_atom_site_fract_x
_atom_site_fract_y
_atom_site_fract_z
Si Si1 0.242227 0.118393 0.843433
Si Si2 0.580421 0.799078 0.064970
Si Si3 0.344436 0.221905 0.729652
Si Si4 0.683627 0.126766 0.342623
Si Si5 0.124980 0.558694 0.238839
Si Si6 0.434216 0.560075 0.888043
Si Si7 0.538530 0.666706 0.525304
O O1 0.202284 0.202284 0.850393
O O2 0.322714 0.132922 0.893165
O O3 0.301333 0.142379 0.782843
O O4 0.145957 0.000000 0.843578
O O5 0.523026 0.680372 0.088998
O O6 0.493280 0.834506 0.070583
O O7 0.614740 0.807370 0.000000
O O8 0.263008 0.263008 0.717999
O O9 0.367338 0.171472 0.675534
O O10 0.453743 0.322863 0.749558
O O11 0.635224 0.167612 0.293166
O O12 0.672072 0.152010 0.407235
O O13 0.620940 0.000000 0.339350
O O14 0.169596 0.600103 0.175983
O O15 0.000000 0.519389 0.235870
O O16 0.501020 0.501020 0.884729
O O17 0.429560 0.570441 0.500000
O O18 0.562970 0.781485 0.500000
O O19 0.626902 0.626902 0.518060
#
# Coordination Sequence:
#
# PCOD9577854 Si02
#       7
#    12  12  12  12  12  12  12
#     4  11  23  41  63  89 122 161 204 252 307 368
#     4  12  25  40  61  87 114 153 202 247 302 369
#     4  10  20  37  61  88 120 157 199 251 311 369
#     4  10  21  37  59  91 125 157 202 250 304 367
#     4   9  19  36  57  84 116 149 187 238 299 362
#     4  11  23  42  62  83 115 150 188 242 303 361
#     4  10  23  42  64  92 130 177 223 265 311 371
#
# _framework density 19.376574000000002
#
# number of rings (size 3 to 8) (size 9 to 14) (size 15 to 20)
#    0.000    1.571    1.429    3.143    2.000    4.571 
#    0.857    0.000    0.000    1.286    0.000    0.000 
#    0.000    0.000    0.000    0.000    0.000    0.000 
#
# Total GULP energy -469007.858308 kJ/mol
# GULP energy per Si atom -5583.426885 kJ/mol
# Density = 1.933247 g / cm^3
# Si number density = 19.376574 Si / 1000 Ang^3
#
#
#
# Elastic Constant Matrix: (Units=GPa)
#
#
# Indices 1 2 3 4 5 6 
#
# 1 64.8909 13.0647 33.1238 0.0001 -1.8217 0.0000
# 2 13.0647 64.8909 33.1238 -0.0001 1.8217 0.0000
# 3 33.1238 33.1238 121.8433 0.0000 0.0000 0.0000
# 4 0.0001 -0.0001 0.0000 14.4371 0.0000 1.8217
# 5 -1.8217 1.8217 0.0000 0.0000 14.4371 0.0001
# 6 0.0000 0.0000 0.0000 1.8217 0.0001 25.9131
#
#
#
# Elastic Compliance Matrix: (Units=1/GPa)
#
#
# Indices 1 2 3 4 5 6 
#
# 1 0.018075 -0.001393 -0.004535 0.000000 0.002456 0.000000
# 2 -0.001393 0.018075 -0.004535 0.000000 -0.002456 0.000000
# 3 -0.004535 -0.004535 0.010673 0.000000 0.000000 0.000000
# 4 0.000000 0.000000 0.000000 0.069886 0.000000 -0.004913
# 5 0.002456 -0.002456 0.000000 0.000000 0.069886 0.000000
# 6 0.000000 0.000000 0.000000 -0.004913 0.000000 0.038936
#
#
# Mechanical properties :
#
#
# Convention : Reuss Voigt Hill
#
# Bulk Modulus (GPa) = 38.61541 45.58329 42.09935
# Shear Modulus (GPa) = 19.60101 22.44498 21.02300
#
# Velocity S-wave (km/s) = 3.18399 3.40716 3.29746
# Velocity P-wave (km/s) = 5.78699 6.24934 6.02260
#
# Compressibility (1/GPa) = 0.02589640
#
# Stress axis : x y z
#
# Youngs Moduli (GPa) = 55.32549 55.32549 93.69427
#
# Poissons Ratio (x) = 0.07707 0.42491
# Poissons Ratio (y) = 0.07707 0.42491
# Poissons Ratio (z) = 0.25090 0.25090
#
# Static dielectric constant tensor:
#      x y z
#    x 1.673810 0.000000 0.000000 
#    y 0.000000 1.673810 0.000000 
#    z 0.000000 0.000000 1.671170 
# 
# From -- ./inp_files/3976.got.cif
#   From: 2010.05.17/outbox.cif.g08.bks.cpg/sg162_2_cif.got.tgz:3976.got - 2010.05.20 10:53:12.
