data_PCOD9577079
_publ_section_title
;
Structure prediction by ZEFSAII (Michael W. Deem and Ramdas Pophale) SiO2 
 PCOD9577079
Probable space group: R 3 2
;
_chemical_formula_sum "Si O2"
_cell_formula_units_Z 69
_cell_length_a 10.831040
_cell_length_b 10.831040
_cell_length_c 32.504093
_cell_angle_alpha 90.000000
_cell_angle_beta 90.000000
_cell_angle_gamma 120.000000
_cell_volume 3302.242808
_symmetry_space_group_name_H-M "R 3 2"
_symmetry_group_IT_number 155
_symmetry_cell_setting 'hexagonal'
loop_
_space_group_symop_operation_xyz
x,y,z
-y,x-y,z
-x+y,-x,z
x-y,-y,-z
-x,-x+y,-z
y,x,-z
2/3+x,1/3+y,1/3+z
2/3-y,1/3+x-y,1/3+z
2/3-x+y,1/3-x,1/3+z
2/3+x-y,1/3-y,1/3-z
2/3-x,1/3-x+y,1/3-z
2/3+y,1/3+x,1/3-z
1/3+x,2/3+y,2/3+z
1/3-y,2/3+x-y,2/3+z
1/3-x+y,2/3-x,2/3+z
1/3+x-y,2/3-y,2/3-z
1/3-x,2/3-x+y,2/3-z
1/3+y,2/3+x,2/3-z
loop_
_atom_site_type_symbol
_atom_site_label
_atom_site_fract_x
_atom_site_fract_y
_atom_site_fract_z
Si Si1 0.545921 0.017235 0.398028
Si Si2 0.333334 0.666667 0.618282
Si Si3 0.596662 0.912990 0.214683
Si Si4 0.755079 0.757835 0.596968
Si Si5 0.666667 0.882100 0.333334
O O1 0.653437 0.185979 0.394505
O O2 0.587479 0.973447 0.440647
O O3 0.394606 0.008561 0.395769
O O4 0.577414 0.929768 0.363140
O O5 0.333334 0.666668 0.666667
O O6 0.566357 0.899691 0.166667
O O7 0.606903 0.777885 0.228306
O O8 0.476953 0.915519 0.245178
O O9 0.843255 0.766789 0.638588
#
# Coordination Sequence:
#
# PCOD9577079 Si02
#       5
#    18   6  18  18   9
#     4  11  24  45  67 105 133 183 233 290 346 416
#     4  12  21  39  78  96 132 171 237 276 348 417
#     4  11  25  46  71 100 136 188 238 282 351 421
#     4  11  25  45  70 102 139 183 226 291 350 420
#     4  10  26  42  70 106 142 176 228 288 362 420
#
# _framework density 20.89489
#
# number of rings (size 3 to 8) (size 9 to 14) (size 15 to 20)
#    0.000    1.043    3.913    1.304    9.130    2.087 
#   12.522    0.000    0.000    0.000    0.000    0.000 
#    0.000    0.000    0.000    0.000    0.000    0.000 
#
# Total GULP energy -128230.338038 kJ/mol
# GULP energy per Si atom -5575.232089 kJ/mol
# Density = 2.084733 g / cm^3
# Si number density = 20.894890 Si / 1000 Ang^3
#
#
#
# Elastic Constant Matrix: (Units=GPa)
#
#
# Indices 1 2 3 4 5 6 
#
# 1 93.2080 40.5490 27.1094 2.9449 -0.0014 0.0001
# 2 40.5490 93.2084 27.1095 -2.9448 0.0012 0.0001
# 3 27.1094 27.1095 115.5970 0.0000 0.0000 0.0001
# 4 2.9449 -2.9448 0.0000 12.6820 0.0000 0.0014
# 5 -0.0014 0.0012 0.0000 0.0000 12.6819 2.9448
# 6 0.0001 0.0001 0.0001 0.0014 2.9448 26.3293
#
#
#
# Elastic Compliance Matrix: (Units=1/GPa)
#
#
# Indices 1 2 3 4 5 6 
#
# 1 0.013879 -0.005617 -0.001937 -0.004527 0.000002 0.000000
# 2 -0.005617 0.013879 -0.001937 0.004527 -0.000002 0.000000
# 3 -0.001937 -0.001937 0.009559 0.000000 0.000000 0.000000
# 4 -0.004527 0.004527 0.000000 0.080955 0.000000 -0.000004
# 5 0.000002 -0.000002 0.000000 0.000000 0.080955 -0.009055
# 6 0.000000 0.000000 0.000000 -0.000004 -0.009055 0.038993
#
#
# Mechanical properties :
#
#
# Convention : Reuss Voigt Hill
#
# Bulk Modulus (GPa) = 54.54719 54.61657 54.58188
# Shear Modulus (GPa) = 18.98859 24.15500 21.57180
#
# Velocity S-wave (km/s) = 3.01785 3.40372 3.21658
# Velocity P-wave (km/s) = 6.18913 6.45311 6.32250
#
# Compressibility (1/GPa) = 0.01833275
#
# Stress axis : x y z
#
# Youngs Moduli (GPa) = 72.05117 72.05160 104.60814
#
# Poissons Ratio (x) = 0.40474 0.20268
# Poissons Ratio (y) = 0.40474 0.20268
# Poissons Ratio (z) = 0.13960 0.13960
#
# Static dielectric constant tensor:
#      x y z
#    x 1.770500 0.000000 0.000000 
#    y 0.000000 1.770500 0.000000 
#    z 0.000000 0.000000 1.763420 
# 
# From -- ./inp_files/8266.got.cif
#   From: 2010.05.17/outbox.cif.g08.bks.cpg/sg155_5_cif.got.tgz:8266.got - 2010.05.20 10:44:35.
