data_PCOD9577174
_publ_section_title
;
Structure prediction by ZEFSAII (Michael W. Deem and Ramdas Pophale) SiO2 
 PCOD9577174
Probable space group: R 3 2
;
_chemical_formula_sum "Si O2"
_cell_formula_units_Z 84
_cell_length_a 17.305517
_cell_length_b 17.305517
_cell_length_c 14.355383
_cell_angle_alpha 90.000000
_cell_angle_beta 90.000000
_cell_angle_gamma 120.000000
_cell_volume 3723.184623
_symmetry_space_group_name_H-M "R 3 2"
_symmetry_group_IT_number 155
_symmetry_cell_setting 'hexagonal'
loop_
_space_group_symop_operation_xyz
x,y,z
-y,x-y,z
-x+y,-x,z
x-y,-y,-z
-x,-x+y,-z
y,x,-z
2/3+x,1/3+y,1/3+z
2/3-y,1/3+x-y,1/3+z
2/3-x+y,1/3-x,1/3+z
2/3+x-y,1/3-y,1/3-z
2/3-x,1/3-x+y,1/3-z
2/3+y,1/3+x,1/3-z
1/3+x,2/3+y,2/3+z
1/3-y,2/3+x-y,2/3+z
1/3-x+y,2/3-x,2/3+z
1/3+x-y,2/3-y,2/3-z
1/3-x,2/3-x+y,2/3-z
1/3+y,2/3+x,2/3-z
loop_
_atom_site_type_symbol
_atom_site_label
_atom_site_fract_x
_atom_site_fract_y
_atom_site_fract_z
Si Si1 0.896095 0.229428 0.166667
Si Si2 0.924391 0.116140 0.575500
Si Si3 0.631912 0.631912 0.000000
Si Si4 0.929582 0.680815 0.777326
Si Si5 0.666668 0.333334 0.681048
Si Si6 0.172211 0.695000 0.769942
Si Si7 0.666668 0.333334 0.206306
O O1 0.795667 0.206626 0.193822
O O2 0.960087 0.286751 0.253114
O O3 0.947157 0.199875 0.641135
O O4 0.832114 0.096705 0.528938
O O5 0.000000 0.154141 0.500000
O O6 0.932726 0.034586 0.618507
O O7 0.931349 0.666667 0.666667
O O8 0.002769 0.669436 0.833334
O O9 0.954542 0.776660 0.818123
O O10 0.666668 0.333334 0.571622
O O11 0.125509 0.666667 0.666667
O O12 0.261471 0.691574 0.761786
#
# Coordination Sequence:
#
# PCOD9577174 Si02
#       7
#     9  18   9  18   6  18   6
#     4  12  30  52  82 114 160 212 270 334 400 486
#     4  12  26  47  77 111 154 204 257 330 400 482
#     4  12  28  50  76 116 158 214 266 328 402 494
#     4  12  26  47  73 111 152 200 256 318 394 474
#     4  12  25  50  79 117 157 203 271 326 416 489
#     4  12  29  50  78 118 154 209 264 333 404 475
#     4  12  28  47  79 108 157 197 254 328 391 475
#
# _framework density 22.561330999999999
#
# number of rings (size 3 to 8) (size 9 to 14) (size 15 to 20)
#    0.000    0.000    3.214    5.786    9.000    0.000 
#    0.000    0.000    0.000    0.000    0.000    0.000 
#    0.000    0.000    0.000    0.000    0.000    0.000 
#
# Total GULP energy -156238.950352 kJ/mol
# GULP energy per Si atom -5579.962513 kJ/mol
# Density = 2.250998 g / cm^3
# Si number density = 22.561331 Si / 1000 Ang^3
#
#
#
# Elastic Constant Matrix: (Units=GPa)
#
#
# Indices 1 2 3 4 5 6 
#
# 1 244.5220 -51.7548 46.5370 -15.0378 -0.0011 0.0000
# 2 -51.7548 244.5297 46.5412 15.0381 0.0011 0.0000
# 3 46.5370 46.5412 92.1335 0.0003 0.0000 0.0000
# 4 -15.0378 15.0381 0.0003 34.8628 0.0000 0.0011
# 5 -0.0011 0.0011 0.0000 0.0000 34.8630 -15.0431
# 6 0.0000 0.0000 0.0000 0.0011 -15.0431 148.1780
#
#
#
# Elastic Compliance Matrix: (Units=1/GPa)
#
#
# Indices 1 2 3 4 5 6 
#
# 1 0.005195 0.001666 -0.003466 0.001523 0.000000 0.000000
# 2 0.001666 0.005195 -0.003466 -0.001523 0.000000 0.000000
# 3 -0.003466 -0.003466 0.014355 0.000000 0.000000 0.000000
# 4 0.001523 -0.001523 0.000000 0.029997 0.000000 0.000000
# 5 0.000000 0.000000 0.000000 0.000000 0.029998 0.003045
# 6 0.000000 0.000000 0.000000 0.000000 0.003045 0.007058
#
#
# Mechanical properties :
#
#
# Convention : Reuss Voigt Hill
#
# Bulk Modulus (GPa) = 70.35195 73.75912 72.05553
# Shear Modulus (GPa) = 46.69937 79.57155 63.13546
#
# Velocity S-wave (km/s) = 4.55454 5.94521 5.29572
# Velocity P-wave (km/s) = 7.67519 8.93818 8.33066
#
# Compressibility (1/GPa) = 0.01421425
#
# Stress axis : x y z
#
# Youngs Moduli (GPa) = 192.48051 192.48368 69.66234
#
# Poissons Ratio (x) = -0.32059 0.24142
# Poissons Ratio (y) = -0.32059 0.24143
# Poissons Ratio (z) = 0.66705 0.66708
#
# Static dielectric constant tensor:
#      x y z
#    x 1.816110 0.000000 0.000000 
#    y 0.000000 1.816050 -0.000020 
#    z 0.000000 -0.000020 1.949490 
# 
# From -- ./inp_files/5033.got.cif
#   From: 2010.05.17/outbox.cif.g08.bks.cpg/sg155_3_cif.got.tgz:5033.got - 2010.05.20 10:44:35.
