data_PCOD9577294
_publ_section_title
;
Structure prediction by ZEFSAII (Michael W. Deem and Ramdas Pophale) SiO2 
 PCOD9577294
Probable space group: P 3 C 1
;
_chemical_formula_sum "Si O2"
_cell_formula_units_Z 24
_cell_length_a 11.393070
_cell_length_b 11.393070
_cell_length_c 9.232621
_cell_angle_alpha 90.000000
_cell_angle_beta 90.000000
_cell_angle_gamma 120.000000
_cell_volume 1037.856169
_symmetry_space_group_name_H-M "P 3 C 1"
_symmetry_group_IT_number 158
_symmetry_cell_setting 'hexagonal'
loop_
_space_group_symop_operation_xyz
x,y,z
-y,x-y,z
-x+y,-x,z
-x+y,y,1/2+z
x,x-y,1/2+z
-y,-x,1/2+z
loop_
_atom_site_type_symbol
_atom_site_label
_atom_site_fract_x
_atom_site_fract_y
_atom_site_fract_z
Si Si1 0.003503 0.758280 0.878790
Si Si2 0.490603 0.999865 0.504403
Si Si3 0.246526 0.002686 0.034064
Si Si4 0.448779 0.618258 0.754570
O O1 0.400020 0.354647 0.914352
O O2 0.006707 0.779659 0.706360
O O3 0.895562 0.787734 0.957063
O O4 0.148269 0.859772 0.953570
O O5 0.651133 0.060201 0.512956
O O6 0.451910 0.859681 0.422522
O O7 0.536348 0.964836 0.164834
O O8 0.476915 0.766347 0.717894
#
# Coordination Sequence:
#
# PCOD9577294 Si02
#       4
#     6   6   6   6
#     4  12  28  49  75 107 146 194 243 302 363 435
#     4  12  24  42  70 108 142 186 238 292 356 430
#     4  12  28  49  75 107 146 194 243 302 363 435
#     4  10  20  34  60 102 146 180 212 282 350 420
#
# _framework density 23.124592
#
# number of rings (size 3 to 8) (size 9 to 14) (size 15 to 20)
#    0.500    0.000    2.500    6.500    7.000    0.000 
#    3.000    0.000    0.000    0.000    0.000    0.000 
#    0.000    0.000    0.000    0.000    0.000    0.000 
#
# Total GULP energy -133811.436181 kJ/mol
# GULP energy per Si atom -5575.476508 kJ/mol
# Density = 2.307196 g / cm^3
# Si number density = 23.124592 Si / 1000 Ang^3
#
#
#
# Elastic Constant Matrix: (Units=GPa)
#
#
# Indices 1 2 3 4 5 6 
#
# 1 82.9607 11.7959 37.5748 -0.2838 0.0000 0.0000
# 2 11.7959 82.9607 37.5748 0.2838 0.0000 0.0000
# 3 37.5748 37.5748 173.7284 0.0000 0.0000 0.0000
# 4 -0.2838 0.2838 0.0000 26.0015 0.0000 0.0000
# 5 0.0000 0.0000 0.0000 0.0000 26.0015 -0.2838
# 6 0.0000 0.0000 0.0000 0.0000 -0.2838 35.5824
#
#
#
# Elastic Compliance Matrix: (Units=1/GPa)
#
#
# Indices 1 2 3 4 5 6 
#
# 1 0.013396 -0.000657 -0.002755 0.000153 0.000000 0.000000
# 2 -0.000657 0.013396 -0.002755 -0.000153 0.000000 0.000000
# 3 -0.002755 -0.002755 0.006948 0.000000 0.000000 0.000000
# 4 0.000153 -0.000153 0.000000 0.038463 0.000000 0.000000
# 5 0.000000 0.000000 0.000000 0.000000 0.038463 0.000307
# 6 0.000000 0.000000 0.000000 0.000000 0.000307 0.028106
#
#
# Mechanical properties :
#
#
# Convention : Reuss Voigt Hill
#
# Bulk Modulus (GPa) = 46.71981 57.06007 51.88994
# Shear Modulus (GPa) = 31.59741 34.36404 32.98073
#
# Velocity S-wave (km/s) = 3.70049 3.85910 3.78063
# Velocity P-wave (km/s) = 6.20529 6.67724 6.44558
#
# Compressibility (1/GPa) = 0.02140420
#
# Stress axis : x y z
#
# Youngs Moduli (GPa) = 74.65052 74.65052 143.92855
#
# Poissons Ratio (x) = 0.04907 0.39654
# Poissons Ratio (y) = 0.04907 0.39654
# Poissons Ratio (z) = 0.20567 0.20567
#
# Static dielectric constant tensor:
#      x y z
#    x 1.903530 0.000000 0.000000 
#    y 0.000000 1.903530 0.000000 
#    z 0.000000 0.000000 1.845930 
# 
# From -- ./inp_files/322.got.cif
#   From: 2010.05.17/outbox.cif.g08.bks.cpg/sg158_cif.got.tgz:322.got - 2010.05.20 10:49:59.
