data_PCOD9577114
_publ_section_title
;
Structure prediction by ZEFSAII (Michael W. Deem and Ramdas Pophale) SiO2 
 PCOD9577114
Probable space group: R 3 2
;
_chemical_formula_sum "Si O2"
_cell_formula_units_Z 60
_cell_length_a 18.032851
_cell_length_b 18.032851
_cell_length_c 11.010463
_cell_angle_alpha 90.000000
_cell_angle_beta 90.000000
_cell_angle_gamma 120.000000
_cell_volume 3100.737503
_symmetry_space_group_name_H-M "R 3 2"
_symmetry_group_IT_number 155
_symmetry_cell_setting 'hexagonal'
loop_
_space_group_symop_operation_xyz
x,y,z
-y,x-y,z
-x+y,-x,z
x-y,-y,-z
-x,-x+y,-z
y,x,-z
2/3+x,1/3+y,1/3+z
2/3-y,1/3+x-y,1/3+z
2/3-x+y,1/3-x,1/3+z
2/3+x-y,1/3-y,1/3-z
2/3-x,1/3-x+y,1/3-z
2/3+y,1/3+x,1/3-z
1/3+x,2/3+y,2/3+z
1/3-y,2/3+x-y,2/3+z
1/3-x+y,2/3-x,2/3+z
1/3+x-y,2/3-y,2/3-z
1/3-x,2/3-x+y,2/3-z
1/3+y,2/3+x,2/3-z
loop_
_atom_site_type_symbol
_atom_site_label
_atom_site_fract_x
_atom_site_fract_y
_atom_site_fract_z
Si Si1 0.430988 0.191515 0.850620
Si Si2 0.858608 0.008761 0.700152
Si Si3 0.630982 0.909893 0.544427
Si Si4 0.333333 0.666667 0.520962
O O1 0.442834 0.109501 0.833334
O O2 0.471980 0.247464 0.729053
O O3 0.337571 0.180467 0.876797
O O4 0.490369 0.254191 0.958549
O O5 0.783915 0.009905 0.775840
O O6 0.929651 0.019459 0.796404
O O7 0.592270 0.925603 0.666667
O O8 0.709680 0.000000 0.500000
O O9 0.333334 0.666668 0.666667
#
# Coordination Sequence:
#
# PCOD9577114 Si02
#       4
#    18  18  18   6
#     4  11  21  36  63  94 128 161 213 274 329 390
#     4  11  22  36  61  92 122 163 215 272 327 382
#     4  12  21  38  63  96 132 167 218 276 329 394
#     4  12  24  40  56  85 129 165 211 272 331 393
#
# _framework density 19.350235999999999
#
# number of rings (size 3 to 8) (size 9 to 14) (size 15 to 20)
#    0.000    0.600    9.000    1.800    0.000    0.000 
#    0.000    0.000    0.000   12.600    0.000    0.000 
#    0.000    0.000    0.000    0.000    0.000    0.000 
#
# Total GULP energy -111596.123876 kJ/mol
# GULP energy per Si atom -5579.806194 kJ/mol
# Density = 1.930619 g / cm^3
# Si number density = 19.350236 Si / 1000 Ang^3
#
#
#
# Elastic Constant Matrix: (Units=GPa)
#
#
# Indices 1 2 3 4 5 6 
#
# 1 70.1702 17.7111 35.5047 9.0403 0.0000 0.0000
# 2 17.7111 70.1699 35.5046 -9.0404 0.0000 0.0000
# 3 35.5047 35.5046 151.0435 -0.0001 0.0001 0.0000
# 4 9.0403 -9.0404 -0.0001 25.8278 0.0001 0.0000
# 5 0.0000 0.0000 0.0001 0.0001 25.8278 9.0402
# 6 0.0000 0.0000 0.0000 0.0000 9.0402 26.2294
#
#
#
# Elastic Compliance Matrix: (Units=1/GPa)
#
#
# Indices 1 2 3 4 5 6 
#
# 1 0.017862 -0.003815 -0.003302 -0.007588 0.000000 0.000000
# 2 -0.003815 0.017862 -0.003302 0.007588 0.000000 0.000000
# 3 -0.003302 -0.003302 0.008173 0.000000 0.000000 0.000000
# 4 -0.007588 0.007588 0.000000 0.044030 0.000000 0.000000
# 5 0.000000 0.000000 0.000000 0.000000 0.044030 -0.015175
# 6 0.000000 0.000000 0.000000 0.000000 -0.015175 0.043355
#
#
# Mechanical properties :
#
#
# Convention : Reuss Voigt Hill
#
# Bulk Modulus (GPa) = 43.36657 52.09162 47.72909
# Shear Modulus (GPa) = 24.52939 29.08789 26.80864
#
# Velocity S-wave (km/s) = 3.56427 3.88136 3.72619
# Velocity P-wave (km/s) = 6.27684 6.86043 6.57511
#
# Compressibility (1/GPa) = 0.02305924
#
# Stress axis : x y z
#
# Youngs Moduli (GPa) = 55.98376 55.98352 122.35518
#
# Poissons Ratio (x) = 0.21360 0.40401
# Poissons Ratio (y) = 0.21360 0.40401
# Poissons Ratio (z) = 0.18485 0.18485
#
# Static dielectric constant tensor:
#      x y z
#    x 1.695620 0.000000 0.000000 
#    y 0.000000 1.695620 0.000000 
#    z 0.000000 0.000000 1.678910 
# 
# From -- ./inp_files/3563.got.cif
#   From: 2010.05.17/outbox.cif.g08.bks.cpg/sg155_2_cif.got.tgz:3563.got - 2010.05.20 10:44:35.
