data_PCOD9577202
_publ_section_title
;
Structure prediction by ZEFSAII (Michael W. Deem and Ramdas Pophale) SiO2 
 PCOD9577202
Probable space group: P 3 M 1
;
_chemical_formula_sum "Si O2"
_cell_formula_units_Z 42
_cell_length_a 20.614051
_cell_length_b 20.614051
_cell_length_c 5.281869
_cell_angle_alpha 90.000000
_cell_angle_beta 90.000000
_cell_angle_gamma 120.000000
_cell_volume 1943.770335
_symmetry_space_group_name_H-M "P 3 M 1"
_symmetry_group_IT_number 156
_symmetry_cell_setting 'hexagonal'
loop_
_space_group_symop_operation_xyz
x,y,z
-y,x-y,z
-x+y,-x,z
-x+y,y,z
x,x-y,z
-y,-x,z
loop_
_atom_site_type_symbol
_atom_site_label
_atom_site_fract_x
_atom_site_fract_y
_atom_site_fract_z
Si Si1 0.952745 0.402535 0.195370
Si Si2 0.735872 0.116454 0.859087
Si Si3 0.525483 0.192149 0.527239
Si Si4 0.153417 0.997941 0.042494
Si Si5 0.331275 0.820086 0.011952
Si Si6 0.528984 0.902903 0.515249
Si Si7 0.804353 0.040582 0.539198
O O1 0.971258 0.485629 0.085669
O O2 0.871622 0.367921 0.318593
O O3 0.013128 0.419956 0.415661
O O4 0.943546 0.333333 0.027227
O O5 0.818965 0.181036 0.968798
O O6 0.701261 0.162963 0.735848
O O7 0.753296 0.073493 0.638803
O O8 0.601706 0.203411 0.640568
O O9 0.536766 0.268383 0.413946
O O10 0.072239 0.927762 0.093814
O O11 0.149542 0.074771 0.040630
O O12 0.210576 0.004611 0.263997
O O13 0.183451 0.991146 0.768670
O O14 0.408104 0.816207 0.013810
O O15 0.261093 0.738908 0.960649
O O16 0.337945 0.877243 0.790444
O O17 0.324485 0.850125 0.285771
O O18 0.446540 0.893079 0.527361
O O19 0.886800 0.113201 0.527084
#
# Coordination Sequence:
#
# PCOD9577202 Si02
#       7
#     6   6   6   6   6   6   6
#     4  10  21  36  57  83 111 148 192 236 281 337
#     4  10  21  36  57  83 111 148 192 236 281 337
#     4  10  21  36  58  88 119 148 182 232 292 348
#     4  10  19  34  56  85 116 150 188 239 297 348
#     4  10  19  34  56  85 116 150 188 239 297 348
#     4   9  20  34  54  82 115 151 194 238 281 335
#     4   9  20  34  54  82 115 151 194 238 281 335
#
# _framework density 21.607492000000001
#
# number of rings (size 3 to 8) (size 9 to 14) (size 15 to 20)
#    0.000    2.286    0.000    2.143    4.000    0.000 
#    0.000    2.857    0.000    9.714    0.000    0.000 
#    0.000    0.000    0.000    0.000    0.000    0.000 
#
# Total GULP energy -234269.998361 kJ/mol
# GULP energy per Si atom -5577.857104 kJ/mol
# Density = 2.155831 g / cm^3
# Si number density = 21.607492 Si / 1000 Ang^3
#
#
#
# Elastic Constant Matrix: (Units=GPa)
#
#
# Indices 1 2 3 4 5 6 
#
# 1 35.3525 49.6041 3.8970 -10.5645 0.0001 0.0000
# 2 49.6041 35.3525 3.8970 10.5645 -0.0001 0.0000
# 3 3.8970 3.8970 53.7126 0.0000 0.0000 0.0000
# 4 -10.5645 10.5645 0.0000 23.9240 0.0000 -0.0001
# 5 0.0001 -0.0001 0.0000 0.0000 23.9240 -10.5645
# 6 0.0000 0.0000 0.0000 -0.0001 -10.5645 -7.1258
#
#
#
# Elastic Compliance Matrix: (Units=1/GPa)
#
#
# Indices 1 2 3 4 5 6 
#
# 1 -0.015278 0.027127 -0.000860 -0.018726 0.000000 0.000000
# 2 0.027127 -0.015278 -0.000860 0.018726 0.000000 0.000000
# 3 -0.000860 -0.000860 0.018742 0.000000 0.000000 0.000000
# 4 -0.018726 0.018726 0.000000 0.025261 0.000000 0.000000
# 5 0.000000 0.000000 0.000000 0.000000 0.025261 -0.037451
# 6 0.000000 0.000000 0.000000 0.000000 -0.037451 -0.084810
#
#
# Mechanical properties :
#
#
# Convention : Reuss Voigt Hill
#
# Bulk Modulus (GPa) = 25.63926 26.57929 26.10928
# Shear Modulus (GPa) = -59.58299 12.61239 -23.48530
#
# Velocity S-wave (km/s) = -5.25690 2.41862 -3.30040
# Velocity P-wave (km/s) = 4.99550 4.48634 1.55366
#
# Compressibility (1/GPa) = 0.03900268
#
# Stress axis : x y z
#
# Youngs Moduli (GPa) = -65.45443 -65.45443 53.35507
#
# Poissons Ratio (x) = 1.77561 0.04587
# Poissons Ratio (y) = 1.77561 0.04587
# Poissons Ratio (z) = -0.05627 -0.05627
#
# Static dielectric constant tensor:
#      x y z
#    x 1.778450 0.000000 0.000000 
#    y 0.000000 1.778450 0.000000 
#    z 0.000000 0.000000 1.846190 
# 
# From -- ./inp_files/192.got.cif
#   From: 2010.05.17/outbox.cif.g08.bks.cpg/sg156_cif.got.tgz:192.got - 2010.05.20 10:49:08.
