data_PCOD9577414
_publ_section_title
;
Structure prediction by ZEFSAII (Michael W. Deem and Ramdas Pophale) SiO2 
 PCOD9577414
Probable space group: P 3 1 C
;
_chemical_formula_sum "Si O2"
_cell_formula_units_Z 34
_cell_length_a 8.256816
_cell_length_b 8.256816
_cell_length_c 28.453550
_cell_angle_alpha 90.000000
_cell_angle_beta 90.000000
_cell_angle_gamma 120.000000
_cell_volume 1679.934324
_symmetry_space_group_name_H-M "P 3 1 C"
_symmetry_group_IT_number 159
_symmetry_cell_setting 'hexagonal'
loop_
_space_group_symop_operation_xyz
x,y,z
-y,x-y,z
-x+y,-x,z
y,x,1/2+z
x-y,-y,1/2+z
-x,-x+y,1/2+z
loop_
_atom_site_type_symbol
_atom_site_label
_atom_site_fract_x
_atom_site_fract_y
_atom_site_fract_z
Si Si1 0.430291 0.907597 0.750000
Si Si2 0.666668 0.333334 0.900482
Si Si3 0.666666 0.333334 0.788720
Si Si4 0.352798 0.981023 0.644986
Si Si5 0.371636 0.029464 0.966633
Si Si6 0.673294 0.966303 0.108489
Si Si7 0.287727 0.327317 0.003726
O O1 0.212963 0.746840 0.761434
O O2 0.535951 0.116341 0.771503
O O3 0.414859 0.936922 0.694352
O O4 0.666668 0.333334 0.844967
O O5 0.496648 0.138881 0.921570
O O6 0.293415 0.138302 0.647050
O O7 0.182986 0.803949 0.620797
O O8 0.534372 0.068341 0.612344
O O9 0.373001 0.192544 0.996948
O O10 0.469870 0.931930 0.993857
O O11 0.155979 0.869074 0.964756
O O12 0.706763 0.916618 0.056347
#
# Coordination Sequence:
#
# PCOD9577414 Si02
#       7
#     6   2   2   6   6   6   6
#     4  10  23  48  69 108 143 189 243 290 383 443
#     4   9  24  48  69 105 117 168 225 288 378 429
#     4  12  24  51  84 102 150 180 234 330 369 471
#     4  12  23  39  56  90 136 179 229 290 328 409
#     4  10  22  40  62  87 136 168 219 281 346 415
#     4  12  22  34  57  88 129 184 239 273 323 399
#     4  11  20  36  57  90 127 184 225 274 331 400
#
# _framework density 20.238886999999998
#
# number of rings (size 3 to 8) (size 9 to 14) (size 15 to 20)
#    0.353    0.706    1.765    6.353    0.000    0.000 
#    7.412    0.000    0.000    0.000    0.000    0.000 
#    0.000    0.000    0.000    0.000    0.000    0.000 
#
# Total GULP energy -189478.986400 kJ/mol
# GULP energy per Si atom -5572.911365 kJ/mol
# Density = 2.019282 g / cm^3
# Si number density = 20.238887 Si / 1000 Ang^3
#
#
#
# Elastic Constant Matrix: (Units=GPa)
#
#
# Indices 1 2 3 4 5 6 
#
# 1 105.9764 33.3867 40.5899 0.0000 2.4065 -0.0001
# 2 33.3867 105.9761 40.5899 0.0001 -2.4065 -0.0001
# 3 40.5899 40.5899 102.5112 0.0001 0.0001 0.0000
# 4 0.0000 0.0001 0.0001 16.7280 -0.0001 -2.4064
# 5 2.4065 -2.4065 0.0001 -0.0001 16.7281 0.0000
# 6 -0.0001 -0.0001 0.0000 -2.4064 0.0000 36.2948
#
#
#
# Elastic Compliance Matrix: (Units=1/GPa)
#
#
# Indices 1 2 3 4 5 6 
#
# 1 0.011618 -0.002291 -0.003693 0.000000 -0.002001 0.000000
# 2 -0.002291 0.011618 -0.003693 0.000000 0.002001 0.000000
# 3 -0.003693 -0.003693 0.012680 0.000000 0.000000 0.000000
# 4 0.000000 0.000000 0.000000 0.060356 0.000000 0.004002
# 5 -0.002001 0.002001 0.000000 0.000000 0.060355 0.000000
# 6 0.000000 0.000000 0.000000 0.004002 0.000000 0.027818
#
#
# Mechanical properties :
#
#
# Convention : Reuss Voigt Hill
#
# Bulk Modulus (GPa) = 60.38258 60.39964 60.39111
# Shear Modulus (GPa) = 23.88716 27.27666 25.58191
#
# Velocity S-wave (km/s) = 3.43922 3.67513 3.55913
# Velocity P-wave (km/s) = 6.75801 6.92221 6.84060
#
# Compressibility (1/GPa) = 0.01656107
#
# Stress axis : x y z
#
# Youngs Moduli (GPa) = 86.07554 86.07524 78.86731
#
# Poissons Ratio (x) = 0.19720 0.29125
# Poissons Ratio (y) = 0.19720 0.29125
# Poissons Ratio (z) = 0.31787 0.31787
#
# Static dielectric constant tensor:
#      x y z
#    x 1.782030 0.000000 0.000000 
#    y 0.000000 1.782030 0.000000 
#    z 0.000000 0.000000 1.662720 
# 
# From -- ./inp_files/1281.got.cif
#   From: 2010.05.17/outbox.cif.g08.bks.cpg/sg159_cif.got.tgz:1281.got - 2010.05.20 10:50:30.
