data_PCOD9577555
_publ_section_title
;
Structure prediction by ZEFSAII (Michael W. Deem and Ramdas Pophale) SiO2 
 PCOD9577555
Probable space group: R 3 C
;
_chemical_formula_sum "Si O2"
_cell_formula_units_Z 126
_cell_length_a 21.758489
_cell_length_b 21.758489
_cell_length_c 15.940649
_cell_angle_alpha 90.000000
_cell_angle_beta 90.000000
_cell_angle_gamma 120.000000
_cell_volume 6535.729908
_symmetry_space_group_name_H-M "R 3 C"
_symmetry_group_IT_number 161
_symmetry_cell_setting 'hexagonal'
loop_
_space_group_symop_operation_xyz
x,y,z
-y,x-y,z
-x+y,-x,z
-x+y,y,1/2+z
x,x-y,1/2+z
-y,-x,1/2+z
2/3+x,1/3+y,1/3+z
2/3-y,1/3+x-y,1/3+z
2/3-x+y,1/3-x,1/3+z
2/3-x+y,1/3+y,5/6+z
2/3+x,1/3+x-y,5/6+z
2/3-y,1/3-x,5/6+z
1/3+x,2/3+y,2/3+z
1/3-y,2/3+x-y,2/3+z
1/3-x+y,2/3-x,2/3+z
1/3-x+y,2/3+y,1/6+z
1/3+x,2/3+x-y,1/6+z
1/3-y,2/3-x,1/6+z
loop_
_atom_site_type_symbol
_atom_site_label
_atom_site_fract_x
_atom_site_fract_y
_atom_site_fract_z
Si Si1 0.682745 0.095536 0.968771
Si Si2 0.194870 0.384519 0.266469
Si Si3 0.232304 0.152443 0.283588
Si Si4 0.717848 0.861535 0.018295
Si Si5 0.413196 0.898975 0.501177
Si Si6 0.317256 0.412788 0.649324
Si Si7 0.825050 0.999999 0.809049
O O1 0.612114 0.082282 0.920688
O O2 0.753348 0.155961 0.924057
O O3 0.694878 0.028213 0.975713
O O4 0.671938 0.117563 0.061149
O O5 0.178521 0.413269 0.352764
O O6 0.165276 0.301333 0.282524
O O7 0.155958 0.402613 0.194042
O O8 0.301328 0.165272 0.335574
O O9 0.206305 0.206305 0.309049
O O10 0.172404 0.071730 0.302111
O O11 0.748942 0.945445 0.030740
O O12 0.746597 0.845184 0.932001
O O13 0.434009 0.839076 0.482655
O O14 0.328062 0.445624 0.556947
#
# Coordination Sequence:
#
# PCOD9577555 Si02
#       7
#    18  18  18  18  18  18  18
#     4  11  22  41  63  94 133 168 217 264 331 384
#     4  10  23  38  64  95 126 169 211 268 322 390
#     4  10  21  41  62  93 128 166 218 262 324 387
#     4  10  23  38  64  95 126 169 211 268 322 390
#     4  10  21  41  62  93 128 166 218 262 324 387
#     4  11  22  41  63  94 133 168 217 264 331 384
#     4  10  22  40  60  92 130 166 216 270 306 404
#
# _framework density 19.278642999999999
#
# number of rings (size 3 to 8) (size 9 to 14) (size 15 to 20)
#    0.000    1.714    2.857    0.857    4.000    0.000 
#    3.429    0.000    0.000    0.571    0.000    0.000 
#    0.000    0.000    0.000    0.000    0.000    0.000 
#
# Total GULP energy -234494.829752 kJ/mol
# GULP energy per Si atom -5583.210232 kJ/mol
# Density = 1.923476 g / cm^3
# Si number density = 19.278643 Si / 1000 Ang^3
#
#
#
# Elastic Constant Matrix: (Units=GPa)
#
#
# Indices 1 2 3 4 5 6 
#
# 1 121.7494 59.8204 38.4808 -3.1468 0.0000 0.0000
# 2 59.8204 121.7494 38.4808 3.1468 0.0000 0.0000
# 3 38.4808 38.4808 71.9243 0.0000 0.0000 0.0000
# 4 -3.1468 3.1468 0.0000 25.9644 0.0000 0.0000
# 5 0.0000 0.0000 0.0000 0.0000 25.9644 -3.1468
# 6 0.0000 0.0000 0.0000 0.0000 -3.1468 30.9645
#
#
#
# Elastic Compliance Matrix: (Units=1/GPa)
#
#
# Indices 1 2 3 4 5 6 
#
# 1 0.011736 -0.004613 -0.003811 0.001981 0.000000 0.000000
# 2 -0.004613 0.011736 -0.003811 -0.001981 0.000000 0.000000
# 3 -0.003811 -0.003811 0.017981 0.000000 0.000000 0.000000
# 4 0.001981 -0.001981 0.000000 0.038994 0.000000 0.000000
# 5 0.000000 0.000000 0.000000 0.000000 0.038994 0.003963
# 6 0.000000 0.000000 0.000000 0.000000 0.003963 0.032698
#
#
# Mechanical properties :
#
#
# Convention : Reuss Voigt Hill
#
# Bulk Modulus (GPa) = 58.88057 65.44300 62.16179
# Shear Modulus (GPa) = 27.43178 28.48808 27.95993
#
# Velocity S-wave (km/s) = 3.77624 3.84826 3.81242
# Velocity P-wave (km/s) = 7.04425 7.33246 7.18980
#
# Compressibility (1/GPa) = 0.01698353
#
# Stress axis : x y z
#
# Youngs Moduli (GPa) = 85.20895 85.20895 55.61352
#
# Poissons Ratio (x) = 0.39307 0.21193
# Poissons Ratio (y) = 0.39307 0.21193
# Poissons Ratio (z) = 0.32472 0.32472
#
# Static dielectric constant tensor:
#      x y z
#    x 1.684870 0.000000 0.000000 
#    y 0.000000 1.684870 0.000000 
#    z 0.000000 0.000000 1.686730 
# 
# From -- ./inp_files/1421.got.cif
#   From: 2010.05.17/outbox.cif.g08.bks.cpg/sg161_cif.got.tgz:1421.got - 2010.05.20 10:52:32.
