data_PCOD9577547
_publ_section_title
;
Structure prediction by ZEFSAII (Michael W. Deem and Ramdas Pophale) SiO2 
 PCOD9577547
Probable space group: R 3 C
;
_chemical_formula_sum "Si O2"
_cell_formula_units_Z 120
_cell_length_a 16.787425
_cell_length_b 16.787425
_cell_length_c 20.384538
_cell_angle_alpha 90.000000
_cell_angle_beta 90.000000
_cell_angle_gamma 120.000000
_cell_volume 4975.075496
_symmetry_space_group_name_H-M "R 3 C"
_symmetry_group_IT_number 161
_symmetry_cell_setting 'hexagonal'
loop_
_space_group_symop_operation_xyz
x,y,z
-y,x-y,z
-x+y,-x,z
-x+y,y,1/2+z
x,x-y,1/2+z
-y,-x,1/2+z
2/3+x,1/3+y,1/3+z
2/3-y,1/3+x-y,1/3+z
2/3-x+y,1/3-x,1/3+z
2/3-x+y,1/3+y,5/6+z
2/3+x,1/3+x-y,5/6+z
2/3-y,1/3-x,5/6+z
1/3+x,2/3+y,2/3+z
1/3-y,2/3+x-y,2/3+z
1/3-x+y,2/3-x,2/3+z
1/3-x+y,2/3+y,1/6+z
1/3+x,2/3+x-y,1/6+z
1/3-y,2/3-x,1/6+z
loop_
_atom_site_type_symbol
_atom_site_label
_atom_site_fract_x
_atom_site_fract_y
_atom_site_fract_z
Si Si1 0.922308 0.320839 0.190929
Si Si2 0.666667 0.333334 0.381487
Si Si3 0.204010 0.470630 0.040500
Si Si4 0.666667 0.333334 0.224552
Si Si5 0.838003 0.724780 0.654725
Si Si6 0.353365 0.024423 0.340795
Si Si7 0.301248 0.210421 0.001282
Si Si8 0.153694 0.973240 0.108674
O O1 0.883860 0.388028 0.175250
O O2 0.855242 0.212986 0.177180
O O3 0.947292 0.337034 0.267671
O O4 0.021600 0.353188 0.158621
O O5 0.666668 0.333334 0.303349
O O6 0.727708 0.290063 0.408199
O O7 0.241233 0.577676 0.034640
O O8 0.190214 0.443831 0.118154
O O9 0.106313 0.401416 0.010800
O O10 0.751340 0.724657 0.688172
O O11 0.813174 0.714584 0.577273
O O12 0.940314 0.812788 0.657939
O O13 0.432749 0.099004 0.387554
O O14 0.399447 0.223212 0.978276
#
# Coordination Sequence:
#
# PCOD9577547 Si02
#       8
#    18   6  18   6  18  18  18  18
#     4  10  21  37  61  89 118 157 201 247 301 355
#     4  12  24  39  60  91 128 154 198 258 304 362
#     4  11  23  39  60  90 126 158 200 255 305 365
#     4  12  24  36  57  91 125 163 198 246 322 368
#     4  10  20  39  62  86 118 155 199 248 296 360
#     4  10  22  39  60  88 120 158 202 247 297 358
#     4   9  21  40  61  86 115 158 205 243 295 360
#     4  10  23  39  61  89 116 157 201 246 302 354
#
# _framework density 24.120235999999998
#
# number of rings (size 3 to 8) (size 9 to 14) (size 15 to 20)
#    0.000    1.800    0.000    3.600    0.000   13.200 
#    0.000    3.000    0.000    3.600    0.000    0.000 
#    0.000    0.000    0.000    0.000    0.000    0.000 
#
# Total GULP energy -223699.678351 kJ/mol
# GULP energy per Si atom -5592.491959 kJ/mol
# Density = 2.406534 g / cm^3
# Si number density = 24.120236 Si / 1000 Ang^3
#
#
#
# Elastic Constant Matrix: (Units=GPa)
#
#
# Indices 1 2 3 4 5 6 
#
# 1 90.7654 31.9760 -4.6694 -9.2878 0.0000 0.0000
# 2 31.9760 90.7672 -4.6689 9.2881 0.0000 0.0000
# 3 -4.6694 -4.6689 30.7948 -0.0002 0.0000 0.0000
# 4 -9.2878 9.2881 -0.0002 20.2973 0.0000 0.0000
# 5 0.0000 0.0000 0.0000 0.0000 20.2967 -9.2877
# 6 0.0000 0.0000 0.0000 0.0000 -9.2877 29.3963
#
#
#
# Elastic Compliance Matrix: (Units=1/GPa)
#
#
# Indices 1 2 3 4 5 6 
#
# 1 0.014064 -0.005821 0.001250 0.009099 0.000000 0.000000
# 2 -0.005821 0.014063 0.001249 -0.009099 0.000000 0.000000
# 3 0.001250 0.001249 0.032852 0.000001 0.000000 0.000000
# 4 0.009099 -0.009099 0.000001 0.057595 0.000000 0.000000
# 5 0.000000 0.000000 0.000000 0.000000 0.057596 0.018197
# 6 0.000000 0.000000 0.000000 0.000000 0.018197 0.039767
#
#
# Mechanical properties :
#
#
# Convention : Reuss Voigt Hill
#
# Bulk Modulus (GPa) = 18.40427 28.62254 23.51341
# Shear Modulus (GPa) = 20.77338 26.64403 23.70871
#
# Velocity S-wave (km/s) = 2.93788 3.32721 3.13859
# Velocity P-wave (km/s) = 4.37664 5.16263 4.78580
#
# Compressibility (1/GPa) = 0.05433521
#
# Stress axis : x y z
#
# Youngs Moduli (GPa) = 71.10567 71.10715 30.43957
#
# Poissons Ratio (x) = 0.41393 -0.03805
# Poissons Ratio (y) = 0.41392 -0.03803
# Poissons Ratio (z) = -0.08888 -0.08885
#
# Static dielectric constant tensor:
#      x y z
#    x 1.932260 0.000000 0.000000 
#    y 0.000000 1.932260 0.000000 
#    z 0.000000 0.000000 1.936060 
# 
# From -- ./inp_files/1985.got.cif
#   From: 2010.05.17/outbox.cif.g08.bks.cpg/sg161_cif.got.tgz:1985.got - 2010.05.20 10:52:32.
