data_PCOD9577301
_publ_section_title
;
Structure prediction by ZEFSAII (Michael W. Deem and Ramdas Pophale) SiO2 
 PCOD9577301
Probable space group: P 3 C 1
;
_chemical_formula_sum "Si O2"
_cell_formula_units_Z 30
_cell_length_a 8.140929
_cell_length_b 8.140929
_cell_length_c 20.692712
_cell_angle_alpha 90.000000
_cell_angle_beta 90.000000
_cell_angle_gamma 120.000000
_cell_volume 1187.670527
_symmetry_space_group_name_H-M "P 3 C 1"
_symmetry_group_IT_number 158
_symmetry_cell_setting 'hexagonal'
loop_
_space_group_symop_operation_xyz
x,y,z
-y,x-y,z
-x+y,-x,z
-x+y,y,1/2+z
x,x-y,1/2+z
-y,-x,1/2+z
loop_
_atom_site_type_symbol
_atom_site_label
_atom_site_fract_x
_atom_site_fract_y
_atom_site_fract_z
Si Si1 0.346227 0.046527 0.824580
Si Si2 0.083552 0.834999 0.014719
Si Si3 0.039774 0.346453 0.378116
Si Si4 0.321097 0.354397 0.149911
Si Si5 0.707234 0.658487 0.202843
O O1 0.258448 0.130599 0.874909
O O2 0.374397 0.186174 0.764041
O O3 0.195267 0.822728 0.824568
O O4 0.527721 0.051528 0.856130
O O5 0.118007 0.746279 0.950249
O O6 0.866814 0.801299 0.016509
O O7 0.115770 0.740835 0.078449
O O8 0.482923 0.528325 0.190480
O O9 0.388358 0.200314 0.146333
O O10 0.125284 0.257922 0.190752
#
# Coordination Sequence:
#
# PCOD9577301 Si02
#       5
#     6   6   6   6   6
#     4  12  26  47  76 115 160 212 265 329 400 488
#     4  10  20  46  80 112 154 208 264 336 410 478
#     4  12  25  47  77 114 157 212 268 333 405 477
#     4  12  25  47  77 114 157 212 268 333 405 477
#     4  12  26  47  76 115 160 212 265 329 400 488
#
# _framework density 25.259530999999999
#
# number of rings (size 3 to 8) (size 9 to 14) (size 15 to 20)
#    0.400    0.000    4.000    4.800    0.000    3.200 
#    0.000    4.000    0.000    0.000    0.000    0.000 
#    0.000    0.000    0.000    0.000    0.000    0.000 
#
# Total GULP energy -167262.425288 kJ/mol
# GULP energy per Si atom -5575.414176 kJ/mol
# Density = 2.520204 g / cm^3
# Si number density = 25.259531 Si / 1000 Ang^3
#
#
#
# Elastic Constant Matrix: (Units=GPa)
#
#
# Indices 1 2 3 4 5 6 
#
# 1 123.3447 25.7979 37.8896 -1.0025 0.0000 0.0000
# 2 25.7979 123.3447 37.8896 1.0025 0.0000 0.0000
# 3 37.8896 37.8896 214.6427 0.0000 0.0000 0.0000
# 4 -1.0025 1.0025 0.0000 27.0637 0.0000 0.0000
# 5 0.0000 0.0000 0.0000 0.0000 27.0637 -1.0025
# 6 0.0000 0.0000 0.0000 0.0000 -1.0025 48.7734
#
#
#
# Elastic Compliance Matrix: (Units=1/GPa)
#
#
# Indices 1 2 3 4 5 6 
#
# 1 0.008812 -0.001447 -0.001300 0.000380 0.000000 0.000000
# 2 -0.001447 0.008812 -0.001300 -0.000380 0.000000 0.000000
# 3 -0.001300 -0.001300 0.005118 0.000000 0.000000 0.000000
# 4 0.000380 -0.000380 0.000000 0.036978 0.000000 0.000000
# 5 0.000000 0.000000 0.000000 0.000000 0.036978 0.000760
# 6 0.000000 0.000000 0.000000 0.000000 0.000760 0.020519
#
#
# Mechanical properties :
#
#
# Convention : Reuss Voigt Hill
#
# Bulk Modulus (GPa) = 68.26704 73.83180 71.04942
# Shear Modulus (GPa) = 38.40402 44.56385 41.48393
#
# Velocity S-wave (km/s) = 3.90343 4.20484 4.05694
# Velocity P-wave (km/s) = 6.88481 7.27097 7.08052
#
# Compressibility (1/GPa) = 0.01464836
#
# Stress axis : x y z
#
# Youngs Moduli (GPa) = 113.47566 113.47566 195.39109
#
# Poissons Ratio (x) = 0.16418 0.25405
# Poissons Ratio (y) = 0.16418 0.25405
# Poissons Ratio (z) = 0.14754 0.14754
#
# Static dielectric constant tensor:
#      x y z
#    x 2.038670 0.000000 0.000000 
#    y 0.000000 2.038670 0.000000 
#    z 0.000000 0.000000 2.089010 
# 
# From -- ./inp_files/733.got.cif
#   From: 2010.05.17/outbox.cif.g08.bks.cpg/sg158_cif.got.tgz:733.got - 2010.05.20 10:49:59.
