data_PCOD9577512
_publ_section_title
;
Structure prediction by ZEFSAII (Michael W. Deem and Ramdas Pophale) SiO2 
 PCOD9577512
Probable space group: R 3 M
;
_chemical_formula_sum "Si O2"
_cell_formula_units_Z 36
_cell_length_a 18.000000
_cell_length_b 18.000000
_cell_length_c 21.000000
_cell_angle_alpha 90.000000
_cell_angle_beta 90.000000
_cell_angle_gamma 120.000000
_cell_volume 5892.436847
_symmetry_space_group_name_H-M "R 3 M"
_symmetry_group_IT_number 160
_symmetry_cell_setting 'hexagonal'
loop_
_space_group_symop_operation_xyz
x,y,z
-y,x-y,z
-x+y,-x,z
-x+y,y,z
x,x-y,z
-y,-x,z
2/3+x,1/3+y,1/3+z
2/3-y,1/3+x-y,1/3+z
2/3-x+y,1/3-x,1/3+z
2/3-x+y,1/3+y,1/3+z
2/3+x,1/3+x-y,1/3+z
2/3-y,1/3-x,1/3+z
1/3+x,2/3+y,2/3+z
1/3-y,2/3+x-y,2/3+z
1/3-x+y,2/3-x,2/3+z
1/3-x+y,2/3+y,2/3+z
1/3+x,2/3+x-y,2/3+z
1/3-y,2/3-x,2/3+z
loop_
_atom_site_type_symbol
_atom_site_label
_atom_site_fract_x
_atom_site_fract_y
_atom_site_fract_z
Si Si1 0.961858 0.569530 0.274620
Si Si2 0.152853 0.667484 0.735665
Si Si3 0.603643 0.030767 0.009366
Si Si4 0.999232 0.165892 0.481699
Si Si5 0.671329 0.672457 0.812183
Si Si6 0.168074 0.667046 0.994205
O O1 0.960744 0.480372 0.260611
O O2 0.893493 0.548993 0.332579
O O3 0.946462 0.610187 0.209978
O O4 0.054653 0.640884 0.303840
O O5 0.151471 0.575736 0.740356
O O6 0.249360 0.750641 0.742572
O O7 0.088098 0.675180 0.787112
O O8 0.526193 0.052386 0.003963
O O9 0.629814 0.031235 0.083719
O O10 0.563282 0.932399 0.983518
O O11 0.093375 0.186749 0.503061
O O12 0.978217 0.240826 0.493889
O O13 0.998818 0.158916 0.404586
O O14 0.924833 0.075168 0.506852
O O15 0.189853 0.594927 0.970527
O O16 0.238320 0.761681 0.971376
#
# Coordination Sequence:
#
# PCOD9577512 Si02
#       6
#    18  18  18  18  18  18
#     4  10  21  36  56  82 113 152 196 239 284 338
#     4  10  22  40  62  88 117 151 191 237 289 343
#     4   9  18  31  49  74 106 145 189 240 293 341
#     4   9  15  23  39  66 102 142 182 224 270 323
#     4  10  19  34  55  79 109 145 191 240 289 341
#     4   8  13  22  38  63  96 135 177 220 269 326
#
# _framework density 6.1095269999999999
#
# number of rings (size 3 to 8) (size 9 to 14) (size 15 to 20)
#    0.000    2.667    0.000    3.500    0.000    7.333 
#    0.000    0.000    0.000    0.333    0.000    2.333 
#    0.000    2.667    0.000    0.000    0.000    0.000 
#
# Total GULP energy -200560.833435 kJ/mol
# GULP energy per Si atom -5571.134262 kJ/mol
# Density = 0.609562 g / cm^3
# Si number density = 6.109527 Si / 1000 Ang^3
#
#
#
# Elastic Constant Matrix: (Units=GPa)
#
#
# Indices 1 2 3 4 5 6 
#
# 1 99.5094 46.7294 29.2622 -0.1615 0.0001 0.0000
# 2 46.7294 99.5094 29.2622 0.1615 -0.0001 0.0000
# 3 29.2622 29.2622 78.0149 0.0000 0.0000 0.0000
# 4 -0.1615 0.1615 0.0000 17.8687 0.0000 -0.0001
# 5 0.0001 -0.0001 0.0000 0.0000 17.8687 -0.1615
# 6 0.0000 0.0000 0.0000 -0.0001 -0.1615 26.3900
#
#
#
# Elastic Compliance Matrix: (Units=1/GPa)
#
#
# Indices 1 2 3 4 5 6 
#
# 1 0.013497 -0.005451 -0.003018 0.000171 0.000000 0.000000
# 2 -0.005451 0.013497 -0.003018 -0.000171 0.000000 0.000000
# 3 -0.003018 -0.003018 0.015082 0.000000 0.000000 0.000000
# 4 0.000171 -0.000171 0.000000 0.055967 0.000000 0.000000
# 5 0.000000 0.000000 0.000000 0.000000 0.055967 0.000342
# 6 0.000000 0.000000 0.000000 0.000000 0.000342 0.037895
#
#
# Mechanical properties :
#
#
# Convention : Reuss Voigt Hill
#
# Bulk Modulus (GPa) = 52.34997 54.17125 53.26061
# Shear Modulus (GPa) = 22.59938 23.87749 23.23843
#
# Velocity S-wave (km/s) = 3.51524 3.61327 3.56459
# Velocity P-wave (km/s) = 6.71564 6.85766 6.78702
#
# Compressibility (1/GPa) = 0.01910221
#
# Stress axis : x y z
#
# Youngs Moduli (GPa) = 74.09196 74.09196 66.30426
#
# Poissons Ratio (x) = 0.40387 0.20010
# Poissons Ratio (y) = 0.40387 0.20010
# Poissons Ratio (z) = 0.22360 0.22360
#
# Static dielectric constant tensor:
#      x y z
#    x 1.649890 0.000000 0.000000 
#    y 0.000000 1.649890 0.000000 
#    z 0.000000 0.000000 1.670620 
# 
# From -- ./inp_files/3335.got.cif
#   From: 2010.05.17/outbox.ucp.g08.bks.cvg/sg160_2_cif.got.tgz:3335.got - 2010.06.11 15:14:33.
