data_PCOD9577940
_publ_section_title
;
Structure prediction by ZEFSAII (Michael W. Deem and Ramdas Pophale) SiO2 
 PCOD9577940
Probable space group: P -3 1 M 
;
_chemical_formula_sum "Si O2"
_cell_formula_units_Z 48
_cell_length_a 17.186239
_cell_length_b 17.186239
_cell_length_c 9.474821
_cell_angle_alpha 90.000000
_cell_angle_beta 90.000000
_cell_angle_gamma 120.000000
_cell_volume 2423.613370
_symmetry_space_group_name_H-M "P -3 1 M "
_symmetry_group_IT_number 162
_symmetry_cell_setting 'hexagonal'
loop_
_space_group_symop_operation_xyz
x,y,z
-y,x-y,z
-x+y,-x,z
-y,-x,-z
-x+y,y,-z
x,x-y,-z
-x,-y,-z
y,-x+y,-z
x-y,x,-z
y,x,z
x-y,-y,z
-x,-x+y,z
loop_
_atom_site_type_symbol
_atom_site_label
_atom_site_fract_x
_atom_site_fract_y
_atom_site_fract_z
Si Si1 0.513591 0.892894 0.603168
Si Si2 0.320662 0.215414 0.111372
Si Si3 0.891252 0.523480 0.925480
Si Si4 0.793013 0.104115 0.618572
O O1 0.427882 0.855763 0.500000
O O2 0.502717 0.857833 0.763946
O O3 0.597727 0.884718 0.548513
O O4 0.550866 0.000000 0.615411
O O5 0.267317 0.267317 0.145157
O O6 0.333713 0.170040 0.249548
O O7 0.269333 0.134667 0.000000
O O8 0.410785 0.285415 0.025905
O O9 0.000000 0.576033 0.915531
O O10 0.859061 0.429531 0.000000
O O11 0.868330 0.131671 0.500000
O O12 0.746107 0.000000 0.664072
#
# Coordination Sequence:
#
# PCOD9577940 Si02
#       4
#    12  12  12  12
#     4   9  18  33  54  83 116 146 185 240 303 376
#     4  11  21  37  61  88 121 161 211 269 319 370
#     4   9  18  32  54  86 115 142 184 240 305 375
#     4  11  23  39  59  88 122 163 215 267 322 377
#
# _framework density 19.805140000000002
#
# number of rings (size 3 to 8) (size 9 to 14) (size 15 to 20)
#    0.000    2.000    2.500    1.500    3.500    0.000 
#    0.000    0.000    0.000   11.000    6.500    0.000 
#    0.000    0.000    0.000    0.000    0.000    0.000 
#
# Total GULP energy -267314.916797 kJ/mol
# GULP energy per Si atom -5569.060767 kJ/mol
# Density = 1.976006 g / cm^3
# Si number density = 19.805140 Si / 1000 Ang^3
#
#
#
# Elastic Constant Matrix: (Units=GPa)
#
#
# Indices 1 2 3 4 5 6 
#
# 1 81.0422 49.9769 47.7255 0.0001 -4.9545 0.0000
# 2 49.9769 81.0422 47.7255 -0.0001 4.9545 0.0000
# 3 47.7255 47.7255 125.4771 0.0000 0.0000 0.0000
# 4 0.0001 -0.0001 0.0000 31.4360 0.0000 4.9545
# 5 -4.9545 4.9545 0.0000 0.0000 31.4360 0.0001
# 6 0.0000 0.0000 0.0000 4.9545 0.0001 15.5327
#
#
#
# Elastic Compliance Matrix: (Units=1/GPa)
#
#
# Indices 1 2 3 4 5 6 
#
# 1 0.022226 -0.011668 -0.004016 0.000000 0.005342 0.000000
# 2 -0.011668 0.022226 -0.004016 0.000000 -0.005342 0.000000
# 3 -0.004016 -0.004016 0.011024 0.000000 0.000000 0.000000
# 4 0.000000 0.000000 0.000000 0.033494 0.000000 -0.010684
# 5 0.005342 -0.005342 0.000000 0.000000 0.033494 0.000000
# 6 0.000000 0.000000 0.000000 -0.010684 0.000000 0.067788
#
#
# Mechanical properties :
#
#
# Convention : Reuss Voigt Hill
#
# Bulk Modulus (GPa) = 62.19905 64.26860 63.23382
# Shear Modulus (GPa) = 21.27548 25.15652 23.21600
#
# Velocity S-wave (km/s) = 3.28112 3.56786 3.42749
# Velocity P-wave (km/s) = 6.76964 7.03518 6.90368
#
# Compressibility (1/GPa) = 0.01607742
#
# Stress axis : x y z
#
# Youngs Moduli (GPa) = 44.99210 44.99210 90.70785
#
# Poissons Ratio (x) = 0.52497 0.36426
# Poissons Ratio (y) = 0.52497 0.36426
# Poissons Ratio (z) = 0.18068 0.18068
#
# Static dielectric constant tensor:
#      x y z
#    x 1.730950 0.000000 0.000000 
#    y 0.000000 1.730950 0.000000 
#    z 0.000000 0.000000 1.737450 
# 
# From -- ./inp_files/1182.got.cif
#   From: 2010.05.17/outbox.cif.g08.bks.cpg/sg162_1_cif.got.tgz:1182.got - 2010.05.20 10:53:12.
