data_PCOD9577432
_publ_section_title
;
Structure prediction by ZEFSAII (Michael W. Deem and Ramdas Pophale) SiO2 
 PCOD9577432
Probable space group: P 3 1 C
;
_chemical_formula_sum "Si O2"
_cell_formula_units_Z 48
_cell_length_a 13.271140
_cell_length_b 13.271140
_cell_length_c 12.486756
_cell_angle_alpha 90.000000
_cell_angle_beta 90.000000
_cell_angle_gamma 120.000000
_cell_volume 1904.569032
_symmetry_space_group_name_H-M "P 3 1 C"
_symmetry_group_IT_number 159
_symmetry_cell_setting 'hexagonal'
loop_
_space_group_symop_operation_xyz
x,y,z
-y,x-y,z
-x+y,-x,z
y,x,1/2+z
x-y,-y,1/2+z
-x,-x+y,1/2+z
loop_
_atom_site_type_symbol
_atom_site_label
_atom_site_fract_x
_atom_site_fract_y
_atom_site_fract_z
Si Si1 0.134365 0.439131 0.861760
Si Si2 0.863934 0.327162 0.790077
Si Si3 0.496329 0.140921 0.030741
Si Si4 0.667889 0.917258 0.989161
Si Si5 0.333351 0.283881 0.787852
Si Si6 0.133678 0.124502 0.658451
Si Si7 0.706446 0.173759 0.167387
Si Si8 0.568232 0.446713 0.563597
O O1 0.149741 0.341494 0.924944
O O2 0.230784 0.482767 0.769685
O O3 0.005069 0.384342 0.809375
O O4 0.171791 0.540140 0.950012
O O5 0.788548 0.187749 0.776504
O O6 0.840724 0.379202 0.682403
O O7 0.829052 0.354426 0.906128
O O8 0.608698 0.186662 0.105732
O O9 0.416905 0.190784 0.078217
O O10 0.440404 0.003946 0.048358
O O11 0.669301 0.010995 0.906929
O O12 0.549710 0.874197 0.054841
O O13 0.778914 0.972150 0.063950
O O14 0.199288 0.187369 0.765859
O O15 0.348398 0.390205 0.711709
O O16 0.008412 0.113059 0.653596
#
# Coordination Sequence:
#
# PCOD9577432 Si02
#       8
#     6   6   6   6   6   6   6   6
#     4  10  25  45  81 116 161 219 280 344 417 505
#     4  11  26  50  81 116 166 214 271 349 433 496
#     4  11  26  47  82 111 161 211 275 343 416 496
#     4  11  26  47  78 114 160 221 278 342 413 508
#     4  11  27  45  81 118 163 211 275 341 424 504
#     4  10  26  42  71 118 167 213 273 336 410 503
#     4  11  25  49  80 122 157 219 282 338 412 510
#     4  11  25  51  76 115 159 216 280 345 419 490
#
# _framework density 25.202553000000002
#
# number of rings (size 3 to 8) (size 9 to 14) (size 15 to 20)
#    0.250    1.000    1.250    1.750   12.250    3.000 
#    3.000    0.000    0.000    0.000    0.000    0.000 
#    0.000    0.000    0.000    0.000    0.000    0.000 
#
# Total GULP energy -268306.645978 kJ/mol
# GULP energy per Si atom -5589.721791 kJ/mol
# Density = 2.514519 g / cm^3
# Si number density = 25.202553 Si / 1000 Ang^3
#
#
#
# Elastic Constant Matrix: (Units=GPa)
#
#
# Indices 1 2 3 4 5 6 
#
# 1 116.4258 48.3096 62.9525 0.0000 5.6856 0.0000
# 2 48.3096 116.4258 62.9525 0.0000 -5.6856 0.0000
# 3 62.9525 62.9525 178.0648 0.0000 0.0000 0.0000
# 4 0.0000 0.0000 0.0000 45.6406 0.0000 -5.6856
# 5 5.6856 -5.6856 0.0000 0.0000 45.6406 0.0000
# 6 0.0000 0.0000 0.0000 -5.6856 0.0000 34.0581
#
#
#
# Elastic Compliance Matrix: (Units=1/GPa)
#
#
# Indices 1 2 3 4 5 6 
#
# 1 0.011655 -0.003337 -0.002941 0.000000 -0.001868 0.000000
# 2 -0.003337 0.011655 -0.002941 0.000000 0.001868 0.000000
# 3 -0.002941 -0.002941 0.007695 0.000000 0.000000 0.000000
# 4 0.000000 0.000000 0.000000 0.022376 0.000000 0.003735
# 5 -0.001868 0.001868 0.000000 0.000000 0.022376 0.000000
# 6 0.000000 0.000000 0.000000 0.003735 0.000000 0.029985
#
#
# Mechanical properties :
#
#
# Convention : Reuss Voigt Hill
#
# Bulk Modulus (GPa) = 79.56569 84.37175 81.96872
# Shear Modulus (GPa) = 38.95026 40.84798 39.89912
#
# Velocity S-wave (km/s) = 3.93554 4.03027 3.98318
# Velocity P-wave (km/s) = 7.23120 7.43018 7.33137
#
# Compressibility (1/GPa) = 0.01256823
#
# Stress axis : x y z
#
# Youngs Moduli (GPa) = 85.79854 85.79854 129.95098
#
# Poissons Ratio (x) = 0.28634 0.38214
# Poissons Ratio (y) = 0.28634 0.38214
# Poissons Ratio (z) = 0.25231 0.25231
#
# Static dielectric constant tensor:
#      x y z
#    x 2.054760 0.000000 0.000000 
#    y 0.000000 2.054760 0.000000 
#    z 0.000000 0.000000 2.000270 
# 
# From -- ./inp_files/734.got.cif
#   From: 2010.05.17/outbox.cif.g08.bks.cpg/sg159_cif.got.tgz:734.got - 2010.05.20 10:50:30.
