data_PCOD9577073
_publ_section_title
;
Structure prediction by ZEFSAII (Michael W. Deem and Ramdas Pophale) SiO2 
 PCOD9577073
Probable space group: R 3 2
;
_chemical_formula_sum "Si O2"
_cell_formula_units_Z 45
_cell_length_a 17.147705
_cell_length_b 17.147705
_cell_length_c 7.362357
_cell_angle_alpha 90.000000
_cell_angle_beta 90.000000
_cell_angle_gamma 120.000000
_cell_volume 1874.819713
_symmetry_space_group_name_H-M "R 3 2"
_symmetry_group_IT_number 155
_symmetry_cell_setting 'hexagonal'
loop_
_space_group_symop_operation_xyz
x,y,z
-y,x-y,z
-x+y,-x,z
x-y,-y,-z
-x,-x+y,-z
y,x,-z
2/3+x,1/3+y,1/3+z
2/3-y,1/3+x-y,1/3+z
2/3-x+y,1/3-x,1/3+z
2/3+x-y,1/3-y,1/3-z
2/3-x,1/3-x+y,1/3-z
2/3+y,1/3+x,1/3-z
1/3+x,2/3+y,2/3+z
1/3-y,2/3+x-y,2/3+z
1/3-x+y,2/3-x,2/3+z
1/3+x-y,2/3-y,2/3-z
1/3-x,2/3-x+y,2/3-z
1/3+y,2/3+x,2/3-z
loop_
_atom_site_type_symbol
_atom_site_label
_atom_site_fract_x
_atom_site_fract_y
_atom_site_fract_z
Si Si1 0.371156 0.518867 0.366564
Si Si2 0.805126 0.172232 0.481064
Si Si3 0.876058 0.876058 0.000000
O O1 0.300658 0.422596 0.458279
O O2 0.456481 0.507513 0.317498
O O3 0.389073 0.601110 0.503971
O O4 0.333334 0.524546 0.166667
O O5 0.857857 0.191190 0.666667
O O6 0.813059 0.263258 0.421189
#
# Coordination Sequence:
#
# PCOD9577073 Si02
#       3
#    18  18   9
#     4  10  24  47  76 111 143 196 261 314 372 447
#     4  10  24  47  75 106 145 195 257 314 369 443
#     4  12  24  42  68 112 154 190 240 310 400 436
#
# _framework density 24.002309
#
# number of rings (size 3 to 8) (size 9 to 14) (size 15 to 20)
#    0.000    1.600    0.000    2.400    0.000   25.600 
#   24.000    0.000    0.000    0.000    0.000    0.000 
#    0.000    0.000    0.000    0.000    0.000    0.000 
#
# Total GULP energy -83513.508094 kJ/mol
# GULP energy per Si atom -5567.567206 kJ/mol
# Density = 2.394768 g / cm^3
# Si number density = 24.002309 Si / 1000 Ang^3
#
#
#
# Elastic Constant Matrix: (Units=GPa)
#
#
# Indices 1 2 3 4 5 6 
#
# 1 99.1731 18.7904 48.6669 -0.1106 0.0033 -0.0002
# 2 18.7904 99.1720 48.6641 0.1115 0.0022 -0.0001
# 3 48.6669 48.6641 173.5962 0.0021 0.0125 -0.0003
# 4 -0.1106 0.1115 0.0021 42.4725 0.0017 0.0001
# 5 0.0033 0.0022 0.0125 0.0017 42.4796 -0.1113
# 6 -0.0002 -0.0001 -0.0003 0.0001 -0.1113 40.1910
#
#
#
# Elastic Compliance Matrix: (Units=1/GPa)
#
#
# Indices 1 2 3 4 5 6 
#
# 1 0.011734 -0.000706 -0.003092 0.000033 0.000000 0.000000
# 2 -0.000706 0.011734 -0.003091 -0.000033 0.000000 0.000000
# 3 -0.003092 -0.003091 0.007494 0.000000 -0.000002 0.000000
# 4 0.000033 -0.000033 0.000000 0.023545 -0.000001 0.000000
# 5 0.000000 0.000000 -0.000002 -0.000001 0.023541 0.000065
# 6 0.000000 0.000000 0.000000 0.000000 0.000065 0.024881
#
#
# Mechanical properties :
#
#
# Convention : Reuss Voigt Hill
#
# Bulk Modulus (GPa) = 58.19462 67.13157 62.66309
# Shear Modulus (GPa) = 40.83747 42.08327 41.46037
#
# Velocity S-wave (km/s) = 4.12927 4.19179 4.16065
# Velocity P-wave (km/s) = 6.85803 7.17340 7.01749
#
# Compressibility (1/GPa) = 0.01718372
#
# Stress axis : x y z
#
# Youngs Moduli (GPa) = 85.21937 85.21986 133.44233
#
# Poissons Ratio (x) = 0.06019 0.41256
# Poissons Ratio (y) = 0.06019 0.41253
# Poissons Ratio (z) = 0.26347 0.26346
#
# Static dielectric constant tensor:
#      x y z
#    x 1.824080 0.000000 -0.000010 
#    y 0.000000 1.824080 -0.000010 
#    z -0.000010 -0.000010 1.780100 
# 
# From -- ./inp_files/1583.got.cif
#   From: 2010.05.17/outbox.cif.g08.bks.cpg/sg155_1_cif.got.tgz:1583.got - 2010.05.20 10:44:35.
