data_PCOD9577256
_publ_section_title
;
Structure prediction by ZEFSAII (Michael W. Deem and Ramdas Pophale) SiO2 
 PCOD9577256
Probable space group: P 3 1 M
;
_chemical_formula_sum "Si O2"
_cell_formula_units_Z 36
_cell_length_a 16.047649
_cell_length_b 16.047649
_cell_length_c 9.755729
_cell_angle_alpha 90.000000
_cell_angle_beta 90.000000
_cell_angle_gamma 120.000000
_cell_volume 2175.771045
_symmetry_space_group_name_H-M "P 3 1 M"
_symmetry_group_IT_number 157
_symmetry_cell_setting 'hexagonal'
loop_
_space_group_symop_operation_xyz
x,y,z
-y,x-y,z
-x+y,-x,z
y,x,z
x-y,-y,z
-x,-x+y,z
loop_
_atom_site_type_symbol
_atom_site_label
_atom_site_fract_x
_atom_site_fract_y
_atom_site_fract_z
Si Si1 0.741838 0.114007 0.946170
Si Si2 0.115619 0.395556 0.444833
Si Si3 0.627831 0.885993 0.623266
Si Si4 0.279936 0.884381 0.124603
Si Si5 0.449655 0.566287 0.938586
Si Si6 0.883369 0.433713 0.630850
O O1 0.767163 0.129964 0.784718
O O2 0.658310 0.141334 0.969588
O O3 0.693900 0.000000 0.972694
O O4 0.830225 0.180368 0.042711
O O5 0.169775 0.350143 0.526725
O O6 0.140595 0.408625 0.284718
O O7 0.145126 0.496523 0.519616
O O8 0.000000 0.329834 0.456476
O O9 0.516977 0.858666 0.599848
O O10 0.693900 0.000000 0.596742
O O11 0.329834 0.000000 0.112960
O O12 0.351397 0.854874 0.049820
O O13 0.509389 0.509389 0.933327
O O14 0.453672 0.605207 0.784718
O O15 0.000000 0.490611 0.636109
#
# Coordination Sequence:
#
# PCOD9577256 Si02
#       6
#     6   6   6   6   6   6
#     4   9  18  33  53  75  97 126 167 209 247 288
#     4  10  20  32  48  73 103 133 164 198 242 296
#     4   9  18  33  53  75  97 126 167 209 247 288
#     4  10  20  32  48  73 103 133 164 198 242 296
#     4   8  15  30  50  69  91 121 158 199 240 283
#     4   8  15  30  50  69  91 121 158 199 240 283
#
# _framework density 16.545859
#
# number of rings (size 3 to 8) (size 9 to 14) (size 15 to 20)
#    0.000    3.000    0.000    3.000    0.000    4.000 
#    2.000    3.333    0.000    0.667    0.000    0.000 
#    0.000    0.000    0.000    0.000    0.000    0.000 
#
# Total GULP energy -200562.241763 kJ/mol
# GULP energy per Si atom -5571.173382 kJ/mol
# Density = 1.650820 g / cm^3
# Si number density = 16.545859 Si / 1000 Ang^3
#
#
#
# Elastic Constant Matrix: (Units=GPa)
#
#
# Indices 1 2 3 4 5 6 
#
# 1 50.7457 17.1539 56.9109 0.0000 0.0000 0.0000
# 2 17.1539 50.7457 56.9109 0.0000 0.0000 0.0000
# 3 56.9109 56.9109 116.1207 0.0000 0.0000 0.0000
# 4 0.0000 0.0000 0.0000 23.5265 0.0000 0.0000
# 5 0.0000 0.0000 0.0000 0.0000 23.5265 0.0000
# 6 0.0000 0.0000 0.0000 0.0000 0.0000 16.7959
#
#
#
# Elastic Compliance Matrix: (Units=1/GPa)
#
#
# Indices 1 2 3 4 5 6 
#
# 1 0.056154 0.026385 -0.040453 0.000000 0.000000 0.000000
# 2 0.026385 0.056154 -0.040453 0.000000 0.000000 0.000000
# 3 -0.040453 -0.040453 0.048263 0.000000 0.000000 0.000000
# 4 0.000000 0.000000 0.000000 0.042505 0.000000 0.000000
# 5 0.000000 0.000000 0.000000 0.000000 0.042505 0.000000
# 6 0.000000 0.000000 0.000000 0.000000 0.000000 0.059538
#
#
# Mechanical properties :
#
#
# Convention : Reuss Voigt Hill
#
# Bulk Modulus (GPa) = 19.40556 53.28484 36.34520
# Shear Modulus (GPa) = 11.59183 18.54554 15.06869
#
# Velocity S-wave (km/s) = 2.64973 3.35155 3.02109
# Velocity P-wave (km/s) = 4.59514 6.87397 5.84665
#
# Compressibility (1/GPa) = 0.05153161
#
# Stress axis : x y z
#
# Youngs Moduli (GPa) = 17.80811 17.80811 20.71961
#
# Poissons Ratio (x) = -0.46987 0.83816
# Poissons Ratio (y) = -0.46987 0.83816
# Poissons Ratio (z) = 0.72038 0.72038
#
# Static dielectric constant tensor:
#      x y z
#    x 1.563210 0.000000 0.000000 
#    y 0.000000 1.563210 0.000000 
#    z 0.000000 0.000000 1.549890 
# 
# From -- ./inp_files/416.got.cif
#   From: 2010.05.17/outbox.cif.g08.bks.cpg/sg157_cif.got.tgz:416.got - 2010.05.20 10:49:36.
