data_PCOD9577464
_publ_section_title
;
Structure prediction by ZEFSAII (Michael W. Deem and Ramdas Pophale) SiO2 
 PCOD9577464
Probable space group: R 3 M
;
_chemical_formula_sum "Si O2"
_cell_formula_units_Z 108
_cell_length_a 14.523113
_cell_length_b 14.523113
_cell_length_c 30.494350
_cell_angle_alpha 90.000000
_cell_angle_beta 90.000000
_cell_angle_gamma 120.000000
_cell_volume 5570.182766
_symmetry_space_group_name_H-M "R 3 M"
_symmetry_group_IT_number 160
_symmetry_cell_setting 'hexagonal'
loop_
_space_group_symop_operation_xyz
x,y,z
-y,x-y,z
-x+y,-x,z
-x+y,y,z
x,x-y,z
-y,-x,z
2/3+x,1/3+y,1/3+z
2/3-y,1/3+x-y,1/3+z
2/3-x+y,1/3-x,1/3+z
2/3-x+y,1/3+y,1/3+z
2/3+x,1/3+x-y,1/3+z
2/3-y,1/3-x,1/3+z
1/3+x,2/3+y,2/3+z
1/3-y,2/3+x-y,2/3+z
1/3-x+y,2/3-x,2/3+z
1/3-x+y,2/3+y,2/3+z
1/3+x,2/3+x-y,2/3+z
1/3-y,2/3-x,2/3+z
loop_
_atom_site_type_symbol
_atom_site_label
_atom_site_fract_x
_atom_site_fract_y
_atom_site_fract_z
Si Si1 0.541190 0.873773 0.105738
Si Si2 0.212121 0.001022 0.887806
Si Si3 0.092182 0.384444 0.007215
Si Si4 0.787880 0.788902 0.244196
Si Si5 0.540439 0.874523 0.359598
Si Si6 0.384445 0.092182 0.124787
O O1 0.448432 0.896863 0.119306
O O2 0.516620 0.758310 0.119631
O O3 0.550831 0.880004 0.052753
O O4 0.653799 0.965672 0.123481
O O5 0.229843 0.114922 0.902826
O O6 0.300042 0.966709 0.899334
O O7 0.210775 0.999066 0.834772
O O8 0.097987 0.902014 0.902709
O O9 0.164782 0.329564 0.006591
O O10 0.965672 0.311874 0.008521
O O11 0.122559 0.454957 0.963897
O O12 0.902014 0.804028 0.229293
O O13 0.770158 0.885079 0.229177
O O14 0.424977 0.849953 0.345705
O O15 0.563530 0.781765 0.346029
O O16 0.546671 0.884164 0.412582
O O17 0.329566 0.164783 0.125411
#
# Coordination Sequence:
#
# PCOD9577464 Si02
#       6
#    18  18  18  18  18  18
#     4  10  18  29  48  74 103 129 154 188 233 286
#     4  10  20  34  52  72  95 124 160 201 241 281
#     4   9  18  32  49  69  95 128 162 196 234 275
#     4  10  20  34  52  72  95 124 160 201 241 281
#     4  10  18  29  48  74 103 129 154 188 233 286
#     4   9  18  32  49  69  95 128 162 196 234 275
#
# _framework density 19.388952
#
# number of rings (size 3 to 8) (size 9 to 14) (size 15 to 20)
#    0.000    2.333    0.000    4.667    0.000    1.333 
#    0.000    3.333    0.000    1.667    0.000    4.667 
#    0.000    0.000    0.000    0.000    0.000    0.000 
#
# Total GULP energy -200448.307374 kJ/mol
# GULP energy per Si atom -5568.008538 kJ/mol
# Density = 1.934482 g / cm^3
# Si number density = 19.388952 Si / 1000 Ang^3
#
#
#
# Elastic Constant Matrix: (Units=GPa)
#
#
# Indices 1 2 3 4 5 6 
#
# 1 114.8900 75.3742 16.3865 -3.7678 0.0001 0.0000
# 2 75.3742 114.8900 16.3865 3.7678 -0.0001 0.0000
# 3 16.3865 16.3865 24.8841 0.0000 0.0000 0.0000
# 4 -3.7678 3.7678 0.0000 13.2591 0.0000 -0.0001
# 5 0.0001 -0.0001 0.0000 0.0000 13.2591 -3.7678
# 6 0.0000 0.0000 0.0000 -0.0001 -3.7678 19.7579
#
#
#
# Elastic Compliance Matrix: (Units=1/GPa)
#
#
# Indices 1 2 3 4 5 6 
#
# 1 0.016342 -0.010414 -0.003904 0.007603 0.000000 0.000000
# 2 -0.010414 0.016342 -0.003904 -0.007603 0.000000 0.000000
# 3 -0.003904 -0.003904 0.045328 0.000000 0.000000 0.000000
# 4 0.007603 -0.007603 0.000000 0.079741 0.000000 0.000000
# 5 0.000000 0.000000 0.000000 0.000000 0.079741 0.015207
# 6 0.000000 0.000000 0.000000 0.000000 0.015207 0.053513
#
#
# Mechanical properties :
#
#
# Convention : Reuss Voigt Hill
#
# Bulk Modulus (GPa) = 24.05644 52.32871 38.19257
# Shear Modulus (GPa) = 14.64959 19.02303 16.83631
#
# Velocity S-wave (km/s) = 2.75173 3.13569 2.94997
# Velocity P-wave (km/s) = 4.74661 6.33700 5.59857
#
# Compressibility (1/GPa) = 0.04156891
#
# Stress axis : x y z
#
# Youngs Moduli (GPa) = 61.19092 61.19092 22.06156
#
# Poissons Ratio (x) = 0.63724 0.08612
# Poissons Ratio (y) = 0.63724 0.08612
# Poissons Ratio (z) = 0.23888 0.23888
#
# Static dielectric constant tensor:
#      x y z
#    x 1.689790 0.000000 0.000000 
#    y 0.000000 1.689790 0.000000 
#    z 0.000000 0.000000 1.702800 
# 
# From -- ./inp_files/4430.got.cif
#   From: 2010.05.17/outbox.cif.g08.bks.cpg/sg160_3_cif.got.tgz:4430.got - 2010.05.20 10:51:19.
