data_PCOD9577371
_publ_section_title
;
Structure prediction by ZEFSAII (Michael W. Deem and Ramdas Pophale) SiO2 
 PCOD9577371
Probable space group: P 3 1 C
;
_chemical_formula_sum "Si O2"
_cell_formula_units_Z 30
_cell_length_a 7.023615
_cell_length_b 7.023615
_cell_length_c 27.520744
_cell_angle_alpha 90.000000
_cell_angle_beta 90.000000
_cell_angle_gamma 120.000000
_cell_volume 1175.742447
_symmetry_space_group_name_H-M "P 3 1 C"
_symmetry_group_IT_number 159
_symmetry_cell_setting 'hexagonal'
loop_
_space_group_symop_operation_xyz
x,y,z
-y,x-y,z
-x+y,-x,z
y,x,1/2+z
x-y,-y,1/2+z
-x,-x+y,1/2+z
loop_
_atom_site_type_symbol
_atom_site_label
_atom_site_fract_x
_atom_site_fract_y
_atom_site_fract_z
Si Si1 0.392676 0.449019 0.418860
Si Si2 0.990974 0.746016 0.624524
Si Si3 0.551592 0.939667 0.523932
Si Si4 0.062177 0.610540 0.226409
Si Si5 0.722415 0.929951 0.822383
O O1 0.555570 0.712724 0.417819
O O2 0.408461 0.359095 0.471679
O O3 0.403407 0.326287 0.371337
O O4 0.958454 0.614056 0.575017
O O5 0.793196 0.800272 0.625339
O O6 0.018168 0.635308 0.672708
O O7 0.290136 0.846732 0.523749
O O8 0.153109 0.442759 0.229415
O O9 0.920631 0.600375 0.272605
O O10 0.945820 0.171622 0.822889
#
# Coordination Sequence:
#
# PCOD9577371 Si02
#       5
#     6   6   6   6   6
#     4   8  16  34  58  80 107 153 184 217 265 350
#     4  10  22  34  55  83 116 140 186 247 286 334
#     4   8  18  34  57  81 113 147 191 224 277 334
#     4  10  22  36  59  75 105 153 192 226 289 348
#     4  10  20  32  55  85 117 137 183 236 287 330
#
# _framework density 25.515795000000001
#
# number of rings (size 3 to 8) (size 9 to 14) (size 15 to 20)
#    2.000    0.800    0.000    2.400    2.800    1.600 
#    0.000    0.000    0.000    8.800    0.000    0.000 
#    0.000    0.000    0.000    0.000    0.000    0.000 
#
# Total GULP energy -167289.652618 kJ/mol
# GULP energy per Si atom -5576.321754 kJ/mol
# Density = 2.545772 g / cm^3
# Si number density = 25.515795 Si / 1000 Ang^3
#
#
#
# Elastic Constant Matrix: (Units=GPa)
#
#
# Indices 1 2 3 4 5 6 
#
# 1 77.0910 9.9570 48.9811 0.0000 10.0957 0.0000
# 2 9.9570 77.0910 48.9811 0.0000 -10.0957 0.0000
# 3 48.9811 48.9811 286.6929 0.0000 0.0000 0.0000
# 4 0.0000 0.0000 0.0000 54.2406 0.0000 -10.0957
# 5 10.0957 -10.0957 0.0000 0.0000 54.2406 0.0000
# 6 0.0000 0.0000 0.0000 -10.0957 0.0000 33.5670
#
#
#
# Elastic Compliance Matrix: (Units=1/GPa)
#
#
# Indices 1 2 3 4 5 6 
#
# 1 0.015001 -0.000778 -0.002430 0.000000 -0.002937 0.000000
# 2 -0.000778 0.015001 -0.002430 0.000000 0.002937 0.000000
# 3 -0.002430 -0.002430 0.004318 0.000000 0.000000 0.000000
# 4 0.000000 0.000000 0.000000 0.019530 0.000000 0.005874
# 5 -0.002937 0.002937 0.000000 0.000000 0.019530 0.000000
# 6 0.000000 0.000000 0.000000 0.005874 0.000000 0.031558
#
#
# Mechanical properties :
#
#
# Convention : Reuss Voigt Hill
#
# Bulk Modulus (GPa) = 43.39576 72.96816 58.18196
# Shear Modulus (GPa) = 40.35707 50.60667 45.48187
#
# Velocity S-wave (km/s) = 3.98131 4.45831 4.22654
# Velocity P-wave (km/s) = 6.17890 7.42707 6.83155
#
# Compressibility (1/GPa) = 0.02304373
#
# Stress axis : x y z
#
# Youngs Moduli (GPa) = 66.66362 66.66362 231.57036
#
# Poissons Ratio (x) = 0.05188 0.56269
# Poissons Ratio (y) = 0.05188 0.56269
# Poissons Ratio (z) = 0.16199 0.16199
#
# Static dielectric constant tensor:
#      x y z
#    x 2.052330 0.000000 0.000000 
#    y 0.000000 2.052330 0.000000 
#    z 0.000000 0.000000 1.956800 
# 
# From -- ./inp_files/1233.got.cif
#   From: 2010.05.17/outbox.cif.g08.bks.cpg/sg159_cif.got.tgz:1233.got - 2010.05.20 10:50:30.
