data_PCOD9577743
_publ_section_title
;
Structure prediction by ZEFSAII (Michael W. Deem and Ramdas Pophale) SiO2 
 PCOD9577743
Probable space group: P -3 1 M 
;
_chemical_formula_sum "Si O2"
_cell_formula_units_Z 72
_cell_length_a 14.879754
_cell_length_b 14.879754
_cell_length_c 19.709880
_cell_angle_alpha 90.000000
_cell_angle_beta 90.000000
_cell_angle_gamma 120.000000
_cell_volume 3779.254287
_symmetry_space_group_name_H-M "P -3 1 M "
_symmetry_group_IT_number 162
_symmetry_cell_setting 'hexagonal'
loop_
_space_group_symop_operation_xyz
x,y,z
-y,x-y,z
-x+y,-x,z
-y,-x,-z
-x+y,y,-z
x,x-y,-z
-x,-y,-z
y,-x+y,-z
x-y,x,-z
y,x,z
x-y,-y,z
-x,-x+y,z
loop_
_atom_site_type_symbol
_atom_site_label
_atom_site_fract_x
_atom_site_fract_y
_atom_site_fract_z
Si Si1 0.878477 0.229905 0.837733
Si Si2 0.472832 0.594114 0.288959
Si Si3 0.246072 0.418772 0.317774
Si Si4 0.881847 0.762617 0.420901
Si Si5 0.559381 0.435221 0.137170
Si Si6 0.880013 0.275020 0.055308
O O1 0.856564 0.224366 0.757525
O O2 0.859168 0.320969 0.867523
O O3 0.794542 0.130353 0.878484
O O4 0.000000 0.268156 0.848294
O O5 0.558261 0.558261 0.287547
O O6 0.368500 0.499726 0.319847
O O7 0.515994 0.703283 0.324652
O O8 0.445748 0.608835 0.211295
O O9 0.199515 0.329477 0.373395
O O10 0.865380 0.730759 0.500000
O O11 0.802923 0.802923 0.401883
O O12 0.000000 0.856044 0.415551
O O13 0.508064 0.508064 0.140344
O O14 0.643655 0.487183 0.078577
O O15 0.000000 0.339746 0.032476
O O16 0.805286 0.194715 0.000000
#
# Coordination Sequence:
#
# PCOD9577743 Si02
#       6
#    12  12  12  12  12  12
#     4  10  20  36  59  83 111 146 189 238 287 339
#     4  10  19  33  54  84 116 148 187 234 288 343
#     4  11  20  35  59  86 117 154 195 237 289 349
#     4  10  21  38  60  87 119 156 199 247 296 342
#     4   8  17  34  53  77 107 139 178 228 280 335
#     4  11  22  37  56  80 112 149 188 231 286 345
#
# _framework density 19.051376999999999
#
# number of rings (size 3 to 8) (size 9 to 14) (size 15 to 20)
#    0.000    2.000    1.667    4.000    0.000    2.000 
#    1.000    3.333    0.000    6.000    0.000    0.000 
#    0.000    0.000    0.000    0.000    0.000    0.000 
#
# Total GULP energy -401862.636266 kJ/mol
# GULP energy per Si atom -5581.425504 kJ/mol
# Density = 1.900802 g / cm^3
# Si number density = 19.051377 Si / 1000 Ang^3
#
#
#
# Elastic Constant Matrix: (Units=GPa)
#
#
# Indices 1 2 3 4 5 6 
#
# 1 68.4753 15.5575 33.5887 -0.0001 4.9493 0.0000
# 2 15.5575 68.4753 33.5887 0.0001 -4.9493 0.0000
# 3 33.5887 33.5887 63.9303 0.0000 0.0000 0.0000
# 4 -0.0001 0.0001 0.0000 26.2949 0.0000 -4.9493
# 5 4.9493 -4.9493 0.0000 0.0000 26.2949 -0.0001
# 6 0.0000 0.0000 0.0000 -4.9493 -0.0001 26.4589
#
#
#
# Elastic Compliance Matrix: (Units=1/GPa)
#
#
# Indices 1 2 3 4 5 6 
#
# 1 0.020052 0.000465 -0.010780 0.000000 -0.003687 0.000000
# 2 0.000465 0.020052 -0.010780 0.000000 0.003687 0.000000
# 3 -0.010780 -0.010780 0.026969 0.000000 0.000000 0.000000
# 4 0.000000 0.000000 0.000000 0.039418 0.000000 0.007373
# 5 -0.003687 0.003687 0.000000 0.000000 0.039418 0.000000
# 6 0.000000 0.000000 0.000000 0.007373 0.000000 0.039174
#
#
# Mechanical properties :
#
#
# Convention : Reuss Voigt Hill
#
# Bulk Modulus (GPa) = 40.18436 40.70561 40.44499
# Shear Modulus (GPa) = 21.22529 23.68613 22.45571
#
# Velocity S-wave (km/s) = 3.34145 3.52984 3.43693
# Velocity P-wave (km/s) = 6.00212 6.16649 6.08486
#
# Compressibility (1/GPa) = 0.02488530
#
# Stress axis : x y z
#
# Youngs Moduli (GPa) = 49.86951 49.86951 37.07893
#
# Poissons Ratio (x) = -0.02321 0.39971
# Poissons Ratio (y) = -0.02321 0.39971
# Poissons Ratio (z) = 0.53759 0.53759
#
# Static dielectric constant tensor:
#      x y z
#    x 1.670790 0.000000 0.000000 
#    y 0.000000 1.670790 0.000000 
#    z 0.000000 0.000000 1.677570 
# 
# From -- ./inp_files/3500.got.cif
#   From: 2010.05.17/outbox.cif.g08.bks.cpg/sg162_2_cif.got.tgz:3500.got - 2010.05.20 10:53:12.
