data_PCOD9577691
_publ_section_title
;
Structure prediction by ZEFSAII (Michael W. Deem and Ramdas Pophale) SiO2 
 PCOD9577691
Probable space group: P -3 1 M 
;
_chemical_formula_sum "Si O2"
_cell_formula_units_Z 84
_cell_length_a 20.258161
_cell_length_b 20.258161
_cell_length_c 12.622850
_cell_angle_alpha 90.000000
_cell_angle_beta 90.000000
_cell_angle_gamma 120.000000
_cell_volume 4486.297709
_symmetry_space_group_name_H-M "P -3 1 M "
_symmetry_group_IT_number 162
_symmetry_cell_setting 'hexagonal'
loop_
_space_group_symop_operation_xyz
x,y,z
-y,x-y,z
-x+y,-x,z
-y,-x,-z
-x+y,y,-z
x,x-y,-z
-x,-y,-z
y,-x+y,-z
x-y,x,-z
y,x,z
x-y,-y,z
-x,-x+y,z
loop_
_atom_site_type_symbol
_atom_site_label
_atom_site_fract_x
_atom_site_fract_y
_atom_site_fract_z
Si Si1 0.911389 0.718094 0.088232
Si Si2 0.915935 0.738843 0.328666
Si Si3 0.656797 0.090710 0.804847
Si Si4 0.676883 0.590277 0.592116
Si Si5 0.456544 0.297559 0.036624
Si Si6 0.092996 0.507505 0.774954
Si Si7 0.908094 0.656796 0.617970
O O1 0.907931 0.748577 0.204029
O O2 0.867106 0.626310 0.087101
O O3 0.000000 0.749762 0.063360
O O4 0.871139 0.742278 0.000000
O O5 0.917697 0.660320 0.341838
O O6 0.837682 0.719198 0.385186
O O7 0.000000 0.804351 0.365707
O O8 0.593066 0.109509 0.764032
O O9 0.728475 0.119929 0.726434
O O10 0.617464 0.000000 0.802045
O O11 0.674276 0.115468 0.925693
O O12 0.610939 0.610939 0.568398
O O13 0.638559 0.519247 0.670646
O O14 0.717851 0.597760 0.480253
O O15 0.499119 0.364871 0.120932
O O16 0.493628 0.246814 0.000000
O O17 0.000000 0.452170 0.786718
O O18 0.000000 0.702202 0.613079
#
# Coordination Sequence:
#
# PCOD9577691 Si02
#       7
#    12  12  12  12  12  12  12
#     4  10  19  30  48  73 103 139 182 231 283 343
#     4  10  19  33  52  78 109 146 187 227 283 341
#     4  10  21  33  51  80 110 140 178 227 285 337
#     4   9  18  32  52  76 105 140 177 219 275 331
#     4  11  20  31  50  75 105 140 183 227 275 330
#     4  10  19  34  54  77 106 142 181 223 276 342
#     4  10  20  34  52  81 115 143 181 235 284 335
#
# _framework density 18.723679000000001
#
# number of rings (size 3 to 8) (size 9 to 14) (size 15 to 20)
#    0.000    2.000    1.429    3.857    0.000    3.429 
#    0.000    2.857    0.000    2.714    0.000    0.000 
#    0.000    3.429    0.000    0.000    0.000    0.000 
#
# Total GULP energy -468148.127086 kJ/mol
# GULP energy per Si atom -5573.191989 kJ/mol
# Density = 1.868106 g / cm^3
# Si number density = 18.723679 Si / 1000 Ang^3
#
#
#
# Elastic Constant Matrix: (Units=GPa)
#
#
# Indices 1 2 3 4 5 6 
#
# 1 -86.1393 158.5796 27.1597 0.0063 84.6835 0.0000
# 2 158.5796 -86.1393 27.1597 -0.0063 -84.6835 0.0000
# 3 27.1597 27.1597 99.5008 0.0000 0.0000 0.0000
# 4 0.0063 -0.0063 0.0000 -32.4823 0.0000 -84.6835
# 5 84.6835 -84.6835 0.0000 0.0000 -32.4823 0.0063
# 6 0.0000 0.0000 0.0000 -84.6835 0.0063 -122.3594
#
#
#
# Elastic Compliance Matrix: (Units=1/GPa)
#
#
# Indices 1 2 3 4 5 6 
#
# 1 0.011219 0.006138 -0.004738 0.000001 0.013245 0.000000
# 2 0.006138 0.011219 -0.004738 -0.000001 -0.013245 0.000000
# 3 -0.004738 -0.004738 0.012637 0.000000 0.000000 0.000000
# 4 0.000001 -0.000001 0.000000 0.038276 0.000000 -0.026490
# 5 0.013245 -0.013245 0.000000 0.000000 0.038276 0.000002
# 6 0.000000 0.000000 0.000000 -0.026490 0.000002 0.010161
#
#
# Mechanical properties :
#
#
# Convention : Reuss Voigt Hill
#
# Bulk Modulus (GPa) = 35.21170 39.22447 37.21809
# Shear Modulus (GPa) = 36.25074 -56.50994 -10.12960
#
# Velocity S-wave (km/s) = 4.40488 -5.49968 -2.32847
# Velocity P-wave (km/s) = 6.68711 4.39706 3.56253
#
# Compressibility (1/GPa) = 0.02839965
#
# Stress axis : x y z
#
# Youngs Moduli (GPa) = 89.13621 89.13621 79.13509
#
# Poissons Ratio (x) = -0.54714 0.37492
# Poissons Ratio (y) = -0.54714 0.37492
# Poissons Ratio (z) = 0.42231 0.42231
#
# Static dielectric constant tensor:
#      x y z
#    x 1.661560 0.000000 0.000000 
#    y 0.000000 1.661560 0.000000 
#    z 0.000000 0.000000 1.703760 
# 
# From -- ./inp_files/2492.got.cif
#   From: 2010.05.17/outbox.cif.g08.bks.cpg/sg162_2_cif.got.tgz:2492.got - 2010.05.20 10:53:12.
