data_PCOD9577203
_publ_section_title
;
Structure prediction by ZEFSAII (Michael W. Deem and Ramdas Pophale) SiO2 
 PCOD9577203
Probable space group: P 3 M 1
;
_chemical_formula_sum "Si O2"
_cell_formula_units_Z 48
_cell_length_a 12.895853
_cell_length_b 12.895853
_cell_length_c 21.277568
_cell_angle_alpha 90.000000
_cell_angle_beta 90.000000
_cell_angle_gamma 120.000000
_cell_volume 3064.451602
_symmetry_space_group_name_H-M "P 3 M 1"
_symmetry_group_IT_number 156
_symmetry_cell_setting 'hexagonal'
loop_
_space_group_symop_operation_xyz
x,y,z
-y,x-y,z
-x+y,-x,z
-x+y,y,z
x,x-y,z
-y,-x,z
loop_
_atom_site_type_symbol
_atom_site_label
_atom_site_fract_x
_atom_site_fract_y
_atom_site_fract_z
Si Si1 0.332986 0.911715 0.567980
Si Si2 0.086504 0.419973 0.335989
Si Si3 0.753130 0.999913 0.826845
Si Si4 0.578026 0.911624 0.712450
Si Si5 0.666591 0.087186 0.454011
Si Si6 0.913389 0.333162 0.080850
Si Si7 0.915102 0.581787 0.943250
Si Si8 0.915249 0.333319 0.219002
O O1 0.441166 0.882331 0.562921
O O2 0.207296 0.792705 0.554801
O O3 0.332574 0.949144 0.640239
O O4 0.362156 0.015179 0.518115
O O5 0.207496 0.414991 0.338758
O O6 0.114402 0.557201 0.335550
O O7 0.002290 0.357799 0.396094
O O8 0.009210 0.357433 0.273748
O O9 0.882740 0.117261 0.823646
O O10 0.685634 0.014535 0.886888
O O11 0.763557 0.881779 0.833027
O O12 0.678368 0.985732 0.763759
O O13 0.459353 0.918705 0.724476
O O14 0.548811 0.774406 0.717110
O O15 0.558083 0.116165 0.452949
O O16 0.792824 0.207177 0.448874
O O17 0.902628 0.451314 0.078707
O O18 0.781936 0.218065 0.082828
O O19 0.966995 0.334230 0.149193
O O20 0.965733 0.329447 0.012786
O O21 0.779049 0.558098 0.940873
O O22 0.914926 0.457463 0.936668
O O23 0.889892 0.444946 0.221150
O O24 0.791366 0.208635 0.227710
#
# Coordination Sequence:
#
# PCOD9577203 Si02
#       8
#     6   6   6   6   6   6   6   6
#     4   9  17  30  50  74  97 120 147 181 220 263
#     4  10  20  33  49  68  90 118 152 189 226 263
#     4  10  20  32  45  61  85 120 159 194 225 262
#     4   9  17  30  49  72  94 116 145 184 229 270
#     4  10  20  33  50  71  95 121 148 181 221 265
#     4   8  13  22  39  65  93 117 141 173 219 271
#     4   9  16  27  45  68  92 115 142 182 231 278
#     4   9  16  27  46  71  96 119 144 178 221 270
#
# _framework density 15.663489
#
# number of rings (size 3 to 8) (size 9 to 14) (size 15 to 20)
#    0.000    2.750    0.000    2.125    0.000    3.500 
#    0.000    3.125    0.000    5.000    0.000    0.000 
#    0.000    0.000    0.000    0.000    0.000    0.000 
#
# Total GULP energy -267298.112278 kJ/mol
# GULP energy per Si atom -5568.710672 kJ/mol
# Density = 1.562784 g / cm^3
# Si number density = 15.663489 Si / 1000 Ang^3
#
#
#
# Elastic Constant Matrix: (Units=GPa)
#
#
# Indices 1 2 3 4 5 6 
#
# 1 83.5465 49.1382 72.2422 0.2072 0.0000 0.0000
# 2 49.1382 83.5465 72.2422 -0.2072 0.0000 0.0000
# 3 72.2422 72.2422 152.2655 0.0000 0.0000 0.0000
# 4 0.2072 -0.2072 0.0000 20.0283 0.0000 0.0000
# 5 0.0000 0.0000 0.0000 0.0000 20.0283 0.2072
# 6 0.0000 0.0000 0.0000 0.0000 0.2072 17.2042
#
#
#
# Elastic Compliance Matrix: (Units=1/GPa)
#
#
# Indices 1 2 3 4 5 6 
#
# 1 0.022329 -0.006737 -0.007398 -0.000301 0.000000 0.000000
# 2 -0.006737 0.022329 -0.007398 0.000301 0.000000 0.000000
# 3 -0.007398 -0.007398 0.013587 0.000000 0.000000 0.000000
# 4 -0.000301 0.000301 0.000000 0.049935 0.000000 0.000000
# 5 0.000000 0.000000 0.000000 0.000000 0.049935 -0.000601
# 6 0.000000 0.000000 0.000000 0.000000 -0.000601 0.058133
#
#
# Mechanical properties :
#
#
# Convention : Reuss Voigt Hill
#
# Bulk Modulus (GPa) = 65.87271 78.51149 72.19210
# Shear Modulus (GPa) = 18.91254 19.83456 19.37355
#
# Velocity S-wave (km/s) = 3.47858 3.56236 3.52072
# Velocity P-wave (km/s) = 7.63415 8.19471 7.91939
#
# Compressibility (1/GPa) = 0.01518079
#
# Stress axis : x y z
#
# Youngs Moduli (GPa) = 44.78413 44.78413 73.59882
#
# Poissons Ratio (x) = 0.30171 0.54447
# Poissons Ratio (y) = 0.30171 0.54447
# Poissons Ratio (z) = 0.33130 0.33130
#
# Static dielectric constant tensor:
#      x y z
#    x 1.488660 0.000000 0.000000 
#    y 0.000000 1.488660 0.000000 
#    z 0.000000 0.000000 1.561550 
# 
# From -- ./inp_files/1120.got.cif
#   From: 2010.05.17/outbox.cif.g08.bks.cpg/sg156_cif.got.tgz:1120.got - 2010.05.20 10:49:08.
