data_PCOD9577823
_publ_section_title
;
Structure prediction by ZEFSAII (Michael W. Deem and Ramdas Pophale) SiO2 
 PCOD9577823
Probable space group: P -3 1 M 
;
_chemical_formula_sum "Si O2"
_cell_formula_units_Z 84
_cell_length_a 17.579067
_cell_length_b 17.579067
_cell_length_c 16.023951
_cell_angle_alpha 90.000000
_cell_angle_beta 90.000000
_cell_angle_gamma 120.000000
_cell_volume 4288.366382
_symmetry_space_group_name_H-M "P -3 1 M "
_symmetry_group_IT_number 162
_symmetry_cell_setting 'hexagonal'
loop_
_space_group_symop_operation_xyz
x,y,z
-y,x-y,z
-x+y,-x,z
-y,-x,-z
-x+y,y,-z
x,x-y,-z
-x,-y,-z
y,-x+y,-z
x-y,x,-z
y,x,z
x-y,-y,z
-x,-x+y,z
loop_
_atom_site_type_symbol
_atom_site_label
_atom_site_fract_x
_atom_site_fract_y
_atom_site_fract_z
Si Si1 0.532599 0.893397 0.482216
Si Si2 0.639202 0.106603 0.982216
Si Si3 0.206793 0.895002 0.923515
Si Si4 0.177460 0.354920 0.250000
Si Si5 0.369257 0.894516 0.207934
Si Si6 0.311791 0.206793 0.576485
Si Si7 0.105484 0.474740 0.707935
O O1 0.431616 0.863232 0.500000
O O2 0.589144 0.870004 0.545189
O O3 0.529036 0.865155 0.386347
O O4 0.584900 0.000000 0.483779
O O5 0.663882 0.134846 0.886347
O O6 0.584900 0.000000 0.983779
O O7 0.568384 0.136768 0.000000
O O8 0.719140 0.129996 0.045189
O O9 0.155411 0.849932 0.838124
O O10 0.257843 0.000000 0.913870
O O11 0.138907 0.861094 0.000000
O O12 0.133792 0.415618 0.258463
O O13 0.150069 0.305480 0.338124
O O14 0.281826 0.415619 0.241536
O O15 0.430865 0.861731 0.250000
O O16 0.427406 0.000000 0.206032
O O17 0.277811 0.138906 0.500000
O O18 0.257842 0.257842 0.586130
O O19 0.000000 0.427405 0.706033
#
# Coordination Sequence:
#
# PCOD9577823 Si02
#       7
#    12  12  12  12  12  12  12
#     4   9  17  33  57  83 115 153 194 239 295 363
#     4   9  17  33  57  83 115 153 194 239 295 363
#     4  11  23  39  62  92 126 164 211 267 322 379
#     4  12  22  36  60  90 123 158 205 260 316 374
#     4  10  20  35  56  84 118 157 199 245 301 366
#     4  11  23  39  62  92 126 164 211 267 322 379
#     4  10  20  35  56  84 118 157 199 245 301 366
#
# _framework density 19.587879000000001
#
# number of rings (size 3 to 8) (size 9 to 14) (size 15 to 20)
#    0.000    1.714    2.857    2.571    0.000    5.714 
#    0.857    0.000    0.000    0.857    0.000    1.000 
#    0.000    0.000    0.000    0.000    0.000    0.000 
#
# Total GULP energy -467988.445048 kJ/mol
# GULP energy per Si atom -5571.291012 kJ/mol
# Density = 1.954330 g / cm^3
# Si number density = 19.587879 Si / 1000 Ang^3
#
#
#
# Elastic Constant Matrix: (Units=GPa)
#
#
# Indices 1 2 3 4 5 6 
#
# 1 53.5383 1.7465 25.4578 0.0000 8.5095 0.0000
# 2 1.7465 53.5383 25.4578 0.0000 -8.5095 0.0000
# 3 25.4578 25.4578 149.1736 0.0000 0.0000 0.0000
# 4 0.0000 0.0000 0.0000 43.3218 0.0000 -8.5095
# 5 8.5095 -8.5095 0.0000 0.0000 43.3218 0.0000
# 6 0.0000 0.0000 0.0000 -8.5095 0.0000 25.8959
#
#
#
# Elastic Compliance Matrix: (Units=1/GPa)
#
#
# Indices 1 2 3 4 5 6 
#
# 1 0.021051 0.000410 -0.003663 0.000000 -0.004054 0.000000
# 2 0.000410 0.021051 -0.003663 0.000000 0.004054 0.000000
# 3 -0.003663 -0.003663 0.007954 0.000000 0.000000 0.000000
# 4 0.000000 0.000000 0.000000 0.024676 0.000000 0.008109
# 5 -0.004054 0.004054 0.000000 0.000000 0.024676 0.000000
# 6 0.000000 0.000000 0.000000 0.008109 0.000000 0.041281
#
#
# Mechanical properties :
#
#
# Convention : Reuss Voigt Hill
#
# Bulk Modulus (GPa) = 27.60447 40.17493 33.88970
# Shear Modulus (GPa) = 30.01341 36.08042 33.04691
#
# Velocity S-wave (km/s) = 3.91864 4.29648 4.11190
# Velocity P-wave (km/s) = 5.88196 6.72069 6.31526
#
# Compressibility (1/GPa) = 0.03622602
#
# Stress axis : x y z
#
# Youngs Moduli (GPa) = 47.50412 47.50412 125.72772
#
# Poissons Ratio (x) = -0.01950 0.46049
# Poissons Ratio (y) = -0.01950 0.46049
# Poissons Ratio (z) = 0.17399 0.17399
#
# Static dielectric constant tensor:
#      x y z
#    x 1.708560 0.000000 0.000000 
#    y 0.000000 1.708560 0.000000 
#    z 0.000000 0.000000 2.011900 
# 
# From -- ./inp_files/3186.got.cif
#   From: 2010.05.17/outbox.cif.g08.bks.cpg/sg162_2_cif.got.tgz:3186.got - 2010.05.20 10:53:12.
