data_PCOD9577439
_publ_section_title
;
Structure prediction by ZEFSAII (Michael W. Deem and Ramdas Pophale) SiO2 
 PCOD9577439
Probable space group: P 3 1 C
;
_chemical_formula_sum "Si O2"
_cell_formula_units_Z 34
_cell_length_a 14.470467
_cell_length_b 14.470467
_cell_length_c 7.828160
_cell_angle_alpha 90.000000
_cell_angle_beta 90.000000
_cell_angle_gamma 120.000000
_cell_volume 1419.565446
_symmetry_space_group_name_H-M "P 3 1 C"
_symmetry_group_IT_number 159
_symmetry_cell_setting 'hexagonal'
loop_
_space_group_symop_operation_xyz
x,y,z
-y,x-y,z
-x+y,-x,z
y,x,1/2+z
x-y,-y,1/2+z
-x,-x+y,1/2+z
loop_
_atom_site_type_symbol
_atom_site_label
_atom_site_fract_x
_atom_site_fract_y
_atom_site_fract_z
Si Si1 0.504652 0.367986 0.789900
Si Si2 0.333335 0.666668 0.835684
Si Si3 0.042177 0.210572 0.941845
Si Si4 0.069415 0.660543 0.659427
Si Si5 0.553777 0.768162 0.968897
Si Si6 0.953288 0.805565 0.096317
Si Si7 0.333334 0.666668 0.423098
O O1 0.458225 0.441282 0.718750
O O2 0.466876 0.278552 0.644145
O O3 0.626735 0.409189 0.839395
O O4 0.456864 0.332865 0.979883
O O5 0.439194 0.668865 0.910100
O O6 0.333334 0.666667 0.628848
O O7 0.087725 0.150223 0.060064
O O8 0.914920 0.136644 0.951528
O O9 0.099437 0.337387 0.980426
O O10 0.088286 0.201058 0.762336
O O11 0.149796 0.721255 0.813716
O O12 0.012988 0.729814 0.620256
#
# Coordination Sequence:
#
# PCOD9577439 Si02
#       7
#     6   2   6   6   6   6   2
#     4  12  22  45  73 109 135 205 236 308 373 452
#     4  12  25  53  73 109 158 193 253 335 379 445
#     4  11  23  38  67  99 138 192 237 302 368 448
#     4  11  22  40  74  99 149 193 244 291 380 452
#     4  11  24  43  75 101 141 194 248 302 384 438
#     4  11  22  39  61 101 139 186 239 305 360 444
#     4  12  28  44  85 112 152 187 265 317 376 451
#
# _framework density 23.950990000000001
#
# number of rings (size 3 to 8) (size 9 to 14) (size 15 to 20)
#    0.000    0.706    5.294    3.529    2.471    0.000 
#    0.000    1.765    7.765    0.000    0.000    0.000 
#    0.000    0.000    0.000    0.000    0.000    0.000 
#
# Total GULP energy -189664.754326 kJ/mol
# GULP energy per Si atom -5578.375127 kJ/mol
# Density = 2.389648 g / cm^3
# Si number density = 23.950990 Si / 1000 Ang^3
#
#
#
# Elastic Constant Matrix: (Units=GPa)
#
#
# Indices 1 2 3 4 5 6 
#
# 1 66.3600 39.9341 21.5696 -0.0001 0.4737 -0.0004
# 2 39.9341 66.3594 21.5694 -0.0001 -0.4739 -0.0001
# 3 21.5696 21.5694 157.5104 0.0001 0.0001 -0.0002
# 4 -0.0001 -0.0001 0.0001 18.7404 -0.0004 -0.4738
# 5 0.4737 -0.4739 0.0001 -0.0004 18.7408 0.0000
# 6 -0.0004 -0.0001 -0.0002 -0.4738 0.0000 13.2129
#
#
#
# Elastic Compliance Matrix: (Units=1/GPa)
#
#
# Indices 1 2 3 4 5 6 
#
# 1 0.023919 -0.013957 -0.001364 0.000000 -0.000958 0.000001
# 2 -0.013957 0.023919 -0.001364 0.000000 0.000958 0.000000
# 3 -0.001364 -0.001364 0.006722 0.000000 0.000000 0.000000
# 4 0.000000 0.000000 0.000000 0.053409 0.000001 0.001915
# 5 -0.000958 0.000958 0.000000 0.000001 0.053408 0.000000
# 6 0.000001 0.000000 0.000000 0.001915 0.000000 0.075752
#
#
# Mechanical properties :
#
#
# Convention : Reuss Voigt Hill
#
# Bulk Modulus (GPa) = 47.19452 50.70845 48.95148
# Shear Modulus (GPa) = 18.01389 23.94928 20.98158
#
# Velocity S-wave (km/s) = 2.74545 3.16560 2.96298
# Velocity P-wave (km/s) = 5.45870 5.88039 5.67346
#
# Compressibility (1/GPa) = 0.02118890
#
# Stress axis : x y z
#
# Youngs Moduli (GPa) = 41.80796 41.80764 148.75650
#
# Poissons Ratio (x) = 0.58353 0.20293
# Poissons Ratio (y) = 0.58353 0.20292
# Poissons Ratio (z) = 0.05703 0.05703
#
# Static dielectric constant tensor:
#      x y z
#    x 2.036180 0.000000 0.000000 
#    y 0.000000 2.036190 0.000000 
#    z 0.000000 0.000000 1.986750 
# 
# From -- ./inp_files/393.got.cif
#   From: 2010.05.17/outbox.cif.g08.bks.cpg/sg159_cif.got.tgz:393.got - 2010.05.20 10:50:30.
