data_PCOD9577839
_publ_section_title
;
Structure prediction by ZEFSAII (Michael W. Deem and Ramdas Pophale) SiO2 
 PCOD9577839
Probable space group: P -3 1 M 
;
_chemical_formula_sum "Si O2"
_cell_formula_units_Z 96
_cell_length_a 14.402817
_cell_length_b 14.402817
_cell_length_c 27.549177
_cell_angle_alpha 90.000000
_cell_angle_beta 90.000000
_cell_angle_gamma 120.000000
_cell_volume 4949.190223
_symmetry_space_group_name_H-M "P -3 1 M "
_symmetry_group_IT_number 162
_symmetry_cell_setting 'hexagonal'
loop_
_space_group_symop_operation_xyz
x,y,z
-y,x-y,z
-x+y,-x,z
-y,-x,-z
-x+y,y,-z
x,x-y,-z
-x,-y,-z
y,-x+y,-z
x-y,x,-z
y,x,z
x-y,-y,z
-x,-x+y,z
loop_
_atom_site_type_symbol
_atom_site_label
_atom_site_fract_x
_atom_site_fract_y
_atom_site_fract_z
Si Si1 0.166955 0.725359 0.130378
Si Si2 0.332286 0.876851 0.981716
Si Si3 0.128420 0.690032 0.635237
Si Si4 0.649376 0.776098 0.707577
Si Si5 0.438271 0.871304 0.723042
Si Si6 0.123237 0.612924 0.826066
Si Si7 0.539232 0.668138 0.477762
Si Si8 0.243742 0.121617 0.194219
O O1 0.131399 0.683453 0.076281
O O2 0.295213 0.798998 0.137132
O O3 0.125117 0.619489 0.162091
O O4 0.125755 0.799418 0.154247
O O5 0.370933 0.000000 0.996765
O O6 0.217894 0.782107 0.000000
O O7 0.428488 0.856977 0.000000
O O8 0.172593 0.806381 0.658983
O O9 0.166682 0.630292 0.672881
O O10 0.154004 0.681329 0.579769
O O11 0.000000 0.629165 0.637763
O O12 0.723885 0.723885 0.699333
O O13 0.533318 0.679634 0.722756
O O14 0.698057 0.855080 0.753449
O O15 0.471123 0.832362 0.771220
O O16 0.514713 0.000000 0.725370
O O17 0.000000 0.584822 0.829163
O O18 0.427957 0.572044 0.500000
O O19 0.566626 0.783313 0.500000
O O20 0.626271 0.626271 0.484267
O O21 0.150793 0.150793 0.199531
O O22 0.196756 0.000000 0.179964
#
# Coordination Sequence:
#
# PCOD9577839 Si02
#       8
#    12  12  12  12  12  12  12  12
#     4  12  23  39  63  90 118 157 201 247 303 362
#     4  11  25  45  69  96 126 162 209 265 323 381
#     4  10  21  37  57  85 118 154 202 252 305 369
#     4  10  20  36  58  85 122 166 206 245 296 356
#     4   9  19  35  53  80 120 161 196 236 287 354
#     4  11  22  38  58  87 125 159 194 238 291 354
#     4  10  23  42  64  90 121 160 210 269 330 392
#     4  11  22  38  60  90 128 170 210 248 292 352
#
# _framework density 19.397110999999999
#
# number of rings (size 3 to 8) (size 9 to 14) (size 15 to 20)
#    0.000    1.500    1.250    4.000    1.750    3.500 
#    0.750    0.000    0.000    0.500    0.000    0.000 
#    0.000    0.000    0.000    0.000    0.000    0.000 
#
# Total GULP energy -535945.274562 kJ/mol
# GULP energy per Si atom -5582.763277 kJ/mol
# Density = 1.935296 g / cm^3
# Si number density = 19.397111 Si / 1000 Ang^3
#
#
#
# Elastic Constant Matrix: (Units=GPa)
#
#
# Indices 1 2 3 4 5 6 
#
# 1 89.9991 45.2927 42.7548 0.0002 -0.1238 0.0000
# 2 45.2927 89.9991 42.7548 -0.0002 0.1238 0.0000
# 3 42.7548 42.7548 118.1867 0.0000 0.0000 0.0000
# 4 0.0002 -0.0002 0.0000 24.7031 0.0000 0.1238
# 5 -0.1238 0.1238 0.0000 0.0000 24.7031 0.0002
# 6 0.0000 0.0000 0.0000 0.1238 0.0002 22.3532
#
#
#
# Elastic Compliance Matrix: (Units=1/GPa)
#
#
# Indices 1 2 3 4 5 6 
#
# 1 0.015976 -0.006393 -0.003466 0.000000 0.000112 0.000000
# 2 -0.006393 0.015976 -0.003466 0.000000 -0.000112 0.000000
# 3 -0.003466 -0.003466 0.010969 0.000000 0.000000 0.000000
# 4 0.000000 0.000000 0.000000 0.040482 0.000000 -0.000224
# 5 0.000112 -0.000112 0.000000 0.000000 0.040482 0.000000
# 6 0.000000 0.000000 0.000000 -0.000224 0.000000 0.044738
#
#
# Mechanical properties :
#
#
# Convention : Reuss Voigt Hill
#
# Bulk Modulus (GPa) = 61.47016 62.19882 61.83449
# Shear Modulus (GPa) = 24.91322 25.51073 25.21198
#
# Velocity S-wave (km/s) = 3.58771 3.63048 3.60916
# Velocity P-wave (km/s) = 6.99438 7.05049 7.02249
#
# Compressibility (1/GPa) = 0.01626806
#
# Stress axis : x y z
#
# Youngs Moduli (GPa) = 62.59552 62.59552 91.16406
#
# Poissons Ratio (x) = 0.40019 0.31602
# Poissons Ratio (y) = 0.40019 0.31602
# Poissons Ratio (z) = 0.21699 0.21699
#
# Static dielectric constant tensor:
#      x y z
#    x 1.704750 0.000000 0.000000 
#    y 0.000000 1.704750 0.000000 
#    z 0.000000 0.000000 1.711860 
# 
# From -- ./inp_files/4067.got.cif
#   From: 2010.05.17/outbox.cif.g08.bks.cpg/sg162_3_cif.got.tgz:4067.got - 2010.05.20 10:53:12.
