data_PCOD9577483
_publ_section_title
;
Structure prediction by ZEFSAII (Michael W. Deem and Ramdas Pophale) SiO2 
 PCOD9577483
Probable space group: R 3 M
;
_chemical_formula_sum "Si O2"
_cell_formula_units_Z 72
_cell_length_a 19.446594
_cell_length_b 19.446594
_cell_length_c 9.956697
_cell_angle_alpha 90.000000
_cell_angle_beta 90.000000
_cell_angle_gamma 120.000000
_cell_volume 3260.866485
_symmetry_space_group_name_H-M "R 3 M"
_symmetry_group_IT_number 160
_symmetry_cell_setting 'hexagonal'
loop_
_space_group_symop_operation_xyz
x,y,z
-y,x-y,z
-x+y,-x,z
-x+y,y,z
x,x-y,z
-y,-x,z
2/3+x,1/3+y,1/3+z
2/3-y,1/3+x-y,1/3+z
2/3-x+y,1/3-x,1/3+z
2/3-x+y,1/3+y,1/3+z
2/3+x,1/3+x-y,1/3+z
2/3-y,1/3-x,1/3+z
1/3+x,2/3+y,2/3+z
1/3-y,2/3+x-y,2/3+z
1/3-x+y,2/3-x,2/3+z
1/3-x+y,2/3+y,2/3+z
1/3+x,2/3+x-y,2/3+z
1/3-y,2/3-x,2/3+z
loop_
_atom_site_type_symbol
_atom_site_label
_atom_site_fract_x
_atom_site_fract_y
_atom_site_fract_z
Si Si1 0.381546 0.111139 0.250672
Si Si2 0.667367 0.500206 0.017155
Si Si3 0.966063 0.194714 0.393652
Si Si4 0.185289 0.519083 0.792870
O O1 0.363074 0.181537 0.211296
O O2 0.301132 0.037930 0.308021
O O3 0.437985 0.139871 0.379759
O O4 0.436336 0.111519 0.129934
O O5 0.743437 0.486874 0.032769
O O6 0.584499 0.415502 0.027331
O O7 0.671839 0.539097 0.871306
O O8 0.874450 0.125551 0.416827
O O9 0.001862 0.160452 0.285046
O O10 0.244360 0.488719 0.751825
O O11 0.221005 0.610503 0.757181
#
# Coordination Sequence:
#
# PCOD9577483 Si02
#       4
#    18  18  18  18
#     4   9  19  36  54  79 118 158 196 239 301 377
#     4  10  19  34  60  92 123 154 198 262 326 380
#     4   9  19  36  54  79 118 158 196 239 301 377
#     4  10  19  34  58  86 117 152 198 260 322 378
#
# _framework density 22.080020000000001
#
# number of rings (size 3 to 8) (size 9 to 14) (size 15 to 20)
#    0.000    2.500    0.000    2.000    0.000    0.000 
#    4.500    5.000    0.000   12.000    0.000    0.000 
#    0.000    0.000    0.000    0.000    0.000    0.000 
#
# Total GULP energy -133730.527584 kJ/mol
# GULP energy per Si atom -5572.105316 kJ/mol
# Density = 2.202976 g / cm^3
# Si number density = 22.080020 Si / 1000 Ang^3
#
#
#
# Elastic Constant Matrix: (Units=GPa)
#
#
# Indices 1 2 3 4 5 6 
#
# 1 64.6871 36.1630 18.4382 -9.4164 0.0001 0.0000
# 2 36.1630 64.6871 18.4382 9.4164 -0.0001 0.0000
# 3 18.4382 18.4382 111.2757 -0.0001 0.0000 0.0000
# 4 -9.4164 9.4164 -0.0001 18.6570 0.0000 -0.0001
# 5 0.0001 -0.0001 0.0000 0.0000 18.6571 -9.4164
# 6 0.0000 0.0000 0.0000 -0.0001 -9.4164 14.2620
#
#
#
# Elastic Compliance Matrix: (Units=1/GPa)
#
#
# Indices 1 2 3 4 5 6 
#
# 1 0.031567 -0.021012 -0.001749 0.026537 0.000000 0.000000
# 2 -0.021012 0.031567 -0.001749 -0.026537 0.000000 0.000000
# 3 -0.001749 -0.001749 0.009566 0.000000 0.000000 0.000000
# 4 0.026537 -0.026537 0.000000 0.080387 0.000000 0.000001
# 5 0.000000 0.000000 0.000000 0.000000 0.080386 0.053075
# 6 0.000000 0.000000 0.000000 0.000001 0.053075 0.105158
#
#
# Mechanical properties :
#
#
# Convention : Reuss Voigt Hill
#
# Bulk Modulus (GPa) = 42.22827 42.96986 42.59906
# Shear Modulus (GPa) = 12.64075 21.48925 17.06500
#
# Velocity S-wave (km/s) = 2.39529 3.12307 2.78307
# Velocity P-wave (km/s) = 5.17846 5.70158 5.44630
#
# Compressibility (1/GPa) = 0.02368082
#
# Stress axis : x y z
#
# Youngs Moduli (GPa) = 31.67836 31.67836 104.53366
#
# Poissons Ratio (x) = 0.66563 0.18283
# Poissons Ratio (y) = 0.66563 0.18283
# Poissons Ratio (z) = 0.05540 0.05541
#
# Static dielectric constant tensor:
#      x y z
#    x 1.843100 0.000000 0.000000 
#    y 0.000000 1.843100 0.000000 
#    z 0.000000 0.000000 1.792270 
# 
# From -- ./inp_files/697.got.cif
#   From: 2010.05.17/outbox.cif.g08.bks.cpg/sg160_1_cif.got.tgz:697.got - 2010.05.20 10:51:19.
