data_PCOD9577862
_publ_section_title
;
Structure prediction by ZEFSAII (Michael W. Deem and Ramdas Pophale) SiO2 
 PCOD9577862
Probable space group: P -3 1 M 
;
_chemical_formula_sum "Si O2"
_cell_formula_units_Z 48
_cell_length_a 21.937658
_cell_length_b 21.937658
_cell_length_c 5.101196
_cell_angle_alpha 90.000000
_cell_angle_beta 90.000000
_cell_angle_gamma 120.000000
_cell_volume 2126.097445
_symmetry_space_group_name_H-M "P -3 1 M "
_symmetry_group_IT_number 162
_symmetry_cell_setting 'hexagonal'
loop_
_space_group_symop_operation_xyz
x,y,z
-y,x-y,z
-x+y,-x,z
-y,-x,-z
-x+y,y,-z
x,x-y,-z
-x,-y,-z
y,-x+y,-z
x-y,x,-z
y,x,z
x-y,-y,z
-x,-x+y,z
loop_
_atom_site_type_symbol
_atom_site_label
_atom_site_fract_x
_atom_site_fract_y
_atom_site_fract_z
Si Si1 0.272044 0.727957 0.500000
Si Si2 0.846987 0.153014 0.000000
Si Si3 0.000000 0.745841 0.856814
Si Si4 0.846913 0.462683 0.747068
Si Si5 0.341654 0.341654 0.360967
Si Si6 0.565166 0.860160 0.161493
O O1 0.338355 0.762513 0.308080
O O2 0.206028 0.710642 0.311601
O O3 0.817785 0.076150 0.867424
O O4 0.854437 0.218429 0.826447
O O5 0.000000 0.699373 0.616547
O O6 0.000000 0.704508 0.115393
O O7 0.875217 0.437609 0.500000
O O8 0.863991 0.431995 0.000000
O O9 0.864473 0.539538 0.866256
O O10 0.345552 0.415259 0.320181
#
# Coordination Sequence:
#
# PCOD9577862 Si02
#       6
#     6   6   6  12   6  12
#     4  12  22  44  74  86 128 170 218 284 336 406
#     4  10  20  40  70 101 144 176 234 278 352 391
#     4  10  22  38  62 108 139 185 226 290 331 416
#     4  12  26  43  64  93 123 165 221 272 349 414
#     4  10  24  38  66 102 135 167 236 266 351 412
#     4  11  22  42  68  97 129 178 214 292 338 412
#
# _framework density 22.576574999999998
#
# number of rings (size 3 to 8) (size 9 to 14) (size 15 to 20)
#    0.000    1.000    5.000    1.500    3.500    3.000 
#    0.750    3.750    0.000    0.250    0.000    0.000 
#    0.000    8.000    0.000    0.000    0.000    1.000 
#
# Total GULP energy -267275.825804 kJ/mol
# GULP energy per Si atom -5568.246371 kJ/mol
# Density = 2.252519 g / cm^3
# Si number density = 22.576575 Si / 1000 Ang^3
#
#
#
# Elastic Constant Matrix: (Units=GPa)
#
#
# Indices 1 2 3 4 5 6 
#
# 1 100.3255 48.0626 33.8808 -0.0002 -3.9086 0.0000
# 2 48.0626 100.3255 33.8808 0.0002 3.9086 0.0000
# 3 33.8808 33.8808 180.4256 0.0000 0.0000 0.0000
# 4 -0.0002 0.0002 0.0000 27.1610 0.0000 3.9086
# 5 -3.9086 3.9086 0.0000 0.0000 27.1610 -0.0002
# 6 0.0000 0.0000 0.0000 3.9086 -0.0002 26.1315
#
#
#
# Elastic Compliance Matrix: (Units=1/GPa)
#
#
# Indices 1 2 3 4 5 6 
#
# 1 0.013463 -0.006092 -0.001384 0.000000 0.002814 0.000000
# 2 -0.006092 0.013463 -0.001384 0.000000 -0.002814 0.000000
# 3 -0.001384 -0.001384 0.006062 0.000000 0.000000 0.000000
# 4 0.000000 0.000000 0.000000 0.037627 0.000000 -0.005628
# 5 0.002814 -0.002814 0.000000 0.000000 0.037627 0.000000
# 6 0.000000 0.000000 0.000000 -0.005628 0.000000 0.039110
#
#
# Mechanical properties :
#
#
# Convention : Reuss Voigt Hill
#
# Bulk Modulus (GPa) = 65.49677 68.08057 66.78867
# Shear Modulus (GPa) = 29.38365 33.77420 31.57892
#
# Velocity S-wave (km/s) = 3.61156 3.87199 3.74404
# Velocity P-wave (km/s) = 6.81653 7.08595 6.95254
#
# Compressibility (1/GPa) = 0.01526793
#
# Stress axis : x y z
#
# Youngs Moduli (GPa) = 74.27742 74.27742 164.95387
#
# Poissons Ratio (x) = 0.45249 0.22833
# Poissons Ratio (y) = 0.45249 0.22833
# Poissons Ratio (z) = 0.10281 0.10281
#
# Static dielectric constant tensor:
#      x y z
#    x 1.962680 0.000000 0.000000 
#    y 0.000000 1.962680 0.000000 
#    z 0.000000 0.000000 1.934050 
# 
# From -- ./inp_files/524.got.cif
#   From: 2010.05.17/outbox.cif.g08.bks.cpg/sg162_1_cif.got.tgz:524.got - 2010.05.20 10:53:12.
