data_PCOD9577628
_publ_section_title
;
Structure prediction by ZEFSAII (Michael W. Deem and Ramdas Pophale) SiO2 
 PCOD9577628
Probable space group: R 3 C
;
_chemical_formula_sum "Si O2"
_cell_formula_units_Z 42
_cell_length_a 21.000000
_cell_length_b 21.000000
_cell_length_c 18.000000
_cell_angle_alpha 90.000000
_cell_angle_beta 90.000000
_cell_angle_gamma 120.000000
_cell_volume 6874.509655
_symmetry_space_group_name_H-M "R 3 C"
_symmetry_group_IT_number 161
_symmetry_cell_setting 'hexagonal'
loop_
_space_group_symop_operation_xyz
x,y,z
-y,x-y,z
-x+y,-x,z
-x+y,y,1/2+z
x,x-y,1/2+z
-y,-x,1/2+z
2/3+x,1/3+y,1/3+z
2/3-y,1/3+x-y,1/3+z
2/3-x+y,1/3-x,1/3+z
2/3-x+y,1/3+y,5/6+z
2/3+x,1/3+x-y,5/6+z
2/3-y,1/3-x,5/6+z
1/3+x,2/3+y,2/3+z
1/3-y,2/3+x-y,2/3+z
1/3-x+y,2/3-x,2/3+z
1/3-x+y,2/3+y,1/6+z
1/3+x,2/3+x-y,1/6+z
1/3-y,2/3-x,1/6+z
loop_
_atom_site_type_symbol
_atom_site_label
_atom_site_fract_x
_atom_site_fract_y
_atom_site_fract_z
Si Si1 0.264077 0.314739 0.737708
Si Si2 0.935985 0.454820 0.447677
Si Si3 0.893527 0.292258 0.184568
Si Si4 0.087448 0.464699 0.759312
Si Si5 0.579670 0.811096 0.948517
Si Si6 0.914639 0.558164 0.213412
Si Si7 0.804322 0.579919 0.303529
O O1 0.243453 0.379777 0.739135
O O2 0.343472 0.322102 0.713959
O O3 0.206006 0.253455 0.681465
O O4 0.249845 0.283010 0.820561
O O5 0.892518 0.374451 0.408438
O O6 0.902020 0.455185 0.528617
O O7 0.013171 0.458608 0.468154
O O8 0.884261 0.352360 0.139491
O O9 0.833965 0.262242 0.250891
O O10 0.105220 0.539553 0.718184
O O11 0.000842 0.405481 0.738524
O O12 0.666708 0.860229 0.963749
O O13 0.558284 0.741716 0.001956
O O14 0.853083 0.545718 0.274180
#
# Coordination Sequence:
#
# PCOD9577628 Si02
#       7
#    18  18  18  18  18  18  18
#     4  11  19  34  54  85 114 155 192 238 302 358
#     4  10  20  33  54  81 123 155 189 243 293 354
#     4  10  19  32  57  87 114 153 191 242 292 357
#     4  10  21  35  52  87 119 159 189 244 293 356
#     4  10  19  34  57  81 114 157 195 239 293 350
#     4  11  19  38  58  81 119 157 194 242 297 352
#     4  10  19  34  56  80 115 152 192 244 286 349
#
# _framework density 6.1095269999999999
#
# number of rings (size 3 to 8) (size 9 to 14) (size 15 to 20)
#    0.000    1.714    8.571    1.714    0.000    2.286 
#    2.571    0.000    0.000    0.571    0.000    0.000 
#    0.000    0.000    0.000    0.000    0.000    0.000 
#
# Total GULP energy -233835.252001 kJ/mol
# GULP energy per Si atom -5567.506000 kJ/mol
# Density = 0.609562 g / cm^3
# Si number density = 6.109527 Si / 1000 Ang^3
#
#
#
# Elastic Constant Matrix: (Units=GPa)
#
#
# Indices 1 2 3 4 5 6 
#
# 1 80.5619 26.6683 27.6892 10.7089 0.0000 0.0000
# 2 26.6683 80.5619 27.6892 -10.7089 0.0000 0.0000
# 3 27.6892 27.6892 46.5808 0.0000 0.0000 0.0000
# 4 10.7089 -10.7089 0.0000 31.4420 0.0000 0.0000
# 5 0.0000 0.0000 0.0000 0.0000 31.4420 10.7089
# 6 0.0000 0.0000 0.0000 0.0000 10.7089 26.9468
#
#
#
# Elastic Compliance Matrix: (Units=1/GPa)
#
#
# Indices 1 2 3 4 5 6 
#
# 1 0.017458 -0.004001 -0.007999 -0.007309 0.000000 0.000000
# 2 -0.004001 0.017458 -0.007999 0.007309 0.000000 0.000000
# 3 -0.007999 -0.007999 0.030978 0.000000 0.000000 0.000000
# 4 -0.007309 0.007309 0.000000 0.036783 0.000000 0.000000
# 5 0.000000 0.000000 0.000000 0.000000 0.036783 -0.014618
# 6 0.000000 0.000000 0.000000 0.000000 -0.014618 0.042919
#
#
# Mechanical properties :
#
#
# Convention : Reuss Voigt Hill
#
# Bulk Modulus (GPa) = 38.61753 41.31086 39.96420
# Shear Modulus (GPa) = 21.64387 26.34334 23.99360
#
# Velocity S-wave (km/s) = 3.44012 3.79526 3.62205
# Velocity P-wave (km/s) = 6.07409 6.46478 6.27248
#
# Compressibility (1/GPa) = 0.02589497
#
# Stress axis : x y z
#
# Youngs Moduli (GPa) = 57.27933 57.27933 32.28091
#
# Poissons Ratio (x) = 0.22920 0.25822
# Poissons Ratio (y) = 0.22920 0.25822
# Poissons Ratio (z) = 0.45819 0.45819
#
# Static dielectric constant tensor:
#      x y z
#    x 1.648260 0.000000 0.000000 
#    y 0.000000 1.648260 0.000000 
#    z 0.000000 0.000000 1.713010 
# 
# From -- ./inp_files/1416.got.cif
#   From: 2010.05.17/outbox.ucp.g08.bks.cvg/sg161_cif.got.tgz:1416.got - 2010.06.11 15:15:21.
