data_PCOD9577495
_publ_section_title
;
Structure prediction by ZEFSAII (Michael W. Deem and Ramdas Pophale) SiO2 
 PCOD9577495
Probable space group: R 3 M
;
_chemical_formula_sum "Si O2"
_cell_formula_units_Z 108
_cell_length_a 16.802314
_cell_length_b 16.802314
_cell_length_c 20.057101
_cell_angle_alpha 90.000000
_cell_angle_beta 90.000000
_cell_angle_gamma 120.000000
_cell_volume 4903.847840
_symmetry_space_group_name_H-M "R 3 M"
_symmetry_group_IT_number 160
_symmetry_cell_setting 'hexagonal'
loop_
_space_group_symop_operation_xyz
x,y,z
-y,x-y,z
-x+y,-x,z
-x+y,y,z
x,x-y,z
-y,-x,z
2/3+x,1/3+y,1/3+z
2/3-y,1/3+x-y,1/3+z
2/3-x+y,1/3-x,1/3+z
2/3-x+y,1/3+y,1/3+z
2/3+x,1/3+x-y,1/3+z
2/3-y,1/3-x,1/3+z
1/3+x,2/3+y,2/3+z
1/3-y,2/3+x-y,2/3+z
1/3-x+y,2/3-x,2/3+z
1/3-x+y,2/3+y,2/3+z
1/3+x,2/3+x-y,2/3+z
1/3-y,2/3-x,2/3+z
loop_
_atom_site_type_symbol
_atom_site_label
_atom_site_fract_x
_atom_site_fract_y
_atom_site_fract_z
Si Si1 0.513111 0.667161 0.130494
Si Si2 0.718465 0.714844 0.329886
Si Si3 0.374776 0.277295 0.519181
Si Si4 0.850937 0.335314 0.298175
Si Si5 0.845700 0.333549 0.015412
Si Si6 0.885414 0.295512 0.158404
O O1 0.475705 0.737853 0.126535
O O2 0.434286 0.565715 0.147470
O O3 0.556280 0.666157 0.058253
O O4 0.596621 0.710124 0.182919
O O5 0.751459 0.761702 0.257186
O O6 0.709083 0.614732 0.333659
O O7 0.615192 0.696561 0.329714
O O8 0.403932 0.201966 0.499722
O O9 0.387430 0.363371 0.475395
O O10 0.861791 0.430896 0.324258
O O11 0.743405 0.256596 0.295525
O O12 0.896734 0.354083 0.224115
O O13 0.821220 0.410610 0.995318
O O14 0.767092 0.232909 0.993476
O O15 0.853507 0.330501 0.095838
O O16 0.803442 0.196559 0.177374
#
# Coordination Sequence:
#
# PCOD9577495 Si02
#       6
#    18  18  18  18  18  18
#     4  11  23  40  63  90 121 159 205 257 307 362
#     4  11  22  38  59  85 118 157 202 242 301 364
#     4  10  21  37  59  86 114 151 197 248 300 354
#     4  10  20  35  56  83 114 149 192 243 295 351
#     4  11  21  34  52  79 112 148 186 231 285 347
#     4   9  19  34  55  81 111 148 190 235 288 350
#
# _framework density 22.023520999999999
#
# number of rings (size 3 to 8) (size 9 to 14) (size 15 to 20)
#    0.000    1.667    1.667    3.500    0.000    4.000 
#    0.000    1.667    0.000    2.333    0.000    0.000 
#    0.000    0.000    0.000    0.000    0.000    0.000 
#
# Total GULP energy -200765.413384 kJ/mol
# GULP energy per Si atom -5576.817038 kJ/mol
# Density = 2.197339 g / cm^3
# Si number density = 22.023521 Si / 1000 Ang^3
#
#
#
# Elastic Constant Matrix: (Units=GPa)
#
#
# Indices 1 2 3 4 5 6 
#
# 1 73.4121 12.7095 -8.9371 0.0569 0.0006 0.0000
# 2 12.7095 73.4121 -8.9371 -0.0569 -0.0006 0.0000
# 3 -8.9371 -8.9371 55.0194 0.0000 0.0000 0.0000
# 4 0.0569 -0.0569 0.0000 11.3864 0.0000 -0.0006
# 5 0.0006 -0.0006 0.0000 0.0000 11.3864 0.0569
# 6 0.0000 0.0000 0.0000 -0.0006 0.0569 30.3513
#
#
#
# Elastic Compliance Matrix: (Units=1/GPa)
#
#
# Indices 1 2 3 4 5 6 
#
# 1 0.014245 -0.002229 0.001952 -0.000082 -0.000001 0.000000
# 2 -0.002229 0.014245 0.001952 0.000082 0.000001 0.000000
# 3 0.001952 0.001952 0.018810 0.000000 0.000000 0.000000
# 4 -0.000082 0.000082 0.000000 0.087825 0.000000 0.000002
# 5 -0.000001 0.000001 0.000000 0.000000 0.087825 -0.000165
# 6 0.000000 0.000000 0.000000 0.000002 -0.000165 0.032948
#
#
# Mechanical properties :
#
#
# Convention : Reuss Voigt Hill
#
# Bulk Modulus (GPa) = 19.74318 21.27936 20.51127
# Shear Modulus (GPa) = 18.55764 24.42537 21.49150
#
# Velocity S-wave (km/s) = 2.90595 3.33387 3.12724
# Velocity P-wave (km/s) = 4.49928 4.95001 4.73002
#
# Compressibility (1/GPa) = 0.05065039
#
# Stress axis : x y z
#
# Youngs Moduli (GPa) = 70.19878 70.19878 53.16458
#
# Poissons Ratio (x) = 0.15645 -0.10377
# Poissons Ratio (y) = 0.15645 -0.10377
# Poissons Ratio (z) = -0.13702 -0.13702
#
# Static dielectric constant tensor:
#      x y z
#    x 1.814580 0.000000 0.000000 
#    y 0.000000 1.814580 0.000000 
#    z 0.000000 0.000000 1.883920 
# 
# From -- ./inp_files/3329.got.cif
#   From: 2010.05.17/outbox.cif.g08.bks.cpg/sg160_2_cif.got.tgz:3329.got - 2010.05.20 10:51:19.
