data_PCOD9577897
_publ_section_title
;
Structure prediction by ZEFSAII (Michael W. Deem and Ramdas Pophale) SiO2 
 PCOD9577897
Probable space group: P -3 1 M 
;
_chemical_formula_sum "Si O2"
_cell_formula_units_Z 42
_cell_length_a 22.528717
_cell_length_b 22.528717
_cell_length_c 5.182307
_cell_angle_alpha 90.000000
_cell_angle_beta 90.000000
_cell_angle_gamma 120.000000
_cell_volume 2277.858214
_symmetry_space_group_name_H-M "P -3 1 M "
_symmetry_group_IT_number 162
_symmetry_cell_setting 'hexagonal'
loop_
_space_group_symop_operation_xyz
x,y,z
-y,x-y,z
-x+y,-x,z
-y,-x,-z
-x+y,y,-z
x,x-y,-z
-x,-y,-z
y,-x+y,-z
x-y,x,-z
y,x,z
x-y,-y,z
-x,-x+y,z
loop_
_atom_site_type_symbol
_atom_site_label
_atom_site_fract_x
_atom_site_fract_y
_atom_site_fract_z
Si Si1 0.424003 0.000000 0.256043
Si Si2 0.345665 0.345665 0.239434
Si Si3 0.880711 0.440356 0.000000
Si Si4 0.853134 0.635357 0.253521
Si Si5 0.771341 0.302127 0.750566
O O1 0.494721 0.068142 0.177081
O O2 0.399026 0.000000 0.547041
O O3 0.370864 0.000000 0.050208
O O4 0.341867 0.273821 0.270359
O O5 0.830581 0.451181 0.192106
O O6 0.829879 0.659757 0.500000
O O7 0.812273 0.552138 0.256971
O O8 0.828243 0.656486 0.000000
O O9 0.722482 0.277519 0.500000
O O10 0.723073 0.276928 0.000000
#
# Coordination Sequence:
#
# PCOD9577897 Si02
#       5
#     6   6   6  12  12
#     4  11  26  36  64  98 118 150 196 273 336 360
#     4  12  22  41  62  96 124 158 206 243 310 392
#     4  11  24  44  62  90 122 148 208 278 326 378
#     4  10  21  38  59  85 120 157 193 237 298 369
#     4  10  23  39  60  79 107 156 197 248 321 382
#
# _framework density 18.438374
#
# number of rings (size 3 to 8) (size 9 to 14) (size 15 to 20)
#    0.000    1.429    2.857    1.714    8.000    5.714 
#    0.857    0.000    0.000    0.000    0.000    0.000 
#    0.000    0.000    0.000    8.571    0.000    0.000 
#
# Total GULP energy -234814.296292 kJ/mol
# GULP energy per Si atom -5590.816578 kJ/mol
# Density = 1.839641 g / cm^3
# Si number density = 18.438374 Si / 1000 Ang^3
#
#
#
# Elastic Constant Matrix: (Units=GPa)
#
#
# Indices 1 2 3 4 5 6 
#
# 1 85.9960 43.1102 36.8570 0.0008 -8.8301 0.0000
# 2 43.1102 85.9960 36.8570 -0.0008 8.8301 0.0000
# 3 36.8570 36.8570 123.0907 0.0000 0.0000 0.0000
# 4 0.0008 -0.0008 0.0000 20.8730 0.0000 8.8301
# 5 -8.8301 8.8301 0.0000 0.0000 20.8730 0.0008
# 6 0.0000 0.0000 0.0000 8.8301 0.0008 21.4429
#
#
#
# Elastic Compliance Matrix: (Units=1/GPa)
#
#
# Indices 1 2 3 4 5 6 
#
# 1 0.018790 -0.009447 -0.002798 -0.000001 0.011945 0.000000
# 2 -0.009447 0.018790 -0.002798 0.000001 -0.011945 0.000000
# 3 -0.002798 -0.002798 0.009799 0.000000 0.000000 0.000000
# 4 -0.000001 0.000001 0.000000 0.058015 0.000000 -0.023891
# 5 0.011945 -0.011945 0.000000 0.000000 0.058015 -0.000002
# 6 0.000000 0.000000 0.000000 -0.023891 -0.000002 0.056474
#
#
# Mechanical properties :
#
#
# Convention : Reuss Voigt Hill
#
# Bulk Modulus (GPa) = 57.82023 58.74789 58.28406
# Shear Modulus (GPa) = 19.55168 24.52167 22.03668
#
# Velocity S-wave (km/s) = 3.25988 3.65077 3.46085
# Velocity P-wave (km/s) = 6.75247 7.04995 6.90281
#
# Compressibility (1/GPa) = 0.01729498
#
# Stress axis : x y z
#
# Youngs Moduli (GPa) = 53.22036 53.22036 102.04693
#
# Poissons Ratio (x) = 0.50277 0.28548
# Poissons Ratio (y) = 0.50277 0.28548
# Poissons Ratio (z) = 0.14888 0.14888
#
# Static dielectric constant tensor:
#      x y z
#    x 1.630810 0.000000 0.000000 
#    y 0.000000 1.630810 0.000000 
#    z 0.000000 0.000000 1.657320 
# 
# From -- ./inp_files/382.got.cif
#   From: 2010.05.17/outbox.cif.g08.bks.cpg/sg162_1_cif.got.tgz:382.got - 2010.05.20 10:53:12.
