data_PCOD9577722
_publ_section_title
;
Structure prediction by ZEFSAII (Michael W. Deem and Ramdas Pophale) SiO2 
 PCOD9577722
Probable space group: P -3 1 M 
;
_chemical_formula_sum "Si O2"
_cell_formula_units_Z 60
_cell_length_a 17.432071
_cell_length_b 17.432071
_cell_length_c 11.232906
_cell_angle_alpha 90.000000
_cell_angle_beta 90.000000
_cell_angle_gamma 120.000000
_cell_volume 2956.110939
_symmetry_space_group_name_H-M "P -3 1 M "
_symmetry_group_IT_number 162
_symmetry_cell_setting 'hexagonal'
loop_
_space_group_symop_operation_xyz
x,y,z
-y,x-y,z
-x+y,-x,z
-y,-x,-z
-x+y,y,-z
x,x-y,-z
-x,-y,-z
y,-x+y,-z
x-y,x,-z
y,x,z
x-y,-y,z
-x,-x+y,z
loop_
_atom_site_type_symbol
_atom_site_label
_atom_site_fract_x
_atom_site_fract_y
_atom_site_fract_z
Si Si1 0.851141 0.239209 0.242981
Si Si2 0.100294 0.656312 0.263180
Si Si3 0.103834 0.206048 0.638940
Si Si4 0.488532 0.331584 0.517232
Si Si5 0.514646 0.104915 0.119303
O O1 0.749310 0.172022 0.212500
O O2 0.888672 0.174296 0.277394
O O3 0.866713 0.299527 0.361725
O O4 0.880352 0.312720 0.140996
O O5 0.105444 0.676088 0.403815
O O6 0.129258 0.584352 0.227998
O O7 0.000000 0.618793 0.221853
O O8 0.118504 0.237008 0.500000
O O9 0.127926 0.127926 0.644295
O O10 0.000000 0.168206 0.667738
O O11 0.570263 0.429738 0.500000
O O12 0.521592 0.260796 0.500000
O O13 0.469271 0.000000 0.112028
O O14 0.572124 0.144247 0.000000
#
# Coordination Sequence:
#
# PCOD9577722 Si02
#       5
#    12  12  12  12  12
#     4  11  21  35  58  85 115 161 202 249 299 371
#     4  10  21  36  55  82 115 150 193 247 302 355
#     4  10  20  35  57  88 128 168 209 256 314 384
#     4  10  19  32  51  80 114 154 195 247 298 357
#     4  10  22  40  58  78 109 151 198 249 297 349
#
# _framework density 20.296938999999998
#
# number of rings (size 3 to 8) (size 9 to 14) (size 15 to 20)
#    0.000    1.800    2.000    3.400    0.000    5.200 
#    1.200    0.000    0.000    0.000    0.000    0.000 
#    0.000    0.000    0.000   15.200    0.000    5.000 
#
# Total GULP energy -334100.284631 kJ/mol
# GULP energy per Si atom -5568.338077 kJ/mol
# Density = 2.025074 g / cm^3
# Si number density = 20.296939 Si / 1000 Ang^3
#
#
#
# Elastic Constant Matrix: (Units=GPa)
#
#
# Indices 1 2 3 4 5 6 
#
# 1 102.6480 20.5312 25.7120 -0.0001 -3.7188 0.0000
# 2 20.5312 102.6480 25.7120 0.0001 3.7188 0.0000
# 3 25.7120 25.7120 59.5616 0.0000 0.0000 0.0000
# 4 -0.0001 0.0001 0.0000 17.7064 0.0000 3.7188
# 5 -3.7188 3.7188 0.0000 0.0000 17.7064 -0.0001
# 6 0.0000 0.0000 0.0000 3.7188 -0.0001 41.0584
#
#
#
# Elastic Compliance Matrix: (Units=1/GPa)
#
#
# Indices 1 2 3 4 5 6 
#
# 1 0.011158 -0.001255 -0.004275 0.000000 0.002607 0.000000
# 2 -0.001255 0.011158 -0.004275 0.000000 -0.002607 0.000000
# 3 -0.004275 -0.004275 0.020480 0.000000 0.000000 0.000000
# 4 0.000000 0.000000 0.000000 0.057572 0.000000 -0.005214
# 5 0.002607 -0.002607 0.000000 0.000000 0.057572 0.000000
# 6 0.000000 0.000000 0.000000 -0.005214 0.000000 0.024828
#
#
# Mechanical properties :
#
#
# Convention : Reuss Voigt Hill
#
# Bulk Modulus (GPa) = 43.12905 45.41865 44.27385
# Shear Modulus (GPa) = 23.79725 28.15441 25.97583
#
# Velocity S-wave (km/s) = 3.42783 3.72845 3.58130
# Velocity P-wave (km/s) = 6.07963 6.40007 6.24190
#
# Compressibility (1/GPa) = 0.02318623
#
# Stress axis : x y z
#
# Youngs Moduli (GPa) = 89.61832 89.61832 48.82758
#
# Poissons Ratio (x) = 0.11252 0.20874
# Poissons Ratio (y) = 0.11252 0.20874
# Poissons Ratio (z) = 0.38312 0.38312
#
# Static dielectric constant tensor:
#      x y z
#    x 1.770410 0.000000 0.000000 
#    y 0.000000 1.770410 0.000000 
#    z 0.000000 0.000000 1.806620 
# 
# From -- ./inp_files/2331.got.cif
#   From: 2010.05.17/outbox.cif.g08.bks.cpg/sg162_2_cif.got.tgz:2331.got - 2010.05.20 10:53:12.
