data_PCOD9577790
_publ_section_title
;
Structure prediction by ZEFSAII (Michael W. Deem and Ramdas Pophale) SiO2 
 PCOD9577790
Probable space group: P -3 1 M 
;
_chemical_formula_sum "Si O2"
_cell_formula_units_Z 52
_cell_length_a 13.600826
_cell_length_b 13.600826
_cell_length_c 17.364468
_cell_angle_alpha 90.000000
_cell_angle_beta 90.000000
_cell_angle_gamma 120.000000
_cell_volume 2781.779377
_symmetry_space_group_name_H-M "P -3 1 M "
_symmetry_group_IT_number 162
_symmetry_cell_setting 'hexagonal'
loop_
_space_group_symop_operation_xyz
x,y,z
-y,x-y,z
-x+y,-x,z
-y,-x,-z
-x+y,y,-z
x,x-y,-z
-x,-y,-z
y,-x+y,-z
x-y,x,-z
y,x,z
x-y,-y,z
-x,-x+y,z
loop_
_atom_site_type_symbol
_atom_site_label
_atom_site_fract_x
_atom_site_fract_y
_atom_site_fract_z
Si Si1 0.866545 0.734128 0.739770
Si Si2 0.784592 0.185245 0.584609
Si Si3 0.666668 0.333334 0.091559
Si Si4 0.516355 0.864704 0.192184
Si Si5 0.548896 0.125245 0.641962
O O1 0.826341 0.826341 0.750919
O O2 0.843813 0.690766 0.651320
O O3 0.776979 0.621318 0.786827
O O4 0.000000 0.786463 0.757538
O O5 0.823908 0.176093 0.500000
O O6 0.652658 0.118981 0.606224
O O7 0.806300 0.312950 0.591791
O O8 0.782411 0.438068 0.125667
O O9 0.666668 0.333334 0.000000
O O10 0.438038 0.835505 0.269391
O O11 0.572023 0.000000 0.176716
O O12 0.441453 0.000000 0.644995
#
# Coordination Sequence:
#
# PCOD9577790 Si02
#       5
#    12  12   4  12  12
#     4  10  21  37  57  78 103 142 191 240 285 333
#     4  11  21  31  46  72 104 138 179 230 289 341
#     4  12  24  36  60  96 127 152 172 204 267 336
#     4   9  20  39  59  82 112 146 188 228 264 318
#     4  10  20  34  52  70  94 135 182 224 262 310
#
# _framework density 18.693071
#
# number of rings (size 3 to 8) (size 9 to 14) (size 15 to 20)
#    0.000    1.846    0.000    6.923    0.000    7.846 
#    0.000    0.000    0.000    1.385    0.000    0.000 
#    0.000    4.615    0.000    0.000    0.000    0.000 
#
# Total GULP energy -290072.670252 kJ/mol
# GULP energy per Si atom -5578.320582 kJ/mol
# Density = 1.865052 g / cm^3
# Si number density = 18.693071 Si / 1000 Ang^3
#
#
#
# Elastic Constant Matrix: (Units=GPa)
#
#
# Indices 1 2 3 4 5 6 
#
# 1 107.1125 24.3262 41.1197 0.0019 14.8740 -0.0007
# 2 24.3262 107.1167 41.1242 -0.0020 -14.8774 0.0004
# 3 41.1197 41.1242 109.4858 0.0003 -0.0029 0.0003
# 4 0.0019 -0.0020 0.0003 -5.3389 0.0120 -14.8766
# 5 14.8740 -14.8774 -0.0029 0.0120 -5.3481 -0.0071
# 6 -0.0007 0.0004 0.0003 -14.8766 -0.0071 41.3912
#
#
#
# Elastic Compliance Matrix: (Units=1/GPa)
#
#
# Indices 1 2 3 4 5 6 
#
# 1 0.007993 0.001952 -0.003735 0.000016 0.016802 0.000009
# 2 0.001952 0.007993 -0.003736 -0.000016 -0.016803 -0.000009
# 3 -0.003735 -0.003736 0.011940 0.000001 -0.000001 0.000000
# 4 0.000016 -0.000016 0.000001 -0.093583 -0.000077 -0.033635
# 5 0.016802 -0.016803 -0.000001 -0.000077 -0.093511 -0.000043
# 6 0.000009 -0.000009 0.000000 -0.033635 -0.000043 0.012071
#
#
# Mechanical properties :
#
#
# Convention : Reuss Voigt Hill
#
# Bulk Modulus (GPa) = 59.21148 59.65058 59.43103
# Shear Modulus (GPa) = -38.33444 20.61719 -8.85862
#
# Velocity S-wave (km/s) = -4.53341 3.32465 -2.17928
# Velocity P-wave (km/s) = 2.08374 6.83502 5.05270
#
# Compressibility (1/GPa) = 0.01688862
#
# Stress axis : x y z
#
# Youngs Moduli (GPa) = 125.10580 125.11315 83.75539
#
# Poissons Ratio (x) = -0.24425 0.31282
# Poissons Ratio (y) = -0.24424 0.31290
# Poissons Ratio (z) = 0.46725 0.46740
#
# Static dielectric constant tensor:
#      x y z
#    x 1.614810 0.000000 0.000000 
#    y 0.000000 1.614810 0.000000 
#    z 0.000000 0.000000 1.632580 
# 
# From -- ./inp_files/2872.got.cif
#   From: 2010.05.17/outbox.cif.g08.bks.cpg/sg162_2_cif.got.tgz:2872.got - 2010.05.20 10:53:12.
