data_PCOD9577121
_publ_section_title
;
Structure prediction by ZEFSAII (Michael W. Deem and Ramdas Pophale) SiO2 
 PCOD9577121
Probable space group: R 3 2
;
_chemical_formula_sum "Si O2"
_cell_formula_units_Z 108
_cell_length_a 20.578026
_cell_length_b 20.578026
_cell_length_c 12.736971
_cell_angle_alpha 90.000000
_cell_angle_beta 90.000000
_cell_angle_gamma 120.000000
_cell_volume 4670.939207
_symmetry_space_group_name_H-M "R 3 2"
_symmetry_group_IT_number 155
_symmetry_cell_setting 'hexagonal'
loop_
_space_group_symop_operation_xyz
x,y,z
-y,x-y,z
-x+y,-x,z
x-y,-y,-z
-x,-x+y,-z
y,x,-z
2/3+x,1/3+y,1/3+z
2/3-y,1/3+x-y,1/3+z
2/3-x+y,1/3-x,1/3+z
2/3+x-y,1/3-y,1/3-z
2/3-x,1/3-x+y,1/3-z
2/3+y,1/3+x,1/3-z
1/3+x,2/3+y,2/3+z
1/3-y,2/3+x-y,2/3+z
1/3-x+y,2/3-x,2/3+z
1/3+x-y,2/3-y,2/3-z
1/3-x,2/3-x+y,2/3-z
1/3+y,2/3+x,2/3-z
loop_
_atom_site_type_symbol
_atom_site_label
_atom_site_fract_x
_atom_site_fract_y
_atom_site_fract_z
Si Si1 0.170938 0.542606 0.323714
Si Si2 0.226234 0.416072 0.602864
Si Si3 0.301753 0.389039 0.015971
Si Si4 0.086862 0.885201 0.438573
Si Si5 0.591929 0.568348 0.787595
Si Si6 0.711769 0.187541 0.168846
O O1 0.230843 0.515964 0.307435
O O2 0.172384 0.590447 0.219866
O O3 0.085719 0.471648 0.306350
O O4 0.181205 0.587020 0.429882
O O5 0.229504 0.338167 0.594189
O O6 0.141415 0.390355 0.574956
O O7 0.246785 0.444956 0.721366
O O8 0.290366 0.478631 0.530352
O O9 0.278165 0.408830 0.906623
O O10 0.345513 0.345513 0.000000
O O11 0.361420 0.468990 0.067001
O O12 0.169522 0.895211 0.456756
O O13 0.666667 0.636859 0.833334
#
# Coordination Sequence:
#
# PCOD9577121 Si02
#       6
#    18  18  18  18  18  18
#     4   8  17  35  55  70 111 176 233 268 312 377
#     4  11  22  33  48  89 142 175 213 256 345 439
#     4  12  21  29  51  89 139 172 203 259 350 416
#     4   8  18  34  51  78 108 175 235 271 306 384
#     4   8  16  32  51  71 110 174 229 269 304 374
#     4  11  22  32  50  87 139 181 203 260 344 435
#
# _framework density 23.121689
#
# number of rings (size 3 to 8) (size 9 to 14) (size 15 to 20)
#    1.000    1.333    3.333    1.500    0.000    5.333 
#    0.000    0.000    0.000    4.667    8.667   14.000 
#    0.000    0.000    0.000    0.500    0.000    5.333 
#
# Total GULP energy -200856.841206 kJ/mol
# GULP energy per Si atom -5579.356700 kJ/mol
# Density = 2.306906 g / cm^3
# Si number density = 23.121689 Si / 1000 Ang^3
#
#
#
# Elastic Constant Matrix: (Units=GPa)
#
#
# Indices 1 2 3 4 5 6 
#
# 1 69.0106 36.3146 35.1158 16.3516 0.0000 0.0000
# 2 36.3146 69.0106 35.1158 -16.3516 0.0000 0.0000
# 3 35.1158 35.1158 87.9746 0.0000 0.0000 0.0000
# 4 16.3516 -16.3516 0.0000 30.6800 0.0000 0.0000
# 5 0.0000 0.0000 0.0000 0.0000 30.6800 16.3516
# 6 0.0000 0.0000 0.0000 0.0000 16.3516 16.3480
#
#
#
# Elastic Compliance Matrix: (Units=1/GPa)
#
#
# Indices 1 2 3 4 5 6 
#
# 1 0.039221 -0.026283 -0.005164 -0.034912 0.000000 0.000000
# 2 -0.026283 0.039221 -0.005164 0.034912 0.000000 0.000000
# 3 -0.005164 -0.005164 0.015490 0.000000 0.000000 0.000000
# 4 -0.034912 0.034912 0.000000 0.069809 0.000000 0.000000
# 5 0.000000 0.000000 0.000000 0.000000 0.069809 -0.069824
# 6 0.000000 0.000000 0.000000 0.000000 -0.069824 0.131009
#
#
# Mechanical properties :
#
#
# Convention : Reuss Voigt Hill
#
# Bulk Modulus (GPa) = 48.28954 48.78761 48.53857
# Shear Modulus (GPa) = 11.24387 23.50491 17.37439
#
# Velocity S-wave (km/s) = 2.20759 3.19183 2.74420
# Velocity P-wave (km/s) = 5.23720 5.89321 5.57486
#
# Compressibility (1/GPa) = 0.02070842
#
# Stress axis : x y z
#
# Youngs Moduli (GPa) = 25.49630 25.49630 64.55912
#
# Poissons Ratio (x) = 0.67013 0.33340
# Poissons Ratio (y) = 0.67013 0.33340
# Poissons Ratio (z) = 0.13167 0.13167
#
# Static dielectric constant tensor:
#      x y z
#    x 1.908810 0.000000 0.000000 
#    y 0.000000 1.908810 0.000000 
#    z 0.000000 0.000000 1.903850 
# 
# From -- ./inp_files/5138.got.cif
#   From: 2010.05.17/outbox.cif.g08.bks.cpg/sg155_3_cif.got.tgz:5138.got - 2010.05.20 10:44:35.
