data_PCOD9577942
_publ_section_title
;
Structure prediction by ZEFSAII (Michael W. Deem and Ramdas Pophale) SiO2 
 PCOD9577942
Probable space group: P -3 1 M 
;
_chemical_formula_sum "Si O2"
_cell_formula_units_Z 64
_cell_length_a 13.916579
_cell_length_b 13.916579
_cell_length_c 18.545869
_cell_angle_alpha 90.000000
_cell_angle_beta 90.000000
_cell_angle_gamma 120.000000
_cell_volume 3110.590190
_symmetry_space_group_name_H-M "P -3 1 M "
_symmetry_group_IT_number 162
_symmetry_cell_setting 'hexagonal'
loop_
_space_group_symop_operation_xyz
x,y,z
-y,x-y,z
-x+y,-x,z
-y,-x,-z
-x+y,y,-z
x,x-y,-z
-x,-y,-z
y,-x+y,-z
x-y,x,-z
y,x,z
x-y,-y,z
-x,-x+y,z
loop_
_atom_site_type_symbol
_atom_site_label
_atom_site_fract_x
_atom_site_fract_y
_atom_site_fract_z
Si Si1 0.877413 0.759164 0.365935
Si Si2 0.666668 0.333334 0.914493
Si Si3 0.132625 0.484289 0.169574
Si Si4 0.583887 0.125872 0.307949
Si Si5 0.686751 0.132265 0.449649
Si Si6 0.782003 0.122744 0.218008
O O1 0.785808 0.785808 0.393798
O O2 0.875613 0.658838 0.407156
O O3 0.861221 0.728355 0.281730
O O4 0.000000 0.862689 0.375052
O O5 0.789576 0.416090 0.883184
O O6 0.666668 0.333334 0.000000
O O7 0.173064 0.531630 0.251404
O O8 0.163170 0.387755 0.163656
O O9 0.000000 0.435205 0.163292
O O10 0.625924 0.165896 0.388233
O O11 0.679303 0.121217 0.260788
O O12 0.487923 0.000000 0.320312
O O13 0.761347 0.238654 0.500000
O O14 0.603090 0.000000 0.473347
O O15 0.732425 0.000000 0.186102
#
# Coordination Sequence:
#
# PCOD9577942 Si02
#       6
#    12   4  12  12  12  12
#     4   9  16  25  39  64 101 144 193 246 301 357
#     4  12  27  42  63  99 133 161 199 252 306 369
#     4  11  21  38  65  92 123 167 207 247 308 370
#     4   8  16  30  50  78 109 149 202 252 298 359
#     4   9  16  26  42  67 104 150 202 260 317 362
#     4   9  17  31  53  84 116 147 193 250 298 353
#
# _framework density 20.574873
#
# number of rings (size 3 to 8) (size 9 to 14) (size 15 to 20)
#    0.000    2.625    1.875    3.562    0.000    0.375 
#    0.000    0.000    0.000    7.875    0.000   17.062 
#    0.000    1.500    0.000    0.000    0.000    0.188 
#
# Total GULP energy -356452.411764 kJ/mol
# GULP energy per Si atom -5569.568934 kJ/mol
# Density = 2.052804 g / cm^3
# Si number density = 20.574873 Si / 1000 Ang^3
#
#
#
# Elastic Constant Matrix: (Units=GPa)
#
#
# Indices 1 2 3 4 5 6 
#
# 1 74.4389 51.1613 36.6722 0.0002 -9.6748 -0.0002
# 2 51.1613 74.4392 36.6727 0.0001 9.6746 0.0001
# 3 36.6722 36.6727 79.1238 -0.0003 -0.0005 0.0002
# 4 0.0002 0.0001 -0.0003 9.8145 0.0003 9.6746
# 5 -9.6748 9.6746 -0.0005 0.0003 9.8145 -0.0001
# 6 -0.0002 0.0001 0.0002 9.6746 -0.0001 11.6389
#
#
#
# Elastic Compliance Matrix: (Units=1/GPa)
#
#
# Indices 1 2 3 4 5 6 
#
# 1 0.124392 -0.113476 -0.005057 -0.000072 0.234480 0.000064
# 2 -0.113476 0.124393 -0.005062 0.000067 -0.234482 -0.000061
# 3 -0.005057 -0.005062 0.017328 0.000005 0.000006 -0.000005
# 4 -0.000072 0.000067 0.000005 0.564118 -0.000158 -0.468913
# 5 0.234480 -0.234482 0.000006 -0.000158 0.564174 0.000141
# 6 0.000064 -0.000061 -0.000005 -0.468913 0.000141 0.475694
#
#
# Mechanical properties :
#
#
# Convention : Reuss Voigt Hill
#
# Bulk Modulus (GPa) = 52.84585 53.00159 52.92372
# Shear Modulus (GPa) = 2.35450 13.15329 7.75389
#
# Velocity S-wave (km/s) = 1.07091 2.53116 1.94340
# Velocity P-wave (km/s) = 5.22202 5.86162 5.55104
#
# Compressibility (1/GPa) = 0.01892296
#
# Stress axis : x y z
#
# Youngs Moduli (GPa) = 8.03911 8.03902 57.70879
#
# Poissons Ratio (x) = 0.91224 0.29183
# Poissons Ratio (y) = 0.91225 0.29212
# Poissons Ratio (z) = 0.04065 0.04069
#
# Static dielectric constant tensor:
#      x y z
#    x 1.792790 0.000000 0.000000 
#    y 0.000000 1.792790 0.000000 
#    z 0.000000 0.000000 1.730940 
# 
# From -- ./inp_files/3469.got.cif
#   From: 2010.05.17/outbox.cif.g08.bks.cpg/sg162_2_cif.got.tgz:3469.got - 2010.05.20 10:53:12.
