data_PCOD9577915
_publ_section_title
;
Structure prediction by ZEFSAII (Michael W. Deem and Ramdas Pophale) SiO2 
 PCOD9577915
Probable space group: P -3 1 M 
;
_chemical_formula_sum "Si O2"
_cell_formula_units_Z 48
_cell_length_a 18.920124
_cell_length_b 18.920124
_cell_length_c 8.809679
_cell_angle_alpha 90.000000
_cell_angle_beta 90.000000
_cell_angle_gamma 120.000000
_cell_volume 2731.106732
_symmetry_space_group_name_H-M "P -3 1 M "
_symmetry_group_IT_number 162
_symmetry_cell_setting 'hexagonal'
loop_
_space_group_symop_operation_xyz
x,y,z
-y,x-y,z
-x+y,-x,z
-y,-x,-z
-x+y,y,-z
x,x-y,-z
-x,-y,-z
y,-x+y,-z
x-y,x,-z
y,x,z
x-y,-y,z
-x,-x+y,z
loop_
_atom_site_type_symbol
_atom_site_label
_atom_site_fract_x
_atom_site_fract_y
_atom_site_fract_z
Si Si1 0.915898 0.484520 0.329117
Si Si2 0.660868 0.758398 0.912291
Si Si3 0.543856 0.793230 0.323680
Si Si4 0.506536 0.354056 0.905346
O O1 0.917421 0.458711 0.500000
O O2 0.835899 0.489889 0.315223
O O3 0.912437 0.420122 0.209299
O O4 0.000000 0.568532 0.301754
O O5 0.723116 0.723116 0.913166
O O6 0.630970 0.771326 0.747679
O O7 0.688321 0.844161 0.000000
O O8 0.574758 0.690608 0.991622
O O9 0.549525 0.774763 0.500000
O O10 0.502548 0.716582 0.209052
O O11 0.590817 0.409184 0.000000
#
# Coordination Sequence:
#
# PCOD9577915 Si02
#       4
#    12  12  12  12
#     4  11  22  37  57  77 106 154 201 238 285 346
#     4  10  22  40  63  90 119 148 189 240 291 347
#     4  11  22  38  54  80 116 152 195 243 291 336
#     4  11  22  37  58  83 113 151 200 242 286 335
#
# _framework density 17.575292000000001
#
# number of rings (size 3 to 8) (size 9 to 14) (size 15 to 20)
#    0.000    1.250    5.000    1.500    0.000    1.000 
#    1.500    6.250    0.000    0.250    0.000    0.000 
#    0.000    1.000    0.000    0.000    0.000    0.000 
#
# Total GULP energy -267258.239794 kJ/mol
# GULP energy per Si atom -5567.879996 kJ/mol
# Density = 1.753529 g / cm^3
# Si number density = 17.575292 Si / 1000 Ang^3
#
#
#
# Elastic Constant Matrix: (Units=GPa)
#
#
# Indices 1 2 3 4 5 6 
#
# 1 107.1516 63.5697 49.8077 -0.0003 0.1415 0.0000
# 2 63.5697 107.1516 49.8077 0.0003 -0.1415 0.0000
# 3 49.8077 49.8077 130.2697 0.0000 0.0000 0.0000
# 4 -0.0003 0.0003 0.0000 69.7152 0.0000 -0.1415
# 5 0.1415 -0.1415 0.0000 0.0000 69.7152 -0.0003
# 6 0.0000 0.0000 0.0000 -0.1415 -0.0003 21.7909
#
#
#
# Elastic Compliance Matrix: (Units=1/GPa)
#
#
# Indices 1 2 3 4 5 6 
#
# 1 0.015243 -0.007703 -0.002883 0.000000 -0.000047 0.000000
# 2 -0.007703 0.015243 -0.002883 0.000000 0.000047 0.000000
# 3 -0.002883 -0.002883 0.009881 0.000000 0.000000 0.000000
# 4 0.000000 0.000000 0.000000 0.014344 0.000000 0.000093
# 5 -0.000047 0.000047 0.000000 0.000000 0.014344 0.000000
# 6 0.000000 0.000000 0.000000 0.000093 0.000000 0.045891
#
#
# Mechanical properties :
#
#
# Convention : Reuss Voigt Hill
#
# Bulk Modulus (GPa) = 74.46541 74.54924 74.50732
# Shear Modulus (GPa) = 34.16261 44.33680 39.24970
#
# Velocity S-wave (km/s) = 4.41362 5.02808 4.73084
# Velocity P-wave (km/s) = 8.27253 8.73029 8.50449
#
# Compressibility (1/GPa) = 0.01342905
#
# Stress axis : x y z
#
# Youngs Moduli (GPa) = 65.60569 65.60569 101.20710
#
# Poissons Ratio (x) = 0.50536 0.29175
# Poissons Ratio (y) = 0.50536 0.29175
# Poissons Ratio (z) = 0.18912 0.18912
#
# Static dielectric constant tensor:
#      x y z
#    x 1.623910 0.000000 0.000000 
#    y 0.000000 1.623910 0.000000 
#    z 0.000000 0.000000 1.671070 
# 
# From -- ./inp_files/1179.got.cif
#   From: 2010.05.17/outbox.cif.g08.bks.cpg/sg162_1_cif.got.tgz:1179.got - 2010.05.20 10:53:12.
