data_PCOD9577492
_publ_section_title
;
Structure prediction by ZEFSAII (Michael W. Deem and Ramdas Pophale) SiO2 
 PCOD9577492
Probable space group: R 3 M
;
_chemical_formula_sum "Si O2"
_cell_formula_units_Z 126
_cell_length_a 18.022424
_cell_length_b 18.022424
_cell_length_c 24.780370
_cell_angle_alpha 90.000000
_cell_angle_beta 90.000000
_cell_angle_gamma 120.000000
_cell_volume 6970.514323
_symmetry_space_group_name_H-M "R 3 M"
_symmetry_group_IT_number 160
_symmetry_cell_setting 'hexagonal'
loop_
_space_group_symop_operation_xyz
x,y,z
-y,x-y,z
-x+y,-x,z
-x+y,y,z
x,x-y,z
-y,-x,z
2/3+x,1/3+y,1/3+z
2/3-y,1/3+x-y,1/3+z
2/3-x+y,1/3-x,1/3+z
2/3-x+y,1/3+y,1/3+z
2/3+x,1/3+x-y,1/3+z
2/3-y,1/3-x,1/3+z
1/3+x,2/3+y,2/3+z
1/3-y,2/3+x-y,2/3+z
1/3-x+y,2/3-x,2/3+z
1/3-x+y,2/3+y,2/3+z
1/3+x,2/3+x-y,2/3+z
1/3-y,2/3-x,2/3+z
loop_
_atom_site_type_symbol
_atom_site_label
_atom_site_fract_x
_atom_site_fract_y
_atom_site_fract_z
Si Si1 0.843495 0.510326 0.930914
Si Si2 0.999562 0.829277 0.023600
Si Si3 0.767750 0.067159 0.384263
Si Si4 0.593564 0.574446 0.839677
Si Si5 0.354970 0.262299 0.142185
Si Si6 0.999151 0.833907 0.897154
Si Si7 0.103431 0.720815 0.372652
O O1 0.756964 0.513928 0.925790
O O2 0.825825 0.412913 0.925868
O O3 0.912819 0.564540 0.884753
O O4 0.887318 0.544461 0.989167
O O5 0.906469 0.812938 0.040105
O O6 0.039376 0.775924 0.050212
O O7 0.070945 0.929056 0.030678
O O8 0.995287 0.808991 0.959673
O O9 0.858902 0.141099 0.361470
O O10 0.781618 0.052816 0.446853
O O11 0.712144 0.974681 0.357590
O O12 0.495803 0.504197 0.852133
O O13 0.612279 0.670090 0.831315
O O14 0.332456 0.166228 0.129636
O O15 0.422043 0.296230 0.191217
O O16 0.401995 0.324409 0.091024
O O17 0.064236 0.935765 0.895397
O O18 0.905868 0.811735 0.879125
O O19 0.190591 0.809410 0.384457
#
# Coordination Sequence:
#
# PCOD9577492 Si02
#       7
#    18  18  18  18  18  18  18
#     4  10  21  37  58  83 111 144 183 226 273 326
#     4   9  17  29  48  75 109 145 182 222 267 319
#     4   9  19  35  53  74 103 140 181 228 275 318
#     4   9  20  37  53  72 102 140 181 228 277 317
#     4  10  20  34  54  81 111 143 181 223 270 329
#     4   9  17  28  44  71 108 147 182 215 259 317
#     4  10  21  36  55  82 114 147 182 222 272 330
#
# _framework density 18.076142000000001
#
# number of rings (size 3 to 8) (size 9 to 14) (size 15 to 20)
#    0.000    2.571    0.000    1.286    2.000    6.857 
#    0.000    0.000    0.000    5.143    0.000    0.000 
#    0.000    0.000    0.000    0.000    0.000    0.000 
#
# Total GULP energy -234001.115814 kJ/mol
# GULP energy per Si atom -5571.455138 kJ/mol
# Density = 1.803500 g / cm^3
# Si number density = 18.076142 Si / 1000 Ang^3
#
#
#
# Elastic Constant Matrix: (Units=GPa)
#
#
# Indices 1 2 3 4 5 6 
#
# 1 91.0043 64.9341 39.9703 6.3298 -0.0001 0.0000
# 2 64.9341 91.0043 39.9703 -6.3298 0.0001 0.0000
# 3 39.9703 39.9703 60.4023 0.0000 0.0000 0.0000
# 4 6.3298 -6.3298 0.0000 22.6466 0.0000 0.0001
# 5 -0.0001 0.0001 0.0000 0.0000 22.6466 6.3298
# 6 0.0000 0.0000 0.0000 0.0001 6.3298 13.0351
#
#
#
# Elastic Compliance Matrix: (Units=1/GPa)
#
#
# Indices 1 2 3 4 5 6 
#
# 1 0.027043 -0.017338 -0.006422 -0.012405 0.000000 0.000000
# 2 -0.017338 0.027043 -0.006422 0.012405 0.000000 0.000000
# 3 -0.006422 -0.006422 0.025055 0.000000 0.000000 0.000000
# 4 -0.012405 0.012405 0.000000 0.051091 0.000000 -0.000001
# 5 0.000000 0.000000 0.000000 0.000000 0.051091 -0.024810
# 6 0.000000 0.000000 0.000000 -0.000001 -0.024810 0.088764
#
#
# Mechanical properties :
#
#
# Convention : Reuss Voigt Hill
#
# Bulk Modulus (GPa) = 53.25766 59.12891 56.19329
# Shear Modulus (GPa) = 14.84946 18.16808 16.50877
#
# Velocity S-wave (km/s) = 2.86928 3.17375 3.02535
# Velocity P-wave (km/s) = 6.36427 6.79796 6.58469
#
# Compressibility (1/GPa) = 0.01877664
#
# Stress axis : x y z
#
# Youngs Moduli (GPa) = 36.97755 36.97755 39.91186
#
# Poissons Ratio (x) = 0.64113 0.25632
# Poissons Ratio (y) = 0.64113 0.25632
# Poissons Ratio (z) = 0.23748 0.23748
#
# Static dielectric constant tensor:
#      x y z
#    x 1.634860 0.000000 0.000000 
#    y 0.000000 1.634860 0.000000 
#    z 0.000000 0.000000 1.630040 
# 
# From -- ./inp_files/3788.got.cif
#   From: 2010.05.17/outbox.cif.g08.bks.cpg/sg160_2_cif.got.tgz:3788.got - 2010.05.20 10:51:19.
