data_PCOD9577868
_publ_section_title
;
Structure prediction by ZEFSAII (Michael W. Deem and Ramdas Pophale) SiO2 
 PCOD9577868
Probable space group: P -3 1 M 
;
_chemical_formula_sum "Si O2"
_cell_formula_units_Z 42
_cell_length_a 21.027514
_cell_length_b 21.027514
_cell_length_c 5.154547
_cell_angle_alpha 90.000000
_cell_angle_beta 90.000000
_cell_angle_gamma 120.000000
_cell_volume 1973.772061
_symmetry_space_group_name_H-M "P -3 1 M "
_symmetry_group_IT_number 162
_symmetry_cell_setting 'hexagonal'
loop_
_space_group_symop_operation_xyz
x,y,z
-y,x-y,z
-x+y,-x,z
-y,-x,-z
-x+y,y,-z
x,x-y,-z
-x,-y,-z
y,-x+y,-z
x-y,x,-z
y,x,z
x-y,-y,z
-x,-x+y,z
loop_
_atom_site_type_symbol
_atom_site_label
_atom_site_fract_x
_atom_site_fract_y
_atom_site_fract_z
Si Si1 0.714284 0.915931 0.324324
Si Si2 0.087926 0.401632 0.065457
Si Si3 0.089697 0.473537 0.569635
Si Si4 0.841280 0.920640 0.000000
O O1 0.685566 0.842783 0.500000
O O2 0.660136 0.901802 0.081250
O O3 0.739310 0.000000 0.431690
O O4 0.788301 0.923727 0.211453
O O5 0.115484 0.465946 0.853248
O O6 0.000000 0.364448 0.081397
O O7 0.113752 0.434181 0.351757
O O8 0.111966 0.555983 0.500000
O O9 0.000000 0.428261 0.576474
O O10 0.890660 0.890660 0.118954
#
# Coordination Sequence:
#
# PCOD9577868 Si02
#       4
#    12  12  12   6
#     4  10  21  34  50  70  97 135 184 244 312 381
#     4   9  18  29  46  70  98 131 170 212 261 330
#     4   9  16  28  46  70  99 130 163 198 240 305
#     4  10  21  36  54  72  94 130 190 266 340 398
#
# _framework density 21.279050999999999
#
# number of rings (size 3 to 8) (size 9 to 14) (size 15 to 20)
#    0.000    2.571    0.000    1.857    4.000    3.429 
#    0.000    0.000    0.000    4.571    0.000    0.000 
#    0.000    0.000    0.000    0.857   12.000    0.857 
#
# Total GULP energy -234047.688108 kJ/mol
# GULP energy per Si atom -5572.564003 kJ/mol
# Density = 2.123062 g / cm^3
# Si number density = 21.279051 Si / 1000 Ang^3
#
#
#
# Elastic Constant Matrix: (Units=GPa)
#
#
# Indices 1 2 3 4 5 6 
#
# 1 51.1139 28.2219 0.7032 -0.0001 -6.6665 0.0000
# 2 28.2219 51.1139 0.7032 0.0001 6.6665 0.0000
# 3 0.7032 0.7032 67.5825 0.0000 0.0000 0.0000
# 4 -0.0001 0.0001 0.0000 29.4383 0.0000 6.6665
# 5 -6.6665 6.6665 0.0000 0.0000 29.4383 -0.0001
# 6 0.0000 0.0000 0.0000 6.6665 -0.0001 11.4460
#
#
#
# Elastic Compliance Matrix: (Units=1/GPa)
#
#
# Indices 1 2 3 4 5 6 
#
# 1 0.031464 -0.018857 -0.000131 0.000000 0.011395 0.000000
# 2 -0.018857 0.031464 -0.000131 0.000000 -0.011395 0.000000
# 3 -0.000131 -0.000131 0.014799 0.000000 0.000000 0.000000
# 4 0.000000 0.000000 0.000000 0.039130 0.000000 -0.022791
# 5 0.011395 -0.011395 0.000000 0.000000 0.039130 0.000000
# 6 0.000000 0.000000 0.000000 -0.022791 0.000000 0.100641
#
#
# Mechanical properties :
#
#
# Convention : Reuss Voigt Hill
#
# Bulk Modulus (GPa) = 25.32369 25.45187 25.38778
# Shear Modulus (GPa) = 16.23222 23.40999 19.82111
#
# Velocity S-wave (km/s) = 2.76493 3.32044 3.05533
# Velocity P-wave (km/s) = 4.70316 5.16598 4.93999
#
# Compressibility (1/GPa) = 0.03948871
#
# Stress axis : x y z
#
# Youngs Moduli (GPa) = 31.78271 31.78271 67.57002
#
# Poissons Ratio (x) = 0.59932 0.00886
# Poissons Ratio (y) = 0.59932 0.00886
# Poissons Ratio (z) = 0.00417 0.00417
#
# Static dielectric constant tensor:
#      x y z
#    x 1.807640 0.000000 0.000000 
#    y 0.000000 1.807640 0.000000 
#    z 0.000000 0.000000 1.825490 
# 
# From -- ./inp_files/347.got.cif
#   From: 2010.05.17/outbox.cif.g08.bks.cpg/sg162_1_cif.got.tgz:347.got - 2010.05.20 10:53:12.
