data_PCOD9577633
_publ_section_title
;
Structure prediction by ZEFSAII (Michael W. Deem and Ramdas Pophale) SiO2 
 PCOD9577633
Probable space group: P -3 1 M 
;
_chemical_formula_sum "Si O2"
_cell_formula_units_Z 60
_cell_length_a 25.518116
_cell_length_b 25.518116
_cell_length_c 5.314342
_cell_angle_alpha 90.000000
_cell_angle_beta 90.000000
_cell_angle_gamma 120.000000
_cell_volume 2996.935153
_symmetry_space_group_name_H-M "P -3 1 M "
_symmetry_group_IT_number 162
_symmetry_cell_setting 'hexagonal'
loop_
_space_group_symop_operation_xyz
x,y,z
-y,x-y,z
-x+y,-x,z
-y,-x,-z
-x+y,y,-z
x,x-y,-z
-x,-y,-z
y,-x+y,-z
x-y,x,-z
y,x,z
x-y,-y,z
-x,-x+y,z
loop_
_atom_site_type_symbol
_atom_site_label
_atom_site_fract_x
_atom_site_fract_y
_atom_site_fract_z
Si Si1 0.315926 0.069778 0.421103
Si Si2 0.931850 0.752227 0.089032
Si Si3 0.423305 0.612876 0.247707
Si Si4 0.932570 0.411332 0.760527
Si Si5 0.336932 0.892424 0.262017
O O1 0.282433 0.067145 0.162122
O O2 0.385786 0.109760 0.346392
O O3 0.298336 0.000000 0.476493
O O4 0.291815 0.089293 0.665603
O O5 0.000000 0.803400 0.149163
O O6 0.888356 0.776712 0.000000
O O7 0.389803 0.610198 0.500000
O O8 0.423000 0.547457 0.239152
O O9 0.492994 0.664161 0.251400
O O10 0.388653 0.611348 0.000000
O O11 0.928357 0.381528 0.491626
O O12 0.000000 0.468130 0.781754
O O13 0.922467 0.365547 0.991864
#
# Coordination Sequence:
#
# PCOD9577633 Si02
#       5
#    12  12  12  12  12
#     4  10  19  30  47  70  92 115 142 173 213 259
#     4  10  21  37  55  74  94 114 136 165 212 277
#     4   8  16  24  31  45  69 106 149 187 221 248
#     4  10  17  23  32  47  72 110 151 187 221 247
#     4  10  18  26  36  53  79 108 142 183 218 247
#
# _framework density 20.020454999999998
#
# number of rings (size 3 to 8) (size 9 to 14) (size 15 to 20)
#    0.000    2.400    0.000    3.600    0.000    9.600 
#    0.000    0.000    0.000    0.200    0.000    0.000 
#    0.000    4.800    0.000    0.000    0.000    0.800 
#
# Total GULP energy -334192.886583 kJ/mol
# GULP energy per Si atom -5569.881443 kJ/mol
# Density = 1.997489 g / cm^3
# Si number density = 20.020455 Si / 1000 Ang^3
#
#
#
# Elastic Constant Matrix: (Units=GPa)
#
#
# Indices 1 2 3 4 5 6 
#
# 1 31.5345 24.5302 15.4928 0.0002 -1.2565 0.0000
# 2 24.5302 31.5345 15.4928 -0.0002 1.2565 0.0000
# 3 15.4928 15.4928 180.1621 0.0000 0.0000 0.0000
# 4 0.0002 -0.0002 0.0000 12.0132 0.0000 1.2565
# 5 -1.2565 1.2565 0.0000 0.0000 12.0132 0.0002
# 6 0.0000 0.0000 0.0000 1.2565 0.0002 3.5021
#
#
#
# Elastic Compliance Matrix: (Units=1/GPa)
#
#
# Indices 1 2 3 4 5 6 
#
# 1 0.083532 -0.064805 -0.001610 -0.000003 0.015516 0.000000
# 2 -0.064805 0.083532 -0.001610 0.000003 -0.015516 0.000000
# 3 -0.001610 -0.001610 0.005828 0.000000 0.000000 0.000000
# 4 -0.000003 0.000003 0.000000 0.086488 0.000000 -0.031031
# 5 0.015516 -0.015516 0.000000 0.000000 0.086488 -0.000006
# 6 0.000000 0.000000 0.000000 -0.031031 -0.000006 0.296675
#
#
# Mechanical properties :
#
#
# Convention : Reuss Voigt Hill
#
# Bulk Modulus (GPa) = 27.14504 39.36254 33.25379
# Shear Modulus (GPa) = 6.32212 18.02004 12.17108
#
# Velocity S-wave (km/s) = 1.77896 3.00339 2.46830
# Velocity P-wave (km/s) = 4.21991 5.63303 4.97688
#
# Compressibility (1/GPa) = 0.03683914
#
# Stress axis : x y z
#
# Youngs Moduli (GPa) = 11.97146 11.97146 171.59951
#
# Poissons Ratio (x) = 0.77582 0.27634
# Poissons Ratio (y) = 0.77582 0.27634
# Poissons Ratio (z) = 0.01928 0.01928
#
# Static dielectric constant tensor:
#      x y z
#    x 1.775020 0.000000 0.000000 
#    y 0.000000 1.775020 0.000000 
#    z 0.000000 0.000000 1.778360 
# 
# From -- ./inp_files/672.got.cif
#   From: 2010.05.17/outbox.cif.g08.bks.cpg/sg162_1_cif.got.tgz:672.got - 2010.05.20 10:53:12.
