data_PCOD9577179
_publ_section_title
;
Structure prediction by ZEFSAII (Michael W. Deem and Ramdas Pophale) SiO2 
 PCOD9577179
Probable space group: R 3 2
;
_chemical_formula_sum "Si O2"
_cell_formula_units_Z 33
_cell_length_a 13.043355
_cell_length_b 13.043355
_cell_length_c 8.330860
_cell_angle_alpha 90.000000
_cell_angle_beta 90.000000
_cell_angle_gamma 120.000000
_cell_volume 1227.436679
_symmetry_space_group_name_H-M "R 3 2"
_symmetry_group_IT_number 155
_symmetry_cell_setting 'hexagonal'
loop_
_space_group_symop_operation_xyz
x,y,z
-y,x-y,z
-x+y,-x,z
x-y,-y,-z
-x,-x+y,-z
y,x,-z
2/3+x,1/3+y,1/3+z
2/3-y,1/3+x-y,1/3+z
2/3-x+y,1/3-x,1/3+z
2/3+x-y,1/3-y,1/3-z
2/3-x,1/3-x+y,1/3-z
2/3+y,1/3+x,1/3-z
1/3+x,2/3+y,2/3+z
1/3-y,2/3+x-y,2/3+z
1/3-x+y,2/3-x,2/3+z
1/3+x-y,2/3-y,2/3-z
1/3-x,2/3-x+y,2/3-z
1/3+y,2/3+x,2/3-z
loop_
_atom_site_type_symbol
_atom_site_label
_atom_site_fract_x
_atom_site_fract_y
_atom_site_fract_z
Si Si1 0.612260 0.527142 0.136161
Si Si2 0.000000 0.739083 0.000000
Si Si3 0.333335 0.666668 0.471392
O O1 0.692741 0.666667 0.166667
O O2 0.530566 0.447582 0.282602
O O3 0.677000 0.455650 0.079982
O O4 0.524182 0.524182 0.000000
O O5 0.969625 0.666667 0.166667
O O6 0.333334 0.666668 0.666667
#
# Coordination Sequence:
#
# PCOD9577179 Si02
#       3
#    18   9   6
#     4  12  30  52  90 135 193 244 315 396 475 560
#     4  12  28  56  94 142 184 254 322 388 478 576
#     4  12  27  54  88 137 184 247 323 382 475 581
#
# _framework density 26.885299
#
# number of rings (size 3 to 8) (size 9 to 14) (size 15 to 20)
#    0.000    0.000    5.455    1.636    7.636    0.000 
#    0.000    0.000    0.000    0.000    0.000    0.000 
#    0.000    0.000    0.000    0.000    0.000    0.000 
#
# Total GULP energy -61604.914964 kJ/mol
# GULP energy per Si atom -5600.446815 kJ/mol
# Density = 2.682411 g / cm^3
# Si number density = 26.885299 Si / 1000 Ang^3
#
#
#
# Elastic Constant Matrix: (Units=GPa)
#
#
# Indices 1 2 3 4 5 6 
#
# 1 225.7559 111.5974 74.6848 -11.1279 0.0000 0.0001
# 2 111.5974 225.7555 74.6864 11.1268 -0.0001 0.0001
# 3 74.6848 74.6864 119.8991 0.0001 -0.0001 0.0003
# 4 -11.1279 11.1268 0.0001 55.2447 -0.0001 0.0000
# 5 0.0000 -0.0001 -0.0001 -0.0001 55.2438 -11.1269
# 6 0.0001 0.0001 0.0003 0.0000 -11.1269 57.0785
#
#
#
# Elastic Compliance Matrix: (Units=1/GPa)
#
#
# Indices 1 2 3 4 5 6 
#
# 1 0.006605 -0.002512 -0.002550 0.001837 0.000000 0.000000
# 2 -0.002512 0.006606 -0.002550 -0.001836 0.000000 0.000000
# 3 -0.002550 -0.002550 0.011517 0.000000 0.000000 0.000000
# 4 0.001837 -0.001836 0.000000 0.018841 0.000000 0.000000
# 5 0.000000 0.000000 0.000000 0.000000 0.018841 0.003673
# 6 0.000000 0.000000 0.000000 0.000000 0.003673 0.018236
#
#
# Mechanical properties :
#
#
# Convention : Reuss Voigt Hill
#
# Bulk Modulus (GPa) = 105.21380 121.48308 113.34844
# Shear Modulus (GPa) = 50.48605 54.20953 52.34779
#
# Velocity S-wave (km/s) = 4.33810 4.49522 4.41736
# Velocity P-wave (km/s) = 8.01944 8.49862 8.26250
#
# Compressibility (1/GPa) = 0.00950446
#
# Stress axis : x y z
#
# Youngs Moduli (GPa) = 151.39034 151.38867 86.83028
#
# Poissons Ratio (x) = 0.38033 0.22138
# Poissons Ratio (y) = 0.38034 0.22139
# Poissons Ratio (z) = 0.38598 0.38600
#
# Static dielectric constant tensor:
#      x y z
#    x 2.145240 0.000000 0.000000 
#    y 0.000000 2.145240 0.000010 
#    z 0.000000 0.000010 2.294000 
# 
# From -- ./inp_files/1374.got.cif
#   From: 2010.05.17/outbox.cif.g08.bks.cpg/sg155_1_cif.got.tgz:1374.got - 2010.05.20 10:44:35.
