data_PCOD9577239
_publ_section_title
;
Structure prediction by ZEFSAII (Michael W. Deem and Ramdas Pophale) SiO2 
 PCOD9577239
Probable space group: P 3 M 1
;
_chemical_formula_sum "Si O2"
_cell_formula_units_Z 42
_cell_length_a 12.769003
_cell_length_b 12.769003
_cell_length_c 18.259916
_cell_angle_alpha 90.000000
_cell_angle_beta 90.000000
_cell_angle_gamma 120.000000
_cell_volume 2578.358991
_symmetry_space_group_name_H-M "P 3 M 1"
_symmetry_group_IT_number 156
_symmetry_cell_setting 'hexagonal'
loop_
_space_group_symop_operation_xyz
x,y,z
-y,x-y,z
-x+y,-x,z
-x+y,y,z
x,x-y,z
-y,-x,z
loop_
_atom_site_type_symbol
_atom_site_label
_atom_site_fract_x
_atom_site_fract_y
_atom_site_fract_z
Si Si1 0.915116 0.332972 0.941840
Si Si2 0.333433 0.419479 0.638412
Si Si3 0.333362 0.914607 0.806766
Si Si4 0.581268 0.666046 0.081073
Si Si5 0.248822 0.000472 0.363254
Si Si6 0.915357 0.333030 0.502450
Si Si7 0.417636 0.333400 0.222185
O O1 0.888205 0.444103 0.943128
O O2 0.793030 0.206971 0.949675
O O3 0.983278 0.342594 0.865905
O O4 0.006645 0.357202 0.008528
O O5 0.205749 0.411498 0.625004
O O6 0.441622 0.558379 0.632348
O O7 0.335126 0.381738 0.722528
O O8 0.361293 0.345754 0.578460
O O9 0.443133 0.886265 0.814493
O O10 0.206686 0.793315 0.820051
O O11 0.590096 0.795048 0.083784
O O12 0.441612 0.558389 0.079660
O O13 0.641615 0.641874 0.151643
O O14 0.128213 0.871788 0.360039
O O15 0.218170 0.109085 0.364328
O O16 0.326184 0.015841 0.436053
O O17 0.333815 0.024355 0.292930
O O18 0.912725 0.456363 0.490877
O O19 0.780683 0.219318 0.504423
O O20 0.429791 0.214896 0.211024
O O21 0.548941 0.451060 0.233174
#
# Coordination Sequence:
#
# PCOD9577239 Si02
#       7
#     6   6   6   6   6   6   6
#     4  10  20  33  50  72  99 131 165 202 244 291
#     4   9  17  30  49  73  99 127 160 200 246 293
#     4   9  17  30  50  74  98 125 159 201 247 293
#     4  10  20  34  53  76 101 129 162 203 249 293
#     4  10  20  34  52  73  98 129 165 204 244 287
#     4  10  20  33  50  72  99 131 165 202 244 291
#     4  10  20  34  54  78 104 134 166 200 238 284
#
# _framework density 16.289432000000001
#
# number of rings (size 3 to 8) (size 9 to 14) (size 15 to 20)
#    0.000    2.286    0.000    3.143    0.000    1.714 
#    0.000    4.286    0.000   12.000    0.000    0.000 
#    0.000    0.000    0.000    0.000    0.000    0.000 
#
# Total GULP energy -234336.000872 kJ/mol
# GULP energy per Si atom -5579.428592 kJ/mol
# Density = 1.625236 g / cm^3
# Si number density = 16.289432 Si / 1000 Ang^3
#
#
#
# Elastic Constant Matrix: (Units=GPa)
#
#
# Indices 1 2 3 4 5 6 
#
# 1 121.4936 84.7493 80.5543 0.3252 -0.0003 0.0000
# 2 84.7493 121.4936 80.5543 -0.3252 0.0003 0.0000
# 3 80.5543 80.5543 123.3777 0.0000 0.0000 0.0000
# 4 0.3252 -0.3252 0.0000 22.3289 0.0000 0.0003
# 5 -0.0003 0.0003 0.0000 0.0000 22.3289 0.3252
# 6 0.0000 0.0000 0.0000 0.0003 0.3252 18.3721
#
#
#
# Elastic Compliance Matrix: (Units=1/GPa)
#
#
# Indices 1 2 3 4 5 6 
#
# 1 0.018559 -0.008663 -0.006461 -0.000396 0.000000 0.000000
# 2 -0.008663 0.018559 -0.006461 0.000396 0.000000 0.000000
# 3 -0.006461 -0.006461 0.016542 0.000000 0.000000 0.000000
# 4 -0.000396 0.000396 0.000000 0.044796 0.000000 -0.000001
# 5 0.000000 0.000000 0.000000 0.000000 0.044796 -0.000793
# 6 0.000000 0.000000 0.000000 -0.000001 -0.000793 0.054444
#
#
# Mechanical properties :
#
#
# Convention : Reuss Voigt Hill
#
# Bulk Modulus (GPa) = 95.33324 95.34231 95.33778
# Shear Modulus (GPa) = 20.46126 20.63979 20.55052
#
# Velocity S-wave (km/s) = 3.54800 3.56345 3.55573
# Velocity P-wave (km/s) = 8.68540 8.69414 8.68977
#
# Compressibility (1/GPa) = 0.01048952
#
# Stress axis : x y z
#
# Youngs Moduli (GPa) = 53.88235 53.88235 60.45192
#
# Poissons Ratio (x) = 0.46680 0.39058
# Poissons Ratio (y) = 0.46680 0.39058
# Poissons Ratio (z) = 0.34813 0.34813
#
# Static dielectric constant tensor:
#      x y z
#    x 1.513630 0.000000 0.000000 
#    y 0.000000 1.513630 0.000000 
#    z 0.000000 0.000000 1.545300 
# 
# From -- ./inp_files/942.got.cif
#   From: 2010.05.17/outbox.cif.g08.bks.cpg/sg156_cif.got.tgz:942.got - 2010.05.20 10:49:08.
