data_PCOD9577225
_publ_section_title
;
Structure prediction by ZEFSAII (Michael W. Deem and Ramdas Pophale) SiO2 
 PCOD9577225
Probable space group: P 3 M 1
;
_chemical_formula_sum "Si O2"
_cell_formula_units_Z 36
_cell_length_a 12.815892
_cell_length_b 12.815892
_cell_length_c 15.617419
_cell_angle_alpha 90.000000
_cell_angle_beta 90.000000
_cell_angle_gamma 120.000000
_cell_volume 2221.455264
_symmetry_space_group_name_H-M "P 3 M 1"
_symmetry_group_IT_number 156
_symmetry_cell_setting 'hexagonal'
loop_
_space_group_symop_operation_xyz
x,y,z
-y,x-y,z
-x+y,-x,z
-x+y,y,z
x,x-y,z
-y,-x,z
loop_
_atom_site_type_symbol
_atom_site_label
_atom_site_fract_x
_atom_site_fract_y
_atom_site_fract_z
Si Si1 0.246540 0.999719 0.981230
Si Si2 0.754122 0.000172 0.784854
Si Si3 0.914775 0.581384 0.463987
Si Si4 0.247930 0.000570 0.300489
Si Si5 0.085917 0.666203 0.626955
Si Si6 0.666569 0.085633 0.138649
O O1 0.126861 0.873140 0.998646
O O2 0.216644 0.108322 0.987775
O O3 0.285155 0.999880 0.882954
O O4 0.349337 0.028599 0.050171
O O5 0.872594 0.127406 0.767680
O O6 0.785818 0.892909 0.779893
O O7 0.652701 0.970618 0.714631
O O8 0.782650 0.565299 0.474036
O O9 0.906055 0.453028 0.448953
O O10 0.977098 0.669758 0.383828
O O11 0.994075 0.638803 0.548846
O O12 0.216751 0.108376 0.298719
O O13 0.328021 0.018303 0.216695
O O14 0.127683 0.872318 0.302067
O O15 0.108464 0.554232 0.633181
O O16 0.210280 0.789721 0.611733
O O17 0.540082 0.080164 0.146427
O O18 0.776408 0.223593 0.141260
#
# Coordination Sequence:
#
# PCOD9577225 Si02
#       6
#     6   6   6   6   6   6
#     4   9  17  30  50  74  98 124 156 198 246 293
#     4   9  17  30  49  73  98 124 157 199 247 293
#     4  10  20  34  53  75  99 127 159 197 239 285
#     4  10  20  34  53  76 100 125 155 194 239 285
#     4  10  20  33  49  69  96 131 168 203 238 281
#     4  10  20  33  50  71  97 129 163 199 237 281
#
# _framework density 16.205593
#
# number of rings (size 3 to 8) (size 9 to 14) (size 15 to 20)
#    0.000    2.333    0.000    3.000    0.000    2.000 
#    0.000    3.333    0.000   12.667    0.000    0.000 
#    0.000    0.000    0.000    0.000    0.000    0.000 
#
# Total GULP energy -200839.848886 kJ/mol
# GULP energy per Si atom -5578.884691 kJ/mol
# Density = 1.616871 g / cm^3
# Si number density = 16.205593 Si / 1000 Ang^3
#
#
#
# Elastic Constant Matrix: (Units=GPa)
#
#
# Indices 1 2 3 4 5 6 
#
# 1 121.9258 84.2369 83.1772 -2.2682 0.0001 0.0000
# 2 84.2369 121.9258 83.1772 2.2682 -0.0001 0.0000
# 3 83.1772 83.1772 124.7308 0.0000 0.0000 0.0000
# 4 -2.2682 2.2682 0.0000 22.3890 0.0000 -0.0001
# 5 0.0001 -0.0001 0.0000 0.0000 22.3890 -2.2682
# 6 0.0000 0.0000 0.0000 -0.0001 -2.2682 18.8445
#
#
#
# Elastic Compliance Matrix: (Units=1/GPa)
#
#
# Indices 1 2 3 4 5 6 
#
# 1 0.018681 -0.008180 -0.007003 0.002721 0.000000 0.000000
# 2 -0.008180 0.018681 -0.007003 -0.002721 0.000000 0.000000
# 3 -0.007003 -0.007003 0.017357 0.000000 0.000000 0.000000
# 4 0.002721 -0.002721 0.000000 0.045216 0.000000 0.000000
# 5 0.000000 0.000000 0.000000 0.000000 0.045216 0.005442
# 6 0.000000 0.000000 0.000000 0.000000 0.005442 0.053721
#
#
# Mechanical properties :
#
#
# Convention : Reuss Voigt Hill
#
# Bulk Modulus (GPa) = 96.63504 96.64055 96.63780
# Shear Modulus (GPa) = 20.26826 20.59058 20.42942
#
# Velocity S-wave (km/s) = 3.54035 3.56839 3.55440
# Velocity P-wave (km/s) = 8.74484 8.76022 8.75253
#
# Compressibility (1/GPa) = 0.01034821
#
# Stress axis : x y z
#
# Youngs Moduli (GPa) = 53.53095 53.53095 57.61449
#
# Poissons Ratio (x) = 0.43787 0.40345
# Poissons Ratio (y) = 0.43787 0.40345
# Poissons Ratio (z) = 0.37486 0.37486
#
# Static dielectric constant tensor:
#      x y z
#    x 1.512010 0.000000 0.000000 
#    y 0.000000 1.512010 0.000000 
#    z 0.000000 0.000000 1.541220 
# 
# From -- ./inp_files/783.got.cif
#   From: 2010.05.17/outbox.cif.g08.bks.cpg/sg156_cif.got.tgz:783.got - 2010.05.20 10:49:08.
