data_PCOD9577842
_publ_section_title
;
Structure prediction by ZEFSAII (Michael W. Deem and Ramdas Pophale) SiO2 
 PCOD9577842
Probable space group: P -3 1 M 
;
_chemical_formula_sum "Si O2"
_cell_formula_units_Z 84
_cell_length_a 20.074636
_cell_length_b 20.074636
_cell_length_c 12.038932
_cell_angle_alpha 90.000000
_cell_angle_beta 90.000000
_cell_angle_gamma 120.000000
_cell_volume 4201.592717
_symmetry_space_group_name_H-M "P -3 1 M "
_symmetry_group_IT_number 162
_symmetry_cell_setting 'hexagonal'
loop_
_space_group_symop_operation_xyz
x,y,z
-y,x-y,z
-x+y,-x,z
-y,-x,-z
-x+y,y,-z
x,x-y,-z
-x,-y,-z
y,-x+y,-z
x-y,x,-z
y,x,z
x-y,-y,z
-x,-x+y,z
loop_
_atom_site_type_symbol
_atom_site_label
_atom_site_fract_x
_atom_site_fract_y
_atom_site_fract_z
Si Si1 0.311742 0.398350 0.422005
Si Si2 0.542184 0.203839 0.934141
Si Si3 0.634304 0.914910 0.044608
Si Si4 0.088503 0.746884 0.784874
Si Si5 0.085837 0.812730 0.259853
Si Si6 0.360843 0.812941 0.683293
Si Si7 0.699283 0.513415 0.368176
O O1 0.364353 0.364353 0.460784
O O2 0.239573 0.331655 0.356760
O O3 0.356841 0.466567 0.333146
O O4 0.291414 0.433612 0.526773
O O5 0.451208 0.150990 0.931930
O O6 0.570644 0.214937 0.808820
O O7 0.582100 0.164200 0.000000
O O8 0.561850 0.280925 0.000000
O O9 0.688828 0.913707 0.140899
O O10 0.645308 0.000000 0.049879
O O11 0.655351 0.905152 0.918899
O O12 0.110033 0.831491 0.740017
O O13 0.148537 0.722501 0.734514
O O14 0.000000 0.685481 0.756548
O O15 0.000000 0.801505 0.270392
O O16 0.440727 0.827164 0.634541
O O17 0.278492 0.750579 0.632242
#
# Coordination Sequence:
#
# PCOD9577842 Si02
#       7
#    12  12  12  12  12  12  12
#     4  11  24  42  63  85 116 159 206 258 314 375
#     4  12  23  37  57  84 118 160 203 259 315 374
#     4  10  20  36  59  87 118 156 202 255 312 374
#     4  11  22  38  64  95 127 160 205 267 322 376
#     4  10  20  39  65  90 122 165 208 250 312 389
#     4  12  24  40  63  84 122 163 212 259 316 377
#     4  12  25  43  60  90 119 164 215 264 317 375
#
# _framework density 19.992419999999999
#
# number of rings (size 3 to 8) (size 9 to 14) (size 15 to 20)
#    0.000    0.857    2.857    5.571    0.000    2.000 
#    0.000    1.429    0.000    0.286    0.000    0.000 
#    0.000    3.429    0.000    4.571    0.000    0.000 
#
# Total GULP energy -468925.571468 kJ/mol
# GULP energy per Si atom -5582.447279 kJ/mol
# Density = 1.994692 g / cm^3
# Si number density = 19.992420 Si / 1000 Ang^3
#
#
#
# Elastic Constant Matrix: (Units=GPa)
#
#
# Indices 1 2 3 4 5 6 
#
# 1 55.8007 28.6474 9.0538 0.0001 4.7593 0.0000
# 2 28.6474 55.8007 9.0538 -0.0001 -4.7593 0.0000
# 3 9.0538 9.0538 109.4906 0.0000 0.0000 0.0000
# 4 0.0001 -0.0001 0.0000 16.4990 0.0000 -4.7593
# 5 4.7593 -4.7593 0.0000 0.0000 16.4990 0.0001
# 6 0.0000 0.0000 0.0000 -4.7593 0.0001 13.5766
#
#
#
# Elastic Compliance Matrix: (Units=1/GPa)
#
#
# Indices 1 2 3 4 5 6 
#
# 1 0.026513 -0.014458 -0.000997 0.000000 -0.011819 0.000000
# 2 -0.014458 0.026513 -0.000997 0.000000 0.011819 0.000000
# 3 -0.000997 -0.000997 0.009298 0.000000 0.000000 0.000000
# 4 0.000000 0.000000 0.000000 0.067428 0.000000 0.023637
# 5 -0.011819 0.011819 0.000000 0.000000 0.067428 -0.000001
# 6 0.000000 0.000000 0.000000 0.023637 -0.000001 0.081942
#
#
# Mechanical properties :
#
#
# Convention : Reuss Voigt Hill
#
# Bulk Modulus (GPa) = 33.98898 34.95578 34.47238
# Shear Modulus (GPa) = 15.53603 20.93741 18.23672
#
# Velocity S-wave (km/s) = 2.79067 3.23966 3.02351
# Velocity P-wave (km/s) = 5.23657 5.61394 5.42853
#
# Compressibility (1/GPa) = 0.02942130
#
# Stress axis : x y z
#
# Youngs Moduli (GPa) = 37.71715 37.71715 107.54925
#
# Poissons Ratio (x) = 0.54531 0.10721
# Poissons Ratio (y) = 0.54531 0.10721
# Poissons Ratio (z) = 0.03760 0.03760
#
# Static dielectric constant tensor:
#      x y z
#    x 1.736440 0.000000 0.000000 
#    y 0.000000 1.736440 0.000000 
#    z 0.000000 0.000000 1.773510 
# 
# From -- ./inp_files/2534.got.cif
#   From: 2010.05.17/outbox.cif.g08.bks.cpg/sg162_2_cif.got.tgz:2534.got - 2010.05.20 10:53:12.
