data_PCOD9577060
_publ_section_title
;
Structure prediction by ZEFSAII (Michael W. Deem and Ramdas Pophale) SiO2 
 PCOD9577060
Probable space group: R 3 2
;
_chemical_formula_sum "Si O2"
_cell_formula_units_Z 69
_cell_length_a 16.940654
_cell_length_b 16.940654
_cell_length_c 12.498717
_cell_angle_alpha 90.000000
_cell_angle_beta 90.000000
_cell_angle_gamma 120.000000
_cell_volume 3106.393088
_symmetry_space_group_name_H-M "R 3 2"
_symmetry_group_IT_number 155
_symmetry_cell_setting 'hexagonal'
loop_
_space_group_symop_operation_xyz
x,y,z
-y,x-y,z
-x+y,-x,z
x-y,-y,-z
-x,-x+y,-z
y,x,-z
2/3+x,1/3+y,1/3+z
2/3-y,1/3+x-y,1/3+z
2/3-x+y,1/3-x,1/3+z
2/3+x-y,1/3-y,1/3-z
2/3-x,1/3-x+y,1/3-z
2/3+y,1/3+x,1/3-z
1/3+x,2/3+y,2/3+z
1/3-y,2/3+x-y,2/3+z
1/3-x+y,2/3-x,2/3+z
1/3+x-y,2/3-y,2/3-z
1/3-x,2/3-x+y,2/3-z
1/3+y,2/3+x,2/3-z
loop_
_atom_site_type_symbol
_atom_site_label
_atom_site_fract_x
_atom_site_fract_y
_atom_site_fract_z
Si Si1 0.706841 0.706841 0.500000
Si Si2 0.666667 0.822479 0.333334
Si Si3 0.666667 0.550969 0.333334
Si Si4 0.000000 0.000000 0.629717
Si Si5 0.369771 0.234069 0.286887
Si Si6 0.014576 0.829978 0.627874
O O1 0.713236 0.785229 0.419593
O O2 0.684609 0.618284 0.431774
O O3 0.749615 0.925748 0.311456
O O4 0.760069 0.554156 0.305572
O O5 0.024414 0.924602 0.663825
O O6 0.000000 0.000000 0.500000
O O7 0.333334 0.222027 0.166667
O O8 0.405368 0.333334 0.333334
O O9 0.277275 0.169632 0.350660
O O10 0.000000 0.818650 0.500000
#
# Coordination Sequence:
#
# PCOD9577060 Si02
#       6
#     9   9   9   6  18  18
#     4  10  24  40  70 104 132 184 246 286 356 416
#     4  11  24  40  74  99 142 190 232 305 352 428
#     4  11  24  46  70  99 144 186 240 289 346 432
#     4   9  24  39  66 102 139 167 229 306 363 396
#     4  12  27  48  73 104 141 190 245 292 359 439
#     4  11  24  44  69 105 139 182 233 303 365 419
#
# _framework density 22.212254000000001
#
# number of rings (size 3 to 8) (size 9 to 14) (size 15 to 20)
#    0.000    1.043    2.609    2.348   16.435    0.000 
#    0.783    0.000    0.000    0.000    0.000    0.000 
#    0.000    0.000    0.000    0.000    0.000    0.000 
#
# Total GULP energy -128436.344233 kJ/mol
# GULP energy per Si atom -5584.188880 kJ/mol
# Density = 2.216170 g / cm^3
# Si number density = 22.212254 Si / 1000 Ang^3
#
#
#
# Elastic Constant Matrix: (Units=GPa)
#
#
# Indices 1 2 3 4 5 6 
#
# 1 62.3622 80.2666 9.6160 -45.9892 -0.0077 0.0000
# 2 80.2666 62.3622 9.6160 45.9892 0.0077 0.0000
# 3 9.6160 9.6160 73.7290 0.0000 0.0000 0.0000
# 4 -45.9892 45.9892 0.0000 -11.6860 0.0000 0.0077
# 5 -0.0077 0.0077 0.0000 0.0000 -11.6860 -45.9892
# 6 0.0000 0.0000 0.0000 0.0077 -45.9892 -8.9522
#
#
#
# Elastic Compliance Matrix: (Units=1/GPa)
#
#
# Indices 1 2 3 4 5 6 
#
# 1 0.005022 0.002115 -0.000931 -0.011438 -0.000002 0.000000
# 2 0.002115 0.005022 -0.000931 0.011438 0.000002 0.000000
# 3 -0.000931 -0.000931 0.013806 0.000000 0.000000 0.000000
# 4 -0.011438 0.011438 0.000000 0.004453 0.000000 0.000004
# 5 -0.000002 0.000002 0.000000 0.000000 0.004453 -0.022876
# 6 0.000000 0.000000 0.000000 0.000004 -0.022876 0.005813
#
#
# Mechanical properties :
#
#
# Convention : Reuss Voigt Hill
#
# Bulk Modulus (GPa) = 41.05725 44.16116 42.60921
# Shear Modulus (GPa) = 108.27333 0.13214 54.20274
#
# Velocity S-wave (km/s) = 6.98933 0.24417 4.94522
# Velocity P-wave (km/s) = 9.14650 4.47259 7.19939
#
# Compressibility (1/GPa) = 0.02435623
#
# Stress axis : x y z
#
# Youngs Moduli (GPa) = 199.14135 199.14135 72.43237
#
# Poissons Ratio (x) = -0.42122 0.06742
# Poissons Ratio (y) = -0.42122 0.06742
# Poissons Ratio (z) = 0.18536 0.18536
#
# Static dielectric constant tensor:
#      x y z
#    x 1.952760 0.000000 0.000000 
#    y 0.000000 1.952760 0.000000 
#    z 0.000000 0.000000 1.840090 
# 
# From -- ./inp_files/4896.got.cif
#   From: 2010.05.17/outbox.cif.g08.bks.cpg/sg155_3_cif.got.tgz:4896.got - 2010.05.20 10:44:35.
