data_PCOD9577296
_publ_section_title
;
Structure prediction by ZEFSAII (Michael W. Deem and Ramdas Pophale) SiO2 
 PCOD9577296
Probable space group: P 3 C 1
;
_chemical_formula_sum "Si O2"
_cell_formula_units_Z 30
_cell_length_a 14.046990
_cell_length_b 14.046990
_cell_length_c 9.005636
_cell_angle_alpha 90.000000
_cell_angle_beta 90.000000
_cell_angle_gamma 120.000000
_cell_volume 1538.904138
_symmetry_space_group_name_H-M "P 3 C 1"
_symmetry_group_IT_number 158
_symmetry_cell_setting 'hexagonal'
loop_
_space_group_symop_operation_xyz
x,y,z
-y,x-y,z
-x+y,-x,z
-x+y,y,1/2+z
x,x-y,1/2+z
-y,-x,1/2+z
loop_
_atom_site_type_symbol
_atom_site_label
_atom_site_fract_x
_atom_site_fract_y
_atom_site_fract_z
Si Si1 0.422679 0.559701 0.489640
Si Si2 0.061147 0.669531 0.737281
Si Si3 0.150372 0.445576 0.734935
Si Si4 0.470651 0.110562 0.711505
Si Si5 0.452739 0.149790 0.360742
O O1 0.397643 0.452585 0.588205
O O2 0.522004 0.607399 0.372021
O O3 0.459934 0.652734 0.611504
O O4 0.317583 0.512732 0.386547
O O5 0.165180 0.790679 0.716682
O O6 0.950063 0.660308 0.794053
O O7 0.017206 0.388753 0.731115
O O8 0.469689 0.140003 0.536786
O O9 0.590289 0.134336 0.768526
O O10 0.453995 0.194259 0.814651
#
# Coordination Sequence:
#
# PCOD9577296 Si02
#       5
#     6   6   6   6   6
#     4  10  20  38  56  86 122 160 194 238 282 352
#     4  11  21  39  58  85 124 156 194 239 293 352
#     4  11  21  39  58  85 124 156 194 239 293 352
#     4  12  24  42  62  88 118 157 201 249 299 352
#     4  12  24  42  62  88 118 157 201 249 299 352
#
# _framework density 19.494392000000001
#
# number of rings (size 3 to 8) (size 9 to 14) (size 15 to 20)
#    0.000    0.800    6.000    2.800    2.800    0.000 
#   24.000    0.000    0.000    0.800    0.000    0.000 
#    0.000    0.000    0.000    0.000    0.000    0.000 
#
# Total GULP energy -167124.314293 kJ/mol
# GULP energy per Si atom -5570.810476 kJ/mol
# Density = 1.945002 g / cm^3
# Si number density = 19.494392 Si / 1000 Ang^3
#
#
#
# Elastic Constant Matrix: (Units=GPa)
#
#
# Indices 1 2 3 4 5 6 
#
# 1 95.8283 49.8506 26.1921 -0.6137 0.0000 0.0000
# 2 49.8506 95.8283 26.1921 0.6137 0.0000 0.0000
# 3 26.1921 26.1921 151.7670 0.0000 0.0000 0.0000
# 4 -0.6137 0.6137 0.0000 28.9940 0.0000 0.0000
# 5 0.0000 0.0000 0.0000 0.0000 28.9940 -0.6137
# 6 0.0000 0.0000 0.0000 0.0000 -0.6137 22.9889
#
#
#
# Elastic Compliance Matrix: (Units=1/GPa)
#
#
# Indices 1 2 3 4 5 6 
#
# 1 0.014540 -0.007222 -0.001263 0.000461 0.000000 0.000000
# 2 -0.007222 0.014540 -0.001263 -0.000461 0.000000 0.000000
# 3 -0.001263 -0.001263 0.007025 0.000000 0.000000 0.000000
# 4 0.000461 -0.000461 0.000000 0.034509 0.000000 0.000000
# 5 0.000000 0.000000 0.000000 0.000000 0.034509 0.000921
# 6 0.000000 0.000000 0.000000 0.000000 0.000921 0.043524
#
#
# Mechanical properties :
#
#
# Convention : Reuss Voigt Hill
#
# Bulk Modulus (GPa) = 60.20475 60.87702 60.54089
# Shear Modulus (GPa) = 28.78852 32.27465 30.53158
#
# Velocity S-wave (km/s) = 3.84703 4.07330 3.96178
# Velocity P-wave (km/s) = 7.11920 7.30877 7.21461
#
# Compressibility (1/GPa) = 0.01660998
#
# Stress axis : x y z
#
# Youngs Moduli (GPa) = 68.77454 68.77454 142.34865
#
# Poissons Ratio (x) = 0.49667 0.17979
# Poissons Ratio (y) = 0.49667 0.17979
# Poissons Ratio (z) = 0.08687 0.08687
#
# Static dielectric constant tensor:
#      x y z
#    x 1.746560 0.000000 0.000000 
#    y 0.000000 1.746560 0.000000 
#    z 0.000000 0.000000 1.732610 
# 
# From -- ./inp_files/180.got.cif
#   From: 2010.05.17/outbox.cif.g08.bks.cpg/sg158_cif.got.tgz:180.got - 2010.05.20 10:49:59.
