data_PCOD9577498
_publ_section_title
;
Structure prediction by ZEFSAII (Michael W. Deem and Ramdas Pophale) SiO2 
 PCOD9577498
Probable space group: R 3 M
;
_chemical_formula_sum "Si O2"
_cell_formula_units_Z 90
_cell_length_a 18.543604
_cell_length_b 18.543604
_cell_length_c 11.974482
_cell_angle_alpha 90.000000
_cell_angle_beta 90.000000
_cell_angle_gamma 120.000000
_cell_volume 3565.953337
_symmetry_space_group_name_H-M "R 3 M"
_symmetry_group_IT_number 160
_symmetry_cell_setting 'hexagonal'
loop_
_space_group_symop_operation_xyz
x,y,z
-y,x-y,z
-x+y,-x,z
-x+y,y,z
x,x-y,z
-y,-x,z
2/3+x,1/3+y,1/3+z
2/3-y,1/3+x-y,1/3+z
2/3-x+y,1/3-x,1/3+z
2/3-x+y,1/3+y,1/3+z
2/3+x,1/3+x-y,1/3+z
2/3-y,1/3-x,1/3+z
1/3+x,2/3+y,2/3+z
1/3-y,2/3+x-y,2/3+z
1/3-x+y,2/3-x,2/3+z
1/3-x+y,2/3+y,2/3+z
1/3+x,2/3+x-y,2/3+z
1/3-y,2/3-x,2/3+z
loop_
_atom_site_type_symbol
_atom_site_label
_atom_site_fract_x
_atom_site_fract_y
_atom_site_fract_z
Si Si1 0.507807 0.174218 0.053845
Si Si2 0.744239 0.088999 0.963432
Si Si3 0.729881 0.107377 0.599740
Si Si4 0.332151 0.506977 0.115393
Si Si5 0.163772 0.165130 0.061486
O O1 0.574416 0.148831 0.094003
O O2 0.536329 0.268165 0.087937
O O3 0.508733 0.173313 0.916996
O O4 0.408886 0.118154 0.070718
O O5 0.820926 0.179075 0.919249
O O6 0.789641 0.037123 0.989523
O O7 0.654618 0.022431 0.912300
O O8 0.829717 0.170284 0.593979
O O9 0.699307 0.120355 0.719725
O O10 0.690392 0.142365 0.511373
O O11 0.240435 0.480869 0.076106
O O12 0.397973 0.602028 0.083540
O O13 0.139668 0.069834 0.075149
O O14 0.086097 0.172193 0.017006
#
# Coordination Sequence:
#
# PCOD9577498 Si02
#       5
#    18  18  18  18  18
#     4   9  17  31  53  82 117 154 191 231 281 343
#     4  10  22  38  54  78 113 154 196 234 276 329
#     4  10  21  36  57  87 116 148 188 236 292 342
#     4   9  17  29  51  83 119 153 184 227 285 352
#     4  10  22  40  62  86 115 151 191 234 283 342
#
# _framework density 25.238693000000001
#
# number of rings (size 3 to 8) (size 9 to 14) (size 15 to 20)
#    0.000    2.400    0.000    1.800    2.800    3.200 
#    0.000    3.000    0.000    0.400    0.000    0.000 
#    0.000    8.000    0.000    0.000    0.000    0.000 
#
# Total GULP energy -167495.838753 kJ/mol
# GULP energy per Si atom -5583.194625 kJ/mol
# Density = 2.518125 g / cm^3
# Si number density = 25.238693 Si / 1000 Ang^3
#
#
#
# Elastic Constant Matrix: (Units=GPa)
#
#
# Indices 1 2 3 4 5 6 
#
# 1 186.1469 90.1434 32.4029 2.0369 -0.0002 0.0000
# 2 90.1434 186.1469 32.4029 -2.0369 0.0002 0.0000
# 3 32.4029 32.4029 75.5035 0.0000 0.0000 0.0000
# 4 2.0369 -2.0369 0.0000 19.9998 0.0000 0.0002
# 5 -0.0002 0.0002 0.0000 0.0000 19.9998 2.0369
# 6 0.0000 0.0000 0.0000 0.0002 2.0369 48.0018
#
#
#
# Elastic Compliance Matrix: (Units=1/GPa)
#
#
# Indices 1 2 3 4 5 6 
#
# 1 0.007243 -0.003218 -0.001727 -0.001065 0.000000 0.000000
# 2 -0.003218 0.007243 -0.001727 0.001065 0.000000 0.000000
# 3 -0.001727 -0.001727 0.014727 0.000000 0.000000 0.000000
# 4 -0.001065 0.001065 0.000000 0.050217 0.000000 0.000000
# 5 0.000000 0.000000 0.000000 0.000000 0.050217 -0.002131
# 6 0.000000 0.000000 0.000000 0.000000 -0.002131 0.020923
#
#
# Mechanical properties :
#
#
# Convention : Reuss Voigt Hill
#
# Bulk Modulus (GPa) = 63.02278 84.18838 73.60558
# Shear Modulus (GPa) = 29.54991 37.12351 33.33671
#
# Velocity S-wave (km/s) = 3.42543 3.83939 3.63830
# Velocity P-wave (km/s) = 6.37728 7.28586 6.84666
#
# Compressibility (1/GPa) = 0.01586728
#
# Stress axis : x y z
#
# Youngs Moduli (GPa) = 138.06447 138.06447 67.90318
#
# Poissons Ratio (x) = 0.44436 0.11728
# Poissons Ratio (y) = 0.44436 0.11728
# Poissons Ratio (z) = 0.23846 0.23846
#
# Static dielectric constant tensor:
#      x y z
#    x 2.002510 0.000000 0.000000 
#    y 0.000000 2.002510 0.000000 
#    z 0.000000 0.000000 2.080270 
# 
# From -- ./inp_files/2772.got.cif
#   From: 2010.05.17/outbox.cif.g08.bks.cpg/sg160_2_cif.got.tgz:2772.got - 2010.05.20 10:51:19.
