data_PCOD9577684
_publ_section_title
;
Structure prediction by ZEFSAII (Michael W. Deem and Ramdas Pophale) SiO2 
 PCOD9577684
Probable space group: P -3 1 M 
;
_chemical_formula_sum "Si O2"
_cell_formula_units_Z 76
_cell_length_a 18.310528
_cell_length_b 18.310528
_cell_length_c 15.296183
_cell_angle_alpha 90.000000
_cell_angle_beta 90.000000
_cell_angle_gamma 120.000000
_cell_volume 4441.354488
_symmetry_space_group_name_H-M "P -3 1 M "
_symmetry_group_IT_number 162
_symmetry_cell_setting 'hexagonal'
loop_
_space_group_symop_operation_xyz
x,y,z
-y,x-y,z
-x+y,-x,z
-y,-x,-z
-x+y,y,-z
x,x-y,-z
-x,-y,-z
y,-x+y,-z
x-y,x,-z
y,x,z
x-y,-y,z
-x,-x+y,z
loop_
_atom_site_type_symbol
_atom_site_label
_atom_site_fract_x
_atom_site_fract_y
_atom_site_fract_z
Si Si1 0.466687 0.370385 0.000628
Si Si2 0.666668 0.333334 0.105537
Si Si3 0.496262 0.326179 0.343081
Si Si4 0.308177 0.907535 0.193467
Si Si5 0.725382 0.523543 0.841895
Si Si6 0.499075 0.654724 0.365578
Si Si7 0.903952 0.639997 0.485964
O O1 0.421822 0.421822 0.032951
O O2 0.438679 0.344855 0.901568
O O3 0.566182 0.433819 0.000000
O O4 0.448829 0.297732 0.068283
O O5 0.569604 0.286213 0.140193
O O6 0.666668 0.333334 0.000000
O O7 0.489299 0.335494 0.239279
O O8 0.569759 0.412549 0.382459
O O9 0.518856 0.251389 0.354198
O O10 0.409636 0.294717 0.394391
O O11 0.222544 0.817869 0.190127
O O12 0.354839 0.894032 0.275407
O O13 0.318542 0.000000 0.202956
O O14 0.568923 0.683459 0.440729
O O15 0.833386 0.666772 0.500000
O O16 0.000000 0.712871 0.492100
#
# Coordination Sequence:
#
# PCOD9577684 Si02
#       7
#    12   4  12  12  12  12  12
#     4  10  19  30  44  65  92 121 156 199 249 299
#     4  12  21  30  48  69  91 131 181 216 249 294
#     4  10  20  31  48  72  98 132 167 201 240 291
#     4  10  20  31  45  64  87 122 165 205 246 290
#     4  11  20  32  47  66  95 127 162 207 249 287
#     4  10  19  33  50  70 100 130 165 204 241 282
#     4  10  22  38  55  75  98 127 161 200 246 297
#
# _framework density 17.111896999999999
#
# number of rings (size 3 to 8) (size 9 to 14) (size 15 to 20)
#    0.000    1.737    0.000    6.947    0.000    2.526 
#    0.000    1.579    0.000    0.158    0.000    0.000 
#    0.000    0.000    0.000    0.474    0.000    7.105 
#
# Total GULP energy -423820.920878 kJ/mol
# GULP energy per Si atom -5576.591064 kJ/mol
# Density = 1.707295 g / cm^3
# Si number density = 17.111897 Si / 1000 Ang^3
#
#
#
# Elastic Constant Matrix: (Units=GPa)
#
#
# Indices 1 2 3 4 5 6 
#
# 1 64.3529 48.4080 21.9644 0.0000 -2.8907 0.0001
# 2 48.4080 64.3528 21.9642 0.0001 2.8909 0.0000
# 3 21.9644 21.9642 84.6422 0.0001 0.0000 -0.0002
# 4 0.0000 0.0001 0.0001 7.7477 0.0000 2.8908
# 5 -2.8907 2.8909 0.0000 0.0000 7.7476 0.0000
# 6 0.0001 0.0000 -0.0002 2.8908 0.0000 7.9724
#
#
#
# Elastic Compliance Matrix: (Units=1/GPa)
#
#
# Indices 1 2 3 4 5 6 
#
# 1 0.041197 -0.031332 -0.002560 0.000001 0.027062 -0.000001
# 2 -0.031332 0.041197 -0.002560 -0.000001 -0.027062 0.000001
# 3 -0.002560 -0.002560 0.013143 0.000000 0.000000 0.000001
# 4 0.000001 -0.000001 0.000000 0.149266 0.000001 -0.054125
# 5 0.027062 -0.027062 0.000000 0.000001 0.149268 -0.000002
# 6 -0.000001 0.000001 0.000001 -0.054125 -0.000002 0.145059
#
#
# Mechanical properties :
#
#
# Convention : Reuss Voigt Hill
#
# Bulk Modulus (GPa) = 44.18123 44.22457 44.20290
# Shear Modulus (GPa) = 8.06999 12.76094 10.41546
#
# Velocity S-wave (km/s) = 2.17399 2.73378 2.46980
# Velocity P-wave (km/s) = 5.67245 5.98875 5.83275
#
# Compressibility (1/GPa) = 0.02263405
#
# Stress axis : x y z
#
# Youngs Moduli (GPa) = 24.27339 24.27338 76.08550
#
# Poissons Ratio (x) = 0.76053 0.19479
# Poissons Ratio (y) = 0.76053 0.19478
# Poissons Ratio (z) = 0.06214 0.06214
#
# Static dielectric constant tensor:
#      x y z
#    x 1.605090 0.000000 0.000000 
#    y 0.000000 1.605090 0.000000 
#    z 0.000000 0.000000 1.636050 
# 
# From -- ./inp_files/3113.got.cif
#   From: 2010.05.17/outbox.cif.g08.bks.cpg/sg162_2_cif.got.tgz:3113.got - 2010.05.20 10:53:12.
