data_PCOD9577657
_publ_section_title
;
Structure prediction by ZEFSAII (Michael W. Deem and Ramdas Pophale) SiO2 
 PCOD9577657
Probable space group: P -3 1 M 
;
_chemical_formula_sum "Si O2"
_cell_formula_units_Z 48
_cell_length_a 26.085617
_cell_length_b 26.085617
_cell_length_c 5.068708
_cell_angle_alpha 90.000000
_cell_angle_beta 90.000000
_cell_angle_gamma 120.000000
_cell_volume 2986.964985
_symmetry_space_group_name_H-M "P -3 1 M "
_symmetry_group_IT_number 162
_symmetry_cell_setting 'hexagonal'
loop_
_space_group_symop_operation_xyz
x,y,z
-y,x-y,z
-x+y,-x,z
-y,-x,-z
-x+y,y,-z
x,x-y,-z
-x,-y,-z
y,-x+y,-z
x-y,x,-z
y,x,z
x-y,-y,z
-x,-x+y,z
loop_
_atom_site_type_symbol
_atom_site_label
_atom_site_fract_x
_atom_site_fract_y
_atom_site_fract_z
Si Si1 0.415842 0.932363 0.863100
Si Si2 0.346550 0.931964 0.378324
Si Si3 0.791236 0.138101 0.755938
Si Si4 0.859614 0.069907 0.758624
O O1 0.374187 0.908861 0.605458
O O2 0.465094 0.000000 0.786377
O O3 0.452051 0.904101 0.000000
O O4 0.377181 0.934713 0.101510
O O5 0.277213 0.892726 0.322492
O O6 0.366446 0.000000 0.455147
O O7 0.827222 0.172779 0.500000
O O8 0.810072 0.088813 0.816345
O O9 0.815799 0.184202 0.000000
O O10 0.895393 0.104608 0.500000
O O11 0.828554 0.000000 0.726859
O O12 0.905188 0.094813 0.000000
#
# Coordination Sequence:
#
# PCOD9577657 Si02
#       4
#    12  12  12  12
#     4   9  17  28  43  65  91 120 153 185 216 253
#     4  10  18  29  46  65  90 124 157 188 224 269
#     4  10  20  32  46  67  93 122 156 193 233 277
#     4  10  20  34  52  70  90 116 150 194 242 296
#
# _framework density 16.069824000000001
#
# number of rings (size 3 to 8) (size 9 to 14) (size 15 to 20)
#    0.000    2.250    0.000    3.750    0.000    3.000 
#    0.000    7.500    0.000    5.000    0.000    0.000 
#    0.000    0.000    0.000   63.000    0.000    0.000 
#
# Total GULP energy -267327.548938 kJ/mol
# GULP energy per Si atom -5569.323936 kJ/mol
# Density = 1.603325 g / cm^3
# Si number density = 16.069824 Si / 1000 Ang^3
#
#
#
# Elastic Constant Matrix: (Units=GPa)
#
#
# Indices 1 2 3 4 5 6 
#
# 1 96.4959 1.2475 14.8737 0.0023 -32.1355 0.0000
# 2 1.2475 96.4959 14.8737 -0.0023 32.1355 0.0000
# 3 14.8737 14.8737 98.5184 0.0000 0.0000 0.0000
# 4 0.0023 -0.0023 0.0000 52.9067 0.0000 32.1355
# 5 -32.1355 32.1355 0.0000 0.0000 52.9067 0.0023
# 6 0.0000 0.0000 0.0000 32.1355 0.0023 47.6242
#
#
#
# Elastic Compliance Matrix: (Units=1/GPa)
#
#
# Indices 1 2 3 4 5 6 
#
# 1 0.014257 -0.003533 -0.001619 -0.000001 0.010806 0.000000
# 2 -0.003533 0.014257 -0.001619 0.000001 -0.010806 0.000000
# 3 -0.001619 -0.001619 0.010639 0.000000 0.000000 0.000000
# 4 -0.000001 0.000001 0.000000 0.032028 0.000000 -0.021612
# 5 0.010806 -0.010806 0.000000 0.000000 0.032028 -0.000002
# 6 0.000000 0.000000 0.000000 -0.021612 -0.000002 0.035581
#
#
# Mechanical properties :
#
#
# Convention : Reuss Voigt Hill
#
# Bulk Modulus (GPa) = 39.04648 39.27777 39.16213
# Shear Modulus (GPa) = 31.08104 48.05521 39.56812
#
# Velocity S-wave (km/s) = 4.40264 5.47439 4.96750
# Velocity P-wave (km/s) = 7.08485 8.02830 7.57128
#
# Compressibility (1/GPa) = 0.02561050
#
# Stress axis : x y z
#
# Youngs Moduli (GPa) = 70.14106 70.14106 93.99175
#
# Poissons Ratio (x) = 0.24784 0.15217
# Poissons Ratio (y) = 0.24784 0.15217
# Poissons Ratio (z) = 0.11356 0.11356
#
# Static dielectric constant tensor:
#      x y z
#    x 1.675800 0.000000 0.000000 
#    y 0.000000 1.675800 0.000000 
#    z 0.000000 0.000000 1.566580 
# 
# From -- ./inp_files/467.got.cif
#   From: 2010.05.17/outbox.cif.g08.bks.cpg/sg162_1_cif.got.tgz:467.got - 2010.05.20 10:53:12.
