data_PCOD9577646
_publ_section_title
;
Structure prediction by ZEFSAII (Michael W. Deem and Ramdas Pophale) SiO2 
 PCOD9577646
Probable space group: P -3 1 M 
;
_chemical_formula_sum "Si O2"
_cell_formula_units_Z 96
_cell_length_a 18.838534
_cell_length_b 18.838534
_cell_length_c 21.180707
_cell_angle_alpha 90.000000
_cell_angle_beta 90.000000
_cell_angle_gamma 120.000000
_cell_volume 6509.764698
_symmetry_space_group_name_H-M "P -3 1 M "
_symmetry_group_IT_number 162
_symmetry_cell_setting 'hexagonal'
loop_
_space_group_symop_operation_xyz
x,y,z
-y,x-y,z
-x+y,-x,z
-y,-x,-z
-x+y,y,-z
x,x-y,-z
-x,-y,-z
y,-x+y,-z
x-y,x,-z
y,x,z
x-y,-y,z
-x,-x+y,z
loop_
_atom_site_type_symbol
_atom_site_label
_atom_site_fract_x
_atom_site_fract_y
_atom_site_fract_z
Si Si1 0.668587 0.169287 0.103638
Si Si2 0.367690 0.907281 0.237168
Si Si3 0.499916 0.669212 0.632147
Si Si4 0.096150 0.734620 0.000000
Si Si5 0.169287 0.500700 0.103638
Si Si6 0.632309 0.092719 0.237168
Si Si7 0.904467 0.538477 0.500000
Si Si8 0.330788 0.830704 0.367853
O O1 0.577241 0.154482 0.092510
O O2 0.736346 0.263653 0.091134
O O3 0.674942 0.147825 0.176385
O O4 0.692624 0.115275 0.059491
O O5 0.325058 0.852175 0.176385
O O6 0.454566 0.909132 0.241315
O O7 0.325036 0.874583 0.304621
O O8 0.389474 0.000000 0.226223
O O9 0.549547 0.674963 0.695379
O O10 0.544399 0.679389 0.565376
O O11 0.472009 0.736004 0.636397
O O12 0.420917 0.579083 0.631585
O O13 0.115275 0.692624 0.940509
O O14 0.000000 0.708790 0.000000
O O15 0.168309 0.831692 0.000000
O O16 0.610526 0.000000 0.226223
O O17 0.896409 0.448205 0.500000
O O18 0.865010 0.544399 0.565376
O O19 0.000000 0.602900 0.500000
#
# Coordination Sequence:
#
# PCOD9577646 Si02
#       8
#    12  12  12  12  12  12  12  12
#     4  10  19  30  45  66  93 123 154 186 219 255
#     4   9  17  28  41  56  76 106 143 179 213 250
#     4  10  18  27  39  55  75  97 124 162 209 255
#     4  10  21  35  51  70  91 117 148 184 225 269
#     4  10  19  30  45  66  93 123 154 186 219 255
#     4   9  17  28  41  56  76 106 143 179 213 250
#     4   9  17  28  40  52  68  93 124 156 192 240
#     4  10  18  27  39  55  75  97 124 162 209 255
#
# _framework density 14.747076
#
# number of rings (size 3 to 8) (size 9 to 14) (size 15 to 20)
#    0.000    2.375    0.000    3.500    0.000    5.000 
#    0.000    5.000    0.000    0.125    0.000    0.000 
#    0.000    0.000    0.000    0.000    0.000    0.000 
#
# Total GULP energy -534511.629627 kJ/mol
# GULP energy per Si atom -5567.829475 kJ/mol
# Density = 1.471351 g / cm^3
# Si number density = 14.747076 Si / 1000 Ang^3
#
#
#
# Elastic Constant Matrix: (Units=GPa)
#
#
# Indices 1 2 3 4 5 6 
#
# 1 39.7378 28.0861 25.1568 0.0000 0.0000 0.0000
# 2 28.0861 39.7378 25.1568 0.0000 0.0000 0.0000
# 3 25.1568 25.1568 93.5408 0.0000 0.0000 0.0000
# 4 0.0000 0.0000 0.0000 15.8120 0.0000 0.0000
# 5 0.0000 0.0000 0.0000 0.0000 15.8120 0.0000
# 6 0.0000 0.0000 0.0000 0.0000 0.0000 5.8259
#
#
#
# Elastic Compliance Matrix: (Units=1/GPa)
#
#
# Indices 1 2 3 4 5 6 
#
# 1 0.052121 -0.033703 -0.004954 0.000000 0.000000 0.000000
# 2 -0.033703 0.052121 -0.004954 0.000000 0.000000 0.000000
# 3 -0.004954 -0.004954 0.013355 0.000000 0.000000 0.000000
# 4 0.000000 0.000000 0.000000 0.063243 0.000000 0.000000
# 5 0.000000 0.000000 0.000000 0.000000 0.063243 0.000000
# 6 0.000000 0.000000 0.000000 0.000000 0.000000 0.171648
#
#
# Mechanical properties :
#
#
# Convention : Reuss Voigt Hill
#
# Bulk Modulus (GPa) = 32.91826 36.64622 34.78224
# Shear Modulus (GPa) = 9.74512 13.79776 11.77144
#
# Velocity S-wave (km/s) = 2.57342 3.06212 2.82835
# Velocity P-wave (km/s) = 5.58573 6.11603 5.85689
#
# Compressibility (1/GPa) = 0.03037827
#
# Stress axis : x y z
#
# Youngs Moduli (GPa) = 19.18598 19.18598 74.87878
#
# Poissons Ratio (x) = 0.64662 0.37091
# Poissons Ratio (y) = 0.64662 0.37091
# Poissons Ratio (z) = 0.09504 0.09504
#
# Static dielectric constant tensor:
#      x y z
#    x 1.475520 0.000000 0.000000 
#    y 0.000000 1.475520 0.000000 
#    z 0.000000 0.000000 1.532450 
# 
# From -- ./inp_files/3903.got.cif
#   From: 2010.05.17/outbox.cif.g08.bks.cpg/sg162_2_cif.got.tgz:3903.got - 2010.05.20 10:53:12.
