data_PCOD9577603
_publ_section_title
;
Structure prediction by ZEFSAII (Michael W. Deem and Ramdas Pophale) SiO2 
 PCOD9577603
Probable space group: R 3 C
;
_chemical_formula_sum "Si O2"
_cell_formula_units_Z 72
_cell_length_a 15.461375
_cell_length_b 15.461375
_cell_length_c 15.093136
_cell_angle_alpha 90.000000
_cell_angle_beta 90.000000
_cell_angle_gamma 120.000000
_cell_volume 3124.685733
_symmetry_space_group_name_H-M "R 3 C"
_symmetry_group_IT_number 161
_symmetry_cell_setting 'hexagonal'
loop_
_space_group_symop_operation_xyz
x,y,z
-y,x-y,z
-x+y,-x,z
-x+y,y,1/2+z
x,x-y,1/2+z
-y,-x,1/2+z
2/3+x,1/3+y,1/3+z
2/3-y,1/3+x-y,1/3+z
2/3-x+y,1/3-x,1/3+z
2/3-x+y,1/3+y,5/6+z
2/3+x,1/3+x-y,5/6+z
2/3-y,1/3-x,5/6+z
1/3+x,2/3+y,2/3+z
1/3-y,2/3+x-y,2/3+z
1/3-x+y,2/3-x,2/3+z
1/3-x+y,2/3+y,1/6+z
1/3+x,2/3+x-y,1/6+z
1/3-y,2/3-x,1/6+z
loop_
_atom_site_type_symbol
_atom_site_label
_atom_site_fract_x
_atom_site_fract_y
_atom_site_fract_z
Si Si1 0.077670 0.125211 0.639208
Si Si2 0.086069 0.545526 0.638263
Si Si3 0.328075 0.984510 0.052872
Si Si4 0.037800 0.514313 0.945622
O O1 0.087998 0.155204 0.536636
O O2 0.136839 0.220459 0.700197
O O3 0.106576 0.040949 0.659088
O O4 0.052374 0.628530 0.632146
O O5 0.099189 0.527742 0.534994
O O6 0.002652 0.439761 0.678406
O O7 0.416639 0.015719 0.980576
O O8 0.313241 0.076230 0.080357
#
# Coordination Sequence:
#
# PCOD9577603 Si02
#       4
#    18  18  18  18
#     4  10  26  43  71 104 146 196 245 310 367 450
#     4  10  26  45  75 109 147 200 246 312 382 444
#     4  10  26  45  74 105 147 200 238 318 360 455
#     4  10  26  43  72 104 154 188 257 304 381 433
#
# _framework density 23.042316
#
# number of rings (size 3 to 8) (size 9 to 14) (size 15 to 20)
#    2.000    0.000    0.000    0.000   14.000    4.000 
#    0.000    0.000    0.000    0.000    0.000    0.000 
#    0.000    0.000    0.000    0.000    0.000    0.000 
#
# Total GULP energy -133812.483418 kJ/mol
# GULP energy per Si atom -5575.520142 kJ/mol
# Density = 2.298987 g / cm^3
# Si number density = 23.042316 Si / 1000 Ang^3
#
#
#
# Elastic Constant Matrix: (Units=GPa)
#
#
# Indices 1 2 3 4 5 6 
#
# 1 53.6860 1.5775 12.1052 8.7752 0.0000 0.0000
# 2 1.5775 53.6860 12.1052 -8.7752 0.0000 0.0000
# 3 12.1052 12.1052 118.8565 0.0000 0.0000 0.0000
# 4 8.7752 -8.7752 0.0000 37.0917 0.0000 0.0000
# 5 0.0000 0.0000 0.0000 0.0000 37.0917 8.7752
# 6 0.0000 0.0000 0.0000 0.0000 8.7752 26.0542
#
#
#
# Elastic Compliance Matrix: (Units=1/GPa)
#
#
# Indices 1 2 3 4 5 6 
#
# 1 0.019896 -0.000956 -0.001929 -0.004933 0.000000 0.000000
# 2 -0.000956 0.019896 -0.001929 0.004933 0.000000 0.000000
# 3 -0.001929 -0.001929 0.008806 0.000000 0.000000 0.000000
# 4 -0.004933 0.004933 0.000000 0.029294 0.000000 0.000000
# 5 0.000000 0.000000 0.000000 0.000000 0.029294 -0.009867
# 6 0.000000 0.000000 0.000000 0.000000 -0.009867 0.041705
#
#
# Mechanical properties :
#
#
# Convention : Reuss Voigt Hill
#
# Bulk Modulus (GPa) = 25.66023 30.86714 28.26368
# Shear Modulus (GPa) = 29.15268 33.41024 31.28146
#
# Velocity S-wave (km/s) = 3.56080 3.81195 3.68851
# Velocity P-wave (km/s) = 5.29774 5.72709 5.51659
#
# Compressibility (1/GPa) = 0.03897081
#
# Stress axis : x y z
#
# Youngs Moduli (GPa) = 50.26074 50.26074 113.55341
#
# Poissons Ratio (x) = 0.04805 0.21904
# Poissons Ratio (y) = 0.04805 0.21904
# Poissons Ratio (z) = 0.09695 0.09695
#
# Static dielectric constant tensor:
#      x y z
#    x 1.879920 0.000000 0.000000 
#    y 0.000000 1.879920 0.000000 
#    z 0.000000 0.000000 1.850690 
# 
# From -- ./inp_files/1243.got.cif
#   From: 2010.05.17/outbox.cif.g08.bks.cpg/sg161_cif.got.tgz:1243.got - 2010.05.20 10:52:32.
