data_PCOD9577737
_publ_section_title
;
Structure prediction by ZEFSAII (Michael W. Deem and Ramdas Pophale) SiO2 
 PCOD9577737
Probable space group: P -3 1 M 
;
_chemical_formula_sum "Si O2"
_cell_formula_units_Z 72
_cell_length_a 15.662022
_cell_length_b 15.662022
_cell_length_c 14.523519
_cell_angle_alpha 90.000000
_cell_angle_beta 90.000000
_cell_angle_gamma 120.000000
_cell_volume 3085.305322
_symmetry_space_group_name_H-M "P -3 1 M "
_symmetry_group_IT_number 162
_symmetry_cell_setting 'hexagonal'
loop_
_space_group_symop_operation_xyz
x,y,z
-y,x-y,z
-x+y,-x,z
-y,-x,-z
-x+y,y,-z
x,x-y,-z
-x,-y,-z
y,-x+y,-z
x-y,x,-z
y,x,z
x-y,-y,z
-x,-x+y,z
loop_
_atom_site_type_symbol
_atom_site_label
_atom_site_fract_x
_atom_site_fract_y
_atom_site_fract_z
Si Si1 0.194596 0.451011 0.641345
Si Si2 0.110735 0.221671 0.889504
Si Si3 0.109904 0.522802 0.136956
Si Si4 0.889064 0.778329 0.610497
Si Si5 0.451011 0.256415 0.141345
Si Si6 0.522802 0.109904 0.363044
O O1 0.141792 0.333668 0.632103
O O2 0.205589 0.472742 0.750000
O O3 0.135784 0.503960 0.606703
O O4 0.305256 0.497061 0.604013
O O5 0.187019 0.187019 0.857404
O O6 0.141792 0.333668 0.867897
O O7 0.000000 0.148687 0.855930
O O8 0.107560 0.215120 0.000000
O O9 0.191805 0.497061 0.104012
O O10 0.135784 0.631824 0.106703
O O11 0.109425 0.520322 0.250000
O O12 0.000000 0.443201 0.107450
O O13 0.892440 0.784880 0.500000
O O14 0.851313 0.851313 0.644070
O O15 0.000000 0.812982 0.642596
O O16 0.443201 0.000000 0.392550
#
# Coordination Sequence:
#
# PCOD9577737 Si02
#       6
#    12  12  12  12  12  12
#     4  10  19  33  54  78 104 135 172 212 253 304
#     4  10  21  37  55  75 102 137 175 216 265 317
#     4   9  17  29  47  73 102 129 159 200 250 297
#     4  10  21  37  55  75 102 137 175 216 265 317
#     4  10  19  33  54  78 104 135 172 212 253 304
#     4   9  17  29  47  73 102 129 159 200 250 297
#
# _framework density 23.336427
#
# number of rings (size 3 to 8) (size 9 to 14) (size 15 to 20)
#    0.000    2.333    0.000    3.000    0.000    8.000 
#    0.000    1.667    0.000    8.000    0.000    0.000 
#    0.000    0.000    0.000    0.000    0.000    0.000 
#
# Total GULP energy -402578.030239 kJ/mol
# GULP energy per Si atom -5591.361531 kJ/mol
# Density = 2.328331 g / cm^3
# Si number density = 23.336427 Si / 1000 Ang^3
#
#
#
# Elastic Constant Matrix: (Units=GPa)
#
#
# Indices 1 2 3 4 5 6 
#
# 1 92.2495 3.6221 -26.3706 0.0001 0.0001 0.0000
# 2 3.6221 92.2495 -26.3706 -0.0001 -0.0001 0.0000
# 3 -26.3706 -26.3706 61.8044 0.0000 0.0000 0.0000
# 4 0.0001 -0.0001 0.0000 0.0584 0.0000 -0.0001
# 5 0.0001 -0.0001 0.0000 0.0000 0.0584 0.0001
# 6 0.0000 0.0000 0.0000 -0.0001 0.0001 44.3137
#
#
#
# Elastic Compliance Matrix: (Units=1/GPa)
#
#
# Indices 1 2 3 4 5 6 
#
# 1 0.012457 0.001173 0.005816 -0.000023 -0.000027 0.000000
# 2 0.001173 0.012457 0.005816 0.000023 0.000027 0.000000
# 3 0.005816 0.005816 0.021143 0.000000 0.000000 0.000000
# 4 -0.000023 0.000023 0.000000 17.124562 -0.000009 0.000053
# 5 -0.000027 0.000027 0.000000 -0.000009 17.124572 -0.000046
# 6 0.000000 0.000000 0.000000 0.000053 -0.000046 0.022566
#
#
# Mechanical properties :
#
#
# Convention : Reuss Voigt Hill
#
# Bulk Modulus (GPa) = 13.95382 16.45169 15.20276
# Shear Modulus (GPa) = 0.14570 28.58093 14.36332
#
# Velocity S-wave (km/s) = 0.25014 3.50342 2.48360
# Velocity P-wave (km/s) = 2.46492 4.84049 3.84097
#
# Compressibility (1/GPa) = 0.07166497
#
# Stress axis : x y z
#
# Youngs Moduli (GPa) = 80.27905 80.27905 47.29735
#
# Poissons Ratio (x) = -0.09420 -0.27506
# Poissons Ratio (y) = -0.09420 -0.27506
# Poissons Ratio (z) = -0.46687 -0.46687
#
# Static dielectric constant tensor:
#      x y z
#    x 1.830310 0.000000 0.000000 
#    y 0.000000 1.830310 0.000000 
#    z 0.000000 0.000000 1.932710 
# 
# From -- ./inp_files/3516.got.cif
#   From: 2010.05.17/outbox.cif.g08.bks.cpg/sg162_2_cif.got.tgz:3516.got - 2010.05.20 10:53:12.
