data_PCOD9577740
_publ_section_title
;
Structure prediction by ZEFSAII (Michael W. Deem and Ramdas Pophale) SiO2 
 PCOD9577740
Probable space group: P -3 1 M 
;
_chemical_formula_sum "Si O2"
_cell_formula_units_Z 84
_cell_length_a 17.811846
_cell_length_b 17.811846
_cell_length_c 15.449039
_cell_angle_alpha 90.000000
_cell_angle_beta 90.000000
_cell_angle_gamma 120.000000
_cell_volume 4244.728961
_symmetry_space_group_name_H-M "P -3 1 M "
_symmetry_group_IT_number 162
_symmetry_cell_setting 'hexagonal'
loop_
_space_group_symop_operation_xyz
x,y,z
-y,x-y,z
-x+y,-x,z
-y,-x,-z
-x+y,y,-z
x,x-y,-z
-x,-y,-z
y,-x+y,-z
x-y,x,-z
y,x,z
x-y,-y,z
-x,-x+y,z
loop_
_atom_site_type_symbol
_atom_site_label
_atom_site_fract_x
_atom_site_fract_y
_atom_site_fract_z
Si Si1 0.103061 0.736839 0.131768
Si Si2 0.497484 0.829209 0.979783
Si Si3 0.528329 0.900541 0.792644
Si Si4 0.798369 0.699225 0.237136
Si Si5 0.532950 0.894498 0.482708
Si Si6 0.684649 0.895451 0.576955
Si Si7 0.523841 0.628805 0.710764
O O1 0.150608 0.837410 0.158370
O O2 0.130735 0.693543 0.208816
O O3 0.000000 0.694990 0.134794
O O4 0.127314 0.709201 0.041336
O O5 0.514560 0.846026 0.878816
O O6 0.431387 0.862773 0.000000
O O7 0.456202 0.728101 0.000000
O O8 0.610427 0.903491 0.748931
O O9 0.443938 0.869379 0.733978
O O10 0.559439 0.000000 0.819289
O O11 0.773344 0.773344 0.221586
O O12 0.838998 0.705191 0.331334
O O13 0.433031 0.866062 0.500000
O O14 0.585994 0.869603 0.549627
O O15 0.535725 0.866059 0.383890
O O16 0.584437 0.000000 0.484523
O O17 0.715138 0.857569 0.500000
O O18 0.737621 0.000000 0.579616
O O19 0.577048 0.577048 0.707770
#
# Coordination Sequence:
#
# PCOD9577740 Si02
#       7
#    12  12  12  12  12  12  12
#     4  11  22  36  58  85 110 144 193 243 290 341
#     4  12  23  38  56  81 118 156 189 224 275 336
#     4  10  19  33  54  78 108 147 188 230 280 336
#     4  10  21  37  55  79 114 154 193 236 292 350
#     4   9  16  28  48  75 105 137 177 222 273 331
#     4  10  20  34  55  81 112 151 191 239 295 347
#     4   9  17  29  49  77 106 136 174 226 276 327
#
# _framework density 19.789249000000002
#
# number of rings (size 3 to 8) (size 9 to 14) (size 15 to 20)
#    0.000    1.857    2.857    2.286    0.000    5.714 
#    0.000    0.000    0.000    0.714    0.000    4.000 
#    0.000    0.571    0.000    0.000    0.000    0.000 
#
# Total GULP energy -468354.031233 kJ/mol
# GULP energy per Si atom -5575.643229 kJ/mol
# Density = 1.974421 g / cm^3
# Si number density = 19.789249 Si / 1000 Ang^3
#
#
#
# Elastic Constant Matrix: (Units=GPa)
#
#
# Indices 1 2 3 4 5 6 
#
# 1 48.8725 17.3035 13.8044 -0.0002 0.5004 0.0000
# 2 17.3035 48.8725 13.8044 0.0002 -0.5004 0.0000
# 3 13.8044 13.8044 77.1410 0.0000 0.0000 0.0000
# 4 -0.0002 0.0002 0.0000 23.7407 0.0000 -0.5004
# 5 0.5004 -0.5004 0.0000 0.0000 23.7407 -0.0002
# 6 0.0000 0.0000 0.0000 -0.5004 -0.0002 15.7845
#
#
#
# Elastic Compliance Matrix: (Units=1/GPa)
#
#
# Indices 1 2 3 4 5 6 
#
# 1 0.024014 -0.007684 -0.002922 0.000000 -0.000668 0.000000
# 2 -0.007684 0.024014 -0.002922 0.000000 0.000668 0.000000
# 3 -0.002922 -0.002922 0.014009 0.000000 0.000000 0.000000
# 4 0.000000 0.000000 0.000000 0.042150 0.000000 0.001336
# 5 -0.000668 0.000668 0.000000 0.000000 0.042150 0.000001
# 6 0.000000 0.000000 0.000000 0.001336 0.000001 0.063396
#
#
# Mechanical properties :
#
#
# Convention : Reuss Voigt Hill
#
# Bulk Modulus (GPa) = 28.58721 29.41231 28.99976
# Shear Modulus (GPa) = 20.12478 21.31809 20.72144
#
# Velocity S-wave (km/s) = 3.19243 3.28572 3.23941
# Velocity P-wave (km/s) = 5.29774 5.41199 5.35517
#
# Compressibility (1/GPa) = 0.03498068
#
# Stress axis : x y z
#
# Youngs Moduli (GPa) = 41.64214 41.64214 71.38178
#
# Poissons Ratio (x) = 0.31997 0.20860
# Poissons Ratio (y) = 0.31997 0.20860
# Poissons Ratio (z) = 0.12169 0.12169
#
# Static dielectric constant tensor:
#      x y z
#    x 1.728720 0.000000 0.000000 
#    y 0.000000 1.728720 0.000000 
#    z 0.000000 0.000000 1.741700 
# 
# From -- ./inp_files/3166.got.cif
#   From: 2010.05.17/outbox.cif.g08.bks.cpg/sg162_2_cif.got.tgz:3166.got - 2010.05.20 10:53:12.
