data_PCOD9577958
_publ_section_title
;
Structure prediction by ZEFSAII (Michael W. Deem and Ramdas Pophale) SiO2 
 PCOD9577958
Probable space group: P -3 1 M 
;
_chemical_formula_sum "Si O2"
_cell_formula_units_Z 40
_cell_length_a 19.506756
_cell_length_b 19.506756
_cell_length_c 8.847370
_cell_angle_alpha 90.000000
_cell_angle_beta 90.000000
_cell_angle_gamma 120.000000
_cell_volume 2915.512615
_symmetry_space_group_name_H-M "P -3 1 M "
_symmetry_group_IT_number 162
_symmetry_cell_setting 'hexagonal'
loop_
_space_group_symop_operation_xyz
x,y,z
-y,x-y,z
-x+y,-x,z
-y,-x,-z
-x+y,y,-z
x,x-y,-z
-x,-y,-z
y,-x+y,-z
x-y,x,-z
y,x,z
x-y,-y,z
-x,-x+y,z
loop_
_atom_site_type_symbol
_atom_site_label
_atom_site_fract_x
_atom_site_fract_y
_atom_site_fract_z
Si Si1 0.666667 0.333335 0.180864
Si Si2 0.465224 0.373699 0.181277
Si Si3 0.091524 0.465223 0.181277
Si Si4 0.245754 0.754247 0.320552
O O1 0.711180 0.288824 0.242071
O O2 0.666668 0.333334 0.000000
O O3 0.403629 0.403629 0.216522
O O4 0.552434 0.447566 0.220084
O O5 0.450977 0.295469 0.264892
O O6 0.464706 0.362867 1.000000
O O7 0.155507 0.450976 0.264893
O O8 0.000000 0.403629 0.216522
O O9 0.250145 0.749856 0.500000
#
# Coordination Sequence:
#
# PCOD9577958 Si02
#       4
#     4  12  12  12
#     4  12  22  32  43  57  82 116 154 186 211 254
#     4   9  18  32  48  63  82 114 150 180 214 258
#     4   9  18  32  48  63  82 114 150 180 214 258
#     4  12  22  30  44  67  89 110 141 185 232 263
#
# _framework density 13.719713
#
# number of rings (size 3 to 8) (size 9 to 14) (size 15 to 20)
#    0.000    1.800    3.000    5.400    0.000    1.200 
#    0.000    3.000    0.000    0.000    0.000    0.000 
#    0.000    0.000    0.000    0.900    0.000   17.400 
#
# Total GULP energy -223241.907660 kJ/mol
# GULP energy per Si atom -5581.047691 kJ/mol
# Density = 1.368849 g / cm^3
# Si number density = 13.719713 Si / 1000 Ang^3
#
#
#
# Elastic Constant Matrix: (Units=GPa)
#
#
# Indices 1 2 3 4 5 6 
#
# 1 85.8386 41.5142 47.4303 -0.0006 0.0002 0.0001
# 2 41.5142 85.8386 47.4304 0.0006 -0.0002 0.0002
# 3 47.4303 47.4304 74.9642 -0.0010 -0.0006 0.0003
# 4 -0.0006 0.0006 -0.0010 4.1554 -0.0007 0.0005
# 5 0.0002 -0.0002 -0.0006 -0.0007 4.1566 0.0006
# 6 0.0001 0.0002 0.0003 0.0005 0.0006 22.1624
#
#
#
# Elastic Compliance Matrix: (Units=1/GPa)
#
#
# Indices 1 2 3 4 5 6 
#
# 1 0.018706 -0.003855 -0.009397 0.000001 -0.000003 0.000000
# 2 -0.003855 0.018706 -0.009397 -0.000006 0.000000 0.000000
# 3 -0.009397 -0.009397 0.025230 0.000006 0.000003 0.000000
# 4 0.000001 -0.000006 0.000006 0.240653 0.000038 -0.000005
# 5 -0.000003 0.000000 0.000003 0.000038 0.240583 -0.000007
# 6 0.000000 0.000000 0.000000 -0.000005 -0.000007 0.045121
#
#
# Mechanical properties :
#
#
# Convention : Reuss Voigt Hill
#
# Bulk Modulus (GPa) = 57.64776 57.71016 57.67896
# Shear Modulus (GPa) = 7.81154 13.44597 10.62876
#
# Velocity S-wave (km/s) = 2.38873 3.13397 2.78638
# Velocity P-wave (km/s) = 7.05106 7.43308 7.24459
#
# Compressibility (1/GPa) = 0.01734673
#
# Stress axis : x y z
#
# Youngs Moduli (GPa) = 53.45838 53.45827 39.63499
#
# Poissons Ratio (x) = 0.20607 0.37243
# Poissons Ratio (y) = 0.20607 0.37243
# Poissons Ratio (z) = 0.50232 0.50233
#
# Static dielectric constant tensor:
#      x y z
#    x 1.450760 0.000000 0.000000 
#    y 0.000000 1.450760 0.000000 
#    z 0.000000 0.000000 1.450490 
# 
# From -- ./inp_files/1102.got.cif
#   From: 2010.05.17/outbox.cif.g08.bks.cpg/sg162_1_cif.got.tgz:1102.got - 2010.05.20 10:53:12.
