data_PCOD9577295
_publ_section_title
;
Structure prediction by ZEFSAII (Michael W. Deem and Ramdas Pophale) SiO2 
 PCOD9577295
Probable space group: P 3 C 1
;
_chemical_formula_sum "Si O2"
_cell_formula_units_Z 28
_cell_length_a 11.693345
_cell_length_b 11.693345
_cell_length_c 14.076909
_cell_angle_alpha 90.000000
_cell_angle_beta 90.000000
_cell_angle_gamma 120.000000
_cell_volume 1666.922702
_symmetry_space_group_name_H-M "P 3 C 1"
_symmetry_group_IT_number 158
_symmetry_cell_setting 'hexagonal'
loop_
_space_group_symop_operation_xyz
x,y,z
-y,x-y,z
-x+y,-x,z
-x+y,y,1/2+z
x,x-y,1/2+z
-y,-x,1/2+z
loop_
_atom_site_type_symbol
_atom_site_label
_atom_site_fract_x
_atom_site_fract_y
_atom_site_fract_z
Si Si1 0.080864 0.413281 0.971840
Si Si2 0.080860 0.667570 0.883832
Si Si3 0.484332 0.818277 0.677834
Si Si4 0.666668 0.333334 0.064494
Si Si5 0.666667 0.333334 0.791173
Si Si6 0.424003 0.212007 0.427832
O O1 0.077948 0.538968 0.927835
O O2 0.203557 0.407101 0.927840
O O3 0.942606 0.284850 0.947928
O O4 0.106696 0.441013 0.083680
O O5 0.106704 0.665680 0.771992
O O6 0.942594 0.657733 0.907734
O O7 0.332861 0.789491 0.677831
O O8 0.666668 0.333334 0.177834
O O9 0.719863 0.242445 0.017577
O O10 0.757577 0.280164 0.838091
#
# Coordination Sequence:
#
# PCOD9577295 Si02
#       6
#     6   6   6   2   2   6
#     4  12  21  40  61  89 125 156 205 262 306 369
#     4  12  21  40  61  89 125 156 205 262 306 369
#     4  10  20  34  62  98 116 158 204 260 322 348
#     4  10  20  40  61  86 118 157 200 250 310 371
#     4  10  20  40  61  86 118 157 200 250 310 371
#     4  10  24  38  58  90 122 160 200 246 320 362
#
# _framework density 16.797419999999999
#
# number of rings (size 3 to 8) (size 9 to 14) (size 15 to 20)
#    0.429    0.857    8.571    0.429    3.000    0.000 
#    5.143    0.000    0.000    0.000    0.000    0.000 
#    0.000    0.000    0.000    0.000    0.000    0.000 
#
# Total GULP energy -156251.481926 kJ/mol
# GULP energy per Si atom -5580.410069 kJ/mol
# Density = 1.675919 g / cm^3
# Si number density = 16.797420 Si / 1000 Ang^3
#
#
#
# Elastic Constant Matrix: (Units=GPa)
#
#
# Indices 1 2 3 4 5 6 
#
# 1 121.6834 64.5348 52.8159 0.0013 0.0000 0.0000
# 2 64.5348 121.6838 52.8159 -0.0012 0.0000 0.0000
# 3 52.8159 52.8159 179.8875 -0.0002 0.0000 0.0000
# 4 0.0013 -0.0012 -0.0002 11.9084 0.0000 0.0000
# 5 0.0000 0.0000 0.0000 0.0000 11.9083 0.0012
# 6 0.0000 0.0000 0.0000 0.0000 0.0012 28.5743
#
#
#
# Elastic Compliance Matrix: (Units=1/GPa)
#
#
# Indices 1 2 3 4 5 6 
#
# 1 0.011971 -0.005528 -0.001892 -0.000002 0.000000 0.000000
# 2 -0.005528 0.011971 -0.001892 0.000002 0.000000 0.000000
# 3 -0.001892 -0.001892 0.006670 0.000000 0.000000 0.000000
# 4 -0.000002 0.000002 0.000000 0.083974 0.000000 0.000000
# 5 0.000000 0.000000 0.000000 0.000000 0.083975 -0.000003
# 6 0.000000 0.000000 0.000000 0.000000 -0.000003 0.034997
#
#
# Mechanical properties :
#
#
# Convention : Reuss Voigt Hill
#
# Bulk Modulus (GPa) = 83.40856 84.84312 84.12584
# Shear Modulus (GPa) = 19.51787 27.35072 23.43429
#
# Velocity S-wave (km/s) = 3.41245 4.03956 3.73917
# Velocity P-wave (km/s) = 8.08021 8.50745 8.29658
#
# Compressibility (1/GPa) = 0.01198918
#
# Stress axis : x y z
#
# Youngs Moduli (GPa) = 83.53746 83.53780 149.92778
#
# Poissons Ratio (x) = 0.46176 0.28362
# Poissons Ratio (y) = 0.46176 0.28362
# Poissons Ratio (z) = 0.15803 0.15803
#
# Static dielectric constant tensor:
#      x y z
#    x 1.561270 0.000000 0.000000 
#    y 0.000000 1.561270 0.000000 
#    z 0.000000 0.000000 1.553300 
# 
# From -- ./inp_files/408.got.cif
#   From: 2010.05.17/outbox.cif.g08.bks.cpg/sg158_cif.got.tgz:408.got - 2010.05.20 10:49:59.
