data_PCOD9577909
_publ_section_title
;
Structure prediction by ZEFSAII (Michael W. Deem and Ramdas Pophale) SiO2 
 PCOD9577909
Probable space group: P -3 1 M 
;
_chemical_formula_sum "Si O2"
_cell_formula_units_Z 36
_cell_length_a 20.657699
_cell_length_b 20.657699
_cell_length_c 5.044106
_cell_angle_alpha 90.000000
_cell_angle_beta 90.000000
_cell_angle_gamma 120.000000
_cell_volume 1864.140863
_symmetry_space_group_name_H-M "P -3 1 M "
_symmetry_group_IT_number 162
_symmetry_cell_setting 'hexagonal'
loop_
_space_group_symop_operation_xyz
x,y,z
-y,x-y,z
-x+y,-x,z
-y,-x,-z
-x+y,y,-z
x,x-y,-z
-x,-y,-z
y,-x+y,-z
x-y,x,-z
y,x,z
x-y,-y,z
-x,-x+y,z
loop_
_atom_site_type_symbol
_atom_site_label
_atom_site_fract_x
_atom_site_fract_y
_atom_site_fract_z
Si Si1 0.848298 0.240846 0.739729
Si Si2 0.501004 0.913495 0.257742
Si Si3 0.152439 0.152439 0.957436
Si Si4 0.000000 0.246558 0.555532
O O1 0.789999 0.210001 0.500000
O O2 0.869214 0.324960 0.803790
O O3 0.923402 0.247960 0.604375
O O4 0.813489 0.186512 0.000000
O O5 0.442532 0.885064 0.500000
O O6 0.562191 0.000000 0.322985
O O7 0.457067 0.914133 0.000000
O O8 0.200126 0.200126 0.702432
O O9 0.072465 0.144930 0.000000
O O10 0.199403 0.199403 0.200980
#
# Coordination Sequence:
#
# PCOD9577909 Si02
#       4
#    12  12   6   6
#     4  12  24  40  65  98 133 169 210 264 322 383
#     4  10  21  40  66  93 124 160 209 263 311 371
#     4  12  25  42  62  83 118 170 224 272 322 386
#     4  12  24  42  61  93 128 164 212 272 332 374
#
# _framework density 19.311847
#
# number of rings (size 3 to 8) (size 9 to 14) (size 15 to 20)
#    0.000    0.667    1.667    8.167    0.000    0.000 
#    0.000    1.667    0.000   13.333    0.000    0.000 
#    0.000    0.000    0.000    0.000    0.000    0.000 
#
# Total GULP energy -200859.287980 kJ/mol
# GULP energy per Si atom -5579.424666 kJ/mol
# Density = 1.926789 g / cm^3
# Si number density = 19.311847 Si / 1000 Ang^3
#
#
#
# Elastic Constant Matrix: (Units=GPa)
#
#
# Indices 1 2 3 4 5 6 
#
# 1 100.4339 69.5617 34.6738 -0.0010 21.3578 0.0000
# 2 69.5617 100.4339 34.6738 0.0010 -21.3578 0.0000
# 3 34.6738 34.6738 139.0591 0.0000 0.0000 0.0000
# 4 -0.0010 0.0010 0.0000 15.1954 0.0000 -21.3578
# 5 21.3578 -21.3578 0.0000 0.0000 15.1954 -0.0010
# 6 0.0000 0.0000 0.0000 -21.3578 -0.0010 15.4361
#
#
#
# Elastic Compliance Matrix: (Units=1/GPa)
#
#
# Indices 1 2 3 4 5 6 
#
# 1 -0.013869 0.020417 -0.001633 -0.000002 0.048191 0.000000
# 2 0.020417 -0.013869 -0.001633 0.000002 -0.048191 0.000000
# 3 -0.001633 -0.001633 0.008005 0.000000 0.000000 0.000000
# 4 -0.000002 0.000002 0.000000 -0.069658 0.000000 -0.096381
# 5 0.048191 -0.048191 0.000000 0.000000 -0.069658 -0.000004
# 6 0.000000 0.000000 0.000000 -0.096381 -0.000004 -0.068572
#
#
# Mechanical properties :
#
#
# Convention : Reuss Voigt Hill
#
# Bulk Modulus (GPa) = 68.62835 68.63838 68.63336
# Shear Modulus (GPa) = -19.45019 22.56656 1.55818
#
# Velocity S-wave (km/s) = -3.17703 3.42209 0.89922
# Velocity P-wave (km/s) = 4.70702 7.15776 6.05762
#
# Compressibility (1/GPa) = 0.01457124
#
# Stress axis : x y z
#
# Youngs Moduli (GPa) = -72.10473 -72.10473 124.91439
#
# Poissons Ratio (x) = 1.47219 0.20397
# Poissons Ratio (y) = 1.47219 0.20397
# Poissons Ratio (z) = -0.11774 -0.11774
#
# Static dielectric constant tensor:
#      x y z
#    x 1.621210 0.000000 0.000000 
#    y 0.000000 1.621210 0.000000 
#    z 0.000000 0.000000 1.779350 
# 
# From -- ./inp_files/296.got.cif
#   From: 2010.05.17/outbox.cif.g08.bks.cpg/sg162_1_cif.got.tgz:296.got - 2010.05.20 10:53:12.
