data_PCOD9577465
_publ_section_title
;
Structure prediction by ZEFSAII (Michael W. Deem and Ramdas Pophale) SiO2 
 PCOD9577465
Probable space group: R 3 M
;
_chemical_formula_sum "Si O2"
_cell_formula_units_Z 126
_cell_length_a 17.731773
_cell_length_b 17.731773
_cell_length_c 26.128550
_cell_angle_alpha 90.000000
_cell_angle_beta 90.000000
_cell_angle_gamma 120.000000
_cell_volume 7114.596375
_symmetry_space_group_name_H-M "R 3 M"
_symmetry_group_IT_number 160
_symmetry_cell_setting 'hexagonal'
loop_
_space_group_symop_operation_xyz
x,y,z
-y,x-y,z
-x+y,-x,z
-x+y,y,z
x,x-y,z
-y,-x,z
2/3+x,1/3+y,1/3+z
2/3-y,1/3+x-y,1/3+z
2/3-x+y,1/3-x,1/3+z
2/3-x+y,1/3+y,1/3+z
2/3+x,1/3+x-y,1/3+z
2/3-y,1/3-x,1/3+z
1/3+x,2/3+y,2/3+z
1/3-y,2/3+x-y,2/3+z
1/3-x+y,2/3-x,2/3+z
1/3-x+y,2/3+y,2/3+z
1/3+x,2/3+x-y,2/3+z
1/3-y,2/3-x,2/3+z
loop_
_atom_site_type_symbol
_atom_site_label
_atom_site_fract_x
_atom_site_fract_y
_atom_site_fract_z
Si Si1 0.564871 0.601525 0.584289
Si Si2 0.333715 0.845516 0.683997
Si Si3 0.336985 0.973561 0.381843
Si Si4 0.626417 0.544722 0.153833
Si Si5 0.663320 0.505735 0.733107
Si Si6 0.521587 0.877739 0.183624
Si Si7 0.095274 0.360747 0.277375
O O1 0.499934 0.500067 0.590999
O O2 0.539757 0.650155 0.627769
O O3 0.547709 0.633155 0.530128
O O4 0.664090 0.625214 0.592460
O O5 0.424061 0.848122 0.698667
O O6 0.252038 0.747963 0.684420
O O7 0.310309 0.909151 0.716292
O O8 0.327855 0.915500 0.430885
O O9 0.322494 0.921470 0.328846
O O10 0.255967 0.991985 0.381851
O O11 0.558564 0.441437 0.153523
O O12 0.570121 0.589320 0.171414
O O13 0.751322 0.502643 0.723005
O O14 0.577725 0.422276 0.711742
O O15 0.653147 0.505469 0.794774
O O16 0.423453 0.846906 0.199209
O O17 0.572223 0.867334 0.230409
O O18 0.164381 0.328762 0.287835
#
# Coordination Sequence:
#
# PCOD9577465 Si02
#       7
#    18  18  18  18  18  18  18
#     4   9  19  33  51  74 101 129 166 215 261 297
#     4  10  20  35  54  77 100 126 159 203 255 306
#     4  10  20  31  47  71 102 131 161 198 242 292
#     4   9  16  30  50  71  95 127 164 205 246 289
#     4  10  18  30  47  70  98 129 162 199 239 282
#     4   8  16  29  47  69  93 119 156 203 246 283
#     4  10  18  30  48  70  96 131 168 201 240 293
#
# _framework density 17.710070000000002
#
# number of rings (size 3 to 8) (size 9 to 14) (size 15 to 20)
#    0.000    2.571    0.000    3.714    0.000    4.571 
#    0.000    0.714    0.000    0.857    0.000    0.000 
#    0.000    0.000    0.000    0.429    0.000    0.000 
#
# Total GULP energy -233846.584326 kJ/mol
# GULP energy per Si atom -5567.775817 kJ/mol
# Density = 1.766976 g / cm^3
# Si number density = 17.710070 Si / 1000 Ang^3
#
#
#
# Elastic Constant Matrix: (Units=GPa)
#
#
# Indices 1 2 3 4 5 6 
#
# 1 56.5109 24.3290 8.1327 -2.9519 0.0003 0.0000
# 2 24.3290 56.5109 8.1327 2.9519 -0.0003 0.0000
# 3 8.1327 8.1327 68.1139 0.0000 0.0000 0.0000
# 4 -2.9519 2.9519 0.0000 13.4915 0.0000 -0.0003
# 5 0.0003 -0.0003 0.0000 0.0000 13.4915 -2.9519
# 6 0.0000 0.0000 0.0000 -0.0003 -2.9519 16.0910
#
#
#
# Elastic Compliance Matrix: (Units=1/GPa)
#
#
# Indices 1 2 3 4 5 6 
#
# 1 0.022524 -0.009849 -0.001513 0.007083 -0.000001 0.000000
# 2 -0.009849 0.022524 -0.001513 -0.007083 0.000001 0.000000
# 3 -0.001513 -0.001513 0.015043 0.000000 0.000000 0.000000
# 4 0.007083 -0.007083 0.000000 0.077221 0.000000 0.000002
# 5 -0.000001 0.000001 0.000000 0.000000 0.077221 0.014166
# 6 0.000000 0.000000 0.000000 0.000002 0.014166 0.064745
#
#
# Mechanical properties :
#
#
# Convention : Reuss Voigt Hill
#
# Bulk Modulus (GPa) = 29.12175 29.14716 29.13446
# Shear Modulus (GPa) = 15.79909 17.98421 16.89165
#
# Velocity S-wave (km/s) = 2.99004 3.19012 3.09170
# Velocity P-wave (km/s) = 5.32914 5.48296 5.40660
#
# Compressibility (1/GPa) = 0.03433859
#
# Stress axis : x y z
#
# Youngs Moduli (GPa) = 44.39776 44.39776 66.47756
#
# Poissons Ratio (x) = 0.43728 0.10060
# Poissons Ratio (y) = 0.43728 0.10060
# Poissons Ratio (z) = 0.06719 0.06719
#
# Static dielectric constant tensor:
#      x y z
#    x 1.616150 0.000000 0.000000 
#    y 0.000000 1.616150 0.000000 
#    z 0.000000 0.000000 1.620920 
# 
# From -- ./inp_files/3764.got.cif
#   From: 2010.05.17/outbox.cif.g08.bks.cpg/sg160_2_cif.got.tgz:3764.got - 2010.05.20 10:51:19.
