data_PCOD9577961
_publ_section_title
;
Structure prediction by ZEFSAII (Michael W. Deem and Ramdas Pophale) SiO2 
 PCOD9577961
Probable space group: P -3 1 M 
;
_chemical_formula_sum "Si O2"
_cell_formula_units_Z 72
_cell_length_a 24.478873
_cell_length_b 24.478873
_cell_length_c 9.376260
_cell_angle_alpha 90.000000
_cell_angle_beta 90.000000
_cell_angle_gamma 120.000000
_cell_volume 4865.675163
_symmetry_space_group_name_H-M "P -3 1 M "
_symmetry_group_IT_number 162
_symmetry_cell_setting 'hexagonal'
loop_
_space_group_symop_operation_xyz
x,y,z
-y,x-y,z
-x+y,-x,z
-y,-x,-z
-x+y,y,-z
x,x-y,-z
-x,-y,-z
y,-x+y,-z
x-y,x,-z
y,x,z
x-y,-y,z
-x,-x+y,z
loop_
_atom_site_type_symbol
_atom_site_label
_atom_site_fract_x
_atom_site_fract_y
_atom_site_fract_z
Si Si1 0.818257 0.636514 0.836391
Si Si2 0.147675 0.512892 0.330342
Si Si3 0.926514 0.634133 0.670786
Si Si4 0.741619 0.483238 0.836931
Si Si5 0.487108 0.852325 0.330341
Si Si6 0.073486 0.365867 0.670787
O O1 0.882396 0.654726 0.753358
O O2 0.779944 0.559887 0.837504
O O3 0.772330 0.654726 0.753359
O O4 0.829057 0.658113 0.000000
O O5 0.099445 0.439842 0.295169
O O6 0.212370 0.534570 0.246152
O O7 0.123375 0.561687 0.300052
O O8 0.160092 0.515259 0.500000
O O9 0.919300 0.637855 0.500000
O O10 0.000000 0.675530 0.706818
O O11 0.677800 0.465430 0.753849
O O12 0.730563 0.461126 0.000000
O O13 0.560158 0.900555 0.295168
O O14 0.000000 0.324470 0.706819
#
# Coordination Sequence:
#
# PCOD9577961 Si02
#       6
#    12  12  12  12  12  12
#     4   9  17  29  45  63  85 113 142 174 209 250
#     4   9  17  29  44  61  82 108 139 179 226 273
#     4   9  17  29  46  67  89 114 144 177 216 263
#     4   9  17  29  43  57  75 103 139 176 217 264
#     4   9  17  29  44  61  82 108 139 179 226 273
#     4   9  17  29  46  67  89 114 144 177 216 263
#
# _framework density 14.797535
#
# number of rings (size 3 to 8) (size 9 to 14) (size 15 to 20)
#    0.000    3.000    0.000    1.000    0.000    6.000 
#    1.000    3.333    0.000    0.000    0.000    9.333 
#    0.000    0.000    0.000    0.500    0.000    9.667 
#
# Total GULP energy -400953.731548 kJ/mol
# GULP energy per Si atom -5568.801827 kJ/mol
# Density = 1.476385 g / cm^3
# Si number density = 14.797535 Si / 1000 Ang^3
#
#
#
# Elastic Constant Matrix: (Units=GPa)
#
#
# Indices 1 2 3 4 5 6 
#
# 1 86.4820 61.3402 49.0988 0.0000 0.0000 0.0000
# 2 61.3402 86.4820 49.0988 0.0000 0.0000 0.0000
# 3 49.0988 49.0988 49.1908 0.0000 0.0000 0.0000
# 4 0.0000 0.0000 0.0000 11.7625 0.0000 0.0000
# 5 0.0000 0.0000 0.0000 0.0000 11.7625 0.0000
# 6 0.0000 0.0000 0.0000 0.0000 0.0000 12.5709
#
#
#
# Elastic Compliance Matrix: (Units=1/GPa)
#
#
# Indices 1 2 3 4 5 6 
#
# 1 0.029926 -0.009849 -0.020039 0.000000 0.000000 0.000000
# 2 -0.009849 0.029926 -0.020039 0.000000 0.000000 0.000000
# 3 -0.020039 -0.020039 0.060333 0.000000 0.000000 0.000000
# 4 0.000000 0.000000 0.000000 0.085016 0.000000 0.000000
# 5 0.000000 0.000000 0.000000 0.000000 0.085016 0.000000
# 6 0.000000 0.000000 0.000000 0.000000 0.000000 0.079549
#
#
# Mechanical properties :
#
#
# Convention : Reuss Voigt Hill
#
# Bulk Modulus (GPa) = 49.19050 60.13669 54.66359
# Shear Modulus (GPa) = 10.49549 11.39367 10.94458
#
# Velocity S-wave (km/s) = 2.66611 2.77785 2.72255
# Velocity P-wave (km/s) = 6.54156 7.14258 6.84867
#
# Compressibility (1/GPa) = 0.02032913
#
# Stress axis : x y z
#
# Youngs Moduli (GPa) = 33.41620 33.41620 16.57479
#
# Poissons Ratio (x) = 0.32911 0.33215
# Poissons Ratio (y) = 0.32911 0.33215
# Poissons Ratio (z) = 0.66964 0.66964
#
# Static dielectric constant tensor:
#      x y z
#    x 1.473300 0.000000 0.000000 
#    y 0.000000 1.473300 0.000000 
#    z 0.000000 0.000000 1.497440 
# 
# From -- ./inp_files/1693.got.cif
#   From: 2010.05.17/outbox.cif.g08.bks.cpg/sg162_1_cif.got.tgz:1693.got - 2010.05.20 10:53:12.
