data_PCOD9577368
_publ_section_title
;
Structure prediction by ZEFSAII (Michael W. Deem and Ramdas Pophale) SiO2 
 PCOD9577368
Probable space group: P 3 1 C
;
_chemical_formula_sum "Si O2"
_cell_formula_units_Z 30
_cell_length_a 16.163216
_cell_length_b 16.163216
_cell_length_c 7.726048
_cell_angle_alpha 90.000000
_cell_angle_beta 90.000000
_cell_angle_gamma 120.000000
_cell_volume 1748.008689
_symmetry_space_group_name_H-M "P 3 1 C"
_symmetry_group_IT_number 159
_symmetry_cell_setting 'hexagonal'
loop_
_space_group_symop_operation_xyz
x,y,z
-y,x-y,z
-x+y,-x,z
y,x,1/2+z
x-y,-y,1/2+z
-x,-x+y,1/2+z
loop_
_atom_site_type_symbol
_atom_site_label
_atom_site_fract_x
_atom_site_fract_y
_atom_site_fract_z
Si Si1 0.111451 0.406710 0.593690
Si Si2 0.111451 0.406710 0.176893
Si Si3 0.771217 0.326746 0.385291
Si Si4 0.108769 0.891329 0.588861
Si Si5 0.891231 0.782560 0.681721
O O1 0.127055 0.422544 0.385291
O O2 0.175288 0.496904 0.714130
O O3 0.129175 0.320265 0.654725
O O4 1.000000 0.367031 0.635291
O O5 0.129175 0.320265 0.115857
O O6 0.175288 0.496904 0.056453
O O7 0.758869 0.419900 0.385291
O O8 0.116601 0.889536 0.385291
O O9 0.000000 0.818923 0.635291
O O10 0.139333 0.000000 0.635291
#
# Coordination Sequence:
#
# PCOD9577368 Si02
#       5
#     6   6   6   6   6
#     4  10  20  38  66  89 117 161 202 242 299 362
#     4  10  20  38  66  89 117 161 202 242 299 362
#     4  10  24  42  64  90 120 156 190 256 300 350
#     4  10  20  31  51  82 118 161 196 242 290 352
#     4  10  20  31  51  82 118 161 196 242 290 352
#
# _framework density 17.162386999999999
#
# number of rings (size 3 to 8) (size 9 to 14) (size 15 to 20)
#    0.400    1.600    2.000    1.600    5.600    1.600 
#    0.000    2.000    0.000    0.000    0.000    0.000 
#    0.000    0.000    0.000    0.000    0.000    0.000 
#
# Total GULP energy -167120.229347 kJ/mol
# GULP energy per Si atom -5570.674312 kJ/mol
# Density = 1.712332 g / cm^3
# Si number density = 17.162387 Si / 1000 Ang^3
#
#
#
# Elastic Constant Matrix: (Units=GPa)
#
#
# Indices 1 2 3 4 5 6 
#
# 1 108.6911 60.9006 50.4045 0.0000 0.0000 0.0000
# 2 60.9006 108.6911 50.4045 0.0000 0.0000 0.0000
# 3 50.4045 50.4045 105.0325 0.0000 0.0000 0.0000
# 4 0.0000 0.0000 0.0000 30.7463 0.0000 0.0000
# 5 0.0000 0.0000 0.0000 0.0000 30.7463 0.0000
# 6 0.0000 0.0000 0.0000 0.0000 0.0000 23.8953
#
#
#
# Elastic Compliance Matrix: (Units=1/GPa)
#
#
# Indices 1 2 3 4 5 6 
#
# 1 0.014587 -0.006337 -0.003959 0.000000 0.000000 0.000000
# 2 -0.006337 0.014587 -0.003959 0.000000 0.000000 0.000000
# 3 -0.003959 -0.003959 0.013321 0.000000 0.000000 0.000000
# 4 0.000000 0.000000 0.000000 0.032524 0.000000 0.000000
# 5 0.000000 0.000000 0.000000 0.000000 0.032524 0.000000
# 6 0.000000 0.000000 0.000000 0.000000 0.000000 0.041849
#
#
# Mechanical properties :
#
#
# Convention : Reuss Voigt Hill
#
# Bulk Modulus (GPa) = 71.50924 71.75932 71.63428
# Shear Modulus (GPa) = 27.38743 27.79124 27.58934
#
# Velocity S-wave (km/s) = 3.99906 4.02843 4.01377
# Velocity P-wave (km/s) = 7.94229 7.97123 7.95677
#
# Compressibility (1/GPa) = 0.01398421
#
# Stress axis : x y z
#
# Youngs Moduli (GPa) = 68.55299 68.55299 75.07097
#
# Poissons Ratio (x) = 0.43445 0.29721
# Poissons Ratio (y) = 0.43445 0.29721
# Poissons Ratio (z) = 0.27141 0.27141
#
# Static dielectric constant tensor:
#      x y z
#    x 1.546810 0.000000 0.000000 
#    y 0.000000 1.546810 0.000000 
#    z 0.000000 0.000000 1.584130 
# 
# From -- ./inp_files/349.got.cif
#   From: 2010.05.17/outbox.cif.g08.bks.cpg/sg159_cif.got.tgz:349.got - 2010.05.20 10:50:30.
