data_PCOD9577802
_publ_section_title
;
Structure prediction by ZEFSAII (Michael W. Deem and Ramdas Pophale) SiO2 
 PCOD9577802
Probable space group: P -3 1 M 
;
_chemical_formula_sum "Si O2"
_cell_formula_units_Z 46
_cell_length_a 13.599173
_cell_length_b 13.599173
_cell_length_c 15.013551
_cell_angle_alpha 90.000000
_cell_angle_beta 90.000000
_cell_angle_gamma 120.000000
_cell_volume 2404.579014
_symmetry_space_group_name_H-M "P -3 1 M "
_symmetry_group_IT_number 162
_symmetry_cell_setting 'hexagonal'
loop_
_space_group_symop_operation_xyz
x,y,z
-y,x-y,z
-x+y,-x,z
-y,-x,-z
-x+y,y,-z
x,x-y,-z
-x,-y,-z
y,-x+y,-z
x-y,x,-z
y,x,z
x-y,-y,z
-x,-x+y,z
loop_
_atom_site_type_symbol
_atom_site_label
_atom_site_fract_x
_atom_site_fract_y
_atom_site_fract_z
Si Si1 0.333334 0.666668 0.889815
Si Si2 0.402145 0.000000 0.644428
Si Si3 0.442812 0.236482 0.229929
Si Si4 0.235188 0.235188 0.508207
Si Si5 0.128716 0.254942 0.095021
Si Si6 0.376599 0.000000 0.326575
O O1 0.455885 0.712921 0.842416
O O2 0.333334 0.666667 0.000000
O O3 0.444951 0.118533 0.699034
O O4 0.321950 0.000000 0.565742
O O5 0.518268 0.000000 0.623509
O O6 0.331313 0.202623 0.173560
O O7 0.426615 0.118801 0.271630
O O8 0.225842 0.112921 0.500000
O O9 0.288120 0.288120 0.603499
O O10 0.151207 0.151207 0.082066
O O11 0.000000 0.212672 0.116252
O O12 0.158762 0.317524 0.000000
#
# Coordination Sequence:
#
# PCOD9577802 Si02
#       6
#     4   6  12   6  12   6
#     4  12  27  45  66 100 137 175 243 306 339 402
#     4  12  25  45  71  98 134 181 230 281 339 415
#     4  12  23  42  67  93 132 176 226 283 344 410
#     4  12  26  46  74 110 146 176 220 284 346 412
#     4  10  20  34  55  87 123 165 216 270 336 409
#     4  12  25  45  71  98 134 181 230 281 339 415
#
# _framework density 19.130167
#
# number of rings (size 3 to 8) (size 9 to 14) (size 15 to 20)
#    0.000    0.522    7.826    1.565    0.000    1.043 
#    0.000    1.304    0.000    0.000    0.000    0.000 
#    0.000    0.000    0.000    0.000    0.000    0.000 
#
# Total GULP energy -256355.602628 kJ/mol
# GULP energy per Si atom -5572.947883 kJ/mol
# Density = 1.908663 g / cm^3
# Si number density = 19.130167 Si / 1000 Ang^3
#
#
#
# Elastic Constant Matrix: (Units=GPa)
#
#
# Indices 1 2 3 4 5 6 
#
# 1 107.6141 27.2830 30.4352 0.0000 6.0115 -0.0002
# 2 27.2830 107.6132 30.4350 -0.0001 -6.0117 -0.0006
# 3 30.4352 30.4350 73.4623 -0.0001 -0.0001 -0.0003
# 4 0.0000 -0.0001 -0.0001 38.3263 0.0000 -6.0118
# 5 6.0115 -6.0117 -0.0001 0.0000 38.3263 0.0001
# 6 -0.0002 -0.0006 -0.0003 -6.0118 0.0001 40.1654
#
#
#
# Elastic Compliance Matrix: (Units=1/GPa)
#
#
# Indices 1 2 3 4 5 6 
#
# 1 0.010933 -0.001815 -0.003777 0.000000 -0.002000 0.000000
# 2 -0.001815 0.010933 -0.003777 0.000000 0.002000 0.000000
# 3 -0.003777 -0.003777 0.016742 0.000000 0.000000 0.000000
# 4 0.000000 0.000000 0.000000 0.026719 0.000000 0.003999
# 5 -0.002000 0.002000 0.000000 0.000000 0.026719 0.000000
# 6 0.000000 0.000000 0.000000 0.003999 0.000000 0.025496
#
#
# Mechanical properties :
#
#
# Convention : Reuss Voigt Hill
#
# Bulk Modulus (GPa) = 50.33224 51.66623 50.99923
# Shear Modulus (GPa) = 34.98857 36.73269 35.86063
#
# Velocity S-wave (km/s) = 4.28129 4.38670 4.33432
# Velocity P-wave (km/s) = 7.12789 7.26112 7.19481
#
# Compressibility (1/GPa) = 0.01986798
#
# Stress axis : x y z
#
# Youngs Moduli (GPa) = 91.46908 91.46844 59.72886
#
# Poissons Ratio (x) = 0.16603 0.22562
# Poissons Ratio (y) = 0.16603 0.22562
# Poissons Ratio (z) = 0.34551 0.34551
#
# Static dielectric constant tensor:
#      x y z
#    x 1.651300 0.000000 0.000000 
#    y 0.000000 1.651300 0.000000 
#    z 0.000000 0.000000 1.689040 
# 
# From -- ./inp_files/2109.got.cif
#   From: 2010.05.17/outbox.cif.g08.bks.cpg/sg162_2_cif.got.tgz:2109.got - 2010.05.20 10:53:12.
