data_PCOD9577106
_publ_section_title
;
Structure prediction by ZEFSAII (Michael W. Deem and Ramdas Pophale) SiO2 
 PCOD9577106
Probable space group: R 3 2
;
_chemical_formula_sum "Si O2"
_cell_formula_units_Z 72
_cell_length_a 21.322686
_cell_length_b 21.322686
_cell_length_c 10.103746
_cell_angle_alpha 90.000000
_cell_angle_beta 90.000000
_cell_angle_gamma 120.000000
_cell_volume 3978.293998
_symmetry_space_group_name_H-M "R 3 2"
_symmetry_group_IT_number 155
_symmetry_cell_setting 'hexagonal'
loop_
_space_group_symop_operation_xyz
x,y,z
-y,x-y,z
-x+y,-x,z
x-y,-y,-z
-x,-x+y,-z
y,x,-z
2/3+x,1/3+y,1/3+z
2/3-y,1/3+x-y,1/3+z
2/3-x+y,1/3-x,1/3+z
2/3+x-y,1/3-y,1/3-z
2/3-x,1/3-x+y,1/3-z
2/3+y,1/3+x,1/3-z
1/3+x,2/3+y,2/3+z
1/3-y,2/3+x-y,2/3+z
1/3-x+y,2/3-x,2/3+z
1/3+x-y,2/3-y,2/3-z
1/3-x,2/3-x+y,2/3-z
1/3+y,2/3+x,2/3-z
loop_
_atom_site_type_symbol
_atom_site_label
_atom_site_fract_x
_atom_site_fract_y
_atom_site_fract_z
Si Si1 0.421160 0.281697 0.954639
Si Si2 0.614876 0.868050 0.461277
Si Si3 0.535752 0.616430 0.291214
Si Si4 0.245522 0.048658 0.881019
O O1 0.468923 0.333334 0.833334
O O2 0.338236 0.249490 0.907134
O O3 0.431671 0.213217 0.973536
O O4 0.438141 0.332714 0.080580
O O5 0.666667 0.878443 0.333334
O O6 0.573279 0.784935 0.505260
O O7 0.544409 0.666667 0.166667
O O8 0.584065 0.579329 0.261516
O O9 0.563945 0.664968 0.421115
O O10 0.195152 0.000000 0.000000
#
# Coordination Sequence:
#
# PCOD9577106 Si02
#       4
#    18  18  18  18
#     4   9  18  34  54  78 107 143 185 228 275 323
#     4   9  18  35  55  76 108 145 183 230 275 321
#     4  11  20  33  57  83 111 145 179 222 273 329
#     4  11  21  34  54  83 115 143 174 218 274 331
#
# _framework density 18.098210000000002
#
# number of rings (size 3 to 8) (size 9 to 14) (size 15 to 20)
#    0.000    2.000    0.000    7.500    0.000    0.000 
#    0.000   28.750    0.000    9.000    0.000    0.000 
#    0.000    0.000    0.000    0.000    0.000    0.000 
#
# Total GULP energy -134075.618501 kJ/mol
# GULP energy per Si atom -5586.484104 kJ/mol
# Density = 1.805702 g / cm^3
# Si number density = 18.098210 Si / 1000 Ang^3
#
#
#
# Elastic Constant Matrix: (Units=GPa)
#
#
# Indices 1 2 3 4 5 6 
#
# 1 93.1806 62.8450 41.8272 -19.3550 0.0001 -0.0004
# 2 62.8450 93.1805 41.8274 19.3551 -0.0005 -0.0002
# 3 41.8272 41.8274 88.9417 0.0001 -0.0009 -0.0009
# 4 -19.3550 19.3551 0.0001 13.3425 0.0001 -0.0004
# 5 0.0001 -0.0005 -0.0009 0.0001 13.3414 -19.3557
# 6 -0.0004 -0.0002 -0.0009 -0.0004 -19.3557 15.1676
#
#
#
# Elastic Compliance Matrix: (Units=1/GPa)
#
#
# Indices 1 2 3 4 5 6 
#
# 1 -0.015081 0.023651 -0.004030 -0.056185 0.000002 0.000001
# 2 0.023651 -0.015081 -0.004030 0.056186 -0.000002 0.000000
# 3 -0.004030 -0.004030 0.015034 0.000000 -0.000002 -0.000002
# 4 -0.056185 0.056186 0.000000 -0.088061 0.000002 0.000000
# 5 0.000002 -0.000002 -0.000002 0.000002 -0.088038 -0.112347
# 6 0.000001 0.000000 -0.000002 0.000000 -0.112347 -0.077438
#
#
# Mechanical properties :
#
#
# Convention : Reuss Voigt Hill
#
# Bulk Modulus (GPa) = 62.29382 63.14468 62.71925
# Shear Modulus (GPa) = -16.97829 16.95719 -0.01055
#
# Velocity S-wave (km/s) = -3.06620 3.06429 -0.07643
# Velocity P-wave (km/s) = 4.68606 6.89098 5.89257
#
# Compressibility (1/GPa) = 0.01605296
#
# Stress axis : x y z
#
# Youngs Moduli (GPa) = -66.30981 -66.30932 66.51562
#
# Poissons Ratio (x) = 1.56827 0.26808
# Poissons Ratio (y) = 1.56829 0.26808
# Poissons Ratio (z) = -0.26725 -0.26725
#
# Static dielectric constant tensor:
#      x y z
#    x 1.610190 0.000000 0.000000 
#    y 0.000000 1.610190 0.000000 
#    z 0.000000 0.000000 1.646190 
# 
# From -- ./inp_files/2111.got.cif
#   From: 2010.05.17/outbox.cif.g08.bks.cpg/sg155_2_cif.got.tgz:2111.got - 2010.05.20 10:44:35.
