data_PCOD9577729
_publ_section_title
;
Structure prediction by ZEFSAII (Michael W. Deem and Ramdas Pophale) SiO2 
 PCOD9577729
Probable space group: P -3 1 M 
;
_chemical_formula_sum "Si O2"
_cell_formula_units_Z 48
_cell_length_a 22.152827
_cell_length_b 22.152827
_cell_length_c 6.770998
_cell_angle_alpha 90.000000
_cell_angle_beta 90.000000
_cell_angle_gamma 120.000000
_cell_volume 2877.674240
_symmetry_space_group_name_H-M "P -3 1 M "
_symmetry_group_IT_number 162
_symmetry_cell_setting 'hexagonal'
loop_
_space_group_symop_operation_xyz
x,y,z
-y,x-y,z
-x+y,-x,z
-y,-x,-z
-x+y,y,-z
x,x-y,-z
-x,-y,-z
y,-x+y,-z
x-y,x,-z
y,x,z
x-y,-y,z
-x,-x+y,z
loop_
_atom_site_type_symbol
_atom_site_label
_atom_site_fract_x
_atom_site_fract_y
_atom_site_fract_z
Si Si1 0.080459 0.292317 0.445369
Si Si2 0.402562 0.325873 0.270022
Si Si3 0.666825 0.191128 0.531023
Si Si4 0.583930 0.729944 0.124846
O O1 0.131484 0.262968 0.500000
O O2 0.080492 0.338216 0.631500
O O3 0.115893 0.349290 0.269940
O O4 0.000000 0.236975 0.400472
O O5 0.389000 0.389000 0.317262
O O6 0.470692 0.332728 0.370376
O O7 0.404690 0.315493 0.038031
O O8 0.732447 0.267554 0.500000
O O9 0.595915 0.191830 0.500000
O O10 0.682651 0.166038 0.739801
O O11 0.576166 0.788083 0.000000
#
# Coordination Sequence:
#
# PCOD9577729 Si02
#       4
#    12  12  12  12
#     4  10  19  32  54  84 114 142 178 222 268 321
#     4  10  20  36  58  82 107 137 175 227 281 319
#     4  11  23  39  56  77 108 144 182 222 264 322
#     4  11  18  36  58  79 106 138 178 226 270 317
#
# _framework density 16.680137999999999
#
# number of rings (size 3 to 8) (size 9 to 14) (size 15 to 20)
#    0.000    1.500    5.000    2.500    0.000    2.500 
#    0.000    1.250    0.000    0.250    0.000    0.000 
#    0.000    1.000    0.000    0.000    0.000    0.000 
#
# Total GULP energy -267678.068121 kJ/mol
# GULP energy per Si atom -5576.626419 kJ/mol
# Density = 1.664217 g / cm^3
# Si number density = 16.680138 Si / 1000 Ang^3
#
#
#
# Elastic Constant Matrix: (Units=GPa)
#
#
# Indices 1 2 3 4 5 6 
#
# 1 88.4397 89.0865 32.6451 0.0007 1.0891 0.0000
# 2 89.0865 88.4397 32.6451 -0.0007 -1.0891 0.0000
# 3 32.6451 32.6451 101.5570 0.0000 0.0000 0.0000
# 4 0.0007 -0.0007 0.0000 12.0439 0.0000 -1.0891
# 5 1.0891 -1.0891 0.0000 0.0000 12.0439 0.0007
# 6 0.0000 0.0000 0.0000 -1.0891 0.0007 -0.3234
#
#
#
# Elastic Compliance Matrix: (Units=1/GPa)
#
#
# Indices 1 2 3 4 5 6 
#
# 1 -0.589446 0.595834 -0.002053 0.000065 0.107179 0.000000
# 2 0.595834 -0.589446 -0.002053 -0.000065 -0.107179 0.000000
# 3 -0.002053 -0.002053 0.011167 0.000000 0.000000 0.000000
# 4 0.000065 -0.000065 0.000000 0.063646 0.000000 -0.214359
# 5 0.107179 -0.107179 0.000000 0.000000 0.063646 0.000130
# 6 0.000000 0.000000 0.000000 -0.214359 0.000130 -2.370559
#
#
# Mechanical properties :
#
#
# Convention : Reuss Voigt Hill
#
# Bulk Modulus (GPa) = 63.57528 65.24331 64.40930
# Shear Modulus (GPa) = -1.08951 13.02353 5.96701
#
# Velocity S-wave (km/s) = -0.80907 2.79728 1.89343
# Velocity P-wave (km/s) = 6.10936 7.04502 6.59381
#
# Compressibility (1/GPa) = 0.01572938
#
# Stress axis : x y z
#
# Youngs Moduli (GPa) = -1.69651 -1.69651 89.55083
#
# Poissons Ratio (x) = 1.01084 0.18389
# Poissons Ratio (y) = 1.01084 0.18389
# Poissons Ratio (z) = -0.00348 -0.00348
#
# Static dielectric constant tensor:
#      x y z
#    x 1.560410 0.000000 0.000000 
#    y 0.000000 1.560410 0.000000 
#    z 0.000000 0.000000 1.570730 
# 
# From -- ./inp_files/482.got.cif
#   From: 2010.05.17/outbox.cif.g08.bks.cpg/sg162_1_cif.got.tgz:482.got - 2010.05.20 10:53:12.
