data_PCOD9577506
_publ_section_title
;
Structure prediction by ZEFSAII (Michael W. Deem and Ramdas Pophale) SiO2 
 PCOD9577506
Probable space group: R 3 M
;
_chemical_formula_sum "Si O2"
_cell_formula_units_Z 108
_cell_length_a 24.059939
_cell_length_b 24.059939
_cell_length_c 14.111289
_cell_angle_alpha 90.000000
_cell_angle_beta 90.000000
_cell_angle_gamma 120.000000
_cell_volume 7074.347057
_symmetry_space_group_name_H-M "R 3 M"
_symmetry_group_IT_number 160
_symmetry_cell_setting 'hexagonal'
loop_
_space_group_symop_operation_xyz
x,y,z
-y,x-y,z
-x+y,-x,z
-x+y,y,z
x,x-y,z
-y,-x,z
2/3+x,1/3+y,1/3+z
2/3-y,1/3+x-y,1/3+z
2/3-x+y,1/3-x,1/3+z
2/3-x+y,1/3+y,1/3+z
2/3+x,1/3+x-y,1/3+z
2/3-y,1/3-x,1/3+z
1/3+x,2/3+y,2/3+z
1/3-y,2/3+x-y,2/3+z
1/3-x+y,2/3-x,2/3+z
1/3-x+y,2/3+y,2/3+z
1/3+x,2/3+x-y,2/3+z
1/3-y,2/3-x,2/3+z
loop_
_atom_site_type_symbol
_atom_site_label
_atom_site_fract_x
_atom_site_fract_y
_atom_site_fract_z
Si Si1 0.734253 0.801912 0.949063
Si Si2 0.135215 0.400879 0.056779
Si Si3 0.218065 0.043129 0.077852
Si Si4 0.357785 0.296499 0.101766
Si Si5 0.975530 0.605440 0.904085
Si Si6 0.709823 0.551451 0.594661
O O1 0.737597 0.868799 0.966002
O O2 0.732529 0.786516 0.838527
O O3 0.666691 0.749698 0.002927
O O4 0.795852 0.803163 0.992979
O O5 0.202093 0.404185 0.039954
O O6 0.119771 0.399207 0.167288
O O7 0.136518 0.462478 0.012758
O O8 0.209421 0.104711 0.068653
O O9 0.293249 0.064903 0.087064
O O10 0.182346 0.999934 0.169545
O O11 0.339366 0.339327 0.169599
O O12 0.386570 0.333283 0.002913
O O13 0.040038 0.601778 0.918845
O O14 0.771423 0.542846 0.603970
#
# Coordination Sequence:
#
# PCOD9577506 Si02
#       6
#    18  18  18  18  18  18
#     4  11  20  34  55  76 105 146 184 220 265 322
#     4  11  20  34  55  76 105 146 184 220 265 322
#     4  11  20  32  52  80 110 141 178 218 268 324
#     4  11  18  32  50  76 112 139 172 215 265 323
#     4  11  18  32  50  76 112 139 172 215 265 323
#     4  11  20  32  52  80 110 141 178 218 268 324
#
# _framework density 15.266425999999999
#
# number of rings (size 3 to 8) (size 9 to 14) (size 15 to 20)
#    0.000    1.000   10.000    2.000    0.000    0.000 
#    0.000    5.000    0.000    6.000    0.000    0.000 
#    0.000    1.333    0.000    0.000    0.000    0.000 
#
# Total GULP energy -200524.979301 kJ/mol
# GULP energy per Si atom -5570.138314 kJ/mol
# Density = 1.523168 g / cm^3
# Si number density = 15.266426 Si / 1000 Ang^3
#
#
#
# Elastic Constant Matrix: (Units=GPa)
#
#
# Indices 1 2 3 4 5 6 
#
# 1 79.6172 60.2092 51.0041 4.8890 0.0000 0.0000
# 2 60.2092 79.6172 51.0041 -4.8890 0.0000 0.0000
# 3 51.0041 51.0041 113.7768 0.0000 0.0000 0.0000
# 4 4.8890 -4.8890 0.0000 4.9130 0.0000 0.0000
# 5 0.0000 0.0000 0.0000 0.0000 4.9130 4.8890
# 6 0.0000 0.0000 0.0000 0.0000 4.8890 9.7040
#
#
#
# Elastic Compliance Matrix: (Units=1/GPa)
#
#
# Indices 1 2 3 4 5 6 
#
# 1 0.056978 -0.046351 -0.004764 -0.102824 0.000000 0.000000
# 2 -0.046351 0.056978 -0.004764 0.102824 0.000000 0.000000
# 3 -0.004764 -0.004764 0.013060 0.000000 0.000000 0.000000
# 4 -0.102824 0.102824 0.000000 0.408186 0.000000 -0.000001
# 5 0.000000 0.000000 0.000000 0.000000 0.408186 -0.205648
# 6 0.000000 0.000000 0.000000 -0.000001 -0.205648 0.206658
#
#
# Mechanical properties :
#
#
# Convention : Reuss Voigt Hill
#
# Bulk Modulus (GPa) = 65.53581 66.38290 65.95936
# Shear Modulus (GPa) = 3.94667 11.29225 7.61946
#
# Velocity S-wave (km/s) = 1.60960 2.72265 2.23648
# Velocity P-wave (km/s) = 6.81731 7.31171 7.06883
#
# Compressibility (1/GPa) = 0.01525883
#
# Stress axis : x y z
#
# Youngs Moduli (GPa) = 17.55063 17.55063 76.56748
#
# Poissons Ratio (x) = 0.81349 0.36477
# Poissons Ratio (y) = 0.81349 0.36477
# Poissons Ratio (z) = 0.08361 0.08361
#
# Static dielectric constant tensor:
#      x y z
#    x 1.518750 0.000000 0.000000 
#    y 0.000000 1.518750 0.000000 
#    z 0.000000 0.000000 1.569080 
# 
# From -- ./inp_files/2342.got.cif
#   From: 2010.05.17/outbox.cif.g08.bks.cpg/sg160_2_cif.got.tgz:2342.got - 2010.05.20 10:51:19.
