data_PCOD9577879
_publ_section_title
;
Structure prediction by ZEFSAII (Michael W. Deem and Ramdas Pophale) SiO2 
 PCOD9577879
Probable space group: P -3 1 M 
;
_chemical_formula_sum "Si O2"
_cell_formula_units_Z 54
_cell_length_a 25.432386
_cell_length_b 25.432386
_cell_length_c 4.961916
_cell_angle_alpha 90.000000
_cell_angle_beta 90.000000
_cell_angle_gamma 120.000000
_cell_volume 2779.420475
_symmetry_space_group_name_H-M "P -3 1 M "
_symmetry_group_IT_number 162
_symmetry_cell_setting 'hexagonal'
loop_
_space_group_symop_operation_xyz
x,y,z
-y,x-y,z
-x+y,-x,z
-y,-x,-z
-x+y,y,-z
x,x-y,-z
-x,-y,-z
y,-x+y,-z
x-y,x,-z
y,x,z
x-y,-y,z
-x,-x+y,z
loop_
_atom_site_type_symbol
_atom_site_label
_atom_site_fract_x
_atom_site_fract_y
_atom_site_fract_z
Si Si1 0.066401 0.933600 0.500000
Si Si2 0.927167 0.319360 0.009353
Si Si3 0.831000 0.066003 0.141465
Si Si4 0.762597 0.648934 0.512471
Si Si5 0.501284 0.930830 0.736394
O O1 0.113823 0.936688 0.716770
O O2 0.000000 0.908601 0.619745
O O3 0.910985 0.265703 0.220991
O O4 0.905046 0.361686 0.155359
O O5 0.000000 0.359515 0.968834
O O6 0.896692 0.290026 0.725092
O O7 0.790010 0.073900 0.364145
O O8 0.790467 0.000000 0.000792
O O9 0.868304 0.131697 0.000000
O O10 0.817046 0.634091 0.500000
O O11 0.451309 0.902618 0.500000
O O12 0.548643 0.000000 0.640658
O O13 0.467215 0.934429 0.000000
#
# Coordination Sequence:
#
# PCOD9577879 Si02
#       5
#     6  12  12  12  12
#     4  10  21  36  54  72  90 116 164 238 328 400
#     4  11  22  37  57  82 109 148 192 231 276 329
#     4  11  22  37  54  72  96 129 177 238 306 375
#     4  12  24  38  53  76 111 150 193 235 281 338
#     4   9  17  31  53  81 112 141 173 214 258 304
#
# _framework density 19.428508999999998
#
# number of rings (size 3 to 8) (size 9 to 14) (size 15 to 20)
#    0.000    1.333    1.111    6.111    0.000    3.556 
#    0.000    0.000    0.000    3.556    0.000    0.000 
#    0.000    0.000    0.000   56.000    0.000    0.222 
#
# Total GULP energy -301470.761012 kJ/mol
# GULP energy per Si atom -5582.791871 kJ/mol
# Density = 1.938429 g / cm^3
# Si number density = 19.428509 Si / 1000 Ang^3
#
#
#
# Elastic Constant Matrix: (Units=GPa)
#
#
# Indices 1 2 3 4 5 6 
#
# 1 66.3519 30.4480 13.4990 0.0005 2.2241 0.0000
# 2 30.4480 66.3519 13.4990 -0.0005 -2.2241 0.0000
# 3 13.4990 13.4990 78.4545 0.0000 0.0000 0.0000
# 4 0.0005 -0.0005 0.0000 41.8711 0.0000 -2.2241
# 5 2.2241 -2.2241 0.0000 0.0000 41.8711 0.0005
# 6 0.0000 0.0000 0.0000 -2.2241 0.0005 17.9520
#
#
#
# Elastic Compliance Matrix: (Units=1/GPa)
#
#
# Indices 1 2 3 4 5 6 
#
# 1 0.019444 -0.008593 -0.001867 0.000000 -0.001489 0.000000
# 2 -0.008593 0.019444 -0.001867 0.000000 0.001489 0.000000
# 3 -0.001867 -0.001867 0.013389 0.000000 0.000000 0.000000
# 4 0.000000 0.000000 0.000000 0.024041 0.000000 0.002979
# 5 -0.001489 0.001489 0.000000 0.000000 0.024041 -0.000001
# 6 0.000000 0.000000 0.000000 0.002979 -0.000001 0.056073
#
#
# Mechanical properties :
#
#
# Convention : Reuss Voigt Hill
#
# Bulk Modulus (GPa) = 36.20164 36.22777 36.21471
# Shear Modulus (GPa) = 26.27522 30.58634 28.43078
#
# Velocity S-wave (km/s) = 3.68150 3.97205 3.82953
# Velocity P-wave (km/s) = 6.06176 6.30265 6.18338
#
# Compressibility (1/GPa) = 0.02762306
#
# Stress axis : x y z
#
# Youngs Moduli (GPa) = 51.42979 51.42979 74.68960
#
# Poissons Ratio (x) = 0.44192 0.13945
# Poissons Ratio (y) = 0.44192 0.13945
# Poissons Ratio (z) = 0.09602 0.09602
#
# Static dielectric constant tensor:
#      x y z
#    x 1.723300 0.000000 0.000000 
#    y 0.000000 1.723300 0.000000 
#    z 0.000000 0.000000 1.749560 
# 
# From -- ./inp_files/551.got.cif
#   From: 2010.05.17/outbox.cif.g08.bks.cpg/sg162_1_cif.got.tgz:551.got - 2010.05.20 10:53:12.
