data_PCOD9577892
_publ_section_title
;
Structure prediction by ZEFSAII (Michael W. Deem and Ramdas Pophale) SiO2 
 PCOD9577892
Probable space group: P -3 1 M 
;
_chemical_formula_sum "Si O2"
_cell_formula_units_Z 84
_cell_length_a 17.875270
_cell_length_b 17.875270
_cell_length_c 15.692840
_cell_angle_alpha 90.000000
_cell_angle_beta 90.000000
_cell_angle_gamma 120.000000
_cell_volume 4342.475724
_symmetry_space_group_name_H-M "P -3 1 M "
_symmetry_group_IT_number 162
_symmetry_cell_setting 'hexagonal'
loop_
_space_group_symop_operation_xyz
x,y,z
-y,x-y,z
-x+y,-x,z
-y,-x,-z
-x+y,y,-z
x,x-y,-z
-x,-y,-z
y,-x+y,-z
x-y,x,-z
y,x,z
x-y,-y,z
-x,-x+y,z
loop_
_atom_site_type_symbol
_atom_site_label
_atom_site_fract_x
_atom_site_fract_y
_atom_site_fract_z
Si Si1 0.168779 0.667751 0.481438
Si Si2 0.532010 0.899717 0.993679
Si Si3 0.208578 0.896277 0.924411
Si Si4 0.190775 0.365612 0.249863
Si Si5 0.367270 0.900560 0.209182
Si Si6 0.317341 0.215404 0.572420
Si Si7 0.900503 0.376291 0.704091
O O1 0.269655 0.730346 0.500000
O O2 0.137710 0.568855 0.500000
O O3 0.123809 0.711079 0.536913
O O4 0.153283 0.666565 0.380960
O O5 0.544515 0.899106 0.892318
O O6 0.573428 0.000000 0.022256
O O7 0.428484 0.856967 0.000000
O O8 0.588878 0.869163 0.046327
O O9 0.161537 0.850663 0.836569
O O10 0.258466 0.000000 0.918091
O O11 0.139345 0.860656 0.000000
O O12 0.164944 0.439709 0.246431
O O13 0.149286 0.320854 0.339125
O O14 0.293545 0.406820 0.244692
O O15 0.439657 0.878374 0.241143
O O16 0.401894 0.000000 0.237228
O O17 0.285226 0.142613 0.500000
O O18 0.260025 0.260025 0.581643
O O19 0.000000 0.434292 0.678406
#
# Coordination Sequence:
#
# PCOD9577892 Si02
#       7
#    12  12  12  12  12  12  12
#     4  11  22  39  59  87 125 169 210 255 306 369
#     4   9  17  34  59  85 118 158 200 248 301 363
#     4  11  23  39  65  96 130 167 212 264 320 386
#     4  12  22  39  61  92 125 163 209 260 316 377
#     4  10  21  37  59  87 120 160 206 255 308 370
#     4  11  24  42  65  94 127 165 214 271 326 381
#     4  11  23  38  58  87 122 161 208 257 312 372
#
# _framework density 19.343803999999999
#
# number of rings (size 3 to 8) (size 9 to 14) (size 15 to 20)
#    0.000    1.286    4.286    3.143    0.000    5.714 
#    0.857    0.000    0.000    0.571    0.000    1.000 
#    0.000    0.000    0.000    0.000    0.000    0.000 
#
# Total GULP energy -468378.469117 kJ/mol
# GULP energy per Si atom -5575.934156 kJ/mol
# Density = 1.929978 g / cm^3
# Si number density = 19.343804 Si / 1000 Ang^3
#
#
#
# Elastic Constant Matrix: (Units=GPa)
#
#
# Indices 1 2 3 4 5 6 
#
# 1 56.0734 26.8120 28.4208 -0.0002 -4.1283 0.0000
# 2 26.8120 56.0734 28.4208 0.0002 4.1283 0.0000
# 3 28.4208 28.4208 128.4779 0.0000 0.0000 0.0000
# 4 -0.0002 0.0002 0.0000 18.9648 0.0000 4.1283
# 5 -4.1283 4.1283 0.0000 0.0000 18.9648 -0.0002
# 6 0.0000 0.0000 0.0000 4.1283 -0.0002 14.6307
#
#
#
# Elastic Compliance Matrix: (Units=1/GPa)
#
#
# Indices 1 2 3 4 5 6 
#
# 1 0.025317 -0.011094 -0.003146 0.000000 0.007926 0.000000
# 2 -0.011094 0.025317 -0.003146 0.000000 -0.007926 0.000000
# 3 -0.003146 -0.003146 0.009175 0.000000 0.000000 0.000000
# 4 0.000000 0.000000 0.000000 0.056180 0.000000 -0.015852
# 5 0.007926 -0.007926 0.000000 0.000000 0.056180 0.000001
# 6 0.000000 0.000000 0.000000 -0.015852 0.000001 0.072822
#
#
# Mechanical properties :
#
#
# Convention : Reuss Voigt Hill
#
# Bulk Modulus (GPa) = 39.94312 45.32575 42.63443
# Shear Modulus (GPa) = 17.35450 20.97682 19.16566
#
# Velocity S-wave (km/s) = 2.99851 3.29663 3.15110
# Velocity P-wave (km/s) = 5.71682 6.16221 5.94369
#
# Compressibility (1/GPa) = 0.02503560
#
# Stress axis : x y z
#
# Youngs Moduli (GPa) = 39.49944 39.49944 108.98740
#
# Poissons Ratio (x) = 0.43822 0.34289
# Poissons Ratio (y) = 0.43822 0.34289
# Poissons Ratio (z) = 0.12427 0.12427
#
# Static dielectric constant tensor:
#      x y z
#    x 1.695130 0.000000 0.000000 
#    y 0.000000 1.695130 0.000000 
#    z 0.000000 0.000000 1.791690 
# 
# From -- ./inp_files/3185.got.cif
#   From: 2010.05.17/outbox.cif.g08.bks.cpg/sg162_2_cif.got.tgz:3185.got - 2010.05.20 10:53:12.
