data_PCOD9577353
_publ_section_title
;
Structure prediction by ZEFSAII (Michael W. Deem and Ramdas Pophale) SiO2 
 PCOD9577353
Probable space group: P 3 1 C
;
_chemical_formula_sum "Si O2"
_cell_formula_units_Z 42
_cell_length_a 17.503472
_cell_length_b 17.503472
_cell_length_c 8.601657
_cell_angle_alpha 90.000000
_cell_angle_beta 90.000000
_cell_angle_gamma 120.000000
_cell_volume 2282.239200
_symmetry_space_group_name_H-M "P 3 1 C"
_symmetry_group_IT_number 159
_symmetry_cell_setting 'hexagonal'
loop_
_space_group_symop_operation_xyz
x,y,z
-y,x-y,z
-x+y,-x,z
y,x,1/2+z
x-y,-y,1/2+z
-x,-x+y,1/2+z
loop_
_atom_site_type_symbol
_atom_site_label
_atom_site_fract_x
_atom_site_fract_y
_atom_site_fract_z
Si Si1 0.425568 0.417349 0.289250
Si Si2 0.112399 0.933406 0.851449
Si Si3 0.842648 0.621732 0.344483
Si Si4 0.892814 0.073147 0.696290
Si Si5 0.444925 0.877121 0.534271
Si Si6 0.228840 0.466994 0.510597
Si Si7 0.243623 0.384453 0.186251
O O1 0.381078 0.315086 0.342551
O O2 0.446024 0.491016 0.417654
O O3 0.514038 0.437004 0.199445
O O4 0.347954 0.418721 0.189571
O O5 0.146444 0.864380 0.837899
O O6 0.022283 0.890703 0.755465
O O7 0.180327 0.031840 0.801123
O O8 0.086846 0.933922 0.027798
O O9 0.806890 0.586600 0.520720
O O10 0.796254 0.578296 0.180437
O O11 0.808765 0.086665 0.686659
O O12 0.461920 0.795172 0.510687
O O13 0.342067 0.838501 0.509223
O O14 0.218962 0.413293 0.349993
#
# Coordination Sequence:
#
# PCOD9577353 Si02
#       7
#     6   6   6   6   6   6   6
#     4  10  18  38  70  90 118 156 228 262 296 380
#     4  11  23  36  56  81 119 160 211 254 300 352
#     4  10  21  39  63  91 119 166 211 257 308 371
#     4  11  23  36  56  81 119 160 211 254 300 352
#     4  10  21  40  64  95 121 163 205 265 326 379
#     4  10  23  40  64  87 131 153 199 261 332 379
#     4  10  21  39  63  91 119 166 211 257 308 371
#
# _framework density 18.402978999999998
#
# number of rings (size 3 to 8) (size 9 to 14) (size 15 to 20)
#    0.000    1.714    2.857    1.429    4.000    0.000 
#    5.143    0.000    0.000    0.000    0.000    0.000 
#    0.000    0.000    0.000    0.000    0.000    0.000 
#
# Total GULP energy -233851.804650 kJ/mol
# GULP energy per Si atom -5567.900111 kJ/mol
# Density = 1.836109 g / cm^3
# Si number density = 18.402979 Si / 1000 Ang^3
#
#
#
# Elastic Constant Matrix: (Units=GPa)
#
#
# Indices 1 2 3 4 5 6 
#
# 1 50.9439 4.9966 12.1606 0.0000 2.0348 0.0000
# 2 4.9966 50.9439 12.1606 0.0000 -2.0348 0.0000
# 3 12.1606 12.1606 109.9848 0.0000 0.0000 0.0000
# 4 0.0000 0.0000 0.0000 18.6562 0.0000 -2.0348
# 5 2.0348 -2.0348 0.0000 0.0000 18.6562 0.0000
# 6 0.0000 0.0000 0.0000 -2.0348 0.0000 22.9737
#
#
#
# Elastic Compliance Matrix: (Units=1/GPa)
#
#
# Indices 1 2 3 4 5 6 
#
# 1 0.020378 -0.001599 -0.002076 0.000000 -0.002397 0.000000
# 2 -0.001599 0.020378 -0.002076 0.000000 0.002397 0.000000
# 3 -0.002076 -0.002076 0.009551 0.000000 0.000000 0.000000
# 4 0.000000 0.000000 0.000000 0.054124 0.000000 0.004794
# 5 -0.002397 0.002397 0.000000 0.000000 0.054124 0.000000
# 6 0.000000 0.000000 0.000000 0.004794 0.000000 0.043953
#
#
# Mechanical properties :
#
#
# Convention : Reuss Voigt Hill
#
# Bulk Modulus (GPa) = 25.77065 30.05643 27.91354
# Shear Modulus (GPa) = 22.03176 24.22754 23.12965
#
# Velocity S-wave (km/s) = 3.46379 3.63230 3.54904
# Velocity P-wave (km/s) = 5.48006 5.82746 5.65643
#
# Compressibility (1/GPa) = 0.03880383
#
# Stress axis : x y z
#
# Youngs Moduli (GPa) = 49.07349 49.07349 104.69775
#
# Poissons Ratio (x) = 0.07846 0.21738
# Poissons Ratio (y) = 0.07846 0.21738
# Poissons Ratio (z) = 0.10189 0.10189
#
# Static dielectric constant tensor:
#      x y z
#    x 1.611530 0.000000 0.000000 
#    y 0.000000 1.611530 0.000000 
#    z 0.000000 0.000000 1.701250 
# 
# From -- ./inp_files/456.got.cif
#   From: 2010.05.17/outbox.cif.g08.bks.cpg/sg159_cif.got.tgz:456.got - 2010.05.20 10:50:30.
