data_PCOD9577613
_publ_section_title
;
Structure prediction by ZEFSAII (Michael W. Deem and Ramdas Pophale) SiO2 
 PCOD9577613
Probable space group: R 3 C
;
_chemical_formula_sum "Si O2"
_cell_formula_units_Z 102
_cell_length_a 16.048561
_cell_length_b 16.048561
_cell_length_c 21.001761
_cell_angle_alpha 90.000000
_cell_angle_beta 90.000000
_cell_angle_gamma 120.000000
_cell_volume 4684.449249
_symmetry_space_group_name_H-M "R 3 C"
_symmetry_group_IT_number 161
_symmetry_cell_setting 'hexagonal'
loop_
_space_group_symop_operation_xyz
x,y,z
-y,x-y,z
-x+y,-x,z
-x+y,y,1/2+z
x,x-y,1/2+z
-y,-x,1/2+z
2/3+x,1/3+y,1/3+z
2/3-y,1/3+x-y,1/3+z
2/3-x+y,1/3-x,1/3+z
2/3-x+y,1/3+y,5/6+z
2/3+x,1/3+x-y,5/6+z
2/3-y,1/3-x,5/6+z
1/3+x,2/3+y,2/3+z
1/3-y,2/3+x-y,2/3+z
1/3-x+y,2/3-x,2/3+z
1/3-x+y,2/3+y,1/6+z
1/3+x,2/3+x-y,1/6+z
1/3-y,2/3-x,1/6+z
loop_
_atom_site_type_symbol
_atom_site_label
_atom_site_fract_x
_atom_site_fract_y
_atom_site_fract_z
Si Si1 0.190160 0.199372 0.280553
Si Si2 0.476023 0.235746 0.240775
Si Si3 0.395130 0.026305 0.756687
Si Si4 0.666668 0.333334 0.454978
Si Si5 0.450436 0.057387 0.613341
Si Si6 0.737669 0.195882 0.004727
Si Si7 0.666667 0.333334 0.304182
O O1 0.106730 0.180233 0.331438
O O2 0.289685 0.299951 0.285852
O O3 0.217379 0.116672 0.290835
O O4 0.155054 0.203708 0.209732
O O5 0.459343 0.319365 0.269989
O O6 0.379322 0.138032 0.254293
O O7 0.569081 0.247389 0.275256
O O8 0.394592 0.033319 0.680046
O O9 0.430887 0.955368 0.783364
O O10 0.566807 0.241426 0.478427
O O11 0.666668 0.333334 0.379179
O O12 0.430722 0.115819 0.559660
#
# Coordination Sequence:
#
# PCOD9577613 Si02
#       7
#    18  18  18   6  18  18   6
#     4  11  24  43  73 103 144 196 248 305 376 462
#     4  11  24  45  69 106 142 195 249 305 385 461
#     4  11  25  44  69 105 145 189 249 311 379 452
#     4  12  27  46  71 112 141 204 259 314 391 444
#     4  11  23  45  70 104 146 196 253 311 384 448
#     4  12  24  45  74 106 151 195 253 320 373 462
#     4  12  27  46  74 106 159 189 265 320 382 471
#
# _framework density 21.774170000000002
#
# number of rings (size 3 to 8) (size 9 to 14) (size 15 to 20)
#    0.000    0.706    5.294    2.118    0.000    4.235 
#    3.176    0.000    0.000    0.000    0.000    0.000 
#    0.000    0.000    0.000    0.000    0.000    0.000 
#
# Total GULP energy -189724.246201 kJ/mol
# GULP energy per Si atom -5580.124888 kJ/mol
# Density = 2.172461 g / cm^3
# Si number density = 21.774170 Si / 1000 Ang^3
#
#
#
# Elastic Constant Matrix: (Units=GPa)
#
#
# Indices 1 2 3 4 5 6 
#
# 1 57.1894 41.3606 34.0791 -7.8949 0.0000 0.0000
# 2 41.3606 57.1870 34.0788 7.8949 0.0000 0.0000
# 3 34.0791 34.0788 116.2084 -0.0001 0.0000 0.0000
# 4 -7.8949 7.8949 -0.0001 37.0485 0.0000 0.0000
# 5 0.0000 0.0000 0.0000 0.0000 37.0489 -7.8944
# 6 0.0000 0.0000 0.0000 0.0000 -7.8944 7.9145
#
#
#
# Elastic Compliance Matrix: (Units=1/GPa)
#
#
# Indices 1 2 3 4 5 6 
#
# 1 0.046482 -0.033755 -0.003733 0.017098 0.000000 0.000000
# 2 -0.033755 0.046485 -0.003733 -0.017099 0.000000 0.000000
# 3 -0.003733 -0.003733 0.010795 0.000000 0.000000 0.000000
# 4 0.017098 -0.017099 0.000000 0.034279 0.000000 0.000000
# 5 0.000000 0.000000 0.000000 0.000000 0.034277 0.034190
# 6 0.000000 0.000000 0.000000 0.000000 0.034190 0.160454
#
#
# Mechanical properties :
#
#
# Convention : Reuss Voigt Hill
#
# Bulk Modulus (GPa) = 46.90190 49.95797 48.42994
# Shear Modulus (GPa) = 11.83940 24.47346 18.15643
#
# Velocity S-wave (km/s) = 2.33434 3.35620 2.89078
# Velocity P-wave (km/s) = 5.37145 6.16541 5.78207
#
# Compressibility (1/GPa) = 0.02132110
#
# Stress axis : x y z
#
# Youngs Moduli (GPa) = 21.51348 21.51242 92.63891
#
# Poissons Ratio (x) = 0.72614 0.34578
# Poissons Ratio (y) = 0.72618 0.34583
# Poissons Ratio (z) = 0.08030 0.08031
#
# Static dielectric constant tensor:
#      x y z
#    x 1.817740 0.000000 0.000000 
#    y 0.000000 1.817750 0.000000 
#    z 0.000000 0.000000 1.809930 
# 
# From -- ./inp_files/1735.got.cif
#   From: 2010.05.17/outbox.cif.g08.bks.cpg/sg161_cif.got.tgz:1735.got - 2010.05.20 10:52:32.
