data_PCOD9577964
_publ_section_title
;
Structure prediction by ZEFSAII (Michael W. Deem and Ramdas Pophale) SiO2 
 PCOD9577964
Probable space group: P -3 1 M 
;
_chemical_formula_sum "Si O2"
_cell_formula_units_Z 90
_cell_length_a 18.000000
_cell_length_b 18.000000
_cell_length_c 18.000000
_cell_angle_alpha 90.000000
_cell_angle_beta 90.000000
_cell_angle_gamma 120.000000
_cell_volume 5050.660155
_symmetry_space_group_name_H-M "P -3 1 M "
_symmetry_group_IT_number 162
_symmetry_cell_setting 'hexagonal'
loop_
_space_group_symop_operation_xyz
x,y,z
-y,x-y,z
-x+y,-x,z
-y,-x,-z
-x+y,y,-z
x,x-y,-z
-x,-y,-z
y,-x+y,-z
x-y,x,-z
y,x,z
x-y,-y,z
-x,-x+y,z
loop_
_atom_site_type_symbol
_atom_site_label
_atom_site_fract_x
_atom_site_fract_y
_atom_site_fract_z
Si Si1 0.802550 0.181819 0.916629
Si Si2 0.896246 0.792491 0.000000
Si Si3 0.206531 0.827329 0.413060
Si Si4 0.896936 0.524795 0.829606
Si Si5 0.617697 0.102821 0.660309
Si Si6 0.901403 0.354892 0.660664
Si Si7 0.901660 0.538056 0.160544
Si Si8 0.905949 0.811897 0.409740
O O1 0.855483 0.131509 0.931080
O O2 0.710879 0.128196 0.878080
O O3 0.853410 0.269151 0.871455
O O4 0.792672 0.207329 0.000000
O O5 0.849890 0.849890 0.995453
O O6 0.188896 0.811105 0.500000
O O7 0.305488 0.870436 0.395172
O O8 0.156140 0.738526 0.370229
O O9 0.167476 0.886052 0.386881
O O10 0.866518 0.517947 0.744096
O O11 0.866267 0.428363 0.857874
O O12 0.000000 0.571019 0.827526
O O13 0.550969 0.132338 0.636387
O O14 0.561547 0.000000 0.664207
O O15 0.901549 0.358309 0.750045
O O16 0.000000 0.393679 0.635976
O O17 0.000000 0.590730 0.134328
O O18 0.906679 0.813358 0.500000
O O19 0.883029 0.883029 0.384860
O O20 0.000000 0.834587 0.384836
#
# Coordination Sequence:
#
# PCOD9577964 Si02
#       8
#    12   6  12  12  12  12  12  12
#     4  10  21  32  53  85 116 145 179 221 266 326
#     4  10  21  36  54  80 116 156 192 224 261 308
#     4  11  21  32  50  77 108 138 176 225 278 335
#     4   9  18  35  57  78 103 139 180 223 270 319
#     4   9  19  36  56  76 100 135 180 224 270 324
#     4   9  19  36  56  76 100 135 180 224 270 324
#     4   9  18  35  57  78 103 139 180 223 270 319
#     4   9  17  29  46  70 101 136 171 210 262 325
#
# _framework density 17.819452999999999
#
# number of rings (size 3 to 8) (size 9 to 14) (size 15 to 20)
#    0.400    2.133    0.000    4.200    0.000    3.200 
#    1.600    2.667    0.000    0.000    0.000    0.000 
#    0.000   12.800    0.000    0.000    0.000    0.000 
#
# Total GULP energy -501026.377655 kJ/mol
# GULP energy per Si atom -5566.959752 kJ/mol
# Density = 1.777889 g / cm^3
# Si number density = 17.819453 Si / 1000 Ang^3
#
#
#
# Elastic Constant Matrix: (Units=GPa)
#
#
# Indices 1 2 3 4 5 6 
#
# 1 76.1709 40.3331 11.4426 0.0001 5.6366 0.0000
# 2 40.3331 76.1709 11.4426 -0.0001 -5.6366 0.0000
# 3 11.4426 11.4426 9.8194 0.0000 0.0000 0.0000
# 4 0.0001 -0.0001 0.0000 14.6497 0.0000 -5.6366
# 5 5.6366 -5.6366 0.0000 0.0000 14.6497 0.0001
# 6 0.0000 0.0000 0.0000 -5.6366 0.0001 17.9189
#
#
#
# Elastic Compliance Matrix: (Units=1/GPa)
#
#
# Indices 1 2 3 4 5 6 
#
# 1 0.021439 -0.010307 -0.012972 0.000000 -0.012215 0.000000
# 2 -0.010307 0.021439 -0.012972 0.000000 0.012215 0.000000
# 3 -0.012972 -0.012972 0.132071 0.000000 0.000000 0.000000
# 4 0.000000 0.000000 0.000000 0.077660 0.000000 0.024429
# 5 -0.012215 0.012215 0.000000 0.000000 0.077660 0.000000
# 6 0.000000 0.000000 0.000000 0.024429 0.000000 0.063491
#
#
# Mechanical properties :
#
#
# Convention : Reuss Voigt Hill
#
# Bulk Modulus (GPa) = 9.76110 32.06643 20.91376
# Shear Modulus (GPa) = 9.99183 16.03988 13.01585
#
# Velocity S-wave (km/s) = 2.37053 3.00348 2.70558
# Velocity P-wave (km/s) = 3.60309 5.48289 4.63920
#
# Compressibility (1/GPa) = 0.10244751
#
# Stress axis : x y z
#
# Youngs Moduli (GPa) = 46.64492 46.64492 7.57170
#
# Poissons Ratio (x) = 0.48078 0.09822
# Poissons Ratio (y) = 0.48078 0.09822
# Poissons Ratio (z) = 0.60506 0.60506
#
# Static dielectric constant tensor:
#      x y z
#    x 1.623140 0.000000 0.000000 
#    y 0.000000 1.623140 0.000000 
#    z 0.000000 0.000000 1.598410 
# 
# From -- ./inp_files/3661.got.cif
#   From: 2010.05.17/outbox.ucp.g08.bks.cvg/sg162_2_cif.got.tgz:3661.got - 2010.06.11 15:15:45.
