data_PCOD9577785
_publ_section_title
;
Structure prediction by ZEFSAII (Michael W. Deem and Ramdas Pophale) SiO2 
 PCOD9577785
Probable space group: P -3 1 M 
;
_chemical_formula_sum "Si O2"
_cell_formula_units_Z 84
_cell_length_a 18.462125
_cell_length_b 18.462125
_cell_length_c 14.345533
_cell_angle_alpha 90.000000
_cell_angle_beta 90.000000
_cell_angle_gamma 120.000000
_cell_volume 4234.583439
_symmetry_space_group_name_H-M "P -3 1 M "
_symmetry_group_IT_number 162
_symmetry_cell_setting 'hexagonal'
loop_
_space_group_symop_operation_xyz
x,y,z
-y,x-y,z
-x+y,-x,z
-y,-x,-z
-x+y,y,-z
x,x-y,-z
-x,-y,-z
y,-x+y,-z
x-y,x,-z
y,x,z
x-y,-y,z
-x,-x+y,z
loop_
_atom_site_type_symbol
_atom_site_label
_atom_site_fract_x
_atom_site_fract_y
_atom_site_fract_z
Si Si1 0.098259 0.657150 0.843083
Si Si2 0.616766 0.515677 0.567193
Si Si3 0.302258 0.096372 0.272556
Si Si4 0.318767 0.219274 0.430480
Si Si5 0.898376 0.395595 0.784968
Si Si6 0.330328 0.506390 0.024957
Si Si7 0.096362 0.192108 0.897130
O O1 0.111688 0.720804 0.761831
O O2 0.125328 0.592112 0.807461
O O3 0.000000 0.603225 0.859437
O O4 0.136314 0.697573 0.942566
O O5 0.565705 0.434296 0.500000
O O6 0.559480 0.559480 0.567887
O O7 0.708713 0.588809 0.536055
O O8 0.628072 0.502266 0.676971
O O9 0.317439 0.173695 0.335451
O O10 0.253030 0.097307 0.181289
O O11 0.249663 0.000000 0.312183
O O12 0.283246 0.141623 0.500000
O O13 0.263742 0.263742 0.423588
O O14 0.852767 0.329423 0.869263
O O15 0.000000 0.436809 0.792837
O O16 0.426436 0.573565 0.000000
O O17 0.273328 0.546655 0.000000
O O18 0.116321 0.116321 0.903319
O O19 0.000000 0.156925 0.874199
O O20 0.115659 0.231318 0.000000
#
# Coordination Sequence:
#
# PCOD9577785 Si02
#       7
#    12  12  12  12  12  12  12
#     4   9  19  34  55  81 110 149 192 235 287 350
#     4   9  20  38  61  89 114 144 194 253 314 377
#     4  10  21  36  56  87 123 160 204 253 308 363
#     4  11  24  41  64  91 122 161 204 258 318 377
#     4   9  18  35  58  82 110 145 191 245 296 356
#     4  10  20  33  52  78 114 154 193 232 280 351
#     4   9  17  31  51  76 111 157 205 251 299 355
#
# _framework density 19.836660999999999
#
# number of rings (size 3 to 8) (size 9 to 14) (size 15 to 20)
#    0.000    2.429    0.000    1.571    4.000    2.857 
#    0.000    0.000    0.000    3.714    0.000    0.000 
#    0.000    0.000    0.000    0.000    0.000    0.000 
#
# Total GULP energy -467797.981048 kJ/mol
# GULP energy per Si atom -5569.023584 kJ/mol
# Density = 1.979151 g / cm^3
# Si number density = 19.836661 Si / 1000 Ang^3
#
#
#
# Elastic Constant Matrix: (Units=GPa)
#
#
# Indices 1 2 3 4 5 6 
#
# 1 32.0732 42.8958 16.5503 0.0001 -4.0668 0.0000
# 2 42.8958 32.0732 16.5503 -0.0001 4.0668 0.0000
# 3 16.5503 16.5503 59.5350 0.0000 0.0000 0.0000
# 4 0.0001 -0.0001 0.0000 4.3425 0.0000 4.0668
# 5 -4.0668 4.0668 0.0000 0.0000 4.3425 0.0001
# 6 0.0000 0.0000 0.0000 4.0668 0.0001 -5.4113
#
#
#
# Elastic Compliance Matrix: (Units=1/GPa)
#
#
# Indices 1 2 3 4 5 6 
#
# 1 -0.019513 0.034718 -0.004227 0.000001 -0.050788 0.000000
# 2 0.034718 -0.019513 -0.004227 -0.000001 0.050788 0.000000
# 3 -0.004227 -0.004227 0.019147 0.000000 0.000000 0.000000
# 4 0.000001 -0.000001 0.000000 0.135158 0.000000 0.101576
# 5 -0.050788 0.050788 0.000000 0.000000 0.135158 0.000002
# 6 0.000000 0.000000 0.000000 0.101576 0.000002 -0.108462
#
#
# Mechanical properties :
#
#
# Convention : Reuss Voigt Hill
#
# Bulk Modulus (GPa) = 30.62830 30.63046 30.62938
# Shear Modulus (GPa) = 49.83569 3.83373 26.83471
#
# Velocity S-wave (km/s) = 5.01773 1.39171 3.68201
# Velocity P-wave (km/s) = 7.00313 4.24939 5.79229
#
# Compressibility (1/GPa) = 0.03264955
#
# Stress axis : x y z
#
# Youngs Moduli (GPa) = -51.24817 -51.24817 52.22769
#
# Poissons Ratio (x) = 1.77924 0.22076
# Poissons Ratio (y) = 1.77924 0.22076
# Poissons Ratio (z) = -0.21662 -0.21662
#
# Static dielectric constant tensor:
#      x y z
#    x 1.742180 0.000000 0.000000 
#    y 0.000000 1.742180 0.000000 
#    z 0.000000 0.000000 1.801500 
# 
# From -- ./inp_files/3221.got.cif
#   From: 2010.05.17/outbox.cif.g08.bks.cpg/sg162_2_cif.got.tgz:3221.got - 2010.05.20 10:53:12.
