data_PCOD9577812
_publ_section_title
;
Structure prediction by ZEFSAII (Michael W. Deem and Ramdas Pophale) SiO2 
 PCOD9577812
Probable space group: P -3 1 M 
;
_chemical_formula_sum "Si O2"
_cell_formula_units_Z 72
_cell_length_a 14.361733
_cell_length_b 14.361733
_cell_length_c 19.101845
_cell_angle_alpha 90.000000
_cell_angle_beta 90.000000
_cell_angle_gamma 120.000000
_cell_volume 3412.083459
_symmetry_space_group_name_H-M "P -3 1 M "
_symmetry_group_IT_number 162
_symmetry_cell_setting 'hexagonal'
loop_
_space_group_symop_operation_xyz
x,y,z
-y,x-y,z
-x+y,-x,z
-y,-x,-z
-x+y,y,-z
x,x-y,-z
-x,-y,-z
y,-x+y,-z
x-y,x,-z
y,x,z
x-y,-y,z
-x,-x+y,z
loop_
_atom_site_type_symbol
_atom_site_label
_atom_site_fract_x
_atom_site_fract_y
_atom_site_fract_z
Si Si1 0.243158 0.124454 0.773877
Si Si2 0.331051 0.460818 0.533466
Si Si3 0.123657 0.594019 0.226885
Si Si4 0.596775 0.123462 0.072612
Si Si5 0.815544 0.697482 0.921705
Si Si6 0.181908 0.735445 0.693415
O O1 0.142679 0.142679 0.774505
O O2 0.305505 0.174140 0.848333
O O3 0.321697 0.189545 0.710672
O O4 0.206634 0.000000 0.766409
O O5 0.427025 0.572976 0.500000
O O6 0.215475 0.430950 0.500000
O O7 0.376027 0.376027 0.526617
O O8 0.307693 0.472373 0.614673
O O9 0.170493 0.602255 0.148901
O O10 0.195448 0.696453 0.275930
O O11 0.122417 0.493402 0.260977
O O12 0.000000 0.568687 0.219970
O O13 0.705423 0.118857 0.070516
O O14 0.496620 0.000000 0.073697
O O15 0.586678 0.173356 0.000000
O O16 0.794619 0.794619 0.907406
O O17 0.858976 0.717951 0.000000
#
# Coordination Sequence:
#
# PCOD9577812 Si02
#       6
#    12  12  12  12  12  12
#     4  11  23  40  62  92 130 174 226 278 328 383
#     4  11  25  46  73 107 141 180 224 274 342 420
#     4  11  23  41  62  93 134 172 215 277 335 385
#     4   9  19  34  53  80 119 166 216 271 333 387
#     4  10  20  35  54  81 115 162 217 271 328 381
#     4  12  24  42  68  99 129 166 215 260 327 412
#
# _framework density 21.101476999999999
#
# number of rings (size 3 to 8) (size 9 to 14) (size 15 to 20)
#    0.000    1.333    1.667    4.167    2.333    2.667 
#    0.000    0.000    0.000    3.167    0.000    0.000 
#    0.000    0.000    0.000    0.000    0.000    0.000 
#
# Total GULP energy -401305.214363 kJ/mol
# GULP energy per Si atom -5573.683533 kJ/mol
# Density = 2.105345 g / cm^3
# Si number density = 21.101477 Si / 1000 Ang^3
#
#
#
# Elastic Constant Matrix: (Units=GPa)
#
#
# Indices 1 2 3 4 5 6 
#
# 1 95.3104 27.3061 50.7289 0.0002 4.7310 0.0000
# 2 27.3061 95.3104 50.7289 -0.0002 -4.7310 0.0000
# 3 50.7289 50.7289 166.5479 0.0000 0.0000 0.0000
# 4 0.0002 -0.0002 0.0000 23.8155 0.0000 -4.7310
# 5 4.7310 -4.7310 0.0000 0.0000 23.8155 0.0002
# 6 0.0000 0.0000 0.0000 -4.7310 0.0002 34.0022
#
#
#
# Elastic Compliance Matrix: (Units=1/GPa)
#
#
# Indices 1 2 3 4 5 6 
#
# 1 0.013013 -0.002110 -0.003321 0.000000 -0.003004 0.000000
# 2 -0.002110 0.013013 -0.003321 0.000000 0.003004 0.000000
# 3 -0.003321 -0.003321 0.008027 0.000000 0.000000 0.000000
# 4 0.000000 0.000000 0.000000 0.043183 0.000000 0.006008
# 5 -0.003004 0.003004 0.000000 0.000000 0.043183 0.000000
# 6 0.000000 0.000000 0.000000 0.006008 0.000000 0.030246
#
#
# Mechanical properties :
#
#
# Convention : Reuss Voigt Hill
#
# Bulk Modulus (GPa) = 60.42277 68.29960 64.36118
# Shear Modulus (GPa) = 28.78753 31.55364 30.17058
#
# Velocity S-wave (km/s) = 3.69757 3.87114 3.78535
# Velocity P-wave (km/s) = 6.85025 7.24006 7.04785
#
# Compressibility (1/GPa) = 0.01655005
#
# Stress axis : x y z
#
# Youngs Moduli (GPa) = 76.84481 76.84481 124.57283
#
# Poissons Ratio (x) = 0.16212 0.41372
# Poissons Ratio (y) = 0.16212 0.41372
# Poissons Ratio (z) = 0.25521 0.25521
#
# Static dielectric constant tensor:
#      x y z
#    x 1.812320 0.000000 0.000000 
#    y 0.000000 1.812320 0.000000 
#    z 0.000000 0.000000 1.881510 
# 
# From -- ./inp_files/3506.got.cif
#   From: 2010.05.17/outbox.cif.g08.bks.cpg/sg162_2_cif.got.tgz:3506.got - 2010.05.20 10:53:12.
