data_PCOD9577096
_publ_section_title
;
Structure prediction by ZEFSAII (Michael W. Deem and Ramdas Pophale) SiO2 
 PCOD9577096
Probable space group: R 3 2
;
_chemical_formula_sum "Si O2"
_cell_formula_units_Z 75
_cell_length_a 11.082723
_cell_length_b 11.082723
_cell_length_c 30.521893
_cell_angle_alpha 90.000000
_cell_angle_beta 90.000000
_cell_angle_gamma 120.000000
_cell_volume 3246.646874
_symmetry_space_group_name_H-M "R 3 2"
_symmetry_group_IT_number 155
_symmetry_cell_setting 'hexagonal'
loop_
_space_group_symop_operation_xyz
x,y,z
-y,x-y,z
-x+y,-x,z
x-y,-y,-z
-x,-x+y,-z
y,x,-z
2/3+x,1/3+y,1/3+z
2/3-y,1/3+x-y,1/3+z
2/3-x+y,1/3-x,1/3+z
2/3+x-y,1/3-y,1/3-z
2/3-x,1/3-x+y,1/3-z
2/3+y,1/3+x,1/3-z
1/3+x,2/3+y,2/3+z
1/3-y,2/3+x-y,2/3+z
1/3-x+y,2/3-x,2/3+z
1/3+x-y,2/3-y,2/3-z
1/3-x,2/3-x+y,2/3-z
1/3+y,2/3+x,2/3-z
loop_
_atom_site_type_symbol
_atom_site_label
_atom_site_fract_x
_atom_site_fract_y
_atom_site_fract_z
Si Si1 0.000000 0.000000 0.268448
Si Si2 0.333334 0.380693 0.666667
Si Si3 0.000000 0.000000 0.163921
Si Si4 0.169960 0.142090 0.405798
Si Si5 0.425397 0.973433 0.796961
Si Si6 0.688234 0.755621 0.709942
O O1 0.874649 0.849501 0.283651
O O2 0.000000 0.000000 0.216262
O O3 0.230702 0.254671 0.635484
O O4 0.230904 0.402111 0.697888
O O5 0.056605 0.156903 0.147704
O O6 0.269804 0.189457 0.447696
O O7 0.024169 0.138079 0.405787
O O8 0.330975 0.951164 0.753838
O O9 0.387151 0.053817 0.833334
O O10 0.674912 0.666667 0.666667
#
# Coordination Sequence:
#
# PCOD9577096 Si02
#       6
#     6   9   6  18  18  18
#     4  12  30  48  84 109 161 211 270 345 402 499
#     4  12  26  44  80 112 158 202 258 338 398 488
#     4  12  27  54  76 124 156 220 274 330 426 490
#     4  10  27  48  74 118 153 209 264 326 405 488
#     4  12  26  51  78 112 165 212 276 333 405 501
#     4  12  29  49  75 118 156 211 267 337 411 483
#
# _framework density 23.100757999999999
#
# number of rings (size 3 to 8) (size 9 to 14) (size 15 to 20)
#    0.480    0.000    4.800    1.440    8.400    0.960 
#    5.040    0.000    0.000    0.000    0.000    0.000 
#    0.000    0.000    0.000    0.000    0.000    0.000 
#
# Total GULP energy -139863.203105 kJ/mol
# GULP energy per Si atom -5594.528124 kJ/mol
# Density = 2.304818 g / cm^3
# Si number density = 23.100758 Si / 1000 Ang^3
#
#
#
# Elastic Constant Matrix: (Units=GPa)
#
#
# Indices 1 2 3 4 5 6 
#
# 1 113.9768 48.9201 67.0169 -1.2123 -0.0003 0.0000
# 2 48.9201 113.9768 67.0169 1.2123 0.0003 0.0000
# 3 67.0169 67.0169 179.5756 0.0000 0.0000 0.0000
# 4 -1.2123 1.2123 0.0000 43.8590 0.0000 0.0003
# 5 -0.0003 0.0003 0.0000 0.0000 43.8590 -1.2123
# 6 0.0000 0.0000 0.0000 0.0003 -1.2123 32.5283
#
#
#
# Elastic Compliance Matrix: (Units=1/GPa)
#
#
# Indices 1 2 3 4 5 6 
#
# 1 0.012123 -0.003264 -0.003306 0.000425 0.000000 0.000000
# 2 -0.003264 0.012123 -0.003306 -0.000425 0.000000 0.000000
# 3 -0.003306 -0.003306 0.008036 0.000000 0.000000 0.000000
# 4 0.000425 -0.000425 0.000000 0.022824 0.000000 0.000000
# 5 0.000000 0.000000 0.000000 0.000000 0.022824 0.000851
# 6 0.000000 0.000000 0.000000 0.000000 0.000851 0.030774
#
#
# Mechanical properties :
#
#
# Convention : Reuss Voigt Hill
#
# Bulk Modulus (GPa) = 79.80843 85.93748 82.87296
# Shear Modulus (GPa) = 37.69770 39.02094 38.35932
#
# Velocity S-wave (km/s) = 4.04404 4.11440 4.07937
# Velocity P-wave (km/s) = 7.51190 7.73647 7.62501
#
# Compressibility (1/GPa) = 0.01253000
#
# Stress axis : x y z
#
# Youngs Moduli (GPa) = 82.48665 82.48665 124.43315
#
# Poissons Ratio (x) = 0.26923 0.41141
# Poissons Ratio (y) = 0.26923 0.41141
# Poissons Ratio (z) = 0.27272 0.27272
#
# Static dielectric constant tensor:
#      x y z
#    x 1.901970 0.000000 0.000000 
#    y 0.000000 1.901970 0.000000 
#    z 0.000000 0.000000 1.840960 
# 
# From -- ./inp_files/8328.got.cif
#   From: 2010.05.17/outbox.cif.g08.bks.cpg/sg155_5_cif.got.tgz:8328.got - 2010.05.20 10:44:35.
