data_PCOD9577137
_publ_section_title
;
Structure prediction by ZEFSAII (Michael W. Deem and Ramdas Pophale) SiO2 
 PCOD9577137
Probable space group: R 3 2
;
_chemical_formula_sum "Si O2"
_cell_formula_units_Z 60
_cell_length_a 13.832966
_cell_length_b 13.832966
_cell_length_c 15.188426
_cell_angle_alpha 90.000000
_cell_angle_beta 90.000000
_cell_angle_gamma 120.000000
_cell_volume 2516.946708
_symmetry_space_group_name_H-M "R 3 2"
_symmetry_group_IT_number 155
_symmetry_cell_setting 'hexagonal'
loop_
_space_group_symop_operation_xyz
x,y,z
-y,x-y,z
-x+y,-x,z
x-y,-y,-z
-x,-x+y,-z
y,x,-z
2/3+x,1/3+y,1/3+z
2/3-y,1/3+x-y,1/3+z
2/3-x+y,1/3-x,1/3+z
2/3+x-y,1/3-y,1/3-z
2/3-x,1/3-x+y,1/3-z
2/3+y,1/3+x,1/3-z
1/3+x,2/3+y,2/3+z
1/3-y,2/3+x-y,2/3+z
1/3-x+y,2/3-x,2/3+z
1/3+x-y,2/3-y,2/3-z
1/3-x,2/3-x+y,2/3-z
1/3+y,2/3+x,2/3-z
loop_
_atom_site_type_symbol
_atom_site_label
_atom_site_fract_x
_atom_site_fract_y
_atom_site_fract_z
Si Si1 0.813249 0.738062 0.757348
Si Si2 0.811048 0.579907 0.901936
Si Si3 0.000000 0.000000 0.602769
Si Si4 0.407508 0.487319 0.421255
O O1 0.763191 0.666667 0.666667
O O2 0.782569 0.656071 0.841546
O O3 0.776446 0.829118 0.774250
O O4 0.948275 0.799192 0.751560
O O5 0.870807 0.537474 0.833334
O O6 0.713486 0.464795 0.948592
O O7 0.875711 0.640268 0.990162
O O8 0.000000 0.000000 0.500000
O O9 0.414957 0.414957 0.500000
#
# Coordination Sequence:
#
# PCOD9577137 Si02
#       4
#    18  18   6  18
#     4  12  28  46  77 106 148 199 250 309 373 442
#     4  11  23  44  74 108 147 194 248 315 368 438
#     4   9  21  36  75 117 138 180 259 324 357 414
#     4  12  29  47  73 113 154 192 250 312 379 447
#
# _framework density 23.838408000000001
#
# number of rings (size 3 to 8) (size 9 to 14) (size 15 to 20)
#    0.000    0.600    3.000    3.300   12.600    0.000 
#    0.000    0.000    0.000    3.600    0.000    0.000 
#    0.000    0.000    0.000    0.000    0.000    0.000 
#
# Total GULP energy -111728.648290 kJ/mol
# GULP energy per Si atom -5586.432415 kJ/mol
# Density = 2.378415 g / cm^3
# Si number density = 23.838408 Si / 1000 Ang^3
#
#
#
# Elastic Constant Matrix: (Units=GPa)
#
#
# Indices 1 2 3 4 5 6 
#
# 1 138.7509 56.4158 36.1918 -5.5171 0.0001 0.0000
# 2 56.4158 138.7509 36.1918 5.5171 -0.0001 0.0000
# 3 36.1918 36.1918 175.3771 0.0000 0.0000 0.0000
# 4 -5.5171 5.5171 0.0000 26.7120 0.0000 -0.0001
# 5 0.0001 -0.0001 0.0000 0.0000 26.7120 -5.5171
# 6 0.0000 0.0000 0.0000 -0.0001 -5.5171 41.1676
#
#
#
# Elastic Compliance Matrix: (Units=1/GPa)
#
#
# Indices 1 2 3 4 5 6 
#
# 1 0.009020 -0.003471 -0.001145 0.002580 0.000000 0.000000
# 2 -0.003471 0.009020 -0.001145 -0.002580 0.000000 0.000000
# 3 -0.001145 -0.001145 0.006175 0.000000 0.000000 0.000000
# 4 0.002580 -0.002580 0.000000 0.038502 0.000000 0.000000
# 5 0.000000 0.000000 0.000000 0.000000 0.038502 0.005160
# 6 0.000000 0.000000 0.000000 0.000000 0.005160 0.024982
#
#
# Mechanical properties :
#
#
# Convention : Reuss Voigt Hill
#
# Bulk Modulus (GPa) = 78.79295 78.94198 78.86746
# Shear Modulus (GPa) = 35.22262 40.52363 37.87313
#
# Velocity S-wave (km/s) = 3.84807 4.12749 3.99023
# Velocity P-wave (km/s) = 7.27105 7.47678 7.37464
#
# Compressibility (1/GPa) = 0.01269149
#
# Stress axis : x y z
#
# Youngs Moduli (GPa) = 110.86646 110.86646 161.95428
#
# Poissons Ratio (x) = 0.38486 0.18544
# Poissons Ratio (y) = 0.38486 0.18544
# Poissons Ratio (z) = 0.12694 0.12694
#
# Static dielectric constant tensor:
#      x y z
#    x 2.165600 0.000000 0.000000 
#    y 0.000000 2.165600 0.000000 
#    z 0.000000 0.000000 1.926130 
# 
# From -- ./inp_files/4756.got.cif
#   From: 2010.05.17/outbox.cif.g08.bks.cpg/sg155_3_cif.got.tgz:4756.got - 2010.05.20 10:44:35.
