data_PCOD9577479
_publ_section_title
;
Structure prediction by ZEFSAII (Michael W. Deem and Ramdas Pophale) SiO2 
 PCOD9577479
Probable space group: R 3 M
;
_chemical_formula_sum "Si O2"
_cell_formula_units_Z 144
_cell_length_a 21.289442
_cell_length_b 21.289442
_cell_length_c 22.474874
_cell_angle_alpha 90.000000
_cell_angle_beta 90.000000
_cell_angle_gamma 120.000000
_cell_volume 8821.784705
_symmetry_space_group_name_H-M "R 3 M"
_symmetry_group_IT_number 160
_symmetry_cell_setting 'hexagonal'
loop_
_space_group_symop_operation_xyz
x,y,z
-y,x-y,z
-x+y,-x,z
-x+y,y,z
x,x-y,z
-y,-x,z
2/3+x,1/3+y,1/3+z
2/3-y,1/3+x-y,1/3+z
2/3-x+y,1/3-x,1/3+z
2/3-x+y,1/3+y,1/3+z
2/3+x,1/3+x-y,1/3+z
2/3-y,1/3-x,1/3+z
1/3+x,2/3+y,2/3+z
1/3-y,2/3+x-y,2/3+z
1/3-x+y,2/3-x,2/3+z
1/3-x+y,2/3+y,2/3+z
1/3+x,2/3+x-y,2/3+z
1/3-y,2/3-x,2/3+z
loop_
_atom_site_type_symbol
_atom_site_label
_atom_site_fract_x
_atom_site_fract_y
_atom_site_fract_z
Si Si1 0.644034 0.657192 0.696665
Si Si2 0.146251 0.147262 0.649439
Si Si3 0.866141 0.587215 0.093590
Si Si4 0.129110 0.402422 0.534286
Si Si5 0.857071 0.001732 0.106804
Si Si6 0.023447 0.438142 0.803458
Si Si7 0.951708 0.601513 0.919571
Si Si8 0.472126 0.163378 0.308052
O O1 0.677333 0.738411 0.723968
O O2 0.624442 0.606534 0.754142
O O3 0.701025 0.666689 0.646209
O O4 0.568010 0.629106 0.663404
O O5 0.071905 0.143809 0.631279
O O6 0.168817 0.187889 0.713226
O O7 0.210991 0.197479 0.604804
O O8 0.137268 0.068634 0.653648
O O9 0.799437 0.598874 0.111383
O O10 0.902842 0.568659 0.148139
O O11 0.195180 0.390359 0.515150
O O12 0.158640 0.463263 0.586085
O O13 0.062408 0.330240 0.563058
O O14 0.872177 0.936089 0.121112
O O15 0.776274 0.976399 0.130565
O O16 0.852328 0.003968 0.034836
O O17 0.921240 0.078761 0.128278
O O18 0.015526 0.507763 0.790322
O O19 0.993956 0.406720 0.867894
O O20 0.469192 0.234596 0.290690
#
# Coordination Sequence:
#
# PCOD9577479 Si02
#       8
#    18  18  18  18  18  18  18  18
#     4   9  18  32  50  73 100 129 171 209 259 304
#     4  10  20  35  54  75  99 131 171 215 260 308
#     4  10  20  33  50  74 103 133 170 207 252 304
#     4  11  20  32  49  72 104 136 171 207 249 304
#     4   9  17  29  46  69  98 134 173 211 251 296
#     4  10  19  34  52  74 106 139 171 215 269 320
#     4  10  20  34  52  77 101 134 172 215 264 315
#     4   9  18  31  47  70  99 134 171 207 248 291
#
# _framework density 16.323226999999999
#
# number of rings (size 3 to 8) (size 9 to 14) (size 15 to 20)
#    0.000    2.250    1.250    3.250    0.000    5.000 
#    0.000    1.250    0.000    3.500    0.000    0.000 
#    0.000    0.000    0.000    3.375    0.000    0.000 
#
# Total GULP energy -267424.629636 kJ/mol
# GULP energy per Si atom -5571.346451 kJ/mol
# Density = 1.628607 g / cm^3
# Si number density = 16.323227 Si / 1000 Ang^3
#
#
#
# Elastic Constant Matrix: (Units=GPa)
#
#
# Indices 1 2 3 4 5 6 
#
# 1 60.5416 26.9879 19.6045 2.4520 0.0000 0.0000
# 2 26.9879 60.5416 19.6045 -2.4520 0.0000 0.0000
# 3 19.6045 19.6045 64.6095 0.0000 0.0000 0.0000
# 4 2.4520 -2.4520 0.0000 19.4321 0.0000 0.0000
# 5 0.0000 0.0000 0.0000 0.0000 19.4321 2.4520
# 6 0.0000 0.0000 0.0000 0.0000 2.4520 16.7769
#
#
#
# Elastic Compliance Matrix: (Units=1/GPa)
#
#
# Indices 1 2 3 4 5 6 
#
# 1 0.021792 -0.008571 -0.004012 -0.003831 0.000000 0.000000
# 2 -0.008571 0.021792 -0.004012 0.003831 0.000000 0.000000
# 3 -0.004012 -0.004012 0.017912 0.000000 0.000000 0.000000
# 4 -0.003831 0.003831 0.000000 0.052428 0.000000 0.000000
# 5 0.000000 0.000000 0.000000 0.000000 0.052428 -0.007662
# 6 0.000000 0.000000 0.000000 0.000000 -0.007662 0.060726
#
#
# Mechanical properties :
#
#
# Convention : Reuss Voigt Hill
#
# Bulk Modulus (GPa) = 35.32529 35.34295 35.33412
# Shear Modulus (GPa) = 18.53887 19.09462 18.81675
#
# Velocity S-wave (km/s) = 3.37372 3.42392 3.39891
# Velocity P-wave (km/s) = 6.07158 6.10982 6.09073
#
# Compressibility (1/GPa) = 0.02830833
#
# Stress axis : x y z
#
# Youngs Moduli (GPa) = 45.88763 45.88763 55.82767
#
# Poissons Ratio (x) = 0.39328 0.22398
# Poissons Ratio (y) = 0.39328 0.22398
# Poissons Ratio (z) = 0.18410 0.18410
#
# Static dielectric constant tensor:
#      x y z
#    x 1.542250 0.000000 0.000000 
#    y 0.000000 1.542250 0.000000 
#    z 0.000000 0.000000 1.558180 
# 
# From -- ./inp_files/3418.got.cif
#   From: 2010.05.17/outbox.cif.g08.bks.cpg/sg160_2_cif.got.tgz:3418.got - 2010.05.20 10:51:19.
