data_PCOD9577029
_publ_section_title
;
Structure prediction by ZEFSAII (Michael W. Deem and Ramdas Pophale) SiO2 
 PCOD9577029
Probable space group: R 3 2
;
_chemical_formula_sum "Si O2"
_cell_formula_units_Z 69
_cell_length_a 14.881396
_cell_length_b 14.881396
_cell_length_c 16.594242
_cell_angle_alpha 90.000000
_cell_angle_beta 90.000000
_cell_angle_gamma 120.000000
_cell_volume 3182.551192
_symmetry_space_group_name_H-M "R 3 2"
_symmetry_group_IT_number 155
_symmetry_cell_setting 'hexagonal'
loop_
_space_group_symop_operation_xyz
x,y,z
-y,x-y,z
-x+y,-x,z
x-y,-y,-z
-x,-x+y,-z
y,x,-z
2/3+x,1/3+y,1/3+z
2/3-y,1/3+x-y,1/3+z
2/3-x+y,1/3-x,1/3+z
2/3+x-y,1/3-y,1/3-z
2/3-x,1/3-x+y,1/3-z
2/3+y,1/3+x,1/3-z
1/3+x,2/3+y,2/3+z
1/3-y,2/3+x-y,2/3+z
1/3-x+y,2/3-x,2/3+z
1/3+x-y,2/3-y,2/3-z
1/3-x,2/3-x+y,2/3-z
1/3+y,2/3+x,2/3-z
loop_
_atom_site_type_symbol
_atom_site_label
_atom_site_fract_x
_atom_site_fract_y
_atom_site_fract_z
Si Si1 0.084343 0.666667 0.666667
Si Si2 0.953731 0.746539 0.830774
Si Si3 0.666668 0.333334 0.928791
Si Si4 0.717470 0.634417 0.571947
Si Si5 0.546978 0.415404 0.634082
O O1 0.150660 0.689318 0.586153
O O2 0.079115 0.773570 0.672280
O O3 0.837928 0.678368 0.798895
O O4 0.014652 0.681319 0.833334
O O5 0.993731 0.837490 0.766103
O O6 0.666668 0.333334 0.833334
O O7 0.549115 0.276279 0.963682
O O8 0.681422 0.681422 0.500000
O O9 0.731336 0.666667 0.666667
O O10 0.622956 0.517968 0.584811
#
# Coordination Sequence:
#
# PCOD9577029 Si02
#       5
#     9  18   6  18  18
#     4  10  22  42  72 102 128 198 250 282 376 456
#     4  10  23  42  70  98 140 187 241 297 362 443
#     4  12  27  45  72 106 146 193 237 306 393 438
#     4  12  26  45  71 108 149 188 244 313 372 442
#     4  11  24  45  68  98 146 181 237 312 356 433
#
# _framework density 21.680720000000001
#
# number of rings (size 3 to 8) (size 9 to 14) (size 15 to 20)
#    0.000    1.043    2.609    3.913    7.304    6.261 
#    0.000    0.000    0.000    0.522    0.000    0.000 
#    0.000    0.000    0.000    0.000    0.000    0.000 
#
# Total GULP energy -128057.022509 kJ/mol
# GULP energy per Si atom -5567.696631 kJ/mol
# Density = 2.163137 g / cm^3
# Si number density = 21.680720 Si / 1000 Ang^3
#
#
#
# Elastic Constant Matrix: (Units=GPa)
#
#
# Indices 1 2 3 4 5 6 
#
# 1 49.5067 11.7183 26.2450 -24.0149 -0.0014 -0.0001
# 2 11.7183 49.5059 26.2440 24.0162 0.0012 -0.0001
# 3 26.2450 26.2440 190.0627 0.0004 -0.0002 -0.0001
# 4 -24.0149 24.0162 0.0004 54.3006 0.0001 0.0013
# 5 -0.0014 0.0012 -0.0002 0.0001 54.2993 -24.0151
# 6 -0.0001 -0.0001 -0.0001 0.0013 -24.0151 18.8939
#
#
#
# Elastic Compliance Matrix: (Units=1/GPa)
#
#
# Indices 1 2 3 4 5 6 
#
# 1 0.039482 -0.020957 -0.002558 0.026730 0.000001 0.000000
# 2 -0.020957 0.039484 -0.002558 -0.026732 -0.000001 0.000001
# 3 -0.002558 -0.002558 0.005968 0.000000 0.000000 0.000000
# 4 0.026730 -0.026732 0.000000 0.042061 0.000000 -0.000003
# 5 0.000001 -0.000001 0.000000 0.000000 0.042061 0.053462
# 6 0.000000 0.000001 0.000000 -0.000003 0.053462 0.120879
#
#
# Mechanical properties :
#
#
# Convention : Reuss Voigt Hill
#
# Bulk Modulus (GPa) = 30.49887 46.38777 38.44332
# Shear Modulus (GPa) = 14.16384 40.48997 27.32691
#
# Velocity S-wave (km/s) = 2.55873 4.32621 3.55410
# Velocity P-wave (km/s) = 4.77779 6.81154 5.88321
#
# Compressibility (1/GPa) = 0.03278810
#
# Stress axis : x y z
#
# Youngs Moduli (GPa) = 25.32771 25.32655 167.56285
#
# Poissons Ratio (x) = 0.53076 0.42867
# Poissons Ratio (y) = 0.53079 0.42865
# Poissons Ratio (z) = 0.06480 0.06479
#
# Static dielectric constant tensor:
#      x y z
#    x 1.446470 0.000000 0.000000 
#    y 0.000000 1.446490 0.000000 
#    z 0.000000 0.000000 1.929170 
# 
# From -- ./inp_files/5917.got.cif
#   From: 2010.05.17/outbox.cif.g08.bks.cpg/sg155_3_cif.got.tgz:5917.got - 2010.05.20 10:44:35.
