data_PCOD9577356
_publ_section_title
;
Structure prediction by ZEFSAII (Michael W. Deem and Ramdas Pophale) SiO2 
 PCOD9577356
Probable space group: P 3 1 C
;
_chemical_formula_sum "Si O2"
_cell_formula_units_Z 30
_cell_length_a 16.519829
_cell_length_b 16.519829
_cell_length_c 5.439312
_cell_angle_alpha 90.000000
_cell_angle_beta 90.000000
_cell_angle_gamma 120.000000
_cell_volume 1285.540305
_symmetry_space_group_name_H-M "P 3 1 C"
_symmetry_group_IT_number 159
_symmetry_cell_setting 'hexagonal'
loop_
_space_group_symop_operation_xyz
x,y,z
-y,x-y,z
-x+y,-x,z
y,x,1/2+z
x-y,-y,1/2+z
-x,-x+y,1/2+z
loop_
_atom_site_type_symbol
_atom_site_label
_atom_site_fract_x
_atom_site_fract_y
_atom_site_fract_z
Si Si1 0.874597 0.840547 0.898630
Si Si2 0.147126 0.802545 0.405530
Si Si3 0.506597 0.399453 0.798288
Si Si4 0.102084 0.533032 0.796908
Si Si5 0.650753 0.756275 0.910471
O O1 0.891329 0.900093 0.657057
O O2 0.912037 0.767924 0.874600
O O3 0.758733 0.780686 0.916208
O O4 0.105147 0.694293 0.358507
O O5 0.184195 0.827510 0.684488
O O6 0.220252 0.848652 0.180092
O O7 0.478593 0.478875 0.768882
O O8 0.553079 0.402389 0.534970
O O9 0.574895 0.425529 0.033756
O O10 0.081162 0.428701 0.846661
#
# Coordination Sequence:
#
# PCOD9577356 Si02
#       5
#     6   6   6   6   6
#     4   8  16  25  44  68  86 106 146 186 243 289
#     4  10  19  31  47  71  95 109 146 207 278 273
#     4  10  21  32  49  72  93 122 157 221 250 299
#     4  10  21  33  53  71  91 125 181 201 245 311
#     4  10  19  31  53  72  87 122 164 215 238 314
#
# _framework density 23.336490999999999
#
# number of rings (size 3 to 8) (size 9 to 14) (size 15 to 20)
#    0.000    2.400    0.000    2.400   16.800    0.000 
#    0.000    0.000    0.000   16.000    0.000    0.000 
#    0.000    0.000    0.000    0.000    0.000    0.000 
#
# Total GULP energy -167384.038024 kJ/mol
# GULP energy per Si atom -5579.467934 kJ/mol
# Density = 2.328338 g / cm^3
# Si number density = 23.336491 Si / 1000 Ang^3
#
#
#
# Elastic Constant Matrix: (Units=GPa)
#
#
# Indices 1 2 3 4 5 6 
#
# 1 49.0920 11.2894 -19.5420 0.0000 -13.7363 0.0000
# 2 11.2894 49.0920 -19.5420 0.0000 13.7363 0.0000
# 3 -19.5420 -19.5420 157.7435 0.0000 0.0000 0.0000
# 4 0.0000 0.0000 0.0000 -25.1332 0.0000 13.7363
# 5 -13.7363 13.7363 0.0000 0.0000 -25.1332 0.0000
# 6 0.0000 0.0000 0.0000 13.7363 0.0000 18.9013
#
#
#
# Elastic Compliance Matrix: (Units=1/GPa)
#
#
# Indices 1 2 3 4 5 6 
#
# 1 0.018469 -0.000464 0.002231 0.000000 -0.010348 0.000000
# 2 -0.000464 0.018469 0.002231 0.000000 0.010348 0.000000
# 3 0.002231 0.002231 0.006892 0.000000 0.000000 0.000000
# 4 0.000000 0.000000 0.000000 -0.028477 0.000000 0.020695
# 5 -0.010348 0.010348 0.000000 0.000000 -0.028477 0.000000
# 6 0.000000 0.000000 0.000000 0.020695 0.000000 0.037866
#
#
# Mechanical properties :
#
#
# Convention : Reuss Voigt Hill
#
# Bulk Modulus (GPa) = 19.29579 22.25980 20.77780
# Shear Modulus (GPa) = 146.96050 12.64181 79.80116
#
# Velocity S-wave (km/s) = 7.94426 2.33001 5.85407
# Velocity P-wave (km/s) = 9.61430 4.09853 7.39029
#
# Compressibility (1/GPa) = 0.05182478
#
# Stress axis : x y z
#
# Youngs Moduli (GPa) = 54.14435 54.14435 145.09420
#
# Poissons Ratio (x) = 0.02512 -0.32364
# Poissons Ratio (y) = 0.02512 -0.32364
# Poissons Ratio (z) = -0.12077 -0.12077
#
# Static dielectric constant tensor:
#      x y z
#    x 1.887690 0.000000 0.000000 
#    y 0.000000 1.887690 0.000000 
#    z 0.000000 0.000000 2.033010 
# 
# From -- ./inp_files/82.got.cif
#   From: 2010.05.17/outbox.cif.g08.bks.cpg/sg159_cif.got.tgz:82.got - 2010.05.20 10:50:30.
