data_PCOD9577899
_publ_section_title
;
Structure prediction by ZEFSAII (Michael W. Deem and Ramdas Pophale) SiO2 
 PCOD9577899
Probable space group: P -3 1 M 
;
_chemical_formula_sum "Si O2"
_cell_formula_units_Z 60
_cell_length_a 15.229374
_cell_length_b 15.229374
_cell_length_c 13.568808
_cell_angle_alpha 90.000000
_cell_angle_beta 90.000000
_cell_angle_gamma 120.000000
_cell_volume 2725.438792
_symmetry_space_group_name_H-M "P -3 1 M "
_symmetry_group_IT_number 162
_symmetry_cell_setting 'hexagonal'
loop_
_space_group_symop_operation_xyz
x,y,z
-y,x-y,z
-x+y,-x,z
-y,-x,-z
-x+y,y,-z
x,x-y,-z
-x,-y,-z
y,-x+y,-z
x-y,x,-z
y,x,z
x-y,-y,z
-x,-x+y,z
loop_
_atom_site_type_symbol
_atom_site_label
_atom_site_fract_x
_atom_site_fract_y
_atom_site_fract_z
Si Si1 0.535223 0.184501 0.924076
Si Si2 0.880080 0.765762 0.315852
Si Si3 0.546815 0.787715 0.387134
Si Si4 0.881510 0.692006 0.109871
Si Si5 0.453060 0.576150 0.275694
O O1 0.423279 0.143937 0.884332
O O2 0.595465 0.185799 0.826619
O O3 0.558924 0.117848 0.000000
O O4 0.550777 0.275388 0.000000
O O5 0.818887 0.818887 0.353341
O O6 0.858638 0.667313 0.376784
O O7 0.841008 0.723341 0.204395
O O8 0.000000 0.844873 0.313615
O O9 0.516757 0.758379 0.500000
O O10 0.516691 0.684538 0.327752
O O11 0.491809 0.845115 0.341460
O O12 0.000000 0.761073 0.118545
O O13 0.852992 0.705984 0.000000
O O14 0.517547 0.517547 0.261098
#
# Coordination Sequence:
#
# PCOD9577899 Si02
#       5
#    12  12  12  12  12
#     4  11  23  40  64  98 142 186 226 280 341 418
#     4  11  24  45  71 102 139 184 238 299 361 421
#     4  12  27  48  73 104 141 184 241 304 364 430
#     4  10  21  38  60  91 131 175 224 278 336 412
#     4  12  26  47  74 106 144 191 241 291 360 435
#
# _framework density 22.014804999999999
#
# number of rings (size 3 to 8) (size 9 to 14) (size 15 to 20)
#    0.000    0.800    2.000    5.000    2.800    5.600 
#    0.000    0.000    0.000    4.400    0.000    0.000 
#    0.000    0.000    0.000    0.000    0.000    0.000 
#
# Total GULP energy -334979.994976 kJ/mol
# GULP energy per Si atom -5582.999916 kJ/mol
# Density = 2.196470 g / cm^3
# Si number density = 22.014805 Si / 1000 Ang^3
#
#
#
# Elastic Constant Matrix: (Units=GPa)
#
#
# Indices 1 2 3 4 5 6 
#
# 1 83.2552 21.7823 6.6900 0.0000 -1.6118 0.0000
# 2 21.7823 83.2552 6.6900 0.0000 1.6118 0.0000
# 3 6.6900 6.6900 115.0263 0.0000 0.0000 0.0000
# 4 0.0000 0.0000 0.0000 7.6329 0.0000 1.6118
# 5 -1.6118 1.6118 0.0000 0.0000 7.6329 0.0000
# 6 0.0000 0.0000 0.0000 1.6118 0.0000 30.7365
#
#
#
# Elastic Compliance Matrix: (Units=1/GPa)
#
#
# Indices 1 2 3 4 5 6 
#
# 1 0.013020 -0.003429 -0.000558 0.000000 0.003474 0.000000
# 2 -0.003429 0.013020 -0.000558 0.000000 -0.003474 0.000000
# 3 -0.000558 -0.000558 0.008759 0.000000 0.000000 0.000000
# 4 0.000000 0.000000 0.000000 0.132479 0.000000 -0.006947
# 5 0.003474 -0.003474 0.000000 0.000000 0.132479 0.000000
# 6 0.000000 0.000000 0.000000 -0.006947 0.000000 0.032899
#
#
# Mechanical properties :
#
#
# Convention : Reuss Voigt Hill
#
# Bulk Modulus (GPa) = 38.89520 39.09569 38.99544
# Shear Modulus (GPa) = 14.27279 25.62539 19.94909
#
# Velocity S-wave (km/s) = 2.54899 3.41546 3.01353
# Velocity P-wave (km/s) = 5.13510 5.77505 5.46445
#
# Compressibility (1/GPa) = 0.02571012
#
# Stress axis : x y z
#
# Youngs Moduli (GPa) = 76.80209 76.80209 114.17407
#
# Poissons Ratio (x) = 0.26335 0.06369
# Poissons Ratio (y) = 0.26335 0.06369
# Poissons Ratio (z) = 0.04284 0.04284
#
# Static dielectric constant tensor:
#      x y z
#    x 1.805220 0.000000 0.000000 
#    y 0.000000 1.805220 0.000000 
#    z 0.000000 0.000000 1.775800 
# 
# From -- ./inp_files/2951.got.cif
#   From: 2010.05.17/outbox.cif.g08.bks.cpg/sg162_2_cif.got.tgz:2951.got - 2010.05.20 10:53:12.
