data_PCOD9577544
_publ_section_title
;
Structure prediction by ZEFSAII (Michael W. Deem and Ramdas Pophale) SiO2 
 PCOD9577544
Probable space group: R 3 C
;
_chemical_formula_sum "Si O2"
_cell_formula_units_Z 144
_cell_length_a 22.805174
_cell_length_b 22.805174
_cell_length_c 15.332105
_cell_angle_alpha 90.000000
_cell_angle_beta 90.000000
_cell_angle_gamma 120.000000
_cell_volume 6905.564672
_symmetry_space_group_name_H-M "R 3 C"
_symmetry_group_IT_number 161
_symmetry_cell_setting 'hexagonal'
loop_
_space_group_symop_operation_xyz
x,y,z
-y,x-y,z
-x+y,-x,z
-x+y,y,1/2+z
x,x-y,1/2+z
-y,-x,1/2+z
2/3+x,1/3+y,1/3+z
2/3-y,1/3+x-y,1/3+z
2/3-x+y,1/3-x,1/3+z
2/3-x+y,1/3+y,5/6+z
2/3+x,1/3+x-y,5/6+z
2/3-y,1/3-x,5/6+z
1/3+x,2/3+y,2/3+z
1/3-y,2/3+x-y,2/3+z
1/3-x+y,2/3-x,2/3+z
1/3-x+y,2/3+y,1/6+z
1/3+x,2/3+x-y,1/6+z
1/3-y,2/3-x,1/6+z
loop_
_atom_site_type_symbol
_atom_site_label
_atom_site_fract_x
_atom_site_fract_y
_atom_site_fract_z
Si Si1 0.896163 0.331563 0.399986
Si Si2 0.866518 0.739415 0.566867
Si Si3 0.480895 0.162812 0.945327
Si Si4 0.828609 0.294292 0.214078
Si Si5 0.332762 0.385065 0.917887
Si Si6 0.585469 0.325744 0.585058
Si Si7 0.850571 0.209086 0.726193
Si Si8 0.356873 0.173434 0.410342
O O1 0.890635 0.392262 0.442727
O O2 0.850753 0.315703 0.313143
O O3 0.871690 0.259870 0.444405
O O4 0.976520 0.361785 0.390951
O O5 0.843625 0.794134 0.549832
O O6 0.821385 0.682833 0.637543
O O7 0.863600 0.701186 0.477320
O O8 0.438100 0.104264 0.015491
O O9 0.541421 0.224903 0.997818
O O10 0.423347 0.175723 0.907315
O O11 0.781029 0.213012 0.209404
O O12 0.900744 0.312515 0.169764
O O13 0.788037 0.324562 0.162817
O O14 0.257350 0.321288 0.920880
O O15 0.607092 0.267515 0.588424
O O16 0.827624 0.158926 0.810609
#
# Coordination Sequence:
#
# PCOD9577544 Si02
#       8
#    18  18  18  18  18  18  18  18
#     4  11  23  37  65  91 132 178 214 273 335 400
#     4  11  22  44  64  98 132 177 216 277 345 388
#     4  10  22  40  63  92 134 167 221 288 320 403
#     4  10  20  42  60  96 137 162 230 286 317 413
#     4  10  20  38  64  86 127 173 210 272 333 389
#     4   9  21  42  71  93 125 182 236 276 346 393
#     4  10  22  40  65  96 133 174 221 268 341 403
#     4  11  24  41  64 100 132 173 224 274 337 409
#
# _framework density 20.852748999999999
#
# number of rings (size 3 to 8) (size 9 to 14) (size 15 to 20)
#    0.250    1.500    2.500    1.500    3.500    1.000 
#    4.500    5.000    0.000    0.000    0.000    0.000 
#    0.000    0.000    0.000    0.000    0.000    0.000 
#
# Total GULP energy -267241.428488 kJ/mol
# GULP energy per Si atom -5567.529760 kJ/mol
# Density = 2.080529 g / cm^3
# Si number density = 20.852749 Si / 1000 Ang^3
#
#
#
# Elastic Constant Matrix: (Units=GPa)
#
#
# Indices 1 2 3 4 5 6 
#
# 1 101.6835 30.3225 1.3188 2.7228 0.0000 0.0000
# 2 30.3225 101.6835 1.3188 -2.7228 0.0000 0.0000
# 3 1.3188 1.3188 41.8140 0.0000 0.0000 0.0000
# 4 2.7228 -2.7228 0.0000 13.7091 0.0000 0.0000
# 5 0.0000 0.0000 0.0000 0.0000 13.7091 2.7228
# 6 0.0000 0.0000 0.0000 0.0000 2.7228 35.6805
#
#
#
# Elastic Compliance Matrix: (Units=1/GPa)
#
#
# Indices 1 2 3 4 5 6 
#
# 1 0.010905 -0.003324 -0.000239 -0.002826 0.000000 0.000000
# 2 -0.003324 0.010905 -0.000239 0.002826 0.000000 0.000000
# 3 -0.000239 -0.000239 0.023931 0.000000 0.000000 0.000000
# 4 -0.002826 0.002826 0.000000 0.074067 0.000000 0.000000
# 5 0.000000 0.000000 0.000000 0.000000 0.074067 -0.005652
# 6 0.000000 0.000000 0.000000 0.000000 -0.005652 0.028458
#
#
# Mechanical properties :
#
#
# Convention : Reuss Voigt Hill
#
# Bulk Modulus (GPa) = 26.22294 34.56681 30.39488
# Shear Modulus (GPa) = 20.60603 26.76781 23.68692
#
# Velocity S-wave (km/s) = 3.14693 3.58670 3.37399
# Velocity P-wave (km/s) = 5.08004 5.81078 5.45765
#
# Compressibility (1/GPa) = 0.03813455
#
# Stress axis : x y z
#
# Youngs Moduli (GPa) = 91.70484 91.70484 41.78768
#
# Poissons Ratio (x) = 0.30486 0.00999
# Poissons Ratio (y) = 0.30486 0.00999
# Poissons Ratio (z) = 0.02193 0.02193
#
# Static dielectric constant tensor:
#      x y z
#    x 1.802190 0.000000 0.000000 
#    y 0.000000 1.802190 0.000000 
#    z 0.000000 0.000000 1.775430 
# 
# From -- ./inp_files/1549.got.cif
#   From: 2010.05.17/outbox.cif.g08.bks.cpg/sg161_cif.got.tgz:1549.got - 2010.05.20 10:52:32.
