data_PCOD9577788
_publ_section_title
;
Structure prediction by ZEFSAII (Michael W. Deem and Ramdas Pophale) SiO2 
 PCOD9577788
Probable space group: P -3 1 M 
;
_chemical_formula_sum "Si O2"
_cell_formula_units_Z 60
_cell_length_a 16.785673
_cell_length_b 16.785673
_cell_length_c 14.549801
_cell_angle_alpha 90.000000
_cell_angle_beta 90.000000
_cell_angle_gamma 120.000000
_cell_volume 3550.301222
_symmetry_space_group_name_H-M "P -3 1 M "
_symmetry_group_IT_number 162
_symmetry_cell_setting 'hexagonal'
loop_
_space_group_symop_operation_xyz
x,y,z
-y,x-y,z
-x+y,-x,z
-y,-x,-z
-x+y,y,-z
x,x-y,-z
-x,-y,-z
y,-x+y,-z
x-y,x,-z
y,x,z
x-y,-y,z
-x,-x+y,z
loop_
_atom_site_type_symbol
_atom_site_label
_atom_site_fract_x
_atom_site_fract_y
_atom_site_fract_z
Si Si1 0.895542 0.610948 0.705415
Si Si2 0.667842 0.519020 0.896423
Si Si3 0.111633 0.555817 0.394948
Si Si4 0.667841 0.148821 0.896423
Si Si5 0.715406 0.104458 0.294585
O O1 0.862649 0.512439 0.656979
O O2 0.894562 0.590585 0.814113
O O3 0.820627 0.641253 0.686438
O O4 0.000000 0.680923 0.676196
O O5 0.742332 0.484663 0.892764
O O6 0.565841 0.434159 0.881814
O O7 0.696023 0.590585 0.814114
O O8 0.672802 0.554943 0.000000
O O9 0.144097 0.572049 0.500000
O O10 0.137351 0.649791 0.343021
O O11 0.000000 0.500000 0.395322
O O12 0.680923 0.000000 0.323804
#
# Coordination Sequence:
#
# PCOD9577788 Si02
#       5
#    12  12  12  12  12
#     4  10  20  34  51  72  99 131 167 206 247 290
#     4   9  16  26  43  68  98 130 162 196 236 285
#     4   9  18  34  53  73  99 127 156 194 239 289
#     4   9  16  26  43  68  98 130 162 196 236 285
#     4  10  20  34  51  72  99 131 167 206 247 290
#
# _framework density 16.899974
#
# number of rings (size 3 to 8) (size 9 to 14) (size 15 to 20)
#    0.000    2.600    2.000    0.400    0.000    3.200 
#    1.200    2.000    0.000    0.400    0.000    0.000 
#    0.000    0.000    0.000   20.000    0.000    0.000 
#
# Total GULP energy -334366.798137 kJ/mol
# GULP energy per Si atom -5572.779969 kJ/mol
# Density = 1.686151 g / cm^3
# Si number density = 16.899974 Si / 1000 Ang^3
#
#
#
# Elastic Constant Matrix: (Units=GPa)
#
#
# Indices 1 2 3 4 5 6 
#
# 1 74.1607 45.5831 14.7095 0.0000 0.0000 0.0000
# 2 45.5831 74.1607 14.7095 0.0000 0.0000 0.0000
# 3 14.7095 14.7095 65.4456 0.0000 0.0000 0.0000
# 4 0.0000 0.0000 0.0000 10.4247 0.0000 0.0000
# 5 0.0000 0.0000 0.0000 0.0000 10.4247 0.0000
# 6 0.0000 0.0000 0.0000 0.0000 0.0000 14.2888
#
#
#
# Elastic Compliance Matrix: (Units=1/GPa)
#
#
# Indices 1 2 3 4 5 6 
#
# 1 0.021916 -0.013077 -0.001987 0.000000 0.000000 0.000000
# 2 -0.013077 0.021916 -0.001987 0.000000 0.000000 0.000000
# 3 -0.001987 -0.001987 0.016173 0.000000 0.000000 0.000000
# 4 0.000000 0.000000 0.000000 0.095926 0.000000 0.000000
# 5 0.000000 0.000000 0.000000 0.000000 0.095926 0.000000
# 6 0.000000 0.000000 0.000000 0.000000 0.000000 0.069985
#
#
# Mechanical properties :
#
#
# Convention : Reuss Voigt Hill
#
# Bulk Modulus (GPa) = 38.60311 40.41899 39.51105
# Shear Modulus (GPa) = 13.71453 16.27863 14.99658
#
# Velocity S-wave (km/s) = 2.85180 3.10697 2.98211
# Velocity P-wave (km/s) = 5.80821 6.06956 5.94032
#
# Compressibility (1/GPa) = 0.02590465
#
# Stress axis : x y z
#
# Youngs Moduli (GPa) = 45.62911 45.62911 61.83174
#
# Poissons Ratio (x) = 0.59667 0.12284
# Poissons Ratio (y) = 0.59667 0.12284
# Poissons Ratio (z) = 0.09065 0.09065
#
# Static dielectric constant tensor:
#      x y z
#    x 1.576630 0.000000 0.000000 
#    y 0.000000 1.576630 0.000000 
#    z 0.000000 0.000000 1.605050 
# 
# From -- ./inp_files/3032.got.cif
#   From: 2010.05.17/outbox.cif.g08.bks.cpg/sg162_2_cif.got.tgz:3032.got - 2010.05.20 10:53:12.
