data_PCOD9577397
_publ_section_title
;
Structure prediction by ZEFSAII (Michael W. Deem and Ramdas Pophale) SiO2 
 PCOD9577397
Probable space group: P 3 1 C
;
_chemical_formula_sum "Si O2"
_cell_formula_units_Z 42
_cell_length_a 8.546987
_cell_length_b 8.546987
_cell_length_c 29.326828
_cell_angle_alpha 90.000000
_cell_angle_beta 90.000000
_cell_angle_gamma 120.000000
_cell_volume 1855.332749
_symmetry_space_group_name_H-M "P 3 1 C"
_symmetry_group_IT_number 159
_symmetry_cell_setting 'hexagonal'
loop_
_space_group_symop_operation_xyz
x,y,z
-y,x-y,z
-x+y,-x,z
y,x,1/2+z
x-y,-y,1/2+z
-x,-x+y,1/2+z
loop_
_atom_site_type_symbol
_atom_site_label
_atom_site_fract_x
_atom_site_fract_y
_atom_site_fract_z
Si Si1 0.970723 0.652795 0.723830
Si Si2 0.348522 0.026150 0.363461
Si Si3 0.654586 0.684260 0.759593
Si Si4 0.037308 0.694943 0.398200
Si Si5 0.240204 0.116336 0.990833
Si Si6 0.028797 0.683868 0.119342
Si Si7 0.964520 0.309797 0.083793
O O1 0.856582 0.724131 0.751154
O O2 0.951632 0.473586 0.745619
O O3 0.909318 0.614781 0.671454
O O4 0.180551 0.803985 0.728282
O O5 0.281958 0.145573 0.390548
O O6 0.387837 0.094284 0.311781
O O7 0.188287 0.819477 0.361802
O O8 0.515689 0.028778 0.388973
O O9 0.136311 0.782854 0.446120
O O10 0.099107 0.192081 0.991656
O O11 0.355759 0.128551 0.034993
O O12 0.957036 0.482387 0.101038
O O13 0.861129 0.718242 0.116809
O O14 0.189331 0.827071 0.087605
#
# Coordination Sequence:
#
# PCOD9577397 Si02
#       7
#     6   6   6   6   6   6   6
#     4  12  25  43  67 100 143 191 241 295 347 411
#     4  12  24  44  70 103 141 190 240 288 354 419
#     4  12  25  43  67 100 143 191 241 295 347 411
#     4  12  25  45  73 105 142 184 234 293 353 425
#     4  10  20  48  72 100 132 168 216 284 354 402
#     4  12  24  44  70 103 141 190 240 288 354 419
#     4  12  25  45  73 105 142 184 234 293 353 425
#
# _framework density 22.637450000000001
#
# number of rings (size 3 to 8) (size 9 to 14) (size 15 to 20)
#    0.286    0.000    2.857    7.714    0.000    1.143 
#    0.000    0.000    0.000    0.000    0.000    0.000 
#    0.000    0.000    0.000    0.000    0.000    0.000 
#
# Total GULP energy -234730.461601 kJ/mol
# GULP energy per Si atom -5588.820514 kJ/mol
# Density = 2.258593 g / cm^3
# Si number density = 22.637450 Si / 1000 Ang^3
#
#
#
# Elastic Constant Matrix: (Units=GPa)
#
#
# Indices 1 2 3 4 5 6 
#
# 1 69.4113 -7.0540 10.6996 0.0000 5.0684 0.0000
# 2 -7.0540 69.4113 10.6996 0.0000 -5.0684 0.0000
# 3 10.6996 10.6996 154.9546 0.0000 0.0000 0.0000
# 4 0.0000 0.0000 0.0000 25.3899 0.0000 -5.0684
# 5 5.0684 -5.0684 0.0000 0.0000 25.3899 0.0000
# 6 0.0000 0.0000 0.0000 -5.0684 0.0000 38.2327
#
#
#
# Elastic Compliance Matrix: (Units=1/GPa)
#
#
# Indices 1 2 3 4 5 6 
#
# 1 0.014930 0.001496 -0.001134 0.000000 -0.002682 0.000000
# 2 0.001496 0.014930 -0.001134 0.000000 0.002682 0.000000
# 3 -0.001134 -0.001134 0.006610 0.000000 0.000000 0.000000
# 4 0.000000 0.000000 0.000000 0.040456 0.000000 0.005363
# 5 -0.002682 0.002682 0.000000 0.000000 0.040456 0.000000
# 6 0.000000 0.000000 0.000000 0.005363 0.000000 0.026867
#
#
# Mechanical properties :
#
#
# Convention : Reuss Voigt Hill
#
# Bulk Modulus (GPa) = 28.63279 35.82975 32.23127
# Shear Modulus (GPa) = 31.75923 36.43130 34.09527
#
# Velocity S-wave (km/s) = 3.74966 4.01601 3.88512
# Velocity P-wave (km/s) = 5.60558 6.11281 5.86468
#
# Compressibility (1/GPa) = 0.03492499
#
# Stress axis : x y z
#
# Youngs Moduli (GPa) = 66.98112 66.98112 151.28281
#
# Poissons Ratio (x) = -0.10022 0.17159
# Poissons Ratio (y) = -0.10022 0.17159
# Poissons Ratio (z) = 0.07597 0.07597
#
# Static dielectric constant tensor:
#      x y z
#    x 1.832790 0.000000 0.000000 
#    y 0.000000 1.832790 0.000000 
#    z 0.000000 0.000000 1.875520 
# 
# From -- ./inp_files/1302.got.cif
#   From: 2010.05.17/outbox.cif.g08.bks.cpg/sg159_cif.got.tgz:1302.got - 2010.05.20 10:50:30.
