data_PCOD9577771
_publ_section_title
;
Structure prediction by ZEFSAII (Michael W. Deem and Ramdas Pophale) SiO2 
 PCOD9577771
Probable space group: P -3 1 M 
;
_chemical_formula_sum "Si O2"
_cell_formula_units_Z 54
_cell_length_a 19.774427
_cell_length_b 19.774427
_cell_length_c 9.379424
_cell_angle_alpha 90.000000
_cell_angle_beta 90.000000
_cell_angle_gamma 120.000000
_cell_volume 3176.249547
_symmetry_space_group_name_H-M "P -3 1 M "
_symmetry_group_IT_number 162
_symmetry_cell_setting 'hexagonal'
loop_
_space_group_symop_operation_xyz
x,y,z
-y,x-y,z
-x+y,-x,z
-y,-x,-z
-x+y,y,-z
x,x-y,-z
-x,-y,-z
y,-x+y,-z
x-y,x,-z
y,x,z
x-y,-y,z
-x,-x+y,z
loop_
_atom_site_type_symbol
_atom_site_label
_atom_site_fract_x
_atom_site_fract_y
_atom_site_fract_z
Si Si1 0.206876 0.404957 0.839925
Si Si2 0.596159 0.192317 0.500000
Si Si3 0.089294 0.308469 0.414113
Si Si4 0.680039 0.424304 0.211957
Si Si5 0.090986 0.429738 0.644149
O O1 0.215566 0.346927 0.733337
O O2 0.287237 0.489018 0.841218
O O3 0.140113 0.419318 0.770536
O O4 0.187741 0.375481 0.000000
O O5 0.576950 0.240750 0.382430
O O6 0.618504 0.136832 0.410546
O O7 0.139056 0.278111 0.500000
O O8 0.093101 0.377138 0.513888
O O9 0.000000 0.244677 0.394682
O O10 0.601115 0.345166 0.168766
O O11 0.000000 0.397192 0.679135
#
# Coordination Sequence:
#
# PCOD9577771 Si02
#       5
#    12   6  12  12  12
#     4  11  22  35  51  74 108 140 169 210 260 314
#     4  12  17  32  54  74  92 130 180 234 266 294
#     4   9  19  36  58  81 104 133 171 212 252 302
#     4  10  20  30  49  70  96 133 180 225 265 295
#     4  10  20  34  53  75  98 130 176 221 261 304
#
# _framework density 17.001182
#
# number of rings (size 3 to 8) (size 9 to 14) (size 15 to 20)
#    0.444    1.333    4.444    1.000    0.000    1.778 
#    0.000    0.000    0.000    1.556    0.000    0.000 
#    0.000    0.889    0.000    0.000    0.000    0.000 
#
# Total GULP energy -300763.282681 kJ/mol
# GULP energy per Si atom -5569.690420 kJ/mol
# Density = 1.696249 g / cm^3
# Si number density = 17.001182 Si / 1000 Ang^3
#
#
#
# Elastic Constant Matrix: (Units=GPa)
#
#
# Indices 1 2 3 4 5 6 
#
# 1 85.6702 46.0988 36.4286 -0.0001 -1.2504 0.0000
# 2 46.0988 85.6702 36.4286 0.0001 1.2504 0.0000
# 3 36.4286 36.4286 103.7775 0.0000 0.0000 0.0000
# 4 -0.0001 0.0001 0.0000 10.0156 0.0000 1.2504
# 5 -1.2504 1.2504 0.0000 0.0000 10.0156 -0.0001
# 6 0.0000 0.0000 0.0000 1.2504 -0.0001 19.7857
#
#
#
# Elastic Compliance Matrix: (Units=1/GPa)
#
#
# Indices 1 2 3 4 5 6 
#
# 1 0.017444 -0.008028 -0.003306 0.000000 0.003180 0.000000
# 2 -0.008028 0.017444 -0.003306 0.000000 -0.003180 0.000000
# 3 -0.003306 -0.003306 0.011957 0.000000 0.000000 0.000000
# 4 0.000000 0.000000 0.000000 0.100639 0.000000 -0.006360
# 5 0.003180 -0.003180 0.000000 0.000000 0.100639 0.000001
# 6 0.000000 0.000000 0.000000 -0.006360 0.000001 0.050943
#
#
# Mechanical properties :
#
#
# Convention : Reuss Voigt Hill
#
# Bulk Modulus (GPa) = 56.92163 57.00333 56.96248
# Shear Modulus (GPa) = 14.96115 18.37416 16.66766
#
# Velocity S-wave (km/s) = 2.96971 3.29105 3.13450
# Velocity P-wave (km/s) = 6.73146 6.93132 6.83212
#
# Compressibility (1/GPa) = 0.01756802
#
# Stress axis : x y z
#
# Youngs Moduli (GPa) = 57.32557 57.32557 83.63551
#
# Poissons Ratio (x) = 0.46018 0.27646
# Poissons Ratio (y) = 0.46018 0.27646
# Poissons Ratio (z) = 0.18949 0.18949
#
# Static dielectric constant tensor:
#      x y z
#    x 1.573890 0.000000 0.000000 
#    y 0.000000 1.573890 0.000000 
#    z 0.000000 0.000000 1.601710 
# 
# From -- ./inp_files/1475.got.cif
#   From: 2010.05.17/outbox.cif.g08.bks.cpg/sg162_1_cif.got.tgz:1475.got - 2010.05.20 10:53:12.
