data_PCOD9577703
_publ_section_title
;
Structure prediction by ZEFSAII (Michael W. Deem and Ramdas Pophale) SiO2 
 PCOD9577703
Probable space group: P -3 1 M 
;
_chemical_formula_sum "Si O2"
_cell_formula_units_Z 52
_cell_length_a 14.133968
_cell_length_b 14.133968
_cell_length_c 16.485753
_cell_angle_alpha 90.000000
_cell_angle_beta 90.000000
_cell_angle_gamma 120.000000
_cell_volume 2852.118908
_symmetry_space_group_name_H-M "P -3 1 M "
_symmetry_group_IT_number 162
_symmetry_cell_setting 'hexagonal'
loop_
_space_group_symop_operation_xyz
x,y,z
-y,x-y,z
-x+y,-x,z
-y,-x,-z
-x+y,y,-z
x,x-y,-z
-x,-y,-z
y,-x+y,-z
x-y,x,-z
y,x,z
x-y,-y,z
-x,-x+y,z
loop_
_atom_site_type_symbol
_atom_site_label
_atom_site_fract_x
_atom_site_fract_y
_atom_site_fract_z
Si Si1 0.781510 0.530578 0.212247
Si Si2 0.124392 0.409916 0.564431
Si Si3 0.666668 0.333335 0.903964
Si Si4 0.255838 0.128865 0.290311
Si Si5 0.549756 0.429641 0.686829
O O1 0.725697 0.455717 0.134227
O O2 0.825033 0.658588 0.215376
O O3 0.688748 0.479824 0.283116
O O4 0.875747 0.507867 0.243264
O O5 0.216182 0.432363 0.500000
O O6 0.130695 0.331031 0.633646
O O7 0.138350 0.519791 0.605509
O O8 0.000000 0.344056 0.531415
O O9 0.666668 0.333334 0.000000
O O10 0.168695 0.168695 0.277319
O O11 0.196854 0.000000 0.304762
O O12 0.445172 0.445172 0.683481
#
# Coordination Sequence:
#
# PCOD9577703 Si02
#       5
#    12  12   4  12  12
#     4   9  17  31  52  74 101 130 156 192 241 290
#     4   9  17  29  45  67  97 130 167 215 264 301
#     4   9  18  33  57  87 109 122 145 186 240 303
#     4  10  19  31  49  71  97 133 175 213 245 282
#     4   9  17  30  48  69  93 126 166 200 238 293
#
# _framework density 18.232061000000002
#
# number of rings (size 3 to 8) (size 9 to 14) (size 15 to 20)
#    0.000    2.769    0.000    4.154    0.000    0.000 
#    0.000    4.615    0.000   41.077    0.000    0.000 
#    0.000    2.769    0.000    0.000    0.000    0.000 
#
# Total GULP energy -289767.749512 kJ/mol
# GULP energy per Si atom -5572.456721 kJ/mol
# Density = 1.819056 g / cm^3
# Si number density = 18.232061 Si / 1000 Ang^3
#
#
#
# Elastic Constant Matrix: (Units=GPa)
#
#
# Indices 1 2 3 4 5 6 
#
# 1 81.7154 25.7945 23.3193 -0.0001 -1.9495 0.0000
# 2 25.7945 81.7152 23.3192 -0.0002 1.9494 -0.0001
# 3 23.3193 23.3192 70.3266 -0.0004 -0.0002 0.0000
# 4 -0.0001 -0.0002 -0.0004 12.6940 0.0000 1.9495
# 5 -1.9495 1.9494 -0.0002 0.0000 12.6939 0.0000
# 6 0.0000 -0.0001 0.0000 1.9495 0.0000 27.9604
#
#
#
# Elastic Compliance Matrix: (Units=1/GPa)
#
#
# Indices 1 2 3 4 5 6 
#
# 1 0.014470 -0.003606 -0.003602 0.000000 0.002776 0.000000
# 2 -0.003606 0.014470 -0.003602 0.000000 -0.002776 0.000000
# 3 -0.003602 -0.003602 0.016608 0.000000 0.000000 0.000000
# 4 0.000000 0.000000 0.000000 0.079630 0.000000 -0.005552
# 5 0.002776 -0.002776 0.000000 0.000000 0.079631 0.000000
# 6 0.000000 0.000000 0.000000 -0.005552 0.000000 0.036152
#
#
# Mechanical properties :
#
#
# Convention : Reuss Voigt Hill
#
# Bulk Modulus (GPa) = 41.79348 42.06925 41.93137
# Shear Modulus (GPa) = 18.48027 21.42459 19.95243
#
# Velocity S-wave (km/s) = 3.18718 3.43170 3.31170
# Velocity P-wave (km/s) = 6.04293 6.23109 6.13773
#
# Compressibility (1/GPa) = 0.02392718
#
# Stress axis : x y z
#
# Youngs Moduli (GPa) = 69.10809 69.10785 60.21055
#
# Poissons Ratio (x) = 0.24919 0.21690
# Poissons Ratio (y) = 0.24920 0.21690
# Poissons Ratio (z) = 0.24896 0.24896
#
# Static dielectric constant tensor:
#      x y z
#    x 1.654310 0.000000 0.000000 
#    y 0.000000 1.654310 0.000000 
#    z 0.000000 0.000000 1.623180 
# 
# From -- ./inp_files/2884.got.cif
#   From: 2010.05.17/outbox.cif.g08.bks.cpg/sg162_2_cif.got.tgz:2884.got - 2010.05.20 10:53:12.
