data_PCOD9577358
_publ_section_title
;
Structure prediction by ZEFSAII (Michael W. Deem and Ramdas Pophale) SiO2 
 PCOD9577358
Probable space group: P 3 1 C
;
_chemical_formula_sum "Si O2"
_cell_formula_units_Z 42
_cell_length_a 16.700101
_cell_length_b 16.700101
_cell_length_c 8.900622
_cell_angle_alpha 90.000000
_cell_angle_beta 90.000000
_cell_angle_gamma 120.000000
_cell_volume 2149.756073
_symmetry_space_group_name_H-M "P 3 1 C"
_symmetry_group_IT_number 159
_symmetry_cell_setting 'hexagonal'
loop_
_space_group_symop_operation_xyz
x,y,z
-y,x-y,z
-x+y,-x,z
y,x,1/2+z
x-y,-y,1/2+z
-x,-x+y,1/2+z
loop_
_atom_site_type_symbol
_atom_site_label
_atom_site_fract_x
_atom_site_fract_y
_atom_site_fract_z
Si Si1 0.581060 0.616263 0.104800
Si Si2 0.977697 0.769350 0.584662
Si Si3 0.752432 0.601377 0.092514
Si Si4 0.568914 0.907003 0.600228
Si Si5 0.098570 0.294012 0.273813
Si Si6 0.124972 0.901816 0.784732
Si Si7 0.005121 0.513481 0.851592
O O1 0.645138 0.568093 0.108367
O O2 0.649129 0.721725 0.153371
O O3 0.506360 0.565428 0.233836
O O4 0.529020 0.587504 0.946309
O O5 0.897032 0.715863 0.705966
O O6 0.928620 0.775802 0.433823
O O7 0.035767 0.716303 0.576166
O O8 0.049257 0.869641 0.652786
O O9 0.799238 0.538194 0.090601
O O10 0.804241 0.672603 0.229045
O O11 0.778040 0.655595 0.933389
O O12 0.539849 0.933386 0.757054
O O13 0.530621 0.943648 0.469438
O O14 0.011062 0.191616 0.298193
#
# Coordination Sequence:
#
# PCOD9577358 Si02
#       7
#     6   6   6   6   6   6   6
#     4  10  20  35  58  89 118 152 195 251 296 363
#     4  11  21  36  58  85 118 163 205 244 300 347
#     4  10  19  35  58  86 117 154 198 242 303 353
#     4  10  20  36  59  87 116 150 198 250 293 363
#     4  11  21  36  59  87 118 163 208 241 297 356
#     4  10  21  34  53  82 121 153 206 250 276 347
#     4  10  20  36  57  88 118 145 196 248 307 351
#
# _framework density 19.537101
#
# number of rings (size 3 to 8) (size 9 to 14) (size 15 to 20)
#    0.000    1.714    1.429    6.000    2.000    0.000 
#    0.857    0.000    6.286    4.571    0.000    0.000 
#    0.000    0.000    0.000    0.000    0.000    0.000 
#
# Total GULP energy -234238.985836 kJ/mol
# GULP energy per Si atom -5577.118710 kJ/mol
# Density = 1.949263 g / cm^3
# Si number density = 19.537101 Si / 1000 Ang^3
#
#
#
# Elastic Constant Matrix: (Units=GPa)
#
#
# Indices 1 2 3 4 5 6 
#
# 1 63.9295 23.0650 20.3135 0.0000 -6.1910 0.0000
# 2 23.0650 63.9295 20.3135 0.0000 6.1910 0.0000
# 3 20.3135 20.3135 108.1583 0.0000 0.0000 0.0000
# 4 0.0000 0.0000 0.0000 32.7332 0.0000 6.1910
# 5 -6.1910 6.1910 0.0000 0.0000 32.7332 0.0000
# 6 0.0000 0.0000 0.0000 6.1910 0.0000 20.4323
#
#
#
# Elastic Compliance Matrix: (Units=1/GPa)
#
#
# Indices 1 2 3 4 5 6 
#
# 1 0.019279 -0.006679 -0.002366 0.000000 0.004910 0.000000
# 2 -0.006679 0.019279 -0.002366 0.000000 -0.004910 0.000000
# 3 -0.002366 -0.002366 0.010135 0.000000 0.000000 0.000000
# 4 0.000000 0.000000 0.000000 0.032407 0.000000 -0.009819
# 5 0.004910 -0.004910 0.000000 0.000000 0.032407 0.000000
# 6 0.000000 0.000000 0.000000 -0.009819 0.000000 0.051918
#
#
# Mechanical properties :
#
#
# Convention : Reuss Voigt Hill
#
# Bulk Modulus (GPa) = 38.65628 40.37792 39.51710
# Shear Modulus (GPa) = 25.39709 28.66809 27.03259
#
# Velocity S-wave (km/s) = 3.60938 3.83478 3.72379
# Velocity P-wave (km/s) = 6.09912 6.34977 6.22570
#
# Compressibility (1/GPa) = 0.02586902
#
# Stress axis : x y z
#
# Youngs Moduli (GPa) = 51.86870 51.86870 98.67174
#
# Poissons Ratio (x) = 0.34645 0.23350
# Poissons Ratio (y) = 0.34645 0.23350
# Poissons Ratio (z) = 0.12275 0.12275
#
# Static dielectric constant tensor:
#      x y z
#    x 1.698970 0.000000 0.000000 
#    y 0.000000 1.698970 0.000000 
#    z 0.000000 0.000000 1.731800 
# 
# From -- ./inp_files/451.got.cif
#   From: 2010.05.17/outbox.cif.g08.bks.cpg/sg159_cif.got.tgz:451.got - 2010.05.20 10:50:30.
