data_PCOD9577364
_publ_section_title
;
Structure prediction by ZEFSAII (Michael W. Deem and Ramdas Pophale) SiO2 
 PCOD9577364
Probable space group: P 3 1 C
;
_chemical_formula_sum "Si O2"
_cell_formula_units_Z 18
_cell_length_a 12.355780
_cell_length_b 12.355780
_cell_length_c 5.583601
_cell_angle_alpha 90.000000
_cell_angle_beta 90.000000
_cell_angle_gamma 120.000000
_cell_volume 738.219209
_symmetry_space_group_name_H-M "P 3 1 C"
_symmetry_group_IT_number 159
_symmetry_cell_setting 'hexagonal'
loop_
_space_group_symop_operation_xyz
x,y,z
-y,x-y,z
-x+y,-x,z
y,x,1/2+z
x-y,-y,1/2+z
-x,-x+y,1/2+z
loop_
_atom_site_type_symbol
_atom_site_label
_atom_site_fract_x
_atom_site_fract_y
_atom_site_fract_z
Si Si1 0.154018 0.672546 0.768900
Si Si2 0.737636 0.704482 0.268900
Si Si3 0.113383 0.566946 0.268900
O O1 0.214583 0.820177 0.768900
O O2 0.180843 0.624681 0.518711
O O3 0.002670 0.595793 0.768900
O O4 0.180843 0.624681 0.019089
O O5 0.777053 0.777053 0.518900
O O6 0.583988 0.634337 0.268900
#
# Coordination Sequence:
#
# PCOD9577364 Si02
#       3
#     6   6   6
#     4  10  20  35  60  75 114 172 191 246 331 342
#     4  12  21  37  59  86 127 158 216 265 304 391
#     4  10  19  40  55  81 123 160 209 253 307 387
#
# _framework density 24.383004
#
# number of rings (size 3 to 8) (size 9 to 14) (size 15 to 20)
#    0.000    1.333    6.667    2.000    0.000    0.000 
#    2.000    0.000    0.000    0.000    0.000    0.000 
#  266.667    0.000    0.000    0.000    0.000    0.000 
#
# Total GULP energy -100544.150303 kJ/mol
# GULP energy per Si atom -5585.786128 kJ/mol
# Density = 2.432751 g / cm^3
# Si number density = 24.383004 Si / 1000 Ang^3
#
#
#
# Elastic Constant Matrix: (Units=GPa)
#
#
# Indices 1 2 3 4 5 6 
#
# 1 84.4843 19.9629 21.6919 0.0000 0.0000 0.0000
# 2 19.9629 84.4843 21.6919 0.0000 0.0000 0.0000
# 3 21.6919 21.6919 303.2174 0.0000 0.0000 0.0000
# 4 0.0000 0.0000 0.0000 7.5215 0.0000 0.0000
# 5 0.0000 0.0000 0.0000 0.0000 7.5215 0.0000
# 6 0.0000 0.0000 0.0000 0.0000 0.0000 32.2607
#
#
#
# Elastic Compliance Matrix: (Units=1/GPa)
#
#
# Indices 1 2 3 4 5 6 
#
# 1 0.012683 -0.002816 -0.000706 0.000000 0.000000 0.000000
# 2 -0.002816 0.012683 -0.000706 0.000000 0.000000 0.000000
# 3 -0.000706 -0.000706 0.003399 0.000000 0.000000 0.000000
# 4 0.000000 0.000000 0.000000 0.132953 0.000000 0.000000
# 5 0.000000 0.000000 0.000000 0.000000 0.132953 0.000000
# 6 0.000000 0.000000 0.000000 0.000000 0.000000 0.030997
#
#
# Mechanical properties :
#
#
# Convention : Reuss Voigt Hill
#
# Bulk Modulus (GPa) = 49.23638 66.54215 57.88927
# Shear Modulus (GPa) = 14.66736 36.71668 25.69202
#
# Velocity S-wave (km/s) = 2.45529 3.88471 3.24957
# Velocity P-wave (km/s) = 5.31740 6.88992 6.15409
#
# Compressibility (1/GPa) = 0.02031018
#
# Stress axis : x y z
#
# Youngs Moduli (GPa) = 78.84518 78.84518 294.20732
#
# Poissons Ratio (x) = 0.22200 0.20768
# Poissons Ratio (y) = 0.22200 0.20768
# Poissons Ratio (z) = 0.05566 0.05566
#
# Static dielectric constant tensor:
#      x y z
#    x 1.923770 0.000000 0.000000 
#    y 0.000000 1.923770 0.000000 
#    z 0.000000 0.000000 2.104220 
# 
# From -- ./inp_files/38.got.cif
#   From: 2010.05.17/outbox.cif.g08.bks.cpg/sg159_cif.got.tgz:38.got - 2010.05.20 10:50:30.
