data_PCOD9577962
_publ_section_title
;
Structure prediction by ZEFSAII (Michael W. Deem and Ramdas Pophale) SiO2 
 PCOD9577962
Probable space group: P -3 1 M 
;
_chemical_formula_sum "Si O2"
_cell_formula_units_Z 84
_cell_length_a 21.000000
_cell_length_b 21.000000
_cell_length_c 12.000000
_cell_angle_alpha 90.000000
_cell_angle_beta 90.000000
_cell_angle_gamma 120.000000
_cell_volume 4583.006437
_symmetry_space_group_name_H-M "P -3 1 M "
_symmetry_group_IT_number 162
_symmetry_cell_setting 'hexagonal'
loop_
_space_group_symop_operation_xyz
x,y,z
-y,x-y,z
-x+y,-x,z
-y,-x,-z
-x+y,y,-z
x,x-y,-z
-x,-y,-z
y,-x+y,-z
x-y,x,-z
y,x,z
x-y,-y,z
-x,-x+y,z
loop_
_atom_site_type_symbol
_atom_site_label
_atom_site_fract_x
_atom_site_fract_y
_atom_site_fract_z
Si Si1 0.142844 0.710934 0.959535
Si Si2 0.086375 0.449529 0.440020
Si Si3 0.914943 0.248242 0.830523
Si Si4 0.910436 0.419128 0.201253
Si Si5 0.549714 0.639142 0.687896
Si Si6 0.213525 0.295000 0.562958
Si Si7 0.285653 0.200906 0.826086
O O1 0.129533 0.635481 0.903071
O O2 0.109003 0.740728 0.864482
O O3 0.225707 0.774294 0.000000
O O4 0.094876 0.708155 0.066041
O O5 0.112873 0.488323 0.320289
O O6 0.115517 0.482945 0.563290
O O7 0.092062 0.376103 0.441896
O O8 0.000000 0.424655 0.440065
O O9 0.885554 0.277779 0.727976
O O10 0.873329 0.161146 0.857786
O O11 0.000000 0.277153 0.811010
O O12 0.893433 0.485269 0.223608
O O13 0.000000 0.456944 0.187769
O O14 0.597809 0.597809 0.682738
O O15 0.144834 0.289668 0.500000
O O16 0.240228 0.240228 0.516348
O O17 0.196659 0.278291 0.693325
O O18 0.229979 0.229979 0.867048
#
# Coordination Sequence:
#
# PCOD9577962 Si02
#       7
#    12  12  12  12  12  12  12
#     4  10  20  33  50  72 104 144 191 232 273 319
#     4   9  16  28  46  70 103 138 171 213 268 332
#     4  10  20  33  50  75 112 142 175 234 290 336
#     4  10  17  29  50  73 104 142 179 219 268 334
#     4   9  18  29  45  75 110 141 167 206 273 341
#     4  10  19  30  48  72 101 138 179 226 282 344
#     4  10  19  33  51  72 100 142 190 226 272 337
#
# _framework density 18.328579999999999
#
# number of rings (size 3 to 8) (size 9 to 14) (size 15 to 20)
#    0.000    2.286    1.429    2.571    0.000    4.000 
#    0.000    2.143    0.000    0.429    0.000    0.000 
#   37.143    3.429    0.571    0.000    0.000    0.000 
#
# Total GULP energy -467644.997965 kJ/mol
# GULP energy per Si atom -5567.202357 kJ/mol
# Density = 1.828686 g / cm^3
# Si number density = 18.328580 Si / 1000 Ang^3
#
#
#
# Elastic Constant Matrix: (Units=GPa)
#
#
# Indices 1 2 3 4 5 6 
#
# 1 75.2545 33.4535 16.3785 0.0001 4.1163 0.0000
# 2 33.4535 75.2545 16.3785 -0.0001 -4.1163 0.0000
# 3 16.3785 16.3785 63.7460 0.0000 0.0000 0.0000
# 4 0.0001 -0.0001 0.0000 26.7822 0.0000 -4.1163
# 5 4.1163 -4.1163 0.0000 0.0000 26.7822 0.0001
# 6 0.0000 0.0000 0.0000 -4.1163 0.0001 20.9005
#
#
#
# Elastic Compliance Matrix: (Units=1/GPa)
#
#
# Indices 1 2 3 4 5 6 
#
# 1 0.017320 -0.007349 -0.002562 0.000000 -0.003792 0.000000
# 2 -0.007349 0.017320 -0.002562 0.000000 0.003792 0.000000
# 3 -0.002562 -0.002562 0.017004 0.000000 0.000000 0.000000
# 4 0.000000 0.000000 0.000000 0.038504 0.000000 0.007583
# 5 -0.003792 0.003792 0.000000 0.000000 0.038504 0.000000
# 6 0.000000 0.000000 0.000000 0.007583 0.000000 0.049339
#
#
# Mechanical properties :
#
#
# Convention : Reuss Voigt Hill
#
# Bulk Modulus (GPa) = 37.45587 38.51957 37.98772
# Shear Modulus (GPa) = 23.60308 24.76260 24.18284
#
# Velocity S-wave (km/s) = 3.59245 3.67963 3.63630
# Velocity P-wave (km/s) = 6.13903 6.25417 6.19687
#
# Compressibility (1/GPa) = 0.02669809
#
# Stress axis : x y z
#
# Youngs Moduli (GPa) = 57.73574 57.73574 58.81064
#
# Poissons Ratio (x) = 0.42432 0.15067
# Poissons Ratio (y) = 0.42432 0.15067
# Poissons Ratio (z) = 0.14791 0.14791
#
# Static dielectric constant tensor:
#      x y z
#    x 1.656810 0.000000 0.000000 
#    y 0.000000 1.656810 0.000000 
#    z 0.000000 0.000000 1.713490 
# 
# From -- ./inp_files/2496.got.cif
#   From: 2010.05.17/outbox.ucp.g08.bks.cvg/sg162_2_cif.got.tgz:2496.got - 2010.06.11 15:15:45.
