data_PCOD9577124
_publ_section_title
;
Structure prediction by ZEFSAII (Michael W. Deem and Ramdas Pophale) SiO2 
 PCOD9577124
Probable space group: R 3 2
;
_chemical_formula_sum "Si O2"
_cell_formula_units_Z 84
_cell_length_a 17.160316
_cell_length_b 17.160316
_cell_length_c 14.194761
_cell_angle_alpha 90.000000
_cell_angle_beta 90.000000
_cell_angle_gamma 120.000000
_cell_volume 3620.005899
_symmetry_space_group_name_H-M "R 3 2"
_symmetry_group_IT_number 155
_symmetry_cell_setting 'hexagonal'
loop_
_space_group_symop_operation_xyz
x,y,z
-y,x-y,z
-x+y,-x,z
x-y,-y,-z
-x,-x+y,-z
y,x,-z
2/3+x,1/3+y,1/3+z
2/3-y,1/3+x-y,1/3+z
2/3-x+y,1/3-x,1/3+z
2/3+x-y,1/3-y,1/3-z
2/3-x,1/3-x+y,1/3-z
2/3+y,1/3+x,1/3-z
1/3+x,2/3+y,2/3+z
1/3-y,2/3+x-y,2/3+z
1/3-x+y,2/3-x,2/3+z
1/3+x-y,2/3-y,2/3-z
1/3-x,2/3-x+y,2/3-z
1/3+y,2/3+x,2/3-z
loop_
_atom_site_type_symbol
_atom_site_label
_atom_site_fract_x
_atom_site_fract_y
_atom_site_fract_z
Si Si1 0.330851 0.423376 0.382441
Si Si2 0.185347 0.716004 0.566168
Si Si3 0.385267 0.168585 0.922894
Si Si4 0.000000 0.000000 0.388730
Si Si5 0.471981 0.600126 0.047857
Si Si6 0.333333 0.666667 0.780073
O O1 0.316549 0.333334 0.333334
O O2 0.333395 0.435358 0.494029
O O3 0.415873 0.501548 0.329078
O O4 0.239181 0.424121 0.356655
O O5 0.160571 0.666667 0.666667
O O6 0.206449 0.818240 0.578805
O O7 0.267679 0.704832 0.526169
O O8 0.425484 0.106178 0.956934
O O9 0.432015 0.205747 0.820331
O O10 0.019617 0.098406 0.363734
O O11 0.000000 0.000000 0.500000
O O12 0.333334 0.666668 0.666667
#
# Coordination Sequence:
#
# PCOD9577124 Si02
#       6
#    18  18  18   6  18   6
#     4  12  24  39  68 104 146 183 229 288 363 438
#     4  11  26  47  73  98 136 190 250 299 350 426
#     4  11  23  39  67 100 145 177 225 291 369 430
#     4  12  15  31  62  97 145 176 217 259 365 436
#     4  11  22  37  63 107 141 180 216 295 361 440
#     4   9  24  52  77  88 127 194 262 310 329 415
#
# _framework density 23.204384000000001
#
# number of rings (size 3 to 8) (size 9 to 14) (size 15 to 20)
#    0.000    0.857    6.429    1.286    3.000    2.571 
#    0.000    3.214    0.000    0.000    0.000    0.000 
#    0.000    0.000    0.000    0.000    0.000    0.000 
#
# Total GULP energy -156493.756561 kJ/mol
# GULP energy per Si atom -5589.062734 kJ/mol
# Density = 2.315157 g / cm^3
# Si number density = 23.204384 Si / 1000 Ang^3
#
#
#
# Elastic Constant Matrix: (Units=GPa)
#
#
# Indices 1 2 3 4 5 6 
#
# 1 125.9375 48.0842 21.0571 3.9460 -0.0005 0.0000
# 2 48.0842 125.9378 21.0575 -3.9457 0.0003 0.0001
# 3 21.0571 21.0575 118.3000 0.0001 -0.0002 0.0001
# 4 3.9460 -3.9457 0.0001 -11.5731 0.0000 0.0002
# 5 -0.0005 0.0003 -0.0002 0.0000 -11.5741 3.9461
# 6 0.0000 0.0001 0.0001 0.0002 3.9461 38.9266
#
#
#
# Elastic Compliance Matrix: (Units=1/GPa)
#
#
# Indices 1 2 3 4 5 6 
#
# 1 0.009210 -0.003205 -0.001069 0.004233 0.000000 0.000000
# 2 -0.003205 0.009210 -0.001069 -0.004233 0.000000 0.000000
# 3 -0.001069 -0.001069 0.008834 0.000000 0.000000 0.000000
# 4 0.004233 -0.004233 0.000000 -0.083521 -0.000001 0.000000
# 5 0.000000 0.000000 0.000000 -0.000001 -0.083514 0.008466
# 6 0.000000 0.000000 0.000000 0.000000 0.008466 0.024831
#
#
# Mechanical properties :
#
#
# Convention : Reuss Voigt Hill
#
# Bulk Modulus (GPa) = 60.35664 61.17477 60.76570
# Shear Modulus (GPa) = -50.63797 21.82099 -14.40849
#
# Velocity S-wave (km/s) = -4.67653 3.06989 -2.49457
# Velocity P-wave (km/s) = 1.75858 6.24390 4.23637
#
# Compressibility (1/GPa) = 0.01656818
#
# Stress axis : x y z
#
# Youngs Moduli (GPa) = 108.57389 108.57383 113.20392
#
# Poissons Ratio (x) = 0.34800 0.12100
# Poissons Ratio (y) = 0.34800 0.12101
# Poissons Ratio (z) = 0.11605 0.11606
#
# Static dielectric constant tensor:
#      x y z
#    x 1.958330 0.000000 0.000000 
#    y 0.000000 1.958330 0.000000 
#    z 0.000000 0.000000 1.910480 
# 
# From -- ./inp_files/5003.got.cif
#   From: 2010.05.17/outbox.cif.g08.bks.cpg/sg155_3_cif.got.tgz:5003.got - 2010.05.20 10:44:35.
