data_PCOD9577041
_publ_section_title
;
Structure prediction by ZEFSAII (Michael W. Deem and Ramdas Pophale) SiO2 
 PCOD9577041
Probable space group: R 3 2
;
_chemical_formula_sum "Si O2"
_cell_formula_units_Z 72
_cell_length_a 23.122673
_cell_length_b 23.122673
_cell_length_c 8.324318
_cell_angle_alpha 90.000000
_cell_angle_beta 90.000000
_cell_angle_gamma 120.000000
_cell_volume 3854.387454
_symmetry_space_group_name_H-M "R 3 2"
_symmetry_group_IT_number 155
_symmetry_cell_setting 'hexagonal'
loop_
_space_group_symop_operation_xyz
x,y,z
-y,x-y,z
-x+y,-x,z
x-y,-y,-z
-x,-x+y,-z
y,x,-z
2/3+x,1/3+y,1/3+z
2/3-y,1/3+x-y,1/3+z
2/3-x+y,1/3-x,1/3+z
2/3+x-y,1/3-y,1/3-z
2/3-x,1/3-x+y,1/3-z
2/3+y,1/3+x,1/3-z
1/3+x,2/3+y,2/3+z
1/3-y,2/3+x-y,2/3+z
1/3-x+y,2/3-x,2/3+z
1/3+x-y,2/3-y,2/3-z
1/3-x,2/3-x+y,2/3-z
1/3+y,2/3+x,2/3-z
loop_
_atom_site_type_symbol
_atom_site_label
_atom_site_fract_x
_atom_site_fract_y
_atom_site_fract_z
Si Si1 0.537562 0.289090 0.677014
Si Si2 0.793682 0.374011 0.497732
Si Si3 0.094794 0.830483 0.882638
Si Si4 0.284014 0.405688 0.418188
O O1 0.580881 0.340906 0.534800
O O2 0.546160 0.226117 0.639805
O O3 0.461103 0.272548 0.672628
O O4 0.572112 0.333334 0.833334
O O5 0.771717 0.333334 0.333334
O O6 0.870518 0.430014 0.486205
O O7 0.156865 0.823532 0.833334
O O8 0.030741 0.776117 0.778978
O O9 0.077986 0.812099 0.069432
O O10 0.252061 0.333334 0.333334
#
# Coordination Sequence:
#
# PCOD9577041 Si02
#       4
#    18  18  18  18
#     4  11  23  38  61  95 127 164 202 255 317 374
#     4  11  21  41  62  87 125 166 209 252 307 377
#     4  10  23  39  61  90 117 167 209 249 313 372
#     4  10  23  38  59  91 126 159 201 257 316 371
#
# _framework density 18.680011
#
# number of rings (size 3 to 8) (size 9 to 14) (size 15 to 20)
#    0.000    1.500    2.500    2.000   10.500    0.000 
#    0.000    0.000    0.000    1.500    0.000    0.000 
#    0.000    0.000    0.000    0.000    0.000    0.000 
#
# Total GULP energy -134003.311810 kJ/mol
# GULP energy per Si atom -5583.471325 kJ/mol
# Density = 1.863749 g / cm^3
# Si number density = 18.680011 Si / 1000 Ang^3
#
#
#
# Elastic Constant Matrix: (Units=GPa)
#
#
# Indices 1 2 3 4 5 6 
#
# 1 122.6720 73.7735 60.0102 -5.5756 -0.0064 -0.0010
# 2 73.7735 122.6764 60.0167 5.5754 0.0013 0.0005
# 3 60.0102 60.0167 86.2878 0.0008 -0.0137 0.0024
# 4 -5.5756 5.5754 0.0008 28.0744 -0.0006 0.0004
# 5 -0.0064 0.0013 -0.0137 -0.0006 28.0645 -5.5739
# 6 -0.0010 0.0005 0.0024 0.0004 -5.5739 24.4519
#
#
#
# Elastic Compliance Matrix: (Units=1/GPa)
#
#
# Indices 1 2 3 4 5 6 
#
# 1 0.015135 -0.006284 -0.006156 0.004254 0.000001 0.000002
# 2 -0.006284 0.015136 -0.006158 -0.004254 -0.000005 -0.000001
# 3 -0.006156 -0.006158 0.020153 0.000000 0.000009 0.000000
# 4 0.004254 -0.004254 0.000000 0.037309 0.000002 0.000000
# 5 0.000001 -0.000005 0.000009 0.000002 0.037322 0.008508
# 6 0.000002 -0.000001 0.000000 0.000000 0.008508 0.042836
#
#
# Mechanical properties :
#
#
# Convention : Reuss Voigt Hill
#
# Bulk Modulus (GPa) = 75.58229 79.91521 77.74875
# Shear Modulus (GPa) = 23.86680 25.30722 24.58701
#
# Velocity S-wave (km/s) = 3.57832 3.68472 3.63191
# Velocity P-wave (km/s) = 7.59091 7.80877 7.70061
#
# Compressibility (1/GPa) = 0.01323061
#
# Stress axis : x y z
#
# Youngs Moduli (GPa) = 66.07019 66.06671 49.62043
#
# Poissons Ratio (x) = 0.41515 0.30544
# Poissons Ratio (y) = 0.41517 0.30555
# Poissons Ratio (z) = 0.40670 0.40682
#
# Static dielectric constant tensor:
#      x y z
#    x 1.647310 0.000000 0.000000 
#    y 0.000000 1.647310 0.000000 
#    z 0.000000 0.000000 1.740460 
# 
# From -- ./inp_files/2106.got.cif
#   From: 2010.05.17/outbox.cif.g08.bks.cpg/sg155_2_cif.got.tgz:2106.got - 2010.05.20 10:44:35.
