data_PCOD9577644
_publ_section_title
;
Structure prediction by ZEFSAII (Michael W. Deem and Ramdas Pophale) SiO2 
 PCOD9577644
Probable space group: P -3 1 M 
;
_chemical_formula_sum "Si O2"
_cell_formula_units_Z 60
_cell_length_a 21.061346
_cell_length_b 21.061346
_cell_length_c 13.161820
_cell_angle_alpha 90.000000
_cell_angle_beta 90.000000
_cell_angle_gamma 120.000000
_cell_volume 5056.136902
_symmetry_space_group_name_H-M "P -3 1 M "
_symmetry_group_IT_number 162
_symmetry_cell_setting 'hexagonal'
loop_
_space_group_symop_operation_xyz
x,y,z
-y,x-y,z
-x+y,-x,z
-y,-x,-z
-x+y,y,-z
x,x-y,-z
-x,-y,-z
y,-x+y,-z
x-y,x,-z
y,x,z
x-y,-y,z
-x,-x+y,z
loop_
_atom_site_type_symbol
_atom_site_label
_atom_site_fract_x
_atom_site_fract_y
_atom_site_fract_z
Si Si1 0.486130 0.667380 0.500000
Si Si2 0.515440 0.182361 0.116803
Si Si3 0.182361 0.666921 0.116803
Si Si4 0.916456 0.535245 0.305230
Si Si5 0.535245 0.916456 0.694770
O O1 0.404569 0.595432 0.500000
O O2 0.480959 0.740480 0.500000
O O3 0.527541 0.661801 0.599506
O O4 0.527541 0.661801 0.400496
O O5 0.597763 0.195525 0.128081
O O6 0.516585 0.258293 0.133746
O O7 0.466071 0.122574 0.199959
O O8 0.492933 0.158919 0.000000
O O9 0.122573 0.656502 0.199958
O O10 0.919580 0.459790 0.306174
O O11 0.000000 0.600106 0.313950
O O12 0.600106 0.000000 0.686050
#
# Coordination Sequence:
#
# PCOD9577644 Si02
#       5
#    12  12  12  12  12
#     4  10  18  27  39  53  68  85 108 140 177 214
#     4   9  16  25  37  52  69  88 111 141 176 210
#     4   9  16  25  37  52  69  88 111 141 176 210
#     4   9  17  27  37  49  66  88 111 135 167 209
#     4   9  17  27  37  49  66  88 111 135 167 209
#
# _framework density 11.866766999999999
#
# number of rings (size 3 to 8) (size 9 to 14) (size 15 to 20)
#    0.000    2.800    0.000    2.400    0.000    4.800 
#    0.000    8.000    0.000    0.000    0.000    0.000 
#    0.000    0.000    0.000    0.000    0.000    0.000 
#
# Total GULP energy -334100.528269 kJ/mol
# GULP energy per Si atom -5568.342138 kJ/mol
# Density = 1.183976 g / cm^3
# Si number density = 11.866767 Si / 1000 Ang^3
#
#
#
# Elastic Constant Matrix: (Units=GPa)
#
#
# Indices 1 2 3 4 5 6 
#
# 1 56.9836 32.7968 50.3452 0.0000 0.0000 0.0000
# 2 32.7968 56.9836 50.3452 0.0000 0.0000 0.0000
# 3 50.3452 50.3452 102.7343 0.0000 0.0000 0.0000
# 4 0.0000 0.0000 0.0000 13.3893 0.0000 0.0000
# 5 0.0000 0.0000 0.0000 0.0000 13.3893 0.0000
# 6 0.0000 0.0000 0.0000 0.0000 0.0000 12.0934
#
#
#
# Elastic Compliance Matrix: (Units=1/GPa)
#
#
# Indices 1 2 3 4 5 6 
#
# 1 0.033037 -0.008307 -0.012119 0.000000 0.000000 0.000000
# 2 -0.008307 0.033037 -0.012119 0.000000 0.000000 0.000000
# 3 -0.012119 -0.012119 0.021612 0.000000 0.000000 0.000000
# 4 0.000000 0.000000 0.000000 0.074686 0.000000 0.000000
# 5 0.000000 0.000000 0.000000 0.000000 0.074686 0.000000
# 6 0.000000 0.000000 0.000000 0.000000 0.000000 0.082690
#
#
# Mechanical properties :
#
#
# Convention : Reuss Voigt Hill
#
# Bulk Modulus (GPa) = 44.25619 53.74178 48.99899
# Shear Modulus (GPa) = 12.74303 13.32204 13.03253
#
# Velocity S-wave (km/s) = 3.28051 3.35421 3.31756
# Velocity P-wave (km/s) = 7.19195 7.77090 7.48702
#
# Compressibility (1/GPa) = 0.02259571
#
# Stress axis : x y z
#
# Youngs Moduli (GPa) = 30.26876 30.26876 46.27122
#
# Poissons Ratio (x) = 0.25146 0.56076
# Poissons Ratio (y) = 0.25146 0.56076
# Poissons Ratio (z) = 0.36683 0.36683
#
# Static dielectric constant tensor:
#      x y z
#    x 1.360920 0.000000 0.000000 
#    y 0.000000 1.360920 0.000000 
#    z 0.000000 0.000000 1.409760 
# 
# From -- ./inp_files/3003.got.cif
#   From: 2010.05.17/outbox.cif.g08.bks.cpg/sg162_2_cif.got.tgz:3003.got - 2010.05.20 10:53:12.
