data_PCOD9577919
_publ_section_title
;
Structure prediction by ZEFSAII (Michael W. Deem and Ramdas Pophale) SiO2 
 PCOD9577919
Probable space group: P -3 1 M 
;
_chemical_formula_sum "Si O2"
_cell_formula_units_Z 60
_cell_length_a 14.349795
_cell_length_b 14.349795
_cell_length_c 13.898281
_cell_angle_alpha 90.000000
_cell_angle_beta 90.000000
_cell_angle_gamma 120.000000
_cell_volume 2478.466844
_symmetry_space_group_name_H-M "P -3 1 M "
_symmetry_group_IT_number 162
_symmetry_cell_setting 'hexagonal'
loop_
_space_group_symop_operation_xyz
x,y,z
-y,x-y,z
-x+y,-x,z
-y,-x,-z
-x+y,y,-z
x,x-y,-z
-x,-y,-z
y,-x+y,-z
x-y,x,-z
y,x,z
x-y,-y,z
-x,-x+y,z
loop_
_atom_site_type_symbol
_atom_site_label
_atom_site_fract_x
_atom_site_fract_y
_atom_site_fract_z
Si Si1 0.122034 0.315641 0.600057
Si Si2 0.633674 0.504718 0.411049
Si Si3 0.733918 0.543957 0.105398
Si Si4 0.120192 0.525708 0.789390
Si Si5 0.883211 0.116916 0.814015
O O1 0.131716 0.263431 0.500000
O O2 0.236064 0.429290 0.596647
O O3 0.128089 0.264486 0.700772
O O4 0.000000 0.298488 0.599348
O O5 0.577386 0.422615 0.500000
O O6 0.592069 0.592069 0.416613
O O7 0.583198 0.440586 0.313151
O O8 0.791755 0.504342 0.181060
O O9 0.609909 0.483644 0.131466
O O10 0.791828 0.669586 0.125846
O O11 0.760182 0.520364 0.000000
O O12 0.000000 0.425004 0.787897
O O13 0.000000 0.206929 0.847206
O O14 0.867560 0.000000 0.823928
#
# Coordination Sequence:
#
# PCOD9577919 Si02
#       5
#    12  12  12  12  12
#     4  11  23  41  70 106 150 202 252 303 368 448
#     4  10  22  41  70 107 147 193 245 306 376 452
#     4  12  26  45  72 104 139 183 242 311 379 447
#     4  11  25  47  72 102 140 182 234 296 371 450
#     4  11  24  43  68 102 147 198 252 308 371 448
#
# _framework density 24.208515999999999
#
# number of rings (size 3 to 8) (size 9 to 14) (size 15 to 20)
#    0.000    1.000    2.000    4.200    2.800    4.000 
#    0.000    0.000    0.000    9.400    0.000    0.000 
#    0.000    0.000    0.000    0.000    0.000    0.000 
#
# Total GULP energy -335693.949516 kJ/mol
# GULP energy per Si atom -5594.899159 kJ/mol
# Density = 2.415342 g / cm^3
# Si number density = 24.208516 Si / 1000 Ang^3
#
#
#
# Elastic Constant Matrix: (Units=GPa)
#
#
# Indices 1 2 3 4 5 6 
#
# 1 116.5786 55.3632 14.1677 0.0002 2.3621 0.0000
# 2 55.3632 116.5786 14.1677 -0.0002 -2.3621 0.0000
# 3 14.1677 14.1677 104.3384 0.0000 0.0000 0.0000
# 4 0.0002 -0.0002 0.0000 17.0815 0.0000 -2.3621
# 5 2.3621 -2.3621 0.0000 0.0000 17.0815 0.0002
# 6 0.0000 0.0000 0.0000 -2.3621 0.0002 30.6077
#
#
#
# Elastic Compliance Matrix: (Units=1/GPa)
#
#
# Indices 1 2 3 4 5 6 
#
# 1 0.011231 -0.005281 -0.000808 0.000000 -0.002283 0.000000
# 2 -0.005281 0.011231 -0.000808 0.000000 0.002283 0.000000
# 3 -0.000808 -0.000808 0.009804 0.000000 0.000000 0.000000
# 4 0.000000 0.000000 0.000000 0.059174 0.000000 0.004567
# 5 -0.002283 0.002283 0.000000 0.000000 0.059174 0.000000
# 6 0.000000 0.000000 0.000000 0.004567 0.000000 0.033024
#
#
# Mechanical properties :
#
#
# Convention : Reuss Voigt Hill
#
# Bulk Modulus (GPa) = 54.14048 56.09921 55.11985
# Shear Modulus (GPa) = 24.55936 29.87393 27.21664
#
# Velocity S-wave (km/s) = 3.18857 3.51668 3.35663
# Velocity P-wave (km/s) = 5.99739 6.30183 6.15149
#
# Compressibility (1/GPa) = 0.01847047
#
# Stress axis : x y z
#
# Youngs Moduli (GPa) = 89.04312 89.04312 102.00356
#
# Poissons Ratio (x) = 0.47028 0.08240
# Poissons Ratio (y) = 0.47028 0.08240
# Poissons Ratio (z) = 0.07193 0.07193
#
# Static dielectric constant tensor:
#      x y z
#    x 1.916980 0.000000 0.000000 
#    y 0.000000 1.916980 0.000000 
#    z 0.000000 0.000000 1.896550 
# 
# From -- ./inp_files/2932.got.cif
#   From: 2010.05.17/outbox.cif.g08.bks.cpg/sg162_2_cif.got.tgz:2932.got - 2010.05.20 10:53:12.
