data_PCOD9577226
_publ_section_title
;
Structure prediction by ZEFSAII (Michael W. Deem and Ramdas Pophale) SiO2 
 PCOD9577226
Probable space group: P 3 M 1
;
_chemical_formula_sum "Si O2"
_cell_formula_units_Z 48
_cell_length_a 12.732018
_cell_length_b 12.732018
_cell_length_c 20.918716
_cell_angle_alpha 90.000000
_cell_angle_beta 90.000000
_cell_angle_gamma 120.000000
_cell_volume 2936.703788
_symmetry_space_group_name_H-M "P 3 M 1"
_symmetry_group_IT_number 156
_symmetry_cell_setting 'hexagonal'
loop_
_space_group_symop_operation_xyz
x,y,z
-y,x-y,z
-x+y,-x,z
-x+y,y,z
x,x-y,z
-y,-x,z
loop_
_atom_site_type_symbol
_atom_site_label
_atom_site_fract_x
_atom_site_fract_y
_atom_site_fract_z
Si Si1 0.417635 0.333176 0.868360
Si Si2 0.751469 0.000523 0.253108
Si Si3 0.333054 0.417845 0.987548
Si Si4 0.666668 0.583109 0.376018
Si Si5 0.417069 0.333797 0.622622
Si Si6 0.083733 0.417508 0.746014
Si Si7 0.333847 0.417289 0.499420
Si Si8 0.333544 0.914885 0.133537
O O1 0.411730 0.205865 0.861386
O O2 0.556613 0.443388 0.866693
O O3 0.360781 0.344252 0.934960
O O4 0.350364 0.358619 0.810441
O O5 0.887106 0.112895 0.249629
O O6 0.685736 0.026505 0.311555
O O7 0.751498 0.875749 0.263808
O O8 0.681037 0.986971 0.187072
O O9 0.206049 0.412098 0.975221
O O10 0.442931 0.557070 0.983227
O O11 0.333263 0.377495 0.060595
O O12 0.788166 0.576332 0.387059
O O13 0.550714 0.449287 0.370220
O O14 0.641326 0.647461 0.435395
O O15 0.410797 0.205399 0.622635
O O16 0.556757 0.443244 0.621998
O O17 0.356291 0.353520 0.685454
O O18 0.354208 0.352610 0.560398
O O19 0.205236 0.410472 0.743170
O O20 0.114570 0.557285 0.745151
O O21 0.205073 0.410145 0.500982
O O22 0.443018 0.556983 0.501185
O O23 0.460921 0.921841 0.145611
O O24 0.224534 0.775466 0.136803
#
# Coordination Sequence:
#
# PCOD9577226 Si02
#       8
#     6   6   6   6   6   6   6   6
#     4  10  20  33  50  71  97 129 163 200 240 286
#     4  10  20  33  49  69  96 131 168 203 239 285
#     4   9  17  30  50  74  98 124 156 199 248 295
#     4  10  20  34  53  75  99 127 160 202 249 296
#     4  10  20  34  54  78 104 134 167 204 243 286
#     4  10  20  34  54  78 102 128 160 202 249 294
#     4  10  20  34  53  76 102 131 163 201 244 289
#     4   9  17  30  49  73  98 124 157 199 248 295
#
# _framework density 16.344856
#
# number of rings (size 3 to 8) (size 9 to 14) (size 15 to 20)
#    0.000    2.250    0.000    3.250    0.000    1.500 
#    0.000    5.000    0.000   14.500    0.000    0.000 
#    0.000    0.000    0.000    0.000    0.000    0.000 
#
# Total GULP energy -267846.050070 kJ/mol
# GULP energy per Si atom -5580.126043 kJ/mol
# Density = 1.630765 g / cm^3
# Si number density = 16.344856 Si / 1000 Ang^3
#
#
#
# Elastic Constant Matrix: (Units=GPa)
#
#
# Indices 1 2 3 4 5 6 
#
# 1 121.9177 85.4210 79.2911 -1.7385 0.0004 0.0000
# 2 85.4210 121.9177 79.2911 1.7385 -0.0004 0.0000
# 3 79.2911 79.2911 132.4164 0.0000 0.0000 0.0000
# 4 -1.7385 1.7385 0.0000 19.3092 0.0000 -0.0004
# 5 0.0004 -0.0004 0.0000 0.0000 19.3092 -1.7385
# 6 0.0000 0.0000 0.0000 -0.0004 -1.7385 18.2484
#
#
#
# Elastic Compliance Matrix: (Units=1/GPa)
#
#
# Indices 1 2 3 4 5 6 
#
# 1 0.018268 -0.009369 -0.005328 0.002488 -0.000001 0.000000
# 2 -0.009369 0.018268 -0.005328 -0.002488 0.000001 0.000000
# 3 -0.005328 -0.005328 0.013933 0.000000 0.000000 0.000000
# 4 0.002488 -0.002488 0.000000 0.052237 0.000000 0.000001
# 5 -0.000001 0.000001 0.000000 0.000000 0.052237 0.004977
# 6 0.000000 0.000000 0.000000 0.000001 0.004977 0.055274
#
#
# Mechanical properties :
#
#
# Convention : Reuss Voigt Hill
#
# Bulk Modulus (GPa) = 96.00133 96.02869 96.01501
# Shear Modulus (GPa) = 19.70525 20.18995 19.94760
#
# Velocity S-wave (km/s) = 3.47593 3.51842 3.49724
# Velocity P-wave (km/s) = 8.65863 8.68245 8.67055
#
# Compressibility (1/GPa) = 0.01041652
#
# Stress axis : x y z
#
# Youngs Moduli (GPa) = 54.74173 54.74173 71.77096
#
# Poissons Ratio (x) = 0.51289 0.38242
# Poissons Ratio (y) = 0.51289 0.38242
# Poissons Ratio (z) = 0.29168 0.29168
#
# Static dielectric constant tensor:
#      x y z
#    x 1.515380 0.000000 0.000000 
#    y 0.000000 1.515380 0.000000 
#    z 0.000000 0.000000 1.548060 
# 
# From -- ./inp_files/1077.got.cif
#   From: 2010.05.17/outbox.cif.g08.bks.cpg/sg156_cif.got.tgz:1077.got - 2010.05.20 10:49:08.
