data_PCOD9577278
_publ_section_title
;
Structure prediction by ZEFSAII (Michael W. Deem and Ramdas Pophale) SiO2 
 PCOD9577278
Probable space group: P 3 C 1
;
_chemical_formula_sum "Si O2"
_cell_formula_units_Z 36
_cell_length_a 13.948001
_cell_length_b 13.948001
_cell_length_c 14.290135
_cell_angle_alpha 90.000000
_cell_angle_beta 90.000000
_cell_angle_gamma 120.000000
_cell_volume 2407.636413
_symmetry_space_group_name_H-M "P 3 C 1"
_symmetry_group_IT_number 158
_symmetry_cell_setting 'hexagonal'
loop_
_space_group_symop_operation_xyz
x,y,z
-y,x-y,z
-x+y,-x,z
-x+y,y,1/2+z
x,x-y,1/2+z
-y,-x,1/2+z
loop_
_atom_site_type_symbol
_atom_site_label
_atom_site_fract_x
_atom_site_fract_y
_atom_site_fract_z
Si Si1 0.874227 0.335488 0.676360
Si Si2 0.874227 0.538739 0.587110
Si Si3 0.792439 0.794594 0.087110
Si Si4 0.871953 0.996191 0.381735
Si Si5 0.205405 0.997845 0.676360
Si Si6 0.662858 0.457571 0.881735
O O1 0.904545 0.452273 0.631735
O O2 0.757546 0.242454 0.631735
O O3 0.961427 0.294760 0.657696
O O4 0.855063 0.338081 0.787122
O O5 0.961427 0.666667 0.605774
O O6 0.855063 0.516982 0.476348
O O7 0.909120 0.818240 0.131735
O O8 0.762122 0.881061 0.131735
O O9 0.811604 0.816352 0.976348
O O10 0.897996 0.894950 0.381735
O O11 0.811604 0.995252 0.287122
O O12 0.561617 0.330287 0.881735
#
# Coordination Sequence:
#
# PCOD9577278 Si02
#       6
#     6   6   6   6   6   6
#     4  11  20  33  51  73 103 136 169 207 252 303
#     4  11  20  33  51  73 103 136 169 207 252 303
#     4  11  20  33  51  73 103 136 169 207 252 303
#     4  10  17  30  52  70 107 128 166 208 256 302
#     4  11  20  33  51  73 103 136 169 207 252 303
#     4  10  17  30  52  70 107 128 166 208 256 302
#
# _framework density 14.952423
#
# number of rings (size 3 to 8) (size 9 to 14) (size 15 to 20)
#    0.667    0.667    6.667    1.667    0.000    0.000 
#    0.000    1.667    0.000    0.667    0.000    0.000 
#    0.000    0.000    0.000    0.000    0.000    0.000 
#
# Total GULP energy -200725.933670 kJ/mol
# GULP energy per Si atom -5575.720380 kJ/mol
# Density = 1.491839 g / cm^3
# Si number density = 14.952423 Si / 1000 Ang^3
#
#
#
# Elastic Constant Matrix: (Units=GPa)
#
#
# Indices 1 2 3 4 5 6 
#
# 1 90.9177 51.4421 34.0712 0.0001 0.0000 0.0000
# 2 51.4421 90.9177 34.0712 -0.0001 0.0000 0.0000
# 3 34.0712 34.0712 123.7759 0.0000 0.0000 0.0000
# 4 0.0001 -0.0001 0.0000 10.8732 0.0000 0.0000
# 5 0.0000 0.0000 0.0000 0.0000 10.8732 0.0001
# 6 0.0000 0.0000 0.0000 0.0000 0.0001 19.7378
#
#
#
# Elastic Compliance Matrix: (Units=1/GPa)
#
#
# Indices 1 2 3 4 5 6 
#
# 1 0.016711 -0.008621 -0.002227 0.000000 0.000000 0.000000
# 2 -0.008621 0.016711 -0.002227 0.000000 0.000000 0.000000
# 3 -0.002227 -0.002227 0.009305 0.000000 0.000000 0.000000
# 4 0.000000 0.000000 0.000000 0.091969 0.000000 0.000000
# 5 0.000000 0.000000 0.000000 0.000000 0.091969 0.000000
# 6 0.000000 0.000000 0.000000 0.000000 0.000000 0.050664
#
#
# Mechanical properties :
#
#
# Convention : Reuss Voigt Hill
#
# Bulk Modulus (GPa) = 60.32099 60.53115 60.42607
# Shear Modulus (GPa) = 16.18091 20.69863 18.43977
#
# Velocity S-wave (km/s) = 3.29319 3.72465 3.51555
# Velocity P-wave (km/s) = 7.40875 7.68556 7.54842
#
# Compressibility (1/GPa) = 0.01657798
#
# Stress axis : x y z
#
# Youngs Moduli (GPa) = 59.83990 59.83990 107.46725
#
# Poissons Ratio (x) = 0.51587 0.23933
# Poissons Ratio (y) = 0.51587 0.23933
# Poissons Ratio (z) = 0.13326 0.13326
#
# Static dielectric constant tensor:
#      x y z
#    x 1.485890 0.000000 0.000000 
#    y 0.000000 1.485890 0.000000 
#    z 0.000000 0.000000 1.491350 
# 
# From -- ./inp_files/520.got.cif
#   From: 2010.05.17/outbox.cif.g08.bks.cpg/sg158_cif.got.tgz:520.got - 2010.05.20 10:49:59.
