data_PCOD9577732
_publ_section_title
;
Structure prediction by ZEFSAII (Michael W. Deem and Ramdas Pophale) SiO2 
 PCOD9577732
Probable space group: P -3 1 M 
;
_chemical_formula_sum "Si O2"
_cell_formula_units_Z 90
_cell_length_a 29.071496
_cell_length_b 29.071496
_cell_length_c 8.198856
_cell_angle_alpha 90.000000
_cell_angle_beta 90.000000
_cell_angle_gamma 120.000000
_cell_volume 6000.931263
_symmetry_space_group_name_H-M "P -3 1 M "
_symmetry_group_IT_number 162
_symmetry_cell_setting 'hexagonal'
loop_
_space_group_symop_operation_xyz
x,y,z
-y,x-y,z
-x+y,-x,z
-y,-x,-z
-x+y,y,-z
x,x-y,-z
-x,-y,-z
y,-x+y,-z
x-y,x,-z
y,x,z
x-y,-y,z
-x,-x+y,z
loop_
_atom_site_type_symbol
_atom_site_label
_atom_site_fract_x
_atom_site_fract_y
_atom_site_fract_z
Si Si1 0.062223 0.634568 0.680244
Si Si2 0.888888 0.062666 0.663444
Si Si3 0.317472 0.061074 0.795913
Si Si4 0.143696 0.846251 0.679884
Si Si5 0.579357 0.643906 0.679766
Si Si6 0.413916 0.935245 0.996243
Si Si7 0.676135 0.735688 0.182550
Si Si8 0.062634 0.937367 0.000000
O O1 0.084390 0.638363 0.498564
O O2 0.063353 0.688853 0.727369
O O3 0.000000 0.589958 0.670685
O O4 0.084710 0.619039 0.836118
O O5 0.924079 0.075922 0.500000
O O6 0.860920 0.097633 0.656095
O O7 0.921090 0.079060 0.832606
O O8 0.848258 0.000000 0.668926
O O9 0.300279 0.104872 0.762139
O O10 0.372284 0.075978 0.705540
O O11 0.273381 0.000000 0.749197
O O12 0.328862 0.059536 0.987403
O O13 0.161019 0.838982 0.500000
O O14 0.111382 0.790896 0.773414
O O15 0.608945 0.608945 0.677994
O O16 0.539806 0.622379 0.833920
O O17 0.442788 0.000000 0.995597
O O18 0.460865 0.921729 0.000000
O O19 0.725428 0.725428 0.224812
O O20 0.000000 0.910570 0.994878
#
# Coordination Sequence:
#
# PCOD9577732 Si02
#       8
#    12  12  12  12  12  12  12   6
#     4   9  16  27  44  62  85 118 151 185 224 264
#     4  10  22  38  54  72  92 111 134 171 226 290
#     4  10  20  33  50  67  88 118 151 190 238 289
#     4  11  23  34  47  69  92 113 146 188 233 290
#     4   9  16  28  44  63  86 117 153 184 222 266
#     4   9  16  26  40  62  90 117 148 186 221 248
#     4  10  19  33  50  66  88 117 152 191 237 286
#     4  10  21  36  54  70  84 102 126 156 200 266
#
# _framework density 14.997672
#
# number of rings (size 3 to 8) (size 9 to 14) (size 15 to 20)
#    0.000    2.267    1.333    2.067    1.867    4.800 
#    0.000    2.667    0.000    2.133    0.000    0.000 
#    0.000    0.000    0.000    0.000    0.000    0.000 
#
# Total GULP energy -501089.329142 kJ/mol
# GULP energy per Si atom -5567.659213 kJ/mol
# Density = 1.496354 g / cm^3
# Si number density = 14.997672 Si / 1000 Ang^3
#
#
#
# Elastic Constant Matrix: (Units=GPa)
#
#
# Indices 1 2 3 4 5 6 
#
# 1 41.2171 21.8593 26.9603 -0.0003 -0.1611 0.0000
# 2 21.8593 41.2171 26.9603 0.0003 0.1611 0.0000
# 3 26.9603 26.9603 119.1417 0.0000 0.0000 0.0000
# 4 -0.0003 0.0003 0.0000 12.6256 0.0000 0.1611
# 5 -0.1611 0.1611 0.0000 0.0000 12.6256 -0.0003
# 6 0.0000 0.0000 0.0000 0.1611 -0.0003 9.6789
#
#
#
# Elastic Compliance Matrix: (Units=1/GPa)
#
#
# Indices 1 2 3 4 5 6 
#
# 1 0.035663 -0.016007 -0.004448 0.000001 0.000659 0.000000
# 2 -0.016007 0.035663 -0.004448 -0.000001 -0.000659 0.000000
# 3 -0.004448 -0.004448 0.010406 0.000000 0.000000 0.000000
# 4 0.000001 -0.000001 0.000000 0.079221 0.000000 -0.001319
# 5 0.000659 -0.000659 0.000000 0.000000 0.079221 0.000003
# 6 0.000000 0.000000 0.000000 -0.001319 0.000003 0.103340
#
#
# Mechanical properties :
#
#
# Convention : Reuss Voigt Hill
#
# Bulk Modulus (GPa) = 31.32157 39.23728 35.27942
# Shear Modulus (GPa) = 12.37741 15.37241 13.87491
#
# Velocity S-wave (km/s) = 2.87590 3.20501 3.04491
# Velocity P-wave (km/s) = 5.65308 6.31785 5.99469
#
# Compressibility (1/GPa) = 0.03192688
#
# Stress axis : x y z
#
# Youngs Moduli (GPa) = 28.04032 28.04032 96.09472
#
# Poissons Ratio (x) = 0.44884 0.42742
# Poissons Ratio (y) = 0.44884 0.42742
# Poissons Ratio (z) = 0.12472 0.12472
#
# Static dielectric constant tensor:
#      x y z
#    x 1.479750 0.000000 0.000000 
#    y 0.000000 1.479750 0.000000 
#    z 0.000000 0.000000 1.562760 
# 
# From -- ./inp_files/1908.got.cif
#   From: 2010.05.17/outbox.cif.g08.bks.cpg/sg162_1_cif.got.tgz:1908.got - 2010.05.20 10:53:12.
