data_PCOD9577910
_publ_section_title
;
Structure prediction by ZEFSAII (Michael W. Deem and Ramdas Pophale) SiO2 
 PCOD9577910
Probable space group: P -3 1 M 
;
_chemical_formula_sum "Si O2"
_cell_formula_units_Z 24
_cell_length_a 13.528803
_cell_length_b 13.528803
_cell_length_c 5.516597
_cell_angle_alpha 90.000000
_cell_angle_beta 90.000000
_cell_angle_gamma 120.000000
_cell_volume 874.421115
_symmetry_space_group_name_H-M "P -3 1 M "
_symmetry_group_IT_number 162
_symmetry_cell_setting 'hexagonal'
loop_
_space_group_symop_operation_xyz
x,y,z
-y,x-y,z
-x+y,-x,z
-y,-x,-z
-x+y,y,-z
x,x-y,-z
-x,-y,-z
y,-x+y,-z
x-y,x,-z
y,x,z
x-y,-y,z
-x,-x+y,z
loop_
_atom_site_type_symbol
_atom_site_label
_atom_site_fract_x
_atom_site_fract_y
_atom_site_fract_z
Si Si1 0.879009 0.690409 0.750000
Si Si2 0.624256 0.137809 0.250000
O O1 0.873214 0.746428 0.500000
O O2 0.759738 0.572328 0.750000
O O3 0.000000 0.693229 0.750000
O O4 0.873214 0.746428 0.000000
O O5 0.584473 0.168946 0.500000
O O6 0.565763 0.000000 0.250000
O O7 0.584473 0.168946 0.000000
#
# Coordination Sequence:
#
# PCOD9577910 Si02
#       2
#    12  12
#     4  12  25  44  75 115 165 224 278 338 422 507
#     4  10  21  40  70 105 141 194 272 352 414 469
#
# _framework density 27.446729999999999
#
# number of rings (size 3 to 8) (size 9 to 14) (size 15 to 20)
#    0.000    1.000    0.000    7.500    0.000    4.000 
#    0.000    0.000    0.000   58.000    0.000    0.000 
#    0.000    0.000    0.000    0.000    0.000    0.000 
#
# Total GULP energy -134442.450267 kJ/mol
# GULP energy per Si atom -5601.768761 kJ/mol
# Density = 2.738426 g / cm^3
# Si number density = 27.446730 Si / 1000 Ang^3
#
#
#
# Elastic Constant Matrix: (Units=GPa)
#
#
# Indices 1 2 3 4 5 6 
#
# 1 159.7666 119.1330 68.4540 0.0000 0.0000 0.0000
# 2 119.1330 159.7666 68.4540 0.0000 0.0000 0.0000
# 3 68.4540 68.4540 337.8745 0.0000 0.0000 0.0000
# 4 0.0000 0.0000 0.0000 28.4783 0.0000 0.0000
# 5 0.0000 0.0000 0.0000 0.0000 28.4783 0.0000
# 6 0.0000 0.0000 0.0000 0.0000 0.0000 20.3168
#
#
#
# Elastic Compliance Matrix: (Units=1/GPa)
#
#
# Indices 1 2 3 4 5 6 
#
# 1 0.014296 -0.010314 -0.000807 0.000000 0.000000 0.000000
# 2 -0.010314 0.014296 -0.000807 0.000000 0.000000 0.000000
# 3 -0.000807 -0.000807 0.003287 0.000000 0.000000 0.000000
# 4 0.000000 0.000000 0.000000 0.035114 0.000000 0.000000
# 5 0.000000 0.000000 0.000000 0.000000 0.035114 0.000000
# 6 0.000000 0.000000 0.000000 0.000000 0.000000 0.049220
#
#
# Mechanical properties :
#
#
# Convention : Reuss Voigt Hill
#
# Bulk Modulus (GPa) = 124.64320 129.94328 127.29324
# Shear Modulus (GPa) = 28.11248 42.21247 35.16247
#
# Velocity S-wave (km/s) = 3.20387 3.92596 3.58315
# Velocity P-wave (km/s) = 7.69401 8.24606 7.97481
#
# Compressibility (1/GPa) = 0.00802290
#
# Stress axis : x y z
#
# Youngs Moduli (GPa) = 69.95057 69.95057 304.27140
#
# Poissons Ratio (x) = 0.72149 0.24544
# Poissons Ratio (y) = 0.72149 0.24544
# Poissons Ratio (z) = 0.05643 0.05643
#
# Static dielectric constant tensor:
#      x y z
#    x 2.123800 0.000000 0.000000 
#    y 0.000000 2.123800 0.000000 
#    z 0.000000 0.000000 2.205730 
# 
# From -- ./inp_files/102.got.cif
#   From: 2010.05.17/outbox.cif.g08.bks.cpg/sg162_1_cif.got.tgz:102.got - 2010.05.20 10:53:12.
