data_PCOD9577799
_publ_section_title
;
Structure prediction by ZEFSAII (Michael W. Deem and Ramdas Pophale) SiO2 
 PCOD9577799
Probable space group: P -3 1 M 
;
_chemical_formula_sum "Si O2"
_cell_formula_units_Z 36
_cell_length_a 12.774676
_cell_length_b 12.774676
_cell_length_c 13.593983
_cell_angle_alpha 90.000000
_cell_angle_beta 90.000000
_cell_angle_gamma 120.000000
_cell_volume 1921.220192
_symmetry_space_group_name_H-M "P -3 1 M "
_symmetry_group_IT_number 162
_symmetry_cell_setting 'hexagonal'
loop_
_space_group_symop_operation_xyz
x,y,z
-y,x-y,z
-x+y,-x,z
-y,-x,-z
-x+y,y,-z
x,x-y,-z
-x,-y,-z
y,-x+y,-z
x-y,x,-z
y,x,z
x-y,-y,z
-x,-x+y,z
loop_
_atom_site_type_symbol
_atom_site_label
_atom_site_fract_x
_atom_site_fract_y
_atom_site_fract_z
Si Si1 0.468536 0.325703 0.211613
Si Si2 0.325712 0.468478 0.436655
Si Si3 0.459505 0.143202 0.087203
O O1 0.380174 0.380174 0.208945
O O2 0.504395 0.322135 0.324058
O O3 0.404412 0.189897 0.170881
O O4 0.580980 0.417591 0.141049
O O5 0.415499 0.584502 0.500000
O O6 0.204554 0.409107 0.500000
O O7 0.382025 0.382025 0.433621
O O8 0.381493 0.000000 0.060745
O O9 0.474387 0.237194 0.000000
#
# Coordination Sequence:
#
# PCOD9577799 Si02
#       3
#    12  12  12
#     4  10  21  36  55  81 112 144 177 217 268 321
#     4  10  20  34  54  81 112 145 179 217 263 315
#     4  11  22  37  58  81 107 139 178 224 270 320
#
# _framework density 18.738091000000001
#
# number of rings (size 3 to 8) (size 9 to 14) (size 15 to 20)
#    0.000    1.667    0.000    5.000    0.000    6.667 
#    0.000    0.000    0.000    6.333    0.000    0.000 
#    0.000    0.000    0.000    0.000    0.000    0.000 
#
# Total GULP energy -200433.574137 kJ/mol
# GULP energy per Si atom -5567.599282 kJ/mol
# Density = 1.869544 g / cm^3
# Si number density = 18.738091 Si / 1000 Ang^3
#
#
#
# Elastic Constant Matrix: (Units=GPa)
#
#
# Indices 1 2 3 4 5 6 
#
# 1 155.1848 -51.2664 58.6386 -0.0050 -18.1453 0.0000
# 2 -51.2664 155.1848 58.6386 0.0050 18.1453 0.0000
# 3 58.6386 58.6386 161.2589 0.0000 0.0000 0.0000
# 4 -0.0050 0.0050 0.0000 24.3562 0.0000 18.1453
# 5 -18.1453 18.1453 0.0000 0.0000 24.3562 -0.0050
# 6 0.0000 0.0000 0.0000 18.1453 -0.0050 103.2256
#
#
#
# Elastic Compliance Matrix: (Units=1/GPa)
#
#
# Indices 1 2 3 4 5 6 
#
# 1 0.010947 0.005373 -0.005935 0.000001 0.004152 0.000000
# 2 0.005373 0.010947 -0.005935 -0.000001 -0.004152 0.000000
# 3 -0.005935 -0.005935 0.010517 0.000000 0.000000 0.000000
# 4 0.000001 -0.000001 0.000000 0.047244 0.000000 -0.008305
# 5 0.004152 -0.004152 0.000000 0.000000 0.047244 0.000002
# 6 0.000000 0.000000 0.000000 -0.008305 0.000002 0.011147
#
#
# Mechanical properties :
#
#
# Convention : Reuss Voigt Hill
#
# Bulk Modulus (GPa) = 51.49418 67.07222 59.28320
# Shear Modulus (GPa) = 31.74360 57.42878 44.58619
#
# Velocity S-wave (km/s) = 4.12037 5.54208 4.88324
# Velocity P-wave (km/s) = 7.08359 8.76500 7.96877
#
# Compressibility (1/GPa) = 0.01941967
#
# Stress axis : x y z
#
# Youngs Moduli (GPa) = 91.34881 91.34881 95.08237
#
# Poissons Ratio (x) = -0.49085 0.56428
# Poissons Ratio (y) = -0.49085 0.56428
# Poissons Ratio (z) = 0.54212 0.54212
#
# Static dielectric constant tensor:
#      x y z
#    x 1.672750 0.000000 0.000000 
#    y 0.000000 1.672750 0.000000 
#    z 0.000000 0.000000 1.766200 
# 
# From -- ./inp_files/2716.got.cif
#   From: 2010.05.17/outbox.cif.g08.bks.cpg/sg162_2_cif.got.tgz:2716.got - 2010.05.20 10:53:12.
