data_PCOD9577923
_publ_section_title
;
Structure prediction by ZEFSAII (Michael W. Deem and Ramdas Pophale) SiO2 
 PCOD9577923
Probable space group: P -3 1 M 
;
_chemical_formula_sum "Si O2"
_cell_formula_units_Z 84
_cell_length_a 17.953318
_cell_length_b 17.953318
_cell_length_c 14.700049
_cell_angle_alpha 90.000000
_cell_angle_beta 90.000000
_cell_angle_gamma 120.000000
_cell_volume 4103.352823
_symmetry_space_group_name_H-M "P -3 1 M "
_symmetry_group_IT_number 162
_symmetry_cell_setting 'hexagonal'
loop_
_space_group_symop_operation_xyz
x,y,z
-y,x-y,z
-x+y,-x,z
-y,-x,-z
-x+y,y,-z
x,x-y,-z
-x,-y,-z
y,-x+y,-z
x-y,x,-z
y,x,z
x-y,-y,z
-x,-x+y,z
loop_
_atom_site_type_symbol
_atom_site_label
_atom_site_fract_x
_atom_site_fract_y
_atom_site_fract_z
Si Si1 0.832454 0.733339 0.398465
Si Si2 0.827148 0.497491 0.824866
Si Si3 0.487735 0.824610 0.473030
Si Si4 0.099187 0.366577 0.027184
Si Si5 0.100191 0.383497 0.688519
Si Si6 0.495633 0.333422 0.133726
Si Si7 0.909662 0.345063 0.355950
O O1 0.872699 0.745397 0.500000
O O2 0.812703 0.812703 0.378651
O O3 0.881667 0.694865 0.336732
O O4 0.738730 0.650508 0.387705
O O5 0.883131 0.590339 0.873074
O O6 0.731498 0.466642 0.860956
O O7 0.856267 0.428811 0.848146
O O8 0.835324 0.512080 0.716390
O O9 0.388195 0.776390 0.500000
O O10 0.522816 0.761408 0.500000
O O11 0.531873 0.856542 0.376302
O O12 0.517738 0.897904 0.549569
O O13 0.000000 0.294861 0.017035
O O14 0.169312 0.338623 0.000000
O O15 0.123261 0.446978 0.960222
O O16 0.126170 0.421303 0.789517
O O17 0.000000 0.343390 0.675601
O O18 0.000000 0.410828 0.310864
#
# Coordination Sequence:
#
# PCOD9577923 Si02
#       7
#    12  12  12  12  12  12  12
#     4  11  21  39  64  87 116 155 201 252 309 378
#     4  11  22  39  60  86 125 167 210 258 309 364
#     4  12  23  37  52  76 112 154 198 243 291 349
#     4  10  23  42  64  91 124 162 208 264 323 382
#     4  12  23  39  61  86 118 156 197 250 309 367
#     4  11  23  39  60  89 124 168 213 256 307 367
#     4  11  21  35  56  80 109 148 200 247 298 361
#
# _framework density 20.471063999999998
#
# number of rings (size 3 to 8) (size 9 to 14) (size 15 to 20)
#    0.000    0.857    4.286    3.429    0.000    5.143 
#    0.000    4.286    0.000    2.714    0.000    0.000 
#    0.000    1.143    0.000    0.000    0.000    0.000 
#
# Total GULP energy -467809.821527 kJ/mol
# GULP energy per Si atom -5569.164542 kJ/mol
# Density = 2.042447 g / cm^3
# Si number density = 20.471064 Si / 1000 Ang^3
#
#
#
# Elastic Constant Matrix: (Units=GPa)
#
#
# Indices 1 2 3 4 5 6 
#
# 1 72.1837 38.7506 1.9187 0.0007 4.8193 0.0000
# 2 38.7506 72.1837 1.9187 -0.0007 -4.8193 0.0000
# 3 1.9187 1.9187 60.5669 0.0000 0.0000 0.0000
# 4 0.0007 -0.0007 0.0000 12.9921 0.0000 -4.8193
# 5 4.8193 -4.8193 0.0000 0.0000 12.9921 0.0007
# 6 0.0000 0.0000 0.0000 -4.8193 0.0007 16.7165
#
#
#
# Elastic Compliance Matrix: (Units=1/GPa)
#
#
# Indices 1 2 3 4 5 6 
#
# 1 0.021258 -0.012234 -0.000286 -0.000002 -0.012424 0.000000
# 2 -0.012234 0.021258 -0.000286 0.000002 0.012424 0.000000
# 3 -0.000286 -0.000286 0.016529 0.000000 0.000000 0.000000
# 4 -0.000002 0.000002 0.000000 0.086187 0.000000 0.024847
# 5 -0.012424 0.012424 0.000000 0.000000 0.086187 -0.000003
# 6 0.000000 0.000000 0.000000 0.024847 -0.000003 0.066984
#
#
# Mechanical properties :
#
#
# Convention : Reuss Voigt Hill
#
# Bulk Modulus (GPa) = 29.90990 32.23447 31.07219
# Shear Modulus (GPa) = 14.91828 19.36323 17.14076
#
# Velocity S-wave (km/s) = 2.70246 3.07886 2.89678
# Velocity P-wave (km/s) = 4.93764 5.33101 5.13809
#
# Compressibility (1/GPa) = 0.03343374
#
# Stress axis : x y z
#
# Youngs Moduli (GPa) = 47.04068 47.04068 60.50056
#
# Poissons Ratio (x) = 0.57549 0.01730
# Poissons Ratio (y) = 0.57549 0.01730
# Poissons Ratio (z) = 0.01345 0.01345
#
# Static dielectric constant tensor:
#      x y z
#    x 1.501850 0.000000 0.000000 
#    y 0.000000 1.501850 0.000000 
#    z 0.000000 0.000000 1.768630 
# 
# From -- ./inp_files/3170.got.cif
#   From: 2010.05.17/outbox.cif.g08.bks.cpg/sg162_2_cif.got.tgz:3170.got - 2010.05.20 10:53:12.
