data_PCOD9577415
_publ_section_title
;
Structure prediction by ZEFSAII (Michael W. Deem and Ramdas Pophale) SiO2 
 PCOD9577415
Probable space group: P 3 1 C
;
_chemical_formula_sum "Si O2"
_cell_formula_units_Z 34
_cell_length_a 8.161114
_cell_length_b 8.161114
_cell_length_c 29.380271
_cell_angle_alpha 90.000000
_cell_angle_beta 90.000000
_cell_angle_gamma 120.000000
_cell_volume 1694.670689
_symmetry_space_group_name_H-M "P 3 1 C"
_symmetry_group_IT_number 159
_symmetry_cell_setting 'hexagonal'
loop_
_space_group_symop_operation_xyz
x,y,z
-y,x-y,z
-x+y,-x,z
y,x,1/2+z
x-y,-y,1/2+z
-x,-x+y,1/2+z
loop_
_atom_site_type_symbol
_atom_site_label
_atom_site_fract_x
_atom_site_fract_y
_atom_site_fract_z
Si Si1 0.332181 0.299175 0.206170
Si Si2 0.228599 0.414407 0.806627
Si Si3 0.979528 0.340949 0.667838
Si Si4 0.000000 0.000000 0.461477
Si Si5 0.360791 0.984534 0.064182
Si Si6 0.707489 0.019203 0.026031
Si Si7 0.000000 0.000000 0.353224
O O1 0.330995 0.222382 0.256274
O O2 0.540597 0.464814 0.195291
O O3 0.201752 0.389395 0.195084
O O4 0.271011 0.130398 0.170572
O O5 0.452182 0.583414 0.812454
O O6 0.126179 0.221227 0.836491
O O7 0.951071 0.388346 0.616525
O O8 0.169437 0.198220 0.482191
O O9 0.000000 0.000000 0.407756
O O10 0.195030 0.796128 0.042966
O O11 0.540994 0.067685 0.030658
O O12 0.290161 0.135871 0.062070
#
# Coordination Sequence:
#
# PCOD9577415 Si02
#       7
#     6   6   6   2   6   6   2
#     4  12  23  39  56  90 136 179 229 290 332 406
#     4  10  23  48  69 107 143 188 244 289 383 443
#     4  12  22  34  57  88 129 184 239 273 322 405
#     4   9  24  48  69 103 119 166 225 288 369 441
#     4  11  20  36  57  90 127 184 226 272 333 401
#     4  10  22  40  62  87 136 169 217 284 346 414
#     4  12  24  51  84 103 146 184 234 324 375 456
#
# _framework density 20.062892999999999
#
# number of rings (size 3 to 8) (size 9 to 14) (size 15 to 20)
#    0.353    0.706    1.765    6.353    0.000    0.000 
#    7.412    0.000    0.000    0.000    0.000    0.000 
#    0.000    0.000    0.000    0.000    0.000    0.000 
#
# Total GULP energy -189283.495642 kJ/mol
# GULP energy per Si atom -5567.161637 kJ/mol
# Density = 2.001723 g / cm^3
# Si number density = 20.062893 Si / 1000 Ang^3
#
#
#
# Elastic Constant Matrix: (Units=GPa)
#
#
# Indices 1 2 3 4 5 6 
#
# 1 97.8248 34.0689 44.5098 0.0000 -2.2787 0.0000
# 2 34.0689 97.8248 44.5098 0.0000 2.2787 0.0000
# 3 44.5098 44.5098 155.0592 0.0000 0.0000 0.0000
# 4 0.0000 0.0000 0.0000 15.8357 0.0000 2.2787
# 5 -2.2787 2.2787 0.0000 0.0000 15.8357 0.0000
# 6 0.0000 0.0000 0.0000 2.2787 0.0000 31.8780
#
#
#
# Elastic Compliance Matrix: (Units=1/GPa)
#
#
# Indices 1 2 3 4 5 6 
#
# 1 0.012626 -0.003222 -0.002699 0.000000 0.002280 0.000000
# 2 -0.003222 0.012626 -0.002699 0.000000 -0.002280 0.000000
# 3 -0.002699 -0.002699 0.007999 0.000000 0.000000 0.000000
# 4 0.000000 0.000000 0.000000 0.063805 0.000000 -0.004561
# 5 0.002280 -0.002280 0.000000 0.000000 0.063805 0.000000
# 6 0.000000 0.000000 0.000000 -0.004561 0.000000 0.031696
#
#
# Mechanical properties :
#
#
# Convention : Reuss Voigt Hill
#
# Bulk Modulus (GPa) = 62.46508 66.32066 64.39287
# Shear Modulus (GPa) = 23.24139 27.88455 25.56297
#
# Velocity S-wave (km/s) = 3.40726 3.73212 3.57338
# Velocity P-wave (km/s) = 6.83238 7.19026 7.01360
#
# Compressibility (1/GPa) = 0.01600894
#
# Stress axis : x y z
#
# Youngs Moduli (GPa) = 79.20298 79.20298 125.01792
#
# Poissons Ratio (x) = 0.25519 0.33747
# Poissons Ratio (y) = 0.25519 0.33747
# Poissons Ratio (z) = 0.21380 0.21380
#
# Static dielectric constant tensor:
#      x y z
#    x 1.832070 0.000000 0.000000 
#    y 0.000000 1.832070 0.000000 
#    z 0.000000 0.000000 1.656760 
# 
# From -- ./inp_files/1283.got.cif
#   From: 2010.05.17/outbox.cif.g08.bks.cpg/sg159_cif.got.tgz:1283.got - 2010.05.20 10:50:30.
