data_PCOD9577515
_publ_section_title
;
Structure prediction by ZEFSAII (Michael W. Deem and Ramdas Pophale) SiO2 
 PCOD9577515
Probable space group: R 3 M
;
_chemical_formula_sum "Si O2"
_cell_formula_units_Z 48
_cell_length_a 21.000000
_cell_length_b 21.000000
_cell_length_c 21.000000
_cell_angle_alpha 90.000000
_cell_angle_beta 90.000000
_cell_angle_gamma 120.000000
_cell_volume 8020.261264
_symmetry_space_group_name_H-M "R 3 M"
_symmetry_group_IT_number 160
_symmetry_cell_setting 'hexagonal'
loop_
_space_group_symop_operation_xyz
x,y,z
-y,x-y,z
-x+y,-x,z
-x+y,y,z
x,x-y,z
-y,-x,z
2/3+x,1/3+y,1/3+z
2/3-y,1/3+x-y,1/3+z
2/3-x+y,1/3-x,1/3+z
2/3-x+y,1/3+y,1/3+z
2/3+x,1/3+x-y,1/3+z
2/3-y,1/3-x,1/3+z
1/3+x,2/3+y,2/3+z
1/3-y,2/3+x-y,2/3+z
1/3-x+y,2/3-x,2/3+z
1/3-x+y,2/3+y,2/3+z
1/3+x,2/3+x-y,2/3+z
1/3-y,2/3-x,2/3+z
loop_
_atom_site_type_symbol
_atom_site_label
_atom_site_fract_x
_atom_site_fract_y
_atom_site_fract_z
Si Si1 0.512354 0.179068 0.320062
Si Si2 0.179315 0.666161 0.027012
Si Si3 0.287984 0.256996 0.906520
Si Si4 0.332004 0.512470 0.265697
Si Si5 0.596076 0.723019 0.907334
Si Si6 0.052616 0.453344 0.357094
Si Si7 0.750439 0.999436 0.479161
Si Si8 0.742354 0.998561 0.102977
O O1 0.592000 0.184000 0.329397
O O2 0.518864 0.259432 0.315455
O O3 0.474083 0.128233 0.256816
O O4 0.457216 0.134283 0.380039
O O5 0.189631 0.594816 0.021258
O O6 0.258263 0.741738 0.038739
O O7 0.146177 0.680859 0.961973
O O8 0.121953 0.651419 0.084988
O O9 0.286778 0.332964 0.918129
O O10 0.335847 0.246216 0.960593
O O11 0.336685 0.271185 0.841946
O O12 0.262626 0.525251 0.269537
O O13 0.410032 0.589969 0.258250
O O14 0.340656 0.472878 0.329456
O O15 0.320105 0.458809 0.205392
O O16 0.615963 0.807982 0.910581
O O17 0.571583 0.693814 0.835025
O O18 0.058066 0.529033 0.378429
O O19 0.003925 0.392238 0.409203
O O20 0.736603 0.066033 0.456771
#
# Coordination Sequence:
#
# PCOD9577515 Si02
#       8
#    18  18  18  18  18  18  18  18
#     4  11  22  36  57  84 115 150 186 225 275 340
#     4  11  23  38  55  78 113 156 196 234 275 325
#     4   9  18  34  55  80 107 138 175 228 290 333
#     4  10  20  35  56  83 116 152 187 227 277 338
#     4  10  20  35  56  81 110 146 191 235 276 329
#     4   9  17  32  55  80 106 137 178 227 279 336
#     4  10  21  35  55  84 112 144 194 240 282 332
#     4  10  20  37  57  82 112 147 185 234 290 329
#
# _framework density 5.9848420000000004
#
# number of rings (size 3 to 8) (size 9 to 14) (size 15 to 20)
#    0.000    2.000    0.000    5.250    0.000    4.000 
#    0.000   13.125    0.000    3.000    0.000    0.000 
#    0.000    8.000    0.000    0.000    0.000    0.000 
#
# Total GULP energy -267423.556889 kJ/mol
# GULP energy per Si atom -5571.324102 kJ/mol
# Density = 0.597122 g / cm^3
# Si number density = 5.984842 Si / 1000 Ang^3
#
#
#
# Elastic Constant Matrix: (Units=GPa)
#
#
# Indices 1 2 3 4 5 6 
#
# 1 119.2058 49.8079 36.4676 -0.3729 -0.0002 0.0000
# 2 49.8079 119.2058 36.4676 0.3729 0.0002 0.0000
# 3 36.4676 36.4676 103.5858 0.0000 0.0000 0.0000
# 4 -0.3729 0.3729 0.0000 29.3061 0.0000 0.0002
# 5 -0.0002 0.0002 0.0000 0.0000 29.3061 -0.3729
# 6 0.0000 0.0000 0.0000 0.0002 -0.3729 34.6990
#
#
#
# Elastic Compliance Matrix: (Units=1/GPa)
#
#
# Indices 1 2 3 4 5 6 
#
# 1 0.010694 -0.003718 -0.002456 0.000183 0.000000 0.000000
# 2 -0.003718 0.010694 -0.002456 -0.000183 0.000000 0.000000
# 3 -0.002456 -0.002456 0.011383 0.000000 0.000000 0.000000
# 4 0.000183 -0.000183 0.000000 0.034127 0.000000 0.000000
# 5 0.000000 0.000000 0.000000 0.000000 0.034127 0.000367
# 6 0.000000 0.000000 0.000000 0.000000 0.000367 0.028823
#
#
# Mechanical properties :
#
#
# Convention : Reuss Voigt Hill
#
# Bulk Modulus (GPa) = 64.46672 65.27595 64.87133
# Shear Modulus (GPa) = 32.83439 33.27918 33.05678
#
# Velocity S-wave (km/s) = 4.28103 4.30993 4.29550
# Velocity P-wave (km/s) = 7.77302 7.82320 7.79815
#
# Compressibility (1/GPa) = 0.01551188
#
# Stress axis : x y z
#
# Youngs Moduli (GPa) = 93.50952 93.50952 87.84885
#
# Poissons Ratio (x) = 0.34762 0.21577
# Poissons Ratio (y) = 0.34762 0.21577
# Poissons Ratio (z) = 0.22967 0.22967
#
# Static dielectric constant tensor:
#      x y z
#    x 1.627370 0.000000 0.000000 
#    y 0.000000 1.627370 0.000000 
#    z 0.000000 0.000000 1.633570 
# 
# From -- ./inp_files/3433.got.cif
#   From: 2010.05.17/outbox.ucp.g08.bks.cvg/sg160_2_cif.got.tgz:3433.got - 2010.06.11 15:14:33.
