data_PCOD9577083
_publ_section_title
;
Structure prediction by ZEFSAII (Michael W. Deem and Ramdas Pophale) SiO2 
 PCOD9577083
Probable space group: R 3 2
;
_chemical_formula_sum "Si O2"
_cell_formula_units_Z 69
_cell_length_a 20.498926
_cell_length_b 20.498926
_cell_length_c 9.210445
_cell_angle_alpha 90.000000
_cell_angle_beta 90.000000
_cell_angle_gamma 120.000000
_cell_volume 3351.764220
_symmetry_space_group_name_H-M "R 3 2"
_symmetry_group_IT_number 155
_symmetry_cell_setting 'hexagonal'
loop_
_space_group_symop_operation_xyz
x,y,z
-y,x-y,z
-x+y,-x,z
x-y,-y,-z
-x,-x+y,-z
y,x,-z
2/3+x,1/3+y,1/3+z
2/3-y,1/3+x-y,1/3+z
2/3-x+y,1/3-x,1/3+z
2/3+x-y,1/3-y,1/3-z
2/3-x,1/3-x+y,1/3-z
2/3+y,1/3+x,1/3-z
1/3+x,2/3+y,2/3+z
1/3-y,2/3+x-y,2/3+z
1/3-x+y,2/3-x,2/3+z
1/3+x-y,2/3-y,2/3-z
1/3-x,2/3-x+y,2/3-z
1/3+y,2/3+x,2/3-z
loop_
_atom_site_type_symbol
_atom_site_label
_atom_site_fract_x
_atom_site_fract_y
_atom_site_fract_z
Si Si1 0.942508 0.576810 0.183413
Si Si2 0.303155 0.000000 0.000000
Si Si3 0.333334 0.666667 0.987689
Si Si4 0.351912 0.169781 0.005983
Si Si5 0.032725 0.871248 0.660382
O O1 0.898582 0.565249 0.333334
O O2 0.997041 0.666667 0.166667
O O3 0.992036 0.537783 0.212210
O O4 0.878295 0.536499 0.064917
O O5 0.333334 0.998264 0.166667
O O6 0.227154 0.919900 0.999428
O O7 0.333334 0.666668 0.166667
O O8 0.415881 0.732331 0.939367
O O9 0.442384 0.211965 0.996250
O O10 0.333334 0.188670 0.166667
O O11 0.000000 0.858523 0.500000
#
# Coordination Sequence:
#
# PCOD9577083 Si02
#       5
#    18   9   6  18  18
#     4  12  22  40  63  98 130 167 215 272 340 404
#     4  10  26  46  66 100 136 186 230 282 348 418
#     4   9  24  45  61  92 130 177 223 269 331 399
#     4  11  23  42  68  95 138 174 217 284 339 403
#     4  11  23  40  67  95 132 174 222 282 337 409
#
# _framework density 20.586172999999999
#
# number of rings (size 3 to 8) (size 9 to 14) (size 15 to 20)
#    0.000    1.043    5.217    0.783    0.000   10.435 
#    0.000    0.000    0.000    0.000    0.000    0.000 
#    0.000    0.000    0.000    0.000    0.000    0.000 
#
# Total GULP energy -128145.893982 kJ/mol
# GULP energy per Si atom -5571.560608 kJ/mol
# Density = 2.053932 g / cm^3
# Si number density = 20.586173 Si / 1000 Ang^3
#
#
#
# Elastic Constant Matrix: (Units=GPa)
#
#
# Indices 1 2 3 4 5 6 
#
# 1 136.4962 88.7416 20.9478 -5.9437 0.0009 0.0001
# 2 88.7416 136.4954 20.9449 5.9437 -0.0003 0.0002
# 3 20.9478 20.9449 64.3010 0.0009 0.0032 0.0009
# 4 -5.9437 5.9437 0.0009 20.5141 0.0005 -0.0001
# 5 0.0009 -0.0003 0.0032 0.0005 20.5148 -5.9438
# 6 0.0001 0.0002 0.0009 -0.0001 -5.9438 23.8773
#
#
#
# Elastic Compliance Matrix: (Units=1/GPa)
#
#
# Indices 1 2 3 4 5 6 
#
# 1 0.013647 -0.008921 -0.001540 0.006539 -0.000001 0.000000
# 2 -0.008921 0.013647 -0.001539 -0.006539 0.000001 0.000000
# 3 -0.001540 -0.001539 0.016555 -0.000001 -0.000003 -0.000001
# 4 0.006539 -0.006539 -0.000001 0.052536 -0.000002 0.000000
# 5 -0.000001 0.000001 -0.000003 -0.000002 0.052534 0.013077
# 6 0.000000 0.000000 -0.000001 0.000000 0.013077 0.045136
#
#
# Mechanical properties :
#
#
# Convention : Reuss Voigt Hill
#
# Bulk Modulus (GPa) = 50.38063 66.50681 58.44372
# Shear Modulus (GPa) = 22.25464 26.75848 24.50656
#
# Velocity S-wave (km/s) = 3.29150 3.60922 3.45402
# Velocity P-wave (km/s) = 6.24271 7.05304 6.66021
#
# Compressibility (1/GPa) = 0.01984890
#
# Stress axis : x y z
#
# Youngs Moduli (GPa) = 73.27474 73.27555 60.40511
#
# Poissons Ratio (x) = 0.65370 0.09303
# Poissons Ratio (y) = 0.65369 0.09296
# Poissons Ratio (z) = 0.11286 0.11277
#
# Static dielectric constant tensor:
#      x y z
#    x 1.745310 0.000000 0.000000 
#    y 0.000000 1.745310 0.000000 
#    z 0.000000 0.000000 1.803630 
# 
# From -- ./inp_files/2163.got.cif
#   From: 2010.05.17/outbox.cif.g08.bks.cpg/sg155_2_cif.got.tgz:2163.got - 2010.05.20 10:44:35.
