data_PCOD9577654
_publ_section_title
;
Structure prediction by ZEFSAII (Michael W. Deem and Ramdas Pophale) SiO2 
 PCOD9577654
Probable space group: P -3 1 M 
;
_chemical_formula_sum "Si O2"
_cell_formula_units_Z 96
_cell_length_a 13.732390
_cell_length_b 13.732390
_cell_length_c 29.334709
_cell_angle_alpha 90.000000
_cell_angle_beta 90.000000
_cell_angle_gamma 120.000000
_cell_volume 4790.762858
_symmetry_space_group_name_H-M "P -3 1 M "
_symmetry_group_IT_number 162
_symmetry_cell_setting 'hexagonal'
loop_
_space_group_symop_operation_xyz
x,y,z
-y,x-y,z
-x+y,-x,z
-y,-x,-z
-x+y,y,-z
x,x-y,-z
-x,-y,-z
y,-x+y,-z
x-y,x,-z
y,x,z
x-y,-y,z
-x,-x+y,z
loop_
_atom_site_type_symbol
_atom_site_label
_atom_site_fract_x
_atom_site_fract_y
_atom_site_fract_z
Si Si1 0.682996 0.551645 0.628465
Si Si2 0.869037 0.438399 0.710650
Si Si3 0.292970 0.874887 0.877327
Si Si4 0.200068 0.871902 0.303476
Si Si5 0.807515 0.676838 0.201345
Si Si6 0.265814 0.133843 0.945650
Si Si7 0.536840 0.671545 0.524847
Si Si8 0.867182 0.425475 0.191298
O O1 0.592274 0.592274 0.623637
O O2 0.636665 0.454671 0.666408
O O3 0.792669 0.650543 0.653477
O O4 0.693228 0.518063 0.577523
O O5 0.872901 0.555441 0.703629
O O6 0.819406 0.384608 0.759632
O O7 0.000000 0.471706 0.712667
O O8 0.215896 0.882136 0.837164
O O9 0.204504 0.821956 0.918376
O O10 0.360550 0.821508 0.852264
O O11 0.384111 0.000000 0.893287
O O12 0.147041 0.835971 0.252988
O O13 0.232213 0.000000 0.311458
O O14 0.771084 0.771084 0.195224
O O15 0.691770 0.557324 0.193702
O O16 0.202517 0.202517 0.933343
O O17 0.185949 0.000000 0.935248
O O18 0.283837 0.141919 0.000000
O O19 0.423298 0.576703 0.500000
O O20 0.578997 0.789499 0.500000
O O21 0.623386 0.623386 0.522913
O O22 0.000000 0.517465 0.191159
#
# Coordination Sequence:
#
# PCOD9577654 Si02
#       8
#    12  12  12  12  12  12  12  12
#     4  10  20  33  52  77 101 129 168 207 249 297
#     4   8  15  29  46  66  94 126 160 196 237 285
#     4  10  18  28  47  70  92 126 166 205 246 287
#     4   9  18  31  49  72 100 135 166 197 241 295
#     4   9  17  30  46  68 100 133 163 195 242 296
#     4   9  17  29  46  70  99 128 160 201 249 300
#     4  10  23  41  60  83 112 145 181 225 278 335
#     4   8  15  28  44  63  92 126 159 197 236 281
#
# _framework density 20.038561999999999
#
# number of rings (size 3 to 8) (size 9 to 14) (size 15 to 20)
#    0.000    2.875    0.000    2.875    1.750    2.500 
#    1.500    0.000    0.000    1.375    0.000    4.375 
#    0.000    0.000    0.000    0.000    0.000    0.000 
#
# Total GULP energy -534508.482217 kJ/mol
# GULP energy per Si atom -5567.796690 kJ/mol
# Density = 1.999295 g / cm^3
# Si number density = 20.038562 Si / 1000 Ang^3
#
#
#
# Elastic Constant Matrix: (Units=GPa)
#
#
# Indices 1 2 3 4 5 6 
#
# 1 48.1757 9.9350 23.3613 -0.0001 -1.2343 0.0000
# 2 9.9350 48.1757 23.3613 0.0001 1.2343 0.0000
# 3 23.3613 23.3613 106.2060 0.0000 0.0000 0.0000
# 4 -0.0001 0.0001 0.0000 20.8412 0.0000 1.2343
# 5 -1.2343 1.2343 0.0000 0.0000 20.8412 -0.0001
# 6 0.0000 0.0000 0.0000 1.2343 -0.0001 19.1203
#
#
#
# Elastic Compliance Matrix: (Units=1/GPa)
#
#
# Indices 1 2 3 4 5 6 
#
# 1 0.023578 -0.002672 -0.004599 0.000000 0.001555 0.000000
# 2 -0.002672 0.023578 -0.004599 0.000000 -0.001555 0.000000
# 3 -0.004599 -0.004599 0.011439 0.000000 0.000000 0.000000
# 4 0.000000 0.000000 0.000000 0.048166 0.000000 -0.003109
# 5 0.001555 -0.001555 0.000000 0.000000 0.048166 0.000000
# 6 0.000000 0.000000 0.000000 -0.003109 0.000000 0.052501
#
#
# Mechanical properties :
#
#
# Convention : Reuss Voigt Hill
#
# Bulk Modulus (GPa) = 28.68914 35.09697 31.89306
# Shear Modulus (GPa) = 20.59430 21.88720 21.24075
#
# Velocity S-wave (km/s) = 3.20931 3.30851 3.25929
# Velocity P-wave (km/s) = 5.29914 5.66990 5.48765
#
# Compressibility (1/GPa) = 0.03485639
#
# Stress axis : x y z
#
# Youngs Moduli (GPa) = 42.41205 42.41205 87.42283
#
# Poissons Ratio (x) = 0.11334 0.40201
# Poissons Ratio (y) = 0.11334 0.40201
# Poissons Ratio (z) = 0.19503 0.19503
#
# Static dielectric constant tensor:
#      x y z
#    x 1.763530 0.000000 0.000000 
#    y 0.000000 1.763530 0.000000 
#    z 0.000000 0.000000 1.750170 
# 
# From -- ./inp_files/4105.got.cif
#   From: 2010.05.17/outbox.cif.g08.bks.cpg/sg162_3_cif.got.tgz:4105.got - 2010.05.20 10:53:12.
