data_PCOD9577257
_publ_section_title
;
Structure prediction by ZEFSAII (Michael W. Deem and Ramdas Pophale) SiO2 
 PCOD9577257
Probable space group: P 3 1 M
;
_chemical_formula_sum "Si O2"
_cell_formula_units_Z 42
_cell_length_a 14.043242
_cell_length_b 14.043242
_cell_length_c 13.486905
_cell_angle_alpha 90.000000
_cell_angle_beta 90.000000
_cell_angle_gamma 120.000000
_cell_volume 2303.444167
_symmetry_space_group_name_H-M "P 3 1 M"
_symmetry_group_IT_number 157
_symmetry_cell_setting 'hexagonal'
loop_
_space_group_symop_operation_xyz
x,y,z
-y,x-y,z
-x+y,-x,z
y,x,z
x-y,-y,z
-x,-x+y,z
loop_
_atom_site_type_symbol
_atom_site_label
_atom_site_fract_x
_atom_site_fract_y
_atom_site_fract_z
Si Si1 0.271042 0.465535 0.305210
Si Si2 0.127242 0.567850 0.130330
Si Si3 0.350905 0.870679 0.653572
Si Si4 0.786608 0.660874 0.142534
Si Si5 0.554353 0.867469 0.743759
Si Si6 0.589188 0.467464 0.428307
Si Si7 0.869842 0.578220 0.968010
O O1 0.347310 0.541388 0.215890
O O2 0.192154 0.353513 0.244926
O O3 0.357979 0.481758 0.390102
O O4 0.201074 0.510217 0.360568
O O5 0.125016 0.454203 0.136506
O O6 0.000000 0.535901 0.145456
O O7 0.166847 0.631542 0.026635
O O8 0.434650 0.855357 0.725485
O O9 0.223402 0.784887 0.675593
O O10 0.383060 0.851053 0.543159
O O11 0.386677 0.000000 0.659792
O O12 0.757407 0.757407 0.143904
O O13 0.846172 0.653323 0.043375
O O14 0.563888 0.831096 0.855530
O O15 0.641360 0.000000 0.727856
O O16 0.566924 0.566924 0.411469
O O17 0.000000 0.634752 0.957261
#
# Coordination Sequence:
#
# PCOD9577257 Si02
#       7
#     6   6   6   6   6   6   6
#     4  11  19  30  50  71 108 146 176 213 270 311
#     4   9  18  32  47  74 108 138 174 216 259 318
#     4  10  22  38  57  82 113 151 195 242 299 356
#     4  10  20  33  52  77 107 142 185 226 268 331
#     4  10  21  39  57  81 114 149 193 241 294 360
#     4  11  22  34  50  77 108 144 189 230 272 333
#     4   9  20  34  51  74 106 140 178 226 278 331
#
# _framework density 18.233564999999999
#
# number of rings (size 3 to 8) (size 9 to 14) (size 15 to 20)
#    0.000    2.000    1.429    2.286    2.000    1.143 
#    0.857    0.714    0.000    0.571    0.000    0.000 
#    0.000    0.000    0.000    3.000    0.000    1.286 
#
# Total GULP energy -233842.770043 kJ/mol
# GULP energy per Si atom -5567.685001 kJ/mol
# Density = 1.819206 g / cm^3
# Si number density = 18.233565 Si / 1000 Ang^3
#
#
#
# Elastic Constant Matrix: (Units=GPa)
#
#
# Indices 1 2 3 4 5 6 
#
# 1 55.3872 15.4625 29.8566 0.0000 -4.7178 0.0000
# 2 15.4625 55.3872 29.8566 0.0000 4.7178 0.0000
# 3 29.8566 29.8566 104.8185 0.0000 0.0000 0.0000
# 4 0.0000 0.0000 0.0000 12.9109 0.0000 4.7178
# 5 -4.7178 4.7178 0.0000 0.0000 12.9109 0.0000
# 6 0.0000 0.0000 0.0000 4.7178 0.0000 19.9624
#
#
#
# Elastic Compliance Matrix: (Units=1/GPa)
#
#
# Indices 1 2 3 4 5 6 
#
# 1 0.022994 -0.004421 -0.005290 0.000000 0.010018 0.000000
# 2 -0.004421 0.022994 -0.005290 0.000000 -0.010018 0.000000
# 3 -0.005290 -0.005290 0.012554 0.000000 0.000000 0.000000
# 4 0.000000 0.000000 0.000000 0.084775 0.000000 -0.020035
# 5 0.010018 -0.010018 0.000000 0.000000 0.084775 0.000000
# 6 0.000000 0.000000 0.000000 -0.020035 0.000000 0.054829
#
#
# Mechanical properties :
#
#
# Convention : Reuss Voigt Hill
#
# Bulk Modulus (GPa) = 35.03986 40.66049 37.85017
# Shear Modulus (GPa) = 15.50688 18.51798 17.01243
#
# Velocity S-wave (km/s) = 2.91943 3.19030 3.05786
# Velocity P-wave (km/s) = 5.53381 5.99324 5.76810
#
# Compressibility (1/GPa) = 0.02853893
#
# Stress axis : x y z
#
# Youngs Moduli (GPa) = 43.48977 43.48977 79.65490
#
# Poissons Ratio (x) = 0.19226 0.42141
# Poissons Ratio (y) = 0.19226 0.42141
# Poissons Ratio (z) = 0.23008 0.23008
#
# Static dielectric constant tensor:
#      x y z
#    x 1.654420 0.000000 0.000000 
#    y 0.000000 1.654420 0.000000 
#    z 0.000000 0.000000 1.687710 
# 
# From -- ./inp_files/582.got.cif
#   From: 2010.05.17/outbox.cif.g08.bks.cpg/sg157_cif.got.tgz:582.got - 2010.05.20 10:49:36.
