data_PCOD9577989
_publ_section_title
;
Structure prediction by ZEFSAII (Michael W. Deem and Ramdas Pophale) SiO2 
 PCOD9577989
Probable space group: P -3 1 C
;
_chemical_formula_sum "Si O2"
_cell_formula_units_Z 84
_cell_length_a 22.074790
_cell_length_b 22.074790
_cell_length_c 11.572303
_cell_angle_alpha 90.000000
_cell_angle_beta 90.000000
_cell_angle_gamma 120.000000
_cell_volume 4883.639408
_symmetry_space_group_name_H-M "P -3 1 C"
_symmetry_group_IT_number 163
_symmetry_cell_setting 'hexagonal'
loop_
_space_group_symop_operation_xyz
x,y,z
-y,x-y,z
-x+y,-x,z
-y,-x,1/2-z
-x+y,y,1/2-z
x,x-y,1/2-z
-x,-y,-z
y,-x+y,-z
x-y,x,-z
y,x,1/2+z
x-y,-y,1/2+z
-x,-x+y,1/2+z
loop_
_atom_site_type_symbol
_atom_site_label
_atom_site_fract_x
_atom_site_fract_y
_atom_site_fract_z
Si Si1 0.883584 0.317394 0.037606
Si Si2 0.747183 0.628366 0.716144
Si Si3 0.473586 0.402860 0.683404
Si Si4 0.943049 0.224317 0.935054
Si Si5 0.754454 0.192002 0.126638
Si Si6 0.386387 0.479659 0.713941
Si Si7 0.101736 0.296523 0.977178
O O1 0.802788 0.254090 0.038711
O O2 0.904488 0.347231 0.166398
O O3 0.896984 0.376245 0.943738
O O4 0.928874 0.281728 0.998692
O O5 0.800573 0.601145 0.750000
O O6 0.667749 0.571745 0.742923
O O7 0.769614 0.693827 0.802686
O O8 0.761547 0.656042 0.586619
O O9 0.544195 0.455806 0.750000
O O10 0.428922 0.442426 0.671595
O O11 0.022044 0.243263 0.949394
O O12 0.885787 0.150151 0.987529
O O13 0.770479 0.229522 0.250000
O O14 0.671144 0.143973 0.121635
O O15 0.785421 0.139452 0.122721
O O16 0.441638 0.558363 0.750000
#
# Coordination Sequence:
#
# PCOD9577989 Si02
#       7
#    12  12  12  12  12  12  12
#     4   9  18  33  47  67  98 128 162 200 235 284
#     4   9  18  32  48  69  96 127 159 192 237 287
#     4  10  20  31  48  75 101 125 156 196 246 300
#     4   9  18  30  48  70  96 127 160 195 237 286
#     4   9  18  32  50  70  94 126 163 200 239 283
#     4  10  20  31  48  73  99 126 157 196 248 299
#     4  10  18  30  49  71  97 127 157 198 239 278
#
# _framework density 17.200286999999999
#
# number of rings (size 3 to 8) (size 9 to 14) (size 15 to 20)
#    0.000    2.571    0.000    3.429    0.000    5.714 
#    0.000    0.000    0.000    8.286    0.000    6.000 
#    0.000    3.429    0.000    0.000    0.000    0.143 
#
# Total GULP energy -468148.760437 kJ/mol
# GULP energy per Si atom -5573.199529 kJ/mol
# Density = 1.716114 g / cm^3
# Si number density = 17.200287 Si / 1000 Ang^3
#
#
#
# Elastic Constant Matrix: (Units=GPa)
#
#
# Indices 1 2 3 4 5 6 
#
# 1 86.9402 41.5970 8.5863 -0.0003 0.0505 0.0000
# 2 41.5970 86.9402 8.5863 0.0003 -0.0505 0.0000
# 3 8.5863 8.5863 36.6135 0.0000 0.0000 0.0000
# 4 -0.0003 0.0003 0.0000 18.1904 0.0000 -0.0505
# 5 0.0505 -0.0505 0.0000 0.0000 18.1904 -0.0003
# 6 0.0000 0.0000 0.0000 -0.0505 -0.0003 22.6716
#
#
#
# Elastic Compliance Matrix: (Units=1/GPa)
#
#
# Indices 1 2 3 4 5 6 
#
# 1 0.015043 -0.007011 -0.001883 0.000000 -0.000061 0.000000
# 2 -0.007011 0.015043 -0.001883 0.000000 0.000061 0.000000
# 3 -0.001883 -0.001883 0.028196 0.000000 0.000000 0.000000
# 4 0.000000 0.000000 0.000000 0.054974 0.000000 0.000122
# 5 -0.000061 0.000061 0.000000 0.000000 0.054974 0.000001
# 6 0.000000 0.000000 0.000000 0.000122 0.000001 0.044108
#
#
# Mechanical properties :
#
#
# Convention : Reuss Voigt Hill
#
# Bulk Modulus (GPa) = 27.22960 36.44813 31.83887
# Shear Modulus (GPa) = 20.31392 21.92543 21.11967
#
# Velocity S-wave (km/s) = 3.44033 3.57419 3.50790
# Velocity P-wave (km/s) = 5.62551 6.18623 5.91253
#
# Compressibility (1/GPa) = 0.03672474
#
# Stress axis : x y z
#
# Youngs Moduli (GPa) = 66.47685 66.47685 35.46639
#
# Poissons Ratio (x) = 0.46609 0.06680
# Poissons Ratio (y) = 0.46609 0.06680
# Poissons Ratio (z) = 0.12521 0.12521
#
# Static dielectric constant tensor:
#      x y z
#    x 1.588830 0.000000 0.000000 
#    y 0.000000 1.588830 0.000000 
#    z 0.000000 0.000000 1.624650 
# 
# From -- ./inp_files/1854.got.cif
#   From: 2010.05.17/outbox.cif.g08.bks.cpg/sg163_1_cif.got.tgz:1854.got - 2010.05.20 10:56:03.
