data_PCOD9577393
_publ_section_title
;
Structure prediction by ZEFSAII (Michael W. Deem and Ramdas Pophale) SiO2 
 PCOD9577393
Probable space group: P 3 1 C
;
_chemical_formula_sum "Si O2"
_cell_formula_units_Z 34
_cell_length_a 10.906098
_cell_length_b 10.906098
_cell_length_c 14.941153
_cell_angle_alpha 90.000000
_cell_angle_beta 90.000000
_cell_angle_gamma 120.000000
_cell_volume 1539.052861
_symmetry_space_group_name_H-M "P 3 1 C"
_symmetry_group_IT_number 159
_symmetry_cell_setting 'hexagonal'
loop_
_space_group_symop_operation_xyz
x,y,z
-y,x-y,z
-x+y,-x,z
y,x,1/2+z
x-y,-y,1/2+z
-x,-x+y,1/2+z
loop_
_atom_site_type_symbol
_atom_site_label
_atom_site_fract_x
_atom_site_fract_y
_atom_site_fract_z
Si Si1 0.326406 0.182627 0.489860
Si Si2 0.272198 0.792505 0.748429
Si Si3 0.724230 0.000764 0.169125
Si Si4 0.675144 0.073868 0.861439
Si Si5 0.380596 0.034042 0.894113
Si Si6 0.000000 0.000000 0.443462
Si Si7 0.000000 0.000000 0.727432
O O1 0.352038 0.269703 0.580038
O O2 0.367971 0.291910 0.407814
O O3 0.158790 0.080710 0.478650
O O4 0.385759 0.075495 0.476775
O O5 0.189380 0.618273 0.755219
O O6 0.172336 0.793764 0.668146
O O7 0.298325 0.925613 0.811391
O O8 0.625021 0.937538 0.255656
O O9 0.852169 0.973869 0.190977
O O10 0.548041 0.100138 0.885767
O O11 0.830863 0.189621 0.896007
O O12 0.000000 0.000000 0.335420
#
# Coordination Sequence:
#
# PCOD9577393 Si02
#       7
#     6   6   6   6   6   2   2
#     4  12  24  43  71 108 142 185 250 315 374 441
#     4  10  20  43  74 101 142 199 243 299 381 463
#     4  12  23  42  71 107 138 186 256 304 377 452
#     4  12  25  46  69 102 144 198 245 306 378 455
#     4  12  23  46  74 102 153 196 250 312 384 458
#     4  12  19  44  70 103 137 181 238 317 364 433
#     4  12  22  38  73 103 140 187 238 323 370 436
#
# _framework density 22.091508000000001
#
# number of rings (size 3 to 8) (size 9 to 14) (size 15 to 20)
#    0.353    0.000    7.059    2.471    0.000    0.000 
#    7.412    0.000    0.000    0.000    0.000    0.000 
#    0.000    0.000    0.000    0.000    0.000    0.000 
#
# Total GULP energy -189311.262989 kJ/mol
# GULP energy per Si atom -5567.978323 kJ/mol
# Density = 2.204123 g / cm^3
# Si number density = 22.091508 Si / 1000 Ang^3
#
#
#
# Elastic Constant Matrix: (Units=GPa)
#
#
# Indices 1 2 3 4 5 6 
#
# 1 75.6782 27.1426 25.6554 0.0000 -18.1710 0.0000
# 2 27.1426 75.6782 25.6554 0.0000 18.1710 0.0000
# 3 25.6554 25.6554 107.9738 0.0000 0.0000 0.0000
# 4 0.0000 0.0000 0.0000 -17.8391 0.0000 18.1710
# 5 -18.1710 18.1710 0.0000 0.0000 -17.8391 0.0000
# 6 0.0000 0.0000 0.0000 18.1710 0.0000 24.2678
#
#
#
# Elastic Compliance Matrix: (Units=1/GPa)
#
#
# Indices 1 2 3 4 5 6 
#
# 1 0.011361 -0.000327 -0.002622 0.000000 -0.011906 0.000000
# 2 -0.000327 0.011361 -0.002622 0.000000 0.011906 0.000000
# 3 -0.002622 -0.002622 0.010507 0.000000 0.000000 0.000000
# 4 0.000000 0.000000 0.000000 -0.031801 0.000000 0.023812
# 5 -0.011906 0.011906 0.000000 0.000000 -0.031801 0.000000
# 6 0.000000 0.000000 0.000000 0.023812 0.000000 0.023377
#
#
# Mechanical properties :
#
#
# Convention : Reuss Voigt Hill
#
# Bulk Modulus (GPa) = 45.27270 46.24854 45.76062
# Shear Modulus (GPa) = 434.45935 9.77635 222.11785
#
# Velocity S-wave (km/s) = 14.03889 2.10594 10.03806
# Velocity P-wave (km/s) = 16.83226 5.18592 12.45429
#
# Compressibility (1/GPa) = 0.02208837
#
# Stress axis : x y z
#
# Youngs Moduli (GPa) = 88.01824 88.01824 95.17104
#
# Poissons Ratio (x) = 0.02881 0.24952
# Poissons Ratio (y) = 0.02881 0.24952
# Poissons Ratio (z) = 0.23076 0.23076
#
# Static dielectric constant tensor:
#      x y z
#    x 1.822500 0.000000 0.000000 
#    y 0.000000 1.822500 0.000000 
#    z 0.000000 0.000000 1.902800 
# 
# From -- ./inp_files/918.got.cif
#   From: 2010.05.17/outbox.cif.g08.bks.cpg/sg159_cif.got.tgz:918.got - 2010.05.20 10:50:30.
