data_PCOD9577834
_publ_section_title
;
Structure prediction by ZEFSAII (Michael W. Deem and Ramdas Pophale) SiO2 
 PCOD9577834
Probable space group: P -3 1 M 
;
_chemical_formula_sum "Si O2"
_cell_formula_units_Z 84
_cell_length_a 19.556631
_cell_length_b 19.556631
_cell_length_c 13.772419
_cell_angle_alpha 90.000000
_cell_angle_beta 90.000000
_cell_angle_gamma 120.000000
_cell_volume 4561.723328
_symmetry_space_group_name_H-M "P -3 1 M "
_symmetry_group_IT_number 162
_symmetry_cell_setting 'hexagonal'
loop_
_space_group_symop_operation_xyz
x,y,z
-y,x-y,z
-x+y,-x,z
-y,-x,-z
-x+y,y,-z
x,x-y,-z
-x,-y,-z
y,-x+y,-z
x-y,x,-z
y,x,z
x-y,-y,z
-x,-x+y,z
loop_
_atom_site_type_symbol
_atom_site_label
_atom_site_fract_x
_atom_site_fract_y
_atom_site_fract_z
Si Si1 0.822216 0.514333 0.139283
Si Si2 0.239265 0.333046 0.459239
Si Si3 0.465492 0.148055 0.080761
Si Si4 0.090020 0.558652 0.760761
Si Si5 0.521332 0.616395 0.448021
Si Si6 0.091921 0.776786 0.229798
Si Si7 0.718610 0.907435 0.908964
O O1 0.733236 0.499055 0.132472
O O2 0.846615 0.468311 0.215016
O O3 0.877609 0.605627 0.167481
O O4 0.841617 0.503112 0.028695
O O5 0.152333 0.304666 0.500000
O O6 0.275897 0.275897 0.480516
O O7 0.299153 0.418994 0.505749
O O8 0.234904 0.337646 0.342870
O O9 0.484374 0.093285 0.146324
O O10 0.371920 0.114083 0.075966
O O11 0.110427 0.613163 0.665877
O O12 0.000000 0.486035 0.747265
O O13 0.437239 0.562762 0.500000
O O14 0.568902 0.568902 0.460319
O O15 0.143632 0.865019 0.189782
O O16 0.000000 0.743075 0.211788
O O17 0.773833 0.000000 0.905496
O O18 0.738659 0.869330 0.000000
#
# Coordination Sequence:
#
# PCOD9577834 Si02
#       7
#    12  12  12  12  12  12  12
#     4  10  20  36  55  78 115 153 194 232 285 355
#     4  10  22  38  61  89 119 155 199 252 306 365
#     4  10  21  37  52  82 117 154 194 236 290 345
#     4  11  22  34  58  86 112 149 196 246 295 342
#     4   9  19  37  57  83 116 150 192 242 301 355
#     4  10  20  36  58  83 112 151 194 236 294 354
#     4  11  21  35  58  85 119 155 192 238 290 348
#
# _framework density 18.414093999999999
#
# number of rings (size 3 to 8) (size 9 to 14) (size 15 to 20)
#    0.000    1.857    2.857    2.571    4.000    5.143 
#    0.857    0.000    0.000    3.000    0.000    0.000 
#    0.000    0.000    0.000    0.000    0.000    0.000 
#
# Total GULP energy -468557.424685 kJ/mol
# GULP energy per Si atom -5578.064580 kJ/mol
# Density = 1.837218 g / cm^3
# Si number density = 18.414094 Si / 1000 Ang^3
#
#
#
# Elastic Constant Matrix: (Units=GPa)
#
#
# Indices 1 2 3 4 5 6 
#
# 1 75.7853 31.3802 28.5204 0.0000 1.2885 0.0000
# 2 31.3802 75.7853 28.5204 0.0000 -1.2885 0.0000
# 3 28.5204 28.5204 56.0569 0.0000 0.0000 0.0000
# 4 0.0000 0.0000 0.0000 27.8082 0.0000 -1.2885
# 5 1.2885 -1.2885 0.0000 0.0000 27.8082 0.0000
# 6 0.0000 0.0000 0.0000 -1.2885 0.0000 22.2025
#
#
#
# Elastic Compliance Matrix: (Units=1/GPa)
#
#
# Indices 1 2 3 4 5 6 
#
# 1 0.017689 -0.004892 -0.006511 0.000000 -0.001046 0.000000
# 2 -0.004892 0.017689 -0.006511 0.000000 0.001046 0.000000
# 3 -0.006511 -0.006511 0.024464 0.000000 0.000000 0.000000
# 4 0.000000 0.000000 0.000000 0.036058 0.000000 0.002092
# 5 -0.001046 0.001046 0.000000 0.000000 0.036058 0.000000
# 6 0.000000 0.000000 0.000000 0.002092 0.000000 0.045161
#
#
# Mechanical properties :
#
#
# Convention : Reuss Voigt Hill
#
# Bulk Modulus (GPa) = 41.64102 42.71883 42.17992
# Shear Modulus (GPa) = 22.62961 23.51089 23.07025
#
# Velocity S-wave (km/s) = 3.50941 3.57709 3.54341
# Velocity P-wave (km/s) = 6.25172 6.34903 6.30056
#
# Compressibility (1/GPa) = 0.02401478
#
# Stress axis : x y z
#
# Youngs Moduli (GPa) = 56.53314 56.53314 40.87642
#
# Poissons Ratio (x) = 0.27656 0.26613
# Poissons Ratio (y) = 0.27656 0.26613
# Poissons Ratio (z) = 0.36807 0.36807
#
# Static dielectric constant tensor:
#      x y z
#    x 1.638820 0.000000 0.000000 
#    y 0.000000 1.638820 0.000000 
#    z 0.000000 0.000000 1.644160 
# 
# From -- ./inp_files/3174.got.cif
#   From: 2010.05.17/outbox.cif.g08.bks.cpg/sg162_2_cif.got.tgz:3174.got - 2010.05.20 10:53:12.
