data_PCOD9577435
_publ_section_title
;
Structure prediction by ZEFSAII (Michael W. Deem and Ramdas Pophale) SiO2 
 PCOD9577435
Probable space group: P 3 1 C
;
_chemical_formula_sum "Si O2"
_cell_formula_units_Z 36
_cell_length_a 11.327742
_cell_length_b 11.327742
_cell_length_c 15.247705
_cell_angle_alpha 90.000000
_cell_angle_beta 90.000000
_cell_angle_gamma 120.000000
_cell_volume 1694.422894
_symmetry_space_group_name_H-M "P 3 1 C"
_symmetry_group_IT_number 159
_symmetry_cell_setting 'hexagonal'
loop_
_space_group_symop_operation_xyz
x,y,z
-y,x-y,z
-x+y,-x,z
y,x,1/2+z
x-y,-y,1/2+z
-x,-x+y,1/2+z
loop_
_atom_site_type_symbol
_atom_site_label
_atom_site_fract_x
_atom_site_fract_y
_atom_site_fract_z
Si Si1 0.571503 0.603358 0.968000
Si Si2 0.000000 0.845843 0.570737
Si Si3 0.269308 0.363248 0.922341
Si Si4 0.325180 0.817562 0.320737
Si Si5 0.571503 0.603358 0.673474
Si Si6 0.269308 0.363248 0.719133
O O1 0.417464 0.488773 0.944156
O O2 0.593604 0.750191 0.943293
O O3 0.666527 0.568798 0.906656
O O4 0.593897 0.593897 0.070737
O O5 0.996596 0.762753 0.485866
O O6 0.003404 0.766157 0.655608
O O7 0.872932 0.872932 0.570737
O O8 0.258903 0.326226 0.820737
O O9 0.204113 0.661580 0.320737
O O10 0.333473 0.902271 0.234818
O O11 0.417464 0.488773 0.697317
O O12 0.593604 0.750191 0.698181
#
# Coordination Sequence:
#
# PCOD9577435 Si02
#       6
#     6   6   6   6   6   6
#     4  12  26  45  74 106 140 183 234 303 355 429
#     4  10  26  48  64 102 142 190 242 280 346 432
#     4  12  24  46  74 106 142 184 238 296 361 422
#     4  10  26  46  68 104 142 184 234 282 358 430
#     4  12  26  45  74 106 140 183 234 303 355 429
#     4  12  24  46  74 106 142 184 238 296 361 422
#
# _framework density 21.246169999999999
#
# number of rings (size 3 to 8) (size 9 to 14) (size 15 to 20)
#    0.667    0.000    5.000    1.667    4.667    4.000 
#    0.000    0.000    0.000    0.000    0.000    0.000 
#    0.000    0.000    0.000    0.000    0.000    0.000 
#
# Total GULP energy -201505.691204 kJ/mol
# GULP energy per Si atom -5597.380311 kJ/mol
# Density = 2.119781 g / cm^3
# Si number density = 21.246170 Si / 1000 Ang^3
#
#
#
# Elastic Constant Matrix: (Units=GPa)
#
#
# Indices 1 2 3 4 5 6 
#
# 1 102.7537 19.0962 49.6694 0.0000 0.0000 0.0000
# 2 19.0962 102.7537 49.6694 0.0000 0.0000 0.0000
# 3 49.6694 49.6694 237.4835 0.0000 0.0000 0.0000
# 4 0.0000 0.0000 0.0000 16.9837 0.0000 0.0000
# 5 0.0000 0.0000 0.0000 0.0000 16.9837 0.0000
# 6 0.0000 0.0000 0.0000 0.0000 0.0000 41.8288
#
#
#
# Elastic Compliance Matrix: (Units=1/GPa)
#
#
# Indices 1 2 3 4 5 6 
#
# 1 0.010924 -0.001030 -0.002069 0.000000 0.000000 0.000000
# 2 -0.001030 0.010924 -0.002069 0.000000 0.000000 0.000000
# 3 -0.002069 -0.002069 0.005076 0.000000 0.000000 0.000000
# 4 0.000000 0.000000 0.000000 0.058880 0.000000 0.000000
# 5 0.000000 0.000000 0.000000 0.000000 0.058880 0.000000
# 6 0.000000 0.000000 0.000000 0.000000 0.000000 0.023907
#
#
# Mechanical properties :
#
#
# Convention : Reuss Voigt Hill
#
# Bulk Modulus (GPa) = 60.28855 75.54012 67.91433
# Shear Modulus (GPa) = 27.10669 36.79630 31.95149
#
# Velocity S-wave (km/s) = 3.57576 4.16613 3.88218
# Velocity P-wave (km/s) = 6.74432 7.66642 7.22011
#
# Compressibility (1/GPa) = 0.01658690
#
# Stress axis : x y z
#
# Youngs Moduli (GPa) = 91.54445 91.54445 196.99024
#
# Poissons Ratio (x) = 0.09428 0.40763
# Poissons Ratio (y) = 0.09428 0.40763
# Poissons Ratio (z) = 0.18943 0.18943
#
# Static dielectric constant tensor:
#      x y z
#    x 1.758730 0.000000 0.000000 
#    y 0.000000 1.758730 0.000000 
#    z 0.000000 0.000000 1.713700 
# 
# From -- ./inp_files/888.got.cif
#   From: 2010.05.17/outbox.cif.g08.bks.cpg/sg159_cif.got.tgz:888.got - 2010.05.20 10:50:30.
