data_PCOD9577625
_publ_section_title
;
Structure prediction by ZEFSAII (Michael W. Deem and Ramdas Pophale) SiO2 
 PCOD9577625
Probable space group: R 3 C
;
_chemical_formula_sum "Si O2"
_cell_formula_units_Z 66
_cell_length_a 13.835627
_cell_length_b 13.835627
_cell_length_c 18.071514
_cell_angle_alpha 90.000000
_cell_angle_beta 90.000000
_cell_angle_gamma 120.000000
_cell_volume 2995.869286
_symmetry_space_group_name_H-M "R 3 C"
_symmetry_group_IT_number 161
_symmetry_cell_setting 'hexagonal'
loop_
_space_group_symop_operation_xyz
x,y,z
-y,x-y,z
-x+y,-x,z
-x+y,y,1/2+z
x,x-y,1/2+z
-y,-x,1/2+z
2/3+x,1/3+y,1/3+z
2/3-y,1/3+x-y,1/3+z
2/3-x+y,1/3-x,1/3+z
2/3-x+y,1/3+y,5/6+z
2/3+x,1/3+x-y,5/6+z
2/3-y,1/3-x,5/6+z
1/3+x,2/3+y,2/3+z
1/3-y,2/3+x-y,2/3+z
1/3-x+y,2/3-x,2/3+z
1/3-x+y,2/3+y,1/6+z
1/3+x,2/3+x-y,1/6+z
1/3-y,2/3-x,1/6+z
loop_
_atom_site_type_symbol
_atom_site_label
_atom_site_fract_x
_atom_site_fract_y
_atom_site_fract_z
Si Si1 0.666655 0.649474 0.276872
Si Si2 0.000000 0.000000 0.281274
Si Si3 0.333334 0.666668 0.272455
Si Si4 0.410816 0.533588 0.541258
Si Si5 0.589188 0.466422 0.845808
O O1 0.723135 0.746381 0.337267
O O2 0.755937 0.623620 0.238212
O O3 0.577369 0.534355 0.315546
O O4 0.610176 0.689875 0.216460
O O5 0.000000 0.000000 0.193531
O O6 0.074925 0.123693 0.314517
O O7 0.258415 0.715442 0.239212
O O8 0.333318 0.524810 0.610192
#
# Coordination Sequence:
#
# PCOD9577625 Si02
#       5
#    18   6   6  18  18
#     4  12  30  44  84 110 158 202 266 320 388 474
#     4  12  28  47  79 111 157 209 262 330 388 470
#     4  12  28  47  79 111 157 209 262 330 388 470
#     4  12  27  52  75 113 156 209 257 324 399 461
#     4  12  27  52  75 113 156 209 257 324 399 461
#
# _framework density 22.030334
#
# number of rings (size 3 to 8) (size 9 to 14) (size 15 to 20)
#    0.000    0.000    5.455    1.636   11.455    0.000 
#    0.000    0.000    0.000    0.000    0.000    0.000 
#    0.000    0.000    0.000    0.000    0.000    0.000 
#
# Total GULP energy -123368.370227 kJ/mol
# GULP energy per Si atom -5607.653192 kJ/mol
# Density = 2.198019 g / cm^3
# Si number density = 22.030334 Si / 1000 Ang^3
#
#
#
# Elastic Constant Matrix: (Units=GPa)
#
#
# Indices 1 2 3 4 5 6 
#
# 1 143.0394 56.5664 65.4609 -22.7639 0.0000 0.0000
# 2 56.5664 143.0387 65.4611 22.7638 0.0000 0.0000
# 3 65.4609 65.4611 175.3300 -0.0003 0.0000 0.0000
# 4 -22.7639 22.7638 -0.0003 20.7857 0.0000 0.0000
# 5 0.0000 0.0000 0.0000 0.0000 20.7859 -22.7639
# 6 0.0000 0.0000 0.0000 0.0000 -22.7639 43.2365
#
#
#
# Elastic Compliance Matrix: (Units=1/GPa)
#
#
# Indices 1 2 3 4 5 6 
#
# 1 0.016974 -0.010339 -0.002477 0.029912 0.000000 0.000000
# 2 -0.010339 0.016974 -0.002477 -0.029913 0.000000 0.000000
# 3 -0.002477 -0.002477 0.007553 0.000000 0.000000 0.000000
# 4 0.029912 -0.029913 0.000000 0.113629 0.000000 0.000000
# 5 0.000000 0.000000 0.000000 0.000000 0.113627 0.059825
# 6 0.000000 0.000000 0.000000 0.000000 0.059825 0.054626
#
#
# Mechanical properties :
#
#
# Convention : Reuss Voigt Hill
#
# Bulk Modulus (GPa) = 91.62473 92.93165 92.27819
# Shear Modulus (GPa) = 13.98178 35.22293 24.60235
#
# Velocity S-wave (km/s) = 2.52198 4.00288 3.34540
# Velocity P-wave (km/s) = 7.08245 7.97742 7.54322
#
# Compressibility (1/GPa) = 0.01091408
#
# Stress axis : x y z
#
# Youngs Moduli (GPa) = 58.91420 58.91336 132.39388
#
# Poissons Ratio (x) = 0.60913 0.32794
# Poissons Ratio (y) = 0.60913 0.32797
# Poissons Ratio (z) = 0.14593 0.14594
#
# Static dielectric constant tensor:
#      x y z
#    x 1.803780 0.000000 0.000000 
#    y 0.000000 1.803780 0.000000 
#    z 0.000000 0.000000 1.788330 
# 
# From -- ./inp_files/1210.got.cif
#   From: 2010.05.17/outbox.cif.g08.bks.cpg/sg161_cif.got.tgz:1210.got - 2010.05.20 10:52:32.
