data_PCOD9577406
_publ_section_title
;
Structure prediction by ZEFSAII (Michael W. Deem and Ramdas Pophale) SiO2 
 PCOD9577406
Probable space group: P 3 1 C
;
_chemical_formula_sum "Si O2"
_cell_formula_units_Z 42
_cell_length_a 8.570261
_cell_length_b 8.570261
_cell_length_c 33.027920
_cell_angle_alpha 90.000000
_cell_angle_beta 90.000000
_cell_angle_gamma 120.000000
_cell_volume 2100.873737
_symmetry_space_group_name_H-M "P 3 1 C"
_symmetry_group_IT_number 159
_symmetry_cell_setting 'hexagonal'
loop_
_space_group_symop_operation_xyz
x,y,z
-y,x-y,z
-x+y,-x,z
y,x,1/2+z
x-y,-y,1/2+z
-x,-x+y,1/2+z
loop_
_atom_site_type_symbol
_atom_site_label
_atom_site_fract_x
_atom_site_fract_y
_atom_site_fract_z
Si Si1 0.669088 0.672662 0.588170
Si Si2 0.662160 0.000112 0.719161
Si Si3 0.328484 0.998908 0.253541
Si Si4 0.688872 0.549882 0.000239
Si Si5 0.972754 0.190930 0.920552
Si Si6 0.002132 0.664704 0.122536
Si Si7 0.549076 0.686635 0.341002
O O1 0.656646 0.692739 0.540217
O O2 0.471359 0.529900 0.604058
O O3 0.805706 0.610043 0.603549
O O4 0.725913 0.862385 0.608696
O O5 0.469316 0.941601 0.738315
O O6 0.723918 0.864238 0.736223
O O7 0.655710 0.002337 0.670837
O O8 0.804713 0.197905 0.734293
O O9 0.311437 0.969482 0.301599
O O10 0.508815 0.351890 0.000772
O O11 0.716748 0.665536 0.960341
O O12 0.947883 0.285874 0.881342
O O13 0.155011 0.178376 0.920300
O O14 0.492112 0.842186 0.339881
#
# Coordination Sequence:
#
# PCOD9577406 Si02
#       7
#     6   6   6   6   6   6   6
#     4  12  25  43  67  99 133 186 233 289 350 416
#     4  12  24  42  64  95 136 179 235 293 351 409
#     4  12  25  43  67  99 133 186 233 289 350 416
#     4  10  21  44  68  93 132 181 219 265 348 406
#     4  10  24  36  68 106 126 166 218 278 322 410
#     4  12  24  42  64  95 136 179 235 293 351 409
#     4  10  21  44  68  93 132 181 219 265 348 406
#
# _framework density 19.991682999999998
#
# number of rings (size 3 to 8) (size 9 to 14) (size 15 to 20)
#    0.857    0.000    2.857    5.143    4.000    0.000 
#    0.000    0.000    0.000    4.571    0.000    0.000 
#    0.000    0.000    0.000    0.000    0.000    0.000 
#
# Total GULP energy -234567.910026 kJ/mol
# GULP energy per Si atom -5584.950239 kJ/mol
# Density = 1.994618 g / cm^3
# Si number density = 19.991683 Si / 1000 Ang^3
#
#
#
# Elastic Constant Matrix: (Units=GPa)
#
#
# Indices 1 2 3 4 5 6 
#
# 1 62.4821 3.3101 38.4566 0.0000 22.7015 0.0000
# 2 3.3101 62.4821 38.4566 0.0000 -22.7015 0.0000
# 3 38.4566 38.4566 232.0969 0.0000 0.0000 0.0000
# 4 0.0000 0.0000 0.0000 -6.2739 0.0000 -22.7015
# 5 22.7015 -22.7015 0.0000 0.0000 -6.2739 0.0000
# 6 0.0000 0.0000 0.0000 -22.7015 0.0000 29.5860
#
#
#
# Elastic Compliance Matrix: (Units=1/GPa)
#
#
# Indices 1 2 3 4 5 6 
#
# 1 0.011663 0.007188 -0.003123 0.000000 0.016193 0.000000
# 2 0.007188 0.011663 -0.003123 0.000000 -0.016193 0.000000
# 3 -0.003123 -0.003123 0.005344 0.000000 0.000000 0.000000
# 4 0.000000 0.000000 0.000000 -0.042207 0.000000 -0.032386
# 5 0.016193 -0.016193 0.000000 0.000000 -0.042207 0.000000
# 6 0.000000 0.000000 0.000000 -0.032386 0.000000 0.008950
#
#
# Mechanical properties :
#
#
# Convention : Reuss Voigt Hill
#
# Bulk Modulus (GPa) = 32.73171 57.50087 45.11629
# Shear Modulus (GPa) = -129.89628 21.86349 -54.01639
#
# Velocity S-wave (km/s) = -8.06946 3.31059 -5.20366
# Velocity P-wave (km/s) = 8.39127 6.59077 3.67255
#
# Compressibility (1/GPa) = 0.03055142
#
# Stress axis : x y z
#
# Youngs Moduli (GPa) = 85.74178 85.74178 187.13990
#
# Poissons Ratio (x) = -0.61630 0.58452
# Poissons Ratio (y) = -0.61630 0.58452
# Poissons Ratio (z) = 0.26781 0.26781
#
# Static dielectric constant tensor:
#      x y z
#    x 2.612040 0.000000 0.000000 
#    y 0.000000 2.612040 0.000000 
#    z 0.000000 0.000000 1.672130 
# 
# From -- ./inp_files/1309.got.cif
#   From: 2010.05.17/outbox.cif.g08.bks.cpg/sg159_cif.got.tgz:1309.got - 2010.05.20 10:50:30.
