data_PCOD9577956
_publ_section_title
;
Structure prediction by ZEFSAII (Michael W. Deem and Ramdas Pophale) SiO2 
 PCOD9577956
Probable space group: P -3 1 M 
;
_chemical_formula_sum "Si O2"
_cell_formula_units_Z 60
_cell_length_a 13.983378
_cell_length_b 13.983378
_cell_length_c 15.000130
_cell_angle_alpha 90.000000
_cell_angle_beta 90.000000
_cell_angle_gamma 120.000000
_cell_volume 2540.094359
_symmetry_space_group_name_H-M "P -3 1 M "
_symmetry_group_IT_number 162
_symmetry_cell_setting 'hexagonal'
loop_
_space_group_symop_operation_xyz
x,y,z
-y,x-y,z
-x+y,-x,z
-y,-x,-z
-x+y,y,-z
x,x-y,-z
-x,-y,-z
y,-x+y,-z
x-y,x,-z
y,x,z
x-y,-y,z
-x,-x+y,z
loop_
_atom_site_type_symbol
_atom_site_label
_atom_site_fract_x
_atom_site_fract_y
_atom_site_fract_z
Si Si1 0.871158 0.186928 0.707869
Si Si2 0.534293 0.135950 0.903209
Si Si3 0.302958 0.873574 0.433408
Si Si4 0.580795 0.451849 0.711864
Si Si5 0.815560 0.129367 0.100063
O O1 0.785255 0.119675 0.631851
O O2 0.866743 0.301894 0.708584
O O3 0.831430 0.126817 0.804273
O O4 0.000000 0.225407 0.691050
O O5 0.598837 0.173996 0.809761
O O6 0.442009 0.171024 0.903216
O O7 0.471528 0.000000 0.902152
O O8 0.585409 0.170817 0.000000
O O9 0.223807 0.776194 0.500000
O O10 0.373343 0.833109 0.373708
O O11 0.383400 0.000000 0.469741
O O12 0.490210 0.490210 0.713690
O O13 0.744756 0.000000 0.116311
O O14 0.860714 0.139287 0.000000
#
# Coordination Sequence:
#
# PCOD9577956 Si02
#       5
#    12  12  12  12  12
#     4   9  19  38  58  80 119 159 198 246 296 357
#     4   8  14  26  47  74 106 141 180 224 273 333
#     4  11  23  38  61  90 116 149 200 252 305 362
#     4   8  17  34  54  80 112 150 191 237 292 352
#     4   9  18  30  49  79 112 150 195 240 283 335
#
# _framework density 23.621168000000001
#
# number of rings (size 3 to 8) (size 9 to 14) (size 15 to 20)
#    0.000    3.000    0.000    3.000    2.800    1.600 
#    1.200    3.000    0.000    4.200    0.000    0.000 
#    0.000    0.000    0.000    0.000    0.000    1.600 
#
# Total GULP energy -334203.618763 kJ/mol
# GULP energy per Si atom -5570.060313 kJ/mol
# Density = 2.356741 g / cm^3
# Si number density = 23.621168 Si / 1000 Ang^3
#
#
#
# Elastic Constant Matrix: (Units=GPa)
#
#
# Indices 1 2 3 4 5 6 
#
# 1 69.5389 31.3015 37.4462 -0.0002 -6.2433 0.0000
# 2 31.3015 69.5389 37.4462 0.0002 6.2433 0.0000
# 3 37.4462 37.4462 149.6846 0.0000 0.0000 0.0000
# 4 -0.0002 0.0002 0.0000 21.8152 0.0000 6.2433
# 5 -6.2433 6.2433 0.0000 0.0000 21.8152 -0.0002
# 6 0.0000 0.0000 0.0000 6.2433 -0.0002 19.1187
#
#
#
# Elastic Compliance Matrix: (Units=1/GPa)
#
#
# Indices 1 2 3 4 5 6 
#
# 1 0.020514 -0.008334 -0.003047 0.000000 0.008256 0.000000
# 2 -0.008334 0.020514 -0.003047 0.000000 -0.008256 0.000000
# 3 -0.003047 -0.003047 0.008205 0.000000 0.000000 0.000000
# 4 0.000000 0.000000 0.000000 0.050565 0.000000 -0.016512
# 5 0.008256 -0.008256 0.000000 0.000000 0.050565 0.000001
# 6 0.000000 0.000000 0.000000 -0.016512 0.000001 0.057697
#
#
# Mechanical properties :
#
#
# Convention : Reuss Voigt Hill
#
# Bulk Modulus (GPa) = 49.07586 55.68333 52.37959
# Shear Modulus (GPa) = 20.51618 24.72104 22.61861
#
# Velocity S-wave (km/s) = 2.95032 3.23857 3.09780
# Velocity P-wave (km/s) = 5.69448 6.13263 5.91761
#
# Compressibility (1/GPa) = 0.02037662
#
# Stress axis : x y z
#
# Youngs Moduli (GPa) = 48.74706 48.74706 121.87399
#
# Poissons Ratio (x) = 0.40628 0.37134
# Poissons Ratio (y) = 0.40628 0.37134
# Poissons Ratio (z) = 0.14853 0.14853
#
# Static dielectric constant tensor:
#      x y z
#    x 1.903820 0.000000 0.000000 
#    y 0.000000 1.903820 0.000000 
#    z 0.000000 0.000000 2.045760 
# 
# From -- ./inp_files/2936.got.cif
#   From: 2010.05.17/outbox.cif.g08.bks.cpg/sg162_2_cif.got.tgz:2936.got - 2010.05.20 10:53:12.
