data_PCOD9577109
_publ_section_title
;
Structure prediction by ZEFSAII (Michael W. Deem and Ramdas Pophale) SiO2 
 PCOD9577109
Probable space group: R 3 2
;
_chemical_formula_sum "Si O2"
_cell_formula_units_Z 144
_cell_length_a 32.950165
_cell_length_b 32.950165
_cell_length_c 8.859921
_cell_angle_alpha 90.000000
_cell_angle_beta 90.000000
_cell_angle_gamma 120.000000
_cell_volume 8330.588233
_symmetry_space_group_name_H-M "R 3 2"
_symmetry_group_IT_number 155
_symmetry_cell_setting 'hexagonal'
loop_
_space_group_symop_operation_xyz
x,y,z
-y,x-y,z
-x+y,-x,z
x-y,-y,-z
-x,-x+y,-z
y,x,-z
2/3+x,1/3+y,1/3+z
2/3-y,1/3+x-y,1/3+z
2/3-x+y,1/3-x,1/3+z
2/3+x-y,1/3-y,1/3-z
2/3-x,1/3-x+y,1/3-z
2/3+y,1/3+x,1/3-z
1/3+x,2/3+y,2/3+z
1/3-y,2/3+x-y,2/3+z
1/3-x+y,2/3-x,2/3+z
1/3+x-y,2/3-y,2/3-z
1/3-x,2/3-x+y,2/3-z
1/3+y,2/3+x,2/3-z
loop_
_atom_site_type_symbol
_atom_site_label
_atom_site_fract_x
_atom_site_fract_y
_atom_site_fract_z
Si Si1 0.590562 0.522661 0.156095
Si Si2 0.144006 0.742753 0.989485
Si Si3 0.502491 0.445653 0.992126
Si Si4 0.713755 0.670500 0.926744
Si Si5 0.116820 0.686940 0.495145
Si Si6 0.956743 0.670499 0.426739
Si Si7 0.943158 0.445660 0.492104
Si Si8 0.313065 0.883192 0.995123
O O1 0.592889 0.572855 0.167236
O O2 0.573816 0.501611 0.323065
O O3 0.552709 0.488959 0.035748
O O4 0.642886 0.536200 0.108207
O O5 0.165046 0.759495 0.156450
O O6 0.093815 0.740438 0.000566
O O7 0.130466 0.690432 0.941570
O O8 0.177715 0.780609 0.869137
O O9 0.466111 0.466111 0.000000
O O10 0.492798 0.403236 0.107256
O O11 0.666667 0.650817 0.833334
O O12 0.701464 0.624877 0.023043
O O13 0.716346 0.716346 0.000000
O O14 0.111500 0.666667 0.666667
O O15 0.076593 0.701461 0.477004
O O16 0.000000 0.716345 0.500000
O O17 0.984156 0.650823 0.333334
O O18 0.910437 0.403226 0.607199
O O19 0.000000 0.466132 0.500000
O O20 0.333334 0.888518 0.166667
#
# Coordination Sequence:
#
# PCOD9577109 Si02
#       8
#    18  18  18  18  18  18  18  18
#     4  12  25  39  59  79 111 156 190 253 305 360
#     4  12  25  39  59  79 111 156 190 253 305 360
#     4  12  25  40  55  82 114 146 197 247 305 359
#     4  11  21  33  53  78 111 137 197 242 299 346
#     4  11  24  39  58  80 109 148 189 247 303 358
#     4  11  21  33  53  78 111 137 197 242 299 346
#     4  12  25  40  55  82 114 146 197 247 305 359
#     4  11  24  39  58  80 109 148 189 247 303 358
#
# _framework density 17.285692999999998
#
# number of rings (size 3 to 8) (size 9 to 14) (size 15 to 20)
#    0.000    0.500    5.000    4.500    7.000    0.000 
#    0.000    0.000    0.000    0.000    0.000    0.000 
#    0.000    0.000    0.000    0.750    0.000   16.500 
#
# Total GULP energy -267565.579561 kJ/mol
# GULP energy per Si atom -5574.282908 kJ/mol
# Density = 1.724635 g / cm^3
# Si number density = 17.285693 Si / 1000 Ang^3
#
#
#
# Elastic Constant Matrix: (Units=GPa)
#
#
# Indices 1 2 3 4 5 6 
#
# 1 92.7018 42.0436 27.8048 -0.3269 -0.0293 -0.0079
# 2 42.0436 92.7168 27.8178 0.3152 -0.0036 -0.0008
# 3 27.8048 27.8178 62.3859 -0.0097 -0.0991 -0.0460
# 4 -0.3269 0.3152 -0.0097 31.8601 -0.0199 -0.0025
# 5 -0.0293 -0.0036 -0.0991 -0.0199 31.8111 -0.3363
# 6 -0.0079 -0.0008 -0.0460 -0.0025 -0.3363 25.3445
#
#
#
# Elastic Compliance Matrix: (Units=1/GPa)
#
#
# Indices 1 2 3 4 5 6 
#
# 1 0.014417 -0.005323 -0.004052 0.000199 0.000000 -0.000003
# 2 -0.005323 0.014417 -0.004056 -0.000198 -0.000016 -0.000009
# 3 -0.004052 -0.004056 0.019644 0.000005 0.000057 0.000035
# 4 0.000199 -0.000198 0.000005 0.031391 0.000020 0.000003
# 5 0.000000 -0.000016 0.000057 0.000020 0.031440 0.000417
# 6 -0.000003 -0.000009 0.000035 0.000003 0.000417 0.039462
#
#
# Mechanical properties :
#
#
# Convention : Reuss Voigt Hill
#
# Bulk Modulus (GPa) = 46.26212 49.23744 47.74978
# Shear Modulus (GPa) = 27.05051 27.81237 27.43144
#
# Velocity S-wave (km/s) = 3.96018 4.01556 3.98797
# Velocity P-wave (km/s) = 6.90884 7.07432 6.99207
#
# Compressibility (1/GPa) = 0.02161596
#
# Stress axis : x y z
#
# Youngs Moduli (GPa) = 69.36047 69.36347 50.90571
#
# Poissons Ratio (x) = 0.36919 0.20629
# Poissons Ratio (y) = 0.36918 0.20649
# Poissons Ratio (z) = 0.28107 0.28136
#
# Static dielectric constant tensor:
#      x y z
#    x 1.620240 -0.000010 -0.000060 
#    y -0.000010 1.620280 0.000020 
#    z -0.000060 0.000020 1.742570 
# 
# From -- ./inp_files/3080.got.cif
#   From: 2010.05.17/outbox.cif.g08.bks.cpg/sg155_2_cif.got.tgz:3080.got - 2010.05.20 10:44:35.
