data_PCOD9577018
_publ_section_title
;
Structure prediction by ZEFSAII (Michael W. Deem and Ramdas Pophale) SiO2 
 PCOD9577018
Probable space group: R 3 2
;
_chemical_formula_sum "Si O2"
_cell_formula_units_Z 93
_cell_length_a 14.139226
_cell_length_b 14.139226
_cell_length_c 25.784371
_cell_angle_alpha 90.000000
_cell_angle_beta 90.000000
_cell_angle_gamma 120.000000
_cell_volume 4464.146574
_symmetry_space_group_name_H-M "R 3 2"
_symmetry_group_IT_number 155
_symmetry_cell_setting 'hexagonal'
loop_
_space_group_symop_operation_xyz
x,y,z
-y,x-y,z
-x+y,-x,z
x-y,-y,-z
-x,-x+y,-z
y,x,-z
2/3+x,1/3+y,1/3+z
2/3-y,1/3+x-y,1/3+z
2/3-x+y,1/3-x,1/3+z
2/3+x-y,1/3-y,1/3-z
2/3-x,1/3-x+y,1/3-z
2/3+y,1/3+x,1/3-z
1/3+x,2/3+y,2/3+z
1/3-y,2/3+x-y,2/3+z
1/3-x+y,2/3-x,2/3+z
1/3+x-y,2/3-y,2/3-z
1/3-x,2/3-x+y,2/3-z
1/3+y,2/3+x,2/3-z
loop_
_atom_site_type_symbol
_atom_site_label
_atom_site_fract_x
_atom_site_fract_y
_atom_site_fract_z
Si Si1 0.000000 0.000000 0.143181
Si Si2 0.433879 0.270156 0.065800
Si Si3 0.372476 0.037098 0.107611
Si Si4 0.666667 0.106797 0.333334
Si Si5 0.666668 0.333334 0.602679
Si Si6 0.789870 0.865055 0.090724
Si Si7 0.777215 0.110866 0.811834
O O1 0.000000 0.000000 0.205397
O O2 0.987536 0.097943 0.118653
O O3 0.426152 0.159965 0.087807
O O4 0.558922 0.336043 0.046399
O O5 0.417555 0.338719 0.111240
O O6 0.339578 0.245754 0.024809
O O7 0.333334 0.033262 0.166667
O O8 0.452913 0.987313 0.111900
O O9 0.260512 0.970848 0.075950
O O10 0.723835 0.200086 0.376146
O O11 0.729760 0.891110 0.136466
O O12 0.666667 0.103200 0.833334
#
# Coordination Sequence:
#
# PCOD9577018 Si02
#       7
#     6  18  18   9   6  18  18
#     4  12  21  37  73 102 132 168 220 289 342 409
#     4  12  22  42  65  99 132 175 232 275 350 407
#     4  10  22  39  67 100 129 170 224 282 341 412
#     4  12  28  42  60  98 148 192 214 282 356 426
#     4  12  21  42  73 106 114 175 241 300 324 394
#     4  11  24  40  62 101 138 172 220 270 361 415
#     4  11  21  39  70  94 128 171 234 290 327 401
#
# _framework density 20.832649
#
# number of rings (size 3 to 8) (size 9 to 14) (size 15 to 20)
#    0.000    0.774    5.806    2.903    0.000    3.097 
#    3.484    0.000    0.000   10.452    0.000    0.000 
#    0.000    0.000    0.000    0.000    0.000    0.000 
#
# Total GULP energy -173110.667839 kJ/mol
# GULP energy per Si atom -5584.215092 kJ/mol
# Density = 2.078523 g / cm^3
# Si number density = 20.832649 Si / 1000 Ang^3
#
#
#
# Elastic Constant Matrix: (Units=GPa)
#
#
# Indices 1 2 3 4 5 6 
#
# 1 82.9842 20.3921 2.7534 8.5329 -0.0002 0.0000
# 2 20.3921 82.9844 2.7531 -8.5329 0.0002 0.0000
# 3 2.7534 2.7531 32.9474 -0.0001 0.0000 0.0000
# 4 8.5329 -8.5329 -0.0001 17.1860 0.0000 0.0002
# 5 -0.0002 0.0002 0.0000 0.0000 17.1858 8.5330
# 6 0.0000 0.0000 0.0000 0.0002 8.5330 31.2963
#
#
#
# Elastic Compliance Matrix: (Units=1/GPa)
#
#
# Indices 1 2 3 4 5 6 
#
# 1 0.014097 -0.004381 -0.000812 -0.009174 0.000000 0.000000
# 2 -0.004381 0.014097 -0.000812 0.009174 0.000000 0.000000
# 3 -0.000812 -0.000812 0.030487 0.000000 0.000000 0.000000
# 4 -0.009174 0.009174 0.000000 0.067297 0.000000 0.000000
# 5 0.000000 0.000000 0.000000 0.000000 0.067298 -0.018349
# 6 0.000000 0.000000 0.000000 0.000000 -0.018349 0.036956
#
#
# Mechanical properties :
#
#
# Convention : Reuss Voigt Hill
#
# Bulk Modulus (GPa) = 21.42589 27.85703 24.64146
# Shear Modulus (GPa) = 19.39497 24.66811 22.03154
#
# Velocity S-wave (km/s) = 3.05452 3.44482 3.25553
# Velocity P-wave (km/s) = 4.76941 5.40585 5.09757
#
# Compressibility (1/GPa) = 0.04667250
#
# Stress axis : x y z
#
# Youngs Moduli (GPa) = 70.93583 70.93611 32.80074
#
# Poissons Ratio (x) = 0.31074 0.02664
# Poissons Ratio (y) = 0.31074 0.02663
# Poissons Ratio (z) = 0.05760 0.05759
#
# Static dielectric constant tensor:
#      x y z
#    x 1.841930 0.000000 0.000000 
#    y 0.000000 1.841930 0.000000 
#    z 0.000000 0.000000 1.721390 
# 
# From -- ./inp_files/7923.got.cif
#   From: 2010.05.17/outbox.cif.g08.bks.cpg/sg155_4_cif.got.tgz:7923.got - 2010.05.20 10:44:35.
