data_PCOD9577419
_publ_section_title
;
Structure prediction by ZEFSAII (Michael W. Deem and Ramdas Pophale) SiO2 
 PCOD9577419
Probable space group: P 3 1 C
;
_chemical_formula_sum "Si O2"
_cell_formula_units_Z 30
_cell_length_a 10.097656
_cell_length_b 10.097656
_cell_length_c 15.107356
_cell_angle_alpha 90.000000
_cell_angle_beta 90.000000
_cell_angle_gamma 120.000000
_cell_volume 1334.013540
_symmetry_space_group_name_H-M "P 3 1 C"
_symmetry_group_IT_number 159
_symmetry_cell_setting 'hexagonal'
loop_
_space_group_symop_operation_xyz
x,y,z
-y,x-y,z
-x+y,-x,z
y,x,1/2+z
x-y,-y,1/2+z
-x,-x+y,1/2+z
loop_
_atom_site_type_symbol
_atom_site_label
_atom_site_fract_x
_atom_site_fract_y
_atom_site_fract_z
Si Si1 0.000000 0.497773 0.356790
Si Si2 0.058481 0.776033 0.948985
Si Si3 0.918737 0.271230 0.203521
Si Si4 0.223967 0.282449 0.264595
Si Si5 0.081263 0.352493 0.510059
O O1 0.900023 0.548982 0.416130
O O2 0.908192 0.363251 0.287135
O O3 0.099977 0.648959 0.297450
O O4 0.091808 0.455059 0.426445
O O5 0.000000 0.812967 0.856790
O O6 0.904860 0.692546 0.005654
O O7 0.195670 0.920770 0.994179
O O8 0.918360 0.335756 0.106790
O O9 0.079230 0.274899 0.219401
O O10 0.787686 0.095140 0.207926
#
# Coordination Sequence:
#
# PCOD9577419 Si02
#       5
#     6   6   6   6   6
#     4  10  22  42  60  90 142 174 198 248 328 394
#     4  10  22  43  72  91 132 165 217 266 333 378
#     4  12  23  43  71 102 126 164 222 279 323 379
#     4  10  22  43  72  91 132 165 217 266 333 378
#     4  12  23  43  71 102 126 164 222 279 323 379
#
# _framework density 22.488527000000001
#
# number of rings (size 3 to 8) (size 9 to 14) (size 15 to 20)
#    1.200    0.000    4.000    2.000    0.000    3.200 
#   19.200    0.000    0.000    0.000    0.000    0.000 
#    0.000    0.000    0.000    0.000    0.000    0.000 
#
# Total GULP energy -167373.869606 kJ/mol
# GULP energy per Si atom -5579.128987 kJ/mol
# Density = 2.243734 g / cm^3
# Si number density = 22.488527 Si / 1000 Ang^3
#
#
#
# Elastic Constant Matrix: (Units=GPa)
#
#
# Indices 1 2 3 4 5 6 
#
# 1 85.2681 41.5785 32.2401 0.0000 0.0000 0.0000
# 2 41.5785 85.2681 32.2401 0.0000 0.0000 0.0000
# 3 32.2401 32.2401 149.8564 0.0000 0.0000 0.0000
# 4 0.0000 0.0000 0.0000 0.0618 0.0000 0.0000
# 5 0.0000 0.0000 0.0000 0.0000 0.0618 0.0000
# 6 0.0000 0.0000 0.0000 0.0000 0.0000 21.8448
#
#
#
# Elastic Compliance Matrix: (Units=1/GPa)
#
#
# Indices 1 2 3 4 5 6 
#
# 1 0.015870 -0.007019 -0.001904 0.000000 0.000000 0.000000
# 2 -0.007019 0.015870 -0.001904 0.000000 0.000000 0.000000
# 3 -0.001904 -0.001904 0.007492 0.000000 0.000000 0.000000
# 4 0.000000 0.000000 0.000000 16.171353 0.000003 0.000000
# 5 0.000000 0.000000 0.000000 0.000003 16.171349 0.000000
# 6 0.000000 0.000000 0.000000 0.000000 0.000000 0.045777
#
#
# Mechanical properties :
#
#
# Convention : Reuss Voigt Hill
#
# Bulk Modulus (GPa) = 56.88838 59.16778 58.02808
# Shear Modulus (GPa) = 0.15406 18.68263 9.41834
#
# Velocity S-wave (km/s) = 0.26202 2.88542 2.04870
# Velocity P-wave (km/s) = 5.04411 6.12113 5.60853
#
# Compressibility (1/GPa) = 0.01757828
#
# Stress axis : x y z
#
# Youngs Moduli (GPa) = 63.01139 63.01139 133.46770
#
# Poissons Ratio (x) = 0.44225 0.25417
# Poissons Ratio (y) = 0.44225 0.25417
# Poissons Ratio (z) = 0.11999 0.11999
#
# Static dielectric constant tensor:
#      x y z
#    x 1.846420 0.000000 0.000000 
#    y 0.000000 1.846420 0.000000 
#    z 0.000000 0.000000 1.872340 
# 
# From -- ./inp_files/835.got.cif
#   From: 2010.05.17/outbox.cif.g08.bks.cpg/sg159_cif.got.tgz:835.got - 2010.05.20 10:50:30.
