data_PCOD9577818
_publ_section_title
;
Structure prediction by ZEFSAII (Michael W. Deem and Ramdas Pophale) SiO2 
 PCOD9577818
Probable space group: P -3 1 M 
;
_chemical_formula_sum "Si O2"
_cell_formula_units_Z 68
_cell_length_a 13.142218
_cell_length_b 13.142218
_cell_length_c 26.295077
_cell_angle_alpha 90.000000
_cell_angle_beta 90.000000
_cell_angle_gamma 120.000000
_cell_volume 3933.167233
_symmetry_space_group_name_H-M "P -3 1 M "
_symmetry_group_IT_number 162
_symmetry_cell_setting 'hexagonal'
loop_
_space_group_symop_operation_xyz
x,y,z
-y,x-y,z
-x+y,-x,z
-y,-x,-z
-x+y,y,-z
x,x-y,-z
-x,-y,-z
y,-x+y,-z
x-y,x,-z
y,x,z
x-y,-y,z
-x,-x+y,z
loop_
_atom_site_type_symbol
_atom_site_label
_atom_site_fract_x
_atom_site_fract_y
_atom_site_fract_z
Si Si1 0.333333 0.666667 0.795106
Si Si2 0.137024 0.431342 0.954129
Si Si3 0.863055 0.136716 0.139018
Si Si4 0.582862 0.720225 0.237147
Si Si5 0.333334 0.666668 0.917316
Si Si6 0.717777 0.858702 0.666628
Si Si7 0.719050 0.859609 0.554590
O O1 0.335705 0.553216 0.774826
O O2 0.333334 0.666667 0.856455
O O3 0.144736 0.360576 0.905505
O O4 0.207472 0.568101 0.938555
O O5 0.000000 0.380465 0.965739
O O6 0.206553 0.413106 0.000000
O O7 0.848694 0.194890 0.190123
O O8 0.000000 0.206103 0.124719
O O9 0.818242 0.000000 0.147798
O O10 0.623643 0.623643 0.240407
O O11 0.624875 0.795860 0.288667
O O12 0.789906 0.789906 0.672891
O O13 0.660142 0.830905 0.610120
O O14 0.807443 0.000000 0.669362
O O15 0.652994 0.826497 0.500000
O O16 0.800298 0.800298 0.555061
O O17 0.800753 0.000000 0.553849
#
# Coordination Sequence:
#
# PCOD9577818 Si02
#       7
#     4  12  12  12   4  12  12
#     4  12  24  43  61  81 106 136 171 220 275 319
#     4  11  24  41  62  87 116 146 180 219 263 316
#     4  10  20  35  56  82 112 145 179 216 259 309
#     4  10  22  37  55  77 103 135 174 218 266 319
#     4  12  25  43  63  87 108 142 181 223 275 319
#     4   9  16  27  45  73 108 145 183 222 266 316
#     4   8  12  18  32  59  98 141 180 217 259 309
#
# _framework density 17.288865000000001
#
# number of rings (size 3 to 8) (size 9 to 14) (size 15 to 20)
#    0.000    2.118    1.765    2.118    0.000    6.353 
#    0.000    1.765    0.000    2.824    0.000    1.235 
#    0.000    7.059    0.000    0.000    0.000    0.000 
#
# Total GULP energy -379116.991242 kJ/mol
# GULP energy per Si atom -5575.249871 kJ/mol
# Density = 1.724951 g / cm^3
# Si number density = 17.288865 Si / 1000 Ang^3
#
#
#
# Elastic Constant Matrix: (Units=GPa)
#
#
# Indices 1 2 3 4 5 6 
#
# 1 62.4474 27.3354 37.5528 -0.0001 2.3016 -0.0001
# 2 27.3354 62.4474 37.5527 0.0000 -2.3016 0.0001
# 3 37.5528 37.5527 137.5428 0.0000 0.0000 -0.0001
# 4 -0.0001 0.0000 0.0000 14.4690 -0.0001 -2.3015
# 5 2.3016 -2.3016 0.0000 -0.0001 14.4691 0.0000
# 6 -0.0001 0.0001 -0.0001 -2.3015 0.0000 17.5561
#
#
#
# Elastic Compliance Matrix: (Units=1/GPa)
#
#
# Indices 1 2 3 4 5 6 
#
# 1 0.021761 -0.007326 -0.003941 0.000000 -0.004627 0.000000
# 2 -0.007326 0.021761 -0.003941 0.000000 0.004627 0.000000
# 3 -0.003941 -0.003941 0.009422 0.000000 0.000000 0.000000
# 4 0.000000 0.000000 0.000000 0.070585 0.000000 0.009253
# 5 -0.004627 0.004627 0.000000 0.000000 0.070585 0.000000
# 6 0.000000 0.000000 0.000000 0.009253 0.000000 0.058173
#
#
# Mechanical properties :
#
#
# Convention : Reuss Voigt Hill
#
# Bulk Modulus (GPa) = 44.38964 51.92439 48.15702
# Shear Modulus (GPa) = 17.22874 19.96529 18.59702
#
# Velocity S-wave (km/s) = 3.16020 3.40193 3.28329
# Velocity P-wave (km/s) = 6.24875 6.74755 6.50293
#
# Compressibility (1/GPa) = 0.02252778
#
# Stress axis : x y z
#
# Youngs Moduli (GPa) = 45.95411 45.95415 106.12900
#
# Poissons Ratio (x) = 0.33666 0.41826
# Poissons Ratio (y) = 0.33666 0.41826
# Poissons Ratio (z) = 0.18111 0.18111
#
# Static dielectric constant tensor:
#      x y z
#    x 1.561820 0.000000 0.000000 
#    y 0.000000 1.561820 0.000000 
#    z 0.000000 0.000000 1.628370 
# 
# From -- ./inp_files/4094.got.cif
#   From: 2010.05.17/outbox.cif.g08.bks.cpg/sg162_3_cif.got.tgz:4094.got - 2010.05.20 10:53:12.
