data_PCOD9577354
_publ_section_title
;
Structure prediction by ZEFSAII (Michael W. Deem and Ramdas Pophale) SiO2 
 PCOD9577354
Probable space group: P 3 1 C
;
_chemical_formula_sum "Si O2"
_cell_formula_units_Z 36
_cell_length_a 22.160010
_cell_length_b 22.160010
_cell_length_c 5.281862
_cell_angle_alpha 90.000000
_cell_angle_beta 90.000000
_cell_angle_gamma 120.000000
_cell_volume 2246.247392
_symmetry_space_group_name_H-M "P 3 1 C"
_symmetry_group_IT_number 159
_symmetry_cell_setting 'hexagonal'
loop_
_space_group_symop_operation_xyz
x,y,z
-y,x-y,z
-x+y,-x,z
y,x,1/2+z
x-y,-y,1/2+z
-x,-x+y,1/2+z
loop_
_atom_site_type_symbol
_atom_site_label
_atom_site_fract_x
_atom_site_fract_y
_atom_site_fract_z
Si Si1 0.653421 0.625137 0.727210
Si Si2 0.185324 0.611977 0.415312
Si Si3 0.197480 0.696047 0.904328
Si Si4 0.553782 0.487948 0.246097
Si Si5 0.592118 0.960380 0.888372
Si Si6 0.171382 0.495221 0.115069
O O1 0.673846 0.666052 0.464777
O O2 0.568305 0.579669 0.693707
O O3 0.684204 0.573565 0.751731
O O4 0.214235 0.659699 0.667063
O O5 0.106144 0.556628 0.498485
O O6 0.210763 0.559610 0.311452
O O7 0.189666 0.656685 0.171023
O O8 0.121411 0.686445 0.852571
O O9 0.257998 0.773863 0.956818
O O10 0.480934 0.442215 0.386101
O O11 0.613717 0.486988 0.417879
O O12 0.635730 0.006621 0.651567
#
# Coordination Sequence:
#
# PCOD9577354 Si02
#       6
#     6   6   6   6   6   6
#     4  10  19  29  53  77  85 106 138 184 238 261
#     4  11  21  40  48  67  89 118 151 177 217 288
#     4  11  26  34  50  69  90 121 145 177 241 272
#     4  10  20  33  56  76  81 110 146 197 231 265
#     4  11  20  34  53  70  87 107 154 198 222 257
#     4  11  22  38  50  67  98 110 144 189 227 289
#
# _framework density 16.026730000000001
#
# number of rings (size 3 to 8) (size 9 to 14) (size 15 to 20)
#    0.000    1.333    5.000    4.000    4.667    0.000 
#    1.000    1.667    0.000    0.000    0.000    0.000 
#    0.000    0.000    0.000    0.000    0.000    0.000 
#
# Total GULP energy -200747.989806 kJ/mol
# GULP energy per Si atom -5576.333050 kJ/mol
# Density = 1.599025 g / cm^3
# Si number density = 16.026730 Si / 1000 Ang^3
#
#
#
# Elastic Constant Matrix: (Units=GPa)
#
#
# Indices 1 2 3 4 5 6 
#
# 1 54.1590 18.5081 17.5523 0.0000 -7.1714 0.0000
# 2 18.5081 54.1590 17.5523 0.0000 7.1714 0.0000
# 3 17.5523 17.5523 110.7939 0.0000 0.0000 0.0000
# 4 0.0000 0.0000 0.0000 20.8458 0.0000 7.1714
# 5 -7.1714 7.1714 0.0000 0.0000 20.8458 0.0000
# 6 0.0000 0.0000 0.0000 7.1714 0.0000 17.8254
#
#
#
# Elastic Compliance Matrix: (Units=1/GPa)
#
#
# Indices 1 2 3 4 5 6 
#
# 1 0.023729 -0.008827 -0.002361 0.000000 0.011200 0.000000
# 2 -0.008827 0.023729 -0.002361 0.000000 -0.011200 0.000000
# 3 -0.002361 -0.002361 0.009774 0.000000 0.000000 0.000000
# 4 0.000000 0.000000 0.000000 0.055677 0.000000 -0.022400
# 5 0.011200 -0.011200 0.000000 0.000000 0.055677 0.000000
# 6 0.000000 0.000000 0.000000 -0.022400 0.000000 0.065111
#
#
# Mechanical properties :
#
#
# Convention : Reuss Voigt Hill
#
# Bulk Modulus (GPa) = 33.18476 36.25970 34.72223
# Shear Modulus (GPa) = 18.46115 22.93666 20.69891
#
# Velocity S-wave (km/s) = 3.39764 3.78716 3.59768
# Velocity P-wave (km/s) = 6.01189 6.46506 6.24259
#
# Compressibility (1/GPa) = 0.03013432
#
# Stress axis : x y z
#
# Youngs Moduli (GPa) = 42.14296 42.14296 102.31458
#
# Poissons Ratio (x) = 0.37199 0.24154
# Poissons Ratio (y) = 0.37199 0.24154
# Poissons Ratio (z) = 0.09949 0.09949
#
# Static dielectric constant tensor:
#      x y z
#    x 1.553650 0.000000 0.000000 
#    y 0.000000 1.553650 0.000000 
#    z 0.000000 0.000000 1.693820 
# 
# From -- ./inp_files/111.got.cif
#   From: 2010.05.17/outbox.cif.g08.bks.cpg/sg159_cif.got.tgz:111.got - 2010.05.20 10:50:30.
