data_PCOD9577062
_publ_section_title
;
Structure prediction by ZEFSAII (Michael W. Deem and Ramdas Pophale) SiO2 
 PCOD9577062
Probable space group: R 3 2
;
_chemical_formula_sum "Si O2"
_cell_formula_units_Z 105
_cell_length_a 15.157011
_cell_length_b 15.157011
_cell_length_c 28.392116
_cell_angle_alpha 90.000000
_cell_angle_beta 90.000000
_cell_angle_gamma 120.000000
_cell_volume 5648.791227
_symmetry_space_group_name_H-M "R 3 2"
_symmetry_group_IT_number 155
_symmetry_cell_setting 'hexagonal'
loop_
_space_group_symop_operation_xyz
x,y,z
-y,x-y,z
-x+y,-x,z
x-y,-y,-z
-x,-x+y,-z
y,x,-z
2/3+x,1/3+y,1/3+z
2/3-y,1/3+x-y,1/3+z
2/3-x+y,1/3-x,1/3+z
2/3+x-y,1/3-y,1/3-z
2/3-x,1/3-x+y,1/3-z
2/3+y,1/3+x,1/3-z
1/3+x,2/3+y,2/3+z
1/3-y,2/3+x-y,2/3+z
1/3-x+y,2/3-x,2/3+z
1/3+x-y,2/3-y,2/3-z
1/3-x,2/3-x+y,2/3-z
1/3+y,2/3+x,2/3-z
loop_
_atom_site_type_symbol
_atom_site_label
_atom_site_fract_x
_atom_site_fract_y
_atom_site_fract_z
Si Si1 0.105014 0.637912 0.911677
Si Si2 0.333334 0.346933 0.666667
Si Si3 0.458443 0.015401 0.324990
Si Si4 0.804611 0.234836 0.895176
Si Si5 0.811059 0.783314 0.251306
Si Si6 0.287642 0.287642 0.500000
Si Si7 0.000000 0.000000 0.556080
Si Si8 0.664153 0.666667 0.166667
O O1 0.123808 0.543598 0.917283
O O2 0.215433 0.739344 0.913595
O O3 0.053097 0.636970 0.861771
O O4 0.033330 0.637904 0.954739
O O5 0.429566 0.459676 0.671605
O O6 0.425092 0.957610 0.275446
O O7 0.385904 0.942546 0.366094
O O8 0.448793 0.115460 0.333334
O O9 0.712841 0.129734 0.874917
O O10 0.754777 0.306961 0.902513
O O11 0.888503 0.256433 0.855545
O O12 0.746506 0.712847 0.207779
O O13 0.000000 0.000000 0.500000
#
# Coordination Sequence:
#
# PCOD9577062 Si02
#       8
#    18   9  18  18  18   9   6   9
#     4  11  24  42  66  93 131 171 224 275 338 406
#     4  10  24  42  66  94 126 174 220 268 342 400
#     4  11  24  43  67  95 132 170 222 272 337 406
#     4  12  23  39  65  97 131 176 216 273 338 400
#     4  11  25  41  65  93 128 170 217 274 328 408
#     4  12  21  41  70  94 132 178 222 277 339 410
#     4  12  24  36  60 102 138 162 225 276 327 403
#     4  12  21  39  64  92 124 168 212 261 329 390
#
# _framework density 18.588047
#
# number of rings (size 3 to 8) (size 9 to 14) (size 15 to 20)
#    0.000    0.686    6.857    0.857    1.200    2.743 
#    0.514    0.000    0.000    0.000    0.000    0.000 
#    0.000    0.000    0.000    0.000    0.000    0.000 
#
# Total GULP energy -195019.235410 kJ/mol
# GULP energy per Si atom -5571.978155 kJ/mol
# Density = 1.854574 g / cm^3
# Si number density = 18.588047 Si / 1000 Ang^3
#
#
#
# Elastic Constant Matrix: (Units=GPa)
#
#
# Indices 1 2 3 4 5 6 
#
# 1 85.0876 42.1462 32.7237 -5.5753 -0.0001 0.0000
# 2 42.1462 85.0876 32.7237 5.5753 0.0001 0.0000
# 3 32.7237 32.7237 89.0929 0.0000 0.0000 0.0000
# 4 -5.5753 5.5753 0.0000 25.1426 0.0000 0.0001
# 5 -0.0001 0.0001 0.0000 0.0000 25.1426 -5.5753
# 6 0.0000 0.0000 0.0000 0.0001 -5.5753 21.4707
#
#
#
# Elastic Compliance Matrix: (Units=1/GPa)
#
#
# Indices 1 2 3 4 5 6 
#
# 1 0.017200 -0.007510 -0.003559 0.005479 0.000000 0.000000
# 2 -0.007510 0.017200 -0.003559 -0.005479 0.000000 0.000000
# 3 -0.003559 -0.003559 0.013839 0.000000 0.000000 0.000000
# 4 0.005479 -0.005479 0.000000 0.042203 0.000000 0.000000
# 5 0.000000 0.000000 0.000000 0.000000 0.042203 0.010959
# 6 0.000000 0.000000 0.000000 0.000000 0.010959 0.049421
#
#
# Mechanical properties :
#
#
# Convention : Reuss Voigt Hill
#
# Bulk Modulus (GPa) = 52.67991 52.71728 52.69859
# Shear Modulus (GPa) = 22.97253 24.46284 23.71769
#
# Velocity S-wave (km/s) = 3.51932 3.63168 3.57594
# Velocity P-wave (km/s) = 6.70197 6.78291 6.74256
#
# Compressibility (1/GPa) = 0.01898257
#
# Stress axis : x y z
#
# Youngs Moduli (GPa) = 58.13826 58.13826 72.26030
#
# Poissons Ratio (x) = 0.43662 0.25719
# Poissons Ratio (y) = 0.43662 0.25719
# Poissons Ratio (z) = 0.20693 0.20693
#
# Static dielectric constant tensor:
#      x y z
#    x 1.665030 0.000000 0.000000 
#    y 0.000000 1.665030 0.000000 
#    z 0.000000 0.000000 1.628520 
# 
# From -- ./inp_files/8468.got.cif
#   From: 2010.05.17/outbox.cif.g08.bks.cpg/sg155_5_cif.got.tgz:8468.got - 2010.05.20 10:44:35.
