data_PCOD9577186
_publ_section_title
;
Structure prediction by ZEFSAII (Michael W. Deem and Ramdas Pophale) SiO2 
 PCOD9577186
Probable space group: R 3 2
;
_chemical_formula_sum "Si O2"
_cell_formula_units_Z 48
_cell_length_a 30.000000
_cell_length_b 30.000000
_cell_length_c 9.000000
_cell_angle_alpha 90.000000
_cell_angle_beta 90.000000
_cell_angle_gamma 120.000000
_cell_volume 7014.805771
_symmetry_space_group_name_H-M "R 3 2"
_symmetry_group_IT_number 155
_symmetry_cell_setting 'hexagonal'
loop_
_space_group_symop_operation_xyz
x,y,z
-y,x-y,z
-x+y,-x,z
x-y,-y,-z
-x,-x+y,-z
y,x,-z
2/3+x,1/3+y,1/3+z
2/3-y,1/3+x-y,1/3+z
2/3-x+y,1/3-x,1/3+z
2/3+x-y,1/3-y,1/3-z
2/3-x,1/3-x+y,1/3-z
2/3+y,1/3+x,1/3-z
1/3+x,2/3+y,2/3+z
1/3-y,2/3+x-y,2/3+z
1/3-x+y,2/3-x,2/3+z
1/3+x-y,2/3-y,2/3-z
1/3-x,2/3-x+y,2/3-z
1/3+y,2/3+x,2/3-z
loop_
_atom_site_type_symbol
_atom_site_label
_atom_site_fract_x
_atom_site_fract_y
_atom_site_fract_z
Si Si1 0.209694 0.129713 0.359649
Si Si2 0.523082 0.682092 0.998647
Si Si3 0.213463 0.265554 0.445034
Si Si4 0.956915 0.572638 0.228701
Si Si5 0.082225 0.092944 0.667504
Si Si6 0.104096 0.014971 0.826820
Si Si7 0.725072 0.770556 0.885415
Si Si8 0.056060 0.539078 0.574636
O O1 0.199430 0.072685 0.340243
O O2 0.246794 0.155868 0.501376
O O3 0.153207 0.121982 0.351844
O O4 0.241337 0.156364 0.211993
O O5 0.471790 0.650102 0.901721
O O6 0.571494 0.685045 0.920383
O O7 0.517755 0.666667 0.166667
O O8 0.218264 0.218264 0.500000
O O9 0.253829 0.314640 0.541429
O O10 0.228405 0.272338 0.274664
O O11 0.933534 0.600201 0.333334
O O12 0.945079 0.517612 0.290541
O O13 0.071023 0.071023 0.500000
O O14 0.104074 0.066066 0.776104
O O15 0.030475 0.086045 0.740338
O O16 0.095967 0.000000 0.000000
O O17 0.666667 0.740023 0.833334
O O18 0.736957 0.827800 0.938832
O O19 0.739894 0.739894 0.000000
O O20 0.000000 0.509307 0.500000
#
# Coordination Sequence:
#
# PCOD9577186 Si02
#       8
#    18  18  18  18  18  18  18  18
#     4  10  21  40  63  91 127 169 215 259 319 366
#     4  10  22  41  66  94 125 171 211 264 326 390
#     4  11  24  39  58  90 127 164 214 264 308 366
#     4  11  25  39  64  94 124 170 213 257 308 369
#     4  11  22  38  61  91 130 174 223 273 319 378
#     4  11  22  39  61  92 130 176 225 269 322 383
#     4  10  23  43  70  98 126 163 206 262 331 396
#     4  10  20  42  68  89 127 169 208 261 314 378
#
# _framework density 6.84267
#
# number of rings (size 3 to 8) (size 9 to 14) (size 15 to 20)
#    0.000    1.500    1.250    4.000    1.750    1.500 
#    0.000   16.250    2.750    0.000    0.000    0.000 
#    0.000    0.000    0.000    0.000    0.000    0.000 
#
# Total GULP energy -267541.830907 kJ/mol
# GULP energy per Si atom -5573.788144 kJ/mol
# Density = 0.682710 g / cm^3
# Si number density = 6.842670 Si / 1000 Ang^3
#
#
#
# Elastic Constant Matrix: (Units=GPa)
#
#
# Indices 1 2 3 4 5 6 
#
# 1 213.4059 -111.8857 49.0834 11.6754 2.5859 15.9704
# 2 -111.8857 215.3082 54.3209 -11.7656 -3.0180 -17.3571
# 3 49.0834 54.3209 138.3115 -0.7581 -0.5095 -2.1556
# 4 11.6754 -11.7656 -0.7581 40.5363 0.9685 5.6823
# 5 2.5859 -3.0180 -0.5095 0.9685 37.6862 4.2726
# 6 15.9704 -17.3571 -2.1556 5.6823 4.2726 141.2397
#
#
#
# Elastic Compliance Matrix: (Units=1/GPa)
#
#
# Indices 1 2 3 4 5 6 
#
# 1 0.009376 0.006253 -0.005794 -0.000943 -0.000158 -0.000337
# 2 0.006253 0.009460 -0.005924 0.000784 0.000191 0.000328
# 3 -0.005794 -0.005924 0.011616 0.000151 0.000065 0.000096
# 4 -0.000943 0.000784 0.000151 0.025293 -0.000430 -0.000799
# 5 -0.000158 0.000191 0.000065 -0.000430 0.026658 -0.000747
# 6 -0.000337 0.000328 0.000096 -0.000799 -0.000747 0.007215
#
#
# Mechanical properties :
#
#
# Convention : Reuss Voigt Hill
#
# Bulk Modulus (GPa) = 51.22797 61.11809 56.17303
# Shear Modulus (GPa) = 46.70483 82.25955 64.48219
#
# Velocity S-wave (km/s) = 4.77505 6.33710 5.61070
# Velocity P-wave (km/s) = 7.44385 9.13142 8.33048
#
# Compressibility (1/GPa) = 0.01952059
#
# Stress axis : x y z
#
# Youngs Moduli (GPa) = 106.66030 105.70312 86.09158
#
# Poissons Ratio (x) = -0.66095 0.49881
# Poissons Ratio (y) = -0.66693 0.51004
# Poissons Ratio (z) = 0.61798 0.62623
#
# Static dielectric constant tensor:
#      x y z
#    x 1.119780 0.022890 0.002380 
#    y 0.022890 1.156670 -0.002430 
#    z 0.002380 -0.002430 1.708820 
# 
# From -- ./inp_files/3064.got.cif
#   From: 2010.05.17/outbox.ucp.g08.bks.cvg/sg155_2_cif.got.tgz:3064.got - 2010.06.11 15:13:48.
