data_PCOD9577286
_publ_section_title
;
Structure prediction by ZEFSAII (Michael W. Deem and Ramdas Pophale) SiO2 
 PCOD9577286
Probable space group: P 3 C 1
;
_chemical_formula_sum "Si O2"
_cell_formula_units_Z 40
_cell_length_a 8.146753
_cell_length_b 8.146753
_cell_length_c 34.711482
_cell_angle_alpha 90.000000
_cell_angle_beta 90.000000
_cell_angle_gamma 120.000000
_cell_volume 1995.137751
_symmetry_space_group_name_H-M "P 3 C 1"
_symmetry_group_IT_number 158
_symmetry_cell_setting 'hexagonal'
loop_
_space_group_symop_operation_xyz
x,y,z
-y,x-y,z
-x+y,-x,z
-x+y,y,1/2+z
x,x-y,1/2+z
-y,-x,1/2+z
loop_
_atom_site_type_symbol
_atom_site_label
_atom_site_fract_x
_atom_site_fract_y
_atom_site_fract_z
Si Si1 0.001852 0.692295 0.115470
Si Si2 0.635435 0.003775 0.648396
Si Si3 0.333334 0.666668 0.273016
Si Si4 0.324727 0.289471 0.951517
Si Si5 0.341755 0.973270 0.919495
Si Si6 0.333334 0.666668 0.364620
Si Si7 0.838020 0.261087 0.536871
Si Si8 0.516745 0.434227 0.734305
O O1 0.799671 0.589772 0.136619
O O2 0.069461 0.539931 0.119490
O O3 0.954642 0.714973 0.071637
O O4 0.146459 0.872465 0.139803
O O5 0.563878 0.008486 0.691001
O O6 0.333334 0.666667 0.319142
O O7 0.463823 0.576973 0.258633
O O8 0.126952 0.262146 0.938279
O O9 0.470232 0.512593 0.947985
O O10 0.395153 0.190659 0.920244
O O11 0.334982 0.230149 0.994743
O O12 0.337422 0.853915 0.882275
O O13 0.864027 0.473228 0.540260
O O14 0.464313 0.211811 0.739805
#
# Coordination Sequence:
#
# PCOD9577286 Si02
#       8
#     6   6   2   6   6   2   6   6
#     4  12  23  37  61  87 127 169 225 277 344 397
#     4  12  22  42  60  92 127 177 224 282 333 419
#     4  12  24  51  75 114 154 179 235 306 369 456
#     4  11  20  37  64  91 124 170 225 272 330 413
#     4  10  21  40  64  98 125 172 223 265 338 417
#     4   9  24  45  69 102 145 164 211 288 342 429
#     4  10  19  36  59  83 124 170 213 291 349 388
#     4  10  23  46  74 107 144 189 242 291 363 439
#
# _framework density 20.048739000000001
#
# number of rings (size 3 to 8) (size 9 to 14) (size 15 to 20)
#    0.600    0.600    4.500    2.700    0.000    2.400 
#    6.300    0.000    0.000    0.000    0.000    0.000 
#    0.000    0.000    0.000    0.000    0.000    0.000 
#
# Total GULP energy -222701.259380 kJ/mol
# GULP energy per Si atom -5567.531485 kJ/mol
# Density = 2.000311 g / cm^3
# Si number density = 20.048739 Si / 1000 Ang^3
#
#
#
# Elastic Constant Matrix: (Units=GPa)
#
#
# Indices 1 2 3 4 5 6 
#
# 1 90.1026 29.1896 44.2267 0.6063 0.0000 0.0000
# 2 29.1896 90.1031 44.2268 -0.6063 0.0000 0.0000
# 3 44.2267 44.2268 155.0837 0.0001 0.0000 0.0000
# 4 0.6063 -0.6063 0.0001 19.0057 0.0000 0.0000
# 5 0.0000 0.0000 0.0000 0.0000 19.0056 0.6063
# 6 0.0000 0.0000 0.0000 0.0000 0.6063 30.4566
#
#
#
# Elastic Compliance Matrix: (Units=1/GPa)
#
#
# Indices 1 2 3 4 5 6 
#
# 1 0.013529 -0.002898 -0.003032 -0.000524 0.000000 0.000000
# 2 -0.002898 0.013529 -0.003032 0.000524 0.000000 0.000000
# 3 -0.003032 -0.003032 0.008177 0.000000 0.000000 0.000000
# 4 -0.000524 0.000524 0.000000 0.052649 0.000000 0.000000
# 5 0.000000 0.000000 0.000000 0.000000 0.052649 -0.001048
# 6 0.000000 0.000000 0.000000 0.000000 -0.001048 0.032854
#
#
# Mechanical properties :
#
#
# Convention : Reuss Voigt Hill
#
# Bulk Modulus (GPa) = 57.76336 63.39729 60.58032
# Shear Modulus (GPa) = 25.37013 28.20333 26.78673
#
# Velocity S-wave (km/s) = 3.56114 3.75472 3.65921
# Velocity P-wave (km/s) = 6.76631 7.10545 6.93795
#
# Compressibility (1/GPa) = 0.01731201
#
# Stress axis : x y z
#
# Youngs Moduli (GPa) = 73.91527 73.91578 122.29022
#
# Poissons Ratio (x) = 0.21423 0.37074
# Poissons Ratio (y) = 0.21423 0.37074
# Poissons Ratio (z) = 0.22409 0.22409
#
# Static dielectric constant tensor:
#      x y z
#    x 1.796560 0.000000 0.000000 
#    y 0.000000 1.796560 0.000000 
#    z 0.000000 0.000000 1.664660 
# 
# From -- ./inp_files/778.got.cif
#   From: 2010.05.17/outbox.cif.g08.bks.cpg/sg158_cif.got.tgz:778.got - 2010.05.20 10:49:59.
