data_PCOD9577332
_publ_section_title
;
Structure prediction by ZEFSAII (Michael W. Deem and Ramdas Pophale) SiO2 
 PCOD9577332
Probable space group: P 3 C 1
;
_chemical_formula_sum "Si O2"
_cell_formula_units_Z 42
_cell_length_a 11.571035
_cell_length_b 11.571035
_cell_length_c 17.642283
_cell_angle_alpha 90.000000
_cell_angle_beta 90.000000
_cell_angle_gamma 120.000000
_cell_volume 2045.642936
_symmetry_space_group_name_H-M "P 3 C 1"
_symmetry_group_IT_number 158
_symmetry_cell_setting 'hexagonal'
loop_
_space_group_symop_operation_xyz
x,y,z
-y,x-y,z
-x+y,-x,z
-x+y,y,1/2+z
x,x-y,1/2+z
-y,-x,1/2+z
loop_
_atom_site_type_symbol
_atom_site_label
_atom_site_fract_x
_atom_site_fract_y
_atom_site_fract_z
Si Si1 0.607731 0.919412 0.919730
Si Si2 0.242646 0.961596 0.576488
Si Si3 0.902969 0.600356 0.698107
Si Si4 0.637511 0.052185 0.228310
Si Si5 0.155964 0.003705 0.306546
Si Si6 0.590128 0.945575 0.392211
Si Si7 0.757359 0.042142 0.542253
O O1 0.751288 0.992023 0.876162
O O2 0.498622 0.955703 0.894038
O O3 0.558436 0.763730 0.906154
O O4 0.623564 0.952288 0.008513
O O5 0.103733 0.826462 0.569430
O O6 0.314526 0.987684 0.657138
O O7 0.222951 0.084663 0.551554
O O8 0.752312 0.544937 0.726469
O O9 0.961217 0.506749 0.720804
O O10 0.903738 0.603488 0.607109
O O11 0.979900 0.750213 0.734540
O O12 0.641350 0.990338 0.307867
O O13 0.002909 0.880581 0.307556
O O14 0.694586 0.029715 0.459360
#
# Coordination Sequence:
#
# PCOD9577332 Si02
#       7
#     6   6   6   6   6   6   6
#     4  11  23  43  65  95 135 172 219 271 328 398
#     4  10  24  40  64  97 134 174 219 276 334 394
#     4  11  23  43  65  95 135 172 219 271 328 398
#     4  11  24  42  64  95 131 173 223 267 330 397
#     4  10  24  38  68 106 132 164 216 286 336 378
#     4  11  24  42  64  95 131 173 223 267 330 397
#     4  10  24  40  64  97 134 174 219 276 334 394
#
# _framework density 20.531442999999999
#
# number of rings (size 3 to 8) (size 9 to 14) (size 15 to 20)
#    0.286    1.143    1.429    2.571   12.000    0.000 
#    0.000    0.000    0.000    4.571    0.000    0.000 
#    0.000    0.000    0.000    0.000    0.000    0.000 
#
# Total GULP energy -234281.125736 kJ/mol
# GULP energy per Si atom -5578.122041 kJ/mol
# Density = 2.048471 g / cm^3
# Si number density = 20.531443 Si / 1000 Ang^3
#
#
#
# Elastic Constant Matrix: (Units=GPa)
#
#
# Indices 1 2 3 4 5 6 
#
# 1 -93.9344 203.6749 34.9772 48.7577 0.0000 0.0000
# 2 203.6749 -93.9344 34.9772 -48.7577 0.0000 0.0000
# 3 34.9772 34.9772 166.1771 0.0000 0.0000 0.0000
# 4 48.7577 -48.7577 0.0000 0.3255 0.0000 0.0000
# 5 0.0000 0.0000 0.0000 0.0000 0.3255 48.7577
# 6 0.0000 0.0000 0.0000 0.0000 48.7577 -148.8046
#
#
#
# Elastic Compliance Matrix: (Units=1/GPa)
#
#
# Indices 1 2 3 4 5 6 
#
# 1 0.005229 0.005296 -0.002215 0.010050 0.000000 0.000000
# 2 0.005296 0.005229 -0.002215 -0.010050 0.000000 0.000000
# 3 -0.002215 -0.002215 0.006950 0.000000 0.000000 0.000000
# 4 0.010050 -0.010050 0.000000 0.061344 0.000000 0.000000
# 5 0.000000 0.000000 0.000000 0.000000 0.061344 0.020100
# 6 0.000000 0.000000 0.000000 0.000000 0.020100 -0.000134
#
#
# Mechanical properties :
#
#
# Convention : Reuss Voigt Hill
#
# Bulk Modulus (GPa) = 52.25110 58.39631 55.32370
# Shear Modulus (GPa) = 34.57586 -49.31880 -7.37147
#
# Velocity S-wave (km/s) = 4.10816 -4.90645 -1.89687
# Velocity P-wave (km/s) = 6.92872 1.89567 4.71241
#
# Compressibility (1/GPa) = 0.01913835
#
# Stress axis : x y z
#
# Youngs Moduli (GPa) = 191.25199 191.25199 143.88078
#
# Poissons Ratio (x) = -1.01283 0.31873
# Poissons Ratio (y) = -1.01283 0.31873
# Poissons Ratio (z) = 0.42366 0.42366
#
# Static dielectric constant tensor:
#      x y z
#    x 1.922810 0.000000 0.000000 
#    y 0.000000 1.922810 0.000000 
#    z 0.000000 0.000000 1.770480 
# 
# From -- ./inp_files/661.got.cif
#   From: 2010.05.17/outbox.cif.g08.bks.cpg/sg158_cif.got.tgz:661.got - 2010.05.20 10:49:59.
