data_PCOD9577571
_publ_section_title
;
Structure prediction by ZEFSAII (Michael W. Deem and Ramdas Pophale) SiO2 
 PCOD9577571
Probable space group: R 3 C
;
_chemical_formula_sum "Si O2"
_cell_formula_units_Z 84
_cell_length_a 15.904464
_cell_length_b 15.904464
_cell_length_c 13.731354
_cell_angle_alpha 90.000000
_cell_angle_beta 90.000000
_cell_angle_gamma 120.000000
_cell_volume 3008.029355
_symmetry_space_group_name_H-M "R 3 C"
_symmetry_group_IT_number 161
_symmetry_cell_setting 'hexagonal'
loop_
_space_group_symop_operation_xyz
x,y,z
-y,x-y,z
-x+y,-x,z
-x+y,y,1/2+z
x,x-y,1/2+z
-y,-x,1/2+z
2/3+x,1/3+y,1/3+z
2/3-y,1/3+x-y,1/3+z
2/3-x+y,1/3-x,1/3+z
2/3-x+y,1/3+y,5/6+z
2/3+x,1/3+x-y,5/6+z
2/3-y,1/3-x,5/6+z
1/3+x,2/3+y,2/3+z
1/3-y,2/3+x-y,2/3+z
1/3-x+y,2/3-x,2/3+z
1/3-x+y,2/3+y,1/6+z
1/3+x,2/3+x-y,1/6+z
1/3-y,2/3-x,1/6+z
loop_
_atom_site_type_symbol
_atom_site_label
_atom_site_fract_x
_atom_site_fract_y
_atom_site_fract_z
Si Si1 0.666667 0.333334 0.526112
Si Si2 0.048517 0.331734 0.569070
Si Si3 0.802143 0.856934 0.711008
Si Si4 0.569450 0.943347 0.243735
Si Si5 0.453782 0.288732 0.232030
Si Si6 0.000000 0.000000 0.962357
O O1 0.649075 0.230435 0.561804
O O2 0.666668 0.333334 0.411517
O O3 0.134964 0.213258 0.630482
O O4 0.975365 0.347303 0.502335
O O5 0.092319 0.290783 0.487588
O O6 0.106243 0.418518 0.645826
O O7 0.752464 0.755259 0.653012
O O8 0.763917 0.883613 0.807790
O O9 0.614910 0.058699 0.217393
O O10 0.562910 0.319283 0.262844
#
# Coordination Sequence:
#
# PCOD9577571 Si02
#       6
#     6  18  18  18  18   6
#     4  12  25  47  73 115 134 199 250 305 373 454
#     4  10  23  44  71 101 149 191 238 305 368 445
#     4  12  24  46  75 106 150 191 247 315 370 446
#     4  10  22  48  68 107 146 190 244 302 372 439
#     4  10  22  46  67 109 149 190 250 291 378 436
#     4  12  22  47  76 106 152 199 247 308 361 448
#
# _framework density 27.925260999999999
#
# number of rings (size 3 to 8) (size 9 to 14) (size 15 to 20)
#    1.286    0.000    4.286    1.286    0.000    5.143 
#    7.714    0.000    0.000    0.000    0.000    0.000 
#    0.000    0.000    0.000    0.000    0.000    0.000 
#
# Total GULP energy -156059.264203 kJ/mol
# GULP energy per Si atom -5573.545150 kJ/mol
# Density = 2.786170 g / cm^3
# Si number density = 27.925261 Si / 1000 Ang^3
#
#
#
# Elastic Constant Matrix: (Units=GPa)
#
#
# Indices 1 2 3 4 5 6 
#
# 1 100.6297 53.4685 35.8928 -0.3327 0.0000 0.0000
# 2 53.4685 100.6290 35.8926 0.3325 0.0000 0.0000
# 3 35.8928 35.8926 219.2044 -0.0003 0.0000 0.0000
# 4 -0.3327 0.3325 -0.0003 55.3702 0.0000 0.0000
# 5 0.0000 0.0000 0.0000 0.0000 55.3705 -0.3324
# 6 0.0000 0.0000 0.0000 0.0000 -0.3324 23.5801
#
#
#
# Elastic Compliance Matrix: (Units=1/GPa)
#
#
# Indices 1 2 3 4 5 6 
#
# 1 0.014115 -0.007090 -0.001150 0.000127 0.000000 0.000000
# 2 -0.007090 0.014116 -0.001150 -0.000127 0.000000 0.000000
# 3 -0.001150 -0.001150 0.004939 0.000000 0.000000 0.000000
# 4 0.000127 -0.000127 0.000000 0.018062 0.000000 0.000000
# 5 0.000000 0.000000 0.000000 0.000000 0.018062 0.000255
# 6 0.000000 0.000000 0.000000 0.000000 0.000255 0.042412
#
#
# Mechanical properties :
#
#
# Convention : Reuss Voigt Hill
#
# Bulk Modulus (GPa) = 69.50292 74.55233 72.02762
# Shear Modulus (GPa) = 36.95950 46.54477 41.75214
#
# Velocity S-wave (km/s) = 3.64196 4.08703 3.87090
# Velocity P-wave (km/s) = 6.52902 7.00191 6.76960
#
# Compressibility (1/GPa) = 0.01438788
#
# Stress axis : x y z
#
# Youngs Moduli (GPa) = 70.84415 70.84368 202.48399
#
# Poissons Ratio (x) = 0.50230 0.23292
# Poissons Ratio (y) = 0.50231 0.23292
# Poissons Ratio (z) = 0.08149 0.08149
#
# Static dielectric constant tensor:
#      x y z
#    x 2.260330 0.000000 0.000000 
#    y 0.000000 2.260330 0.000000 
#    z 0.000000 0.000000 2.159490 
# 
# From -- ./inp_files/911.got.cif
#   From: 2010.05.17/outbox.cif.g08.bks.cpg/sg161_cif.got.tgz:911.got - 2010.05.20 10:52:32.
