data_PCOD9577561
_publ_section_title
;
Structure prediction by ZEFSAII (Michael W. Deem and Ramdas Pophale) SiO2 
 PCOD9577561
Probable space group: R 3 C
;
_chemical_formula_sum "Si O2"
_cell_formula_units_Z 78
_cell_length_a 12.611527
_cell_length_b 12.611527
_cell_length_c 30.201002
_cell_angle_alpha 90.000000
_cell_angle_beta 90.000000
_cell_angle_gamma 120.000000
_cell_volume 4159.942539
_symmetry_space_group_name_H-M "R 3 C"
_symmetry_group_IT_number 161
_symmetry_cell_setting 'hexagonal'
loop_
_space_group_symop_operation_xyz
x,y,z
-y,x-y,z
-x+y,-x,z
-x+y,y,1/2+z
x,x-y,1/2+z
-y,-x,1/2+z
2/3+x,1/3+y,1/3+z
2/3-y,1/3+x-y,1/3+z
2/3-x+y,1/3-x,1/3+z
2/3-x+y,1/3+y,5/6+z
2/3+x,1/3+x-y,5/6+z
2/3-y,1/3-x,5/6+z
1/3+x,2/3+y,2/3+z
1/3-y,2/3+x-y,2/3+z
1/3-x+y,2/3-x,2/3+z
1/3-x+y,2/3+y,1/6+z
1/3+x,2/3+x-y,1/6+z
1/3-y,2/3-x,1/6+z
loop_
_atom_site_type_symbol
_atom_site_label
_atom_site_fract_x
_atom_site_fract_y
_atom_site_fract_z
Si Si1 0.666668 0.333334 0.730392
Si Si2 0.000000 0.000000 0.719695
Si Si3 0.476622 0.143285 0.891710
Si Si4 0.000000 0.000000 0.001035
Si Si5 0.178182 0.433592 0.505186
Si Si6 0.333333 0.666667 0.282385
Si Si7 0.411250 0.899739 0.944902
O O1 0.666668 0.333334 0.782528
O O2 0.622138 0.200883 0.709891
O O3 0.000000 0.000000 0.667559
O O4 0.867553 0.955492 0.740197
O O5 0.585034 0.197811 0.854954
O O6 0.359004 0.118294 0.863389
O O7 0.531145 0.251699 0.928466
O O8 0.451639 0.025672 0.920033
O O9 0.287719 0.439505 0.474891
O O10 0.106192 0.485134 0.475197
#
# Coordination Sequence:
#
# PCOD9577561 Si02
#       7
#     6   6  18   6  18   6  18
#     4   9  20  41  63  85 125 145 189 260 284 330
#     4   9  20  41  63  85 125 145 189 260 284 330
#     4  10  22  40  58  86 122 156 194 230 302 356
#     4  10  25  43  49  91 131 145 187 265 289 334
#     4   9  20  40  63  89 115 153 200 242 287 350
#     4  10  25  43  49  91 131 145 187 265 289 334
#     4   9  20  40  63  89 115 153 200 242 287 350
#
# _framework density 18.750260000000001
#
# number of rings (size 3 to 8) (size 9 to 14) (size 15 to 20)
#    0.000    2.769    0.000    1.846    6.462    1.846 
#    8.308    0.000    0.000    0.000    0.000    0.000 
#    0.000    0.000    0.000    0.000    0.000    0.000 
#
# Total GULP energy -144808.851283 kJ/mol
# GULP energy per Si atom -5569.571203 kJ/mol
# Density = 1.870758 g / cm^3
# Si number density = 18.750260 Si / 1000 Ang^3
#
#
#
# Elastic Constant Matrix: (Units=GPa)
#
#
# Indices 1 2 3 4 5 6 
#
# 1 119.2420 52.2980 72.1554 31.1604 0.0000 0.0000
# 2 52.2980 119.2421 72.1549 -31.1604 0.0000 0.0000
# 3 72.1554 72.1549 205.5504 0.0000 0.0000 0.0000
# 4 31.1604 -31.1604 0.0000 34.3916 0.0000 0.0000
# 5 0.0000 0.0000 0.0000 0.0000 34.3914 31.1596
# 6 0.0000 0.0000 0.0000 0.0000 31.1596 33.4696
#
#
#
# Elastic Compliance Matrix: (Units=1/GPa)
#
#
# Indices 1 2 3 4 5 6 
#
# 1 0.051855 -0.043582 -0.002904 -0.086470 0.000000 0.000000
# 2 -0.043582 0.051854 -0.002904 0.086470 0.000000 0.000000
# 3 -0.002904 -0.002904 0.006904 0.000000 0.000000 0.000000
# 4 -0.086470 0.086470 0.000000 0.185769 0.000000 0.000000
# 5 0.000000 0.000000 0.000000 0.000000 0.185794 -0.172971
# 6 0.000000 0.000000 0.000000 0.000000 -0.172971 0.190911
#
#
# Mechanical properties :
#
#
# Convention : Reuss Voigt Hill
#
# Bulk Modulus (GPa) = 84.50913 93.02790 88.76852
# Shear Modulus (GPa) = 6.44487 36.94559 21.69523
#
# Velocity S-wave (km/s) = 1.85598 4.44374 3.40525
# Velocity P-wave (km/s) = 7.05419 8.72072 7.93135
#
# Compressibility (1/GPa) = 0.01183304
#
# Stress axis : x y z
#
# Youngs Moduli (GPa) = 19.28470 19.28484 144.84897
#
# Poissons Ratio (x) = 0.84047 0.42066
# Poissons Ratio (y) = 0.84046 0.42061
# Poissons Ratio (z) = 0.05600 0.05600
#
# Static dielectric constant tensor:
#      x y z
#    x 1.693330 0.000000 0.000000 
#    y 0.000000 1.693330 0.000000 
#    z 0.000000 0.000000 1.620400 
# 
# From -- ./inp_files/2073.got.cif
#   From: 2010.05.17/outbox.cif.g08.bks.cpg/sg161_cif.got.tgz:2073.got - 2010.05.20 10:52:32.
