data_PCOD9577288
_publ_section_title
;
Structure prediction by ZEFSAII (Michael W. Deem and Ramdas Pophale) SiO2 
 PCOD9577288
Probable space group: P 3 C 1
;
_chemical_formula_sum "Si O2"
_cell_formula_units_Z 48
_cell_length_a 18.045420
_cell_length_b 18.045420
_cell_length_c 9.128757
_cell_angle_alpha 90.000000
_cell_angle_beta 90.000000
_cell_angle_gamma 120.000000
_cell_volume 2574.401427
_symmetry_space_group_name_H-M "P 3 C 1"
_symmetry_group_IT_number 158
_symmetry_cell_setting 'hexagonal'
loop_
_space_group_symop_operation_xyz
x,y,z
-y,x-y,z
-x+y,-x,z
-x+y,y,1/2+z
x,x-y,1/2+z
-y,-x,1/2+z
loop_
_atom_site_type_symbol
_atom_site_label
_atom_site_fract_x
_atom_site_fract_y
_atom_site_fract_z
Si Si1 0.167367 0.500962 0.165700
Si Si2 0.331586 0.490309 0.164450
Si Si3 0.761833 0.674069 0.338332
Si Si4 0.630278 0.901237 0.403028
Si Si5 0.266598 0.368719 0.890927
Si Si6 0.665283 0.177892 0.340344
Si Si7 0.665618 0.487687 0.483393
Si Si8 0.761475 0.087474 0.484678
O O1 0.263682 0.521961 0.205554
O O2 0.159094 0.582332 0.125789
O O3 0.105296 0.445190 0.295168
O O4 0.137294 0.430786 0.041081
O O5 0.342762 0.436211 0.292607
O O6 0.288689 0.416015 0.045092
O O7 0.716055 0.728281 0.374204
O O8 0.703974 0.583290 0.420282
O O9 0.854799 0.709063 0.411188
O O10 0.764205 0.663991 0.161386
O O11 0.648676 0.827333 0.346071
O O12 0.714543 0.987716 0.444862
O O13 0.573508 0.147286 0.411993
O O14 0.729232 0.270851 0.411608
O O15 0.703859 0.121163 0.404518
O O16 0.665772 0.180318 0.161869
#
# Coordination Sequence:
#
# PCOD9577288 Si02
#       8
#     6   6   6   6   6   6   6   6
#     4  10  19  38  51  90 120 170 204 258 281 342
#     4  10  21  32  61  82 126 166 214 242 295 342
#     4  11  23  41  61  86 116 149 197 250 306 365
#     4  10  22  39  60  86 120 157 199 243 301 356
#     4  10  22  39  60  86 120 157 199 243 301 356
#     4  11  22  37  56  81 113 153 196 241 291 345
#     4  11  22  37  56  81 113 153 196 241 291 345
#     4  11  23  41  61  86 116 149 197 250 306 365
#
# _framework density 18.645111
#
# number of rings (size 3 to 8) (size 9 to 14) (size 15 to 20)
#    0.000    1.500    1.250    5.750    3.500    2.000 
#    0.000    2.500    0.000    0.500    0.000    0.000 
#    0.000    0.000    0.000    0.000    0.000    0.000 
#
# Total GULP energy -267386.788659 kJ/mol
# GULP energy per Si atom -5570.558097 kJ/mol
# Density = 1.860267 g / cm^3
# Si number density = 18.645111 Si / 1000 Ang^3
#
#
#
# Elastic Constant Matrix: (Units=GPa)
#
#
# Indices 1 2 3 4 5 6 
#
# 1 101.1475 43.5811 28.0404 12.6642 0.0000 0.0000
# 2 43.5811 101.1475 28.0404 -12.6642 0.0000 0.0000
# 3 28.0404 28.0404 134.2025 0.0000 0.0000 0.0000
# 4 12.6642 -12.6642 0.0000 36.7804 0.0000 0.0000
# 5 0.0000 0.0000 0.0000 0.0000 36.7804 12.6642
# 6 0.0000 0.0000 0.0000 0.0000 12.6642 28.7832
#
#
#
# Elastic Compliance Matrix: (Units=1/GPa)
#
#
# Indices 1 2 3 4 5 6 
#
# 1 0.013995 -0.006477 -0.001571 -0.007049 0.000000 0.000000
# 2 -0.006477 0.013995 -0.001571 0.007049 0.000000 0.000000
# 3 -0.001571 -0.001571 0.008108 0.000000 0.000000 0.000000
# 4 -0.007049 0.007049 0.000000 0.032043 0.000000 0.000000
# 5 0.000000 0.000000 0.000000 0.000000 0.032043 -0.014098
# 6 0.000000 0.000000 0.000000 0.000000 -0.014098 0.040946
#
#
# Mechanical properties :
#
#
# Convention : Reuss Voigt Hill
#
# Bulk Modulus (GPa) = 59.30921 59.53570 59.42245
# Shear Modulus (GPa) = 30.12263 36.25784 33.19024
#
# Velocity S-wave (km/s) = 4.02379 4.41458 4.22371
# Velocity P-wave (km/s) = 7.31207 7.61479 7.46496
#
# Compressibility (1/GPa) = 0.01686079
#
# Stress axis : x y z
#
# Youngs Moduli (GPa) = 71.45163 71.45163 123.33716
#
# Poissons Ratio (x) = 0.46281 0.19374
# Poissons Ratio (y) = 0.46281 0.19374
# Poissons Ratio (z) = 0.11224 0.11224
#
# Static dielectric constant tensor:
#      x y z
#    x 1.667210 0.000000 0.000000 
#    y 0.000000 1.667210 0.000000 
#    z 0.000000 0.000000 1.546120 
# 
# From -- ./inp_files/229.got.cif
#   From: 2010.05.17/outbox.cif.g08.bks.cpg/sg158_cif.got.tgz:229.got - 2010.05.20 10:49:59.
