data_PCOD9577800
_publ_section_title
;
Structure prediction by ZEFSAII (Michael W. Deem and Ramdas Pophale) SiO2 
 PCOD9577800
Probable space group: P -3 1 M 
;
_chemical_formula_sum "Si O2"
_cell_formula_units_Z 60
_cell_length_a 14.279071
_cell_length_b 14.279071
_cell_length_c 16.925718
_cell_angle_alpha 90.000000
_cell_angle_beta 90.000000
_cell_angle_gamma 120.000000
_cell_volume 2988.667759
_symmetry_space_group_name_H-M "P -3 1 M "
_symmetry_group_IT_number 162
_symmetry_cell_setting 'hexagonal'
loop_
_space_group_symop_operation_xyz
x,y,z
-y,x-y,z
-x+y,-x,z
-y,-x,-z
-x+y,y,-z
x,x-y,-z
-x,-y,-z
y,-x+y,-z
x-y,x,-z
y,x,z
x-y,-y,z
-x,-x+y,z
loop_
_atom_site_type_symbol
_atom_site_label
_atom_site_fract_x
_atom_site_fract_y
_atom_site_fract_z
Si Si1 0.737020 0.551307 0.286809
Si Si2 0.752921 0.876742 0.194607
Si Si3 0.123146 0.529070 0.793779
Si Si4 0.123972 0.714125 0.062177
Si Si5 0.872856 0.332063 0.464862
O O1 0.820723 0.675896 0.269593
O O2 0.799790 0.486484 0.267644
O O3 0.643375 0.509644 0.221412
O O4 0.681739 0.531560 0.371283
O O5 0.810275 0.810275 0.170398
O O6 0.675604 0.876119 0.125274
O O7 0.839601 0.000000 0.211666
O O8 0.149137 0.511939 0.882934
O O9 0.000000 0.436121 0.779438
O O10 0.000000 0.643870 0.030806
O O11 0.215878 0.784123 0.000000
O O12 0.783724 0.216277 0.500000
O O13 0.854187 0.427094 0.500000
O O14 0.000000 0.372688 0.479462
#
# Coordination Sequence:
#
# PCOD9577800 Si02
#       5
#    12  12  12  12  12
#     4  11  21  38  60  84 113 148 188 232 282 337
#     4  10  20  34  55  82 113 151 193 236 280 329
#     4  10  21  37  59  86 115 149 190 235 283 335
#     4   9  18  33  54  81 114 150 188 233 283 332
#     4  11  24  40  61  90 121 153 191 239 294 353
#
# _framework density 20.075835999999999
#
# number of rings (size 3 to 8) (size 9 to 14) (size 15 to 20)
#    0.000    1.800    0.000    6.200    0.000    3.200 
#    0.000    4.000    0.000   14.200    0.000    0.000 
#    0.000    0.800    0.000    0.000    0.000    0.000 
#
# Total GULP energy -335120.078212 kJ/mol
# GULP energy per Si atom -5585.334637 kJ/mol
# Density = 2.003014 g / cm^3
# Si number density = 20.075836 Si / 1000 Ang^3
#
#
#
# Elastic Constant Matrix: (Units=GPa)
#
#
# Indices 1 2 3 4 5 6 
#
# 1 69.6409 19.4969 28.0867 -0.0001 -7.9359 0.0000
# 2 19.4969 69.6409 28.0867 0.0001 7.9359 0.0000
# 3 28.0867 28.0867 77.5770 0.0000 0.0000 0.0000
# 4 -0.0001 0.0001 0.0000 12.2413 0.0000 7.9359
# 5 -7.9359 7.9359 0.0000 0.0000 12.2413 -0.0001
# 6 0.0000 0.0000 0.0000 7.9359 -0.0001 25.0720
#
#
#
# Elastic Compliance Matrix: (Units=1/GPa)
#
#
# Indices 1 2 3 4 5 6 
#
# 1 0.019813 -0.005278 -0.005262 0.000000 0.016266 0.000000
# 2 -0.005278 0.019813 -0.005262 0.000000 -0.016266 0.000000
# 3 -0.005262 -0.005262 0.016701 0.000000 0.000000 0.000000
# 4 0.000000 0.000000 0.000000 0.102782 0.000000 -0.032533
# 5 0.016266 -0.016266 0.000000 0.000000 0.102782 0.000000
# 6 0.000000 0.000000 0.000000 -0.032533 0.000000 0.050183
#
#
# Mechanical properties :
#
#
# Convention : Reuss Voigt Hill
#
# Bulk Modulus (GPa) = 40.45109 40.91106 40.68108
# Shear Modulus (GPa) = 14.20782 19.32346 16.76564
#
# Velocity S-wave (km/s) = 2.66316 3.10582 2.89297
# Velocity P-wave (km/s) = 5.44513 5.76923 5.60952
#
# Compressibility (1/GPa) = 0.02472121
#
# Stress axis : x y z
#
# Youngs Moduli (GPa) = 50.47176 50.47176 59.87717
#
# Poissons Ratio (x) = 0.26640 0.31509
# Poissons Ratio (y) = 0.26640 0.31509
# Poissons Ratio (z) = 0.26560 0.26560
#
# Static dielectric constant tensor:
#      x y z
#    x 1.732840 0.000000 0.000000 
#    y 0.000000 1.732840 0.000000 
#    z 0.000000 0.000000 1.711380 
# 
# From -- ./inp_files/2921.got.cif
#   From: 2010.05.17/outbox.cif.g08.bks.cpg/sg162_2_cif.got.tgz:2921.got - 2010.05.20 10:53:12.
