data_PCOD9577392
_publ_section_title
;
Structure prediction by ZEFSAII (Michael W. Deem and Ramdas Pophale) SiO2 
 PCOD9577392
Probable space group: P 3 1 C
;
_chemical_formula_sum "Si O2"
_cell_formula_units_Z 36
_cell_length_a 8.672677
_cell_length_b 8.672677
_cell_length_c 27.779581
_cell_angle_alpha 90.000000
_cell_angle_beta 90.000000
_cell_angle_gamma 120.000000
_cell_volume 1809.516997
_symmetry_space_group_name_H-M "P 3 1 C"
_symmetry_group_IT_number 159
_symmetry_cell_setting 'hexagonal'
loop_
_space_group_symop_operation_xyz
x,y,z
-y,x-y,z
-x+y,-x,z
y,x,1/2+z
x-y,-y,1/2+z
-x,-x+y,1/2+z
loop_
_atom_site_type_symbol
_atom_site_label
_atom_site_fract_x
_atom_site_fract_y
_atom_site_fract_z
Si Si1 0.334719 0.332752 0.601900
Si Si2 0.998200 0.330800 0.061645
Si Si3 0.008569 0.670589 0.811821
Si Si4 0.663793 0.673215 0.351750
Si Si5 0.456822 0.135455 0.957904
Si Si6 0.667963 0.130055 0.204811
O O1 0.473084 0.526521 0.581136
O O2 0.140304 0.280055 0.583113
O O3 0.336260 0.352177 0.659383
O O4 0.385149 0.192098 0.581099
O O5 0.972747 0.321619 0.004304
O O6 0.858146 0.717369 0.825652
O O7 0.949039 0.475491 0.831734
O O8 0.045865 0.673316 0.755244
O O9 0.190918 0.809911 0.837986
O O10 0.640748 0.688687 0.408479
O O11 0.657111 0.162649 0.959348
O O12 0.833277 0.334347 0.202482
#
# Coordination Sequence:
#
# PCOD9577392 Si02
#       6
#     6   6   6   6   6   6
#     4  12  24  43  69 102 135 178 228 285 342 415
#     4  12  24  43  69 102 135 178 228 285 342 415
#     4  12  24  43  69 106 140 182 233 284 343 410
#     4  12  24  43  69 106 140 182 233 284 343 410
#     4  10  20  42  73  95 134 189 226 276 359 402
#     4  10  20  42  73  95 134 189 226 276 359 402
#
# _framework density 19.894812000000002
#
# number of rings (size 3 to 8) (size 9 to 14) (size 15 to 20)
#    0.667    0.000    6.667    2.000    0.000    5.333 
#    0.000    0.000    0.000    0.000    0.000    0.000 
#    0.000    0.000    0.000    0.000    0.000    0.000 
#
# Total GULP energy -201145.901249 kJ/mol
# GULP energy per Si atom -5587.386146 kJ/mol
# Density = 1.984953 g / cm^3
# Si number density = 19.894812 Si / 1000 Ang^3
#
#
#
# Elastic Constant Matrix: (Units=GPa)
#
#
# Indices 1 2 3 4 5 6 
#
# 1 58.8172 -3.4972 36.2546 0.0000 2.6650 0.0000
# 2 -3.4972 58.8172 36.2546 0.0000 -2.6650 0.0000
# 3 36.2546 36.2546 218.0801 0.0000 0.0000 0.0000
# 4 0.0000 0.0000 0.0000 13.4791 0.0000 -2.6650
# 5 2.6650 -2.6650 0.0000 0.0000 13.4791 0.0000
# 6 0.0000 0.0000 0.0000 -2.6650 0.0000 31.1572
#
#
#
# Elastic Compliance Matrix: (Units=1/GPa)
#
#
# Indices 1 2 3 4 5 6 
#
# 1 0.019718 0.003395 -0.003842 0.000000 -0.003227 0.000000
# 2 0.003395 0.019718 -0.003842 0.000000 0.003227 0.000000
# 3 -0.003842 -0.003842 0.005863 0.000000 0.000000 0.000000
# 4 0.000000 0.000000 0.000000 0.075465 0.000000 0.006455
# 5 -0.003227 0.003227 0.000000 0.000000 0.075465 0.000000
# 6 0.000000 0.000000 0.000000 0.006455 0.000000 0.032647
#
#
# Mechanical properties :
#
#
# Convention : Reuss Voigt Hill
#
# Bulk Modulus (GPa) = 27.23362 52.63761 39.93561
# Shear Modulus (GPa) = 20.02424 29.40326 24.71375
#
# Velocity S-wave (km/s) = 3.17599 3.84856 3.52834
# Velocity P-wave (km/s) = 5.21227 6.80176 6.05936
#
# Compressibility (1/GPa) = 0.03671932
#
# Stress axis : x y z
#
# Youngs Moduli (GPa) = 50.71427 50.71427 170.56052
#
# Poissons Ratio (x) = -0.17216 0.65536
# Poissons Ratio (y) = -0.17216 0.65536
# Poissons Ratio (z) = 0.19486 0.19486
#
# Static dielectric constant tensor:
#      x y z
#    x 1.719840 0.000000 0.000000 
#    y 0.000000 1.719840 0.000000 
#    z 0.000000 0.000000 1.665870 
# 
# From -- ./inp_files/1269.got.cif
#   From: 2010.05.17/outbox.cif.g08.bks.cpg/sg159_cif.got.tgz:1269.got - 2010.05.20 10:50:30.
