data_PCOD9577427
_publ_section_title
;
Structure prediction by ZEFSAII (Michael W. Deem and Ramdas Pophale) SiO2 
 PCOD9577427
Probable space group: P 3 1 C
;
_chemical_formula_sum "Si O2"
_cell_formula_units_Z 42
_cell_length_a 8.533548
_cell_length_b 8.533548
_cell_length_c 32.813246
_cell_angle_alpha 90.000000
_cell_angle_beta 90.000000
_cell_angle_gamma 120.000000
_cell_volume 2069.374521
_symmetry_space_group_name_H-M "P 3 1 C"
_symmetry_group_IT_number 159
_symmetry_cell_setting 'hexagonal'
loop_
_space_group_symop_operation_xyz
x,y,z
-y,x-y,z
-x+y,-x,z
y,x,1/2+z
x-y,-y,1/2+z
-x,-x+y,1/2+z
loop_
_atom_site_type_symbol
_atom_site_label
_atom_site_fract_x
_atom_site_fract_y
_atom_site_fract_z
Si Si1 0.010162 0.669950 0.710270
Si Si2 0.670762 0.542551 0.932454
Si Si3 0.674751 0.664092 0.675814
Si Si4 0.023926 0.218353 0.086054
Si Si5 0.659871 0.989788 0.806946
Si Si6 0.009160 0.335848 0.341485
Si Si7 0.675255 0.544519 0.506925
O O1 0.033983 0.676249 0.758605
O O2 0.862728 0.725936 0.698714
O O3 0.940934 0.472295 0.691796
O O4 0.197406 0.806661 0.688863
O O5 0.499438 0.335793 0.934272
O O6 0.679014 0.634139 0.889458
O O7 0.651920 0.655616 0.969034
O O8 0.715367 0.681274 0.627907
O O9 0.044678 0.342547 0.047810
O O10 0.177677 0.157849 0.085291
O O11 0.726635 0.863860 0.827783
O O12 0.468493 0.940752 0.825722
O O13 0.803441 0.194393 0.818948
O O14 0.502046 0.340187 0.505824
#
# Coordination Sequence:
#
# PCOD9577427 Si02
#       7
#     6   6   6   6   6   6   6
#     4  12  24  42  67  99 138 182 234 291 348 412
#     4  10  23  46  70  95 137 176 221 268 349 408
#     4  12  25  45  68 100 137 185 233 288 353 415
#     4  10  23  46  70  95 135 179 220 275 346 408
#     4  12  24  42  67  99 138 182 234 291 348 407
#     4  12  25  45  68 100 137 185 233 288 348 417
#     4  10  26  40  72 104 134 167 227 283 338 417
#
# _framework density 20.29599
#
# number of rings (size 3 to 8) (size 9 to 14) (size 15 to 20)
#    0.857    0.000    2.857    4.286    6.000    0.000 
#    0.000    0.000    0.000    0.000    0.000    0.000 
#    0.000    0.000    0.000    0.000    0.000    0.000 
#
# Total GULP energy -234558.634282 kJ/mol
# GULP energy per Si atom -5584.729388 kJ/mol
# Density = 2.024980 g / cm^3
# Si number density = 20.295990 Si / 1000 Ang^3
#
#
#
# Elastic Constant Matrix: (Units=GPa)
#
#
# Indices 1 2 3 4 5 6 
#
# 1 72.5185 9.2396 43.0890 0.0000 21.0138 0.0000
# 2 9.2396 72.5185 43.0890 0.0000 -21.0138 0.0000
# 3 43.0890 43.0890 182.0438 0.0000 0.0000 0.0000
# 4 0.0000 0.0000 0.0000 54.6904 0.0000 -21.0138
# 5 21.0138 -21.0138 0.0000 0.0000 54.6904 0.0000
# 6 0.0000 0.0000 0.0000 -21.0138 0.0000 31.6394
#
#
#
# Elastic Compliance Matrix: (Units=1/GPa)
#
#
# Indices 1 2 3 4 5 6 
#
# 1 0.018757 -0.002460 -0.003857 0.000000 -0.008153 0.000000
# 2 -0.002460 0.018757 -0.003857 0.000000 0.008153 0.000000
# 3 -0.003857 -0.003857 0.007319 0.000000 0.000000 0.000000
# 4 0.000000 0.000000 0.000000 0.024550 0.000000 0.016305
# 5 -0.008153 0.008153 0.000000 0.000000 0.024550 0.000000
# 6 0.000000 0.000000 0.000000 0.016305 0.000000 0.042435
#
#
# Mechanical properties :
#
#
# Convention : Reuss Voigt Hill
#
# Bulk Modulus (GPa) = 40.84332 57.54623 49.19478
# Shear Modulus (GPa) = 30.32498 43.64825 36.98662
#
# Velocity S-wave (km/s) = 3.86960 4.64247 4.27354
# Velocity P-wave (km/s) = 6.33503 7.55988 6.97439
#
# Compressibility (1/GPa) = 0.02448381
#
# Stress axis : x y z
#
# Youngs Moduli (GPa) = 53.31213 53.31213 136.62534
#
# Poissons Ratio (x) = 0.13116 0.52703
# Poissons Ratio (y) = 0.13116 0.52703
# Poissons Ratio (z) = 0.20565 0.20565
#
# Static dielectric constant tensor:
#      x y z
#    x 1.272980 0.000000 0.000000 
#    y 0.000000 1.272980 0.000000 
#    z 0.000000 0.000000 1.666720 
# 
# From -- ./inp_files/1308.got.cif
#   From: 2010.05.17/outbox.cif.g08.bks.cpg/sg159_cif.got.tgz:1308.got - 2010.05.20 10:50:30.
