data_PCOD9577983
_publ_section_title
;
Structure prediction by ZEFSAII (Michael W. Deem and Ramdas Pophale) SiO2 
 PCOD9577983
Probable space group: P -3 1 C
;
_chemical_formula_sum "Si O2"
_cell_formula_units_Z 64
_cell_length_a 26.172083
_cell_length_b 26.172083
_cell_length_c 10.514601
_cell_angle_alpha 90.000000
_cell_angle_beta 90.000000
_cell_angle_gamma 120.000000
_cell_volume 6237.348449
_symmetry_space_group_name_H-M "P -3 1 C"
_symmetry_group_IT_number 163
_symmetry_cell_setting 'hexagonal'
loop_
_space_group_symop_operation_xyz
x,y,z
-y,x-y,z
-x+y,-x,z
-y,-x,1/2-z
-x+y,y,1/2-z
x,x-y,1/2-z
-x,-y,-z
y,-x+y,-z
x-y,x,-z
y,x,1/2+z
x-y,-y,1/2+z
-x,-x+y,1/2+z
loop_
_atom_site_type_symbol
_atom_site_label
_atom_site_fract_x
_atom_site_fract_y
_atom_site_fract_z
Si Si1 0.469157 0.734578 0.903921
Si Si2 0.410951 0.945152 0.750000
Si Si3 0.920512 0.398503 0.750000
Si Si4 0.507982 0.140306 0.016242
Si Si5 0.666667 0.333333 0.096374
Si Si6 0.492018 0.859694 0.516243
O O1 0.472653 0.736327 0.750000
O O2 0.493686 0.800446 0.954556
O O3 0.400607 0.700304 0.943844
O O4 0.493686 0.693240 0.954555
O O5 0.474558 0.949115 0.750000
O O6 0.379316 0.907856 0.624588
O O7 0.379316 0.907856 0.875412
O O8 0.424714 0.012117 0.750000
O O9 0.924086 0.462043 0.750000
O O10 0.885994 0.368057 0.621508
O O11 0.885995 0.368057 0.878492
O O12 0.575786 0.151572 0.023337
O O13 0.666668 0.333334 0.250000
#
# Coordination Sequence:
#
# PCOD9577983 Si02
#       6
#    12  12  12  12   4  12
#     4  11  18  27  39  55  67  84 115 135 156 196
#     4   9  16  27  42  54  64  83 109 133 158 190
#     4   9  18  29  38  52  70  83 103 135 166 192
#     4  10  18  27  40  54  68  87 107 131 162 194
#     4   9  18  24  39  49  62  91 111 136 152 190
#     4  10  18  27  40  54  68  87 107 131 162 194
#
# _framework density 10.260771
#
# number of rings (size 3 to 8) (size 9 to 14) (size 15 to 20)
#    0.000    2.250    3.750    1.125    0.000    5.250 
#    0.000    0.000    0.000    0.000    0.000    0.000 
#    0.000    0.000    0.000    0.000    0.000    0.000 
#
# Total GULP energy -356358.659577 kJ/mol
# GULP energy per Si atom -5568.104056 kJ/mol
# Density = 1.023742 g / cm^3
# Si number density = 10.260771 Si / 1000 Ang^3
#
#
#
# Elastic Constant Matrix: (Units=GPa)
#
#
# Indices 1 2 3 4 5 6 
#
# 1 61.6416 35.7610 42.6422 0.0000 0.0000 0.0000
# 2 35.7610 61.6416 42.6421 0.0000 0.0000 0.0000
# 3 42.6422 42.6421 104.5753 0.0000 0.0000 0.0000
# 4 0.0000 0.0000 0.0000 8.8632 0.0000 0.0000
# 5 0.0000 0.0000 0.0000 0.0000 8.8632 0.0000
# 6 0.0000 0.0000 0.0000 0.0000 0.0000 12.9403
#
#
#
# Elastic Compliance Matrix: (Units=1/GPa)
#
#
# Indices 1 2 3 4 5 6 
#
# 1 0.027303 -0.011336 -0.006511 0.000000 0.000000 0.000000
# 2 -0.011336 0.027303 -0.006511 0.000000 0.000000 0.000000
# 3 -0.006511 -0.006511 0.014872 0.000000 0.000000 0.000000
# 4 0.000000 0.000000 0.000000 0.112826 0.000000 0.000000
# 5 0.000000 0.000000 0.000000 0.000000 0.112827 0.000000
# 6 0.000000 0.000000 0.000000 0.000000 0.000000 0.077278
#
#
# Mechanical properties :
#
#
# Convention : Reuss Voigt Hill
#
# Bulk Modulus (GPa) = 48.16132 52.21654 50.18893
# Shear Modulus (GPa) = 11.68098 13.25422 12.46760
#
# Velocity S-wave (km/s) = 3.37770 3.59797 3.48957
# Velocity P-wave (km/s) = 7.88993 8.26199 8.07810
#
# Compressibility (1/GPa) = 0.02076355
#
# Stress axis : x y z
#
# Youngs Moduli (GPa) = 36.62566 36.62570 67.23847
#
# Poissons Ratio (x) = 0.41517 0.43779
# Poissons Ratio (y) = 0.41517 0.43779
# Poissons Ratio (z) = 0.23847 0.23847
#
# Static dielectric constant tensor:
#      x y z
#    x 1.316800 0.000000 0.000000 
#    y 0.000000 1.316800 0.000000 
#    z 0.000000 0.000000 1.339970 
# 
# From -- ./inp_files/1808.got.cif
#   From: 2010.05.17/outbox.cif.g08.bks.cpg/sg163_1_cif.got.tgz:1808.got - 2010.05.20 10:56:03.
