data_PCOD9577187
_publ_section_title
;
Structure prediction by ZEFSAII (Michael W. Deem and Ramdas Pophale) SiO2 
 PCOD9577187
Probable space group: R 3 2
;
_chemical_formula_sum "Si O2"
_cell_formula_units_Z 38
_cell_length_a 21.000000
_cell_length_b 21.000000
_cell_length_c 15.000000
_cell_angle_alpha 90.000000
_cell_angle_beta 90.000000
_cell_angle_gamma 120.000000
_cell_volume 5728.758046
_symmetry_space_group_name_H-M "R 3 2"
_symmetry_group_IT_number 155
_symmetry_cell_setting 'hexagonal'
loop_
_space_group_symop_operation_xyz
x,y,z
-y,x-y,z
-x+y,-x,z
x-y,-y,-z
-x,-x+y,-z
y,x,-z
2/3+x,1/3+y,1/3+z
2/3-y,1/3+x-y,1/3+z
2/3-x+y,1/3-x,1/3+z
2/3+x-y,1/3-y,1/3-z
2/3-x,1/3-x+y,1/3-z
2/3+y,1/3+x,1/3-z
1/3+x,2/3+y,2/3+z
1/3-y,2/3+x-y,2/3+z
1/3-x+y,2/3-x,2/3+z
1/3+x-y,2/3-y,2/3-z
1/3-x,2/3-x+y,2/3-z
1/3+y,2/3+x,2/3-z
loop_
_atom_site_type_symbol
_atom_site_label
_atom_site_fract_x
_atom_site_fract_y
_atom_site_fract_z
Si Si1 0.237778 0.416521 0.318752
Si Si2 0.666668 0.333334 0.222657
Si Si3 0.485612 0.401940 0.651763
Si Si4 0.908844 0.159081 0.153887
Si Si5 0.750141 0.498712 0.853928
Si Si6 0.835062 0.893703 0.185941
Si Si7 0.914561 0.751474 0.974434
O O1 0.174052 0.333334 0.333334
O O2 0.316588 0.426143 0.343407
O O3 0.239217 0.438624 0.216564
O O4 0.236044 0.478171 0.381681
O O5 0.666668 0.333334 0.333334
O O6 0.633173 0.382377 0.182728
O O7 0.516104 0.429334 0.552734
O O8 0.554079 0.415992 0.714291
O O9 0.450396 0.448448 0.689591
O O10 0.892376 0.225710 0.166667
O O11 0.988910 0.176232 0.180154
O O12 0.894375 0.129584 0.053345
O O13 0.666667 0.473276 0.833334
O O14 0.765971 0.432638 0.833334
O O15 0.780599 0.902407 0.118327
O O16 0.000000 0.794676 0.000000
#
# Coordination Sequence:
#
# PCOD9577187 Si02
#       7
#    18   6  18  18  18  18  18
#     4  11  23  39  59  85 116 153 202 249 294 357
#     4  12  24  39  66  99 133 164 205 264 327 399
#     4  10  21  39  60  83 113 152 194 246 300 349
#     4  10  22  39  59  85 119 156 197 240 297 376
#     4  10  21  37  58  82 112 148 192 242 292 348
#     4  12  23  39  61  90 124 159 198 250 313 370
#     4  11  21  36  60  88 118 150 189 241 302 371
#
# _framework density 6.6332000000000004
#
# number of rings (size 3 to 8) (size 9 to 14) (size 15 to 20)
#    0.000    1.263    0.000    7.263    0.000    1.263 
#    0.000   12.632    0.000    0.000    0.000    0.000 
#    0.000    0.000    0.000    0.000    0.000    0.000 
#
# Total GULP energy -212388.249936 kJ/mol
# GULP energy per Si atom -5589.164472 kJ/mol
# Density = 0.661810 g / cm^3
# Si number density = 6.633200 Si / 1000 Ang^3
#
#
#
# Elastic Constant Matrix: (Units=GPa)
#
#
# Indices 1 2 3 4 5 6 
#
# 1 49.7683 22.9233 -9.5968 -4.2610 0.0004 0.0000
# 2 22.9233 49.7677 -9.5966 4.2608 -0.0004 0.0000
# 3 -9.5968 -9.5966 52.6633 0.0000 0.0000 0.0000
# 4 -4.2610 4.2608 0.0000 13.0667 0.0000 -0.0004
# 5 0.0004 -0.0004 0.0000 0.0000 13.0667 -4.2611
# 6 0.0000 0.0000 0.0000 -0.0004 -4.2611 13.4224
#
#
#
# Elastic Compliance Matrix: (Units=1/GPa)
#
#
# Indices 1 2 3 4 5 6 
#
# 1 0.028002 -0.013550 0.002634 0.013550 -0.000001 0.000000
# 2 -0.013550 0.028003 0.002634 -0.013550 0.000001 0.000000
# 3 0.002634 0.002634 0.019948 0.000000 0.000000 0.000000
# 4 0.013550 -0.013550 0.000000 0.085367 0.000000 0.000003
# 5 -0.000001 0.000001 0.000000 0.000000 0.085368 0.027101
# 6 0.000000 0.000000 0.000000 0.000003 0.027101 0.083106
#
#
# Mechanical properties :
#
#
# Convention : Reuss Voigt Hill
#
# Bulk Modulus (GPa) = 16.83867 17.73988 17.28927
# Shear Modulus (GPa) = 13.65537 17.80912 15.73224
#
# Velocity S-wave (km/s) = 2.62241 2.99481 2.81478
# Velocity P-wave (km/s) = 4.20114 4.57084 4.38988
#
# Compressibility (1/GPa) = 0.05938713
#
# Stress axis : x y z
#
# Youngs Moduli (GPa) = 35.71133 35.71104 50.12938
#
# Poissons Ratio (x) = 0.48389 -0.13202
# Poissons Ratio (y) = 0.48390 -0.13202
# Poissons Ratio (z) = -0.09405 -0.09405
#
# Static dielectric constant tensor:
#      x y z
#    x 1.696330 0.000000 0.000000 
#    y 0.000000 1.696330 0.000000 
#    z 0.000000 0.000000 1.685740 
# 
# From -- ./inp_files/5200.got.cif
#   From: 2010.05.17/outbox.ucp.g08.bks.cvg/sg155_3_cif.got.tgz:5200.got - 2010.06.11 15:13:48.
