data_PCOD9577151
_publ_section_title
;
Structure prediction by ZEFSAII (Michael W. Deem and Ramdas Pophale) SiO2 
 PCOD9577151
Probable space group: R 3 2
;
_chemical_formula_sum "Si O2"
_cell_formula_units_Z 84
_cell_length_a 17.722401
_cell_length_b 17.722401
_cell_length_c 13.980492
_cell_angle_alpha 90.000000
_cell_angle_beta 90.000000
_cell_angle_gamma 120.000000
_cell_volume 3802.753765
_symmetry_space_group_name_H-M "R 3 2"
_symmetry_group_IT_number 155
_symmetry_cell_setting 'hexagonal'
loop_
_space_group_symop_operation_xyz
x,y,z
-y,x-y,z
-x+y,-x,z
x-y,-y,-z
-x,-x+y,-z
y,x,-z
2/3+x,1/3+y,1/3+z
2/3-y,1/3+x-y,1/3+z
2/3-x+y,1/3-x,1/3+z
2/3+x-y,1/3-y,1/3-z
2/3-x,1/3-x+y,1/3-z
2/3+y,1/3+x,1/3-z
1/3+x,2/3+y,2/3+z
1/3-y,2/3+x-y,2/3+z
1/3-x+y,2/3-x,2/3+z
1/3+x-y,2/3-y,2/3-z
1/3-x,2/3-x+y,2/3-z
1/3+y,2/3+x,2/3-z
loop_
_atom_site_type_symbol
_atom_site_label
_atom_site_fract_x
_atom_site_fract_y
_atom_site_fract_z
Si Si1 0.884901 0.218234 0.166667
Si Si2 0.936033 0.126208 0.587432
Si Si3 0.646849 0.646849 0.000000
Si Si4 0.919006 0.669937 0.779103
Si Si5 0.666667 0.333333 0.717222
Si Si6 0.172298 0.687319 0.781817
Si Si7 0.666667 0.333334 0.219108
O O1 0.943381 0.281240 0.255035
O O2 0.785308 0.196681 0.187094
O O3 0.842164 0.095933 0.541115
O O4 0.950437 0.053735 0.642026
O O5 0.000000 0.152464 0.500000
O O6 0.960719 0.216855 0.637866
O O7 0.930510 0.666667 0.666667
O O8 0.988593 0.655260 0.833334
O O9 0.941942 0.761755 0.823494
O O10 0.666668 0.333334 0.833334
O O11 0.150692 0.666667 0.666667
O O12 0.258140 0.685053 0.808454
O O13 0.666668 0.333334 0.333334
#
# Coordination Sequence:
#
# PCOD9577151 Si02
#       7
#     9  18   9  18   6  18   6
#     4  12  30  50  80 112 156 212 262 332 396 478
#     4  11  24  46  74 106 148 196 245 317 382 475
#     4  12  28  48  74 114 154 206 262 318 404 472
#     4  12  26  46  71 109 150 197 251 313 388 468
#     4   9  21  45  73 107 139 196 248 304 391 452
#     4  11  27  49  77 116 149 204 260 328 401 465
#     4   9  24  45  79 107 149 191 250 330 379 455
#
# _framework density 22.089257
#
# number of rings (size 3 to 8) (size 9 to 14) (size 15 to 20)
#    0.000    0.857    3.214    2.571   10.500    1.714 
#    0.000    2.143    0.000    0.000    0.000    0.000 
#    0.000    0.000    0.000    0.000    0.000    0.000 
#
# Total GULP energy -155984.800293 kJ/mol
# GULP energy per Si atom -5570.885725 kJ/mol
# Density = 2.203898 g / cm^3
# Si number density = 22.089257 Si / 1000 Ang^3
#
#
#
# Elastic Constant Matrix: (Units=GPa)
#
#
# Indices 1 2 3 4 5 6 
#
# 1 176.3644 98.7881 42.2982 21.0617 0.0021 -0.0014
# 2 98.7881 176.3679 42.3007 -21.0607 -0.0032 0.0022
# 3 42.2982 42.3007 104.3679 0.0006 0.0005 -0.0004
# 4 21.0617 -21.0607 0.0006 -10.3259 -0.0016 0.0010
# 5 0.0021 -0.0032 0.0005 -0.0016 -10.3405 21.0695
# 6 -0.0014 0.0022 -0.0004 0.0010 21.0695 38.7847
#
#
#
# Elastic Compliance Matrix: (Units=1/GPa)
#
#
# Indices 1 2 3 4 5 6 
#
# 1 0.005134 -0.000982 -0.001683 0.012476 0.000000 0.000000
# 2 -0.000982 0.005134 -0.001683 -0.012475 0.000000 0.000000
# 3 -0.001683 -0.001683 0.010945 0.000001 0.000001 0.000000
# 4 0.012476 -0.012475 0.000001 -0.045953 0.000009 -0.000002
# 5 0.000000 0.000000 0.000001 0.000009 -0.045900 0.024935
# 6 0.000000 0.000000 0.000000 -0.000002 0.024935 0.012238
#
#
# Mechanical properties :
#
#
# Convention : Reuss Voigt Hill
#
# Bulk Modulus (GPa) = 79.88370 91.54157 85.71264
# Shear Modulus (GPa) = -109.80826 21.87122 -43.96852
#
# Velocity S-wave (km/s) = -7.05826 3.15005 -4.46633
# Velocity P-wave (km/s) = 5.49389 7.40014 3.50565
#
# Compressibility (1/GPa) = 0.01251820
#
# Stress axis : x y z
#
# Youngs Moduli (GPa) = 194.77739 194.77695 91.36254
#
# Poissons Ratio (x) = 0.19135 0.15373
# Poissons Ratio (y) = 0.19135 0.15373
# Poissons Ratio (z) = 0.32774 0.32774
#
# Static dielectric constant tensor:
#      x y z
#    x 1.893770 0.000000 0.000000 
#    y 0.000000 1.893780 0.000000 
#    z 0.000000 0.000000 1.848490 
# 
# From -- ./inp_files/5032.got.cif
#   From: 2010.05.17/outbox.cif.g08.bks.cpg/sg155_3_cif.got.tgz:5032.got - 2010.05.20 10:44:35.
