data_PCOD9577803
_publ_section_title
;
Structure prediction by ZEFSAII (Michael W. Deem and Ramdas Pophale) SiO2 
 PCOD9577803
Probable space group: P -3 1 M 
;
_chemical_formula_sum "Si O2"
_cell_formula_units_Z 64
_cell_length_a 14.405216
_cell_length_b 14.405216
_cell_length_c 19.043654
_cell_angle_alpha 90.000000
_cell_angle_beta 90.000000
_cell_angle_gamma 120.000000
_cell_volume 3422.318803
_symmetry_space_group_name_H-M "P -3 1 M "
_symmetry_group_IT_number 162
_symmetry_cell_setting 'hexagonal'
loop_
_space_group_symop_operation_xyz
x,y,z
-y,x-y,z
-x+y,-x,z
-y,-x,-z
-x+y,y,-z
x,x-y,-z
-x,-y,-z
y,-x+y,-z
x-y,x,-z
y,x,z
x-y,-y,z
-x,-x+y,z
loop_
_atom_site_type_symbol
_atom_site_label
_atom_site_fract_x
_atom_site_fract_y
_atom_site_fract_z
Si Si1 0.874124 0.128845 0.075951
Si Si2 0.570510 0.121075 0.831214
Si Si3 0.879078 0.234897 0.789296
Si Si4 0.333333 0.666668 0.083322
Si Si5 0.872099 0.332856 0.468585
Si Si6 0.307043 0.432719 0.693710
O O1 0.847620 0.172168 0.146010
O O2 0.000000 0.171284 0.073849
O O3 0.807177 0.000000 0.080705
O O4 0.843436 0.156565 0.000000
O O5 0.459854 0.118420 0.815450
O O6 0.635038 0.216511 0.885642
O O7 0.630421 0.146610 0.756249
O O8 0.538186 0.000000 0.853462
O O9 0.814694 0.193579 0.717866
O O10 0.000000 0.262888 0.778398
O O11 0.333334 0.666667 0.000000
O O12 0.782483 0.217518 0.500000
O O13 0.856753 0.428377 0.500000
O O14 0.852216 0.328363 0.384798
O O15 0.000000 0.372092 0.479412
O O16 0.347326 0.347326 0.697057
#
# Coordination Sequence:
#
# PCOD9577803 Si02
#       6
#    12  12  12   4  12  12
#     4   9  17  30  50  77 109 144 185 235 288 337
#     4  10  22  40  58  80 110 148 192 237 286 340
#     4  10  20  34  56  82 108 146 191 234 284 339
#     4  12  24  39  60  84 112 152 196 243 297 348
#     4  10  23  40  62  95 127 158 197 242 298 357
#     4  10  21  38  59  83 115 151 191 234 282 346
#
# _framework density 18.700772000000001
#
# number of rings (size 3 to 8) (size 9 to 14) (size 15 to 20)
#    0.000    2.062    1.875    0.938    2.625    2.625 
#    0.000    0.000    0.000    0.562    0.000    0.000 
#    0.000    0.000    0.000    0.000    0.000    0.188 
#
# Total GULP energy -356825.007583 kJ/mol
# GULP energy per Si atom -5575.390743 kJ/mol
# Density = 1.865821 g / cm^3
# Si number density = 18.700772 Si / 1000 Ang^3
#
#
#
# Elastic Constant Matrix: (Units=GPa)
#
#
# Indices 1 2 3 4 5 6 
#
# 1 72.4235 26.9997 64.0465 0.0000 0.4637 0.0000
# 2 26.9997 72.4236 64.0463 0.0001 -0.4636 -0.0001
# 3 64.0465 64.0463 123.6532 0.0001 0.0000 -0.0004
# 4 0.0000 0.0001 0.0001 26.6091 0.0000 -0.4637
# 5 0.4637 -0.4636 0.0000 0.0000 26.6091 0.0000
# 6 0.0000 -0.0001 -0.0004 -0.4637 0.0000 22.7118
#
#
#
# Elastic Compliance Matrix: (Units=1/GPa)
#
#
# Indices 1 2 3 4 5 6 
#
# 1 0.026128 0.004105 -0.015659 0.000000 -0.000384 0.000000
# 2 0.004105 0.026127 -0.015659 0.000000 0.000384 0.000000
# 3 -0.015659 -0.015659 0.024308 0.000000 0.000000 0.000000
# 4 0.000000 0.000000 0.000000 0.037594 0.000000 0.000768
# 5 -0.000384 0.000384 0.000000 0.000000 0.037595 0.000000
# 6 0.000000 0.000000 0.000000 0.000768 0.000000 0.044046
#
#
# Mechanical properties :
#
#
# Convention : Reuss Voigt Hill
#
# Bulk Modulus (GPa) = 45.17273 64.29839 54.73556
# Shear Modulus (GPa) = 19.40974 22.74652 21.07813
#
# Velocity S-wave (km/s) = 3.22516 3.49139 3.36091
# Velocity P-wave (km/s) = 6.17064 7.12113 6.66286
#
# Compressibility (1/GPa) = 0.02213725
#
# Stress axis : x y z
#
# Youngs Moduli (GPa) = 38.27371 38.27414 41.13845
#
# Poissons Ratio (x) = -0.15710 0.64418
# Poissons Ratio (y) = -0.15710 0.64418
# Poissons Ratio (z) = 0.59932 0.59932
#
# Static dielectric constant tensor:
#      x y z
#    x 1.671560 0.000000 0.000000 
#    y 0.000000 1.671560 0.000000 
#    z 0.000000 0.000000 1.643740 
# 
# From -- ./inp_files/3459.got.cif
#   From: 2010.05.17/outbox.cif.g08.bks.cpg/sg162_2_cif.got.tgz:3459.got - 2010.05.20 10:53:12.
