data_PCOD9577008
_publ_section_title
;
Structure prediction by ZEFSAII (Michael W. Deem and Ramdas Pophale) SiO2 
 PCOD9577008
Probable space group: R 3 2
;
_chemical_formula_sum "Si O2"
_cell_formula_units_Z 72
_cell_length_a 21.611145
_cell_length_b 21.611145
_cell_length_c 8.326672
_cell_angle_alpha 90.000000
_cell_angle_beta 90.000000
_cell_angle_gamma 120.000000
_cell_volume 3367.888025
_symmetry_space_group_name_H-M "R 3 2"
_symmetry_group_IT_number 155
_symmetry_cell_setting 'hexagonal'
loop_
_space_group_symop_operation_xyz
x,y,z
-y,x-y,z
-x+y,-x,z
x-y,-y,-z
-x,-x+y,-z
y,x,-z
2/3+x,1/3+y,1/3+z
2/3-y,1/3+x-y,1/3+z
2/3-x+y,1/3-x,1/3+z
2/3+x-y,1/3-y,1/3-z
2/3-x,1/3-x+y,1/3-z
2/3+y,1/3+x,1/3-z
1/3+x,2/3+y,2/3+z
1/3-y,2/3+x-y,2/3+z
1/3-x+y,2/3-x,2/3+z
1/3+x-y,2/3-y,2/3-z
1/3-x,2/3-x+y,2/3-z
1/3+y,2/3+x,2/3-z
loop_
_atom_site_type_symbol
_atom_site_label
_atom_site_fract_x
_atom_site_fract_y
_atom_site_fract_z
Si Si1 0.809863 0.048618 0.361155
Si Si2 0.827189 0.246216 0.188699
Si Si3 0.845860 0.601645 0.492618
Si Si4 0.748641 0.793407 0.335432
O O1 0.884930 0.104728 0.290156
O O2 0.775693 0.094818 0.431286
O O3 0.812197 0.000000 0.500000
O O4 0.765573 0.991679 0.221120
O O5 0.876314 0.209647 0.166667
O O6 0.778144 0.208743 0.343147
O O7 0.877765 0.328870 0.151445
O O8 0.788737 0.591722 0.633869
O O9 0.783276 0.783276 0.500000
O O10 0.666667 0.729993 0.333334
#
# Coordination Sequence:
#
# PCOD9577008 Si02
#       4
#    18  18  18  18
#     4  11  22  38  59  91 130 171 220 270 330 396
#     4  10  22  38  59  90 127 170 216 268 329 393
#     4  11  24  40  61  92 130 175 219 273 334 398
#     4  12  23  40  64  95 131 172 218 271 333 399
#
# _framework density 21.378382999999999
#
# number of rings (size 3 to 8) (size 9 to 14) (size 15 to 20)
#    0.000    1.000    0.000    9.000    0.000    9.000 
#    0.000    0.000    0.000    1.000    0.000   14.000 
#    0.000    0.000    0.000    0.000    0.000    0.000 
#
# Total GULP energy -133766.166129 kJ/mol
# GULP energy per Si atom -5573.590255 kJ/mol
# Density = 2.132972 g / cm^3
# Si number density = 21.378383 Si / 1000 Ang^3
#
#
#
# Elastic Constant Matrix: (Units=GPa)
#
#
# Indices 1 2 3 4 5 6 
#
# 1 112.2512 53.7695 51.9134 1.6273 0.0003 0.0006
# 2 53.7695 112.2526 51.9061 -1.6272 -0.0026 -0.0008
# 3 51.9134 51.9061 102.7751 0.0029 0.0071 0.0036
# 4 1.6273 -1.6272 0.0029 42.6145 0.0014 0.0006
# 5 0.0003 -0.0026 0.0071 0.0014 42.6164 1.6283
# 6 0.0006 -0.0008 0.0036 0.0006 1.6283 29.2415
#
#
#
# Elastic Compliance Matrix: (Units=1/GPa)
#
#
# Indices 1 2 3 4 5 6 
#
# 1 0.012970 -0.004166 -0.004448 -0.000654 0.000000 0.000000
# 2 -0.004166 0.012969 -0.004446 0.000655 0.000001 0.000001
# 3 -0.004448 -0.004446 0.014222 -0.000001 -0.000003 -0.000002
# 4 -0.000654 0.000655 -0.000001 0.023516 -0.000001 0.000000
# 5 0.000000 0.000001 -0.000003 -0.000001 0.023515 -0.001309
# 6 0.000000 0.000001 -0.000002 0.000000 -0.001309 0.034271
#
#
# Mechanical properties :
#
#
# Convention : Reuss Voigt Hill
#
# Bulk Modulus (GPa) = 71.20990 71.38411 71.29701
# Shear Modulus (GPa) = 32.83782 34.20711 33.52247
#
# Velocity S-wave (km/s) = 3.92347 4.00444 3.96416
# Velocity P-wave (km/s) = 7.34210 7.40567 7.37396
#
# Compressibility (1/GPa) = 0.01404299
#
# Stress axis : x y z
#
# Youngs Moduli (GPa) = 77.09826 77.10587 70.31396
#
# Poissons Ratio (x) = 0.32121 0.31273
# Poissons Ratio (y) = 0.32117 0.31261
# Poissons Ratio (z) = 0.34291 0.34280
#
# Static dielectric constant tensor:
#      x y z
#    x 1.774280 0.000000 0.000000 
#    y 0.000000 1.774280 0.000000 
#    z 0.000000 0.000000 1.947030 
# 
# From -- ./inp_files/2130.got.cif
#   From: 2010.05.17/outbox.cif.g08.bks.cpg/sg155_2_cif.got.tgz:2130.got - 2010.05.20 10:44:35.
