data_PCOD9577104
_publ_section_title
;
Structure prediction by ZEFSAII (Michael W. Deem and Ramdas Pophale) SiO2 
 PCOD9577104
Probable space group: R 3 2
;
_chemical_formula_sum "Si O2"
_cell_formula_units_Z 126
_cell_length_a 22.719928
_cell_length_b 22.719928
_cell_length_c 17.978863
_cell_angle_alpha 90.000000
_cell_angle_beta 90.000000
_cell_angle_gamma 120.000000
_cell_volume 8037.236656
_symmetry_space_group_name_H-M "R 3 2"
_symmetry_group_IT_number 155
_symmetry_cell_setting 'hexagonal'
loop_
_space_group_symop_operation_xyz
x,y,z
-y,x-y,z
-x+y,-x,z
x-y,-y,-z
-x,-x+y,-z
y,x,-z
2/3+x,1/3+y,1/3+z
2/3-y,1/3+x-y,1/3+z
2/3-x+y,1/3-x,1/3+z
2/3+x-y,1/3-y,1/3-z
2/3-x,1/3-x+y,1/3-z
2/3+y,1/3+x,1/3-z
1/3+x,2/3+y,2/3+z
1/3-y,2/3+x-y,2/3+z
1/3-x+y,2/3-x,2/3+z
1/3+x-y,2/3-y,2/3-z
1/3-x,2/3-x+y,2/3-z
1/3+y,2/3+x,2/3-z
loop_
_atom_site_type_symbol
_atom_site_label
_atom_site_fract_x
_atom_site_fract_y
_atom_site_fract_z
Si Si1 0.071647 0.728306 0.542665
Si Si2 0.383390 0.236348 0.598822
Si Si3 0.909293 0.071141 0.226289
Si Si4 0.409852 0.819111 0.691958
Si Si5 0.932052 0.084817 0.797413
Si Si6 0.747225 0.929523 0.910664
Si Si7 0.205565 0.268833 0.694537
O O1 0.123128 0.776871 0.480305
O O2 0.090788 0.671840 0.569207
O O3 0.067101 0.767807 0.613549
O O4 0.000000 0.689140 0.500000
O O5 0.333334 0.197842 0.666667
O O6 0.445902 0.224307 0.583739
O O7 0.416018 0.317921 0.612740
O O8 0.866814 0.079212 0.158119
O O9 0.871726 0.080519 0.297383
O O10 0.988697 0.120347 0.218025
O O11 0.895187 0.994302 0.223565
O O12 0.333334 0.794896 0.666667
O O13 0.427728 0.761061 0.666667
O O14 0.413759 0.829899 0.780371
O O15 0.466944 0.884322 0.647965
O O16 0.666186 0.885163 0.921251
#
# Coordination Sequence:
#
# PCOD9577104 Si02
#       7
#    18  18  18  18  18  18  18
#     4  12  19  31  53  85 119 136 167 223 288 350
#     4  11  20  33  54  83 107 140 179 226 281 329
#     4  11  22  35  51  76 106 151 190 219 265 313
#     4  12  20  31  47  74 112 155 186 213 252 317
#     4  11  21  35  50  74 111 146 189 222 255 320
#     4  12  19  30  51  78 118 144 171 213 275 338
#     4  11  21  32  52  81 113 142 173 222 284 337
#
# _framework density 15.67703
#
# number of rings (size 3 to 8) (size 9 to 14) (size 15 to 20)
#    0.000    0.571    8.571    3.000    0.000    0.000 
#    0.000    0.000    0.000    1.714    3.714    0.000 
#    0.000    0.000    0.000    0.000    0.000    0.000 
#
# Total GULP energy -234313.103164 kJ/mol
# GULP energy per Si atom -5578.883409 kJ/mol
# Density = 1.564135 g / cm^3
# Si number density = 15.677030 Si / 1000 Ang^3
#
#
#
# Elastic Constant Matrix: (Units=GPa)
#
#
# Indices 1 2 3 4 5 6 
#
# 1 108.9807 56.2677 56.2438 1.0928 0.0000 0.0000
# 2 56.2677 108.9807 56.2438 -1.0928 0.0000 0.0000
# 3 56.2438 56.2438 90.3954 0.0000 0.0000 0.0000
# 4 1.0928 -1.0928 0.0000 25.4162 0.0000 0.0000
# 5 0.0000 0.0000 0.0000 0.0000 25.4162 1.0928
# 6 0.0000 0.0000 0.0000 0.0000 1.0928 26.3565
#
#
#
# Elastic Compliance Matrix: (Units=1/GPa)
#
#
# Indices 1 2 3 4 5 6 
#
# 1 0.014751 -0.004253 -0.006532 -0.000817 0.000000 0.000000
# 2 -0.004253 0.014751 -0.006532 0.000817 0.000000 0.000000
# 3 -0.006532 -0.006532 0.019190 0.000000 0.000000 0.000000
# 4 -0.000817 0.000817 0.000000 0.039415 0.000000 0.000000
# 5 0.000000 0.000000 0.000000 0.000000 0.039415 -0.001634
# 6 0.000000 0.000000 0.000000 0.000000 -0.001634 0.038009
#
#
# Mechanical properties :
#
#
# Convention : Reuss Voigt Hill
#
# Bulk Modulus (GPa) = 71.12737 71.76304 71.44520
# Shear Modulus (GPa) = 24.40787 24.74456 24.57621
#
# Velocity S-wave (km/s) = 3.95006 3.97721 3.96366
# Velocity P-wave (km/s) = 8.14082 8.18329 8.16208
#
# Compressibility (1/GPa) = 0.01405929
#
# Stress axis : x y z
#
# Youngs Moduli (GPa) = 67.79154 67.79154 52.10926
#
# Poissons Ratio (x) = 0.28834 0.34036
# Poissons Ratio (y) = 0.28834 0.34036
# Poissons Ratio (z) = 0.44279 0.44279
#
# Static dielectric constant tensor:
#      x y z
#    x 1.526910 0.000000 0.000000 
#    y 0.000000 1.526910 0.000000 
#    z 0.000000 0.000000 1.570830 
# 
# From -- ./inp_files/6352.got.cif
#   From: 2010.05.17/outbox.cif.g08.bks.cpg/sg155_4_cif.got.tgz:6352.got - 2010.05.20 10:44:35.
