data_PCOD9577282
_publ_section_title
;
Structure prediction by ZEFSAII (Michael W. Deem and Ramdas Pophale) SiO2 
 PCOD9577282
Probable space group: P 3 C 1
;
_chemical_formula_sum "Si O2"
_cell_formula_units_Z 42
_cell_length_a 19.708959
_cell_length_b 19.708959
_cell_length_c 8.721293
_cell_angle_alpha 90.000000
_cell_angle_beta 90.000000
_cell_angle_gamma 120.000000
_cell_volume 2933.856589
_symmetry_space_group_name_H-M "P 3 C 1"
_symmetry_group_IT_number 158
_symmetry_cell_setting 'hexagonal'
loop_
_space_group_symop_operation_xyz
x,y,z
-y,x-y,z
-x+y,-x,z
-x+y,y,1/2+z
x,x-y,1/2+z
-y,-x,1/2+z
loop_
_atom_site_type_symbol
_atom_site_label
_atom_site_fract_x
_atom_site_fract_y
_atom_site_fract_z
Si Si1 0.679357 0.782134 0.659700
Si Si2 0.499402 0.707801 0.709915
Si Si3 0.536440 0.887948 0.714048
Si Si4 0.700179 0.940579 0.799778
Si Si5 0.986048 0.140688 0.178115
Si Si6 0.147126 0.988012 0.811816
Si Si7 0.159755 0.586243 0.464021
O O1 0.588097 0.720712 0.700173
O O2 0.689051 0.866561 0.698972
O O3 0.693641 0.775376 0.479484
O O4 0.752474 0.789258 0.757509
O O5 0.514759 0.795992 0.705125
O O6 0.444922 0.648547 0.576434
O O7 0.452988 0.664086 0.863678
O O8 0.625426 0.945807 0.751451
O O9 0.502593 0.899154 0.558533
O O10 0.483271 0.888457 0.848661
O O11 0.783024 0.011295 0.750975
O O12 0.906190 0.064205 0.224057
O O13 0.060669 0.141627 0.259812
O O14 0.000074 0.149321 0.995143
#
# Coordination Sequence:
#
# PCOD9577282 Si02
#       7
#     6   6   6   6   6   6   6
#     4  10  19  31  49  63  83 116 149 180 219 268
#     4  10  20  33  45  59  86 111 151 188 236 278
#     4  10  20  33  45  59  86 111 151 188 236 278
#     4  10  19  31  49  63  83 116 149 180 219 268
#     4  11  21  33  49  71  93 117 143 183 220 261
#     4  11  21  33  49  71  93 117 143 183 220 261
#     4  10  20  32  42  62  78 112 142 198 232 270
#
# _framework density 14.315628999999999
#
# number of rings (size 3 to 8) (size 9 to 14) (size 15 to 20)
#    0.000    1.714    1.429    6.286    8.000    0.000 
#   17.143    0.000    0.000    0.000    0.000    0.000 
#    0.000    0.000    0.000    0.000    0.000    0.000 
#
# Total GULP energy -233948.887692 kJ/mol
# GULP energy per Si atom -5570.211612 kJ/mol
# Density = 1.428305 g / cm^3
# Si number density = 14.315629 Si / 1000 Ang^3
#
#
#
# Elastic Constant Matrix: (Units=GPa)
#
#
# Indices 1 2 3 4 5 6 
#
# 1 72.8653 21.9589 25.6281 0.9643 0.0000 0.0000
# 2 21.9589 72.8653 25.6281 -0.9643 0.0000 0.0000
# 3 25.6281 25.6281 97.6037 0.0000 0.0000 0.0000
# 4 0.9643 -0.9643 0.0000 14.4104 0.0000 0.0000
# 5 0.0000 0.0000 0.0000 0.0000 14.4104 0.9643
# 6 0.0000 0.0000 0.0000 0.0000 0.9643 25.4532
#
#
#
# Elastic Compliance Matrix: (Units=1/GPa)
#
#
# Indices 1 2 3 4 5 6 
#
# 1 0.015992 -0.003702 -0.003227 -0.001318 0.000000 0.000000
# 2 -0.003702 0.015992 -0.003227 0.001318 0.000000 0.000000
# 3 -0.003227 -0.003227 0.011940 0.000000 0.000000 0.000000
# 4 -0.001318 0.001318 0.000000 0.069571 0.000000 0.000000
# 5 0.000000 0.000000 0.000000 0.000000 0.069571 -0.002636
# 6 0.000000 0.000000 0.000000 0.000000 -0.002636 0.039388
#
#
# Mechanical properties :
#
#
# Convention : Reuss Voigt Hill
#
# Bulk Modulus (GPa) = 42.35084 43.30717 42.82900
# Shear Modulus (GPa) = 19.94923 22.19607 21.07265
#
# Velocity S-wave (km/s) = 3.73705 3.94188 3.84083
# Velocity P-wave (km/s) = 6.94756 7.14390 7.04641
#
# Compressibility (1/GPa) = 0.02361228
#
# Stress axis : x y z
#
# Youngs Moduli (GPa) = 62.53128 62.53128 83.75064
#
# Poissons Ratio (x) = 0.23148 0.27027
# Poissons Ratio (y) = 0.23148 0.27027
# Poissons Ratio (z) = 0.20179 0.20179
#
# Static dielectric constant tensor:
#      x y z
#    x 1.490310 0.000000 0.000000 
#    y 0.000000 1.490310 0.000000 
#    z 0.000000 0.000000 1.522390 
# 
# From -- ./inp_files/243.got.cif
#   From: 2010.05.17/outbox.cif.g08.bks.cpg/sg158_cif.got.tgz:243.got - 2010.05.20 10:49:59.
