data_PCOD9577457
_publ_section_title
;
Structure prediction by ZEFSAII (Michael W. Deem and Ramdas Pophale) SiO2 
 PCOD9577457
Probable space group: P 3 1 C
;
_chemical_formula_sum "Si O2"
_cell_formula_units_Z 48
_cell_length_a 19.528429
_cell_length_b 19.528429
_cell_length_c 7.507511
_cell_angle_alpha 90.000000
_cell_angle_beta 90.000000
_cell_angle_gamma 120.000000
_cell_volume 2479.483503
_symmetry_space_group_name_H-M "P 3 1 C"
_symmetry_group_IT_number 159
_symmetry_cell_setting 'hexagonal'
loop_
_space_group_symop_operation_xyz
x,y,z
-y,x-y,z
-x+y,-x,z
y,x,1/2+z
x-y,-y,1/2+z
-x,-x+y,1/2+z
loop_
_atom_site_type_symbol
_atom_site_label
_atom_site_fract_x
_atom_site_fract_y
_atom_site_fract_z
Si Si1 0.511286 0.334837 0.808290
Si Si2 0.334836 0.823551 0.874154
Si Si3 0.488714 0.823551 0.874154
Si Si4 0.243546 0.333767 0.878231
Si Si5 0.176449 0.511286 0.308290
Si Si6 0.090221 0.333767 0.304213
Si Si7 0.909779 0.243546 0.378231
Si Si8 0.090221 0.756454 0.304214
O O1 0.511730 0.337421 0.591222
O O2 0.527687 0.263844 0.856708
O O3 0.580796 0.419204 0.871260
O O4 0.422208 0.306973 0.868709
O O5 0.419204 0.838408 0.811184
O O6 0.263844 0.736156 0.825736
O O7 0.337421 0.825691 0.091222
O O8 0.306972 0.884764 0.813736
O O9 0.577792 0.884765 0.813736
O O10 0.157272 0.314545 0.812070
O O11 0.241892 0.339641 0.091223
O O12 0.271315 0.271315 0.841223
O O13 0.115235 0.422208 0.368708
O O14 0.097748 0.339641 0.091222
O O15 0.157272 0.314545 0.370374
O O16 1.000000 0.271315 0.341222
#
# Coordination Sequence:
#
# PCOD9577457 Si02
#       8
#     6   6   6   6   6   6   6   6
#     4   8  13  22  38  61  89 120 152 183 212 243
#     4   8  13  22  38  61  89 120 152 183 212 243
#     4   8  13  22  38  61  89 120 152 183 212 243
#     4   9  18  31  46  66  90 114 143 179 217 259
#     4   8  13  22  38  61  89 120 152 183 212 243
#     4   9  18  31  46  66  90 114 143 179 217 259
#     4   9  18  31  46  66  90 114 143 179 217 259
#     4   9  18  31  46  66  90 114 143 179 217 259
#
# _framework density 19.35887
#
# number of rings (size 3 to 8) (size 9 to 14) (size 15 to 20)
#    0.000    3.500    0.000    3.500    0.000    4.000 
#    0.000    0.000    0.000    0.500    0.000    0.000 
#    0.000    4.000    0.000    0.000    0.000    0.000 
#
# Total GULP energy -267501.363211 kJ/mol
# GULP energy per Si atom -5572.945067 kJ/mol
# Density = 1.931481 g / cm^3
# Si number density = 19.358870 Si / 1000 Ang^3
#
#
#
# Elastic Constant Matrix: (Units=GPa)
#
#
# Indices 1 2 3 4 5 6 
#
# 1 141.1717 114.6703 4.8134 0.0000 0.0000 0.0000
# 2 114.6703 141.1717 4.8134 0.0000 0.0000 0.0000
# 3 4.8134 4.8134 48.1456 0.0000 0.0000 0.0000
# 4 0.0000 0.0000 0.0000 1.4737 0.0000 0.0000
# 5 0.0000 0.0000 0.0000 0.0000 1.4737 0.0000
# 6 0.0000 0.0000 0.0000 0.0000 0.0000 13.2507
#
#
#
# Elastic Compliance Matrix: (Units=1/GPa)
#
#
# Indices 1 2 3 4 5 6 
#
# 1 0.020829 -0.016905 -0.000392 0.000000 0.000000 0.000000
# 2 -0.016905 0.020829 -0.000392 0.000000 0.000000 0.000000
# 3 -0.000392 -0.000392 0.020849 0.000000 0.000000 0.000000
# 4 0.000000 0.000000 0.000000 0.678558 0.000000 -0.000001
# 5 0.000000 0.000000 0.000000 0.000000 0.678558 0.000000
# 6 0.000000 0.000000 0.000000 -0.000001 0.000000 0.075468
#
#
# Mechanical properties :
#
#
# Convention : Reuss Voigt Hill
#
# Bulk Modulus (GPa) = 36.86421 64.34260 50.60340
# Shear Modulus (GPa) = 3.24778 16.98574 10.11676
#
# Velocity S-wave (km/s) = 1.29665 2.96533 2.28850
# Velocity P-wave (km/s) = 4.61797 6.71067 5.76016
#
# Compressibility (1/GPa) = 0.02712658
#
# Stress axis : x y z
#
# Youngs Moduli (GPa) = 48.01076 48.01076 47.96453
#
# Poissons Ratio (x) = 0.81163 0.01881
# Poissons Ratio (y) = 0.81163 0.01881
# Poissons Ratio (z) = 0.01883 0.01883
#
# Static dielectric constant tensor:
#      x y z
#    x 1.674290 0.000000 0.000000 
#    y 0.000000 1.674290 0.000000 
#    z 0.000000 0.000000 1.762340 
# 
# From -- ./inp_files/504.got.cif
#   From: 2010.05.17/outbox.cif.g08.bks.cpg/sg159_cif.got.tgz:504.got - 2010.05.20 10:50:30.
