data_PCOD9577602
_publ_section_title
;
Structure prediction by ZEFSAII (Michael W. Deem and Ramdas Pophale) SiO2 
 PCOD9577602
Probable space group: R 3 C
;
_chemical_formula_sum "Si O2"
_cell_formula_units_Z 54
_cell_length_a 12.819059
_cell_length_b 12.819059
_cell_length_c 14.292509
_cell_angle_alpha 90.000000
_cell_angle_beta 90.000000
_cell_angle_gamma 120.000000
_cell_volume 2034.002109
_symmetry_space_group_name_H-M "R 3 C"
_symmetry_group_IT_number 161
_symmetry_cell_setting 'hexagonal'
loop_
_space_group_symop_operation_xyz
x,y,z
-y,x-y,z
-x+y,-x,z
-x+y,y,1/2+z
x,x-y,1/2+z
-y,-x,1/2+z
2/3+x,1/3+y,1/3+z
2/3-y,1/3+x-y,1/3+z
2/3-x+y,1/3-x,1/3+z
2/3-x+y,1/3+y,5/6+z
2/3+x,1/3+x-y,5/6+z
2/3-y,1/3-x,5/6+z
1/3+x,2/3+y,2/3+z
1/3-y,2/3+x-y,2/3+z
1/3-x+y,2/3-x,2/3+z
1/3-x+y,2/3+y,1/6+z
1/3+x,2/3+x-y,1/6+z
1/3-y,2/3-x,1/6+z
loop_
_atom_site_type_symbol
_atom_site_label
_atom_site_fract_x
_atom_site_fract_y
_atom_site_fract_z
Si Si1 0.838778 0.925750 0.690208
Si Si2 0.750194 0.916808 0.394375
Si Si3 0.139364 0.751383 0.564614
O O1 0.763405 0.858946 0.783974
O O2 0.737223 0.901450 0.615314
O O3 0.931373 0.872915 0.682645
O O4 0.643739 0.908730 0.457544
O O5 0.753905 0.802210 0.437593
O O6 0.860005 0.051284 0.409324
#
# Coordination Sequence:
#
# PCOD9577602 Si02
#       3
#    18  18  18
#     4  10  25  51  85 124 167 207 275 348 414 491
#     4  12  29  52  77 122 165 214 277 333 409 487
#     4  12  30  49  88 114 166 223 274 339 415 484
#
# _framework density 26.548645
#
# number of rings (size 3 to 8) (size 9 to 14) (size 15 to 20)
#    0.667    0.000    3.333    0.667   14.000    0.000 
#    0.000    0.000    0.000    0.000    0.000    0.000 
#    0.000    0.000    0.000    0.000    0.000    0.000 
#
# Total GULP energy -100438.365923 kJ/mol
# GULP energy per Si atom -5579.909218 kJ/mol
# Density = 2.648822 g / cm^3
# Si number density = 26.548645 Si / 1000 Ang^3
#
#
#
# Elastic Constant Matrix: (Units=GPa)
#
#
# Indices 1 2 3 4 5 6 
#
# 1 100.8569 14.1430 51.2798 -0.3550 0.0000 0.0000
# 2 14.1430 100.8569 51.2798 0.3550 0.0000 0.0000
# 3 51.2798 51.2798 124.6617 0.0000 0.0000 0.0000
# 4 -0.3550 0.3550 0.0000 32.5815 0.0000 0.0000
# 5 0.0000 0.0000 0.0000 0.0000 32.5815 -0.3550
# 6 0.0000 0.0000 0.0000 0.0000 -0.3550 43.3570
#
#
#
# Elastic Compliance Matrix: (Units=1/GPa)
#
#
# Indices 1 2 3 4 5 6 
#
# 1 0.012634 0.001100 -0.005650 0.000126 0.000000 0.000000
# 2 0.001100 0.012634 -0.005650 -0.000126 0.000000 0.000000
# 3 -0.005650 -0.005650 0.012670 0.000000 0.000000 0.000000
# 4 0.000126 -0.000126 0.000000 0.030695 0.000000 0.000000
# 5 0.000000 0.000000 0.000000 0.000000 0.030695 0.000251
# 6 0.000000 0.000000 0.000000 0.000000 0.000251 0.023066
#
#
# Mechanical properties :
#
#
# Convention : Reuss Voigt Hill
#
# Bulk Modulus (GPa) = 57.01389 62.19785 59.60587
# Shear Modulus (GPa) = 33.63902 35.68221 34.66061
#
# Velocity S-wave (km/s) = 3.56346 3.67008 3.61716
# Velocity P-wave (km/s) = 6.20103 6.43724 6.32024
#
# Compressibility (1/GPa) = 0.01753959
#
# Stress axis : x y z
#
# Youngs Moduli (GPa) = 79.15390 79.15390 78.92922
#
# Poissons Ratio (x) = -0.08710 0.44591
# Poissons Ratio (y) = -0.08710 0.44591
# Poissons Ratio (z) = 0.44718 0.44718
#
# Static dielectric constant tensor:
#      x y z
#    x 2.058030 0.000000 0.000000 
#    y 0.000000 2.058030 0.000000 
#    z 0.000000 0.000000 2.100980 
# 
# From -- ./inp_files/730.got.cif
#   From: 2010.05.17/outbox.cif.g08.bks.cpg/sg161_cif.got.tgz:730.got - 2010.05.20 10:52:32.
