data_PCOD9577709
_publ_section_title
;
Structure prediction by ZEFSAII (Michael W. Deem and Ramdas Pophale) SiO2 
 PCOD9577709
Probable space group: P -3 1 M 
;
_chemical_formula_sum "Si O2"
_cell_formula_units_Z 48
_cell_length_a 14.617124
_cell_length_b 14.617124
_cell_length_c 13.426699
_cell_angle_alpha 90.000000
_cell_angle_beta 90.000000
_cell_angle_gamma 120.000000
_cell_volume 2484.412737
_symmetry_space_group_name_H-M "P -3 1 M "
_symmetry_group_IT_number 162
_symmetry_cell_setting 'hexagonal'
loop_
_space_group_symop_operation_xyz
x,y,z
-y,x-y,z
-x+y,-x,z
-y,-x,-z
-x+y,y,-z
x,x-y,-z
-x,-y,-z
y,-x+y,-z
x-y,x,-z
y,x,z
x-y,-y,z
-x,-x+y,z
loop_
_atom_site_type_symbol
_atom_site_label
_atom_site_fract_x
_atom_site_fract_y
_atom_site_fract_z
Si Si1 0.127757 0.255578 0.383466
Si Si2 0.111191 0.222070 0.116890
Si Si3 0.428415 0.206097 0.789132
Si Si4 0.442419 0.567491 0.117319
O O1 0.142941 0.285882 0.500000
O O2 0.188339 0.188339 0.366790
O O3 0.180500 0.361194 0.313757
O O4 0.000000 0.183375 0.368340
O O5 0.132396 0.132396 0.158514
O O6 0.207747 0.334609 0.138986
O O7 0.000000 0.204905 0.153305
O O8 0.105266 0.210532 0.000000
O O9 0.471975 0.322343 0.833624
O O10 0.520892 0.179797 0.809400
O O11 0.488219 0.488219 0.116488
O O12 0.419489 0.580512 0.000000
#
# Coordination Sequence:
#
# PCOD9577709 Si02
#       4
#    12  12  12  12
#     4  10  21  39  65  97 130 161 194 238 299 372
#     4  10  19  31  50  79 114 148 182 228 294 373
#     4  12  23  38  58  81 112 154 204 251 298 350
#     4  11  23  38  57  82 112 150 198 250 303 356
#
# _framework density 19.320461000000002
#
# number of rings (size 3 to 8) (size 9 to 14) (size 15 to 20)
#    0.000    1.250    0.000    7.750    0.000    6.000 
#    0.000    3.750    0.000    4.500    0.000    0.000 
#    0.000    0.000    0.000    0.000    0.000    0.000 
#
# Total GULP energy -267246.594595 kJ/mol
# GULP energy per Si atom -5567.637387 kJ/mol
# Density = 1.927649 g / cm^3
# Si number density = 19.320461 Si / 1000 Ang^3
#
#
#
# Elastic Constant Matrix: (Units=GPa)
#
#
# Indices 1 2 3 4 5 6 
#
# 1 74.3292 35.9673 45.2598 0.0000 -8.1477 0.0000
# 2 35.9673 74.3292 45.2598 0.0000 8.1477 0.0000
# 3 45.2598 45.2598 166.7940 0.0000 0.0000 0.0000
# 4 0.0000 0.0000 0.0000 26.8833 0.0000 8.1477
# 5 -8.1477 8.1477 0.0000 0.0000 26.8833 0.0000
# 6 0.0000 0.0000 0.0000 8.1477 0.0000 19.1810
#
#
#
# Elastic Compliance Matrix: (Units=1/GPa)
#
#
# Indices 1 2 3 4 5 6 
#
# 1 0.020792 -0.009128 -0.003165 0.000000 0.009068 0.000000
# 2 -0.009128 0.020792 -0.003165 0.000000 -0.009068 0.000000
# 3 -0.003165 -0.003165 0.007713 0.000000 0.000000 0.000000
# 4 0.000000 0.000000 0.000000 0.042694 0.000000 -0.018136
# 5 0.009068 -0.009068 0.000000 0.000000 0.042694 0.000000
# 6 0.000000 0.000000 0.000000 -0.018136 0.000000 0.059839
#
#
# Mechanical properties :
#
#
# Convention : Reuss Voigt Hill
#
# Bulk Modulus (GPa) = 54.40421 63.15844 58.78133
# Shear Modulus (GPa) = 21.59209 27.18725 24.38967
#
# Velocity S-wave (km/s) = 3.34664 3.75530 3.55685
# Velocity P-wave (km/s) = 6.56912 7.18080 6.88176
#
# Compressibility (1/GPa) = 0.01838093
#
# Stress axis : x y z
#
# Youngs Moduli (GPa) = 48.09615 48.09615 129.64965
#
# Poissons Ratio (x) = 0.43901 0.41035
# Poissons Ratio (y) = 0.43901 0.41035
# Poissons Ratio (z) = 0.15223 0.15223
#
# Static dielectric constant tensor:
#      x y z
#    x 1.845310 0.000000 0.000000 
#    y 0.000000 1.845310 0.000000 
#    z 0.000000 0.000000 1.711550 
# 
# From -- ./inp_files/2817.got.cif
#   From: 2010.05.17/outbox.cif.g08.bks.cpg/sg162_2_cif.got.tgz:2817.got - 2010.05.20 10:53:12.
