data_PCOD9577712
_publ_section_title
;
Structure prediction by ZEFSAII (Michael W. Deem and Ramdas Pophale) SiO2 
 PCOD9577712
Probable space group: P -3 1 M 
;
_chemical_formula_sum "Si O2"
_cell_formula_units_Z 84
_cell_length_a 17.376765
_cell_length_b 17.376765
_cell_length_c 15.816554
_cell_angle_alpha 90.000000
_cell_angle_beta 90.000000
_cell_angle_gamma 120.000000
_cell_volume 4135.998340
_symmetry_space_group_name_H-M "P -3 1 M "
_symmetry_group_IT_number 162
_symmetry_cell_setting 'hexagonal'
loop_
_space_group_symop_operation_xyz
x,y,z
-y,x-y,z
-x+y,-x,z
-y,-x,-z
-x+y,y,-z
x,x-y,-z
-x,-y,-z
y,-x+y,-z
x-y,x,-z
y,x,z
x-y,-y,z
-x,-x+y,z
loop_
_atom_site_type_symbol
_atom_site_label
_atom_site_fract_x
_atom_site_fract_y
_atom_site_fract_z
Si Si1 0.107164 0.735107 0.136024
Si Si2 0.640881 0.103992 0.972409
Si Si3 0.525484 0.896732 0.786261
Si Si4 0.804718 0.703244 0.241016
Si Si5 0.533488 0.891948 0.484489
Si Si6 0.687275 0.893214 0.578680
Si Si7 0.523322 0.631231 0.704026
O O1 0.137438 0.710856 0.048782
O O2 0.145430 0.836986 0.161520
O O3 0.134178 0.695671 0.215960
O O4 0.000000 0.683664 0.134443
O O5 0.612236 0.000000 0.962285
O O6 0.552963 0.105925 0.000000
O O7 0.661375 0.145714 0.878978
O O8 0.611050 0.899396 0.747908
O O9 0.440312 0.861474 0.726819
O O10 0.553327 0.000000 0.802200
O O11 0.779342 0.779342 0.227896
O O12 0.846759 0.708159 0.332724
O O13 0.431004 0.862008 0.500000
O O14 0.586562 0.866913 0.551612
O O15 0.537287 0.863301 0.388144
O O16 0.586107 0.000000 0.486609
O O17 0.720192 0.860096 0.500000
O O18 0.740342 0.000000 0.585052
O O19 0.577799 0.577799 0.700110
#
# Coordination Sequence:
#
# PCOD9577712 Si02
#       7
#    12  12  12  12  12  12  12
#     4  10  19  31  51  77 102 135 182 230 274 325
#     4   9  15  27  48  77 106 129 162 209 260 319
#     4   9  16  28  47  71 103 135 162 199 257 323
#     4  10  21  34  48  72 106 143 181 227 283 336
#     4   9  16  26  43  68  95 122 157 204 258 320
#     4  10  20  34  51  72 101 136 180 235 288 334
#     4   9  15  25  45  71  95 121 158 206 260 323
#
# _framework density 20.309486
#
# number of rings (size 3 to 8) (size 9 to 14) (size 15 to 20)
#    0.000    2.571    1.429    1.714    0.000    5.714 
#    0.000    0.000    0.000    1.286    0.000    4.000 
#    0.000    0.000    0.000    7.143    0.000    1.714 
#
# Total GULP energy -467972.908605 kJ/mol
# GULP energy per Si atom -5571.106055 kJ/mol
# Density = 2.026326 g / cm^3
# Si number density = 20.309486 Si / 1000 Ang^3
#
#
#
# Elastic Constant Matrix: (Units=GPa)
#
#
# Indices 1 2 3 4 5 6 
#
# 1 35.7750 5.8311 13.7907 0.0000 -1.0722 0.0000
# 2 5.8311 35.7750 13.7907 0.0000 1.0722 0.0000
# 3 13.7907 13.7907 104.0367 0.0000 0.0000 0.0000
# 4 0.0000 0.0000 0.0000 25.9313 0.0000 1.0722
# 5 -1.0722 1.0722 0.0000 0.0000 25.9313 0.0000
# 6 0.0000 0.0000 0.0000 1.0722 0.0000 14.9719
#
#
#
# Elastic Compliance Matrix: (Units=1/GPa)
#
#
# Indices 1 2 3 4 5 6 
#
# 1 0.029923 -0.003572 -0.003493 0.000000 0.001385 0.000000
# 2 -0.003572 0.029923 -0.003493 0.000000 -0.001385 0.000000
# 3 -0.003493 -0.003493 0.010538 0.000000 0.000000 0.000000
# 4 0.000000 0.000000 0.000000 0.038678 0.000000 -0.002770
# 5 0.001385 -0.001385 0.000000 0.000000 0.038678 0.000000
# 6 0.000000 0.000000 0.000000 -0.002770 0.000000 0.066990
#
#
# Mechanical properties :
#
#
# Convention : Reuss Voigt Hill
#
# Bulk Modulus (GPa) = 20.29748 26.93464 23.61606
# Shear Modulus (GPa) = 19.82018 22.84517 21.33268
#
# Velocity S-wave (km/s) = 3.12734 3.35752 3.24447
# Velocity P-wave (km/s) = 4.80168 5.32179 5.06841
#
# Compressibility (1/GPa) = 0.04926721
#
# Stress axis : x y z
#
# Youngs Moduli (GPa) = 33.41942 33.41942 94.89456
#
# Poissons Ratio (x) = 0.11938 0.33146
# Poissons Ratio (y) = 0.11938 0.33146
# Poissons Ratio (z) = 0.11673 0.11673
#
# Static dielectric constant tensor:
#      x y z
#    x 1.757910 0.000000 0.000000 
#    y 0.000000 1.757910 0.000000 
#    z 0.000000 0.000000 1.791310 
# 
# From -- ./inp_files/3165.got.cif
#   From: 2010.05.17/outbox.cif.g08.bks.cpg/sg162_2_cif.got.tgz:3165.got - 2010.05.20 10:53:12.
