data_PCOD9577676
_publ_section_title
;
Structure prediction by ZEFSAII (Michael W. Deem and Ramdas Pophale) SiO2 
 PCOD9577676
Probable space group: P -3 1 M 
;
_chemical_formula_sum "Si O2"
_cell_formula_units_Z 82
_cell_length_a 21.346081
_cell_length_b 21.346081
_cell_length_c 11.748410
_cell_angle_alpha 90.000000
_cell_angle_beta 90.000000
_cell_angle_gamma 120.000000
_cell_volume 4636.027806
_symmetry_space_group_name_H-M "P -3 1 M "
_symmetry_group_IT_number 162
_symmetry_cell_setting 'hexagonal'
loop_
_space_group_symop_operation_xyz
x,y,z
-y,x-y,z
-x+y,-x,z
-y,-x,-z
-x+y,y,-z
x,x-y,-z
-x,-y,-z
y,-x+y,-z
x-y,x,-z
y,x,z
x-y,-y,z
-x,-x+y,z
loop_
_atom_site_type_symbol
_atom_site_label
_atom_site_fract_x
_atom_site_fract_y
_atom_site_fract_z
Si Si1 0.616942 0.083464 0.980168
Si Si2 0.666668 0.333334 0.865756
Si Si3 0.607306 0.762946 0.883600
Si Si4 0.913461 0.826921 0.500000
Si Si5 0.304810 0.511033 0.796091
Si Si6 0.634586 0.916906 0.525278
Si Si7 0.665872 0.477033 0.464257
Si Si8 0.695767 0.861586 0.334442
O O1 0.658500 0.138480 0.879273
O O2 0.584680 0.000000 0.950148
O O3 0.546438 0.092875 0.000000
O O4 0.679419 0.103633 0.076607
O O5 0.591921 0.325567 0.826577
O O6 0.666668 0.333334 0.000000
O O7 0.540709 0.760462 0.814825
O O8 0.674735 0.805229 0.795184
O O9 0.619745 0.809873 0.000000
O O10 0.874614 0.874614 0.502380
O O11 0.888950 0.775564 0.613799
O O12 0.331312 0.514123 0.670151
O O13 0.550855 0.878513 0.492099
O O14 0.672954 0.908109 0.413973
O O15 0.649045 0.871392 0.622799
O O16 0.669524 0.000000 0.558656
O O17 0.594821 0.405180 0.500000
O O18 0.736881 0.473761 0.500000
#
# Coordination Sequence:
#
# PCOD9577676 Si02
#       8
#    12   4  12   6  12  12  12  12
#     4  10  22  38  55  80 113 149 192 244 301 355
#     4  12  21  33  58  80 103 141 204 252 295 362
#     4  10  20  36  58  83 114 154 197 245 296 352
#     4  10  21  38  66 100 130 160 198 252 312 376
#     4  11  21  37  55  81 107 148 191 249 303 350
#     4  10  20  36  59  82 112 154 196 247 303 364
#     4  12  23  39  55  80 114 153 199 249 305 361
#     4  10  18  38  60  90 121 156 201 244 302 371
#
# _framework density 17.687555
#
# number of rings (size 3 to 8) (size 9 to 14) (size 15 to 20)
#    0.000    1.610    2.927    5.488    0.000    3.220 
#    0.000    2.195    0.000    0.000    0.000    0.000 
#    0.000    1.171    0.000    0.000    0.000    0.000 
#
# Total GULP energy -456917.338420 kJ/mol
# GULP energy per Si atom -5572.162664 kJ/mol
# Density = 1.764730 g / cm^3
# Si number density = 17.687555 Si / 1000 Ang^3
#
#
#
# Elastic Constant Matrix: (Units=GPa)
#
#
# Indices 1 2 3 4 5 6 
#
# 1 106.9710 57.1879 22.1142 -0.0014 0.2587 0.0000
# 2 57.1879 106.9710 22.1141 -0.0004 -0.2601 0.0000
# 3 22.1142 22.1141 66.9955 -0.0007 -0.0012 -0.0002
# 4 -0.0014 -0.0004 -0.0007 -14.3132 -0.0031 -0.2597
# 5 0.2587 -0.2601 -0.0012 -0.0031 -14.3087 -0.0009
# 6 0.0000 0.0000 -0.0002 -0.2597 -0.0009 24.8916
#
#
#
# Elastic Compliance Matrix: (Units=1/GPa)
#
#
# Indices 1 2 3 4 5 6 
#
# 1 0.013385 -0.006699 -0.002207 -0.000001 0.000364 0.000000
# 2 -0.006699 0.013385 -0.002207 0.000000 -0.000364 0.000000
# 3 -0.002207 -0.002207 0.016383 -0.000001 -0.000001 0.000000
# 4 -0.000001 0.000000 -0.000001 -0.069852 0.000015 -0.000729
# 5 0.000364 -0.000364 -0.000001 0.000015 -0.069875 -0.000002
# 6 0.000000 0.000000 0.000000 -0.000729 -0.000002 0.040167
#
#
# Mechanical properties :
#
#
# Convention : Reuss Voigt Hill
#
# Bulk Modulus (GPa) = 47.78330 53.75220 50.76775
# Shear Modulus (GPa) = -183.78257 11.22202 -86.28027
#
# Velocity S-wave (km/s) = -10.20444 2.52158 -6.99186
# Velocity P-wave (km/s) = 10.57199 6.23968 6.03462
#
# Compressibility (1/GPa) = 0.02092781
#
# Stress axis : x y z
#
# Youngs Moduli (GPa) = 74.71144 74.71155 61.03745
#
# Poissons Ratio (x) = 0.50046 0.13471
# Poissons Ratio (y) = 0.50046 0.13471
# Poissons Ratio (z) = 0.16489 0.16489
#
# Static dielectric constant tensor:
#      x y z
#    x 1.605300 0.000000 0.000000 
#    y 0.000000 1.605300 0.000000 
#    z 0.000000 0.000000 1.623420 
# 
# From -- ./inp_files/2560.got.cif
#   From: 2010.05.17/outbox.cif.g08.bks.cpg/sg162_2_cif.got.tgz:2560.got - 2010.05.20 10:53:12.
