data_PCOD9577173
_publ_section_title
;
Structure prediction by ZEFSAII (Michael W. Deem and Ramdas Pophale) SiO2 
 PCOD9577173
Probable space group: R 3 2
;
_chemical_formula_sum "Si O2"
_cell_formula_units_Z 51
_cell_length_a 17.827060
_cell_length_b 17.827060
_cell_length_c 7.201475
_cell_angle_alpha 90.000000
_cell_angle_beta 90.000000
_cell_angle_gamma 120.000000
_cell_volume 1982.036014
_symmetry_space_group_name_H-M "R 3 2"
_symmetry_group_IT_number 155
_symmetry_cell_setting 'hexagonal'
loop_
_space_group_symop_operation_xyz
x,y,z
-y,x-y,z
-x+y,-x,z
x-y,-y,-z
-x,-x+y,-z
y,x,-z
2/3+x,1/3+y,1/3+z
2/3-y,1/3+x-y,1/3+z
2/3-x+y,1/3-x,1/3+z
2/3+x-y,1/3-y,1/3-z
2/3-x,1/3-x+y,1/3-z
2/3+y,1/3+x,1/3-z
1/3+x,2/3+y,2/3+z
1/3-y,2/3+x-y,2/3+z
1/3-x+y,2/3-x,2/3+z
1/3+x-y,2/3-y,2/3-z
1/3-x,2/3-x+y,2/3-z
1/3+y,2/3+x,2/3-z
loop_
_atom_site_type_symbol
_atom_site_label
_atom_site_fract_x
_atom_site_fract_y
_atom_site_fract_z
Si Si1 0.530777 0.000000 0.000000
Si Si2 0.207787 0.924170 0.651805
Si Si3 0.496380 0.841828 0.459009
Si Si4 0.666667 0.333334 0.612029
O O1 0.534207 0.912566 0.001309
O O2 0.471933 0.986449 0.819526
O O3 0.112268 0.891233 0.733884
O O4 0.233916 0.000000 0.500000
O O5 0.266068 0.932735 0.833334
O O6 0.531807 0.865141 0.666667
O O7 0.428264 0.739458 0.451182
O O8 0.666668 0.333334 0.833334
#
# Coordination Sequence:
#
# PCOD9577173 Si02
#       4
#     9  18  18   6
#     4  12  26  48  82 122 166 216 268 346 438 506
#     4  12  28  52  81 118 166 224 287 348 430 514
#     4  12  25  49  82 122 164 216 273 350 422 512
#     4  12  25  47  79 117 166 206 274 331 401 496
#
# _framework density 25.731119
#
# number of rings (size 3 to 8) (size 9 to 14) (size 15 to 20)
#    0.000    0.000    3.529    7.412    0.000    5.647 
#    3.176    0.000    0.000    0.000    0.000    0.000 
#    0.000    0.000    0.000    0.000    0.000    0.000 
#
# Total GULP energy -95235.985093 kJ/mol
# GULP energy per Si atom -5602.116770 kJ/mol
# Density = 2.567255 g / cm^3
# Si number density = 25.731119 Si / 1000 Ang^3
#
#
#
# Elastic Constant Matrix: (Units=GPa)
#
#
# Indices 1 2 3 4 5 6 
#
# 1 96.7940 79.1280 42.7152 -10.1929 0.0133 0.0027
# 2 79.1280 96.7779 42.6857 10.1959 -0.0031 -0.0021
# 3 42.7152 42.6857 224.5461 0.0070 0.0204 0.0010
# 4 -10.1929 10.1959 0.0070 39.4133 0.0033 -0.0003
# 5 0.0133 -0.0031 0.0204 0.0033 39.4219 -10.1972
# 6 0.0027 -0.0021 0.0010 -0.0003 -10.1972 8.8218
#
#
#
# Elastic Compliance Matrix: (Units=1/GPa)
#
#
# Indices 1 2 3 4 5 6 
#
# 1 0.043504 -0.037242 -0.001197 0.020885 -0.000035 -0.000062
# 2 -0.037242 0.043506 -0.001185 -0.020886 0.000034 0.000061
# 3 -0.001197 -0.001185 0.004906 -0.000004 -0.000003 -0.000004
# 4 0.020885 -0.020886 -0.000004 0.036176 -0.000021 -0.000034
# 5 -0.000035 0.000034 -0.000003 -0.000021 0.036186 0.041828
# 6 -0.000062 0.000061 -0.000004 -0.000034 0.041828 0.161705
#
#
# Mechanical properties :
#
#
# Convention : Reuss Voigt Hill
#
# Bulk Modulus (GPa) = 78.93833 83.01954 80.97893
# Shear Modulus (GPa) = 12.21137 34.43735 23.32436
#
# Velocity S-wave (km/s) = 2.18084 3.66232 3.01402
# Velocity P-wave (km/s) = 6.08984 7.08645 6.60696
#
# Compressibility (1/GPa) = 0.01266812
#
# Stress axis : x y z
#
# Youngs Moduli (GPa) = 22.98656 22.98519 203.81622
#
# Poissons Ratio (x) = 0.85602 0.24390
# Poissons Ratio (y) = 0.85607 0.24157
# Poissons Ratio (z) = 0.02751 0.02724
#
# Static dielectric constant tensor:
#      x y z
#    x 2.173130 -0.000010 -0.000020 
#    y -0.000010 2.173140 -0.000010 
#    z -0.000020 -0.000010 2.054280 
# 
# From -- ./inp_files/1691.got.cif
#   From: 2010.05.17/outbox.cif.g08.bks.cpg/sg155_1_cif.got.tgz:1691.got - 2010.05.20 10:44:35.
