data_PCOD9577344
_publ_section_title
;
Structure prediction by ZEFSAII (Michael W. Deem and Ramdas Pophale) SiO2 
 PCOD9577344
Probable space group: P 3 1 C
;
_chemical_formula_sum "Si O2"
_cell_formula_units_Z 48
_cell_length_a 27.802876
_cell_length_b 27.802876
_cell_length_c 5.429325
_cell_angle_alpha 90.000000
_cell_angle_beta 90.000000
_cell_angle_gamma 120.000000
_cell_volume 3634.594094
_symmetry_space_group_name_H-M "P 3 1 C"
_symmetry_group_IT_number 159
_symmetry_cell_setting 'hexagonal'
loop_
_space_group_symop_operation_xyz
x,y,z
-y,x-y,z
-x+y,-x,z
y,x,1/2+z
x-y,-y,1/2+z
-x,-x+y,1/2+z
loop_
_atom_site_type_symbol
_atom_site_label
_atom_site_fract_x
_atom_site_fract_y
_atom_site_fract_z
Si Si1 0.056792 0.675503 0.873990
Si Si2 0.383775 0.531796 0.374000
Si Si3 0.255660 0.533911 0.873995
Si Si4 0.459621 0.442263 0.873989
Si Si5 0.590262 0.389450 0.373999
Si Si6 0.981854 0.735828 0.873990
Si Si7 0.380240 0.265914 0.873990
Si Si8 0.250090 0.475986 0.373995
O O1 0.017073 0.702584 0.873991
O O2 0.093507 0.697965 0.626998
O O3 0.019047 0.608663 0.873990
O O4 0.093508 0.697965 0.120981
O O5 0.403995 0.487191 0.373989
O O6 0.402609 0.567183 0.625559
O O7 0.317085 0.502418 0.373998
O O8 0.402609 0.567187 0.122449
O O9 0.323037 0.566830 0.873996
O O10 0.233717 0.577146 0.873992
O O11 0.236540 0.497422 0.624440
O O12 0.236540 0.497422 0.123551
O O13 0.476498 0.476498 0.623989
O O14 0.000000 0.769973 0.623990
O O15 0.918479 0.686740 0.873990
O O16 0.410977 0.230435 0.873992
#
# Coordination Sequence:
#
# PCOD9577344 Si02
#       8
#     6   6   6   6   6   6   6   6
#     4  10  16  22  33  46  65  89 101 106 122 151
#     4  10  20  30  42  57  72  87 101 125 147 174
#     4  10  20  31  44  53  60  77  96 125 155 182
#     4  12  20  27  39  55  74  92 105 113 132 168
#     4  10  20  34  45  55  68  81 106 133 163 188
#     4   8  13  19  27  39  55  78  98 104 115 139
#     4  10  17  24  33  48  68  83  95 114 130 153
#     4  10  18  27  39  55  66  75  96 118 146 171
#
# _framework density 13.206428000000001
#
# number of rings (size 3 to 8) (size 9 to 14) (size 15 to 20)
#    0.000    2.000    0.000    7.750    0.000    2.000 
#    0.000    2.500    0.000    0.000    0.000    0.000 
#    0.000    0.000    0.000    0.000    0.000    0.000 
#
# Total GULP energy -267523.460090 kJ/mol
# GULP energy per Si atom -5573.405419 kJ/mol
# Density = 1.317637 g / cm^3
# Si number density = 13.206428 Si / 1000 Ang^3
#
#
#
# Elastic Constant Matrix: (Units=GPa)
#
#
# Indices 1 2 3 4 5 6 
#
# 1 9.8148 3.2980 7.9148 0.0000 0.0000 0.0000
# 2 3.2980 9.8148 7.9148 0.0000 0.0000 0.0000
# 3 7.9148 7.9148 128.8351 0.0000 0.0000 0.0000
# 4 0.0000 0.0000 0.0000 12.8809 0.0000 0.0000
# 5 0.0000 0.0000 0.0000 0.0000 12.8809 0.0000
# 6 0.0000 0.0000 0.0000 0.0000 0.0000 3.2584
#
#
#
# Elastic Compliance Matrix: (Units=1/GPa)
#
#
# Indices 1 2 3 4 5 6 
#
# 1 0.117910 -0.035540 -0.005060 0.000000 0.000001 0.000000
# 2 -0.035540 0.117910 -0.005060 0.000000 -0.000001 0.000000
# 3 -0.005060 -0.005060 0.008384 0.000000 0.000000 0.000000
# 4 0.000000 0.000000 0.000000 0.077634 0.000000 -0.000001
# 5 0.000001 -0.000001 0.000000 0.000000 0.077634 0.000000
# 6 0.000000 0.000000 0.000000 -0.000001 0.000000 0.306899
#
#
# Mechanical properties :
#
#
# Convention : Reuss Voigt Hill
#
# Bulk Modulus (GPa) = 6.54096 20.74664 13.64380
# Shear Modulus (GPa) = 5.89169 14.42651 10.15910
#
# Velocity S-wave (km/s) = 2.11445 3.30871 2.77655
# Velocity P-wave (km/s) = 3.30527 5.50821 4.54231
#
# Compressibility (1/GPa) = 0.15288285
#
# Stress axis : x y z
#
# Youngs Moduli (GPa) = 8.48105 8.48105 119.28048
#
# Poissons Ratio (x) = 0.30141 0.60359
# Poissons Ratio (y) = 0.30141 0.60359
# Poissons Ratio (z) = 0.04292 0.04292
#
# Static dielectric constant tensor:
#      x y z
#    x 1.418900 0.000000 0.000000 
#    y 0.000000 1.418900 0.000000 
#    z 0.000000 0.000000 1.527760 
# 
# From -- ./inp_files/152.got.cif
#   From: 2010.05.17/outbox.cif.g08.bks.cpg/sg159_cif.got.tgz:152.got - 2010.05.20 10:50:30.
