data_PCOD9577888
_publ_section_title
;
Structure prediction by ZEFSAII (Michael W. Deem and Ramdas Pophale) SiO2 
 PCOD9577888
Probable space group: P -3 1 M 
;
_chemical_formula_sum "Si O2"
_cell_formula_units_Z 84
_cell_length_a 21.554436
_cell_length_b 21.554436
_cell_length_c 12.530201
_cell_angle_alpha 90.000000
_cell_angle_beta 90.000000
_cell_angle_gamma 120.000000
_cell_volume 5041.525826
_symmetry_space_group_name_H-M "P -3 1 M "
_symmetry_group_IT_number 162
_symmetry_cell_setting 'hexagonal'
loop_
_space_group_symop_operation_xyz
x,y,z
-y,x-y,z
-x+y,-x,z
-y,-x,-z
-x+y,y,-z
x,x-y,-z
-x,-y,-z
y,-x+y,-z
x-y,x,-z
y,x,z
x-y,-y,z
-x,-x+y,z
loop_
_atom_site_type_symbol
_atom_site_label
_atom_site_fract_x
_atom_site_fract_y
_atom_site_fract_z
Si Si1 0.916800 0.559394 0.195131
Si Si2 0.219359 0.921274 0.872445
Si Si3 0.524238 0.333118 0.373839
Si Si4 0.524145 0.335948 0.000000
Si Si5 0.191120 0.666882 0.626161
Si Si6 0.921274 0.701916 0.872445
Si Si7 0.559394 0.916800 0.804869
O O1 0.915928 0.633405 0.184885
O O2 0.880022 0.521529 0.305267
O O3 0.863991 0.509773 0.101747
O O4 0.000000 0.581057 0.183023
O O5 0.142704 0.857296 0.841415
O O6 0.231910 0.000000 0.853323
O O7 0.229132 0.915498 1.000000
O O8 0.607460 0.392540 0.359221
O O9 0.511002 0.255501 0.338614
O O10 0.508723 0.329708 0.500000
O O11 0.608905 0.391096 0.000000
O O12 0.507796 0.253898 0.000000
O O13 0.490227 0.354218 0.898253
O O14 0.119978 0.641507 0.694733
O O15 0.915928 0.633405 0.815115
O O16 0.000000 0.768090 0.853323
O O17 0.581057 0.000000 0.816977
#
# Coordination Sequence:
#
# PCOD9577888 Si02
#       7
#    12  12  12  12  12  12  12
#     4  11  22  35  52  75 101 131 165 205 254 303
#     4   9  16  28  47  70  96 126 160 196 236 285
#     4  10  21  37  56  75  97 129 169 210 250 297
#     4  12  24  37  53  73 100 131 165 207 255 306
#     4  10  21  37  56  75  97 129 169 210 250 297
#     4   9  16  28  47  70  96 126 160 196 236 285
#     4  11  22  35  52  75 101 131 165 205 254 303
#
# _framework density 16.661622999999999
#
# number of rings (size 3 to 8) (size 9 to 14) (size 15 to 20)
#    0.000    1.714    1.429    4.286    0.000    4.571 
#    0.000    4.286    0.000    0.286    0.000    2.000 
#    0.000    0.000    0.000    0.000    0.000    0.000 
#
# Total GULP energy -468729.026385 kJ/mol
# GULP energy per Si atom -5580.107457 kJ/mol
# Density = 1.662370 g / cm^3
# Si number density = 16.661623 Si / 1000 Ang^3
#
#
#
# Elastic Constant Matrix: (Units=GPa)
#
#
# Indices 1 2 3 4 5 6 
#
# 1 88.6151 49.2261 30.0870 0.0000 0.0000 0.0000
# 2 49.2261 88.6151 30.0870 0.0000 0.0000 0.0000
# 3 30.0870 30.0870 46.9028 0.0000 0.0000 0.0000
# 4 0.0000 0.0000 0.0000 49.2184 0.0000 0.0000
# 5 0.0000 0.0000 0.0000 0.0000 49.2184 0.0000
# 6 0.0000 0.0000 0.0000 0.0000 0.0000 19.6945
#
#
#
# Elastic Compliance Matrix: (Units=1/GPa)
#
#
# Indices 1 2 3 4 5 6 
#
# 1 0.017732 -0.007656 -0.006464 0.000000 0.000000 0.000000
# 2 -0.007656 0.017732 -0.006464 0.000000 0.000000 0.000000
# 3 -0.006464 -0.006464 0.029613 0.000000 0.000000 0.000000
# 4 0.000000 0.000000 0.000000 0.020318 0.000000 0.000000
# 5 0.000000 0.000000 0.000000 0.000000 0.020318 0.000000
# 6 0.000000 0.000000 0.000000 0.000000 0.000000 0.050776
#
#
# Mechanical properties :
#
#
# Convention : Reuss Voigt Hill
#
# Bulk Modulus (GPa) = 41.82149 49.21479 45.51814
# Shear Modulus (GPa) = 24.31606 31.27511 27.79559
#
# Velocity S-wave (km/s) = 3.82436 4.33722 4.08884
# Velocity P-wave (km/s) = 6.68251 7.39486 7.04769
#
# Compressibility (1/GPa) = 0.02391115
#
# Stress axis : x y z
#
# Youngs Moduli (GPa) = 56.39483 56.39483 33.76841
#
# Poissons Ratio (x) = 0.43174 0.21827
# Poissons Ratio (y) = 0.43174 0.21827
# Poissons Ratio (z) = 0.36453 0.36453
#
# Static dielectric constant tensor:
#      x y z
#    x 1.563190 0.000000 0.000000 
#    y 0.000000 1.563190 0.000000 
#    z 0.000000 0.000000 1.563610 
# 
# From -- ./inp_files/2523.got.cif
#   From: 2010.05.17/outbox.cif.g08.bks.cpg/sg162_2_cif.got.tgz:2523.got - 2010.05.20 10:53:12.
