data_PCOD9577626
_publ_section_title
;
Structure prediction by ZEFSAII (Michael W. Deem and Ramdas Pophale) SiO2 
 PCOD9577626
Probable space group: R 3 C
;
_chemical_formula_sum "Si O2"
_cell_formula_units_Z 72
_cell_length_a 9.167496
_cell_length_b 9.167496
_cell_length_c 37.437550
_cell_angle_alpha 90.000000
_cell_angle_beta 90.000000
_cell_angle_gamma 120.000000
_cell_volume 2724.830612
_symmetry_space_group_name_H-M "R 3 C"
_symmetry_group_IT_number 161
_symmetry_cell_setting 'hexagonal'
loop_
_space_group_symop_operation_xyz
x,y,z
-y,x-y,z
-x+y,-x,z
-x+y,y,1/2+z
x,x-y,1/2+z
-y,-x,1/2+z
2/3+x,1/3+y,1/3+z
2/3-y,1/3+x-y,1/3+z
2/3-x+y,1/3-x,1/3+z
2/3-x+y,1/3+y,5/6+z
2/3+x,1/3+x-y,5/6+z
2/3-y,1/3-x,5/6+z
1/3+x,2/3+y,2/3+z
1/3-y,2/3+x-y,2/3+z
1/3-x+y,2/3-x,2/3+z
1/3-x+y,2/3+y,1/6+z
1/3+x,2/3+x-y,1/6+z
1/3-y,2/3-x,1/6+z
loop_
_atom_site_type_symbol
_atom_site_label
_atom_site_fract_x
_atom_site_fract_y
_atom_site_fract_z
Si Si1 0.691681 0.928628 0.611122
Si Si2 0.143088 0.846833 0.999526
Si Si3 0.308318 0.071372 0.564473
Si Si4 0.180165 0.370411 0.842736
O O1 0.517270 0.895693 0.628799
O O2 0.666666 0.136646 0.671131
O O3 0.820816 0.013401 0.644428
O O4 0.770812 0.079239 0.582239
O O5 0.333334 0.992601 0.004464
O O6 0.358240 0.104145 0.926689
O O7 0.013402 0.820817 0.031167
O O8 0.482728 0.104306 0.546796
#
# Coordination Sequence:
#
# PCOD9577626 Si02
#       4
#    18  18  18  18
#     4   9  19  36  63  86 118 154 189 241 302 346
#     4   8  19  36  58  83 117 148 192 246 274 343
#     4   9  19  36  63  86 118 154 189 241 302 346
#     4   8  19  36  58  83 117 148 192 246 274 343
#
# _framework density 26.423662
#
# number of rings (size 3 to 8) (size 9 to 14) (size 15 to 20)
#    3.000    0.000    0.000    1.000    0.000    2.000 
#    9.000    0.000    0.000    0.000    0.000    0.000 
#    0.000    0.000    0.000    0.000    0.000    0.000 
#
# Total GULP energy -133639.771474 kJ/mol
# GULP energy per Si atom -5568.323811 kJ/mol
# Density = 2.636352 g / cm^3
# Si number density = 26.423662 Si / 1000 Ang^3
#
#
#
# Elastic Constant Matrix: (Units=GPa)
#
#
# Indices 1 2 3 4 5 6 
#
# 1 122.7409 41.9379 61.9325 14.6730 0.0000 0.0000
# 2 41.9379 122.7409 61.9325 -14.6730 0.0000 0.0000
# 3 61.9325 61.9325 194.1302 0.0000 0.0000 0.0000
# 4 14.6730 -14.6730 0.0000 24.5982 0.0000 0.0000
# 5 0.0000 0.0000 0.0000 0.0000 24.5982 14.6730
# 6 0.0000 0.0000 0.0000 0.0000 14.6730 40.4015
#
#
#
# Elastic Compliance Matrix: (Units=1/GPa)
#
#
# Indices 1 2 3 4 5 6 
#
# 1 0.011894 -0.003904 -0.002549 -0.009424 0.000000 0.000000
# 2 -0.003904 0.011894 -0.002549 0.009424 0.000000 0.000000
# 3 -0.002549 -0.002549 0.006778 0.000000 0.000000 0.000000
# 4 -0.009424 0.009424 0.000000 0.051896 0.000000 0.000000
# 5 0.000000 0.000000 0.000000 0.000000 0.051896 -0.018848
# 6 0.000000 0.000000 0.000000 0.000000 -0.018848 0.031597
#
#
# Mechanical properties :
#
#
# Convention : Reuss Voigt Hill
#
# Bulk Modulus (GPa) = 79.61052 85.69087 82.65069
# Shear Modulus (GPa) = 26.57522 36.17353 31.37438
#
# Velocity S-wave (km/s) = 3.17477 3.70399 3.44955
# Velocity P-wave (km/s) = 6.60551 7.12690 6.87116
#
# Compressibility (1/GPa) = 0.01256115
#
# Stress axis : x y z
#
# Youngs Moduli (GPa) = 84.07647 84.07647 147.54701
#
# Poissons Ratio (x) = 0.32826 0.37608
# Poissons Ratio (y) = 0.32826 0.37608
# Poissons Ratio (z) = 0.21430 0.21430
#
# Static dielectric constant tensor:
#      x y z
#    x 2.054330 0.000000 0.000000 
#    y 0.000000 2.054330 0.000000 
#    z 0.000000 0.000000 2.178890 
# 
# From -- ./inp_files/2291.got.cif
#   From: 2010.05.17/outbox.cif.g08.bks.cpg/sg161_cif.got.tgz:2291.got - 2010.05.20 10:52:32.
