data_PCOD9577025
_publ_section_title
;
Structure prediction by ZEFSAII (Michael W. Deem and Ramdas Pophale) SiO2 
 PCOD9577025
Probable space group: R 3 2
;
_chemical_formula_sum "Si O2"
_cell_formula_units_Z 54
_cell_length_a 21.707125
_cell_length_b 21.707125
_cell_length_c 6.281070
_cell_angle_alpha 90.000000
_cell_angle_beta 90.000000
_cell_angle_gamma 120.000000
_cell_volume 2563.119646
_symmetry_space_group_name_H-M "R 3 2"
_symmetry_group_IT_number 155
_symmetry_cell_setting 'hexagonal'
loop_
_space_group_symop_operation_xyz
x,y,z
-y,x-y,z
-x+y,-x,z
x-y,-y,-z
-x,-x+y,-z
y,x,-z
2/3+x,1/3+y,1/3+z
2/3-y,1/3+x-y,1/3+z
2/3-x+y,1/3-x,1/3+z
2/3+x-y,1/3-y,1/3-z
2/3-x,1/3-x+y,1/3-z
2/3+y,1/3+x,1/3-z
1/3+x,2/3+y,2/3+z
1/3-y,2/3+x-y,2/3+z
1/3-x+y,2/3-x,2/3+z
1/3+x-y,2/3-y,2/3-z
1/3-x,2/3-x+y,2/3-z
1/3+y,2/3+x,2/3-z
loop_
_atom_site_type_symbol
_atom_site_label
_atom_site_fract_x
_atom_site_fract_y
_atom_site_fract_z
Si Si1 0.927159 0.071250 0.399385
Si Si2 0.000000 0.852198 0.000000
Si Si3 0.921541 0.453436 0.067453
Si Si4 0.398239 0.064906 0.333334
O O1 0.914743 0.130589 0.508811
O O2 0.000000 0.084965 0.500000
O O3 0.865071 0.000000 0.500000
O O4 0.917624 0.051786 0.153619
O O5 0.060138 0.845851 0.135625
O O6 0.922101 0.391236 0.208585
O O7 0.000000 0.511395 0.000000
O O8 0.373683 0.000000 0.500000
#
# Coordination Sequence:
#
# PCOD9577025 Si02
#       4
#    18   9  18   9
#     4  10  22  41  66 100 133 179 233 288 354 432
#     4  10  24  44  70  95 141 200 230 306 372 418
#     4  11  25  41  69  99 145 181 249 302 365 459
#     4  12  26  42  70 117 149 198 242 318 404 450
#
# _framework density 21.068078
#
# number of rings (size 3 to 8) (size 9 to 14) (size 15 to 20)
#    0.000    1.333    1.667    2.333    9.333    4.000 
#    0.000    0.000   36.667    0.667    0.000    0.000 
#    0.000    0.000    0.000    0.000    0.000    0.000 
#
# Total GULP energy -100231.122260 kJ/mol
# GULP energy per Si atom -5568.395681 kJ/mol
# Density = 2.102013 g / cm^3
# Si number density = 21.068078 Si / 1000 Ang^3
#
#
#
# Elastic Constant Matrix: (Units=GPa)
#
#
# Indices 1 2 3 4 5 6 
#
# 1 119.9817 58.6212 71.4670 2.2691 0.1687 -0.0077
# 2 58.6212 119.7576 71.2743 -2.2433 -0.0278 0.0182
# 3 71.4670 71.2743 146.1416 0.0892 0.1796 0.0074
# 4 2.2691 -2.2433 0.0892 23.6200 0.0683 -0.0091
# 5 0.1687 -0.0278 0.1796 0.0683 23.8157 2.1987
# 6 -0.0077 0.0182 0.0074 -0.0091 2.1987 30.5380
#
#
#
# Elastic Compliance Matrix: (Units=1/GPa)
#
#
# Indices 1 2 3 4 5 6 
#
# 1 0.012814 -0.003625 -0.004498 -0.001558 -0.000058 0.000010
# 2 -0.003625 0.012821 -0.004481 0.001583 0.000071 -0.000012
# 3 -0.004498 -0.004481 0.011228 -0.000036 -0.000058 0.000003
# 4 -0.001558 0.001583 -0.000036 0.042637 -0.000111 0.000019
# 5 -0.000058 0.000071 -0.000058 -0.000111 0.042271 -0.003044
# 6 0.000010 -0.000012 0.000003 0.000019 -0.003044 0.032965
#
#
# Mechanical properties :
#
#
# Convention : Reuss Voigt Hill
#
# Bulk Modulus (GPa) = 85.79621 87.62287 86.70954
# Shear Modulus (GPa) = 27.19896 27.89598 27.54747
#
# Velocity S-wave (km/s) = 3.59695 3.64275 3.61992
# Velocity P-wave (km/s) = 7.61987 7.70542 7.66277
#
# Compressibility (1/GPa) = 0.01165553
#
# Stress axis : x y z
#
# Youngs Moduli (GPa) = 78.03824 77.99420 89.06472
#
# Poissons Ratio (x) = 0.28273 0.40057
# Poissons Ratio (y) = 0.28289 0.39914
# Poissons Ratio (z) = 0.35098 0.34953
#
# Static dielectric constant tensor:
#      x y z
#    x 1.835090 -0.000100 -0.000340 
#    y -0.000100 1.835300 -0.000260 
#    z -0.000340 -0.000260 1.916410 
# 
# From -- ./inp_files/674.got.cif
#   From: 2010.05.17/outbox.cif.g08.bks.cpg/sg155_1_cif.got.tgz:674.got - 2010.05.20 10:44:35.
