data_PCOD9577669
_publ_section_title
;
Structure prediction by ZEFSAII (Michael W. Deem and Ramdas Pophale) SiO2 
 PCOD9577669
Probable space group: P -3 1 M 
;
_chemical_formula_sum "Si O2"
_cell_formula_units_Z 78
_cell_length_a 26.989326
_cell_length_b 26.989326
_cell_length_c 7.129637
_cell_angle_alpha 90.000000
_cell_angle_beta 90.000000
_cell_angle_gamma 120.000000
_cell_volume 4497.613466
_symmetry_space_group_name_H-M "P -3 1 M "
_symmetry_group_IT_number 162
_symmetry_cell_setting 'hexagonal'
loop_
_space_group_symop_operation_xyz
x,y,z
-y,x-y,z
-x+y,-x,z
-y,-x,-z
-x+y,y,-z
x,x-y,-z
-x,-y,-z
y,-x+y,-z
x-y,x,-z
y,x,z
x-y,-y,z
-x,-x+y,z
loop_
_atom_site_type_symbol
_atom_site_label
_atom_site_fract_x
_atom_site_fract_y
_atom_site_fract_z
Si Si1 0.062063 0.717236 0.224483
Si Si2 0.527972 0.159462 0.565107
Si Si3 0.527823 0.763912 0.500000
Si Si4 0.262609 0.938347 0.222028
Si Si5 0.629745 0.815027 0.225695
Si Si6 0.462051 0.064518 0.844714
Si Si7 0.441433 0.377657 0.713581
O O1 0.121047 0.770035 0.294131
O O2 0.065669 0.659546 0.233638
O O3 0.000000 0.701189 0.303662
O O4 0.061010 0.730081 0.003496
O O5 0.592763 0.185525 0.500000
O O6 0.507869 0.206182 0.565734
O O7 0.514216 0.119921 0.750926
O O8 0.489063 0.112249 0.411222
O O9 0.570599 0.772491 0.328582
O O10 0.205394 0.880450 0.269242
O O11 0.316665 0.933912 0.297654
O O12 0.272132 0.000000 0.275421
O O13 0.621086 0.810543 0.000000
O O14 0.610115 0.069945 0.931187
O O15 0.450098 0.000000 0.806835
O O16 0.424507 0.424507 0.651670
#
# Coordination Sequence:
#
# PCOD9577669 Si02
#       7
#    12  12   6  12  12  12  12
#     4   8  14  26  47  74 100 127 158 192 233 276
#     4  12  25  38  53  73  96 124 160 204 244 287
#     4  12  24  38  54  74  88 116 172 198 232 300
#     4   8  14  26  47  74 100 127 158 192 233 276
#     4  10  18  32  54  74  98 130 161 200 238 279
#     4   9  18  34  55  79 105 127 150 187 237 294
#     4   9  18  34  55  79 105 127 150 187 237 294
#
# _framework density 17.342531999999999
#
# number of rings (size 3 to 8) (size 9 to 14) (size 15 to 20)
#    0.000    2.462    3.077    2.308    0.000    1.846 
#    0.462    2.308    0.000    0.000    0.000    0.000 
#    0.000    0.000    0.000    0.462    0.000   14.769 
#
# Total GULP energy -435109.906008 kJ/mol
# GULP energy per Si atom -5578.332128 kJ/mol
# Density = 1.730306 g / cm^3
# Si number density = 17.342532 Si / 1000 Ang^3
#
#
#
# Elastic Constant Matrix: (Units=GPa)
#
#
# Indices 1 2 3 4 5 6 
#
# 1 60.0717 22.3589 -4.5339 0.0000 -1.7362 0.0000
# 2 22.3589 60.0717 -4.5339 0.0000 1.7362 0.0000
# 3 -4.5339 -4.5339 56.1135 0.0000 0.0000 0.0000
# 4 0.0000 0.0000 0.0000 11.0343 0.0000 1.7362
# 5 -1.7362 1.7362 0.0000 0.0000 11.0343 0.0000
# 6 0.0000 0.0000 0.0000 1.7362 0.0000 18.8564
#
#
#
# Elastic Compliance Matrix: (Units=1/GPa)
#
#
# Indices 1 2 3 4 5 6 
#
# 1 0.019573 -0.007333 0.000989 0.000000 0.004233 0.000000
# 2 -0.007333 0.019573 0.000989 0.000000 -0.004233 0.000000
# 3 0.000989 0.000989 0.017981 0.000000 0.000000 0.000000
# 4 0.000000 0.000000 0.000000 0.091959 0.000000 -0.008467
# 5 0.004233 -0.004233 0.000000 0.000000 0.091959 0.000000
# 6 0.000000 0.000000 0.000000 -0.008467 0.000000 0.053812
#
#
# Mechanical properties :
#
#
# Convention : Reuss Voigt Hill
#
# Bulk Modulus (GPa) = 21.54374 22.53769 22.04071
# Shear Modulus (GPa) = 15.57445 19.04937 17.31191
#
# Velocity S-wave (km/s) = 3.00000 3.31784 3.16291
# Velocity P-wave (km/s) = 4.94464 5.26319 5.10640
#
# Compressibility (1/GPa) = 0.04641720
#
# Stress axis : x y z
#
# Youngs Moduli (GPa) = 51.09048 51.09048 55.61477
#
# Poissons Ratio (x) = 0.37464 -0.05500
# Poissons Ratio (y) = 0.37464 -0.05500
# Poissons Ratio (z) = -0.05053 -0.05053
#
# Static dielectric constant tensor:
#      x y z
#    x 1.601580 0.000000 0.000000 
#    y 0.000000 1.601580 0.000000 
#    z 0.000000 0.000000 1.655490 
# 
# From -- ./inp_files/1828.got.cif
#   From: 2010.05.17/outbox.cif.g08.bks.cpg/sg162_1_cif.got.tgz:1828.got - 2010.05.20 10:53:12.
