data_PCOD9577195
_publ_section_title
;
Structure prediction by ZEFSAII (Michael W. Deem and Ramdas Pophale) SiO2 
 PCOD9577195
Probable space group: P 3 M 1
;
_chemical_formula_sum "Si O2"
_cell_formula_units_Z 42
_cell_length_a 21.472700
_cell_length_b 21.472700
_cell_length_c 5.670612
_cell_angle_alpha 90.000000
_cell_angle_beta 90.000000
_cell_angle_gamma 120.000000
_cell_volume 2264.299535
_symmetry_space_group_name_H-M "P 3 M 1"
_symmetry_group_IT_number 156
_symmetry_cell_setting 'hexagonal'
loop_
_space_group_symop_operation_xyz
x,y,z
-y,x-y,z
-x+y,-x,z
-x+y,y,z
x,x-y,z
-y,-x,z
loop_
_atom_site_type_symbol
_atom_site_label
_atom_site_fract_x
_atom_site_fract_y
_atom_site_fract_z
Si Si1 0.969601 0.555941 0.510480
Si Si2 0.332550 0.812234 0.134191
Si Si3 0.970217 0.667784 0.152021
Si Si4 0.410741 0.136054 0.766796
Si Si5 0.251070 0.195178 0.535806
Si Si6 0.554608 0.672310 0.637053
Si Si7 0.079234 0.299327 0.795520
O O1 0.961359 0.480680 0.432035
O O2 0.985494 0.615841 0.312652
O O3 0.899419 0.546753 0.646914
O O4 0.041246 0.598851 0.667001
O O5 0.410205 0.820410 0.109963
O O6 0.269944 0.730057 0.153704
O O7 0.332255 0.847985 0.387932
O O8 0.318043 0.840739 0.884694
O O9 0.959345 0.728487 0.280043
O O10 0.895528 0.611425 0.027858
O O11 0.035997 0.715723 0.980569
O O12 0.441750 0.220875 0.750364
O O13 0.331428 0.097377 0.647985
O O14 0.221534 0.110767 0.540271
O O15 0.207384 0.226101 0.673820
O O16 0.634842 0.740796 0.613096
O O17 0.147308 0.294617 0.884208
#
# Coordination Sequence:
#
# PCOD9577195 Si02
#       7
#     6   6   6   6   6   6   6
#     4  11  22  36  56  85 119 156 198 242 301 365
#     4  12  26  44  63  83 113 161 214 266 316 374
#     4  10  18  36  53  85 114 149 191 238 300 344
#     4   9  18  34  56  83 112 140 180 231 291 356
#     4   9  18  34  56  83 112 140 180 231 291 356
#     4  12  24  42  58  90 122 158 200 262 326 362
#     4  11  22  36  56  85 119 156 198 242 301 365
#
# _framework density 18.548781000000002
#
# number of rings (size 3 to 8) (size 9 to 14) (size 15 to 20)
#    0.000    1.429    4.286    4.000    0.000    2.286 
#    0.000    1.429    0.000    0.571    0.000    2.000 
#    0.000    0.000    0.000    0.000    0.000    0.000 
#
# Total GULP energy -233946.887253 kJ/mol
# GULP energy per Si atom -5570.163982 kJ/mol
# Density = 1.850656 g / cm^3
# Si number density = 18.548781 Si / 1000 Ang^3
#
#
#
# Elastic Constant Matrix: (Units=GPa)
#
#
# Indices 1 2 3 4 5 6 
#
# 1 61.7410 46.3244 20.6509 1.9187 0.0003 0.0000
# 2 46.3244 61.7410 20.6509 -1.9187 -0.0003 0.0000
# 3 20.6509 20.6509 72.3354 0.0000 0.0000 0.0000
# 4 1.9187 -1.9187 0.0000 13.6827 0.0000 -0.0003
# 5 0.0003 -0.0003 0.0000 0.0000 13.6827 1.9187
# 6 0.0000 0.0000 0.0000 -0.0003 1.9187 7.7083
#
#
#
# Elastic Compliance Matrix: (Units=1/GPa)
#
#
# Indices 1 2 3 4 5 6 
#
# 1 0.038799 -0.028412 -0.002965 -0.009425 -0.000001 0.000000
# 2 -0.028412 0.038799 -0.002965 0.009425 0.000001 0.000000
# 3 -0.002965 -0.002965 0.015518 0.000000 0.000000 0.000000
# 4 -0.009425 0.009425 0.000000 0.075728 0.000000 0.000003
# 5 -0.000001 0.000001 0.000000 0.000000 0.075728 -0.018850
# 6 0.000000 0.000000 0.000000 0.000003 -0.018850 0.134422
#
#
# Mechanical properties :
#
#
# Convention : Reuss Voigt Hill
#
# Bulk Modulus (GPa) = 40.93298 41.22998 41.08148
# Shear Modulus (GPa) = 10.96918 14.22748 12.59833
#
# Velocity S-wave (km/s) = 2.43445 2.77254 2.60897
# Velocity P-wave (km/s) = 5.47884 5.70310 5.59210
#
# Compressibility (1/GPa) = 0.02443018
#
# Stress axis : x y z
#
# Youngs Moduli (GPa) = 25.77392 25.77392 64.44278
#
# Poissons Ratio (x) = 0.73229 0.19110
# Poissons Ratio (y) = 0.73229 0.19110
# Poissons Ratio (z) = 0.07643 0.07643
#
# Static dielectric constant tensor:
#      x y z
#    x 1.644930 0.000000 0.000000 
#    y 0.000000 1.644930 0.000000 
#    z 0.000000 0.000000 1.794410 
# 
# From -- ./inp_files/194.got.cif
#   From: 2010.05.17/outbox.cif.g08.bks.cpg/sg156_cif.got.tgz:194.got - 2010.05.20 10:49:08.
