data_PCOD9577906
_publ_section_title
;
Structure prediction by ZEFSAII (Michael W. Deem and Ramdas Pophale) SiO2 
 PCOD9577906
Probable space group: P -3 1 M 
;
_chemical_formula_sum "Si O2"
_cell_formula_units_Z 66
_cell_length_a 21.499937
_cell_length_b 21.499937
_cell_length_c 7.648823
_cell_angle_alpha 90.000000
_cell_angle_beta 90.000000
_cell_angle_gamma 120.000000
_cell_volume 3061.960737
_symmetry_space_group_name_H-M "P -3 1 M "
_symmetry_group_IT_number 162
_symmetry_cell_setting 'hexagonal'
loop_
_space_group_symop_operation_xyz
x,y,z
-y,x-y,z
-x+y,-x,z
-y,-x,-z
-x+y,y,-z
x,x-y,-z
-x,-y,-z
y,-x+y,-z
x-y,x,-z
y,x,z
x-y,-y,z
-x,-x+y,z
loop_
_atom_site_type_symbol
_atom_site_label
_atom_site_fract_x
_atom_site_fract_y
_atom_site_fract_z
Si Si1 0.470979 0.672560 0.707667
Si Si2 0.246200 0.246200 0.308113
Si Si3 0.139642 0.139642 0.572087
Si Si4 0.360990 0.087344 0.183881
Si Si5 0.862939 0.633922 0.209706
Si Si6 0.000000 0.851751 0.981024
Si Si7 0.341382 0.814824 0.286850
O O1 0.550666 0.715166 0.779766
O O2 0.477514 0.664596 0.498630
O O3 0.447569 0.731257 0.753970
O O4 0.417791 0.592267 0.770722
O O5 0.201596 0.201596 0.467308
O O6 0.322603 0.253613 0.326887
O O7 0.201650 0.201650 0.131819
O O8 0.135117 0.067559 0.500000
O O9 0.160707 0.160707 0.773672
O O10 0.346258 0.148721 0.268091
O O11 0.447850 0.125752 0.216388
O O12 0.316740 0.000000 0.214526
O O13 0.346396 0.103597 0.985249
O O14 0.928282 0.856564 0.000000
#
# Coordination Sequence:
#
# PCOD9577906 Si02
#       7
#    12   6   6  12  12   6  12
#     4   9  18  38  61  92 126 155 205 264 328 385
#     4  12  26  46  64  96 130 179 228 268 338 386
#     4  12  25  47  69 103 132 165 223 279 334 411
#     4  10  21  40  62  87 119 164 213 255 322 396
#     4  10  23  42  60  86 128 163 210 276 316 388
#     4  12  25  45  73  99 132 173 212 280 346 399
#     4   9  18  36  64  93 119 162 206 261 325 401
#
# _framework density 21.554817
#
# number of rings (size 3 to 8) (size 9 to 14) (size 15 to 20)
#    0.000    1.818    2.727    0.545    2.545    2.182 
#   14.727    1.818    0.000    2.182    0.000    0.000 
#    0.000    0.000    0.000    0.000    0.000    0.000 
#
# Total GULP energy -367507.616711 kJ/mol
# GULP energy per Si atom -5568.297223 kJ/mol
# Density = 2.150576 g / cm^3
# Si number density = 21.554817 Si / 1000 Ang^3
#
#
#
# Elastic Constant Matrix: (Units=GPa)
#
#
# Indices 1 2 3 4 5 6 
#
# 1 83.5979 93.4584 9.1916 -0.0005 12.7446 0.0000
# 2 93.4584 83.5979 9.1916 0.0005 -12.7446 0.0000
# 3 9.1916 9.1916 66.3771 0.0000 0.0000 0.0000
# 4 -0.0005 0.0005 0.0000 17.3285 0.0000 -12.7446
# 5 12.7446 -12.7446 0.0000 0.0000 17.3285 -0.0005
# 6 0.0000 0.0000 0.0000 -12.7446 -0.0005 -4.9303
#
#
#
# Elastic Compliance Matrix: (Units=1/GPa)
#
#
# Indices 1 2 3 4 5 6 
#
# 1 -0.014613 0.020343 -0.000794 -0.000001 0.025709 0.000000
# 2 0.020343 -0.014613 -0.000794 0.000001 -0.025709 0.000000
# 3 -0.000794 -0.000794 0.015285 0.000000 0.000000 0.000000
# 4 -0.000001 0.000001 0.000000 0.019891 0.000000 -0.051419
# 5 0.025709 -0.025709 0.000000 0.000000 0.019891 -0.000002
# 6 0.000000 0.000000 0.000000 -0.051419 -0.000002 -0.069913
#
#
# Mechanical properties :
#
#
# Convention : Reuss Voigt Hill
#
# Bulk Modulus (GPa) = 42.42357 50.80623 46.61490
# Shear Modulus (GPa) = -67.81868 14.06079 -26.87895
#
# Velocity S-wave (km/s) = -5.61531 2.55684 -3.53513
# Velocity P-wave (km/s) = 4.72417 5.68669 2.23838
#
# Compressibility (1/GPa) = 0.02357180
#
# Stress axis : x y z
#
# Youngs Moduli (GPa) = -68.43230 -68.43230 65.42275
#
# Poissons Ratio (x) = 1.39214 0.05191
# Poissons Ratio (y) = 1.39214 0.05191
# Poissons Ratio (z) = -0.05430 -0.05430
#
# Static dielectric constant tensor:
#      x y z
#    x 1.775230 0.000000 0.000000 
#    y 0.000000 1.775230 0.000000 
#    z 0.000000 0.000000 1.878500 
# 
# From -- ./inp_files/1632.got.cif
#   From: 2010.05.17/outbox.cif.g08.bks.cpg/sg162_1_cif.got.tgz:1632.got - 2010.05.20 10:53:12.
