data_PCOD9577250
_publ_section_title
;
Structure prediction by ZEFSAII (Michael W. Deem and Ramdas Pophale) SiO2 
 PCOD9577250
Probable space group: P 3 1 M
;
_chemical_formula_sum "Si O2"
_cell_formula_units_Z 48
_cell_length_a 26.792726
_cell_length_b 26.792726
_cell_length_c 5.273348
_cell_angle_alpha 90.000000
_cell_angle_beta 90.000000
_cell_angle_gamma 120.000000
_cell_volume 3278.316424
_symmetry_space_group_name_H-M "P 3 1 M"
_symmetry_group_IT_number 157
_symmetry_cell_setting 'hexagonal'
loop_
_space_group_symop_operation_xyz
x,y,z
-y,x-y,z
-x+y,-x,z
y,x,z
x-y,-y,z
-x,-x+y,z
loop_
_atom_site_type_symbol
_atom_site_label
_atom_site_fract_x
_atom_site_fract_y
_atom_site_fract_z
Si Si1 0.763057 0.693553 0.839460
Si Si2 0.824004 0.068796 0.457097
Si Si3 0.931204 0.175993 0.339525
Si Si4 0.592115 0.521928 0.437526
Si Si5 0.070395 0.651144 0.858841
Si Si6 0.478080 0.407893 0.359140
Si Si7 0.763053 0.069504 0.957159
Si Si8 0.419244 0.070395 0.937825
O O1 0.725126 0.725126 0.845635
O O2 0.791832 0.708606 0.563562
O O3 0.717931 0.626907 0.891979
O O4 0.807554 0.723072 0.069390
O O5 0.891418 0.108579 0.398314
O O6 0.807550 0.084484 0.727225
O O7 0.799201 0.000000 0.451053
O O8 0.791830 0.083226 0.233053
O O9 0.000000 0.200795 0.345578
O O10 0.556408 0.556408 0.436870
O O11 0.544528 0.455480 0.398326
O O12 0.624619 0.536814 0.704536
O O13 0.636203 0.547926 0.204235
O O14 0.088277 0.636193 0.592439
O O15 0.091023 0.717925 0.904663
O O16 0.000000 0.617150 0.856966
O O17 0.087805 0.624615 0.092138
O O18 0.443600 0.443600 0.359793
O O19 0.725123 0.000000 0.950977
O O20 0.382843 0.000000 0.939704
#
# Coordination Sequence:
#
# PCOD9577250 Si02
#       8
#     6   6   6   6   6   6   6   6
#     4   9  17  28  42  59  77  99 126 156 195 239
#     4  10  19  31  46  63  81  99 122 156 204 262
#     4  10  19  31  46  63  81  99 122 156 204 262
#     4   9  15  21  30  46  69  98 130 161 191 214
#     4   9  15  23  34  48  69  96 126 159 191 220
#     4   9  15  21  30  46  69  98 130 161 191 214
#     4   9  17  28  42  59  77  99 126 156 195 239
#     4   9  15  23  34  48  69  96 126 159 191 220
#
# _framework density 14.641662
#
# number of rings (size 3 to 8) (size 9 to 14) (size 15 to 20)
#    0.000    2.750    0.000    3.000    0.000    9.000 
#    0.000    0.000    0.000    0.250    0.000    0.000 
#    0.000    6.000    0.000    0.000    0.000    1.000 
#
# Total GULP energy -267238.408110 kJ/mol
# GULP energy per Si atom -5567.466836 kJ/mol
# Density = 1.460834 g / cm^3
# Si number density = 14.641662 Si / 1000 Ang^3
#
#
#
# Elastic Constant Matrix: (Units=GPa)
#
#
# Indices 1 2 3 4 5 6 
#
# 1 24.5170 9.4073 -8.2867 0.0000 2.3023 0.0000
# 2 9.4073 24.5170 -8.2867 0.0000 -2.3023 0.0000
# 3 -8.2867 -8.2867 59.0596 0.0000 0.0000 0.0000
# 4 0.0000 0.0000 0.0000 15.0420 0.0000 -2.3023
# 5 2.3023 -2.3023 0.0000 0.0000 15.0420 0.0000
# 6 0.0000 0.0000 0.0000 -2.3023 0.0000 7.5549
#
#
#
# Elastic Compliance Matrix: (Units=1/GPa)
#
#
# Indices 1 2 3 4 5 6 
#
# 1 0.050534 -0.018887 0.004440 0.000000 -0.010625 0.000000
# 2 -0.018887 0.050534 0.004440 0.000000 0.010625 0.000000
# 3 0.004440 0.004440 0.018178 0.000000 0.000000 0.000000
# 4 0.000000 0.000000 0.000000 0.069733 0.000000 0.021250
# 5 -0.010625 0.010625 0.000000 0.000000 0.069733 0.000000
# 6 0.000000 0.000000 0.000000 0.021250 0.000000 0.138841
#
#
# Mechanical properties :
#
#
# Convention : Reuss Voigt Hill
#
# Bulk Modulus (GPa) = 10.07731 10.41795 10.24763
# Shear Modulus (GPa) = 11.09527 15.21174 13.15351
#
# Velocity S-wave (km/s) = 2.75578 3.22675 3.00052
# Velocity P-wave (km/s) = 4.12594 4.58402 4.36100
#
# Compressibility (1/GPa) = 0.09923279
#
# Stress axis : x y z
#
# Youngs Moduli (GPa) = 19.78885 19.78885 55.01122
#
# Poissons Ratio (x) = 0.37375 -0.24427
# Poissons Ratio (y) = 0.37375 -0.24427
# Poissons Ratio (z) = -0.08787 -0.08787
#
# Static dielectric constant tensor:
#      x y z
#    x 1.478420 0.000000 0.000000 
#    y 0.000000 1.478420 0.000000 
#    z 0.000000 0.000000 1.498030 
# 
# From -- ./inp_files/235.got.cif
#   From: 2010.05.17/outbox.cif.g08.bks.cpg/sg157_cif.got.tgz:235.got - 2010.05.20 10:49:36.
