data_PCOD9577756
_publ_section_title
;
Structure prediction by ZEFSAII (Michael W. Deem and Ramdas Pophale) SiO2 
 PCOD9577756
Probable space group: P -3 1 M 
;
_chemical_formula_sum "Si O2"
_cell_formula_units_Z 78
_cell_length_a 23.480470
_cell_length_b 23.480470
_cell_length_c 9.555283
_cell_angle_alpha 90.000000
_cell_angle_beta 90.000000
_cell_angle_gamma 120.000000
_cell_volume 4562.341158
_symmetry_space_group_name_H-M "P -3 1 M "
_symmetry_group_IT_number 162
_symmetry_cell_setting 'hexagonal'
loop_
_space_group_symop_operation_xyz
x,y,z
-y,x-y,z
-x+y,-x,z
-y,-x,-z
-x+y,y,-z
x,x-y,-z
-x,-y,-z
y,-x+y,-z
x-y,x,-z
y,x,z
x-y,-y,z
-x,-x+y,z
loop_
_atom_site_type_symbol
_atom_site_label
_atom_site_fract_x
_atom_site_fract_y
_atom_site_fract_z
Si Si1 0.189813 0.821020 0.166547
Si Si2 0.819964 0.403016 0.168168
Si Si3 0.493205 0.078869 0.382443
Si Si4 0.199275 0.923801 0.636594
Si Si5 0.921929 0.078072 0.500000
Si Si6 0.078366 0.717312 0.620993
Si Si7 0.252181 0.733312 0.169322
O O1 0.122412 0.804739 0.238918
O O2 0.246065 0.888544 0.234709
O O3 0.212891 0.769661 0.211448
O O4 0.182124 0.817877 0.000000
O O5 0.887673 0.419321 0.240183
O O6 0.770182 0.327928 0.213082
O O7 0.788250 0.446455 0.214668
O O8 0.826148 0.413074 0.000000
O O9 0.549260 0.098519 0.500000
O O10 0.436516 0.097863 0.411889
O O11 0.454859 0.000000 0.372044
O O12 0.128597 0.919139 0.612147
O O13 0.227837 0.904951 0.499372
O O14 0.250440 0.000000 0.663519
O O15 0.000000 0.110703 0.463089
O O16 0.000000 0.678943 0.634474
O O17 0.259827 0.740174 0.000000
#
# Coordination Sequence:
#
# PCOD9577756 Si02
#       7
#    12  12  12  12   6  12  12
#     4  11  21  35  56  85 116 143 183 232 279 330
#     4  10  19  36  57  75 104 139 178 221 269 327
#     4  10  22  38  54  78 107 140 183 228 275 323
#     4  10  21  37  58  84 113 151 188 221 272 337
#     4  10  19  34  58  86 114 144 186 228 266 318
#     4  10  20  38  59  78 110 151 188 228 277 331
#     4   9  19  33  53  78 103 139 180 225 277 326
#
# _framework density 17.096485999999999
#
# number of rings (size 3 to 8) (size 9 to 14) (size 15 to 20)
#    0.000    2.000    3.077    0.385    2.154    2.154 
#    0.000    0.769    0.000    0.000    0.000    0.000 
#    0.000    3.077    0.000    0.000    0.000    0.000 
#
# Total GULP energy -434333.736670 kJ/mol
# GULP energy per Si atom -5568.381239 kJ/mol
# Density = 1.705757 g / cm^3
# Si number density = 17.096486 Si / 1000 Ang^3
#
#
#
# Elastic Constant Matrix: (Units=GPa)
#
#
# Indices 1 2 3 4 5 6 
#
# 1 101.5598 62.4804 43.4327 0.0000 0.0685 0.0000
# 2 62.4804 101.5598 43.4327 0.0000 -0.0685 0.0000
# 3 43.4327 43.4327 60.6845 0.0000 0.0000 0.0000
# 4 0.0000 0.0000 0.0000 19.4522 0.0000 -0.0685
# 5 0.0685 -0.0685 0.0000 0.0000 19.4522 0.0000
# 6 0.0000 0.0000 0.0000 -0.0685 0.0000 19.5397
#
#
#
# Elastic Compliance Matrix: (Units=1/GPa)
#
#
# Indices 1 2 3 4 5 6 
#
# 1 0.017703 -0.007886 -0.007026 0.000000 -0.000090 0.000000
# 2 -0.007886 0.017703 -0.007026 0.000000 0.000090 0.000000
# 3 -0.007026 -0.007026 0.026536 0.000000 0.000000 0.000000
# 4 0.000000 0.000000 0.000000 0.051409 0.000000 0.000180
# 5 -0.000090 0.000090 0.000000 0.000000 0.051409 0.000000
# 6 0.000000 0.000000 0.000000 0.000180 0.000000 0.051178
#
#
# Mechanical properties :
#
#
# Convention : Reuss Voigt Hill
#
# Bulk Modulus (GPa) = 55.35447 62.49954 58.92701
# Shear Modulus (GPa) = 18.80869 19.31940 19.06404
#
# Velocity S-wave (km/s) = 3.32045 3.36523 3.34291
# Velocity P-wave (km/s) = 6.86648 7.19277 7.03152
#
# Compressibility (1/GPa) = 0.01806539
#
# Stress axis : x y z
#
# Youngs Moduli (GPa) = 56.48807 56.48807 37.68524
#
# Poissons Ratio (x) = 0.44549 0.26477
# Poissons Ratio (y) = 0.44549 0.26477
# Poissons Ratio (z) = 0.39687 0.39687
#
# Static dielectric constant tensor:
#      x y z
#    x 1.589470 0.000000 0.000000 
#    y 0.000000 1.589470 0.000000 
#    z 0.000000 0.000000 1.563630 
# 
# From -- ./inp_files/1824.got.cif
#   From: 2010.05.17/outbox.cif.g08.bks.cpg/sg162_1_cif.got.tgz:1824.got - 2010.05.20 10:53:12.
