data_PCOD9577366
_publ_section_title
;
Structure prediction by ZEFSAII (Michael W. Deem and Ramdas Pophale) SiO2 
 PCOD9577366
Probable space group: P 3 1 C
;
_chemical_formula_sum "Si O2"
_cell_formula_units_Z 18
_cell_length_a 6.992669
_cell_length_b 6.992669
_cell_length_c 16.597446
_cell_angle_alpha 90.000000
_cell_angle_beta 90.000000
_cell_angle_gamma 120.000000
_cell_volume 702.842215
_symmetry_space_group_name_H-M "P 3 1 C"
_symmetry_group_IT_number 159
_symmetry_cell_setting 'hexagonal'
loop_
_space_group_symop_operation_xyz
x,y,z
-y,x-y,z
-x+y,-x,z
y,x,1/2+z
x-y,-y,1/2+z
-x,-x+y,1/2+z
loop_
_atom_site_type_symbol
_atom_site_label
_atom_site_fract_x
_atom_site_fract_y
_atom_site_fract_z
Si Si1 0.057356 0.598795 0.432880
Si Si2 0.265845 0.238032 0.596062
Si Si3 0.972187 0.734155 0.269698
O O1 0.158398 0.438569 0.432880
O O2 0.946299 0.595491 0.516899
O O3 0.946298 0.595491 0.348861
O O4 0.352002 0.352003 0.682880
O O5 0.192298 0.979173 0.594078
O O6 0.786874 0.807702 0.271682
#
# Coordination Sequence:
#
# PCOD9577366 Si02
#       3
#     6   6   6
#     4  10  20  30  46  84 112 132 148 228 288 294
#     4   8  16  34  59  73  90 144 194 201 228 320
#     4   8  16  34  59  73  90 144 194 201 228 320
#
# _framework density 25.610302000000001
#
# number of rings (size 3 to 8) (size 9 to 14) (size 15 to 20)
#    2.000    1.333    0.000    2.000    0.000    0.000 
#   12.000    0.000    0.000   10.667    0.000    0.000 
#    0.000    0.000    0.000    0.000    0.000    0.000 
#
# Total GULP energy -100242.256313 kJ/mol
# GULP energy per Si atom -5569.014240 kJ/mol
# Density = 2.555201 g / cm^3
# Si number density = 25.610302 Si / 1000 Ang^3
#
#
#
# Elastic Constant Matrix: (Units=GPa)
#
#
# Indices 1 2 3 4 5 6 
#
# 1 60.1792 10.5616 37.3185 0.0000 0.0000 0.0000
# 2 10.5616 60.1792 37.3185 0.0000 0.0000 0.0000
# 3 37.3185 37.3185 264.4088 0.0000 0.0000 0.0000
# 4 0.0000 0.0000 0.0000 8.2083 0.0000 0.0000
# 5 0.0000 0.0000 0.0000 0.0000 8.2083 0.0000
# 6 0.0000 0.0000 0.0000 0.0000 0.0000 24.8088
#
#
#
# Elastic Compliance Matrix: (Units=1/GPa)
#
#
# Indices 1 2 3 4 5 6 
#
# 1 0.018382 -0.001772 -0.002344 0.000000 0.000000 0.000000
# 2 -0.001772 0.018382 -0.002344 0.000000 0.000000 0.000000
# 3 -0.002344 -0.002344 0.004444 0.000000 0.000000 0.000000
# 4 0.000000 0.000000 0.000000 0.121827 0.000000 0.000000
# 5 0.000000 0.000000 0.000000 0.000000 0.121827 0.000000
# 6 0.000000 0.000000 0.000000 0.000000 0.000000 0.040308
#
#
# Mechanical properties :
#
#
# Convention : Reuss Voigt Hill
#
# Bulk Modulus (GPa) = 35.35352 61.68494 48.51923
# Shear Modulus (GPa) = 14.38762 28.21632 21.30197
#
# Velocity S-wave (km/s) = 2.37278 3.32287 2.88718
# Velocity P-wave (km/s) = 4.61965 6.23380 5.48641
#
# Compressibility (1/GPa) = 0.02828573
#
# Stress axis : x y z
#
# Youngs Moduli (GPa) = 54.40156 54.40156 225.03482
#
# Poissons Ratio (x) = 0.09642 0.52754
# Poissons Ratio (y) = 0.09642 0.52754
# Poissons Ratio (z) = 0.12753 0.12753
#
# Static dielectric constant tensor:
#      x y z
#    x 2.033970 0.000000 0.000000 
#    y 0.000000 2.033970 0.000000 
#    z 0.000000 0.000000 2.004290 
# 
# From -- ./inp_files/975.got.cif
#   From: 2010.05.17/outbox.cif.g08.bks.cpg/sg159_cif.got.tgz:975.got - 2010.05.20 10:50:30.
