data_PCOD9577500
_publ_section_title
;
Structure prediction by ZEFSAII (Michael W. Deem and Ramdas Pophale) SiO2 
 PCOD9577500
Probable space group: R 3 M
;
_chemical_formula_sum "Si O2"
_cell_formula_units_Z 144
_cell_length_a 21.115438
_cell_length_b 21.115438
_cell_length_c 19.734844
_cell_angle_alpha 90.000000
_cell_angle_beta 90.000000
_cell_angle_gamma 120.000000
_cell_volume 7620.167511
_symmetry_space_group_name_H-M "R 3 M"
_symmetry_group_IT_number 160
_symmetry_cell_setting 'hexagonal'
loop_
_space_group_symop_operation_xyz
x,y,z
-y,x-y,z
-x+y,-x,z
-x+y,y,z
x,x-y,z
-y,-x,z
2/3+x,1/3+y,1/3+z
2/3-y,1/3+x-y,1/3+z
2/3-x+y,1/3-x,1/3+z
2/3-x+y,1/3+y,1/3+z
2/3+x,1/3+x-y,1/3+z
2/3-y,1/3-x,1/3+z
1/3+x,2/3+y,2/3+z
1/3-y,2/3+x-y,2/3+z
1/3-x+y,2/3-x,2/3+z
1/3-x+y,2/3+y,2/3+z
1/3+x,2/3+x-y,2/3+z
1/3-y,2/3-x,2/3+z
loop_
_atom_site_type_symbol
_atom_site_label
_atom_site_fract_x
_atom_site_fract_y
_atom_site_fract_z
Si Si1 0.020319 0.255974 0.801112
Si Si2 0.799066 0.054324 0.077402
Si Si3 0.797367 0.053276 0.571302
Si Si4 0.868306 0.591858 0.292657
Si Si5 0.758642 0.804191 0.207879
Si Si6 0.480486 0.665759 0.359105
Si Si7 0.238394 0.190246 0.333553
Si Si8 0.061058 0.455351 0.121148
O O1 0.082615 0.325137 0.759826
O O2 0.041215 0.260496 0.879858
O O3 0.009907 0.183071 0.766264
O O4 0.946390 0.259350 0.793636
O O5 0.882668 0.117333 0.085162
O O6 0.773321 0.992010 0.134928
O O7 0.784598 0.015410 0.004654
O O8 0.875669 0.124332 0.554945
O O9 0.739255 0.081578 0.566501
O O10 0.806403 0.023229 0.643105
O O11 0.773487 0.989635 0.517038
O O12 0.782310 0.564619 0.301167
O O13 0.911079 0.674869 0.320190
O O14 0.766436 0.883218 0.205404
O O15 0.811860 0.799462 0.262597
O O16 0.463235 0.731618 0.357275
O O17 0.410080 0.589921 0.337773
O O18 0.219991 0.109996 0.356619
O O19 0.217847 0.232953 0.387576
O O20 0.058714 0.529357 0.120583
#
# Coordination Sequence:
#
# PCOD9577500 Si02
#       8
#    18  18  18  18  18  18  18  18
#     4  12  24  41  60  94 125 157 207 265 317 366
#     4  12  24  40  64  93 127 165 208 257 308 370
#     4  10  21  39  63  91 125 160 203 258 312 371
#     4  11  23  42  65  91 126 163 203 256 313 371
#     4  11  21  39  64  94 127 161 206 258 312 372
#     4  11  24  42  62  85 119 165 212 258 313 379
#     4  11  21  38  62  90 126 165 207 252 307 375
#     4  12  23  37  60  92 128 164 204 256 312 372
#
# _framework density 18.897223
#
# number of rings (size 3 to 8) (size 9 to 14) (size 15 to 20)
#    0.000    0.750    3.750    4.250    1.750    4.000 
#    0.000    0.000    0.000   10.250    0.000    0.000 
#    0.000    0.000    0.000    0.000    0.000    0.000 
#
# Total GULP energy -268420.812924 kJ/mol
# GULP energy per Si atom -5592.100269 kJ/mol
# Density = 1.885421 g / cm^3
# Si number density = 18.897223 Si / 1000 Ang^3
#
#
#
# Elastic Constant Matrix: (Units=GPa)
#
#
# Indices 1 2 3 4 5 6 
#
# 1 57.0339 72.3091 25.2701 24.6322 -0.0075 0.0000
# 2 72.3091 57.0339 25.2701 -24.6322 0.0075 0.0000
# 3 25.2701 25.2701 67.5042 0.0000 0.0000 0.0000
# 4 24.6322 -24.6322 0.0000 6.1863 0.0000 0.0075
# 5 -0.0075 0.0075 0.0000 0.0000 6.1863 24.6322
# 6 0.0000 0.0000 0.0000 0.0075 24.6322 -7.6376
#
#
#
# Elastic Compliance Matrix: (Units=1/GPa)
#
#
# Indices 1 2 3 4 5 6 
#
# 1 0.002163 0.006893 -0.003390 0.018832 -0.000006 0.000000
# 2 0.006893 0.002163 -0.003390 -0.018832 0.000006 0.000000
# 3 -0.003390 -0.003390 0.017352 0.000000 0.000000 0.000000
# 4 0.018832 -0.018832 0.000000 0.011678 0.000000 0.000012
# 5 -0.000006 0.000006 0.000000 0.000000 0.011678 0.037664
# 6 0.000000 0.000000 0.000000 0.000012 0.037664 -0.009459
#
#
# Mechanical properties :
#
#
# Convention : Reuss Voigt Hill
#
# Bulk Modulus (GPa) = 45.65440 47.47452 46.56446
# Shear Modulus (GPa) = 117.22781 4.86185 61.04483
#
# Velocity S-wave (km/s) = 7.88474 1.60573 5.68979
# Velocity P-wave (km/s) = 10.34910 5.34929 8.23768
#
# Compressibility (1/GPa) = 0.02190369
#
# Stress axis : x y z
#
# Youngs Moduli (GPa) = 462.27382 462.27382 57.62996
#
# Poissons Ratio (x) = -3.18638 0.19537
# Poissons Ratio (y) = -3.18638 0.19537
# Poissons Ratio (z) = 1.56717 1.56717
#
# Static dielectric constant tensor:
#      x y z
#    x 1.645070 0.000000 0.000000 
#    y 0.000000 1.645070 0.000000 
#    z 0.000000 0.000000 1.662420 
# 
# From -- ./inp_files/3436.got.cif
#   From: 2010.05.17/outbox.cif.g08.bks.cpg/sg160_2_cif.got.tgz:3436.got - 2010.05.20 10:51:19.
