data_PCOD9577065
_publ_section_title
;
Structure prediction by ZEFSAII (Michael W. Deem and Ramdas Pophale) SiO2 
 PCOD9577065
Probable space group: R 3 2
;
_chemical_formula_sum "Si O2"
_cell_formula_units_Z 45
_cell_length_a 15.406868
_cell_length_b 15.406868
_cell_length_c 8.844001
_cell_angle_alpha 90.000000
_cell_angle_beta 90.000000
_cell_angle_gamma 120.000000
_cell_volume 1818.059692
_symmetry_space_group_name_H-M "R 3 2"
_symmetry_group_IT_number 155
_symmetry_cell_setting 'hexagonal'
loop_
_space_group_symop_operation_xyz
x,y,z
-y,x-y,z
-x+y,-x,z
x-y,-y,-z
-x,-x+y,-z
y,x,-z
2/3+x,1/3+y,1/3+z
2/3-y,1/3+x-y,1/3+z
2/3-x+y,1/3-x,1/3+z
2/3+x-y,1/3-y,1/3-z
2/3-x,1/3-x+y,1/3-z
2/3+y,1/3+x,1/3-z
1/3+x,2/3+y,2/3+z
1/3-y,2/3+x-y,2/3+z
1/3-x+y,2/3-x,2/3+z
1/3+x-y,2/3-y,2/3-z
1/3-x,2/3-x+y,2/3-z
1/3+y,2/3+x,2/3-z
loop_
_atom_site_type_symbol
_atom_site_label
_atom_site_fract_x
_atom_site_fract_y
_atom_site_fract_z
Si Si1 0.459663 0.719920 0.479970
Si Si2 0.858479 0.645744 0.337558
Si Si3 0.146206 0.146206 0.500000
O O1 0.394596 0.774412 0.522519
O O2 0.435096 0.900621 0.778256
O O3 0.463140 0.734024 0.299341
O O4 0.837612 0.666667 0.166667
O O5 0.932182 0.598848 0.333334
O O6 0.920253 0.752370 0.417064
#
# Coordination Sequence:
#
# PCOD9577065 Si02
#       3
#    18  18   9
#     4  10  24  43  67 110 152 183 235 312 378 433
#     4  12  22  40  66 104 140 191 247 302 349 437
#     4  12  20  42  72 108 138 192 258 302 348 452
#
# _framework density 24.751662
#
# number of rings (size 3 to 8) (size 9 to 14) (size 15 to 20)
#    0.800    0.000    6.000    2.400    0.000    1.600 
#    0.000    0.000    0.000    0.000   72.800    0.000 
#    0.000    0.000    0.000    0.000    0.000    0.000 
#
# Total GULP energy -83884.041084 kJ/mol
# GULP energy per Si atom -5592.269406 kJ/mol
# Density = 2.469533 g / cm^3
# Si number density = 24.751662 Si / 1000 Ang^3
#
#
#
# Elastic Constant Matrix: (Units=GPa)
#
#
# Indices 1 2 3 4 5 6 
#
# 1 93.2149 15.8904 53.4323 7.3925 -0.0001 0.0000
# 2 15.8904 93.2149 53.4323 -7.3925 0.0001 0.0000
# 3 53.4323 53.4323 218.7549 0.0000 0.0000 0.0000
# 4 7.3925 -7.3925 0.0000 49.8230 0.0000 0.0001
# 5 -0.0001 0.0001 0.0000 0.0000 49.8230 7.3925
# 6 0.0000 0.0000 0.0000 0.0001 7.3925 38.6623
#
#
#
# Elastic Compliance Matrix: (Units=1/GPa)
#
#
# Indices 1 2 3 4 5 6 
#
# 1 0.012679 -0.000631 -0.002943 -0.001975 0.000000 0.000000
# 2 -0.000631 0.012679 -0.002943 0.001975 0.000000 0.000000
# 3 -0.002943 -0.002943 0.006009 0.000000 0.000000 0.000000
# 4 -0.001975 0.001975 0.000000 0.020657 0.000000 0.000000
# 5 0.000000 0.000000 0.000000 0.000000 0.020657 -0.003950
# 6 0.000000 0.000000 0.000000 0.000000 -0.003950 0.026620
#
#
# Mechanical properties :
#
#
# Convention : Reuss Voigt Hill
#
# Bulk Modulus (GPa) = 54.54510 72.29941 63.42226
# Shear Modulus (GPa) = 42.21343 46.49031 44.35187
#
# Velocity S-wave (km/s) = 4.13422 4.33860 4.23765
# Velocity P-wave (km/s) = 6.69880 7.37369 7.04433
#
# Compressibility (1/GPa) = 0.01833345
#
# Stress axis : x y z
#
# Youngs Moduli (GPa) = 78.87092 78.87092 166.41995
#
# Poissons Ratio (x) = 0.04978 0.48973
# Poissons Ratio (y) = 0.04978 0.48973
# Poissons Ratio (z) = 0.23210 0.23210
#
# Static dielectric constant tensor:
#      x y z
#    x 1.947720 0.000000 0.000000 
#    y 0.000000 1.947720 0.000000 
#    z 0.000000 0.000000 2.071570 
# 
# From -- ./inp_files/1553.got.cif
#   From: 2010.05.17/outbox.cif.g08.bks.cpg/sg155_1_cif.got.tgz:1553.got - 2010.05.20 10:44:35.
