data_PCOD9577231
_publ_section_title
;
Structure prediction by ZEFSAII (Michael W. Deem and Ramdas Pophale) SiO2 
 PCOD9577231
Probable space group: P 3 M 1
;
_chemical_formula_sum "Si O2"
_cell_formula_units_Z 48
_cell_length_a 12.869224
_cell_length_b 12.869224
_cell_length_c 20.998246
_cell_angle_alpha 90.000000
_cell_angle_beta 90.000000
_cell_angle_gamma 120.000000
_cell_volume 3011.746203
_symmetry_space_group_name_H-M "P 3 M 1"
_symmetry_group_IT_number 156
_symmetry_cell_setting 'hexagonal'
loop_
_space_group_symop_operation_xyz
x,y,z
-y,x-y,z
-x+y,-x,z
-x+y,y,z
x,x-y,z
-y,-x,z
loop_
_atom_site_type_symbol
_atom_site_label
_atom_site_fract_x
_atom_site_fract_y
_atom_site_fract_z
Si Si1 0.580641 0.666549 0.192630
Si Si2 0.913978 0.579893 0.312816
Si Si3 0.667015 0.580179 0.672994
Si Si4 0.000824 0.247310 0.930388
Si Si5 0.000625 0.753596 0.554944
Si Si6 0.913760 0.333787 0.816714
Si Si7 0.086066 0.666906 0.433786
Si Si8 0.246534 0.246480 0.074324
O O1 0.575974 0.787987 0.203667
O O2 0.447487 0.552514 0.188565
O O3 0.647034 0.641439 0.250487
O O4 0.654321 0.683967 0.127794
O O5 0.794482 0.588963 0.314069
O O6 0.882354 0.441177 0.312304
O O7 0.997513 0.640507 0.374301
O O8 0.774947 0.549893 0.669776
O O9 0.540273 0.459728 0.663069
O O10 0.694383 0.677717 0.618933
O O11 0.669519 0.626344 0.744867
O O12 0.120527 0.241054 0.923140
O O13 0.990201 0.324175 0.873810
O O14 0.885607 0.114394 0.925790
O O15 0.998722 0.290347 0.002367
O O16 0.877771 0.755541 0.544005
O O17 0.029250 0.691569 0.496220
O O18 0.112566 0.887435 0.561139
O O19 0.906707 0.453354 0.822038
O O20 0.781469 0.218532 0.822562
O O21 0.100259 0.550130 0.442113
O O22 0.214942 0.785059 0.422260
O O23 0.252595 0.126298 0.086026
O O24 0.108285 0.216569 0.076197
#
# Coordination Sequence:
#
# PCOD9577231 Si02
#       8
#     6   6   6   6   6   6   6   6
#     4  10  20  33  50  71  96 126 159 196 236 280
#     4  10  20  34  52  73  97 124 154 190 233 280
#     4   9  17  30  48  69  91 117 152 194 239 283
#     4   9  17  29  46  68  93 122 156 194 236 281
#     4  10  20  33  49  70  98 130 161 194 235 283
#     4   9  17  29  46  67  91 119 151 190 235 283
#     4  10  20  34  53  75  99 128 162 199 235 274
#     4   9  17  30  48  69  93 122 157 197 239 282
#
# _framework density 15.937597999999999
#
# number of rings (size 3 to 8) (size 9 to 14) (size 15 to 20)
#    0.000    2.500    0.000    2.500    0.000    3.000 
#    0.000    1.250    0.000    9.750    0.000    0.000 
#    0.000    0.000    0.000    0.000    0.000    0.000 
#
# Total GULP energy -267586.871125 kJ/mol
# GULP energy per Si atom -5574.726482 kJ/mol
# Density = 1.590132 g / cm^3
# Si number density = 15.937598 Si / 1000 Ang^3
#
#
#
# Elastic Constant Matrix: (Units=GPa)
#
#
# Indices 1 2 3 4 5 6 
#
# 1 99.5137 62.2802 80.5087 -0.7999 0.0002 0.0000
# 2 62.2802 99.5137 80.5087 0.7999 -0.0002 0.0000
# 3 80.5087 80.5087 146.1768 0.0000 0.0000 0.0000
# 4 -0.7999 0.7999 0.0000 26.6501 0.0000 -0.0002
# 5 0.0002 -0.0002 0.0000 0.0000 26.6501 -0.7999
# 6 0.0000 0.0000 0.0000 -0.0002 -0.7999 18.6167
#
#
#
# Elastic Compliance Matrix: (Units=1/GPa)
#
#
# Indices 1 2 3 4 5 6 
#
# 1 0.020285 -0.006607 -0.007533 0.000807 0.000000 0.000000
# 2 -0.006607 0.020285 -0.007533 -0.000807 0.000000 0.000000
# 3 -0.007533 -0.007533 0.015139 0.000000 0.000000 0.000000
# 4 0.000807 -0.000807 0.000000 0.037572 0.000000 0.000000
# 5 0.000000 0.000000 0.000000 0.000000 0.037572 0.001614
# 6 0.000000 0.000000 0.000000 0.000000 0.001614 0.053784
#
#
# Mechanical properties :
#
#
# Convention : Reuss Voigt Hill
#
# Bulk Modulus (GPa) = 80.89464 87.97769 84.43616
# Shear Modulus (GPa) = 21.54200 22.51050 22.02625
#
# Velocity S-wave (km/s) = 3.68046 3.76229 3.72160
# Velocity P-wave (km/s) = 8.30231 8.61361 8.45939
#
# Compressibility (1/GPa) = 0.01236176
#
# Stress axis : x y z
#
# Youngs Moduli (GPa) = 49.29756 49.29756 66.05451
#
# Poissons Ratio (x) = 0.32572 0.49760
# Poissons Ratio (y) = 0.32572 0.49760
# Poissons Ratio (z) = 0.37137 0.37137
#
# Static dielectric constant tensor:
#      x y z
#    x 1.502200 0.000000 0.000000 
#    y 0.000000 1.502200 0.000000 
#    z 0.000000 0.000000 1.539330 
# 
# From -- ./inp_files/1118.got.cif
#   From: 2010.05.17/outbox.cif.g08.bks.cpg/sg156_cif.got.tgz:1118.got - 2010.05.20 10:49:08.
