data_PCOD9577775
_publ_section_title
;
Structure prediction by ZEFSAII (Michael W. Deem and Ramdas Pophale) SiO2 
 PCOD9577775
Probable space group: P -3 1 M 
;
_chemical_formula_sum "Si O2"
_cell_formula_units_Z 90
_cell_length_a 17.901981
_cell_length_b 17.901981
_cell_length_c 18.009034
_cell_angle_alpha 90.000000
_cell_angle_beta 90.000000
_cell_angle_gamma 120.000000
_cell_volume 4998.310523
_symmetry_space_group_name_H-M "P -3 1 M "
_symmetry_group_IT_number 162
_symmetry_cell_setting 'hexagonal'
loop_
_space_group_symop_operation_xyz
x,y,z
-y,x-y,z
-x+y,-x,z
-y,-x,-z
-x+y,y,-z
x,x-y,-z
-x,-y,-z
y,-x+y,-z
x-y,x,-z
y,x,z
x-y,-y,z
-x,-x+y,z
loop_
_atom_site_type_symbol
_atom_site_label
_atom_site_fract_x
_atom_site_fract_y
_atom_site_fract_z
Si Si1 0.491971 0.387217 0.196505
Si Si2 0.336689 0.439832 0.775522
Si Si3 0.528692 0.895230 0.029904
Si Si4 0.901913 0.636417 0.483955
Si Si5 0.836869 0.500934 0.614905
Si Si6 0.832109 0.327554 0.643122
Si Si7 0.793942 0.896971 0.000000
Si Si8 0.759140 0.654186 0.089777
O O1 0.433611 0.433611 0.204879
O O2 0.591992 0.464448 0.197779
O O3 0.473555 0.343417 0.115803
O O4 0.480915 0.330591 0.269025
O O5 0.386632 0.386632 0.778967
O O6 0.315285 0.444339 0.690462
O O7 0.257814 0.393713 0.832042
O O8 0.578694 0.000000 0.029968
O O9 0.432996 0.865992 0.000000
O O10 0.581984 0.870414 0.973780
O O11 0.833665 0.667329 0.500000
O O12 0.877519 0.559821 0.543410
O O13 0.884831 0.591745 0.403523
O O14 0.000000 0.708127 0.492735
O O15 0.857359 0.423966 0.619819
O O16 0.735303 0.468386 0.619197
O O17 0.726825 0.871474 0.931512
O O18 0.851919 0.851919 0.994899
O O19 0.706429 0.706429 0.090329
#
# Coordination Sequence:
#
# PCOD9577775 Si02
#       8
#    12  12  12  12  12  12   6  12
#     4   9  16  26  44  70  99 132 166 208 265 320
#     4   9  16  28  46  69  95 126 169 215 262 316
#     4   9  14  24  44  70 100 127 158 207 270 330
#     4  10  21  37  57  81 107 135 170 215 268 319
#     4  10  20  32  49  72 105 146 184 218 257 302
#     4  10  20  32  47  71 104 143 183 220 255 302
#     4  10  21  36  52  70  96 134 184 244 305 350
#     4   9  17  29  47  70  94 124 167 220 271 328
#
# _framework density 18.006084000000001
#
# number of rings (size 3 to 8) (size 9 to 14) (size 15 to 20)
#    0.000    2.533    1.333    1.533    0.000    3.200 
#    0.000    1.333    0.000    3.333    0.000    0.000 
#    0.667    0.000    0.000    0.000    0.000    0.000 
#
# Total GULP energy -501897.304868 kJ/mol
# GULP energy per Si atom -5576.636721 kJ/mol
# Density = 1.796510 g / cm^3
# Si number density = 18.006084 Si / 1000 Ang^3
#
#
#
# Elastic Constant Matrix: (Units=GPa)
#
#
# Indices 1 2 3 4 5 6 
#
# 1 60.6592 31.0753 28.3791 0.0000 1.2698 0.0000
# 2 31.0753 60.6592 28.3791 0.0000 -1.2698 0.0000
# 3 28.3791 28.3791 95.8064 0.0000 0.0000 0.0000
# 4 0.0000 0.0000 0.0000 17.3348 0.0000 -1.2698
# 5 1.2698 -1.2698 0.0000 0.0000 17.3348 0.0000
# 6 0.0000 0.0000 0.0000 -1.2698 0.0000 14.7919
#
#
#
# Elastic Compliance Matrix: (Units=1/GPa)
#
#
# Indices 1 2 3 4 5 6 
#
# 1 0.023682 -0.010334 -0.003954 0.000000 -0.002492 0.000000
# 2 -0.010334 0.023682 -0.003954 0.000000 0.002492 0.000000
# 3 -0.003954 -0.003954 0.012780 0.000000 0.000000 0.000000
# 4 0.000000 0.000000 0.000000 0.058053 0.000000 0.004984
# 5 -0.002492 0.002492 0.000000 0.000000 0.058053 0.000000
# 6 0.000000 0.000000 0.000000 0.004984 0.000000 0.068032
#
#
# Mechanical properties :
#
#
# Convention : Reuss Voigt Hill
#
# Bulk Modulus (GPa) = 42.26561 43.64354 42.95458
# Shear Modulus (GPa) = 17.32197 18.51172 17.91684
#
# Velocity S-wave (km/s) = 3.10499 3.20985 3.15785
# Velocity P-wave (km/s) = 6.03146 6.16671 6.09946
#
# Compressibility (1/GPa) = 0.02365990
#
# Stress axis : x y z
#
# Youngs Moduli (GPa) = 42.22674 42.22674 78.24764
#
# Poissons Ratio (x) = 0.43639 0.30936
# Poissons Ratio (y) = 0.43639 0.30936
# Poissons Ratio (z) = 0.16695 0.16695
#
# Static dielectric constant tensor:
#      x y z
#    x 1.627110 0.000000 0.000000 
#    y 0.000000 1.627110 0.000000 
#    z 0.000000 0.000000 1.635940 
# 
# From -- ./inp_files/3670.got.cif
#   From: 2010.05.17/outbox.cif.g08.bks.cpg/sg162_2_cif.got.tgz:3670.got - 2010.05.20 10:53:12.
