data_PCOD9577733
_publ_section_title
;
Structure prediction by ZEFSAII (Michael W. Deem and Ramdas Pophale) SiO2 
 PCOD9577733
Probable space group: P -3 1 M 
;
_chemical_formula_sum "Si O2"
_cell_formula_units_Z 96
_cell_length_a 14.366732
_cell_length_b 14.366732
_cell_length_c 27.876826
_cell_angle_alpha 90.000000
_cell_angle_beta 90.000000
_cell_angle_gamma 120.000000
_cell_volume 4982.989096
_symmetry_space_group_name_H-M "P -3 1 M "
_symmetry_group_IT_number 162
_symmetry_cell_setting 'hexagonal'
loop_
_space_group_symop_operation_xyz
x,y,z
-y,x-y,z
-x+y,-x,z
-y,-x,-z
-x+y,y,-z
x,x-y,-z
-x,-y,-z
y,-x+y,-z
x-y,x,-z
y,x,z
x-y,-y,z
-x,-x+y,z
loop_
_atom_site_type_symbol
_atom_site_label
_atom_site_fract_x
_atom_site_fract_y
_atom_site_fract_z
Si Si1 0.347738 0.123844 0.122712
Si Si2 0.602713 0.725203 0.959533
Si Si3 0.433745 0.871579 0.900003
Si Si4 0.878273 0.383176 0.799111
Si Si5 0.119089 0.436143 0.335695
Si Si6 0.878365 0.531311 0.365576
Si Si7 0.267269 0.425518 0.771226
Si Si8 0.665737 0.541503 0.519276
O O1 0.337839 0.208574 0.088979
O O2 0.463227 0.141040 0.104836
O O3 0.352775 0.136301 0.180902
O O4 0.260626 0.000000 0.112405
O O5 0.657049 0.657049 0.976283
O O6 0.478825 0.642383 0.945514
O O7 0.612200 0.806100 0.000000
O O8 0.361012 0.828476 0.852455
O O9 0.483226 0.000000 0.897284
O O10 0.879506 0.491058 0.785820
O O11 0.801802 0.286347 0.765727
O O12 0.000000 0.407642 0.798586
O O13 0.226946 0.441470 0.354054
O O14 0.137374 0.557458 0.342269
O O15 0.111888 0.392999 0.281436
O O16 0.000000 0.359895 0.358197
O O17 0.875104 0.527427 0.423348
O O18 0.000000 0.620987 0.350842
O O19 0.573288 0.426713 0.500000
O O20 0.782159 0.564318 0.500000
O O21 0.629873 0.629873 0.505637
#
# Coordination Sequence:
#
# PCOD9577733 Si02
#       8
#    12  12  12  12  12  12  12  12
#     4  10  20  36  57  79 107 139 174 218 263 315
#     4  11  22  38  58  81 107 136 170 209 264 328
#     4   8  17  34  53  76 103 131 163 202 251 312
#     4  10  19  33  51  77 110 140 176 225 273 324
#     4  11  22  36  54  81 118 158 200 247 293 345
#     4  10  22  38  56  83 120 160 201 242 296 357
#     4  11  20  32  54  79 108 147 189 229 275 326
#     4  10  20  35  58  87 117 154 200 250 300 351
#
# _framework density 19.265543999999998
#
# number of rings (size 3 to 8) (size 9 to 14) (size 15 to 20)
#    0.000    1.875    1.250    4.375    0.000    3.500 
#    0.750    1.875    0.000    2.625    0.000    0.000 
#    0.000    0.000    0.000    0.000    0.000    0.000 
#
# Total GULP energy -534831.709971 kJ/mol
# GULP energy per Si atom -5571.163646 kJ/mol
# Density = 1.922169 g / cm^3
# Si number density = 19.265544 Si / 1000 Ang^3
#
#
#
# Elastic Constant Matrix: (Units=GPa)
#
#
# Indices 1 2 3 4 5 6 
#
# 1 88.5409 41.2988 20.9123 -0.0001 2.3847 0.0000
# 2 41.2988 88.5409 20.9123 0.0001 -2.3847 0.0000
# 3 20.9123 20.9123 67.9528 0.0000 0.0000 0.0000
# 4 -0.0001 0.0001 0.0000 10.6268 0.0000 -2.3847
# 5 2.3847 -2.3847 0.0000 0.0000 10.6268 -0.0001
# 6 0.0000 0.0000 0.0000 -2.3847 -0.0001 23.6210
#
#
#
# Elastic Compliance Matrix: (Units=1/GPa)
#
#
# Indices 1 2 3 4 5 6 
#
# 1 0.015104 -0.006554 -0.002631 0.000000 -0.004860 0.000000
# 2 -0.006554 0.015104 -0.002631 0.000000 0.004860 0.000000
# 3 -0.002631 -0.002631 0.016335 0.000000 0.000000 0.000000
# 4 0.000000 0.000000 0.000000 0.096283 0.000000 0.009720
# 5 -0.004860 0.004860 0.000000 0.000000 0.096283 0.000000
# 6 0.000000 0.000000 0.000000 0.009720 0.000000 0.043316
#
#
# Mechanical properties :
#
#
# Convention : Reuss Voigt Hill
#
# Bulk Modulus (GPa) = 43.64906 45.69794 44.67350
# Shear Modulus (GPa) = 15.93909 19.76903 17.85406
#
# Velocity S-wave (km/s) = 2.87947 3.20681 3.04754
# Velocity P-wave (km/s) = 5.81041 6.12234 5.96841
#
# Compressibility (1/GPa) = 0.02291000
#
# Stress axis : x y z
#
# Youngs Moduli (GPa) = 66.20862 66.20862 61.21649
#
# Poissons Ratio (x) = 0.43396 0.16106
# Poissons Ratio (y) = 0.43396 0.16106
# Poissons Ratio (z) = 0.17420 0.17420
#
# Static dielectric constant tensor:
#      x y z
#    x 1.689270 0.000000 0.000000 
#    y 0.000000 1.689270 0.000000 
#    z 0.000000 0.000000 1.759840 
# 
# From -- ./inp_files/4075.got.cif
#   From: 2010.05.17/outbox.cif.g08.bks.cpg/sg162_3_cif.got.tgz:4075.got - 2010.05.20 10:53:12.
