data_PCOD9577082
_publ_section_title
;
Structure prediction by ZEFSAII (Michael W. Deem and Ramdas Pophale) SiO2 
 PCOD9577082
Probable space group: R 3 2
;
_chemical_formula_sum "Si O2"
_cell_formula_units_Z 54
_cell_length_a 9.282662
_cell_length_b 9.282662
_cell_length_c 26.631441
_cell_angle_alpha 90.000000
_cell_angle_beta 90.000000
_cell_angle_gamma 120.000000
_cell_volume 1987.331757
_symmetry_space_group_name_H-M "R 3 2"
_symmetry_group_IT_number 155
_symmetry_cell_setting 'hexagonal'
loop_
_space_group_symop_operation_xyz
x,y,z
-y,x-y,z
-x+y,-x,z
x-y,-y,-z
-x,-x+y,-z
y,x,-z
2/3+x,1/3+y,1/3+z
2/3-y,1/3+x-y,1/3+z
2/3-x+y,1/3-x,1/3+z
2/3+x-y,1/3-y,1/3-z
2/3-x,1/3-x+y,1/3-z
2/3+y,1/3+x,1/3-z
1/3+x,2/3+y,2/3+z
1/3-y,2/3+x-y,2/3+z
1/3-x+y,2/3-x,2/3+z
1/3+x-y,2/3-y,2/3-z
1/3-x,2/3-x+y,2/3-z
1/3+y,2/3+x,2/3-z
loop_
_atom_site_type_symbol
_atom_site_label
_atom_site_fract_x
_atom_site_fract_y
_atom_site_fract_z
Si Si1 0.570677 0.570677 0.500000
Si Si2 0.067843 0.859856 0.933333
Si Si3 0.140143 0.932158 0.433333
Si Si4 0.237342 0.333334 0.333334
O O1 0.522346 0.428461 0.459211
O O2 0.630844 0.731977 0.463759
O O3 0.882066 0.825146 0.945286
O O4 0.101132 0.731976 0.963759
O O5 0.144321 0.904874 0.374123
O O6 0.943080 0.825146 0.445286
#
# Coordination Sequence:
#
# PCOD9577082 Si02
#       4
#     9  18  18   9
#     4  12  24  46  76 102 150 184 246 290 362 422
#     4  10  26  44  71 104 146 186 238 296 357 421
#     4  10  26  44  71 104 146 186 238 296 357 421
#     4  12  24  46  76 102 150 184 246 290 362 422
#
# _framework density 27.172113
#
# number of rings (size 3 to 8) (size 9 to 14) (size 15 to 20)
#    1.333    0.000    0.000    4.000    9.333    0.000 
#    0.000    3.333    0.000    0.000    0.000    0.000 
#    0.000    0.000    0.000    0.000    0.000    0.000 
#
# Total GULP energy -100593.928445 kJ/mol
# GULP energy per Si atom -5588.551580 kJ/mol
# Density = 2.711027 g / cm^3
# Si number density = 27.172113 Si / 1000 Ang^3
#
#
#
# Elastic Constant Matrix: (Units=GPa)
#
#
# Indices 1 2 3 4 5 6 
#
# 1 107.2699 50.3466 60.9152 0.8520 0.0001 0.0000
# 2 50.3466 107.2699 60.9152 -0.8520 -0.0001 0.0000
# 3 60.9152 60.9152 218.2066 0.0000 0.0000 0.0000
# 4 0.8520 -0.8520 0.0000 76.0226 0.0000 -0.0001
# 5 0.0001 -0.0001 0.0000 0.0000 76.0226 0.8520
# 6 0.0000 0.0000 0.0000 -0.0001 0.8520 28.4616
#
#
#
# Elastic Compliance Matrix: (Units=1/GPa)
#
#
# Indices 1 2 3 4 5 6 
#
# 1 0.012832 -0.004742 -0.002258 -0.000197 0.000000 0.000000
# 2 -0.004742 0.012832 -0.002258 0.000197 0.000000 0.000000
# 3 -0.002258 -0.002258 0.005844 0.000000 0.000000 0.000000
# 4 -0.000197 0.000197 0.000000 0.013158 0.000000 0.000000
# 5 0.000000 0.000000 0.000000 0.000000 0.013158 -0.000394
# 6 0.000000 0.000000 0.000000 0.000000 -0.000394 0.035147
#
#
# Mechanical properties :
#
#
# Convention : Reuss Voigt Hill
#
# Bulk Modulus (GPa) = 76.98071 86.34449 81.66260
# Shear Modulus (GPa) = 43.17110 53.47265 48.32187
#
# Velocity S-wave (km/s) = 3.99030 4.44094 4.22164
# Velocity P-wave (km/s) = 7.04431 7.62508 7.34044
#
# Compressibility (1/GPa) = 0.01299027
#
# Stress axis : x y z
#
# Youngs Moduli (GPa) = 77.93134 77.93134 171.12200
#
# Poissons Ratio (x) = 0.36952 0.38648
# Poissons Ratio (y) = 0.36952 0.38648
# Poissons Ratio (z) = 0.17601 0.17601
#
# Static dielectric constant tensor:
#      x y z
#    x 2.156280 0.000000 0.000000 
#    y 0.000000 2.156280 0.000000 
#    z 0.000000 0.000000 2.116140 
# 
# From -- ./inp_files/7230.got.cif
#   From: 2010.05.17/outbox.cif.g08.bks.cpg/sg155_4_cif.got.tgz:7230.got - 2010.05.20 10:44:35.
