data_PCOD9577449
_publ_section_title
;
Structure prediction by ZEFSAII (Michael W. Deem and Ramdas Pophale) SiO2 
 PCOD9577449
Probable space group: P 3 1 C
;
_chemical_formula_sum "Si O2"
_cell_formula_units_Z 24
_cell_length_a 9.375589
_cell_length_b 9.375589
_cell_length_c 12.840160
_cell_angle_alpha 90.000000
_cell_angle_beta 90.000000
_cell_angle_gamma 120.000000
_cell_volume 977.458188
_symmetry_space_group_name_H-M "P 3 1 C"
_symmetry_group_IT_number 159
_symmetry_cell_setting 'hexagonal'
loop_
_space_group_symop_operation_xyz
x,y,z
-y,x-y,z
-x+y,-x,z
y,x,1/2+z
x-y,-y,1/2+z
-x,-x+y,1/2+z
loop_
_atom_site_type_symbol
_atom_site_label
_atom_site_fract_x
_atom_site_fract_y
_atom_site_fract_z
Si Si1 0.401241 0.946607 0.069040
Si Si2 0.222781 0.372643 0.654269
Si Si3 0.372647 0.222783 0.751810
Si Si4 0.946606 0.401240 0.337039
O O1 0.278945 0.816037 0.155138
O O2 0.348624 0.086138 0.072921
O O3 0.278943 0.816040 0.750941
O O4 0.385552 0.881818 0.953040
O O5 0.210850 0.210847 0.703039
O O6 0.053948 0.595009 0.602320
O O7 0.348633 0.086144 0.833159
O O8 0.458935 0.404993 0.803758
#
# Coordination Sequence:
#
# PCOD9577449 Si02
#       4
#     6   6   6   6
#     4  11  25  45  75 110 155 210 259 324 409 474
#     4  11  23  46  72 110 153 198 266 331 380 482
#     4  11  23  46  72 110 153 198 266 331 380 482
#     4  11  25  45  75 110 155 210 259 324 409 474
#
# _framework density 24.55348
#
# number of rings (size 3 to 8) (size 9 to 14) (size 15 to 20)
#    0.000    1.000    5.000    2.500    0.000    4.000 
#   12.000    0.000    0.000    0.000    0.000    0.000 
#    0.000    0.000    0.000    0.000    0.000    0.000 
#
# Total GULP energy -133642.450414 kJ/mol
# GULP energy per Si atom -5568.435434 kJ/mol
# Density = 2.449760 g / cm^3
# Si number density = 24.553480 Si / 1000 Ang^3
#
#
#
# Elastic Constant Matrix: (Units=GPa)
#
#
# Indices 1 2 3 4 5 6 
#
# 1 145.9451 46.3427 29.8345 0.0000 -0.0005 0.0000
# 2 46.3427 145.9451 29.8345 0.0000 0.0005 0.0000
# 3 29.8345 29.8345 208.8361 0.0000 0.0000 0.0000
# 4 0.0000 0.0000 0.0000 16.3699 0.0000 0.0005
# 5 -0.0005 0.0005 0.0000 0.0000 16.3699 0.0000
# 6 0.0000 0.0000 0.0000 0.0005 0.0000 49.8012
#
#
#
# Elastic Compliance Matrix: (Units=1/GPa)
#
#
# Indices 1 2 3 4 5 6 
#
# 1 0.007741 -0.002299 -0.000777 0.000000 0.000000 0.000000
# 2 -0.002299 0.007741 -0.000777 0.000000 0.000000 0.000000
# 3 -0.000777 -0.000777 0.005011 0.000000 0.000000 0.000000
# 4 0.000000 0.000000 0.000000 0.061088 0.000000 -0.000001
# 5 0.000000 0.000000 0.000000 0.000000 0.061088 0.000000
# 6 0.000000 0.000000 0.000000 -0.000001 0.000000 0.020080
#
#
# Mechanical properties :
#
#
# Convention : Reuss Voigt Hill
#
# Bulk Modulus (GPa) = 78.21997 79.19441 78.70719
# Shear Modulus (GPa) = 28.61778 42.82252 35.72015
#
# Velocity S-wave (km/s) = 3.41769 4.18071 3.81831
# Velocity P-wave (km/s) = 6.89204 7.45844 7.18083
#
# Compressibility (1/GPa) = 0.01278446
#
# Stress axis : x y z
#
# Youngs Moduli (GPa) = 129.18476 129.18476 199.57817
#
# Poissons Ratio (x) = 0.29700 0.15516
# Poissons Ratio (y) = 0.29700 0.15516
# Poissons Ratio (z) = 0.10043 0.10043
#
# Static dielectric constant tensor:
#      x y z
#    x 2.013310 0.000000 0.000000 
#    y 0.000000 2.013310 0.000000 
#    z 0.000000 0.000000 2.007770 
# 
# From -- ./inp_files/626.got.cif
#   From: 2010.05.17/outbox.cif.g08.bks.cpg/sg159_cif.got.tgz:626.got - 2010.05.20 10:50:30.
