data_PCOD9577540
_publ_section_title
;
Structure prediction by ZEFSAII (Michael W. Deem and Ramdas Pophale) SiO2 
 PCOD9577540
Probable space group: R 3 C
;
_chemical_formula_sum "Si O2"
_cell_formula_units_Z 144
_cell_length_a 20.962741
_cell_length_b 20.962741
_cell_length_c 20.199281
_cell_angle_alpha 90.000000
_cell_angle_beta 90.000000
_cell_angle_gamma 120.000000
_cell_volume 7687.102636
_symmetry_space_group_name_H-M "R 3 C"
_symmetry_group_IT_number 161
_symmetry_cell_setting 'hexagonal'
loop_
_space_group_symop_operation_xyz
x,y,z
-y,x-y,z
-x+y,-x,z
-x+y,y,1/2+z
x,x-y,1/2+z
-y,-x,1/2+z
2/3+x,1/3+y,1/3+z
2/3-y,1/3+x-y,1/3+z
2/3-x+y,1/3-x,1/3+z
2/3-x+y,1/3+y,5/6+z
2/3+x,1/3+x-y,5/6+z
2/3-y,1/3-x,5/6+z
1/3+x,2/3+y,2/3+z
1/3-y,2/3+x-y,2/3+z
1/3-x+y,2/3-x,2/3+z
1/3-x+y,2/3+y,1/6+z
1/3+x,2/3+x-y,1/6+z
1/3-y,2/3-x,1/6+z
loop_
_atom_site_type_symbol
_atom_site_label
_atom_site_fract_x
_atom_site_fract_y
_atom_site_fract_z
Si Si1 0.185985 0.730451 0.545437
Si Si2 0.761218 0.118705 0.798861
Si Si3 0.814315 0.017623 0.307052
Si Si4 0.944475 0.699095 0.531760
Si Si5 0.692223 0.017127 0.677029
Si Si6 0.156827 0.410591 0.190495
Si Si7 0.749169 0.853019 0.353394
Si Si8 0.922829 0.381522 0.996482
O O1 0.267837 0.780912 0.517795
O O2 0.181360 0.722873 0.624310
O O3 0.141480 0.648313 0.517503
O O4 0.403308 0.886097 0.481153
O O5 0.809168 0.105414 0.853022
O O6 0.682469 0.097293 0.829451
O O7 0.797978 0.196449 0.761502
O O8 0.743397 0.059961 0.739142
O O9 0.746408 0.027364 0.333494
O O10 0.829560 0.045256 0.231546
O O11 0.872356 0.704741 0.523398
O O12 0.933716 0.622968 0.501935
O O13 0.963035 0.700597 0.609083
O O14 0.646472 0.930251 0.685369
O O15 0.165228 0.448524 0.261739
O O16 0.670425 0.787556 0.328872
#
# Coordination Sequence:
#
# PCOD9577540 Si02
#       8
#    18  18  18  18  18  18  18  18
#     4  12  23  38  64  86 118 169 209 250 320 370
#     4  11  20  36  60  82 125 156 205 256 303 373
#     4  10  23  40  63  88 124 163 211 264 307 373
#     4  11  22  36  56  91 125 162 200 254 316 374
#     4  10  20  37  56  88 123 159 196 251 303 371
#     4  12  22  33  59  93 125 159 206 249 314 380
#     4  11  22  41  61  91 122 163 213 257 311 375
#     4  11  20  37  61  89 126 161 200 261 314 370
#
# _framework density 18.732676000000001
#
# number of rings (size 3 to 8) (size 9 to 14) (size 15 to 20)
#    0.000    1.000    5.000    4.500    0.000    0.000 
#    0.750    0.000    0.000    0.000    0.000    0.000 
#    0.000    0.000    0.000    0.000    0.000    0.000 
#
# Total GULP energy -268051.329673 kJ/mol
# GULP energy per Si atom -5584.402702 kJ/mol
# Density = 1.869004 g / cm^3
# Si number density = 18.732676 Si / 1000 Ang^3
#
#
#
# Elastic Constant Matrix: (Units=GPa)
#
#
# Indices 1 2 3 4 5 6 
#
# 1 73.3976 22.4246 18.2542 3.1579 0.0000 0.0000
# 2 22.4246 73.3976 18.2542 -3.1579 0.0000 0.0000
# 3 18.2542 18.2542 115.5202 0.0000 0.0000 0.0000
# 4 3.1579 -3.1579 0.0000 18.2017 0.0000 0.0000
# 5 0.0000 0.0000 0.0000 0.0000 18.2017 3.1579
# 6 0.0000 0.0000 0.0000 0.0000 3.1579 25.4865
#
#
#
# Elastic Compliance Matrix: (Units=1/GPa)
#
#
# Indices 1 2 3 4 5 6 
#
# 1 0.015577 -0.004472 -0.001755 -0.003478 0.000000 0.000000
# 2 -0.004472 0.015577 -0.001755 0.003478 0.000000 0.000000
# 3 -0.001755 -0.001755 0.009211 0.000000 0.000000 0.000000
# 4 -0.003478 0.003478 0.000000 0.056147 0.000000 0.000000
# 5 0.000000 0.000000 0.000000 0.000000 0.056147 -0.006957
# 6 0.000000 0.000000 0.000000 0.000000 -0.006957 0.040098
#
#
# Mechanical properties :
#
#
# Convention : Reuss Voigt Hill
#
# Bulk Modulus (GPa) = 40.98144 42.24237 41.61191
# Shear Modulus (GPa) = 23.05695 25.93682 24.49689
#
# Velocity S-wave (km/s) = 3.51214 3.72503 3.62015
# Velocity P-wave (km/s) = 6.19446 6.41094 6.30363
#
# Compressibility (1/GPa) = 0.02440129
#
# Stress axis : x y z
#
# Youngs Moduli (GPa) = 64.19775 64.19775 108.56540
#
# Poissons Ratio (x) = 0.28711 0.19050
# Poissons Ratio (y) = 0.28711 0.19050
# Poissons Ratio (z) = 0.11265 0.11265
#
# Static dielectric constant tensor:
#      x y z
#    x 1.644450 0.000000 0.000000 
#    y 0.000000 1.644450 0.000000 
#    z 0.000000 0.000000 1.713260 
# 
# From -- ./inp_files/1775.got.cif
#   From: 2010.05.17/outbox.cif.g08.bks.cpg/sg161_cif.got.tgz:1775.got - 2010.05.20 10:52:32.
