data_PCOD9577335
_publ_section_title
;
Structure prediction by ZEFSAII (Michael W. Deem and Ramdas Pophale) SiO2 
 PCOD9577335
Probable space group: P 3 C 1
;
_chemical_formula_sum "Si O2"
_cell_formula_units_Z 30
_cell_length_a 12.359048
_cell_length_b 12.359048
_cell_length_c 9.279437
_cell_angle_alpha 90.000000
_cell_angle_beta 90.000000
_cell_angle_gamma 120.000000
_cell_volume 1227.502251
_symmetry_space_group_name_H-M "P 3 C 1"
_symmetry_group_IT_number 158
_symmetry_cell_setting 'hexagonal'
loop_
_space_group_symop_operation_xyz
x,y,z
-y,x-y,z
-x+y,-x,z
-x+y,y,1/2+z
x,x-y,1/2+z
-y,-x,1/2+z
loop_
_atom_site_type_symbol
_atom_site_label
_atom_site_fract_x
_atom_site_fract_y
_atom_site_fract_z
Si Si1 0.131575 0.147356 0.937590
Si Si2 0.298102 0.860758 0.372822
Si Si3 0.505216 0.284457 0.879259
Si Si4 0.108375 0.485090 0.706849
Si Si5 0.891109 0.663995 0.159363
O O1 0.213234 0.286843 0.876375
O O2 0.994771 0.349139 0.736973
O O3 0.120551 0.012652 0.905877
O O4 0.218631 0.722536 0.307702
O O5 0.411626 0.923776 0.260169
O O6 0.196142 0.033490 0.595472
O O7 0.577662 0.204358 0.871147
O O8 0.431675 0.269901 0.024997
O O9 0.395668 0.228672 0.761589
O O10 0.137552 0.483708 0.536331
#
# Coordination Sequence:
#
# PCOD9577335 Si02
#       5
#     6   6   6   6   6
#     4   9  24  51  75 118 161 221 268 324 406 499
#     4  11  24  51  78 115 168 209 270 352 410 502
#     4  10  24  46  70 107 153 201 266 340 411 478
#     4  11  26  46  78 119 152 214 266 342 424 482
#     4  11  24  46  75 113 152 221 264 336 401 495
#
# _framework density 24.439872000000001
#
# number of rings (size 3 to 8) (size 9 to 14) (size 15 to 20)
#    0.800    0.800    0.000    2.800    8.400    0.000 
#   14.400    4.000    0.000    0.000    0.000    0.000 
#    0.000    0.000    0.000    0.000    0.000    0.000 
#
# Total GULP energy -167120.804104 kJ/mol
# GULP energy per Si atom -5570.693470 kJ/mol
# Density = 2.438425 g / cm^3
# Si number density = 24.439872 Si / 1000 Ang^3
#
#
#
# Elastic Constant Matrix: (Units=GPa)
#
#
# Indices 1 2 3 4 5 6 
#
# 1 121.1946 57.2903 59.9977 8.8651 0.0000 0.0000
# 2 57.2903 121.1946 59.9977 -8.8651 0.0000 0.0000
# 3 59.9977 59.9977 87.1150 0.0000 0.0000 0.0000
# 4 8.8651 -8.8651 0.0000 19.1316 0.0000 0.0000
# 5 0.0000 0.0000 0.0000 0.0000 19.1316 8.8651
# 6 0.0000 0.0000 0.0000 0.0000 8.8651 31.9521
#
#
#
# Elastic Compliance Matrix: (Units=1/GPa)
#
#
# Indices 1 2 3 4 5 6 
#
# 1 0.014195 -0.003762 -0.007186 -0.008321 0.000000 0.000000
# 2 -0.003762 0.014195 -0.007186 0.008321 0.000000 0.000000
# 3 -0.007186 -0.007186 0.021377 0.000000 0.000000 0.000000
# 4 -0.008321 0.008321 0.000000 0.059981 0.000000 0.000000
# 5 0.000000 0.000000 0.000000 0.000000 0.059981 -0.016642
# 6 0.000000 0.000000 0.000000 0.000000 -0.016642 0.035914
#
#
# Mechanical properties :
#
#
# Convention : Reuss Voigt Hill
#
# Bulk Modulus (GPa) = 74.06814 76.00841 75.03828
# Shear Modulus (GPa) = 20.29128 24.19096 22.24112
#
# Velocity S-wave (km/s) = 2.88454 3.14955 3.01995
# Velocity P-wave (km/s) = 6.43942 6.66287 6.55210
#
# Compressibility (1/GPa) = 0.01350108
#
# Stress axis : x y z
#
# Youngs Moduli (GPa) = 70.44521 70.44521 46.77854
#
# Poissons Ratio (x) = 0.26498 0.33615
# Poissons Ratio (y) = 0.26498 0.33615
# Poissons Ratio (z) = 0.50622 0.50622
#
# Static dielectric constant tensor:
#      x y z
#    x 2.032150 0.000000 0.000000 
#    y 0.000000 2.032150 0.000000 
#    z 0.000000 0.000000 1.977460 
# 
# From -- ./inp_files/447.got.cif
#   From: 2010.05.17/outbox.cif.g08.bks.cpg/sg158_cif.got.tgz:447.got - 2010.05.20 10:49:59.
