data_PCOD9577193
_publ_section_title
;
Structure prediction by ZEFSAII (Michael W. Deem and Ramdas Pophale) SiO2 
 PCOD9577193
Probable space group: P 3 M 1
;
_chemical_formula_sum "Si O2"
_cell_formula_units_Z 48
_cell_length_a 23.150406
_cell_length_b 23.150406
_cell_length_c 7.125453
_cell_angle_alpha 90.000000
_cell_angle_beta 90.000000
_cell_angle_gamma 120.000000
_cell_volume 3307.199055
_symmetry_space_group_name_H-M "P 3 M 1"
_symmetry_group_IT_number 156
_symmetry_cell_setting 'hexagonal'
loop_
_space_group_symop_operation_xyz
x,y,z
-y,x-y,z
-x+y,-x,z
-x+y,y,z
x,x-y,z
-y,-x,z
loop_
_atom_site_type_symbol
_atom_site_label
_atom_site_fract_x
_atom_site_fract_y
_atom_site_fract_z
Si Si1 0.607636 0.527803 0.511720
Si Si2 0.209024 0.286105 0.521506
Si Si3 0.590807 0.861919 0.244444
Si Si4 0.695438 0.616984 0.837466
Si Si5 0.861921 0.590803 0.244510
Si Si6 0.078483 0.383034 0.837392
Si Si7 0.527802 0.607636 0.511649
Si Si8 0.790977 0.077080 0.521589
O O1 0.547138 0.452863 0.522529
O O2 0.649589 0.554272 0.703888
O O3 0.659708 0.541400 0.346357
O O4 0.575004 0.575003 0.480332
O O5 0.131179 0.262358 0.521237
O O6 0.243188 0.337855 0.349270
O O7 0.243835 0.330882 0.706503
O O8 0.229833 0.229833 0.512519
O O9 0.570942 0.785471 0.273816
O O10 0.541410 0.881705 0.346268
O O11 0.598273 0.879654 0.026118
O O12 0.652041 0.652058 0.886430
O O13 0.756165 0.669135 0.706608
O O14 0.718596 0.598289 0.026208
O O15 0.785468 0.570935 0.273788
O O16 0.905319 0.662133 0.349382
O O17 0.095336 0.445742 0.703817
O O18 0.452860 0.547141 0.522428
O O19 0.868823 0.131178 0.521333
#
# Coordination Sequence:
#
# PCOD9577193 Si02
#       8
#     6   6   6   6   6   6   6   6
#     4   9  18  31  46  66  90 114 141 173 212 257
#     4   9  17  28  42  62  88 116 145 177 214 255
#     4  10  18  28  45  67  89 113 141 174 213 256
#     4   9  16  27  43  64  89 114 141 175 215 256
#     4  10  18  28  45  67  89 113 141 174 213 256
#     4   9  16  27  43  64  89 114 141 175 215 256
#     4   9  18  31  46  66  90 114 141 173 212 257
#     4   9  17  28  42  62  88 116 145 177 214 255
#
# _framework density 14.513792
#
# number of rings (size 3 to 8) (size 9 to 14) (size 15 to 20)
#    0.000    2.750    0.000    4.500    0.000    2.000 
#    0.000    2.500    0.000    0.750    0.000    1.750 
#    0.000    0.000    0.000    8.000    0.000    0.000 
#
# Total GULP energy -267480.035900 kJ/mol
# GULP energy per Si atom -5572.500748 kJ/mol
# Density = 1.448076 g / cm^3
# Si number density = 14.513792 Si / 1000 Ang^3
#
#
#
# Elastic Constant Matrix: (Units=GPa)
#
#
# Indices 1 2 3 4 5 6 
#
# 1 91.2331 52.4033 38.0198 0.0023 0.0000 0.0000
# 2 52.4033 91.2331 38.0198 -0.0023 0.0000 0.0000
# 3 38.0198 38.0198 87.7252 0.0000 0.0000 0.0000
# 4 0.0023 -0.0023 0.0000 9.2415 0.0000 0.0000
# 5 0.0000 0.0000 0.0000 0.0000 9.2415 0.0023
# 6 0.0000 0.0000 0.0000 0.0000 0.0023 19.4149
#
#
#
# Elastic Compliance Matrix: (Units=1/GPa)
#
#
# Indices 1 2 3 4 5 6 
#
# 1 0.017394 -0.008359 -0.003916 -0.000006 0.000000 0.000000
# 2 -0.008359 0.017394 -0.003916 0.000006 0.000000 0.000000
# 3 -0.003916 -0.003916 0.014793 0.000000 0.000000 0.000000
# 4 -0.000006 0.000006 0.000000 0.108208 0.000000 0.000000
# 5 0.000000 0.000000 0.000000 0.000000 0.108208 -0.000013
# 6 0.000000 0.000000 0.000000 0.000000 -0.000013 0.051507
#
#
# Mechanical properties :
#
#
# Convention : Reuss Voigt Hill
#
# Bulk Modulus (GPa) = 58.13819 58.56412 58.35116
# Shear Modulus (GPa) = 14.05998 17.02946 15.54472
#
# Velocity S-wave (km/s) = 3.11582 3.42911 3.27621
# Velocity P-wave (km/s) = 7.28619 7.49110 7.38936
#
# Compressibility (1/GPa) = 0.01720040
#
# Stress axis : x y z
#
# Youngs Moduli (GPa) = 57.49043 57.49043 67.59785
#
# Poissons Ratio (x) = 0.48058 0.26470
# Poissons Ratio (y) = 0.48058 0.26470
# Poissons Ratio (z) = 0.22512 0.22512
#
# Static dielectric constant tensor:
#      x y z
#    x 1.468970 0.000000 0.000000 
#    y 0.000000 1.468970 0.000000 
#    z 0.000000 0.000000 1.476160 
# 
# From -- ./inp_files/262.got.cif
#   From: 2010.05.17/outbox.cif.g08.bks.cpg/sg156_cif.got.tgz:262.got - 2010.05.20 10:49:08.
