data_PCOD9577051
_publ_section_title
;
Structure prediction by ZEFSAII (Michael W. Deem and Ramdas Pophale) SiO2 
 PCOD9577051
Probable space group: R 3 2
;
_chemical_formula_sum "Si O2"
_cell_formula_units_Z 114
_cell_length_a 20.746831
_cell_length_b 20.746831
_cell_length_c 13.875648
_cell_angle_alpha 90.000000
_cell_angle_beta 90.000000
_cell_angle_gamma 120.000000
_cell_volume 5172.344515
_symmetry_space_group_name_H-M "R 3 2"
_symmetry_group_IT_number 155
_symmetry_cell_setting 'hexagonal'
loop_
_space_group_symop_operation_xyz
x,y,z
-y,x-y,z
-x+y,-x,z
x-y,-y,-z
-x,-x+y,-z
y,x,-z
2/3+x,1/3+y,1/3+z
2/3-y,1/3+x-y,1/3+z
2/3-x+y,1/3-x,1/3+z
2/3+x-y,1/3-y,1/3-z
2/3-x,1/3-x+y,1/3-z
2/3+y,1/3+x,1/3-z
1/3+x,2/3+y,2/3+z
1/3-y,2/3+x-y,2/3+z
1/3-x+y,2/3-x,2/3+z
1/3+x-y,2/3-y,2/3-z
1/3-x,2/3-x+y,2/3-z
1/3+y,2/3+x,2/3-z
loop_
_atom_site_type_symbol
_atom_site_label
_atom_site_fract_x
_atom_site_fract_y
_atom_site_fract_z
Si Si1 0.059357 0.372267 0.437399
Si Si2 0.109026 0.166946 0.676428
Si Si3 0.333334 0.666667 0.054691
Si Si4 0.581174 0.130487 0.300091
Si Si5 0.776877 0.045206 0.599031
Si Si6 0.832714 0.356329 0.483997
Si Si7 0.639441 0.806471 0.120942
O O1 0.036688 0.333334 0.333334
O O2 0.130695 0.454134 0.441863
O O3 0.078006 0.326229 0.515918
O O4 0.000000 0.383262 0.500000
O O5 0.191847 0.182610 0.657258
O O6 0.085447 0.162639 0.786297
O O7 0.111439 0.235678 0.616443
O O8 0.048773 0.085742 0.640878
O O9 0.333334 0.666668 0.166667
O O10 0.666667 0.165840 0.333334
O O11 0.528066 0.124559 0.389456
O O12 0.570714 0.185523 0.225711
O O13 0.543218 0.047359 0.256050
O O14 0.718738 0.052072 0.666667
O O15 0.835853 0.124651 0.556623
O O16 0.742506 0.000000 0.500000
#
# Coordination Sequence:
#
# PCOD9577051 Si02
#       7
#    18  18   6  18  18  18  18
#     4  11  24  39  69 100 137 183 228 293 363 425
#     4  11  26  44  70 103 142 189 247 305 368 451
#     4  12  27  45  72  97 140 193 243 303 378 450
#     4  10  24  45  73 106 148 196 243 304 373 443
#     4  10  23  44  67  99 141 183 239 302 362 441
#     4  10  25  44  69 103 147 187 246 297 361 450
#     4  10  23  43  69 102 140 184 242 299 365 438
#
# _framework density 22.040293999999999
#
# number of rings (size 3 to 8) (size 9 to 14) (size 15 to 20)
#    0.000    1.579    0.000    2.842   11.053    8.211 
#    3.789    0.000    0.000    0.000    0.000    0.000 
#    0.000    0.000    0.000    0.000    0.000    0.000 
#
# Total GULP energy -211870.288681 kJ/mol
# GULP energy per Si atom -5575.533913 kJ/mol
# Density = 2.199013 g / cm^3
# Si number density = 22.040294 Si / 1000 Ang^3
#
#
#
# Elastic Constant Matrix: (Units=GPa)
#
#
# Indices 1 2 3 4 5 6 
#
# 1 91.6304 37.9539 46.7759 -2.9902 0.0006 -0.0001
# 2 37.9539 91.6290 46.7759 2.9902 -0.0006 -0.0002
# 3 46.7759 46.7759 124.4253 0.0000 0.0000 0.0000
# 4 -2.9902 2.9902 0.0000 25.4289 0.0000 -0.0006
# 5 0.0006 -0.0006 0.0000 0.0000 25.4290 -2.9903
# 6 -0.0001 -0.0002 0.0000 -0.0006 -2.9903 26.8380
#
#
#
# Elastic Compliance Matrix: (Units=1/GPa)
#
#
# Indices 1 2 3 4 5 6 
#
# 1 0.014735 -0.004143 -0.003982 0.002220 0.000000 0.000000
# 2 -0.004143 0.014735 -0.003982 -0.002220 0.000000 0.000000
# 3 -0.003982 -0.003982 0.011031 0.000000 0.000000 0.000000
# 4 0.002220 -0.002220 0.000000 0.039847 0.000000 0.000001
# 5 0.000000 0.000000 0.000000 0.000000 0.039847 0.004440
# 6 0.000000 0.000000 0.000000 0.000001 0.004440 0.037755
#
#
# Mechanical properties :
#
#
# Convention : Reuss Voigt Hill
#
# Bulk Modulus (GPa) = 61.39899 63.41065 62.40482
# Shear Modulus (GPa) = 26.65357 27.28445 26.96901
#
# Velocity S-wave (km/s) = 3.48129 3.52225 3.50183
# Velocity P-wave (km/s) = 6.63907 6.73605 6.68774
#
# Compressibility (1/GPa) = 0.01628691
#
# Stress axis : x y z
#
# Youngs Moduli (GPa) = 67.86781 67.86658 90.65584
#
# Poissons Ratio (x) = 0.28117 0.36097
# Poissons Ratio (y) = 0.28118 0.36098
# Poissons Ratio (z) = 0.27023 0.27023
#
# Static dielectric constant tensor:
#      x y z
#    x 1.865240 0.000000 0.000000 
#    y 0.000000 1.865240 0.000000 
#    z 0.000000 0.000000 1.935280 
# 
# From -- ./inp_files/5232.got.cif
#   From: 2010.05.17/outbox.cif.g08.bks.cpg/sg155_3_cif.got.tgz:5232.got - 2010.05.20 10:44:35.
