data_PCOD9577596
_publ_section_title
;
Structure prediction by ZEFSAII (Michael W. Deem and Ramdas Pophale) SiO2 
 PCOD9577596
Probable space group: R 3 C
;
_chemical_formula_sum "Si O2"
_cell_formula_units_Z 84
_cell_length_a 12.480717
_cell_length_b 12.480717
_cell_length_c 24.778906
_cell_angle_alpha 90.000000
_cell_angle_beta 90.000000
_cell_angle_gamma 120.000000
_cell_volume 3342.657128
_symmetry_space_group_name_H-M "R 3 C"
_symmetry_group_IT_number 161
_symmetry_cell_setting 'hexagonal'
loop_
_space_group_symop_operation_xyz
x,y,z
-y,x-y,z
-x+y,-x,z
-x+y,y,1/2+z
x,x-y,1/2+z
-y,-x,1/2+z
2/3+x,1/3+y,1/3+z
2/3-y,1/3+x-y,1/3+z
2/3-x+y,1/3-x,1/3+z
2/3-x+y,1/3+y,5/6+z
2/3+x,1/3+x-y,5/6+z
2/3-y,1/3-x,5/6+z
1/3+x,2/3+y,2/3+z
1/3-y,2/3+x-y,2/3+z
1/3-x+y,2/3-x,2/3+z
1/3-x+y,2/3+y,1/6+z
1/3+x,2/3+x-y,1/6+z
1/3-y,2/3-x,1/6+z
loop_
_atom_site_type_symbol
_atom_site_label
_atom_site_fract_x
_atom_site_fract_y
_atom_site_fract_z
Si Si1 0.731538 0.565792 0.288406
Si Si2 0.849604 0.896196 0.075202
Si Si3 0.668524 0.654641 0.469171
Si Si4 0.666668 0.333334 0.091362
Si Si5 0.000000 0.000000 0.387113
Si Si6 0.541072 0.599891 0.921040
O O1 0.703439 0.496909 0.345294
O O2 0.673808 0.458653 0.243289
O O3 0.701863 0.676431 0.291278
O O4 0.546098 0.577453 0.115960
O O5 0.723473 0.806541 0.103038
O O6 0.961330 0.871103 0.090949
O O7 0.527795 0.554191 0.451921
O O8 0.713708 0.660468 0.530508
O O9 0.537728 0.321289 0.073582
O O10 0.666668 0.333334 0.156506
#
# Coordination Sequence:
#
# PCOD9577596 Si02
#       6
#    18  18  18   6   6  18
#     4  12  26  49  78 113 158 203 262 324 387 492
#     4  10  24  49  73 114 146 199 257 323 390 473
#     4  12  29  49  81 113 155 209 264 326 405 474
#     4  12  27  51  73 113 160 189 264 318 412 455
#     4  12  27  51  82 116 154 210 261 321 397 491
#     4  12  29  49  75 117 153 212 254 330 399 477
#
# _framework density 25.129708999999998
#
# number of rings (size 3 to 8) (size 9 to 14) (size 15 to 20)
#    0.429    0.000    4.286    2.571    9.000    1.714 
#    0.000    0.000    0.000    0.000    0.000    0.000 
#    0.000    0.000    0.000    0.000    0.000    0.000 
#
# Total GULP energy -156606.731199 kJ/mol
# GULP energy per Si atom -5593.097543 kJ/mol
# Density = 2.507251 g / cm^3
# Si number density = 25.129709 Si / 1000 Ang^3
#
#
#
# Elastic Constant Matrix: (Units=GPa)
#
#
# Indices 1 2 3 4 5 6 
#
# 1 121.2384 33.0941 -8.2067 10.1913 0.0000 0.0000
# 2 33.0941 121.2389 -8.2064 -10.1916 0.0000 0.0000
# 3 -8.2067 -8.2064 42.7148 0.0004 0.0000 0.0000
# 4 10.1913 -10.1916 0.0004 24.6614 0.0000 0.0000
# 5 0.0000 0.0000 0.0000 0.0000 24.6592 10.1927
# 6 0.0000 0.0000 0.0000 0.0000 10.1927 44.0715
#
#
#
# Elastic Compliance Matrix: (Units=1/GPa)
#
#
# Indices 1 2 3 4 5 6 
#
# 1 0.009579 -0.002965 0.001271 -0.005184 0.000000 0.000000
# 2 -0.002965 0.009579 0.001271 0.005184 0.000000 0.000000
# 3 0.001271 0.001271 0.023899 -0.000001 0.000000 0.000000
# 4 -0.005184 0.005184 -0.000001 0.044834 0.000000 0.000000
# 5 0.000000 0.000000 0.000000 0.000000 0.044839 -0.010370
# 6 0.000000 0.000000 0.000000 0.000000 -0.010370 0.025089
#
#
# Mechanical properties :
#
#
# Convention : Reuss Voigt Hill
#
# Bulk Modulus (GPa) = 23.68990 35.39491 29.54241
# Shear Modulus (GPa) = 28.94592 36.57916 32.76254
#
# Velocity S-wave (km/s) = 3.39759 3.81939 3.61465
# Velocity P-wave (km/s) = 4.98387 5.79360 5.40392
#
# Compressibility (1/GPa) = 0.04221208
#
# Stress axis : x y z
#
# Youngs Moduli (GPa) = 104.39269 104.39326 41.84202
#
# Poissons Ratio (x) = 0.30948 -0.05318
# Poissons Ratio (y) = 0.30948 -0.05317
# Poissons Ratio (z) = -0.13268 -0.13265
#
# Static dielectric constant tensor:
#      x y z
#    x 2.153170 0.000000 0.000000 
#    y 0.000000 2.153100 0.000000 
#    z 0.000000 0.000000 1.957840 
# 
# From -- ./inp_files/1868.got.cif
#   From: 2010.05.17/outbox.cif.g08.bks.cpg/sg161_cif.got.tgz:1868.got - 2010.05.20 10:52:32.
