data_PCOD9577309
_publ_section_title
;
Structure prediction by ZEFSAII (Michael W. Deem and Ramdas Pophale) SiO2 
 PCOD9577309
Probable space group: P 3 C 1
;
_chemical_formula_sum "Si O2"
_cell_formula_units_Z 42
_cell_length_a 14.388961
_cell_length_b 14.388961
_cell_length_c 11.804617
_cell_angle_alpha 90.000000
_cell_angle_beta 90.000000
_cell_angle_gamma 120.000000
_cell_volume 2116.612729
_symmetry_space_group_name_H-M "P 3 C 1"
_symmetry_group_IT_number 158
_symmetry_cell_setting 'hexagonal'
loop_
_space_group_symop_operation_xyz
x,y,z
-y,x-y,z
-x+y,-x,z
-x+y,y,1/2+z
x,x-y,1/2+z
-y,-x,1/2+z
loop_
_atom_site_type_symbol
_atom_site_label
_atom_site_fract_x
_atom_site_fract_y
_atom_site_fract_z
Si Si1 0.227030 0.949771 0.660780
Si Si2 0.297256 0.861803 0.869548
Si Si3 0.831618 0.680358 0.241463
Si Si4 0.109170 0.631281 0.826194
Si Si5 0.766370 0.298314 0.635942
Si Si6 0.382656 0.304697 0.955667
Si Si7 0.050009 0.712930 0.608205
O O1 0.281496 0.915893 0.758494
O O2 0.120559 0.841535 0.626867
O O3 0.223074 0.050531 0.714589
O O4 0.303839 0.002153 0.553359
O O5 0.190269 0.746191 0.881677
O O6 0.397845 0.846263 0.845208
O O7 0.312760 0.932077 0.981074
O O8 0.824409 0.564914 0.224586
O O9 0.789338 0.681940 0.365564
O O10 0.748352 0.679257 0.148951
O O11 0.093901 0.657251 0.696618
O O12 0.993402 0.580211 0.885923
O O13 0.778021 0.415509 0.647815
O O14 0.817960 0.295454 0.515984
#
# Coordination Sequence:
#
# PCOD9577309 Si02
#       7
#     6   6   6   6   6   6   6
#     4  10  23  42  61  91 128 164 217 266 328 389
#     4  11  23  38  67  89 130 172 209 273 324 392
#     4  10  23  40  65  89 128 168 216 272 331 389
#     4  10  23  38  60  94 124 165 216 260 326 390
#     4   9  22  37  57  89 127 161 215 254 320 395
#     4  10  21  39  60  88 126 167 207 270 319 389
#     4  10  23  42  64  94 127 167 220 269 332 398
#
# _framework density 19.843025999999998
#
# number of rings (size 3 to 8) (size 9 to 14) (size 15 to 20)
#    0.286    1.714    1.429    0.286    8.000    4.571 
#    0.857    0.000    0.000    1.714    0.000    0.000 
#    0.000    0.000    0.000    0.000    0.000    0.000 
#
# Total GULP energy -234228.648203 kJ/mol
# GULP energy per Si atom -5576.872576 kJ/mol
# Density = 1.979786 g / cm^3
# Si number density = 19.843026 Si / 1000 Ang^3
#
#
#
# Elastic Constant Matrix: (Units=GPa)
#
#
# Indices 1 2 3 4 5 6 
#
# 1 61.7150 31.7939 21.6073 3.6944 0.0000 0.0000
# 2 31.7939 61.7150 21.6073 -3.6944 0.0000 0.0000
# 3 21.6073 21.6073 84.0781 0.0000 0.0000 0.0000
# 4 3.6944 -3.6944 0.0000 17.5266 0.0000 0.0000
# 5 0.0000 0.0000 0.0000 0.0000 17.5266 3.6944
# 6 0.0000 0.0000 0.0000 0.0000 3.6944 14.9606
#
#
#
# Elastic Compliance Matrix: (Units=1/GPa)
#
#
# Indices 1 2 3 4 5 6 
#
# 1 0.023696 -0.011560 -0.003119 -0.007432 0.000000 0.000000
# 2 -0.011560 0.023696 -0.003119 0.007432 0.000000 0.000000
# 3 -0.003119 -0.003119 0.013497 0.000000 0.000000 0.000000
# 4 -0.007432 0.007432 0.000000 0.060189 0.000000 0.000000
# 5 0.000000 0.000000 0.000000 0.000000 0.060189 -0.014863
# 6 0.000000 0.000000 0.000000 0.000000 -0.014863 0.070513
#
#
# Mechanical properties :
#
#
# Convention : Reuss Voigt Hill
#
# Bulk Modulus (GPa) = 39.53699 39.72502 39.63100
# Shear Modulus (GPa) = 16.90295 18.83607 17.86951
#
# Velocity S-wave (km/s) = 2.92178 3.08434 3.00416
# Velocity P-wave (km/s) = 5.59916 5.72253 5.66118
#
# Compressibility (1/GPa) = 0.02529277
#
# Stress axis : x y z
#
# Youngs Moduli (GPa) = 42.20129 42.20129 74.09243
#
# Poissons Ratio (x) = 0.48787 0.23107
# Poissons Ratio (y) = 0.48787 0.23107
# Poissons Ratio (z) = 0.13161 0.13161
#
# Static dielectric constant tensor:
#      x y z
#    x 1.707780 0.000000 0.000000 
#    y 0.000000 1.707780 0.000000 
#    z 0.000000 0.000000 1.696120 
# 
# From -- ./inp_files/354.got.cif
#   From: 2010.05.17/outbox.cif.g08.bks.cpg/sg158_cif.got.tgz:354.got - 2010.05.20 10:49:59.
