data_PCOD9577196
_publ_section_title
;
Structure prediction by ZEFSAII (Michael W. Deem and Ramdas Pophale) SiO2 
 PCOD9577196
Probable space group: P 3 M 1
;
_chemical_formula_sum "Si O2"
_cell_formula_units_Z 36
_cell_length_a 21.887321
_cell_length_b 21.887321
_cell_length_c 5.292835
_cell_angle_alpha 90.000000
_cell_angle_beta 90.000000
_cell_angle_gamma 120.000000
_cell_volume 2195.857746
_symmetry_space_group_name_H-M "P 3 M 1"
_symmetry_group_IT_number 156
_symmetry_cell_setting 'hexagonal'
loop_
_space_group_symop_operation_xyz
x,y,z
-y,x-y,z
-x+y,-x,z
-x+y,y,z
x,x-y,z
-y,-x,z
loop_
_atom_site_type_symbol
_atom_site_label
_atom_site_fract_x
_atom_site_fract_y
_atom_site_fract_z
Si Si1 0.171435 0.481446 0.395510
Si Si2 0.857501 0.288571 0.895510
Si Si3 0.302000 0.312443 0.895510
Si Si4 0.689508 0.914848 0.395510
Si Si5 0.096570 0.482095 0.895510
Si Si6 0.520262 0.186527 0.395510
O O1 0.254123 0.508246 0.395510
O O2 0.131469 0.395934 0.395510
O O3 0.144851 0.500719 0.647500
O O4 0.144851 0.500719 0.143521
O O5 0.788702 0.211299 0.895510
O O6 0.851899 0.327245 0.146067
O O7 0.927535 0.283131 0.895510
O O8 0.851899 0.327245 0.644953
O O9 0.253302 0.291627 0.143813
O O10 0.253302 0.291627 0.647205
O O11 0.352802 0.397969 0.895510
O O12 0.715477 0.857739 0.395510
O O13 0.060019 0.530010 0.895510
O O14 0.594588 0.189175 0.395510
O O15 0.531750 0.265875 0.395510
#
# Coordination Sequence:
#
# PCOD9577196 Si02
#       6
#     6   6   6   6   6   6
#     4   9  17  30  46  60  79 109 140 173 220 276
#     4  10  21  35  50  71 100 135 168 200 255 325
#     4  10  19  32  48  70  98 127 156 191 238 289
#     4   9  17  30  50  73  92 115 149 186 228 275
#     4  10  19  29  44  65  86 110 146 191 233 272
#     4  10  20  34  51  69  91 126 178 233 274 307
#
# _framework density 16.394503
#
# number of rings (size 3 to 8) (size 9 to 14) (size 15 to 20)
#    0.000    2.333    0.000    3.167    0.000    5.333 
#    0.000    1.667    0.000    6.667    0.000    0.000 
#    0.000    0.000    0.000   10.000    0.000    0.000 
#
# Total GULP energy -200766.635713 kJ/mol
# GULP energy per Si atom -5576.850992 kJ/mol
# Density = 1.635719 g / cm^3
# Si number density = 16.394503 Si / 1000 Ang^3
#
#
#
# Elastic Constant Matrix: (Units=GPa)
#
#
# Indices 1 2 3 4 5 6 
#
# 1 55.8123 27.0346 42.8973 0.0000 0.0000 0.0000
# 2 27.0346 55.8123 42.8973 0.0000 0.0000 0.0000
# 3 42.8973 42.8973 170.0543 0.0000 0.0000 0.0000
# 4 0.0000 0.0000 0.0000 10.2921 0.0000 0.0000
# 5 0.0000 0.0000 0.0000 0.0000 10.2921 0.0000
# 6 0.0000 0.0000 0.0000 0.0000 0.0000 14.3888
#
#
#
# Elastic Compliance Matrix: (Units=1/GPa)
#
#
# Indices 1 2 3 4 5 6 
#
# 1 0.025544 -0.009205 -0.004122 0.000000 0.000000 0.000000
# 2 -0.009205 0.025544 -0.004122 0.000000 0.000000 0.000000
# 3 -0.004122 -0.004122 0.007960 0.000000 0.000000 0.000000
# 4 0.000000 0.000000 0.000000 0.097162 0.000000 0.000000
# 5 0.000000 0.000000 0.000000 0.000000 0.097162 0.000000
# 6 0.000000 0.000000 0.000000 0.000000 0.000000 0.069498
#
#
# Mechanical properties :
#
#
# Convention : Reuss Voigt Hill
#
# Bulk Modulus (GPa) = 41.40618 56.37082 48.88850
# Shear Modulus (GPa) = 13.66802 18.25123 15.95963
#
# Velocity S-wave (km/s) = 2.89051 3.34016 3.12344
# Velocity P-wave (km/s) = 6.03747 7.02383 6.54925
#
# Compressibility (1/GPa) = 0.02415098
#
# Stress axis : x y z
#
# Youngs Moduli (GPa) = 39.14828 39.14828 125.63064
#
# Poissons Ratio (x) = 0.36037 0.51779
# Poissons Ratio (y) = 0.36037 0.51779
# Poissons Ratio (z) = 0.16135 0.16135
#
# Static dielectric constant tensor:
#      x y z
#    x 1.533830 0.000000 0.000000 
#    y 0.000000 1.533830 0.000000 
#    z 0.000000 0.000000 1.555930 
# 
# From -- ./inp_files/160.got.cif
#   From: 2010.05.17/outbox.cif.g08.bks.cpg/sg156_cif.got.tgz:160.got - 2010.05.20 10:49:08.
