data_PCOD9577623
_publ_section_title
;
Structure prediction by ZEFSAII (Michael W. Deem and Ramdas Pophale) SiO2 
 PCOD9577623
Probable space group: R 3 C
;
_chemical_formula_sum "Si O2"
_cell_formula_units_Z 66
_cell_length_a 13.640973
_cell_length_b 13.640973
_cell_length_c 13.512279
_cell_angle_alpha 90.000000
_cell_angle_beta 90.000000
_cell_angle_gamma 120.000000
_cell_volume 2177.458739
_symmetry_space_group_name_H-M "R 3 C"
_symmetry_group_IT_number 161
_symmetry_cell_setting 'hexagonal'
loop_
_space_group_symop_operation_xyz
x,y,z
-y,x-y,z
-x+y,-x,z
-x+y,y,1/2+z
x,x-y,1/2+z
-y,-x,1/2+z
2/3+x,1/3+y,1/3+z
2/3-y,1/3+x-y,1/3+z
2/3-x+y,1/3-x,1/3+z
2/3-x+y,1/3+y,5/6+z
2/3+x,1/3+x-y,5/6+z
2/3-y,1/3-x,5/6+z
1/3+x,2/3+y,2/3+z
1/3-y,2/3+x-y,2/3+z
1/3-x+y,2/3-x,2/3+z
1/3-x+y,2/3+y,1/6+z
1/3+x,2/3+x-y,1/6+z
1/3-y,2/3-x,1/6+z
loop_
_atom_site_type_symbol
_atom_site_label
_atom_site_fract_x
_atom_site_fract_y
_atom_site_fract_z
Si Si1 0.000000 0.000000 0.826046
Si Si2 0.920552 0.682347 0.849370
Si Si3 0.666668 0.333334 0.896328
Si Si4 0.265087 0.171460 0.079011
Si Si5 0.360921 0.885724 0.500518
O O1 0.067088 0.937696 0.795599
O O2 0.000000 0.000000 0.944252
O O3 0.852245 0.566563 0.785738
O O4 0.846587 0.740881 0.815079
O O5 0.995589 0.557494 0.947900
O O6 0.919846 0.707395 0.965508
O O7 0.632785 0.428918 0.927566
O O8 0.339813 0.288522 0.139600
#
# Coordination Sequence:
#
# PCOD9577623 Si02
#       5
#     6  18   6  18  18
#     4  12  24  63  96 142 199 260 346 427 530 613
#     4  12  32  57 101 148 209 278 351 442 532 632
#     4  12  27  60 108 148 208 272 355 442 515 640
#     4  12  30  64 102 156 210 281 362 439 539 632
#     4  12  29  60  97 148 204 275 350 438 532 637
#
# _framework density 30.310565
#
# number of rings (size 3 to 8) (size 9 to 14) (size 15 to 20)
#    0.000    0.000    5.455    0.000   11.455    0.000 
#   14.727    0.000    0.000    0.000    0.000    0.000 
#    0.000    0.000    0.000    0.000    0.000    0.000 
#
# Total GULP energy -123230.307685 kJ/mol
# GULP energy per Si atom -5601.377622 kJ/mol
# Density = 3.024158 g / cm^3
# Si number density = 30.310565 Si / 1000 Ang^3
#
#
#
# Elastic Constant Matrix: (Units=GPa)
#
#
# Indices 1 2 3 4 5 6 
#
# 1 240.4390 112.9069 85.8845 8.7812 0.0000 0.0000
# 2 112.9069 240.4375 85.8838 -8.7804 0.0000 0.0000
# 3 85.8845 85.8838 263.1193 0.0000 0.0000 0.0000
# 4 8.7812 -8.7804 0.0000 52.2428 0.0000 0.0000
# 5 0.0000 0.0000 0.0000 0.0000 52.2427 8.7810
# 6 0.0000 0.0000 0.0000 0.0000 8.7810 63.7662
#
#
#
# Elastic Compliance Matrix: (Units=1/GPa)
#
#
# Indices 1 2 3 4 5 6 
#
# 1 0.005695 -0.002332 -0.001098 -0.001349 0.000000 0.000000
# 2 -0.002332 0.005695 -0.001098 0.001349 0.000000 0.000000
# 3 -0.001098 -0.001098 0.004517 0.000000 0.000000 0.000000
# 4 -0.001349 0.001349 0.000000 0.019595 0.000000 0.000000
# 5 0.000000 0.000000 0.000000 0.000000 0.019595 -0.002698
# 6 0.000000 0.000000 0.000000 0.000000 -0.002698 0.016054
#
#
# Mechanical properties :
#
#
# Convention : Reuss Voigt Hill
#
# Bulk Modulus (GPa) = 145.91955 145.92737 145.92346
# Shear Modulus (GPa) = 60.61238 64.27170 62.44204
#
# Velocity S-wave (km/s) = 4.47666 4.60982 4.54373
# Velocity P-wave (km/s) = 8.65833 8.75114 8.70486
#
# Compressibility (1/GPa) = 0.00685309
#
# Stress axis : x y z
#
# Youngs Moduli (GPa) = 175.57993 175.57932 221.36926
#
# Poissons Ratio (x) = 0.40938 0.24306
# Poissons Ratio (y) = 0.40938 0.24306
# Poissons Ratio (z) = 0.19279 0.19278
#
# Static dielectric constant tensor:
#      x y z
#    x 2.470450 0.000000 0.000000 
#    y 0.000000 2.470450 0.000000 
#    z 0.000000 0.000000 2.458700 
# 
# From -- ./inp_files/1227.got.cif
#   From: 2010.05.17/outbox.cif.g08.bks.cpg/sg161_cif.got.tgz:1227.got - 2010.05.20 10:52:32.
