data_PCOD9577772
_publ_section_title
;
Structure prediction by ZEFSAII (Michael W. Deem and Ramdas Pophale) SiO2 
 PCOD9577772
Probable space group: P -3 1 M 
;
_chemical_formula_sum "Si O2"
_cell_formula_units_Z 76
_cell_length_a 18.409465
_cell_length_b 18.409465
_cell_length_c 13.076635
_cell_angle_alpha 90.000000
_cell_angle_beta 90.000000
_cell_angle_gamma 120.000000
_cell_volume 3838.035334
_symmetry_space_group_name_H-M "P -3 1 M "
_symmetry_group_IT_number 162
_symmetry_cell_setting 'hexagonal'
loop_
_space_group_symop_operation_xyz
x,y,z
-y,x-y,z
-x+y,-x,z
-y,-x,-z
-x+y,y,-z
x,x-y,-z
-x,-y,-z
y,-x+y,-z
x-y,x,-z
y,x,z
x-y,-y,z
-x,-x+y,z
loop_
_atom_site_type_symbol
_atom_site_label
_atom_site_fract_x
_atom_site_fract_y
_atom_site_fract_z
Si Si1 0.333334 0.666667 0.122760
Si Si2 0.504683 0.409268 0.604893
Si Si3 0.244993 0.906745 0.965058
Si Si4 0.628266 0.450005 0.774647
Si Si5 0.259690 0.903566 0.313226
Si Si6 0.738988 0.643910 0.724443
Si Si7 0.637942 0.539810 0.111672
O O1 0.310117 0.578189 0.175593
O O2 0.333334 0.666667 0.000000
O O3 0.548903 0.451098 0.500000
O O4 0.469331 0.469331 0.650057
O O5 0.571158 0.402096 0.676689
O O6 0.421807 0.318562 0.599794
O O7 0.245265 0.910180 0.844367
O O8 0.284266 0.000000 0.007625
O O9 0.151810 0.848191 0.000000
O O10 0.302766 0.871650 0.012324
O O11 0.675466 0.544271 0.732837
O O12 0.557187 0.420715 0.862267
O O13 0.164970 0.827813 0.321854
O O14 0.300611 0.891796 0.207367
O O15 0.280181 0.000000 0.312725
O O16 0.693479 0.693479 0.681555
O O17 0.424991 0.424991 0.901580
#
# Coordination Sequence:
#
# PCOD9577772 Si02
#       7
#     4  12  12  12  12  12  12
#     4  12  30  39  52  74 109 168 210 249 289 344
#     4   9  18  36  64  92 115 148 191 235 297 369
#     4  10  20  31  49  73 100 139 191 247 291 348
#     4  11  22  38  53  75 114 148 189 241 294 341
#     4   9  17  33  55  78 110 147 184 233 292 354
#     4  11  22  33  52  80 109 144 192 245 293 348
#     4   9  17  30  50  71  98 142 183 225 288 349
#
# _framework density 19.801798999999999
#
# number of rings (size 3 to 8) (size 9 to 14) (size 15 to 20)
#    0.000    2.053    1.579    4.263    2.211    0.000 
#    0.000    5.526    0.000    0.474    0.000    0.000 
#    0.000    0.000    0.000    0.000    0.000   12.474 
#
# Total GULP energy -423646.044495 kJ/mol
# GULP energy per Si atom -5574.290059 kJ/mol
# Density = 1.975673 g / cm^3
# Si number density = 19.801799 Si / 1000 Ang^3
#
#
#
# Elastic Constant Matrix: (Units=GPa)
#
#
# Indices 1 2 3 4 5 6 
#
# 1 55.6287 107.8755 16.6495 -0.0002 -26.6530 -0.0064
# 2 107.8755 55.6263 16.6504 0.0014 26.6535 0.0038
# 3 16.6495 16.6504 40.9042 -0.0005 -0.0002 0.0012
# 4 -0.0002 0.0014 -0.0005 10.9636 0.0009 26.6522
# 5 -26.6530 26.6535 -0.0002 0.0009 10.9633 -0.0050
# 6 -0.0064 0.0038 0.0012 26.6522 -0.0050 -26.1209
#
#
#
# Elastic Compliance Matrix: (Units=1/GPa)
#
#
# Indices 1 2 3 4 5 6 
#
# 1 0.000585 0.006084 -0.002715 -0.000002 -0.013369 0.000001
# 2 0.006084 0.000585 -0.002714 0.000003 0.013369 -0.000002
# 3 -0.002715 -0.002714 0.026657 -0.000001 0.000000 0.000001
# 4 -0.000002 0.000003 -0.000001 0.026207 -0.000001 0.026740
# 5 -0.013369 0.013369 0.000000 -0.000001 0.026208 -0.000001
# 6 0.000001 -0.000002 0.000001 0.026740 -0.000001 -0.011000
#
#
# Mechanical properties :
#
#
# Convention : Reuss Voigt Hill
#
# Bulk Modulus (GPa) = 34.32075 48.27887 41.29981
# Shear Modulus (GPa) = 64.39615 -0.10654 32.14481
#
# Velocity S-wave (km/s) = 5.70885 -0.23221 4.03342
# Velocity P-wave (km/s) = 7.79900 4.93580 6.52635
#
# Compressibility (1/GPa) = 0.02913689
#
# Stress axis : x y z
#
# Youngs Moduli (GPa) = 1709.45154 1710.14820 37.51321
#
# Poissons Ratio (x) = -10.40471 0.10184
# Poissons Ratio (y) = -10.40047 0.10183
# Poissons Ratio (z) = 4.64072 4.64204
#
# Static dielectric constant tensor:
#      x y z
#    x 1.750850 0.000000 0.000000 
#    y 0.000000 1.750850 0.000000 
#    z 0.000000 0.000000 1.763560 
# 
# From -- ./inp_files/3115.got.cif
#   From: 2010.05.17/outbox.cif.g08.bks.cpg/sg162_2_cif.got.tgz:3115.got - 2010.05.20 10:53:12.
