data_PCOD9577172
_publ_section_title
;
Structure prediction by ZEFSAII (Michael W. Deem and Ramdas Pophale) SiO2 
 PCOD9577172
Probable space group: R 3 2
;
_chemical_formula_sum "Si O2"
_cell_formula_units_Z 84
_cell_length_a 17.486314
_cell_length_b 17.486314
_cell_length_c 15.330882
_cell_angle_alpha 90.000000
_cell_angle_beta 90.000000
_cell_angle_gamma 120.000000
_cell_volume 4059.703518
_symmetry_space_group_name_H-M "R 3 2"
_symmetry_group_IT_number 155
_symmetry_cell_setting 'hexagonal'
loop_
_space_group_symop_operation_xyz
x,y,z
-y,x-y,z
-x+y,-x,z
x-y,-y,-z
-x,-x+y,-z
y,x,-z
2/3+x,1/3+y,1/3+z
2/3-y,1/3+x-y,1/3+z
2/3-x+y,1/3-x,1/3+z
2/3+x-y,1/3-y,1/3-z
2/3-x,1/3-x+y,1/3-z
2/3+y,1/3+x,1/3-z
1/3+x,2/3+y,2/3+z
1/3-y,2/3+x-y,2/3+z
1/3-x+y,2/3-x,2/3+z
1/3+x-y,2/3-y,2/3-z
1/3-x,2/3-x+y,2/3-z
1/3+y,2/3+x,2/3-z
loop_
_atom_site_type_symbol
_atom_site_label
_atom_site_fract_x
_atom_site_fract_y
_atom_site_fract_z
Si Si1 0.220048 0.743648 0.737453
Si Si2 0.333333 0.666667 0.021092
Si Si3 0.000000 0.606166 0.500000
Si Si4 0.113286 0.190270 0.429218
Si Si5 0.333334 0.666667 0.521079
Si Si6 0.000000 0.606162 0.000000
Si Si7 0.666667 0.602429 0.333334
Si Si8 0.064235 0.397569 0.166667
O O1 0.169626 0.666667 0.666667
O O2 0.154126 0.735172 0.813804
O O3 0.298614 0.730200 0.775133
O O4 0.255452 0.838832 0.694076
O O5 0.368051 0.764919 0.058212
O O6 0.333334 0.666667 0.916673
O O7 0.982577 0.649246 0.583333
O O8 0.163715 0.163715 0.500000
O O9 0.179203 0.247713 0.352862
O O10 0.077883 0.250050 0.472595
O O11 0.639985 0.639984 0.250001
#
# Coordination Sequence:
#
# PCOD9577172 Si02
#       8
#    18   6   9  18   6   9   9   9
#     4  12  25  49  75 107 153 200 253 316 380 451
#     4  12  25  47  79 108 145 206 259 313 386 463
#     4  12  27  44  71 112 152 194 248 316 385 454
#     4  12  25  49  75 107 153 200 253 316 380 451
#     4  12  25  47  79 108 145 206 259 313 386 463
#     4  12  27  44  71 112 152 194 248 316 385 454
#     4  12  29  50  79 112 158 202 254 312 385 462
#     4  12  29  50  79 112 158 202 254 312 385 462
#
# _framework density 20.691167
#
# number of rings (size 3 to 8) (size 9 to 14) (size 15 to 20)
#    0.000    0.000    6.429    2.571    6.000    5.143 
#    0.000    0.000    0.000    0.000    0.000    0.000 
#    0.000    0.000    0.000    0.000    0.000    0.000 
#
# Total GULP energy -156741.810089 kJ/mol
# GULP energy per Si atom -5597.921789 kJ/mol
# Density = 2.064407 g / cm^3
# Si number density = 20.691167 Si / 1000 Ang^3
#
#
#
# Elastic Constant Matrix: (Units=GPa)
#
#
# Indices 1 2 3 4 5 6 
#
# 1 96.1359 59.3103 62.6316 -2.9038 0.0008 0.0000
# 2 59.3103 96.1364 62.6315 2.9041 -0.0008 0.0000
# 3 62.6316 62.6315 160.0148 -0.0001 0.0000 0.0000
# 4 -2.9038 2.9041 -0.0001 36.2602 0.0000 -0.0008
# 5 0.0008 -0.0008 0.0000 0.0000 36.2601 -2.9038
# 6 0.0000 0.0000 0.0000 -0.0008 -2.9038 18.4127
#
#
#
# Elastic Compliance Matrix: (Units=1/GPa)
#
#
# Indices 1 2 3 4 5 6 
#
# 1 0.018450 -0.009053 -0.003678 0.002203 -0.000001 0.000000
# 2 -0.009053 0.018450 -0.003678 -0.002203 0.000001 0.000000
# 3 -0.003678 -0.003678 0.009129 0.000000 0.000000 0.000000
# 4 0.002203 -0.002203 0.000000 0.027931 0.000000 0.000001
# 5 -0.000001 0.000001 0.000000 0.000000 0.027931 0.004405
# 6 0.000000 0.000000 0.000000 0.000001 0.004405 0.055005
#
#
# Mechanical properties :
#
#
# Convention : Reuss Voigt Hill
#
# Bulk Modulus (GPa) = 75.69823 80.15930 77.92877
# Shear Modulus (GPa) = 25.75776 29.36754 27.56265
#
# Velocity S-wave (km/s) = 3.53210 3.77148 3.65375
# Velocity P-wave (km/s) = 7.30058 7.60200 7.45281
#
# Compressibility (1/GPa) = 0.01321035
#
# Stress axis : x y z
#
# Youngs Moduli (GPa) = 54.20160 54.20195 109.54462
#
# Poissons Ratio (x) = 0.49067 0.40292
# Poissons Ratio (y) = 0.49067 0.40291
# Poissons Ratio (z) = 0.19936 0.19936
#
# Static dielectric constant tensor:
#      x y z
#    x 1.750700 0.000000 0.000000 
#    y 0.000000 1.750690 0.000000 
#    z 0.000000 0.000000 1.704610 
# 
# From -- ./inp_files/5036.got.cif
#   From: 2010.05.17/outbox.cif.g08.bks.cpg/sg155_3_cif.got.tgz:5036.got - 2010.05.20 10:44:35.
