data_PCOD9577809
_publ_section_title
;
Structure prediction by ZEFSAII (Michael W. Deem and Ramdas Pophale) SiO2 
 PCOD9577809
Probable space group: P -3 1 M 
;
_chemical_formula_sum "Si O2"
_cell_formula_units_Z 48
_cell_length_a 16.983927
_cell_length_b 16.983927
_cell_length_c 10.315924
_cell_angle_alpha 90.000000
_cell_angle_beta 90.000000
_cell_angle_gamma 120.000000
_cell_volume 2577.003418
_symmetry_space_group_name_H-M "P -3 1 M "
_symmetry_group_IT_number 162
_symmetry_cell_setting 'hexagonal'
loop_
_space_group_symop_operation_xyz
x,y,z
-y,x-y,z
-x+y,-x,z
-y,-x,-z
-x+y,y,-z
x,x-y,-z
-x,-y,-z
y,-x+y,-z
x-y,x,-z
y,x,z
x-y,-y,z
-x,-x+y,z
loop_
_atom_site_type_symbol
_atom_site_label
_atom_site_fract_x
_atom_site_fract_y
_atom_site_fract_z
Si Si1 0.637003 0.530758 0.436821
Si Si2 0.433343 0.242007 0.799806
Si Si3 0.689157 0.896931 0.388234
Si Si4 0.895398 0.537270 0.047530
O O1 0.562631 0.437370 0.500000
O O2 0.584410 0.584410 0.393780
O O3 0.685538 0.515540 0.314023
O O4 0.712119 0.597329 0.541349
O O5 0.339608 0.170471 0.731814
O O6 0.475738 0.180434 0.847806
O O7 0.422443 0.293501 0.922109
O O8 0.733933 0.866967 0.500000
O O9 0.748941 0.000000 0.348951
O O10 0.000000 0.601093 0.091482
O O11 0.885536 0.442768 0.000000
#
# Coordination Sequence:
#
# PCOD9577809 Si02
#       4
#    12  12  12  12
#     4   9  18  32  54  80 107 142 179 219 269 327
#     4  10  20  35  53  78 104 138 189 233 271 319
#     4   9  18  33  55  82 109 137 176 224 275 330
#     4  10  22  38  55  73 102 148 192 233 277 323
#
# _framework density 18.626284999999999
#
# number of rings (size 3 to 8) (size 9 to 14) (size 15 to 20)
#    0.000    2.500    0.000    1.500    3.500    1.000 
#    6.000    0.000    0.000    0.250    0.000    0.000 
#    0.000    0.000    0.000   41.000    0.000    0.000 
#
# Total GULP energy -267698.783663 kJ/mol
# GULP energy per Si atom -5577.057993 kJ/mol
# Density = 1.858389 g / cm^3
# Si number density = 18.626285 Si / 1000 Ang^3
#
#
#
# Elastic Constant Matrix: (Units=GPa)
#
#
# Indices 1 2 3 4 5 6 
#
# 1 79.1863 43.0832 38.3670 -0.0006 -9.9619 0.0000
# 2 43.0832 79.1863 38.3670 0.0006 9.9619 0.0000
# 3 38.3670 38.3670 85.9189 0.0000 0.0000 0.0000
# 4 -0.0006 0.0006 0.0000 15.5091 0.0000 9.9619
# 5 -9.9619 9.9619 0.0000 0.0000 15.5091 -0.0006
# 6 0.0000 0.0000 0.0000 9.9619 -0.0006 18.0516
#
#
#
# Elastic Compliance Matrix: (Units=1/GPa)
#
#
# Indices 1 2 3 4 5 6 
#
# 1 0.027136 -0.015772 -0.005074 0.000002 0.027561 0.000000
# 2 -0.015772 0.027136 -0.005074 -0.000002 -0.027561 0.000000
# 3 -0.005074 -0.005074 0.016171 0.000000 0.000000 0.000000
# 4 0.000002 -0.000002 0.000000 0.099884 0.000000 -0.055122
# 5 0.027561 -0.027561 0.000000 0.000000 0.099884 0.000004
# 6 0.000000 0.000000 0.000000 -0.055122 0.000004 0.085816
#
#
# Mechanical properties :
#
#
# Convention : Reuss Voigt Hill
#
# Bulk Modulus (GPa) = 53.76309 53.76952 53.76631
# Shear Modulus (GPa) = 12.07531 18.11225 15.09378
#
# Velocity S-wave (km/s) = 2.54892 3.12172 2.84975
# Velocity P-wave (km/s) = 6.13102 6.47485 6.30528
#
# Compressibility (1/GPa) = 0.01860012
#
# Stress axis : x y z
#
# Youngs Moduli (GPa) = 36.85198 36.85198 61.84052
#
# Poissons Ratio (x) = 0.58125 0.31379
# Poissons Ratio (y) = 0.58125 0.31379
# Poissons Ratio (z) = 0.18699 0.18699
#
# Static dielectric constant tensor:
#      x y z
#    x 1.642640 0.000000 0.000000 
#    y 0.000000 1.642640 0.000000 
#    z 0.000000 0.000000 1.683310 
# 
# From -- ./inp_files/2147.got.cif
#   From: 2010.05.17/outbox.cif.g08.bks.cpg/sg162_2_cif.got.tgz:2147.got - 2010.05.20 10:53:12.
