data_PCOD9577678
_publ_section_title
;
Structure prediction by ZEFSAII (Michael W. Deem and Ramdas Pophale) SiO2 
 PCOD9577678
Probable space group: P -3 1 M 
;
_chemical_formula_sum "Si O2"
_cell_formula_units_Z 78
_cell_length_a 28.164212
_cell_length_b 28.164212
_cell_length_c 8.734099
_cell_angle_alpha 90.000000
_cell_angle_beta 90.000000
_cell_angle_gamma 120.000000
_cell_volume 5999.899162
_symmetry_space_group_name_H-M "P -3 1 M "
_symmetry_group_IT_number 162
_symmetry_cell_setting 'hexagonal'
loop_
_space_group_symop_operation_xyz
x,y,z
-y,x-y,z
-x+y,-x,z
-y,-x,-z
-x+y,y,-z
x,x-y,-z
-x,-y,-z
y,-x+y,-z
x-y,x,-z
y,x,z
x-y,-y,z
-x,-x+y,z
loop_
_atom_site_type_symbol
_atom_site_label
_atom_site_fract_x
_atom_site_fract_y
_atom_site_fract_z
Si Si1 0.431740 0.745999 0.850535
Si Si2 0.906463 0.453232 0.000000
Si Si3 0.719528 0.170676 0.985387
Si Si4 0.063773 0.628348 0.834413
Si Si5 0.863153 0.361865 0.746623
Si Si6 0.477336 0.065191 0.489923
Si Si7 0.760332 0.351266 0.648147
O O1 0.491298 0.795241 0.893295
O O2 0.389555 0.763812 0.790857
O O3 0.431558 0.709492 0.709315
O O4 0.414128 0.707064 0.000000
O O5 0.936220 0.422751 0.076832
O O6 0.874109 0.464003 0.134546
O O7 0.686440 0.109597 0.909141
O O8 0.785386 0.214615 0.000000
O O9 0.692955 0.160288 0.154420
O O10 0.083028 0.624115 0.662910
O O11 0.000000 0.613438 0.834835
O O12 0.916501 0.378527 0.647349
O O13 0.818936 0.357227 0.623759
O O14 0.541508 0.083015 0.500000
O O15 0.445863 0.000000 0.479823
O O16 0.742574 0.371287 0.500000
#
# Coordination Sequence:
#
# PCOD9577678 Si02
#       7
#    12   6  12  12  12  12  12
#     4  11  22  37  46  55  75 107 132 173 208 246
#     4  10  19  28  46  66  90 102 136 170 206 252
#     4  10  21  38  49  66  87 112 139 172 212 260
#     4  10  20  33  52  69  87 110 137 170 214 261
#     4  11  20  32  47  65  80 109 133 164 209 257
#     4  10  20  33  46  69  93 109 130 172 221 258
#     4  12  23  33  46  60  75  97 141 171 204 249
#
# _framework density 13.000219
#
# number of rings (size 3 to 8) (size 9 to 14) (size 15 to 20)
#    0.000    1.385    4.615    3.769    2.154    2.462 
#    0.000    0.769    0.000    0.000    0.000    0.000 
#    0.000    0.000    0.000    0.000    0.000    0.000 
#
# Total GULP energy -434218.407754 kJ/mol
# GULP energy per Si atom -5566.902664 kJ/mol
# Density = 1.297063 g / cm^3
# Si number density = 13.000219 Si / 1000 Ang^3
#
#
#
# Elastic Constant Matrix: (Units=GPa)
#
#
# Indices 1 2 3 4 5 6 
#
# 1 39.3623 11.0031 17.2465 0.0001 0.3758 0.0000
# 2 11.0031 39.3623 17.2465 -0.0001 -0.3758 0.0000
# 3 17.2465 17.2465 65.3984 0.0000 0.0000 0.0000
# 4 0.0001 -0.0001 0.0000 15.9319 0.0000 -0.3758
# 5 0.3758 -0.3758 0.0000 0.0000 15.9319 0.0001
# 6 0.0000 0.0000 0.0000 -0.3758 0.0001 14.1796
#
#
#
# Elastic Compliance Matrix: (Units=1/GPa)
#
#
# Indices 1 2 3 4 5 6 
#
# 1 0.029758 -0.005526 -0.006390 0.000000 -0.000832 0.000000
# 2 -0.005526 0.029758 -0.006390 0.000000 0.000832 0.000000
# 3 -0.006390 -0.006390 0.018661 0.000000 0.000000 0.000000
# 4 0.000000 0.000000 0.000000 0.062806 0.000000 0.001665
# 5 -0.000832 0.000832 0.000000 0.000000 0.062806 0.000000
# 6 0.000000 0.000000 0.000000 0.001665 0.000000 0.070568
#
#
# Mechanical properties :
#
#
# Convention : Reuss Voigt Hill
#
# Bulk Modulus (GPa) = 24.05978 26.12393 25.09186
# Shear Modulus (GPa) = 15.39293 15.78383 15.58838
#
# Velocity S-wave (km/s) = 3.44474 3.48820 3.46654
# Velocity P-wave (km/s) = 5.86251 6.03009 5.94689
#
# Compressibility (1/GPa) = 0.04156314
#
# Stress axis : x y z
#
# Youngs Moduli (GPa) = 33.60489 33.60489 53.58695
#
# Poissons Ratio (x) = 0.18571 0.34243
# Poissons Ratio (y) = 0.18571 0.34243
# Poissons Ratio (z) = 0.21474 0.21474
#
# Static dielectric constant tensor:
#      x y z
#    x 1.447110 0.000000 0.000000 
#    y 0.000000 1.447110 0.000000 
#    z 0.000000 0.000000 1.474070 
# 
# From -- ./inp_files/1864.got.cif
#   From: 2010.05.17/outbox.cif.g08.bks.cpg/sg162_1_cif.got.tgz:1864.got - 2010.05.20 10:53:12.
