data_PCOD9577123
_publ_section_title
;
Structure prediction by ZEFSAII (Michael W. Deem and Ramdas Pophale) SiO2 
 PCOD9577123
Probable space group: R 3 2
;
_chemical_formula_sum "Si O2"
_cell_formula_units_Z 72
_cell_length_a 27.918017
_cell_length_b 27.918017
_cell_length_c 5.053919
_cell_angle_alpha 90.000000
_cell_angle_beta 90.000000
_cell_angle_gamma 120.000000
_cell_volume 3411.363855
_symmetry_space_group_name_H-M "R 3 2"
_symmetry_group_IT_number 155
_symmetry_cell_setting 'hexagonal'
loop_
_space_group_symop_operation_xyz
x,y,z
-y,x-y,z
-x+y,-x,z
x-y,-y,-z
-x,-x+y,-z
y,x,-z
2/3+x,1/3+y,1/3+z
2/3-y,1/3+x-y,1/3+z
2/3-x+y,1/3-x,1/3+z
2/3+x-y,1/3-y,1/3-z
2/3-x,1/3-x+y,1/3-z
2/3+y,1/3+x,1/3-z
1/3+x,2/3+y,2/3+z
1/3-y,2/3+x-y,2/3+z
1/3-x+y,2/3-x,2/3+z
1/3+x-y,2/3-y,2/3-z
1/3-x,2/3-x+y,2/3-z
1/3+y,2/3+x,2/3-z
loop_
_atom_site_type_symbol
_atom_site_label
_atom_site_fract_x
_atom_site_fract_y
_atom_site_fract_z
Si Si1 0.485975 0.272692 0.955505
Si Si2 0.935342 0.230915 0.925136
Si Si3 0.060671 0.180731 0.121978
Si Si4 0.102432 0.731299 0.092179
O O1 0.522826 0.333334 0.833334
O O2 0.495383 0.232884 0.757693
O O3 0.422864 0.259438 0.941918
O O4 0.495521 0.262567 0.257747
O O5 0.920117 0.253450 0.666667
O O6 0.925979 0.169842 0.892200
O O7 0.899752 0.233085 0.166667
O O8 0.000000 0.269992 0.000000
O O9 0.000000 0.143912 0.000000
O O10 0.063307 0.666667 0.166667
O O11 0.100321 0.766988 0.333334
O O12 0.079883 0.746549 0.833334
#
# Coordination Sequence:
#
# PCOD9577123 Si02
#       4
#    18  18  18  18
#     4  11  24  42  64  89 118 155 197 247 308 365
#     4  11  22  36  57  87 125 167 206 242 283 336
#     4  11  24  42  64  89 118 155 197 247 308 365
#     4  11  22  36  57  87 125 167 206 242 283 336
#
# _framework density 21.105927999999999
#
# number of rings (size 3 to 8) (size 9 to 14) (size 15 to 20)
#    0.000    1.000    0.000    7.500    0.000   14.000 
#    0.000    0.000    0.000   10.000    0.000    0.000 
#    0.000    0.000    0.000    0.000    0.000    0.000 
#
# Total GULP energy -134336.584836 kJ/mol
# GULP energy per Si atom -5597.357701 kJ/mol
# Density = 2.105789 g / cm^3
# Si number density = 21.105928 Si / 1000 Ang^3
#
#
#
# Elastic Constant Matrix: (Units=GPa)
#
#
# Indices 1 2 3 4 5 6 
#
# 1 61.9245 26.5213 13.8619 9.0066 -0.8531 0.1931
# 2 26.5213 61.5667 14.0128 -7.9441 -1.1628 -0.0764
# 3 13.8619 14.0128 126.5157 1.0330 -1.4967 -0.1432
# 4 9.0066 -7.9441 1.0330 75.7512 3.7326 0.7047
# 5 -0.8531 -1.1628 -1.4967 3.7326 81.0295 9.8442
# 6 0.1931 -0.0764 -0.1432 0.7047 9.8442 18.1129
#
#
#
# Elastic Compliance Matrix: (Units=1/GPa)
#
#
# Indices 1 2 3 4 5 6 
#
# 1 0.020841 -0.009133 -0.001241 -0.003429 0.000257 -0.000277
# 2 -0.009133 0.020908 -0.001342 0.003295 0.000023 0.000034
# 3 -0.001241 -0.001342 0.008191 -0.000111 0.000123 0.000010
# 4 -0.003429 0.003295 -0.000111 0.013988 -0.000616 -0.000160
# 5 0.000257 0.000023 0.000123 -0.000616 0.013247 -0.007177
# 6 -0.000277 0.000034 0.000010 -0.000160 -0.007177 0.059119
#
#
# Mechanical properties :
#
#
# Convention : Reuss Voigt Hill
#
# Bulk Modulus (GPa) = 37.72428 39.86655 38.79541
# Shear Modulus (GPa) = 29.66256 48.01945 38.84101
#
# Velocity S-wave (km/s) = 3.75295 4.77504 4.29451
# Velocity P-wave (km/s) = 6.05740 7.02362 6.55833
#
# Compressibility (1/GPa) = 0.02650813
#
# Stress axis : x y z
#
# Youngs Moduli (GPa) = 47.98153 47.82860 122.08339
#
# Poissons Ratio (x) = 0.43683 0.15153
# Poissons Ratio (y) = 0.43823 0.16379
# Poissons Ratio (z) = 0.05955 0.06417
#
# Static dielectric constant tensor:
#      x y z
#    x 1.792840 0.003260 -0.002240 
#    y 0.003260 1.795580 -0.000270 
#    z -0.002240 -0.000270 1.694650 
# 
# From -- ./inp_files/899.got.cif
#   From: 2010.05.17/outbox.cif.g08.bks.cpg/sg155_1_cif.got.tgz:899.got - 2010.05.20 10:44:35.
