data_PCOD9577127
_publ_section_title
;
Structure prediction by ZEFSAII (Michael W. Deem and Ramdas Pophale) SiO2 
 PCOD9577127
Probable space group: R 3 2
;
_chemical_formula_sum "Si O2"
_cell_formula_units_Z 135
_cell_length_a 17.583477
_cell_length_b 17.583477
_cell_length_c 23.474048
_cell_angle_alpha 90.000000
_cell_angle_beta 90.000000
_cell_angle_gamma 120.000000
_cell_volume 6285.330737
_symmetry_space_group_name_H-M "R 3 2"
_symmetry_group_IT_number 155
_symmetry_cell_setting 'hexagonal'
loop_
_space_group_symop_operation_xyz
x,y,z
-y,x-y,z
-x+y,-x,z
x-y,-y,-z
-x,-x+y,-z
y,x,-z
2/3+x,1/3+y,1/3+z
2/3-y,1/3+x-y,1/3+z
2/3-x+y,1/3-x,1/3+z
2/3+x-y,1/3-y,1/3-z
2/3-x,1/3-x+y,1/3-z
2/3+y,1/3+x,1/3-z
1/3+x,2/3+y,2/3+z
1/3-y,2/3+x-y,2/3+z
1/3-x+y,2/3-x,2/3+z
1/3+x-y,2/3-y,2/3-z
1/3-x,2/3-x+y,2/3-z
1/3+y,2/3+x,2/3-z
loop_
_atom_site_type_symbol
_atom_site_label
_atom_site_fract_x
_atom_site_fract_y
_atom_site_fract_z
Si Si1 0.491919 0.363876 0.772423
Si Si2 0.820038 0.838040 0.137739
Si Si3 0.304443 0.807516 0.396145
Si Si4 0.703048 0.990281 0.755388
Si Si5 0.164230 0.139535 0.317573
Si Si6 0.240657 0.948908 0.560112
Si Si7 0.138434 0.647413 0.535800
Si Si8 0.746664 0.666667 0.666667
O O1 0.507934 0.333334 0.833334
O O2 0.385686 0.315865 0.766220
O O3 0.526954 0.337348 0.717159
O O4 0.541560 0.470406 0.769497
O O5 0.813120 0.831997 0.205913
O O6 0.729712 0.764421 0.111842
O O7 0.901386 0.824334 0.125062
O O8 0.828313 0.930991 0.122298
O O9 0.252973 0.703811 0.387519
O O10 0.397470 0.852674 0.365075
O O11 0.241549 0.836064 0.365994
O O12 0.762548 0.985969 0.807892
O O13 0.606794 0.904962 0.755841
O O14 0.755112 0.988542 0.700216
O O15 0.252593 0.000000 0.500000
O O16 0.280377 0.010145 0.616008
#
# Coordination Sequence:
#
# PCOD9577127 Si02
#       8
#    18  18  18  18  18  18  18   9
#     4  12  26  45  69  99 137 182 238 292 345 419
#     4  12  22  42  69 100 138 180 221 288 352 412
#     4  12  25  44  66 103 137 180 230 288 351 425
#     4  11  22  42  64 100 133 177 231 278 340 421
#     4  12  27  44  71 100 140 184 230 291 358 422
#     4  12  27  46  70  99 139 189 230 294 355 420
#     4  11  23  37  70 101 138 172 228 280 342 420
#     4  12  28  44  66 102 140 176 242 278 354 426
#
# _framework density 21.478583
#
# number of rings (size 3 to 8) (size 9 to 14) (size 15 to 20)
#    0.000    0.267    8.000    0.933    7.467    0.000 
#    0.000    0.000    0.000    0.267    0.000    0.000 
#    0.000    0.000    0.000    0.000    0.000    0.000 
#
# Total GULP energy -251429.506394 kJ/mol
# GULP energy per Si atom -5587.322364 kJ/mol
# Density = 2.142970 g / cm^3
# Si number density = 21.478583 Si / 1000 Ang^3
#
#
#
# Elastic Constant Matrix: (Units=GPa)
#
#
# Indices 1 2 3 4 5 6 
#
# 1 63.0033 9.8982 -4.9423 -1.3697 -0.0001 0.0000
# 2 9.8982 63.0033 -4.9423 1.3697 0.0001 0.0000
# 3 -4.9423 -4.9423 76.3887 0.0000 0.0000 0.0000
# 4 -1.3697 1.3697 0.0000 0.3437 0.0000 0.0001
# 5 -0.0001 0.0001 0.0000 0.0000 0.3437 -1.3697
# 6 0.0000 0.0000 0.0000 0.0001 -1.3697 26.5525
#
#
#
# Elastic Compliance Matrix: (Units=1/GPa)
#
#
# Indices 1 2 3 4 5 6 
#
# 1 0.018771 -0.004933 0.000895 0.094473 0.000008 0.000000
# 2 -0.004933 0.018771 0.000895 -0.094473 -0.000008 0.000000
# 3 0.000895 0.000895 0.013207 0.000000 0.000000 0.000000
# 4 0.094473 -0.094473 0.000000 3.662853 -0.000001 -0.000017
# 5 0.000008 -0.000008 0.000000 -0.000001 3.662854 0.188947
# 6 0.000000 0.000000 0.000000 -0.000017 0.188947 0.047408
#
#
# Mechanical properties :
#
#
# Convention : Reuss Voigt Hill
#
# Bulk Modulus (GPa) = 22.48946 22.49138 22.49042
# Shear Modulus (GPa) = 0.67159 18.94008 9.80584
#
# Velocity S-wave (km/s) = 0.55979 2.97275 2.13900
# Velocity P-wave (km/s) = 3.30321 4.71988 4.07360
#
# Compressibility (1/GPa) = 0.04446528
#
# Stress axis : x y z
#
# Youngs Moduli (GPa) = 53.27294 53.27294 75.71861
#
# Poissons Ratio (x) = 0.26278 -0.06779
# Poissons Ratio (y) = 0.26278 -0.06779
# Poissons Ratio (z) = -0.04770 -0.04770
#
# Static dielectric constant tensor:
#      x y z
#    x 1.777290 0.000000 0.000000 
#    y 0.000000 1.777290 0.000000 
#    z 0.000000 0.000000 1.817970 
# 
# From -- ./inp_files/8030.got.cif
#   From: 2010.05.17/outbox.cif.g08.bks.cpg/sg155_5_cif.got.tgz:8030.got - 2010.05.20 10:44:35.
