data_PCOD9577755
_publ_section_title
;
Structure prediction by ZEFSAII (Michael W. Deem and Ramdas Pophale) SiO2 
 PCOD9577755
Probable space group: P -3 1 M 
;
_chemical_formula_sum "Si O2"
_cell_formula_units_Z 84
_cell_length_a 18.292432
_cell_length_b 18.292432
_cell_length_c 15.387333
_cell_angle_alpha 90.000000
_cell_angle_beta 90.000000
_cell_angle_gamma 120.000000
_cell_volume 4458.993947
_symmetry_space_group_name_H-M "P -3 1 M "
_symmetry_group_IT_number 162
_symmetry_cell_setting 'hexagonal'
loop_
_space_group_symop_operation_xyz
x,y,z
-y,x-y,z
-x+y,-x,z
-y,-x,-z
-x+y,y,-z
x,x-y,-z
-x,-y,-z
y,-x+y,-z
x-y,x,-z
y,x,z
x-y,-y,z
-x,-x+y,z
loop_
_atom_site_type_symbol
_atom_site_label
_atom_site_fract_x
_atom_site_fract_y
_atom_site_fract_z
Si Si1 0.585664 0.103168 0.632975
Si Si2 0.900343 0.678004 0.073627
Si Si3 0.273183 0.173297 0.410135
Si Si4 0.168552 0.499817 0.007102
Si Si5 0.445521 0.096159 0.195020
Si Si6 0.562967 0.897438 0.460998
Si Si7 0.181245 0.904981 0.230900
O O1 0.618754 0.133595 0.729490
O O2 0.517837 0.127564 0.599138
O O3 0.657215 0.129303 0.559021
O O4 0.536764 0.000000 0.636006
O O5 0.874046 0.579326 0.059929
O O6 0.875391 0.705456 0.163506
O O7 0.000000 0.733369 0.058915
O O8 0.846182 0.692363 0.000000
O O9 0.245107 0.122554 0.500000
O O10 0.223456 0.223456 0.396790
O O11 0.371812 0.243404 0.424205
O O12 0.259099 0.116295 0.326726
O O13 0.268366 0.536732 0.000000
O O14 0.144424 0.572212 0.000000
O O15 0.142688 0.463969 0.104108
O O16 0.363096 0.093274 0.233950
O O17 0.421242 0.000000 0.176290
O O18 0.615071 0.000000 0.463201
O O19 0.204996 0.000000 0.203302
#
# Coordination Sequence:
#
# PCOD9577755 Si02
#       7
#    12  12  12  12  12  12  12
#     4   8  14  27  50  79 114 148 186 238 294 353
#     4  11  22  40  64  90 119 155 201 261 319 371
#     4  11  22  36  56  85 120 158 202 253 315 380
#     4  11  23  40  60  86 124 165 200 240 300 369
#     4  10  19  34  57  85 112 149 199 249 300 358
#     4   8  15  29  49  78 113 149 185 233 294 354
#     4  11  22  39  62  86 117 157 207 260 318 379
#
# _framework density 18.838329999999999
#
# number of rings (size 3 to 8) (size 9 to 14) (size 15 to 20)
#    0.000    2.000    2.857    3.571    0.000    4.571 
#    0.000    1.429    0.000    8.571    0.000    0.000 
#   10.000    0.000    0.000    0.000    0.000    0.000 
#
# Total GULP energy -468320.465165 kJ/mol
# GULP energy per Si atom -5575.243633 kJ/mol
# Density = 1.879545 g / cm^3
# Si number density = 18.838330 Si / 1000 Ang^3
#
#
#
# Elastic Constant Matrix: (Units=GPa)
#
#
# Indices 1 2 3 4 5 6 
#
# 1 82.0740 26.2576 29.6311 -0.0002 -0.7797 0.0000
# 2 26.2576 82.0740 29.6311 0.0002 0.7797 0.0000
# 3 29.6311 29.6311 103.5944 0.0000 0.0000 0.0000
# 4 -0.0002 0.0002 0.0000 21.3797 0.0000 0.7797
# 5 -0.7797 0.7797 0.0000 0.0000 21.3797 -0.0002
# 6 0.0000 0.0000 0.0000 0.7797 -0.0002 27.9082
#
#
#
# Elastic Compliance Matrix: (Units=1/GPa)
#
#
# Indices 1 2 3 4 5 6 
#
# 1 0.014439 -0.003495 -0.003130 0.000000 0.000654 0.000000
# 2 -0.003495 0.014439 -0.003130 0.000000 -0.000654 0.000000
# 3 -0.003130 -0.003130 0.011444 0.000000 0.000000 0.000000
# 4 0.000000 0.000000 0.000000 0.046821 0.000000 -0.001308
# 5 0.000654 -0.000654 0.000000 0.000000 0.046821 0.000000
# 6 0.000000 0.000000 0.000000 -0.001308 0.000000 0.035868
#
#
# Mechanical properties :
#
#
# Convention : Reuss Voigt Hill
#
# Bulk Modulus (GPa) = 48.05451 48.75357 48.40404
# Shear Modulus (GPa) = 25.47393 26.28171 25.87782
#
# Velocity S-wave (km/s) = 3.68127 3.73918 3.71034
# Velocity P-wave (km/s) = 6.60555 6.67669 6.64121
#
# Compressibility (1/GPa) = 0.02080970
#
# Stress axis : x y z
#
# Youngs Moduli (GPa) = 69.25842 69.25842 87.38495
#
# Poissons Ratio (x) = 0.24209 0.27352
# Poissons Ratio (y) = 0.24209 0.27352
# Poissons Ratio (z) = 0.21678 0.21678
#
# Static dielectric constant tensor:
#      x y z
#    x 1.665350 0.000000 0.000000 
#    y 0.000000 1.665350 0.000000 
#    z 0.000000 0.000000 1.673520 
# 
# From -- ./inp_files/3189.got.cif
#   From: 2010.05.17/outbox.cif.g08.bks.cpg/sg162_2_cif.got.tgz:3189.got - 2010.05.20 10:53:12.
