data_PCOD9577418
_publ_section_title
;
Structure prediction by ZEFSAII (Michael W. Deem and Ramdas Pophale) SiO2 
 PCOD9577418
Probable space group: P 3 1 C
;
_chemical_formula_sum "Si O2"
_cell_formula_units_Z 40
_cell_length_a 15.279570
_cell_length_b 15.279570
_cell_length_c 7.763060
_cell_angle_alpha 90.000000
_cell_angle_beta 90.000000
_cell_angle_gamma 120.000000
_cell_volume 1569.588613
_symmetry_space_group_name_H-M "P 3 1 C"
_symmetry_group_IT_number 159
_symmetry_cell_setting 'hexagonal'
loop_
_space_group_symop_operation_xyz
x,y,z
-y,x-y,z
-x+y,-x,z
y,x,1/2+z
x-y,-y,1/2+z
-x,-x+y,1/2+z
loop_
_atom_site_type_symbol
_atom_site_label
_atom_site_fract_x
_atom_site_fract_y
_atom_site_fract_z
Si Si1 0.635719 0.504765 0.504800
Si Si2 0.666668 0.333334 0.964342
Si Si3 0.635717 0.130953 0.998340
Si Si4 0.411116 0.344329 0.625165
Si Si5 0.066784 0.411114 0.377972
Si Si6 0.147881 0.219109 0.060955
Si Si7 0.780892 0.852119 0.442183
Si Si8 0.666668 0.333334 0.538827
O O1 0.519188 0.416909 0.537362
O O2 0.638264 0.583461 0.369175
O O3 0.674590 0.563651 0.685933
O O4 0.912415 0.669391 0.529916
O O5 0.691129 0.248991 0.029360
O O6 0.666668 0.333334 0.751584
O O7 0.674592 0.110944 0.817204
O O8 0.519187 0.102278 0.965774
O O9 0.638262 0.054799 0.133960
O O10 0.557863 0.248995 0.473802
O O11 0.087582 0.330608 0.473222
O O12 0.185512 0.137806 0.053162
O O13 0.047705 0.185510 0.949976
O O14 0.110434 0.220867 0.251569
#
# Coordination Sequence:
#
# PCOD9577418 Si02
#       8
#     6   2   6   6   6   6   6   2
#     4  10  23  40  69 102 136 177 231 283 339 416
#     4  12  21  36  72  99 136 177 225 279 340 426
#     4  10  23  40  69 102 136 177 231 283 339 416
#     4  10  22  41  69  98 135 179 229 283 339 418
#     4  10  22  41  69  98 135 179 229 283 339 418
#     4  12  27  45  71 100 140 183 235 297 353 420
#     4  12  27  45  71 100 140 183 235 297 353 420
#     4  12  21  36  72  99 136 177 225 279 340 426
#
# _framework density 25.484385
#
# number of rings (size 3 to 8) (size 9 to 14) (size 15 to 20)
#    0.000    1.200    3.000    3.000    8.400    0.000 
#    0.000    0.000    6.600    5.400    0.000    0.000 
#    0.000    0.000    0.000    0.000    0.000    0.000 
#
# Total GULP energy -224086.813557 kJ/mol
# GULP energy per Si atom -5602.170339 kJ/mol
# Density = 2.542638 g / cm^3
# Si number density = 25.484385 Si / 1000 Ang^3
#
#
#
# Elastic Constant Matrix: (Units=GPa)
#
#
# Indices 1 2 3 4 5 6 
#
# 1 154.9487 59.9894 15.4948 -0.0001 -8.7741 -0.0002
# 2 59.9894 154.9481 15.4947 0.0000 8.7741 -0.0003
# 3 15.4948 15.4947 33.3719 0.0001 0.0000 0.0000
# 4 -0.0001 0.0000 0.0001 15.3249 -0.0001 8.7741
# 5 -8.7741 8.7741 0.0000 -0.0001 15.3250 0.0000
# 6 -0.0002 -0.0003 0.0000 8.7741 0.0000 47.4795
#
#
#
# Elastic Compliance Matrix: (Units=1/GPa)
#
#
# Indices 1 2 3 4 5 6 
#
# 1 0.008382 -0.003395 -0.002315 0.000000 0.006743 0.000000
# 2 -0.003395 0.008382 -0.002315 0.000000 -0.006743 0.000000
# 3 -0.002315 -0.002315 0.032115 0.000000 0.000000 0.000000
# 4 0.000000 0.000000 0.000000 0.072975 0.000001 -0.013486
# 5 0.006743 -0.006743 0.000000 0.000001 0.072974 0.000000
# 6 0.000000 0.000000 0.000000 -0.013486 0.000000 0.023554
#
#
# Mechanical properties :
#
#
# Convention : Reuss Voigt Hill
#
# Bulk Modulus (GPa) = 30.46260 58.35850 44.41055
# Shear Modulus (GPa) = 20.37705 32.44519 26.41112
#
# Velocity S-wave (km/s) = 2.83077 3.57198 3.22275
# Velocity P-wave (km/s) = 4.76064 6.32151 5.59577
#
# Compressibility (1/GPa) = 0.03282714
#
# Stress axis : x y z
#
# Youngs Moduli (GPa) = 119.30916 119.30886 31.13791
#
# Poissons Ratio (x) = 0.40509 0.07209
# Poissons Ratio (y) = 0.40509 0.07209
# Poissons Ratio (z) = 0.27622 0.27622
#
# Static dielectric constant tensor:
#      x y z
#    x 2.124490 0.000000 0.000000 
#    y 0.000000 2.124490 0.000000 
#    z 0.000000 0.000000 1.997530 
# 
# From -- ./inp_files/466.got.cif
#   From: 2010.05.17/outbox.cif.g08.bks.cpg/sg159_cif.got.tgz:466.got - 2010.05.20 10:50:30.
