data_PCOD9577791
_publ_section_title
;
Structure prediction by ZEFSAII (Michael W. Deem and Ramdas Pophale) SiO2 
 PCOD9577791
Probable space group: P -3 1 M 
;
_chemical_formula_sum "Si O2"
_cell_formula_units_Z 72
_cell_length_a 16.749770
_cell_length_b 16.749770
_cell_length_c 17.590399
_cell_angle_alpha 90.000000
_cell_angle_beta 90.000000
_cell_angle_gamma 120.000000
_cell_volume 4273.896670
_symmetry_space_group_name_H-M "P -3 1 M "
_symmetry_group_IT_number 162
_symmetry_cell_setting 'hexagonal'
loop_
_space_group_symop_operation_xyz
x,y,z
-y,x-y,z
-x+y,-x,z
-y,-x,-z
-x+y,y,-z
x,x-y,-z
-x,-y,-z
y,-x+y,-z
x-y,x,-z
y,x,z
x-y,-y,z
-x,-x+y,z
loop_
_atom_site_type_symbol
_atom_site_label
_atom_site_fract_x
_atom_site_fract_y
_atom_site_fract_z
Si Si1 0.478410 0.146535 0.333992
Si Si2 0.477711 0.332041 0.500000
Si Si3 0.895314 0.609580 0.827370
Si Si4 0.146535 0.478410 0.666008
Si Si5 0.111879 0.555940 0.913182
Si Si6 0.714266 0.104686 0.172630
O O1 0.433667 0.109866 0.417242
O O2 0.412603 0.105067 0.262065
O O3 0.510679 0.255340 0.332746
O O4 0.566169 0.132338 0.325893
O O5 0.569133 0.430868 0.500000
O O6 0.504214 0.252107 0.500000
O O7 0.433668 0.323802 0.417242
O O8 0.862451 0.512141 0.869581
O O9 0.820164 0.640329 0.841315
O O10 0.000000 0.680525 0.851212
O O11 0.105067 0.412603 0.737934
O O12 0.137549 0.487859 0.869581
O O13 0.000000 0.500000 0.913777
O O14 0.144699 0.572350 0.000000
O O15 0.680524 0.000000 0.148788
#
# Coordination Sequence:
#
# PCOD9577791 Si02
#       6
#    12  12  12  12  12  12
#     4   9  15  24  40  63  93 127 162 197 234 280
#     4   8  13  20  33  57  88 123 160 196 232 273
#     4  10  20  34  52  72  98 131 166 205 248 292
#     4   9  15  24  40  63  93 127 162 197 234 280
#     4   9  18  34  54  75 101 129 155 188 232 284
#     4  10  20  34  52  72  98 131 166 205 248 292
#
# _framework density 16.846454000000001
#
# number of rings (size 3 to 8) (size 9 to 14) (size 15 to 20)
#    0.000    2.833    1.667    0.500    0.000    3.333 
#    1.000    0.833    0.000    3.333    0.000    0.000 
#    0.000    0.000    0.000    8.333    0.000   19.667 
#
# Total GULP energy -400821.887893 kJ/mol
# GULP energy per Si atom -5566.970665 kJ/mol
# Density = 1.680811 g / cm^3
# Si number density = 16.846454 Si / 1000 Ang^3
#
#
#
# Elastic Constant Matrix: (Units=GPa)
#
#
# Indices 1 2 3 4 5 6 
#
# 1 58.2455 45.4027 13.9707 0.0000 0.0000 0.0000
# 2 45.4027 58.2455 13.9707 0.0000 0.0000 0.0000
# 3 13.9707 13.9707 95.8292 0.0000 0.0000 0.0000
# 4 0.0000 0.0000 0.0000 10.8525 0.0000 0.0000
# 5 0.0000 0.0000 0.0000 0.0000 10.8525 0.0000
# 6 0.0000 0.0000 0.0000 0.0000 0.0000 6.4214
#
#
#
# Elastic Compliance Matrix: (Units=1/GPa)
#
#
# Indices 1 2 3 4 5 6 
#
# 1 0.043954 -0.033911 -0.001464 0.000000 0.000000 0.000000
# 2 -0.033911 0.043954 -0.001464 0.000000 0.000000 0.000000
# 3 -0.001464 -0.001464 0.010862 0.000000 0.000000 0.000000
# 4 0.000000 0.000000 0.000000 0.092144 0.000000 0.000000
# 5 0.000000 0.000000 0.000000 0.000000 0.092144 0.000000
# 6 0.000000 0.000000 0.000000 0.000000 0.000000 0.155729
#
#
# Mechanical properties :
#
#
# Convention : Reuss Voigt Hill
#
# Bulk Modulus (GPa) = 39.85471 39.88983 39.87227
# Shear Modulus (GPa) = 9.60006 14.89036 12.24521
#
# Velocity S-wave (km/s) = 2.38976 2.97625 2.69898
# Velocity P-wave (km/s) = 5.59675 5.96160 5.78205
#
# Compressibility (1/GPa) = 0.02509114
#
# Stress axis : x y z
#
# Youngs Moduli (GPa) = 22.75121 22.75121 92.06298
#
# Poissons Ratio (x) = 0.77152 0.13479
# Poissons Ratio (y) = 0.77152 0.13479
# Poissons Ratio (z) = 0.03331 0.03331
#
# Static dielectric constant tensor:
#      x y z
#    x 1.570440 0.000000 0.000000 
#    y 0.000000 1.570440 0.000000 
#    z 0.000000 0.000000 1.629990 
# 
# From -- ./inp_files/3570.got.cif
#   From: 2010.05.17/outbox.cif.g08.bks.cpg/sg162_2_cif.got.tgz:3570.got - 2010.05.20 10:53:12.
