data_PCOD9577562
_publ_section_title
;
Structure prediction by ZEFSAII (Michael W. Deem and Ramdas Pophale) SiO2 
 PCOD9577562
Probable space group: R 3 C
;
_chemical_formula_sum "Si O2"
_cell_formula_units_Z 108
_cell_length_a 23.912072
_cell_length_b 23.912072
_cell_length_c 9.660763
_cell_angle_alpha 90.000000
_cell_angle_beta 90.000000
_cell_angle_gamma 120.000000
_cell_volume 4783.838164
_symmetry_space_group_name_H-M "R 3 C"
_symmetry_group_IT_number 161
_symmetry_cell_setting 'hexagonal'
loop_
_space_group_symop_operation_xyz
x,y,z
-y,x-y,z
-x+y,-x,z
-x+y,y,1/2+z
x,x-y,1/2+z
-y,-x,1/2+z
2/3+x,1/3+y,1/3+z
2/3-y,1/3+x-y,1/3+z
2/3-x+y,1/3-x,1/3+z
2/3-x+y,1/3+y,5/6+z
2/3+x,1/3+x-y,5/6+z
2/3-y,1/3-x,5/6+z
1/3+x,2/3+y,2/3+z
1/3-y,2/3+x-y,2/3+z
1/3-x+y,2/3-x,2/3+z
1/3-x+y,2/3+y,1/6+z
1/3+x,2/3+x-y,1/6+z
1/3-y,2/3-x,1/6+z
loop_
_atom_site_type_symbol
_atom_site_label
_atom_site_fract_x
_atom_site_fract_y
_atom_site_fract_z
Si Si1 0.923483 0.412984 0.324628
Si Si2 0.152354 0.566842 0.108242
Si Si3 0.123813 0.730407 0.726332
Si Si4 0.824282 0.470811 0.581403
Si Si5 0.365546 0.097582 0.816362
Si Si6 0.135133 0.129288 0.683433
O O1 0.953937 0.488840 0.341676
O O2 0.875863 0.399094 0.195212
O O3 0.874468 0.373192 0.450154
O O4 0.983961 0.404837 0.282212
O O5 0.081655 0.508586 0.148306
O O6 0.189259 0.613632 0.241668
O O7 0.157741 0.619543 0.995139
O O8 0.183462 0.535276 0.007163
O O9 0.158239 0.691221 0.783295
O O10 0.070274 0.678088 0.629759
O O11 0.093156 0.746011 0.854039
O O12 0.783767 0.396128 0.533088
#
# Coordination Sequence:
#
# PCOD9577562 Si02
#       6
#    18  18  18  18  18  18
#     4   9  21  43  65  93 140 189 226 285 368 420
#     4  11  23  39  73 106 134 185 238 295 348 443
#     4  10  22  40  61  93 135 176 227 288 344 418
#     4   9  20  42  65  94 136 180 221 290 362 416
#     4  11  24  40  64 100 135 185 239 287 346 436
#     4  10  22  42  70 102 144 181 229 297 368 419
#
# _framework density 22.576015999999999
#
# number of rings (size 3 to 8) (size 9 to 14) (size 15 to 20)
#    0.000    2.000    0.000    2.000    4.667    4.000 
#    7.000    0.000    7.333    0.000    0.000    0.000 
#    0.000    0.000    0.000    0.000    0.000    0.000 
#
# Total GULP energy -200423.597218 kJ/mol
# GULP energy per Si atom -5567.322145 kJ/mol
# Density = 2.252463 g / cm^3
# Si number density = 22.576016 Si / 1000 Ang^3
#
#
#
# Elastic Constant Matrix: (Units=GPa)
#
#
# Indices 1 2 3 4 5 6 
#
# 1 57.4237 34.5127 27.5845 -9.7800 0.0117 0.0016
# 2 34.5127 57.4485 27.5886 9.7833 0.0195 0.0006
# 3 27.5845 27.5886 73.7334 0.0051 0.0302 0.0027
# 4 -9.7800 9.7833 0.0051 31.6270 0.0042 0.0011
# 5 0.0117 0.0195 0.0302 0.0042 31.6474 -9.7769
# 6 0.0016 0.0006 0.0027 0.0011 -9.7769 11.4506
#
#
#
# Elastic Compliance Matrix: (Units=1/GPa)
#
#
# Indices 1 2 3 4 5 6 
#
# 1 0.036655 -0.022621 -0.005250 0.018333 0.000002 -0.000003
# 2 -0.022621 0.036636 -0.005244 -0.018327 -0.000007 -0.000002
# 3 -0.005250 -0.005244 0.017489 -0.000004 -0.000017 -0.000018
# 4 0.018333 -0.018327 -0.000004 0.042957 -0.000004 -0.000009
# 5 0.000002 -0.000007 -0.000017 -0.000004 0.042919 0.036646
# 6 -0.000003 -0.000002 -0.000018 -0.000009 0.036646 0.118621
#
#
# Mechanical properties :
#
#
# Convention : Reuss Voigt Hill
#
# Bulk Modulus (GPa) = 40.73515 40.88637 40.81076
# Shear Modulus (GPa) = 13.52485 21.53966 17.53226
#
# Velocity S-wave (km/s) = 2.45027 3.09219 2.78976
# Velocity P-wave (km/s) = 5.10762 5.55866 5.33791
#
# Compressibility (1/GPa) = 0.02454882
#
# Stress axis : x y z
#
# Youngs Moduli (GPa) = 27.28167 27.29535 57.18028
#
# Poissons Ratio (x) = 0.61746 0.30020
# Poissons Ratio (y) = 0.61715 0.29985
# Poissons Ratio (z) = 0.14323 0.14313
#
# Static dielectric constant tensor:
#      x y z
#    x 1.931610 0.000000 0.000000 
#    y 0.000000 1.931590 0.000020 
#    z 0.000000 0.000020 1.882590 
# 
# From -- ./inp_files/641.got.cif
#   From: 2010.05.17/outbox.cif.g08.bks.cpg/sg161_cif.got.tgz:641.got - 2010.05.20 10:52:32.
