data_PCOD9577454
_publ_section_title
;
Structure prediction by ZEFSAII (Michael W. Deem and Ramdas Pophale) SiO2 
 PCOD9577454
Probable space group: P 3 1 C
;
_chemical_formula_sum "Si O2"
_cell_formula_units_Z 34
_cell_length_a 14.194536
_cell_length_b 14.194536
_cell_length_c 7.749417
_cell_angle_alpha 90.000000
_cell_angle_beta 90.000000
_cell_angle_gamma 120.000000
_cell_volume 1352.203526
_symmetry_space_group_name_H-M "P 3 1 C"
_symmetry_group_IT_number 159
_symmetry_cell_setting 'hexagonal'
loop_
_space_group_symop_operation_xyz
x,y,z
-y,x-y,z
-x+y,-x,z
y,x,1/2+z
x-y,-y,1/2+z
-x,-x+y,1/2+z
loop_
_atom_site_type_symbol
_atom_site_label
_atom_site_fract_x
_atom_site_fract_y
_atom_site_fract_z
Si Si1 0.690999 0.939154 0.220750
Si Si2 0.563624 0.799485 0.553749
Si Si3 0.963686 0.365056 0.848604
Si Si4 0.666668 0.333334 0.973470
Si Si5 0.843831 0.700031 0.365067
Si Si6 0.666668 0.333335 0.564121
Si Si7 0.432577 0.527757 0.059033
O O1 0.639706 0.881310 0.403444
O O2 0.593919 0.957104 0.138351
O O3 0.812301 0.037533 0.272185
O O4 0.701738 0.867878 0.067687
O O5 0.570888 0.693594 0.500212
O O6 0.441750 0.771872 0.532307
O O7 0.596579 0.822778 0.750944
O O8 0.901252 0.378288 0.685992
O O9 0.031057 0.300472 0.835955
O O10 0.037450 0.490947 0.898383
O O11 0.666668 0.333334 0.770099
O O12 0.567399 0.348685 0.513354
#
# Coordination Sequence:
#
# PCOD9577454 Si02
#       7
#     6   6   6   2   6   2   6
#     4  12  25  47  71 100 146 193 244 306 360 436
#     4  12  25  46  70 105 148 194 245 302 365 434
#     4  12  24  43  68 105 142 188 244 301 362 436
#     4  12  24  42  69 103 156 207 241 294 360 445
#     4  12  27  43  71 107 136 192 246 299 365 433
#     4  12  21  42  67 102 138 199 231 282 361 432
#     4  12  24  41  68  96 148 193 237 294 357 424
#
# _framework density 25.144145999999999
#
# number of rings (size 3 to 8) (size 9 to 14) (size 15 to 20)
#    0.000    0.000    7.059    3.176    2.471    1.412 
#    0.000    1.765    0.000    0.706    4.588    0.000 
#    0.000    0.000    0.000    0.000    0.000    0.000 
#
# Total GULP energy -189747.597560 kJ/mol
# GULP energy per Si atom -5580.811693 kJ/mol
# Density = 2.508692 g / cm^3
# Si number density = 25.144146 Si / 1000 Ang^3
#
#
#
# Elastic Constant Matrix: (Units=GPa)
#
#
# Indices 1 2 3 4 5 6 
#
# 1 80.6286 15.3232 23.2520 0.0002 0.6421 0.0013
# 2 15.3232 80.6315 23.2518 0.0008 -0.6415 0.0012
# 3 23.2520 23.2518 117.0958 -0.0005 -0.0003 -0.0002
# 4 0.0002 0.0008 -0.0005 11.1862 0.0034 -0.6415
# 5 0.6421 -0.6415 -0.0003 0.0034 11.1823 0.0003
# 6 0.0013 0.0012 -0.0002 -0.6415 0.0003 32.6534
#
#
#
# Elastic Compliance Matrix: (Units=1/GPa)
#
#
# Indices 1 2 3 4 5 6 
#
# 1 0.013431 -0.001899 -0.002290 0.000000 -0.000880 0.000000
# 2 -0.001899 0.013430 -0.002290 -0.000001 0.000879 0.000000
# 3 -0.002290 -0.002290 0.009449 0.000001 0.000000 0.000000
# 4 0.000000 -0.000001 0.000001 0.089496 -0.000028 0.001758
# 5 -0.000880 0.000879 0.000000 -0.000028 0.089528 -0.000001
# 6 0.000000 0.000000 0.000000 0.001758 -0.000001 0.030659
#
#
# Mechanical properties :
#
#
# Convention : Reuss Voigt Hill
#
# Bulk Modulus (GPa) = 42.82086 44.66777 43.74431
# Shear Modulus (GPa) = 18.74510 25.43964 22.09237
#
# Velocity S-wave (km/s) = 2.73336 3.18426 2.96738
# Velocity P-wave (km/s) = 5.19892 5.59666 5.40145
#
# Compressibility (1/GPa) = 0.02335311
#
# Stress axis : x y z
#
# Youngs Moduli (GPa) = 74.45556 74.45854 105.82679
#
# Poissons Ratio (x) = 0.14140 0.24233
# Poissons Ratio (y) = 0.14139 0.24232
# Poissons Ratio (z) = 0.17050 0.17049
#
# Static dielectric constant tensor:
#      x y z
#    x 2.118390 0.000020 0.000000 
#    y 0.000020 2.118410 0.000000 
#    z 0.000000 0.000000 2.029510 
# 
# From -- ./inp_files/400.got.cif
#   From: 2010.05.17/outbox.cif.g08.bks.cpg/sg159_cif.got.tgz:400.got - 2010.05.20 10:50:30.
