data_PCOD9577874
_publ_section_title
;
Structure prediction by ZEFSAII (Michael W. Deem and Ramdas Pophale) SiO2 
 PCOD9577874
Probable space group: P -3 1 M 
;
_chemical_formula_sum "Si O2"
_cell_formula_units_Z 84
_cell_length_a 21.789259
_cell_length_b 21.789259
_cell_length_c 11.658376
_cell_angle_alpha 90.000000
_cell_angle_beta 90.000000
_cell_angle_gamma 120.000000
_cell_volume 4793.509715
_symmetry_space_group_name_H-M "P -3 1 M "
_symmetry_group_IT_number 162
_symmetry_cell_setting 'hexagonal'
loop_
_space_group_symop_operation_xyz
x,y,z
-y,x-y,z
-x+y,-x,z
-y,-x,-z
-x+y,y,-z
x,x-y,-z
-x,-y,-z
y,-x+y,-z
x-y,x,-z
y,x,z
x-y,-y,z
-x,-x+y,z
loop_
_atom_site_type_symbol
_atom_site_label
_atom_site_fract_x
_atom_site_fract_y
_atom_site_fract_z
Si Si1 0.833811 0.916543 0.628675
Si Si2 0.322519 0.405758 0.207005
Si Si3 0.285567 0.203822 0.750601
Si Si4 0.586807 0.789725 0.634220
Si Si5 0.292529 0.376122 0.950214
Si Si6 0.785746 0.298049 0.173600
Si Si7 0.626947 0.183721 0.120987
O O1 0.800444 0.900222 0.500000
O O2 0.870847 0.870847 0.646635
O O3 0.777997 0.903531 0.727330
O O4 0.891067 0.000000 0.626561
O O5 0.366298 0.366298 0.231541
O O6 0.270397 0.399289 0.309375
O O7 0.372639 0.488335 0.172479
O O8 0.280397 0.375085 0.086350
O O9 0.255112 0.255112 0.717616
O O10 0.347672 0.213091 0.668367
O O11 0.317327 0.226608 0.877572
O O12 0.575300 0.787650 0.500000
O O13 0.521894 0.783451 0.706933
O O14 0.355399 0.355399 0.935414
O O15 0.305315 0.451115 0.897640
O O16 0.709387 0.244702 0.116340
O O17 0.792496 0.373450 0.195187
O O18 0.586130 0.172260 0.000000
#
# Coordination Sequence:
#
# PCOD9577874 Si02
#       7
#    12  12  12  12  12  12  12
#     4   9  16  26  42  69 106 146 188 233 277 321
#     4  10  22  37  56  83 113 142 180 229 284 338
#     4   9  18  31  52  77 104 140 187 230 274 335
#     4  10  22  38  57  78 110 151 188 228 275 322
#     4   9  18  35  55  79 111 143 172 222 284 331
#     4  10  21  35  54  85 116 143 185 225 270 323
#     4  11  20  32  56  85 115 146 178 224 275 326
#
# _framework density 17.523696000000001
#
# number of rings (size 3 to 8) (size 9 to 14) (size 15 to 20)
#    0.000    2.286    1.429    1.286    2.000    4.286 
#    0.000    2.857    0.000    1.714    0.000    0.000 
#    0.000    0.000    0.000   19.286    0.000    2.857 
#
# Total GULP energy -467841.664956 kJ/mol
# GULP energy per Si atom -5569.543630 kJ/mol
# Density = 1.748381 g / cm^3
# Si number density = 17.523696 Si / 1000 Ang^3
#
#
#
# Elastic Constant Matrix: (Units=GPa)
#
#
# Indices 1 2 3 4 5 6 
#
# 1 85.3906 65.0809 56.6097 0.0000 4.4242 0.0000
# 2 65.0809 85.3906 56.6097 0.0000 -4.4242 0.0000
# 3 56.6097 56.6097 120.5642 0.0000 0.0000 0.0000
# 4 0.0000 0.0000 0.0000 12.4446 0.0000 -4.4242
# 5 4.4242 -4.4242 0.0000 0.0000 12.4446 0.0000
# 6 0.0000 0.0000 0.0000 -4.4242 0.0000 10.1549
#
#
#
# Elastic Compliance Matrix: (Units=1/GPa)
#
#
# Indices 1 2 3 4 5 6 
#
# 1 0.034269 -0.023993 -0.004825 0.000000 -0.020713 0.000000
# 2 -0.023993 0.034269 -0.004825 0.000000 0.020713 0.000000
# 3 -0.004825 -0.004825 0.012826 0.000000 0.000000 0.000000
# 4 0.000000 0.000000 0.000000 0.095083 0.000000 0.041425
# 5 -0.020713 0.020713 0.000000 0.000000 0.095083 0.000000
# 6 0.000000 0.000000 0.000000 0.041425 0.000000 0.116523
#
#
# Mechanical properties :
#
#
# Convention : Reuss Voigt Hill
#
# Bulk Modulus (GPa) = 71.03466 71.99401 71.51434
# Shear Modulus (GPa) = 10.86883 14.54515 12.70699
#
# Velocity S-wave (km/s) = 2.49316 2.88415 2.69575
# Velocity P-wave (km/s) = 6.99372 7.22939 7.11253
#
# Compressibility (1/GPa) = 0.01407763
#
# Stress axis : x y z
#
# Youngs Moduli (GPa) = 29.18094 29.18094 77.96924
#
# Poissons Ratio (x) = 0.70013 0.37622
# Poissons Ratio (y) = 0.70013 0.37622
# Poissons Ratio (z) = 0.14080 0.14080
#
# Static dielectric constant tensor:
#      x y z
#    x 1.620040 0.000000 0.000000 
#    y 0.000000 1.620040 0.000000 
#    z 0.000000 0.000000 1.610880 
# 
# From -- ./inp_files/2513.got.cif
#   From: 2010.05.17/outbox.cif.g08.bks.cpg/sg162_2_cif.got.tgz:2513.got - 2010.05.20 10:53:12.
