data_PCOD9577168
_publ_section_title
;
Structure prediction by ZEFSAII (Michael W. Deem and Ramdas Pophale) SiO2 
 PCOD9577168
Probable space group: R 3 2
;
_chemical_formula_sum "Si O2"
_cell_formula_units_Z 72
_cell_length_a 14.461851
_cell_length_b 14.461851
_cell_length_c 16.120339
_cell_angle_alpha 90.000000
_cell_angle_beta 90.000000
_cell_angle_gamma 120.000000
_cell_volume 2919.796392
_symmetry_space_group_name_H-M "R 3 2"
_symmetry_group_IT_number 155
_symmetry_cell_setting 'hexagonal'
loop_
_space_group_symop_operation_xyz
x,y,z
-y,x-y,z
-x+y,-x,z
x-y,-y,-z
-x,-x+y,-z
y,x,-z
2/3+x,1/3+y,1/3+z
2/3-y,1/3+x-y,1/3+z
2/3-x+y,1/3-x,1/3+z
2/3+x-y,1/3-y,1/3-z
2/3-x,1/3-x+y,1/3-z
2/3+y,1/3+x,1/3-z
1/3+x,2/3+y,2/3+z
1/3-y,2/3+x-y,2/3+z
1/3-x+y,2/3-x,2/3+z
1/3+x-y,2/3-y,2/3-z
1/3-x,2/3-x+y,2/3-z
1/3+y,2/3+x,2/3-z
loop_
_atom_site_type_symbol
_atom_site_label
_atom_site_fract_x
_atom_site_fract_y
_atom_site_fract_z
Si Si1 0.545235 0.767186 0.826951
Si Si2 0.550403 0.471174 0.924768
Si Si3 0.115259 0.215149 0.648825
Si Si4 0.214874 0.416049 0.561912
O O1 0.666667 0.794880 0.833334
O O2 0.536976 0.862914 0.784836
O O3 0.478202 0.655137 0.781476
O O4 0.508938 0.760236 0.923107
O O5 0.671332 0.495936 0.932050
O O6 0.478572 0.345344 0.941642
O O7 0.511693 0.508337 0.845110
O O8 0.534212 0.534212 0.000000
O O9 0.167635 0.343044 0.642631
#
# Coordination Sequence:
#
# PCOD9577168 Si02
#       4
#    18  18  18  18
#     4  12  25  44  68  99 140 184 232 283 347 416
#     4  12  23  44  72 105 135 182 231 286 364 408
#     4  12  25  44  73 102 142 179 230 296 347 420
#     4  12  27  44  72 102 140 186 238 286 352 419
#
# _framework density 24.659253
#
# number of rings (size 3 to 8) (size 9 to 14) (size 15 to 20)
#    0.000    0.000    5.000    5.500    0.000    0.000 
#    0.000    2.500    0.000    3.000    0.000    0.000 
#    0.000    0.000    0.000    0.000    0.000    0.000 
#
# Total GULP energy -134614.022980 kJ/mol
# GULP energy per Si atom -5608.917624 kJ/mol
# Density = 2.460313 g / cm^3
# Si number density = 24.659253 Si / 1000 Ang^3
#
#
#
# Elastic Constant Matrix: (Units=GPa)
#
#
# Indices 1 2 3 4 5 6 
#
# 1 88.8400 -19.1098 5.2251 -5.4910 0.0002 0.0000
# 2 -19.1098 88.8400 5.2251 5.4910 -0.0002 0.0000
# 3 5.2251 5.2251 60.6262 0.0000 0.0000 0.0000
# 4 -5.4910 5.4910 0.0000 17.0702 0.0000 -0.0002
# 5 0.0002 -0.0002 0.0000 0.0000 17.0702 -5.4910
# 6 0.0000 0.0000 0.0000 -0.0002 -5.4910 53.9749
#
#
#
# Elastic Compliance Matrix: (Units=1/GPa)
#
#
# Indices 1 2 3 4 5 6 
#
# 1 0.012053 0.002476 -0.001252 0.003081 0.000000 0.000000
# 2 0.002476 0.012053 -0.001252 -0.003081 0.000000 0.000000
# 3 -0.001252 -0.001252 0.016710 0.000000 0.000000 0.000000
# 4 0.003081 -0.003081 0.000000 0.060564 0.000000 0.000000
# 5 0.000000 0.000000 0.000000 0.000000 0.060564 0.006161
# 6 0.000000 0.000000 0.000000 0.000000 0.006161 0.019154
#
#
# Mechanical properties :
#
#
# Convention : Reuss Voigt Hill
#
# Bulk Modulus (GPa) = 24.53445 24.55411 24.54428
# Shear Modulus (GPa) = 25.67522 34.08746 29.88134
#
# Velocity S-wave (km/s) = 3.23026 3.72202 3.48482
# Velocity P-wave (km/s) = 4.88710 5.33387 5.11537
#
# Compressibility (1/GPa) = 0.04075902
#
# Stress axis : x y z
#
# Youngs Moduli (GPa) = 82.96828 82.96828 59.84319
#
# Poissons Ratio (x) = -0.20542 0.07493
# Poissons Ratio (y) = -0.20542 0.07493
# Poissons Ratio (z) = 0.10389 0.10389
#
# Static dielectric constant tensor:
#      x y z
#    x 1.877240 0.000000 0.000000 
#    y 0.000000 1.877240 0.000000 
#    z 0.000000 0.000000 2.040930 
# 
# From -- ./inp_files/5862.got.cif
#   From: 2010.05.17/outbox.cif.g08.bks.cpg/sg155_3_cif.got.tgz:5862.got - 2010.05.20 10:44:35.
