data_PCOD9577180
_publ_section_title
;
Structure prediction by ZEFSAII (Michael W. Deem and Ramdas Pophale) SiO2 
 PCOD9577180
Probable space group: R 3 2
;
_chemical_formula_sum "Si O2"
_cell_formula_units_Z 33
_cell_length_a 12.828978
_cell_length_b 12.828978
_cell_length_c 8.545507
_cell_angle_alpha 90.000000
_cell_angle_beta 90.000000
_cell_angle_gamma 120.000000
_cell_volume 1218.014860
_symmetry_space_group_name_H-M "R 3 2"
_symmetry_group_IT_number 155
_symmetry_cell_setting 'hexagonal'
loop_
_space_group_symop_operation_xyz
x,y,z
-y,x-y,z
-x+y,-x,z
x-y,-y,-z
-x,-x+y,-z
y,x,-z
2/3+x,1/3+y,1/3+z
2/3-y,1/3+x-y,1/3+z
2/3-x+y,1/3-x,1/3+z
2/3+x-y,1/3-y,1/3-z
2/3-x,1/3-x+y,1/3-z
2/3+y,1/3+x,1/3-z
1/3+x,2/3+y,2/3+z
1/3-y,2/3+x-y,2/3+z
1/3-x+y,2/3-x,2/3+z
1/3+x-y,2/3-y,2/3-z
1/3-x,2/3-x+y,2/3-z
1/3+y,2/3+x,2/3-z
loop_
_atom_site_type_symbol
_atom_site_label
_atom_site_fract_x
_atom_site_fract_y
_atom_site_fract_z
Si Si1 0.248574 0.056455 0.804139
Si Si2 0.000000 0.000000 0.684787
Si Si3 0.404635 0.333334 0.333334
O O1 0.333334 0.146080 0.666667
O O2 0.112452 0.988250 0.742268
O O3 0.311468 0.978135 0.833334
O O4 0.250450 0.135502 0.950334
O O5 0.000000 0.000000 0.500000
O O6 0.362473 0.362473 0.500000
#
# Coordination Sequence:
#
# PCOD9577180 Si02
#       3
#    18   6   9
#     4  12  32  57  97 140 203 257 331 418 500 587
#     4  12  33  61  95 148 199 263 346 412 494 619
#     4  12  30  58  98 148 194 268 338 408 504 606
#
# _framework density 27.093263
#
# number of rings (size 3 to 8) (size 9 to 14) (size 15 to 20)
#    0.000    0.000    2.727    1.636   22.909    2.182 
#    0.000    0.000    0.000    0.000    0.000    0.000 
#    0.000    0.000    0.000    0.000    0.000    0.000 
#
# Total GULP energy -61750.489838 kJ/mol
# GULP energy per Si atom -5613.680894 kJ/mol
# Density = 2.703160 g / cm^3
# Si number density = 27.093263 Si / 1000 Ang^3
#
#
#
# Elastic Constant Matrix: (Units=GPa)
#
#
# Indices 1 2 3 4 5 6 
#
# 1 202.0833 108.3727 109.6662 -2.5098 0.0001 0.0000
# 2 108.3727 202.0833 109.6662 2.5098 -0.0001 0.0000
# 3 109.6662 109.6662 265.4538 0.0000 0.0000 0.0000
# 4 -2.5098 2.5098 0.0000 63.2780 0.0000 -0.0001
# 5 0.0001 -0.0001 0.0000 0.0000 63.2780 -2.5098
# 6 0.0000 0.0000 0.0000 -0.0001 -2.5098 46.8553
#
#
#
# Elastic Compliance Matrix: (Units=1/GPa)
#
#
# Indices 1 2 3 4 5 6 
#
# 1 0.007621 -0.003073 -0.001879 0.000424 0.000000 0.000000
# 2 -0.003073 0.007621 -0.001879 -0.000424 0.000000 0.000000
# 3 -0.001879 -0.001879 0.005320 0.000000 0.000000 0.000000
# 4 0.000424 -0.000424 0.000000 0.015837 0.000000 0.000000
# 5 0.000000 0.000000 0.000000 0.000000 0.015837 0.000848
# 6 0.000000 0.000000 0.000000 0.000000 0.000848 0.021388
#
#
# Mechanical properties :
#
#
# Convention : Reuss Voigt Hill
#
# Bulk Modulus (GPa) = 144.91816 147.22562 146.07189
# Shear Modulus (GPa) = 55.81228 57.47663 56.64446
#
# Velocity S-wave (km/s) = 4.54365 4.61090 4.57740
# Velocity P-wave (km/s) = 9.00728 9.09975 9.05364
#
# Compressibility (1/GPa) = 0.00690045
#
# Stress axis : x y z
#
# Youngs Moduli (GPa) = 131.21160 131.21160 187.97636
#
# Poissons Ratio (x) = 0.40316 0.35324
# Poissons Ratio (y) = 0.40316 0.35324
# Poissons Ratio (z) = 0.24657 0.24657
#
# Static dielectric constant tensor:
#      x y z
#    x 2.097490 0.000000 0.000000 
#    y 0.000000 2.097490 0.000000 
#    z 0.000000 0.000000 2.241830 
# 
# From -- ./inp_files/1379.got.cif
#   From: 2010.05.17/outbox.cif.g08.bks.cpg/sg155_1_cif.got.tgz:1379.got - 2010.05.20 10:44:35.
