data_PCOD9577739
_publ_section_title
;
Structure prediction by ZEFSAII (Michael W. Deem and Ramdas Pophale) SiO2 
 PCOD9577739
Probable space group: P -3 1 M 
;
_chemical_formula_sum "Si O2"
_cell_formula_units_Z 84
_cell_length_a 21.097624
_cell_length_b 21.097624
_cell_length_c 11.883937
_cell_angle_alpha 90.000000
_cell_angle_beta 90.000000
_cell_angle_gamma 120.000000
_cell_volume 4580.976551
_symmetry_space_group_name_H-M "P -3 1 M "
_symmetry_group_IT_number 162
_symmetry_cell_setting 'hexagonal'
loop_
_space_group_symop_operation_xyz
x,y,z
-y,x-y,z
-x+y,-x,z
-y,-x,-z
-x+y,y,-z
x,x-y,-z
-x,-y,-z
y,-x+y,-z
x-y,x,-z
y,x,z
x-y,-y,z
-x,-x+y,z
loop_
_atom_site_type_symbol
_atom_site_label
_atom_site_fract_x
_atom_site_fract_y
_atom_site_fract_z
Si Si1 0.088009 0.514207 0.764619
Si Si2 0.689021 0.774612 0.729723
Si Si3 0.913119 0.578512 0.437741
Si Si4 0.811485 0.477910 0.036577
Si Si5 0.088589 0.435842 0.309945
Si Si6 0.640446 0.723385 0.984956
Si Si7 0.702723 0.787130 0.208684
O O1 0.092753 0.485699 0.641316
O O2 0.147966 0.507809 0.840737
O O3 0.108984 0.598530 0.754271
O O4 0.000000 0.463545 0.799575
O O5 0.744666 0.744666 0.710989
O O6 0.625555 0.738356 0.635878
O O7 0.655939 0.747555 0.855295
O O8 0.724772 0.861090 0.735764
O O9 0.882501 0.552423 0.561955
O O10 0.000000 0.633361 0.452144
O O11 0.861542 0.557578 0.983374
O O12 0.729904 0.459807 0.000000
O O13 0.819721 0.409861 0.000000
O O14 0.106475 0.378266 0.252424
O O15 0.000000 0.395225 0.313638
O O16 0.657924 0.657924 0.000285
O O17 0.693271 0.784555 0.073632
O O18 0.755867 0.755867 0.237148
#
# Coordination Sequence:
#
# PCOD9577739 Si02
#       7
#    12  12  12  12  12  12  12
#     4  10  19  34  55  80 105 135 178 225 271 321
#     4  10  19  33  54  78 107 144 184 226 275 333
#     4   9  17  31  52  78 106 135 172 218 268 321
#     4  12  24  36  51  73 106 146 181 218 262 321
#     4   9  18  32  52  80 109 135 170 221 273 322
#     4  10  20  35  55  80 105 134 177 229 281 328
#     4  10  20  33  51  78 112 144 177 225 279 329
#
# _framework density 18.336701000000001
#
# number of rings (size 3 to 8) (size 9 to 14) (size 15 to 20)
#    0.000    2.000    1.429    3.143    0.000    4.571 
#    0.000    0.000    0.000    0.286    0.000    0.000 
#    0.000    3.429    0.000    7.143    0.000    0.000 
#
# Total GULP energy -467703.598782 kJ/mol
# GULP energy per Si atom -5567.899985 kJ/mol
# Density = 1.829497 g / cm^3
# Si number density = 18.336701 Si / 1000 Ang^3
#
#
#
# Elastic Constant Matrix: (Units=GPa)
#
#
# Indices 1 2 3 4 5 6 
#
# 1 61.4364 29.6056 13.8335 -0.0002 5.4771 0.0000
# 2 29.6056 61.4364 13.8335 0.0002 -5.4771 0.0000
# 3 13.8335 13.8335 71.3274 0.0000 0.0000 0.0000
# 4 -0.0002 0.0002 0.0000 13.6694 0.0000 -5.4771
# 5 5.4771 -5.4771 0.0000 0.0000 13.6694 -0.0002
# 6 0.0000 0.0000 0.0000 -5.4771 -0.0002 15.9154
#
#
#
# Elastic Compliance Matrix: (Units=1/GPa)
#
#
# Indices 1 2 3 4 5 6 
#
# 1 0.024056 -0.012385 -0.002264 0.000000 -0.014601 0.000000
# 2 -0.012385 0.024056 -0.002264 0.000000 0.014601 0.000000
# 3 -0.002264 -0.002264 0.014898 0.000000 0.000000 0.000000
# 4 0.000000 0.000000 0.000000 0.084857 0.000000 0.029203
# 5 -0.014601 0.014601 0.000000 0.000000 0.084857 0.000001
# 6 0.000000 0.000000 0.000000 0.029203 0.000001 0.072882
#
#
# Mechanical properties :
#
#
# Convention : Reuss Voigt Hill
#
# Bulk Modulus (GPa) = 34.26194 34.30503 34.28348
# Shear Modulus (GPa) = 14.32005 17.77933 16.04969
#
# Velocity S-wave (km/s) = 2.79758 3.11722 2.96172
# Velocity P-wave (km/s) = 5.40007 5.63073 5.51660
#
# Compressibility (1/GPa) = 0.02918691
#
# Stress axis : x y z
#
# Youngs Moduli (GPa) = 41.56884 41.56884 67.12353
#
# Poissons Ratio (x) = 0.51481 0.15195
# Poissons Ratio (y) = 0.51481 0.15195
# Poissons Ratio (z) = 0.09410 0.09410
#
# Static dielectric constant tensor:
#      x y z
#    x 1.654940 0.000000 0.000000 
#    y 0.000000 1.654940 0.000000 
#    z 0.000000 0.000000 1.693050 
# 
# From -- ./inp_files/2518.got.cif
#   From: 2010.05.17/outbox.cif.g08.bks.cpg/sg162_2_cif.got.tgz:2518.got - 2010.05.20 10:53:12.
