data_PCOD9577395
_publ_section_title
;
Structure prediction by ZEFSAII (Michael W. Deem and Ramdas Pophale) SiO2 
 PCOD9577395
Probable space group: P 3 1 C
;
_chemical_formula_sum "Si O2"
_cell_formula_units_Z 30
_cell_length_a 8.835930
_cell_length_b 8.835930
_cell_length_c 22.230305
_cell_angle_alpha 90.000000
_cell_angle_beta 90.000000
_cell_angle_gamma 120.000000
_cell_volume 1503.074774
_symmetry_space_group_name_H-M "P 3 1 C"
_symmetry_group_IT_number 159
_symmetry_cell_setting 'hexagonal'
loop_
_space_group_symop_operation_xyz
x,y,z
-y,x-y,z
-x+y,-x,z
y,x,1/2+z
x-y,-y,1/2+z
-x,-x+y,1/2+z
loop_
_atom_site_type_symbol
_atom_site_label
_atom_site_fract_x
_atom_site_fract_y
_atom_site_fract_z
Si Si1 0.000625 0.677853 0.685290
Si Si2 0.998716 0.345012 0.636992
Si Si3 0.000346 0.345820 0.375704
Si Si4 0.482861 0.119934 0.006454
Si Si5 0.001493 0.678046 0.827514
O O1 0.000289 0.706954 0.756419
O O2 0.033959 0.518341 0.672245
O O3 0.815658 0.630084 0.656515
O O4 0.153148 0.851491 0.655084
O O5 0.016740 0.390788 0.566501
O O6 0.017587 0.391813 0.446177
O O7 0.184691 0.370470 0.354187
O O8 0.849964 0.152166 0.359548
O O9 0.964622 0.483625 0.340731
O O10 0.690299 0.183429 0.006764
#
# Coordination Sequence:
#
# PCOD9577395 Si02
#       5
#     6   6   6   6   6
#     4  12  24  43  66 102 139 179 226 275 336 407
#     4  12  25  43  72  98 137 182 222 282 339 397
#     4  12  25  43  72  98 137 182 222 282 339 397
#     4  10  20  46  72  94 134 174 226 282 340 406
#     4  12  24  43  66 102 139 179 226 275 336 407
#
# _framework density 19.959087
#
# number of rings (size 3 to 8) (size 9 to 14) (size 15 to 20)
#    0.400    0.000    4.000    6.000    0.000    3.200 
#    0.000    0.000    0.000    0.000    0.000    0.000 
#    0.000    0.000    0.000    0.000    0.000    0.000 
#
# Total GULP energy -167859.076941 kJ/mol
# GULP energy per Si atom -5595.302565 kJ/mol
# Density = 1.991366 g / cm^3
# Si number density = 19.959087 Si / 1000 Ang^3
#
#
#
# Elastic Constant Matrix: (Units=GPa)
#
#
# Indices 1 2 3 4 5 6 
#
# 1 55.9759 -15.9844 20.4789 0.0000 -3.4997 0.0000
# 2 -15.9844 55.9759 20.4789 0.0000 3.4997 0.0000
# 3 20.4789 20.4789 132.3649 0.0000 0.0000 0.0000
# 4 0.0000 0.0000 0.0000 -12.6179 0.0000 3.4997
# 5 -3.4997 3.4997 0.0000 0.0000 -12.6179 0.0000
# 6 0.0000 0.0000 0.0000 3.4997 0.0000 35.9801
#
#
#
# Elastic Compliance Matrix: (Units=1/GPa)
#
#
# Indices 1 2 3 4 5 6 
#
# 1 0.021623 0.008091 -0.004597 0.000000 -0.003753 0.000000
# 2 0.008091 0.021623 -0.004597 0.000000 0.003753 0.000000
# 3 -0.004597 -0.004597 0.008977 0.000000 0.000000 0.000000
# 4 0.000000 0.000000 0.000000 -0.077171 0.000000 0.007506
# 5 -0.003753 0.003753 0.000000 0.000000 -0.077171 0.000000
# 6 0.000000 0.000000 0.000000 0.007506 0.000000 0.027063
#
#
# Mechanical properties :
#
#
# Convention : Reuss Voigt Hill
#
# Bulk Modulus (GPa) = 19.99367 32.69596 26.34482
# Shear Modulus (GPa) = -89.00345 16.77176 -36.11585
#
# Velocity S-wave (km/s) = -6.68504 2.90195 -4.25843
# Velocity P-wave (km/s) = 7.03898 5.25790 3.30921
#
# Compressibility (1/GPa) = 0.05001582
#
# Stress axis : x y z
#
# Youngs Moduli (GPa) = 46.24810 46.24810 111.39110
#
# Poissons Ratio (x) = -0.37419 0.51208
# Poissons Ratio (y) = -0.37419 0.51208
# Poissons Ratio (z) = 0.21261 0.21261
#
# Static dielectric constant tensor:
#      x y z
#    x 1.707680 0.000000 0.000000 
#    y 0.000000 1.707680 0.000000 
#    z 0.000000 0.000000 1.671230 
# 
# From -- ./inp_files/1224.got.cif
#   From: 2010.05.17/outbox.cif.g08.bks.cpg/sg159_cif.got.tgz:1224.got - 2010.05.20 10:50:30.
