data_PCOD9577710
_publ_section_title
;
Structure prediction by ZEFSAII (Michael W. Deem and Ramdas Pophale) SiO2 
 PCOD9577710
Probable space group: P -3 1 M 
;
_chemical_formula_sum "Si O2"
_cell_formula_units_Z 96
_cell_length_a 15.809005
_cell_length_b 15.809005
_cell_length_c 25.640903
_cell_angle_alpha 90.000000
_cell_angle_beta 90.000000
_cell_angle_gamma 120.000000
_cell_volume 5549.744904
_symmetry_space_group_name_H-M "P -3 1 M "
_symmetry_group_IT_number 162
_symmetry_cell_setting 'hexagonal'
loop_
_space_group_symop_operation_xyz
x,y,z
-y,x-y,z
-x+y,-x,z
-y,-x,-z
-x+y,y,-z
x,x-y,-z
-x,-y,-z
y,-x+y,-z
x-y,x,-z
y,x,z
x-y,-y,z
-x,-x+y,z
loop_
_atom_site_type_symbol
_atom_site_label
_atom_site_fract_x
_atom_site_fract_y
_atom_site_fract_z
Si Si1 0.105462 0.816602 0.447231
Si Si2 0.767084 0.883473 0.944170
Si Si3 0.831524 0.494479 0.469837
Si Si4 0.111509 0.560195 0.371182
Si Si5 0.774169 0.203129 0.757642
Si Si6 0.570322 0.115407 0.247408
Si Si7 0.632193 0.744209 0.354164
Si Si8 0.236143 0.118287 0.827651
O O1 0.122916 0.877085 0.500000
O O2 0.111972 0.722903 0.467556
O O3 0.181562 0.866570 0.400880
O O4 0.000000 0.781254 0.424882
O O5 0.836338 0.836338 0.944862
O O6 0.720234 0.858582 0.886892
O O7 0.832897 0.000000 0.944405
O O8 0.711214 0.855607 0.000000
O O9 0.732525 0.465050 0.500000
O O10 0.879635 0.439818 0.500000
O O11 0.817875 0.461379 0.409970
O O12 0.126931 0.580720 0.310216
O O13 0.119454 0.464336 0.379260
O O14 0.000000 0.531479 0.383650
O O15 0.826735 0.318058 0.771354
O O16 0.657911 0.156159 0.768207
O O17 0.782762 0.182335 0.696073
O O18 0.826338 0.153525 0.788831
O O19 0.517492 0.000000 0.235447
O O20 0.697123 0.697123 0.334896
O O21 0.164569 0.164569 0.823374
O O22 0.174826 0.000000 0.819627
#
# Coordination Sequence:
#
# PCOD9577710 Si02
#       8
#    12  12  12  12  12  12  12  12
#     4  11  23  37  53  71  91 120 157 193 234 291
#     4   8  13  22  39  67 105 148 189 225 263 311
#     4  11  22  32  45  69  96 118 142 178 228 286
#     4   9  18  34  53  70  91 119 150 187 233 291
#     4  11  21  36  56  80 107 139 176 221 274 321
#     4  10  21  36  54  77 103 134 176 217 258 315
#     4  10  21  38  58  75  93 119 153 199 253 309
#     4  10  19  31  50  79 116 154 188 223 266 318
#
# _framework density 17.298093000000001
#
# number of rings (size 3 to 8) (size 9 to 14) (size 15 to 20)
#    0.000    2.000    0.000    5.875    0.000    6.500 
#    0.000    2.500    0.000    2.250    0.000    0.875 
#    0.000    5.000    0.000    0.000    0.000    0.000 
#
# Total GULP energy -535119.644895 kJ/mol
# GULP energy per Si atom -5574.162968 kJ/mol
# Density = 1.725872 g / cm^3
# Si number density = 17.298093 Si / 1000 Ang^3
#
#
#
# Elastic Constant Matrix: (Units=GPa)
#
#
# Indices 1 2 3 4 5 6 
#
# 1 86.1823 40.8049 30.2030 0.0000 -0.2141 0.0000
# 2 40.8049 86.1823 30.2030 0.0000 0.2141 0.0000
# 3 30.2030 30.2030 63.5470 0.0000 0.0000 0.0000
# 4 0.0000 0.0000 0.0000 13.4191 0.0000 0.2141
# 5 -0.2141 0.2141 0.0000 0.0000 13.4191 0.0000
# 6 0.0000 0.0000 0.0000 0.2141 0.0000 22.6887
#
#
#
# Elastic Compliance Matrix: (Units=1/GPa)
#
#
# Indices 1 2 3 4 5 6 
#
# 1 0.016108 -0.005933 -0.004836 0.000000 0.000352 0.000000
# 2 -0.005933 0.016108 -0.004836 0.000000 -0.000352 0.000000
# 3 -0.004836 -0.004836 0.020334 0.000000 0.000000 0.000000
# 4 0.000000 0.000000 0.000000 0.074532 0.000000 -0.000703
# 5 0.000352 -0.000352 0.000000 0.000000 0.074532 0.000000
# 6 0.000000 0.000000 0.000000 -0.000703 0.000000 0.044081
#
#
# Mechanical properties :
#
#
# Convention : Reuss Voigt Hill
#
# Bulk Modulus (GPa) = 46.86167 48.70373 47.78270
# Shear Modulus (GPa) = 17.60455 18.88545 18.24500
#
# Velocity S-wave (km/s) = 3.19363 3.30777 3.25120
# Velocity P-wave (km/s) = 6.38345 6.54256 6.46350
#
# Compressibility (1/GPa) = 0.02133940
#
# Stress axis : x y z
#
# Youngs Moduli (GPa) = 62.08092 62.08092 49.17988
#
# Poissons Ratio (x) = 0.36831 0.23784
# Poissons Ratio (y) = 0.36831 0.23784
# Poissons Ratio (z) = 0.30023 0.30023
#
# Static dielectric constant tensor:
#      x y z
#    x 1.609550 0.000000 0.000000 
#    y 0.000000 1.609550 0.000000 
#    z 0.000000 0.000000 1.614330 
# 
# From -- ./inp_files/4073.got.cif
#   From: 2010.05.17/outbox.cif.g08.bks.cpg/sg162_3_cif.got.tgz:4073.got - 2010.05.20 10:53:12.
