data_PCOD9577734
_publ_section_title
;
Structure prediction by ZEFSAII (Michael W. Deem and Ramdas Pophale) SiO2 
 PCOD9577734
Probable space group: P -3 1 M 
;
_chemical_formula_sum "Si O2"
_cell_formula_units_Z 72
_cell_length_a 22.708121
_cell_length_b 22.708121
_cell_length_c 8.577512
_cell_angle_alpha 90.000000
_cell_angle_beta 90.000000
_cell_angle_gamma 120.000000
_cell_volume 3830.490287
_symmetry_space_group_name_H-M "P -3 1 M "
_symmetry_group_IT_number 162
_symmetry_cell_setting 'hexagonal'
loop_
_space_group_symop_operation_xyz
x,y,z
-y,x-y,z
-x+y,-x,z
-y,-x,-z
-x+y,y,-z
x,x-y,-z
-x,-y,-z
y,-x+y,-z
x-y,x,-z
y,x,z
x-y,-y,z
-x,-x+y,z
loop_
_atom_site_type_symbol
_atom_site_label
_atom_site_fract_x
_atom_site_fract_y
_atom_site_fract_z
Si Si1 0.079804 0.235947 0.157004
Si Si2 0.082660 0.399522 0.829424
Si Si3 0.569499 0.486855 0.661884
Si Si4 0.204357 0.285999 0.347792
Si Si5 0.375956 0.459208 0.848337
Si Si6 0.350403 0.079113 0.337758
O O1 0.126713 0.236527 0.299032
O O2 0.081702 0.307222 0.190278
O O3 0.000000 0.179501 0.160867
O O4 0.116211 0.232422 0.000000
O O5 0.102936 0.456467 0.696088
O O6 0.104201 0.344488 0.784825
O O7 0.000000 0.355923 0.833812
O O8 0.105343 0.440962 0.989929
O O9 0.552949 0.447052 0.500000
O O10 0.528731 0.528731 0.657491
O O11 0.534827 0.432707 0.801940
O O12 0.241225 0.241225 0.349006
O O13 0.224879 0.327412 0.509750
O O14 0.417007 0.417007 0.851966
O O15 0.319132 0.427243 0.713024
O O16 0.322629 0.000000 0.371461
#
# Coordination Sequence:
#
# PCOD9577734 Si02
#       6
#    12  12  12  12  12  12
#     4  11  22  36  53  72  93 117 152 202 264 335
#     4   9  16  25  40  63  90 123 159 192 230 278
#     4   9  15  22  34  56  89 128 165 194 217 247
#     4  10  19  33  52  71  92 118 152 198 255 323
#     4   9  15  24  38  59  91 126 159 192 223 264
#     4   9  18  31  48  70  93 120 154 193 242 304
#
# _framework density 18.79655
#
# number of rings (size 3 to 8) (size 9 to 14) (size 15 to 20)
#    0.000    2.500    0.000    3.500    0.000    8.667 
#    0.000    0.833    0.000    3.000    0.000    0.000 
#    0.000   16.000    0.000    1.000    0.000   14.667 
#
# Total GULP energy -400909.683226 kJ/mol
# GULP energy per Si atom -5568.190045 kJ/mol
# Density = 1.875377 g / cm^3
# Si number density = 18.796550 Si / 1000 Ang^3
#
#
#
# Elastic Constant Matrix: (Units=GPa)
#
#
# Indices 1 2 3 4 5 6 
#
# 1 57.5966 21.3578 15.7413 0.0000 -4.4082 0.0000
# 2 21.3578 57.5966 15.7413 0.0000 4.4082 0.0000
# 3 15.7413 15.7413 82.1648 0.0000 0.0000 0.0000
# 4 0.0000 0.0000 0.0000 19.3460 0.0000 4.4082
# 5 -4.4082 4.4082 0.0000 0.0000 19.3460 0.0000
# 6 0.0000 0.0000 0.0000 4.4082 0.0000 18.1194
#
#
#
# Elastic Compliance Matrix: (Units=1/GPa)
#
#
# Indices 1 2 3 4 5 6 
#
# 1 0.021464 -0.007751 -0.002627 0.000000 0.006657 0.000000
# 2 -0.007751 0.021464 -0.002627 0.000000 -0.006657 0.000000
# 3 -0.002627 -0.002627 0.013177 0.000000 0.000000 0.000000
# 4 0.000000 0.000000 0.000000 0.054724 0.000000 -0.013314
# 5 0.006657 -0.006657 0.000000 0.000000 0.054724 0.000000
# 6 0.000000 0.000000 0.000000 -0.013314 0.000000 0.058428
#
#
# Mechanical properties :
#
#
# Convention : Reuss Voigt Hill
#
# Bulk Modulus (GPa) = 33.22833 33.67096 33.44965
# Shear Modulus (GPa) = 19.22914 20.99682 20.11298
#
# Velocity S-wave (km/s) = 3.20193 3.34587 3.27469
# Velocity P-wave (km/s) = 5.60233 5.73399 5.66854
#
# Compressibility (1/GPa) = 0.03009480
#
# Stress axis : x y z
#
# Youngs Moduli (GPa) = 46.59042 46.59042 75.88811
#
# Poissons Ratio (x) = 0.36110 0.19937
# Poissons Ratio (y) = 0.36110 0.19937
# Poissons Ratio (z) = 0.12240 0.12240
#
# Static dielectric constant tensor:
#      x y z
#    x 1.661860 0.000000 0.000000 
#    y 0.000000 1.661860 0.000000 
#    z 0.000000 0.000000 1.765780 
# 
# From -- ./inp_files/1714.got.cif
#   From: 2010.05.17/outbox.cif.g08.bks.cpg/sg162_1_cif.got.tgz:1714.got - 2010.05.20 10:53:12.
