data_PCOD9577891
_publ_section_title
;
Structure prediction by ZEFSAII (Michael W. Deem and Ramdas Pophale) SiO2 
 PCOD9577891
Probable space group: P -3 1 M 
;
_chemical_formula_sum "Si O2"
_cell_formula_units_Z 54
_cell_length_a 17.258434
_cell_length_b 17.258434
_cell_length_c 12.345428
_cell_angle_alpha 90.000000
_cell_angle_beta 90.000000
_cell_angle_gamma 120.000000
_cell_volume 3184.487546
_symmetry_space_group_name_H-M "P -3 1 M "
_symmetry_group_IT_number 162
_symmetry_cell_setting 'hexagonal'
loop_
_space_group_symop_operation_xyz
x,y,z
-y,x-y,z
-x+y,-x,z
-y,-x,-z
-x+y,y,-z
x,x-y,-z
-x,-y,-z
y,-x+y,-z
x-y,x,-z
y,x,z
x-y,-y,z
-x,-x+y,z
loop_
_atom_site_type_symbol
_atom_site_label
_atom_site_fract_x
_atom_site_fract_y
_atom_site_fract_z
Si Si1 0.280717 0.383010 0.000000
Si Si2 0.815306 0.000000 0.500000
Si Si3 0.337668 0.000000 0.377666
Si Si4 0.151106 0.483638 0.227304
Si Si5 0.337668 0.000000 0.622333
Si Si6 0.151106 0.483638 0.772695
O O1 0.304940 0.304940 1.000000
O O2 0.322392 0.442653 0.892827
O O3 0.175803 0.351605 0.000000
O O4 0.322392 0.442652 0.107174
O O5 0.822133 0.911067 0.500000
O O6 0.754881 0.000000 0.601068
O O7 0.754881 0.000000 0.398933
O O8 0.322733 0.913872 0.312107
O O9 0.370806 0.000000 0.499999
O O10 0.251992 0.503983 0.241892
O O11 0.144291 0.572145 0.239277
O O12 0.408861 0.086128 0.687891
#
# Coordination Sequence:
#
# PCOD9577891 Si02
#       6
#    12   6   6  12   6  12
#     4  10  21  37  59  86 115 148 192 236 288 346
#     4  10  21  40  63  86 110 140 188 242 293 336
#     4  10  23  38  58  79 115 153 193 230 280 345
#     4  11  22  37  58  85 117 152 192 238 284 336
#     4  10  23  38  58  79 115 153 193 230 280 345
#     4  11  22  37  58  85 117 152 192 238 284 336
#
# _framework density 16.957203
#
# number of rings (size 3 to 8) (size 9 to 14) (size 15 to 20)
#    0.667    0.889    2.222    3.222    0.000    2.667 
#    0.000    2.222    0.000    2.889    0.000    0.000 
#    0.000    0.000    0.000    0.000    0.000    0.000 
#
# Total GULP energy -301282.826401 kJ/mol
# GULP energy per Si atom -5579.311600 kJ/mol
# Density = 1.691861 g / cm^3
# Si number density = 16.957203 Si / 1000 Ang^3
#
#
#
# Elastic Constant Matrix: (Units=GPa)
#
#
# Indices 1 2 3 4 5 6 
#
# 1 146.6534 99.9589 53.4422 0.0000 0.0004 0.0000
# 2 99.9589 146.6534 53.4422 0.0000 -0.0004 0.0000
# 3 53.4422 53.4422 124.9896 0.0000 0.0000 0.0000
# 4 0.0000 0.0000 0.0000 7.8130 0.0000 -0.0004
# 5 0.0004 -0.0004 0.0000 0.0000 7.8130 0.0000
# 6 0.0000 0.0000 0.0000 -0.0004 0.0000 23.3472
#
#
#
# Elastic Compliance Matrix: (Units=1/GPa)
#
#
# Indices 1 2 3 4 5 6 
#
# 1 0.013197 -0.008219 -0.002128 0.000000 -0.000001 0.000000
# 2 -0.008219 0.013197 -0.002128 0.000000 0.000001 0.000000
# 3 -0.002128 -0.002128 0.009821 0.000000 0.000000 0.000000
# 4 0.000000 0.000000 0.000000 0.127992 0.000000 0.000002
# 5 -0.000001 0.000001 0.000000 0.000000 0.127992 0.000000
# 6 0.000000 0.000000 0.000000 0.000002 0.000000 0.042832
#
#
# Mechanical properties :
#
#
# Convention : Reuss Voigt Hill
#
# Bulk Modulus (GPa) = 88.79003 92.44257 90.61630
# Shear Modulus (GPa) = 13.74630 21.89151 17.81891
#
# Velocity S-wave (km/s) = 2.85027 3.59693 3.24515
# Velocity P-wave (km/s) = 7.95657 8.47845 8.22165
#
# Compressibility (1/GPa) = 0.01126253
#
# Stress axis : x y z
#
# Youngs Moduli (GPa) = 75.77727 75.77727 101.82712
#
# Poissons Ratio (x) = 0.62283 0.21671
# Poissons Ratio (y) = 0.62283 0.21671
# Poissons Ratio (z) = 0.16127 0.16127
#
# Static dielectric constant tensor:
#      x y z
#    x 1.551850 0.000000 0.000000 
#    y 0.000000 1.551850 0.000000 
#    z 0.000000 0.000000 1.564790 
# 
# From -- ./inp_files/2262.got.cif
#   From: 2010.05.17/outbox.cif.g08.bks.cpg/sg162_2_cif.got.tgz:2262.got - 2010.05.20 10:53:12.
