data_PCOD9577037
_publ_section_title
;
Structure prediction by ZEFSAII (Michael W. Deem and Ramdas Pophale) SiO2 
 PCOD9577037
Probable space group: R 3 2
;
_chemical_formula_sum "Si O2"
_cell_formula_units_Z 54
_cell_length_a 12.811568
_cell_length_b 12.811568
_cell_length_c 14.117527
_cell_angle_alpha 90.000000
_cell_angle_beta 90.000000
_cell_angle_gamma 120.000000
_cell_volume 2006.752584
_symmetry_space_group_name_H-M "R 3 2"
_symmetry_group_IT_number 155
_symmetry_cell_setting 'hexagonal'
loop_
_space_group_symop_operation_xyz
x,y,z
-y,x-y,z
-x+y,-x,z
x-y,-y,-z
-x,-x+y,-z
y,x,-z
2/3+x,1/3+y,1/3+z
2/3-y,1/3+x-y,1/3+z
2/3-x+y,1/3-x,1/3+z
2/3+x-y,1/3-y,1/3-z
2/3-x,1/3-x+y,1/3-z
2/3+y,1/3+x,1/3-z
1/3+x,2/3+y,2/3+z
1/3-y,2/3+x-y,2/3+z
1/3-x+y,2/3-x,2/3+z
1/3+x-y,2/3-y,2/3-z
1/3-x,2/3-x+y,2/3-z
1/3+y,2/3+x,2/3-z
loop_
_atom_site_type_symbol
_atom_site_label
_atom_site_fract_x
_atom_site_fract_y
_atom_site_fract_z
Si Si1 0.216583 0.441359 0.972549
Si Si2 0.000000 0.815594 0.000000
Si Si3 0.815594 0.000000 0.500000
Si Si4 0.216583 0.441359 0.472549
O O1 0.205027 0.311122 0.959915
O O2 0.254371 0.491609 0.080345
O O3 0.333333 0.532840 0.916667
O O4 0.107937 0.441270 0.916667
O O5 0.078962 0.903905 0.086321
O O6 0.688878 0.893905 0.459915
#
# Coordination Sequence:
#
# PCOD9577037 Si02
#       4
#    18   9   9  18
#     4  11  21  41  78 113 152 213 263 318 410 469
#     4  10  22  46  74 112 168 206 258 346 386 464
#     4  10  22  46  74 112 168 206 258 346 386 464
#     4  11  21  41  78 113 152 213 263 318 410 469
#
# _framework density 26.909147000000001
#
# number of rings (size 3 to 8) (size 9 to 14) (size 15 to 20)
#    0.000    1.333    6.667    0.667    0.000    2.667 
#    0.000    0.000   73.333    0.000    0.000    0.000 
#    0.000    0.000    0.000    0.000    0.000    0.000 
#
# Total GULP energy -100437.914542 kJ/mol
# GULP energy per Si atom -5579.884141 kJ/mol
# Density = 2.684790 g / cm^3
# Si number density = 26.909147 Si / 1000 Ang^3
#
#
#
# Elastic Constant Matrix: (Units=GPa)
#
#
# Indices 1 2 3 4 5 6 
#
# 1 103.7125 56.3649 40.1153 -30.4784 0.0000 0.0000
# 2 56.3649 103.7125 40.1153 30.4784 0.0000 0.0000
# 3 40.1153 40.1153 201.8683 0.0000 0.0000 0.0000
# 4 -30.4784 30.4784 0.0000 45.0721 0.0000 0.0000
# 5 0.0000 0.0000 0.0000 0.0000 45.0721 -30.4784
# 6 0.0000 0.0000 0.0000 0.0000 -30.4784 23.6738
#
#
#
# Elastic Compliance Matrix: (Units=1/GPa)
#
#
# Indices 1 2 3 4 5 6 
#
# 1 0.085063 -0.078125 -0.001379 0.110350 0.000000 0.000000
# 2 -0.078125 0.085063 -0.001379 -0.110350 0.000000 0.000000
# 3 -0.001379 -0.001379 0.005502 0.000000 0.000000 0.000000
# 4 0.110350 -0.110350 0.000000 0.171427 0.000000 0.000000
# 5 0.000000 0.000000 0.000000 0.000000 0.171427 0.220701
# 6 0.000000 0.000000 0.000000 0.000000 0.220701 0.326378
#
#
# Mechanical properties :
#
#
# Convention : Reuss Voigt Hill
#
# Bulk Modulus (GPa) = 72.13559 75.83162 73.98360
# Shear Modulus (GPa) = 4.94439 40.94346 22.94392
#
# Velocity S-wave (km/s) = 1.35699 3.90493 2.92317
# Velocity P-wave (km/s) = 5.41484 6.96944 6.24074
#
# Compressibility (1/GPa) = 0.01386278
#
# Stress axis : x y z
#
# Youngs Moduli (GPa) = 11.75594 11.75594 181.76248
#
# Poissons Ratio (x) = 0.91844 0.25060
# Poissons Ratio (y) = 0.91844 0.25060
# Poissons Ratio (z) = 0.01621 0.01621
#
# Static dielectric constant tensor:
#      x y z
#    x 2.211510 0.000000 0.000000 
#    y 0.000000 2.211510 0.000000 
#    z 0.000000 0.000000 2.294640 
# 
# From -- ./inp_files/4716.got.cif
#   From: 2010.05.17/outbox.cif.g08.bks.cpg/sg155_3_cif.got.tgz:4716.got - 2010.05.20 10:44:35.
