data_PCOD9577620
_publ_section_title
;
Structure prediction by ZEFSAII (Michael W. Deem and Ramdas Pophale) SiO2 
 PCOD9577620
Probable space group: R 3 C
;
_chemical_formula_sum "Si O2"
_cell_formula_units_Z 66
_cell_length_a 15.113369
_cell_length_b 15.113369
_cell_length_c 13.497638
_cell_angle_alpha 90.000000
_cell_angle_beta 90.000000
_cell_angle_gamma 120.000000
_cell_volume 2669.998271
_symmetry_space_group_name_H-M "R 3 C"
_symmetry_group_IT_number 161
_symmetry_cell_setting 'hexagonal'
loop_
_space_group_symop_operation_xyz
x,y,z
-y,x-y,z
-x+y,-x,z
-x+y,y,1/2+z
x,x-y,1/2+z
-y,-x,1/2+z
2/3+x,1/3+y,1/3+z
2/3-y,1/3+x-y,1/3+z
2/3-x+y,1/3-x,1/3+z
2/3-x+y,1/3+y,5/6+z
2/3+x,1/3+x-y,5/6+z
2/3-y,1/3-x,5/6+z
1/3+x,2/3+y,2/3+z
1/3-y,2/3+x-y,2/3+z
1/3-x+y,2/3-x,2/3+z
1/3-x+y,2/3+y,1/6+z
1/3+x,2/3+x-y,1/6+z
1/3-y,2/3-x,1/6+z
loop_
_atom_site_type_symbol
_atom_site_label
_atom_site_fract_x
_atom_site_fract_y
_atom_site_fract_z
Si Si1 0.803775 0.788345 0.406833
Si Si2 0.333333 0.666667 0.132991
Si Si3 0.103220 0.513090 0.445951
Si Si4 0.666668 0.333334 0.035703
Si Si5 0.917384 0.676249 0.413400
O O1 0.556323 0.648781 0.540923
O O2 0.747425 0.813858 0.320151
O O3 0.829164 0.701294 0.381563
O O4 0.745910 0.760837 0.509818
O O5 0.333334 0.666667 0.250848
O O6 0.439619 0.681333 0.093963
O O7 0.220159 0.576883 0.403680
O O8 0.027132 0.440527 0.360216
#
# Coordination Sequence:
#
# PCOD9577620 Si02
#       5
#    18   6  18   6  18
#     4  12  27  50  78 117 163 210 274 334 416 486
#     4  12  22  50  82 115 152 226 265 326 421 511
#     4  12  27  52  80 118 165 215 277 334 418 494
#     4  12  22  53  85 106 158 229 271 323 415 520
#     4  12  30  47  81 122 160 214 271 351 402 491
#
# _framework density 24.719118000000002
#
# number of rings (size 3 to 8) (size 9 to 14) (size 15 to 20)
#    0.000    0.000    8.182    0.000    7.636    0.000 
#    0.000    0.000    0.000    0.000    0.000    0.000 
#    0.000    0.000    0.000    0.000    0.000    0.000 
#
# Total GULP energy -123196.576833 kJ/mol
# GULP energy per Si atom -5599.844401 kJ/mol
# Density = 2.466286 g / cm^3
# Si number density = 24.719118 Si / 1000 Ang^3
#
#
#
# Elastic Constant Matrix: (Units=GPa)
#
#
# Indices 1 2 3 4 5 6 
#
# 1 74.8772 37.6569 39.4611 4.1464 0.0000 0.0000
# 2 37.6569 74.8772 39.4610 -4.1464 0.0000 0.0000
# 3 39.4611 39.4610 169.7213 0.0000 0.0000 0.0000
# 4 4.1464 -4.1464 0.0000 44.6930 0.0000 0.0000
# 5 0.0000 0.0000 0.0000 0.0000 44.6931 4.1464
# 6 0.0000 0.0000 0.0000 0.0000 4.1464 18.6101
#
#
#
# Elastic Compliance Matrix: (Units=1/GPa)
#
#
# Indices 1 2 3 4 5 6 
#
# 1 0.019026 -0.008408 -0.002469 -0.002545 0.000000 0.000000
# 2 -0.008408 0.019026 -0.002469 0.002545 0.000000 0.000000
# 3 -0.002469 -0.002469 0.007040 0.000000 0.000000 0.000000
# 4 -0.002545 0.002545 0.000000 0.022847 0.000000 0.000000
# 5 0.000000 0.000000 0.000000 0.000000 0.022847 -0.005090
# 6 0.000000 0.000000 0.000000 0.000000 -0.005090 0.054868
#
#
# Mechanical properties :
#
#
# Convention : Reuss Voigt Hill
#
# Bulk Modulus (GPa) = 54.34652 61.40373 57.87512
# Shear Modulus (GPa) = 28.01455 35.12569 31.57012
#
# Velocity S-wave (km/s) = 3.37013 3.77370 3.57761
# Velocity P-wave (km/s) = 6.09730 6.62437 6.36629
#
# Compressibility (1/GPa) = 0.01840044
#
# Stress axis : x y z
#
# Youngs Moduli (GPa) = 52.56022 52.56019 142.04657
#
# Poissons Ratio (x) = 0.44194 0.35066
# Poissons Ratio (y) = 0.44194 0.35066
# Poissons Ratio (z) = 0.12975 0.12975
#
# Static dielectric constant tensor:
#      x y z
#    x 1.967820 0.000000 0.000000 
#    y 0.000000 1.967820 0.000000 
#    z 0.000000 0.000000 1.894660 
# 
# From -- ./inp_files/1282.got.cif
#   From: 2010.05.17/outbox.cif.g08.bks.cpg/sg161_cif.got.tgz:1282.got - 2010.05.20 10:52:32.
