data_PCOD9577699
_publ_section_title
;
Structure prediction by ZEFSAII (Michael W. Deem and Ramdas Pophale) SiO2 
 PCOD9577699
Probable space group: P -3 1 M 
;
_chemical_formula_sum "Si O2"
_cell_formula_units_Z 72
_cell_length_a 16.947956
_cell_length_b 16.947956
_cell_length_c 17.046800
_cell_angle_alpha 90.000000
_cell_angle_beta 90.000000
_cell_angle_gamma 120.000000
_cell_volume 4240.412960
_symmetry_space_group_name_H-M "P -3 1 M "
_symmetry_group_IT_number 162
_symmetry_cell_setting 'hexagonal'
loop_
_space_group_symop_operation_xyz
x,y,z
-y,x-y,z
-x+y,-x,z
-y,-x,-z
-x+y,y,-z
x,x-y,-z
-x,-y,-z
y,-x+y,-z
x-y,x,-z
y,x,z
x-y,-y,z
-x,-x+y,z
loop_
_atom_site_type_symbol
_atom_site_label
_atom_site_fract_x
_atom_site_fract_y
_atom_site_fract_z
Si Si1 0.283284 0.383757 0.000000
Si Si2 0.104805 0.389353 0.674660
Si Si3 0.284548 0.389353 0.674660
Si Si4 0.110432 0.555216 0.589682
Si Si5 0.666923 0.515629 0.836678
Si Si6 0.848706 0.515629 0.836678
O O1 0.299180 0.299180 0.000000
O O2 0.327915 0.442241 0.078190
O O3 0.178970 0.357940 0.000000
O O4 0.327915 0.442241 0.921811
O O5 0.180250 0.360500 0.657427
O O6 0.135600 0.486648 0.633073
O O7 0.108616 0.410944 0.767378
O O8 0.000000 0.319139 0.652222
O O9 0.319139 0.319139 0.652222
O O10 0.351048 0.486648 0.633074
O O11 0.302328 0.410944 0.767378
O O12 0.142772 0.571386 0.500000
O O13 0.000000 0.500000 0.589349
O O14 0.741198 0.482396 0.836634
O O15 0.566942 0.433058 0.820648
#
# Coordination Sequence:
#
# PCOD9577699 Si02
#       6
#    12  12  12  12  12  12
#     4  10  21  33  47  68  93 125 162 202 245 289
#     4  10  20  34  53  75 102 136 172 211 254 300
#     4  10  20  34  53  75 102 136 172 211 254 300
#     4   9  18  34  54  75 101 131 163 202 248 300
#     4  10  19  31  48  71 100 132 165 200 240 289
#     4  10  19  31  48  71 100 132 165 200 240 289
#
# _framework density 16.979479000000001
#
# number of rings (size 3 to 8) (size 9 to 14) (size 15 to 20)
#    0.000    2.167    1.667    1.833    0.000    3.333 
#    1.000    1.667    0.000    0.500    0.000    0.000 
#    0.000    8.000    0.000    8.333    0.000    0.667 
#
# Total GULP energy -401537.373093 kJ/mol
# GULP energy per Si atom -5576.907960 kJ/mol
# Density = 1.694083 g / cm^3
# Si number density = 16.979479 Si / 1000 Ang^3
#
#
#
# Elastic Constant Matrix: (Units=GPa)
#
#
# Indices 1 2 3 4 5 6 
#
# 1 79.6595 55.7045 4.4517 0.0000 0.0000 0.0000
# 2 55.7045 79.6595 4.4517 0.0000 0.0000 0.0000
# 3 4.4517 4.4517 76.3476 0.0000 0.0000 0.0000
# 4 0.0000 0.0000 0.0000 12.4133 0.0000 0.0000
# 5 0.0000 0.0000 0.0000 0.0000 12.4133 0.0000
# 6 0.0000 0.0000 0.0000 0.0000 0.0000 11.9775
#
#
#
# Elastic Compliance Matrix: (Units=1/GPa)
#
#
# Indices 1 2 3 4 5 6 
#
# 1 0.024580 -0.017165 -0.000432 0.000000 0.000000 0.000000
# 2 -0.017165 0.024580 -0.000432 0.000000 0.000000 0.000000
# 3 -0.000432 -0.000432 0.013148 0.000000 0.000000 0.000000
# 4 0.000000 0.000000 0.000000 0.080559 0.000000 0.000000
# 5 0.000000 0.000000 0.000000 0.000000 0.080559 0.000000
# 6 0.000000 0.000000 0.000000 0.000000 0.000000 0.083490
#
#
# Mechanical properties :
#
#
# Convention : Reuss Voigt Hill
#
# Bulk Modulus (GPa) = 38.09430 40.54247 39.31839
# Shear Modulus (GPa) = 14.21563 18.76473 16.49018
#
# Velocity S-wave (km/s) = 2.89662 3.32797 3.11976
# Velocity P-wave (km/s) = 5.80271 6.22064 6.01531
#
# Compressibility (1/GPa) = 0.02625065
#
# Stress axis : x y z
#
# Youngs Moduli (GPa) = 40.68272 40.68272 76.05478
#
# Poissons Ratio (x) = 0.69830 0.03289
# Poissons Ratio (y) = 0.69830 0.03289
# Poissons Ratio (z) = 0.01759 0.01759
#
# Static dielectric constant tensor:
#      x y z
#    x 1.571330 0.000000 0.000000 
#    y 0.000000 1.571330 0.000000 
#    z 0.000000 0.000000 1.597350 
# 
# From -- ./inp_files/3590.got.cif
#   From: 2010.05.17/outbox.cif.g08.bks.cpg/sg162_2_cif.got.tgz:3590.got - 2010.05.20 10:53:12.
