data_PCOD9577365
_publ_section_title
;
Structure prediction by ZEFSAII (Michael W. Deem and Ramdas Pophale) SiO2 
 PCOD9577365
Probable space group: P 3 1 C
;
_chemical_formula_sum "Si O2"
_cell_formula_units_Z 34
_cell_length_a 11.192858
_cell_length_b 11.192858
_cell_length_c 14.402850
_cell_angle_alpha 90.000000
_cell_angle_beta 90.000000
_cell_angle_gamma 120.000000
_cell_volume 1562.647630
_symmetry_space_group_name_H-M "P 3 1 C"
_symmetry_group_IT_number 159
_symmetry_cell_setting 'hexagonal'
loop_
_space_group_symop_operation_xyz
x,y,z
-y,x-y,z
-x+y,-x,z
y,x,1/2+z
x-y,-y,1/2+z
-x,-x+y,1/2+z
loop_
_atom_site_type_symbol
_atom_site_label
_atom_site_fract_x
_atom_site_fract_y
_atom_site_fract_z
Si Si1 0.409315 0.064075 0.900900
Si Si2 0.105327 0.682053 0.494908
Si Si3 0.235820 0.741755 0.697196
Si Si4 0.023424 0.271918 0.220371
Si Si5 0.000000 0.000000 0.508253
Si Si6 0.000000 0.000000 0.234293
Si Si7 0.684711 0.828977 0.013387
O O1 0.558941 0.102829 0.937268
O O2 0.370613 0.174531 0.942005
O O3 0.396405 0.072758 0.791188
O O4 0.299386 0.913721 0.943024
O O5 0.192065 0.710710 0.589519
O O6 0.947398 0.642998 0.514906
O O7 0.186540 0.584857 0.726887
O O8 0.195226 0.855791 0.720548
O O9 0.056416 0.157523 0.259781
O O10 0.085137 0.314767 0.116785
O O11 0.000000 0.000000 0.621235
O O12 0.157163 0.071681 0.480288
#
# Coordination Sequence:
#
# PCOD9577365 Si02
#       7
#     6   6   6   6   2   2   6
#     4  12  26  43  70 101 133 187 234 283 363 419
#     4  12  22  46  71  94 140 184 234 287 348 437
#     4  10  19  40  73  92 127 185 234 267 341 420
#     4  11  23  41  65 107 134 172 236 289 351 412
#     4   9  15  37  68  97 124 161 214 277 347 391
#     4   9  21  37  62  94 136 167 211 286 353 391
#     4  11  22  42  69  99 136 172 225 295 341 414
#
# _framework density 21.757943000000001
#
# number of rings (size 3 to 8) (size 9 to 14) (size 15 to 20)
#    0.353    0.706    5.294    2.471    2.471    1.412 
#    7.412    0.000    0.000    0.000    0.000    0.000 
#    0.000    0.000    0.000    0.000    0.000    0.000 
#
# Total GULP energy -189414.254460 kJ/mol
# GULP energy per Si atom -5571.007484 kJ/mol
# Density = 2.170842 g / cm^3
# Si number density = 21.757943 Si / 1000 Ang^3
#
#
#
# Elastic Constant Matrix: (Units=GPa)
#
#
# Indices 1 2 3 4 5 6 
#
# 1 81.6109 14.7245 12.0389 0.0000 4.3861 0.0000
# 2 14.7245 81.6109 12.0389 0.0000 -4.3861 0.0000
# 3 12.0389 12.0389 51.9604 0.0000 0.0000 0.0000
# 4 0.0000 0.0000 0.0000 12.9992 0.0000 -4.3861
# 5 4.3861 -4.3861 0.0000 0.0000 12.9992 0.0000
# 6 0.0000 0.0000 0.0000 -4.3861 0.0000 33.4432
#
#
#
# Elastic Compliance Matrix: (Units=1/GPa)
#
#
# Indices 1 2 3 4 5 6 
#
# 1 0.013331 -0.002312 -0.002553 0.000000 -0.005278 0.000000
# 2 -0.002312 0.013331 -0.002553 0.000000 0.005278 0.000000
# 3 -0.002553 -0.002553 0.020428 0.000000 0.000000 0.000000
# 4 0.000000 0.000000 0.000000 0.080489 0.000000 0.010556
# 5 -0.005278 0.005278 0.000000 0.000000 0.080489 0.000000
# 6 0.000000 0.000000 0.000000 0.010556 0.000000 0.031286
#
#
# Mechanical properties :
#
#
# Convention : Reuss Voigt Hill
#
# Bulk Modulus (GPa) = 31.00416 32.53183 31.76800
# Shear Modulus (GPa) = 18.87206 23.64699 21.25952
#
# Velocity S-wave (km/s) = 2.94830 3.30027 3.12924
# Velocity P-wave (km/s) = 5.08630 5.43199 5.26199
#
# Compressibility (1/GPa) = 0.03225374
#
# Stress axis : x y z
#
# Youngs Moduli (GPa) = 75.01474 75.01474 48.95141
#
# Poissons Ratio (x) = 0.17345 0.12497
# Poissons Ratio (y) = 0.17345 0.12497
# Poissons Ratio (z) = 0.19151 0.19151
#
# Static dielectric constant tensor:
#      x y z
#    x 1.802840 0.000000 0.000000 
#    y 0.000000 1.802840 0.000000 
#    z 0.000000 0.000000 1.813310 
# 
# From -- ./inp_files/916.got.cif
#   From: 2010.05.17/outbox.cif.g08.bks.cpg/sg159_cif.got.tgz:916.got - 2010.05.20 10:50:30.
