data_PCOD9577793
_publ_section_title
;
Structure prediction by ZEFSAII (Michael W. Deem and Ramdas Pophale) SiO2 
 PCOD9577793
Probable space group: P -3 1 M 
;
_chemical_formula_sum "Si O2"
_cell_formula_units_Z 36
_cell_length_a 13.190317
_cell_length_b 13.190317
_cell_length_c 12.987085
_cell_angle_alpha 90.000000
_cell_angle_beta 90.000000
_cell_angle_gamma 120.000000
_cell_volume 1956.828571
_symmetry_space_group_name_H-M "P -3 1 M "
_symmetry_group_IT_number 162
_symmetry_cell_setting 'hexagonal'
loop_
_space_group_symop_operation_xyz
x,y,z
-y,x-y,z
-x+y,-x,z
-y,-x,-z
-x+y,y,-z
x,x-y,-z
-x,-y,-z
y,-x+y,-z
x-y,x,-z
y,x,z
x-y,-y,z
-x,-x+y,z
loop_
_atom_site_type_symbol
_atom_site_label
_atom_site_fract_x
_atom_site_fract_y
_atom_site_fract_z
Si Si1 0.296248 0.864427 0.202261
Si Si2 0.726702 0.863348 0.620785
Si Si3 0.496596 0.633020 0.899214
O O1 0.225769 0.845131 0.307873
O O2 0.206320 0.769095 0.123377
O O3 0.408961 0.846838 0.195786
O O4 0.347635 0.000000 0.171421
O O5 0.695077 0.847538 0.500000
O O6 0.779583 0.779583 0.648111
O O7 0.826404 0.000000 0.633376
O O8 0.587398 0.587398 0.909482
O O9 0.414587 0.585414 0.000000
#
# Coordination Sequence:
#
# PCOD9577793 Si02
#       3
#    12  12  12
#     4  10  20  34  54  79 106 139 182 229 273 323
#     4   9  17  31  53  82 116 152 188 226 270 322
#     4  10  20  34  53  77 107 142 179 224 278 332
#
# _framework density 18.397117000000001
#
# number of rings (size 3 to 8) (size 9 to 14) (size 15 to 20)
#    0.000    2.333    0.000    3.000    0.000    1.333 
#    0.000    3.333    0.000    8.667    0.000    0.000 
#    0.000   32.000    0.000    0.000    0.000    0.000 
#
# Total GULP energy -200576.769017 kJ/mol
# GULP energy per Si atom -5571.576917 kJ/mol
# Density = 1.835524 g / cm^3
# Si number density = 18.397117 Si / 1000 Ang^3
#
#
#
# Elastic Constant Matrix: (Units=GPa)
#
#
# Indices 1 2 3 4 5 6 
#
# 1 88.2009 40.3666 43.0392 0.0000 -3.2882 0.0000
# 2 40.3666 88.2009 43.0392 0.0000 3.2882 0.0000
# 3 43.0392 43.0392 74.8044 0.0000 0.0000 0.0000
# 4 0.0000 0.0000 0.0000 29.5514 0.0000 3.2882
# 5 -3.2882 3.2882 0.0000 0.0000 29.5514 0.0000
# 6 0.0000 0.0000 0.0000 3.2882 0.0000 23.9172
#
#
#
# Elastic Compliance Matrix: (Units=1/GPa)
#
#
# Indices 1 2 3 4 5 6 
#
# 1 0.016941 -0.004289 -0.007279 0.000000 0.002362 0.000000
# 2 -0.004289 0.016941 -0.007279 0.000000 -0.002362 0.000000
# 3 -0.007279 -0.007279 0.021744 0.000000 0.000000 0.000000
# 4 0.000000 0.000000 0.000000 0.034365 0.000000 -0.004725
# 5 0.002362 -0.002362 0.000000 0.000000 0.034365 0.000000
# 6 0.000000 0.000000 0.000000 -0.004725 0.000000 0.042461
#
#
# Mechanical properties :
#
#
# Convention : Reuss Voigt Hill
#
# Bulk Modulus (GPa) = 55.76961 56.01066 55.89014
# Shear Modulus (GPa) = 23.75418 24.92139 24.33779
#
# Velocity S-wave (km/s) = 3.59721 3.68453 3.64113
# Velocity P-wave (km/s) = 6.90169 6.97226 6.93707
#
# Compressibility (1/GPa) = 0.01793091
#
# Stress axis : x y z
#
# Youngs Moduli (GPa) = 59.02873 59.02873 45.98883
#
# Poissons Ratio (x) = 0.25320 0.33476
# Poissons Ratio (y) = 0.25320 0.33476
# Poissons Ratio (z) = 0.42968 0.42968
#
# Static dielectric constant tensor:
#      x y z
#    x 1.648900 0.000000 0.000000 
#    y 0.000000 1.648900 0.000000 
#    z 0.000000 0.000000 1.662120 
# 
# From -- ./inp_files/2720.got.cif
#   From: 2010.05.17/outbox.cif.g08.bks.cpg/sg162_2_cif.got.tgz:2720.got - 2010.05.20 10:53:12.
