data_PCOD9577144
_publ_section_title
;
Structure prediction by ZEFSAII (Michael W. Deem and Ramdas Pophale) SiO2 
 PCOD9577144
Probable space group: R 3 2
;
_chemical_formula_sum "Si O2"
_cell_formula_units_Z 69
_cell_length_a 21.842221
_cell_length_b 21.842221
_cell_length_c 7.520256
_cell_angle_alpha 90.000000
_cell_angle_beta 90.000000
_cell_angle_gamma 120.000000
_cell_volume 3107.111587
_symmetry_space_group_name_H-M "R 3 2"
_symmetry_group_IT_number 155
_symmetry_cell_setting 'hexagonal'
loop_
_space_group_symop_operation_xyz
x,y,z
-y,x-y,z
-x+y,-x,z
x-y,-y,-z
-x,-x+y,-z
y,x,-z
2/3+x,1/3+y,1/3+z
2/3-y,1/3+x-y,1/3+z
2/3-x+y,1/3-x,1/3+z
2/3+x-y,1/3-y,1/3-z
2/3-x,1/3-x+y,1/3-z
2/3+y,1/3+x,1/3-z
1/3+x,2/3+y,2/3+z
1/3-y,2/3+x-y,2/3+z
1/3-x+y,2/3-x,2/3+z
1/3+x-y,2/3-y,2/3-z
1/3-x,2/3-x+y,2/3-z
1/3+y,2/3+x,2/3-z
loop_
_atom_site_type_symbol
_atom_site_label
_atom_site_fract_x
_atom_site_fract_y
_atom_site_fract_z
Si Si1 0.234072 0.290946 0.156670
Si Si2 0.487456 0.541364 0.351055
Si Si3 0.000000 0.000000 0.282416
Si Si4 0.863727 0.008127 0.286559
Si Si5 0.666667 0.613373 0.833334
O O1 0.276257 0.333334 0.333334
O O2 0.169539 0.214409 0.213775
O O3 0.270625 0.270625 0.000000
O O4 0.211697 0.343868 0.073823
O O5 0.538037 0.538037 0.500000
O O6 0.421544 0.548147 0.421091
O O7 0.536900 0.602455 0.218024
O O8 0.926846 0.995511 0.225843
O O9 0.000000 0.000000 0.500000
O O10 0.858628 0.000000 0.500000
O O11 0.689245 0.666667 0.666667
#
# Coordination Sequence:
#
# PCOD9577144 Si02
#       5
#    18  18   6  18   9
#     4  12  26  46  73 113 155 197 251 317 396 461
#     4  12  26  46  75 109 149 195 253 314 389 464
#     4   9  24  45  70 104 139 198 256 299 377 446
#     4  11  24  44  71 106 146 197 246 313 375 454
#     4  12  28  50  72 104 144 202 254 314 380 454
#
# _framework density 22.207121000000001
#
# number of rings (size 3 to 8) (size 9 to 14) (size 15 to 20)
#    0.000    0.522    6.522    0.783    5.478    3.130 
#    0.000    1.304    0.000    0.000    0.000    0.000 
#    0.000    0.000    0.000    0.000    0.000    0.000 
#
# Total GULP energy -128703.617753 kJ/mol
# GULP energy per Si atom -5595.809468 kJ/mol
# Density = 2.215658 g / cm^3
# Si number density = 22.207121 Si / 1000 Ang^3
#
#
#
# Elastic Constant Matrix: (Units=GPa)
#
#
# Indices 1 2 3 4 5 6 
#
# 1 129.3273 62.6743 25.8482 9.1652 -0.0026 -0.0039
# 2 62.6743 129.3332 25.8346 -9.1640 -0.0167 0.0000
# 3 25.8482 25.8346 98.1763 0.0115 -0.0289 0.0006
# 4 9.1652 -9.1640 0.0115 22.6344 0.0080 0.0039
# 5 -0.0026 -0.0167 -0.0289 0.0080 22.6201 9.1636
# 6 -0.0039 0.0000 0.0006 0.0039 9.1636 33.3286
#
#
#
# Elastic Compliance Matrix: (Units=1/GPa)
#
#
# Indices 1 2 3 4 5 6 
#
# 1 0.011244 -0.005638 -0.001476 -0.006835 -0.000004 0.000003
# 2 -0.005638 0.011243 -0.001475 0.006836 0.000004 -0.000003
# 3 -0.001476 -0.001475 0.010962 -0.000005 0.000015 -0.000004
# 4 -0.006835 0.006836 -0.000005 0.049716 -0.000012 -0.000003
# 5 -0.000004 0.000004 0.000015 -0.000012 0.049750 -0.013679
# 6 0.000003 -0.000003 -0.000004 -0.000003 -0.013679 0.033765
#
#
# Mechanical properties :
#
#
# Convention : Reuss Voigt Hill
#
# Bulk Modulus (GPa) = 61.45705 65.06124 63.25914
# Shear Modulus (GPa) = 26.41546 31.88193 29.14869
#
# Velocity S-wave (km/s) = 3.45266 3.79312 3.62689
# Velocity P-wave (km/s) = 6.60523 6.96741 6.78873
#
# Compressibility (1/GPa) = 0.01627153
#
# Stress axis : x y z
#
# Youngs Moduli (GPa) = 88.93513 88.94191 91.22044
#
# Poissons Ratio (x) = 0.50149 0.13463
# Poissons Ratio (y) = 0.50145 0.13454
# Poissons Ratio (z) = 0.13126 0.13118
#
# Static dielectric constant tensor:
#      x y z
#    x 1.795560 0.000000 -0.000040 
#    y 0.000000 1.795560 -0.000010 
#    z -0.000040 -0.000010 1.912220 
# 
# From -- ./inp_files/2172.got.cif
#   From: 2010.05.17/outbox.cif.g08.bks.cpg/sg155_2_cif.got.tgz:2172.got - 2010.05.20 10:44:35.
