data_PCOD9577700
_publ_section_title
;
Structure prediction by ZEFSAII (Michael W. Deem and Ramdas Pophale) SiO2 
 PCOD9577700
Probable space group: P -3 1 M 
;
_chemical_formula_sum "Si O2"
_cell_formula_units_Z 72
_cell_length_a 23.959594
_cell_length_b 23.959594
_cell_length_c 8.630221
_cell_angle_alpha 90.000000
_cell_angle_beta 90.000000
_cell_angle_gamma 120.000000
_cell_volume 4290.535088
_symmetry_space_group_name_H-M "P -3 1 M "
_symmetry_group_IT_number 162
_symmetry_cell_setting 'hexagonal'
loop_
_space_group_symop_operation_xyz
x,y,z
-y,x-y,z
-x+y,-x,z
-y,-x,-z
-x+y,y,-z
x,x-y,-z
-x,-y,-z
y,-x+y,-z
x-y,x,-z
y,x,z
x-y,-y,z
-x,-x+y,z
loop_
_atom_site_type_symbol
_atom_site_label
_atom_site_fract_x
_atom_site_fract_y
_atom_site_fract_z
Si Si1 0.319266 0.392177 0.533311
Si Si2 0.074327 0.270430 0.067011
Si Si3 0.583754 0.856438 0.845515
Si Si4 0.810587 0.742414 0.434650
Si Si5 0.472616 0.199827 0.651173
Si Si6 0.210789 0.666943 0.050983
O O1 0.375914 0.375914 0.507986
O O2 0.318366 0.415489 0.708920
O O3 0.252218 0.324688 0.522370
O O4 0.310426 0.437873 0.413558
O O5 0.107070 0.348492 0.063615
O O6 0.069543 0.256084 0.249670
O O7 0.000000 0.232527 0.005742
O O8 0.126603 0.253206 0.000000
O O9 0.573185 0.792186 0.752550
O O10 0.523516 0.832243 0.959956
O O11 0.872596 0.745192 0.500000
O O12 0.798875 0.798875 0.492571
O O13 0.492002 0.246001 0.500000
O O14 0.528407 0.208468 0.767287
O O15 0.283830 0.716171 0.000000
O O16 0.191728 0.595864 0.000000
#
# Coordination Sequence:
#
# PCOD9577700 Si02
#       6
#    12  12  12  12  12  12
#     4   9  16  29  50  73  98 127 160 203 253 304
#     4  10  19  31  48  72 100 129 164 203 246 298
#     4   9  17  32  51  72 100 134 167 205 258 309
#     4   9  17  28  44  67  93 119 149 192 243 290
#     4   9  17  31  52  76 101 130 169 213 258 307
#     4  10  20  35  54  75 101 134 170 214 266 315
#
# _framework density 16.781123000000001
#
# number of rings (size 3 to 8) (size 9 to 14) (size 15 to 20)
#    0.000    2.667    0.000    5.667    0.000    0.667 
#    0.000   13.333    0.000    5.833    0.000    0.000 
#    0.000    0.000    0.000    0.000    0.000    0.000 
#
# Total GULP energy -400942.128837 kJ/mol
# GULP energy per Si atom -5568.640678 kJ/mol
# Density = 1.674293 g / cm^3
# Si number density = 16.781123 Si / 1000 Ang^3
#
#
#
# Elastic Constant Matrix: (Units=GPa)
#
#
# Indices 1 2 3 4 5 6 
#
# 1 78.1112 49.7668 46.1982 0.0001 3.4225 0.0000
# 2 49.7668 78.1112 46.1982 -0.0001 -3.4225 0.0000
# 3 46.1982 46.1982 68.3718 0.0000 0.0000 0.0000
# 4 0.0001 -0.0001 0.0000 10.2997 0.0000 -3.4225
# 5 3.4225 -3.4225 0.0000 0.0000 10.2997 0.0001
# 6 0.0000 0.0000 0.0000 -3.4225 0.0001 14.1722
#
#
#
# Elastic Compliance Matrix: (Units=1/GPa)
#
#
# Indices 1 2 3 4 5 6 
#
# 1 0.026819 -0.011539 -0.010324 0.000000 -0.012746 0.000000
# 2 -0.011539 0.026819 -0.010324 0.000000 0.012746 0.000000
# 3 -0.010324 -0.010324 0.028578 0.000000 0.000000 0.000000
# 4 0.000000 0.000000 0.000000 0.105560 0.000000 0.025492
# 5 -0.012746 0.012746 0.000000 0.000000 0.105560 -0.000001
# 6 0.000000 0.000000 0.000000 0.025492 -0.000001 0.076717
#
#
# Mechanical properties :
#
#
# Convention : Reuss Voigt Hill
#
# Bulk Modulus (GPa) = 56.05370 56.54671 56.30021
# Shear Modulus (GPa) = 11.35393 12.44974 11.90183
#
# Velocity S-wave (km/s) = 2.60396 2.72672 2.66604
# Velocity P-wave (km/s) = 6.52044 6.60932 6.56503
#
# Compressibility (1/GPa) = 0.01784003
#
# Stress axis : x y z
#
# Youngs Moduli (GPa) = 37.28697 37.28697 34.99201
#
# Poissons Ratio (x) = 0.43027 0.36127
# Poissons Ratio (y) = 0.43027 0.36127
# Poissons Ratio (z) = 0.38496 0.38496
#
# Static dielectric constant tensor:
#      x y z
#    x 1.577210 0.000000 0.000000 
#    y 0.000000 1.577210 0.000000 
#    z 0.000000 0.000000 1.587180 
# 
# From -- ./inp_files/1766.got.cif
#   From: 2010.05.17/outbox.cif.g08.bks.cpg/sg162_1_cif.got.tgz:1766.got - 2010.05.20 10:53:12.
