data_PCOD9577869
_publ_section_title
;
Structure prediction by ZEFSAII (Michael W. Deem and Ramdas Pophale) SiO2 
 PCOD9577869
Probable space group: P -3 1 M 
;
_chemical_formula_sum "Si O2"
_cell_formula_units_Z 84
_cell_length_a 17.749333
_cell_length_b 17.749333
_cell_length_c 16.831710
_cell_angle_alpha 90.000000
_cell_angle_beta 90.000000
_cell_angle_gamma 120.000000
_cell_volume 4592.222757
_symmetry_space_group_name_H-M "P -3 1 M "
_symmetry_group_IT_number 162
_symmetry_cell_setting 'hexagonal'
loop_
_space_group_symop_operation_xyz
x,y,z
-y,x-y,z
-x+y,-x,z
-y,-x,-z
-x+y,y,-z
x,x-y,-z
-x,-y,-z
y,-x+y,-z
x-y,x,-z
y,x,z
x-y,-y,z
-x,-x+y,z
loop_
_atom_site_type_symbol
_atom_site_label
_atom_site_fract_x
_atom_site_fract_y
_atom_site_fract_z
Si Si1 0.410965 0.898617 0.713857
Si Si2 0.901275 0.257200 0.534952
Si Si3 0.104633 0.895368 0.000000
Si Si4 0.390517 0.900112 0.131263
Si Si5 0.538059 0.641417 0.393704
Si Si6 0.181338 0.780766 0.297407
Si Si7 0.103506 0.787549 0.848050
Si Si8 0.779507 0.389754 0.000000
O O1 0.473147 0.893864 0.780589
O O2 0.442533 0.876209 0.631758
O O3 0.311112 0.834398 0.735318
O O4 0.436497 0.000000 0.711487
O O5 0.836559 0.163442 0.500000
O O6 0.882102 0.323608 0.483961
O O7 0.884562 0.252296 0.628226
O O8 0.000000 0.287237 0.518306
O O9 0.121003 0.851682 0.922074
O O10 0.000000 0.849964 0.009351
O O11 0.291238 0.878981 0.129589
O O12 0.448194 0.000000 0.104770
O O13 0.409442 0.839032 0.075987
O O14 0.599007 0.599007 0.376997
O O15 0.566060 0.725351 0.338640
O O16 0.168838 0.836617 0.229188
O O17 0.000000 0.741087 0.828875
O O18 0.713641 0.427281 0.000000
#
# Coordination Sequence:
#
# PCOD9577869 Si02
#       8
#    12  12   6  12  12  12  12   6
#     4  10  21  34  53  80 110 148 186 234 289 334
#     4   9  19  34  56  84 112 148 194 243 293 348
#     4  10  23  41  64  92 118 148 184 241 311 364
#     4  10  21  39  56  76 108 150 193 229 278 343
#     4   9  18  37  56  75 112 157 193 230 285 347
#     4  11  20  32  57  86 114 141 195 246 285 337
#     4  10  22  40  64  85 112 155 198 236 283 350
#     4  10  25  35  54  80 112 140 180 233 289 334
#
# _framework density 18.291796000000001
#
# number of rings (size 3 to 8) (size 9 to 14) (size 15 to 20)
#    0.143    2.000    1.429    1.143    3.000    2.286 
#    0.857    5.000    0.000    0.143    0.000    1.000 
#    0.000    0.000    0.000    0.000    0.000    0.000 
#
# Total GULP energy -468132.525195 kJ/mol
# GULP energy per Si atom -5573.006252 kJ/mol
# Density = 1.825016 g / cm^3
# Si number density = 18.291796 Si / 1000 Ang^3
#
#
#
# Elastic Constant Matrix: (Units=GPa)
#
#
# Indices 1 2 3 4 5 6 
#
# 1 76.4920 42.4449 54.4827 0.0000 2.9394 0.0000
# 2 42.4449 76.4920 54.4827 0.0000 -2.9394 0.0000
# 3 54.4827 54.4827 117.4269 0.0000 0.0000 0.0000
# 4 0.0000 0.0000 0.0000 32.1983 0.0000 -2.9394
# 5 2.9394 -2.9394 0.0000 0.0000 32.1983 0.0000
# 6 0.0000 0.0000 0.0000 -2.9394 0.0000 17.0235
#
#
#
# Elastic Compliance Matrix: (Units=1/GPa)
#
#
# Indices 1 2 3 4 5 6 
#
# 1 0.022233 -0.007609 -0.006785 0.000000 -0.002724 0.000000
# 2 -0.007609 0.022233 -0.006785 0.000000 0.002724 0.000000
# 3 -0.006785 -0.006785 0.014812 0.000000 0.000000 0.000000
# 4 0.000000 0.000000 0.000000 0.031555 0.000000 0.005449
# 5 -0.002724 0.002724 0.000000 0.000000 0.031555 0.000000
# 6 0.000000 0.000000 0.000000 0.005449 0.000000 0.059683
#
#
# Mechanical properties :
#
#
# Convention : Reuss Voigt Hill
#
# Bulk Modulus (GPa) = 59.10251 63.69238 61.39744
# Shear Modulus (GPa) = 21.73262 24.21738 22.97500
#
# Velocity S-wave (km/s) = 3.45063 3.64256 3.54789
# Velocity P-wave (km/s) = 6.94672 7.25167 7.10083
#
# Compressibility (1/GPa) = 0.01691975
#
# Stress axis : x y z
#
# Youngs Moduli (GPa) = 44.97854 44.97854 67.51193
#
# Poissons Ratio (x) = 0.34223 0.45808
# Poissons Ratio (y) = 0.34223 0.45808
# Poissons Ratio (z) = 0.30519 0.30519
#
# Static dielectric constant tensor:
#      x y z
#    x 1.631430 0.000000 0.000000 
#    y 0.000000 1.631430 0.000000 
#    z 0.000000 0.000000 1.676750 
# 
# From -- ./inp_files/3243.got.cif
#   From: 2010.05.17/outbox.cif.g08.bks.cpg/sg162_2_cif.got.tgz:3243.got - 2010.05.20 10:53:12.
