data_PCOD9577584
_publ_section_title
;
Structure prediction by ZEFSAII (Michael W. Deem and Ramdas Pophale) SiO2 
 PCOD9577584
Probable space group: R 3 C
;
_chemical_formula_sum "Si O2"
_cell_formula_units_Z 48
_cell_length_a 9.657393
_cell_length_b 9.657393
_cell_length_c 19.804768
_cell_angle_alpha 90.000000
_cell_angle_beta 90.000000
_cell_angle_gamma 120.000000
_cell_volume 1599.632433
_symmetry_space_group_name_H-M "R 3 C"
_symmetry_group_IT_number 161
_symmetry_cell_setting 'hexagonal'
loop_
_space_group_symop_operation_xyz
x,y,z
-y,x-y,z
-x+y,-x,z
-x+y,y,1/2+z
x,x-y,1/2+z
-y,-x,1/2+z
2/3+x,1/3+y,1/3+z
2/3-y,1/3+x-y,1/3+z
2/3-x+y,1/3-x,1/3+z
2/3-x+y,1/3+y,5/6+z
2/3+x,1/3+x-y,5/6+z
2/3-y,1/3-x,5/6+z
1/3+x,2/3+y,2/3+z
1/3-y,2/3+x-y,2/3+z
1/3-x+y,2/3-x,2/3+z
1/3-x+y,2/3+y,1/6+z
1/3+x,2/3+x-y,1/6+z
1/3-y,2/3-x,1/6+z
loop_
_atom_site_type_symbol
_atom_site_label
_atom_site_fract_x
_atom_site_fract_y
_atom_site_fract_z
Si Si1 0.925288 0.714140 0.042752
Si Si2 0.000000 0.000000 0.796025
Si Si3 0.558924 0.017201 0.592866
Si Si4 0.666668 0.333335 0.464913
O O1 0.735768 0.637133 0.058679
O O2 0.980025 0.580032 0.048991
O O3 0.006090 0.851561 0.098727
O O4 0.998154 0.795093 0.970536
O O5 0.916862 0.817076 0.814170
O O6 0.000000 0.000000 0.712478
#
# Coordination Sequence:
#
# PCOD9577584 Si02
#       4
#    18   6  18   6
#     4  11  25  47  75 112 151 203 253 315 378 455
#     4   9  21  45  70 104 151 201 243 309 376 455
#     4  10  23  44  72 105 151 196 248 305 376 443
#     4  12  27  48  79 113 151 198 258 315 382 449
#
# _framework density 30.006895
#
# number of rings (size 3 to 8) (size 9 to 14) (size 15 to 20)
#    0.000    1.500    0.000    5.250    0.000   15.000 
#    0.000    0.000    0.000    1.500    0.000    0.000 
#    0.000    0.000    0.000    0.000    0.000    0.000 
#
# Total GULP energy -89366.944271 kJ/mol
# GULP energy per Si atom -5585.434017 kJ/mol
# Density = 2.993860 g / cm^3
# Si number density = 30.006895 Si / 1000 Ang^3
#
#
#
# Elastic Constant Matrix: (Units=GPa)
#
#
# Indices 1 2 3 4 5 6 
#
# 1 147.6104 28.6391 46.7180 -21.0903 0.0000 0.0000
# 2 28.6391 147.6121 46.7181 21.0894 0.0000 0.0000
# 3 46.7180 46.7181 159.5352 -0.0001 0.0000 0.0000
# 4 -21.0903 21.0894 -0.0001 54.3652 0.0000 0.0000
# 5 0.0000 0.0000 0.0000 0.0000 54.3653 -21.0901
# 6 0.0000 0.0000 0.0000 0.0000 -21.0901 59.4865
#
#
#
# Elastic Compliance Matrix: (Units=1/GPa)
#
#
# Indices 1 2 3 4 5 6 
#
# 1 0.008231 -0.001515 -0.001967 0.003781 0.000000 0.000000
# 2 -0.001515 0.008231 -0.001967 -0.003781 0.000000 0.000000
# 3 -0.001967 -0.001967 0.007420 0.000000 0.000000 0.000000
# 4 0.003781 -0.003781 0.000000 0.021327 0.000000 0.000000
# 5 0.000000 0.000000 0.000000 0.000000 0.021327 0.007561
# 6 0.000000 0.000000 0.000000 0.000000 0.007561 0.019491
#
#
# Mechanical properties :
#
#
# Convention : Reuss Voigt Hill
#
# Bulk Modulus (GPa) = 77.00793 77.65647 77.33220
# Shear Modulus (GPa) = 49.38101 55.82221 52.60161
#
# Velocity S-wave (km/s) = 4.06107 4.31781 4.19141
# Velocity P-wave (km/s) = 6.90716 7.12697 7.01793
#
# Compressibility (1/GPa) = 0.01298568
#
# Stress axis : x y z
#
# Youngs Moduli (GPa) = 121.48985 121.49203 134.76841
#
# Poissons Ratio (x) = 0.18402 0.26507
# Poissons Ratio (y) = 0.18401 0.26506
# Poissons Ratio (z) = 0.23895 0.23895
#
# Static dielectric constant tensor:
#      x y z
#    x 2.461490 0.000000 0.000000 
#    y 0.000000 2.461480 0.000000 
#    z 0.000000 0.000000 2.354480 
# 
# From -- ./inp_files/1587.got.cif
#   From: 2010.05.17/outbox.cif.g08.bks.cpg/sg161_cif.got.tgz:1587.got - 2010.05.20 10:52:32.
