data_PCOD9577324
_publ_section_title
;
Structure prediction by ZEFSAII (Michael W. Deem and Ramdas Pophale) SiO2 
 PCOD9577324
Probable space group: P 3 C 1
;
_chemical_formula_sum "Si O2"
_cell_formula_units_Z 22
_cell_length_a 6.978442
_cell_length_b 6.978442
_cell_length_c 24.948656
_cell_angle_alpha 90.000000
_cell_angle_beta 90.000000
_cell_angle_gamma 120.000000
_cell_volume 1052.191364
_symmetry_space_group_name_H-M "P 3 C 1"
_symmetry_group_IT_number 158
_symmetry_cell_setting 'hexagonal'
loop_
_space_group_symop_operation_xyz
x,y,z
-y,x-y,z
-x+y,-x,z
-x+y,y,1/2+z
x,x-y,1/2+z
-y,-x,1/2+z
loop_
_atom_site_type_symbol
_atom_site_label
_atom_site_fract_x
_atom_site_fract_y
_atom_site_fract_z
Si Si1 0.273291 0.389903 0.432500
Si Si2 0.279203 0.888496 0.813805
Si Si3 0.000000 0.000000 0.131652
Si Si4 0.000000 0.000000 0.504815
Si Si5 0.388965 0.262804 0.205799
O O1 0.508530 0.616215 0.435954
O O2 0.258583 0.293188 0.372980
O O3 0.208900 0.214425 0.478979
O O4 0.110263 0.624189 0.811798
O O5 0.275533 0.021529 0.762554
O O6 0.983136 0.781082 0.157830
O O7 0.000000 0.000000 0.068260
O O8 0.495878 0.104249 0.202565
#
# Coordination Sequence:
#
# PCOD9577324 Si02
#       5
#     6   6   2   2   6
#     4   8  20  42  59  94 122 145 198 250 293 365
#     4   8  16  35  66  89 126 150 178 249 305 361
#     4  12  27  43  56  88 123 156 220 257 265 348
#     4  12  24  40  68  79 114 180 199 242 310 321
#     4  10  23  40  61  92 117 161 197 238 309 357
#
# _framework density 20.908746000000001
#
# number of rings (size 3 to 8) (size 9 to 14) (size 15 to 20)
#    1.636    1.091    0.000    1.636    0.000    8.727 
#    3.273    0.000    0.000    0.000    0.000    0.000 
#    0.000    0.000    0.000    0.000    0.000    0.000 
#
# Total GULP energy -122502.563229 kJ/mol
# GULP energy per Si atom -5568.298329 kJ/mol
# Density = 2.086116 g / cm^3
# Si number density = 20.908746 Si / 1000 Ang^3
#
#
#
# Elastic Constant Matrix: (Units=GPa)
#
#
# Indices 1 2 3 4 5 6 
#
# 1 59.9869 30.1908 57.3582 -13.2432 0.0000 0.0000
# 2 30.1908 59.9869 57.3582 13.2432 0.0000 0.0000
# 3 57.3582 57.3582 233.8540 0.0000 0.0000 0.0000
# 4 -13.2432 13.2432 0.0000 -12.7419 0.0000 0.0000
# 5 0.0000 0.0000 0.0000 0.0000 -12.7419 -13.2432
# 6 0.0000 0.0000 0.0000 0.0000 -13.2432 14.8980
#
#
#
# Elastic Compliance Matrix: (Units=1/GPa)
#
#
# Indices 1 2 3 4 5 6 
#
# 1 0.016782 -0.000663 -0.003953 -0.018131 0.000000 0.000000
# 2 -0.000663 0.016782 -0.003953 0.018131 0.000000 0.000000
# 3 -0.003953 -0.003953 0.006216 0.000000 0.000000 0.000000
# 4 -0.018131 0.018131 0.000000 -0.040793 0.000000 0.000000
# 5 0.000000 0.000000 0.000000 0.000000 -0.040793 -0.036262
# 6 0.000000 0.000000 0.000000 0.000000 -0.036262 0.034889
#
#
# Mechanical properties :
#
#
# Convention : Reuss Voigt Hill
#
# Bulk Modulus (GPa) = 44.17224 71.51579 57.84401
# Shear Modulus (GPa) = 281.40486 11.81088 146.60787
#
# Velocity S-wave (km/s) = 11.61376 2.37929 8.38273
# Velocity P-wave (km/s) = 14.17784 6.46731 11.01901
#
# Compressibility (1/GPa) = 0.02263865
#
# Stress axis : x y z
#
# Youngs Moduli (GPa) = 59.58939 59.58939 160.88794
#
# Poissons Ratio (x) = 0.03951 0.63606
# Poissons Ratio (y) = 0.03951 0.63606
# Poissons Ratio (z) = 0.23558 0.23558
#
# Static dielectric constant tensor:
#      x y z
#    x 1.817890 0.000000 0.000000 
#    y 0.000000 1.817890 0.000000 
#    z 0.000000 0.000000 1.682600 
# 
# From -- ./inp_files/595.got.cif
#   From: 2010.05.17/outbox.cif.g08.bks.cpg/sg158_cif.got.tgz:595.got - 2010.05.20 10:49:59.
