data_PCOD9577372
_publ_section_title
;
Structure prediction by ZEFSAII (Michael W. Deem and Ramdas Pophale) SiO2 
 PCOD9577372
Probable space group: P 3 1 C
;
_chemical_formula_sum "Si O2"
_cell_formula_units_Z 36
_cell_length_a 16.945314
_cell_length_b 16.945314
_cell_length_c 9.165436
_cell_angle_alpha 90.000000
_cell_angle_beta 90.000000
_cell_angle_gamma 120.000000
_cell_volume 2279.202972
_symmetry_space_group_name_H-M "P 3 1 C"
_symmetry_group_IT_number 159
_symmetry_cell_setting 'hexagonal'
loop_
_space_group_symop_operation_xyz
x,y,z
-y,x-y,z
-x+y,-x,z
y,x,1/2+z
x-y,-y,1/2+z
-x,-x+y,1/2+z
loop_
_atom_site_type_symbol
_atom_site_label
_atom_site_fract_x
_atom_site_fract_y
_atom_site_fract_z
Si Si1 0.906983 0.809814 0.699170
Si Si2 0.624751 0.720861 0.200446
Si Si3 0.244866 0.555607 0.699924
Si Si4 0.375249 0.096110 0.045468
Si Si5 0.244866 0.555607 0.045990
Si Si6 0.902831 0.093017 0.046744
O O1 0.824033 0.707324 0.675921
O O2 0.875208 0.875208 0.622957
O O3 1.000000 0.830035 0.622957
O O4 0.918900 0.827028 0.872957
O O5 0.655562 0.655562 0.122957
O O6 0.617149 0.704048 0.372957
O O7 0.530991 0.706350 0.135717
O O8 0.352236 0.592508 0.669945
O O9 0.175359 0.469009 0.610197
O O10 0.230098 0.537031 0.872957
O O11 0.292676 0.116709 0.069993
O O12 0.352236 0.592508 0.075969
#
# Coordination Sequence:
#
# PCOD9577372 Si02
#       6
#     6   6   6   6   6   6
#     4  10  20  33  49  71  99 133 170 209 253 301
#     4  10  20  33  52  77 104 135 172 211 254 301
#     4   8  17  34  55  76 100 132 166 204 254 302
#     4  10  20  33  52  77 104 135 172 211 254 301
#     4   8  17  34  55  76 100 132 166 204 254 302
#     4  10  20  33  49  71  99 133 170 209 253 301
#
# _framework density 15.794994000000001
#
# number of rings (size 3 to 8) (size 9 to 14) (size 15 to 20)
#    0.667    2.000    0.000    2.333    0.000    5.333 
#    0.000    1.667    0.000    4.000    0.000    0.000 
#    0.000    0.000    0.000    0.000    0.000    0.000 
#
# Total GULP energy -200485.862710 kJ/mol
# GULP energy per Si atom -5569.051742 kJ/mol
# Density = 1.575904 g / cm^3
# Si number density = 15.794994 Si / 1000 Ang^3
#
#
#
# Elastic Constant Matrix: (Units=GPa)
#
#
# Indices 1 2 3 4 5 6 
#
# 1 100.2041 73.5728 80.8303 0.0000 0.0000 0.0000
# 2 73.5728 100.2041 80.8303 0.0000 0.0000 0.0000
# 3 80.8303 80.8303 108.6064 0.0000 0.0000 0.0000
# 4 0.0000 0.0000 0.0000 32.7722 0.0000 0.0000
# 5 0.0000 0.0000 0.0000 0.0000 32.7722 0.0000
# 6 0.0000 0.0000 0.0000 0.0000 0.0000 13.3156
#
#
#
# Elastic Compliance Matrix: (Units=1/GPa)
#
#
# Indices 1 2 3 4 5 6 
#
# 1 0.028128 -0.009422 -0.013921 0.000000 0.000000 0.000000
# 2 -0.009422 0.028128 -0.013921 0.000000 0.000000 0.000000
# 3 -0.013921 -0.013921 0.029929 0.000000 0.000000 0.000000
# 4 0.000000 0.000000 0.000000 0.030514 0.000000 0.000000
# 5 0.000000 0.000000 0.000000 0.000000 0.030514 0.000000
# 6 0.000000 0.000000 0.000000 0.000000 0.000000 0.075100
#
#
# Mechanical properties :
#
#
# Convention : Reuss Voigt Hill
#
# Bulk Modulus (GPa) = 85.80371 86.60903 86.20637
# Shear Modulus (GPa) = 16.62642 20.69075 18.65859
#
# Velocity S-wave (km/s) = 3.24796 3.62326 3.44073
# Velocity P-wave (km/s) = 8.27689 8.51212 8.39533
#
# Compressibility (1/GPa) = 0.01165451
#
# Stress axis : x y z
#
# Youngs Moduli (GPa) = 35.55239 35.55239 33.41195
#
# Poissons Ratio (x) = 0.33499 0.46514
# Poissons Ratio (y) = 0.33499 0.46514
# Poissons Ratio (z) = 0.49494 0.49494
#
# Static dielectric constant tensor:
#      x y z
#    x 1.513730 0.000000 0.000000 
#    y 0.000000 1.513730 0.000000 
#    z 0.000000 0.000000 1.519090 
# 
# From -- ./inp_files/429.got.cif
#   From: 2010.05.17/outbox.cif.g08.bks.cpg/sg159_cif.got.tgz:429.got - 2010.05.20 10:50:30.
