data_PCOD9577251
_publ_section_title
;
Structure prediction by ZEFSAII (Michael W. Deem and Ramdas Pophale) SiO2 
 PCOD9577251
Probable space group: P 3 1 M
;
_chemical_formula_sum "Si O2"
_cell_formula_units_Z 42
_cell_length_a 14.632228
_cell_length_b 14.632228
_cell_length_c 12.787401
_cell_angle_alpha 90.000000
_cell_angle_beta 90.000000
_cell_angle_gamma 120.000000
_cell_volume 2371.012456
_symmetry_space_group_name_H-M "P 3 1 M"
_symmetry_group_IT_number 157
_symmetry_cell_setting 'hexagonal'
loop_
_space_group_symop_operation_xyz
x,y,z
-y,x-y,z
-x+y,-x,z
y,x,z
x-y,-y,z
-x,-x+y,z
loop_
_atom_site_type_symbol
_atom_site_label
_atom_site_fract_x
_atom_site_fract_y
_atom_site_fract_z
Si Si1 0.825948 0.582537 0.800570
Si Si2 0.873574 0.746105 0.991050
Si Si3 0.877651 0.754755 0.628690
Si Si4 0.626825 0.751873 0.198395
Si Si5 0.520285 0.114132 0.842212
Si Si6 0.124417 0.874707 0.384472
Si Si7 0.794310 0.352665 0.063831
O O1 0.848370 0.662076 0.897963
O O2 0.862035 0.658773 0.700893
O O3 0.876726 0.508892 0.819131
O O4 0.701361 0.499557 0.791613
O O5 0.812012 0.812012 0.975053
O O6 0.000000 0.823785 0.995746
O O7 0.829675 0.680731 0.099168
O O8 0.802291 0.802291 0.658423
O O9 0.858258 0.721814 0.506912
O O10 0.000000 0.846219 0.637518
O O11 0.686349 0.686349 0.206729
O O12 0.652899 0.817411 0.304933
O O13 0.507089 0.667246 0.168482
O O14 0.429538 0.000000 0.808385
O O15 0.508851 0.129323 0.966059
O O16 0.000000 0.812804 0.363580
O O17 0.171371 0.000000 0.366441
O O18 0.756005 0.437895 0.055252
#
# Coordination Sequence:
#
# PCOD9577251 Si02
#       7
#     6   6   6   6   6   6   6
#     4  12  23  37  54  82 109 141 189 233 276 333
#     4  11  21  33  50  79 117 149 174 210 270 339
#     4  10  20  36  58  85 116 149 184 225 275 335
#     4  10  19  33  54  79 109 144 182 224 271 325
#     4  12  21  35  56  77 108 147 185 231 279 322
#     4   9  18  33  56  82 112 147 184 222 266 327
#     4  10  19  35  54  76 104 137 184 231 271 325
#
# _framework density 17.713951999999999
#
# number of rings (size 3 to 8) (size 9 to 14) (size 15 to 20)
#    0.286    1.143    2.857    4.143    0.000    1.143 
#    0.000    5.000    3.143    0.000    0.000    0.000 
#    0.000    0.000    0.000    0.000    0.000    0.000 
#
# Total GULP energy -234045.101075 kJ/mol
# GULP energy per Si atom -5572.502407 kJ/mol
# Density = 1.767363 g / cm^3
# Si number density = 17.713952 Si / 1000 Ang^3
#
#
#
# Elastic Constant Matrix: (Units=GPa)
#
#
# Indices 1 2 3 4 5 6 
#
# 1 64.2366 15.2707 18.4533 0.0000 -2.7054 0.0000
# 2 15.2707 64.2366 18.4533 0.0000 2.7054 0.0000
# 3 18.4533 18.4533 56.8253 0.0000 0.0000 0.0000
# 4 0.0000 0.0000 0.0000 22.1447 0.0000 2.7054
# 5 -2.7054 2.7054 0.0000 0.0000 22.1447 0.0000
# 6 0.0000 0.0000 0.0000 2.7054 0.0000 24.4830
#
#
#
# Elastic Compliance Matrix: (Units=1/GPa)
#
#
# Indices 1 2 3 4 5 6 
#
# 1 0.017756 -0.002946 -0.004809 0.000000 0.002529 0.000000
# 2 -0.002946 0.017756 -0.004809 0.000000 -0.002529 0.000000
# 3 -0.004809 -0.004809 0.020721 0.000000 0.000000 0.000000
# 4 0.000000 0.000000 0.000000 0.045776 0.000000 -0.005058
# 5 0.002529 -0.002529 0.000000 0.000000 0.045776 0.000000
# 6 0.000000 0.000000 0.000000 -0.005058 0.000000 0.041404
#
#
# Mechanical properties :
#
#
# Convention : Reuss Voigt Hill
#
# Bulk Modulus (GPa) = 32.15037 32.18367 32.16702
# Shear Modulus (GPa) = 22.25338 22.62923 22.44130
#
# Velocity S-wave (km/s) = 3.54822 3.57806 3.56318
# Velocity P-wave (km/s) = 5.91402 5.93953 5.92679
#
# Compressibility (1/GPa) = 0.03110384
#
# Stress axis : x y z
#
# Youngs Moduli (GPa) = 56.31940 56.31940 48.25940
#
# Poissons Ratio (x) = 0.16591 0.23210
# Poissons Ratio (y) = 0.16591 0.23210
# Poissons Ratio (z) = 0.27086 0.27086
#
# Static dielectric constant tensor:
#      x y z
#    x 1.625780 0.000000 0.000000 
#    y 0.000000 1.625780 0.000000 
#    z 0.000000 0.000000 1.612390 
# 
# From -- ./inp_files/572.got.cif
#   From: 2010.05.17/outbox.cif.g08.bks.cpg/sg157_cif.got.tgz:572.got - 2010.05.20 10:49:36.
