data_PCOD9577074
_publ_section_title
;
Structure prediction by ZEFSAII (Michael W. Deem and Ramdas Pophale) SiO2 
 PCOD9577074
Probable space group: R 3 2
;
_chemical_formula_sum "Si O2"
_cell_formula_units_Z 63
_cell_length_a 18.644273
_cell_length_b 18.644273
_cell_length_c 8.562976
_cell_angle_alpha 90.000000
_cell_angle_beta 90.000000
_cell_angle_gamma 120.000000
_cell_volume 2577.782467
_symmetry_space_group_name_H-M "R 3 2"
_symmetry_group_IT_number 155
_symmetry_cell_setting 'hexagonal'
loop_
_space_group_symop_operation_xyz
x,y,z
-y,x-y,z
-x+y,-x,z
x-y,-y,-z
-x,-x+y,-z
y,x,-z
2/3+x,1/3+y,1/3+z
2/3-y,1/3+x-y,1/3+z
2/3-x+y,1/3-x,1/3+z
2/3+x-y,1/3-y,1/3-z
2/3-x,1/3-x+y,1/3-z
2/3+y,1/3+x,1/3-z
1/3+x,2/3+y,2/3+z
1/3-y,2/3+x-y,2/3+z
1/3-x+y,2/3-x,2/3+z
1/3+x-y,2/3-y,2/3-z
1/3-x,2/3-x+y,2/3-z
1/3+y,2/3+x,2/3-z
loop_
_atom_site_type_symbol
_atom_site_label
_atom_site_fract_x
_atom_site_fract_y
_atom_site_fract_z
Si Si1 0.612260 0.612260 0.000000
Si Si2 0.832508 0.379897 0.086663
Si Si3 0.833551 0.500218 0.833334
Si Si4 0.166748 0.666667 0.666667
Si Si5 0.143027 0.255943 0.749822
O O1 0.666667 0.639861 0.833334
O O2 0.524557 0.598920 0.945611
O O3 0.822349 0.418925 0.246014
O O4 0.788414 0.281005 0.082651
O O5 0.808844 0.425276 0.954183
O O6 0.916610 0.511179 0.750287
O O7 0.096246 0.624745 0.539466
O O8 0.142284 0.333334 0.833334
#
# Coordination Sequence:
#
# PCOD9577074 Si02
#       5
#     9  18   9   9  18
#     4  12  28  46  85 133 172 218 276 368 436 508
#     4  11  25  47  75 116 159 213 271 334 412 498
#     4  10  24  48  68 114 162 206 260 328 414 504
#     4  10  26  46  67 113 160 206 260 322 408 496
#     4  11  24  48  76 109 153 205 269 334 405 495
#
# _framework density 24.439609999999998
#
# number of rings (size 3 to 8) (size 9 to 14) (size 15 to 20)
#    0.000    1.143    0.000    4.286   12.000    0.000 
#   36.857    0.000    0.000    0.000    0.000    0.000 
#    0.000    0.000    0.000    0.000    0.000    0.000 
#
# Total GULP energy -117104.258083 kJ/mol
# GULP energy per Si atom -5576.393242 kJ/mol
# Density = 2.438398 g / cm^3
# Si number density = 24.439610 Si / 1000 Ang^3
#
#
#
# Elastic Constant Matrix: (Units=GPa)
#
#
# Indices 1 2 3 4 5 6 
#
# 1 121.5339 47.3211 51.5926 -7.5037 0.0001 0.0001
# 2 47.3211 121.5337 51.5917 7.5038 0.0001 -0.0001
# 3 51.5926 51.5917 158.0280 0.0008 0.0014 0.0004
# 4 -7.5037 7.5038 0.0008 31.2132 0.0005 0.0004
# 5 0.0001 0.0001 0.0014 0.0005 31.2136 -7.5036
# 6 0.0001 -0.0001 0.0004 0.0004 -7.5036 37.1064
#
#
#
# Elastic Compliance Matrix: (Units=1/GPa)
#
#
# Indices 1 2 3 4 5 6 
#
# 1 0.010781 -0.003383 -0.002415 0.003405 0.000000 0.000000
# 2 -0.003383 0.010781 -0.002415 -0.003405 0.000000 0.000000
# 3 -0.002415 -0.002415 0.007905 0.000000 0.000000 0.000000
# 4 0.003405 -0.003405 0.000000 0.033675 -0.000001 -0.000001
# 5 0.000000 0.000000 0.000000 -0.000001 0.033674 0.006810
# 6 0.000000 0.000000 0.000000 -0.000001 0.006810 0.028327
#
#
# Mechanical properties :
#
#
# Convention : Reuss Voigt Hill
#
# Bulk Modulus (GPa) = 76.68601 78.01181 77.34891
# Shear Modulus (GPa) = 34.26643 36.61268 35.43956
#
# Velocity S-wave (km/s) = 3.74851 3.87471 3.81213
# Velocity P-wave (km/s) = 7.08385 7.21162 7.14802
#
# Compressibility (1/GPa) = 0.01304019
#
# Stress axis : x y z
#
# Youngs Moduli (GPa) = 92.75748 92.75806 126.50093
#
# Poissons Ratio (x) = 0.31376 0.30555
# Poissons Ratio (y) = 0.31376 0.30553
# Poissons Ratio (z) = 0.22405 0.22403
#
# Static dielectric constant tensor:
#      x y z
#    x 2.024380 0.000000 0.000000 
#    y 0.000000 2.024380 0.000000 
#    z 0.000000 0.000000 2.073770 
# 
# From -- ./inp_files/2069.got.cif
#   From: 2010.05.17/outbox.cif.g08.bks.cpg/sg155_2_cif.got.tgz:2069.got - 2010.05.20 10:44:35.
