data_PCOD9577373
_publ_section_title
;
Structure prediction by ZEFSAII (Michael W. Deem and Ramdas Pophale) SiO2 
 PCOD9577373
Probable space group: P 3 1 C
;
_chemical_formula_sum "Si O2"
_cell_formula_units_Z 48
_cell_length_a 19.006818
_cell_length_b 19.006818
_cell_length_c 8.930129
_cell_angle_alpha 90.000000
_cell_angle_beta 90.000000
_cell_angle_gamma 120.000000
_cell_volume 2793.876447
_symmetry_space_group_name_H-M "P 3 1 C"
_symmetry_group_IT_number 159
_symmetry_cell_setting 'hexagonal'
loop_
_space_group_symop_operation_xyz
x,y,z
-y,x-y,z
-x+y,-x,z
y,x,1/2+z
x-y,-y,1/2+z
-x,-x+y,1/2+z
loop_
_atom_site_type_symbol
_atom_site_label
_atom_site_fract_x
_atom_site_fract_y
_atom_site_fract_z
Si Si1 0.760294 0.672403 0.007090
Si Si2 0.327597 0.239707 0.149630
Si Si3 0.335074 0.817178 0.149912
Si Si4 0.182821 0.664925 0.649911
Si Si5 0.760294 0.087891 0.507090
Si Si6 0.335073 0.817178 0.506809
Si Si7 0.182821 0.664925 0.006809
Si Si8 0.087891 0.327597 0.149630
O O1 0.845266 0.690532 0.078360
O O2 0.726493 0.726493 0.078360
O O3 0.697317 0.576895 0.037729
O O4 0.768310 0.683005 0.828360
O O5 0.423105 0.302683 0.118990
O O6 0.316996 0.231690 0.328360
O O7 0.273507 0.273507 0.078360
O O8 0.337536 0.808168 0.328360
O O9 0.268329 0.731671 0.078357
O O10 0.421550 0.843099 0.078363
O O11 0.302683 0.879578 0.118991
O O12 0.268329 0.731671 0.578363
O O13 0.156901 0.578450 0.578357
O O14 0.191828 0.662459 0.828360
O O15 0.697317 0.120422 0.537730
O O16 0.845266 0.154734 0.578360
#
# Coordination Sequence:
#
# PCOD9577373 Si02
#       8
#     6   6   6   6   6   6   6   6
#     4  10  21  37  57  80 106 137 173 214 261 313
#     4  10  21  37  57  80 106 137 173 214 261 313
#     4  10  20  33  50  73 104 142 182 222 262 305
#     4  10  20  33  50  73 104 142 182 222 262 305
#     4  10  21  37  57  80 106 137 173 214 261 313
#     4  10  20  33  50  73 104 142 182 222 262 305
#     4  10  20  33  50  73 104 142 182 222 262 305
#     4  10  21  37  57  80 106 137 173 214 261 313
#
# _framework density 17.180430000000001
#
# number of rings (size 3 to 8) (size 9 to 14) (size 15 to 20)
#    0.000    2.000    0.000    3.500    0.000    7.000 
#    0.000    5.000    0.000    0.500    0.000    3.500 
#    0.000    0.000    0.000    0.000    0.000    0.000 
#
# Total GULP energy -268118.969368 kJ/mol
# GULP energy per Si atom -5585.811862 kJ/mol
# Density = 1.714133 g / cm^3
# Si number density = 17.180430 Si / 1000 Ang^3
#
#
#
# Elastic Constant Matrix: (Units=GPa)
#
#
# Indices 1 2 3 4 5 6 
#
# 1 120.0679 103.4525 79.9810 0.0000 0.0000 0.0000
# 2 103.4525 120.0679 79.9810 0.0000 0.0000 0.0000
# 3 79.9810 79.9810 93.0738 0.0000 0.0000 0.0000
# 4 0.0000 0.0000 0.0000 30.2007 0.0000 0.0000
# 5 0.0000 0.0000 0.0000 0.0000 30.2007 0.0000
# 6 0.0000 0.0000 0.0000 0.0000 0.0000 8.3077
#
#
#
# Elastic Compliance Matrix: (Units=1/GPa)
#
#
# Indices 1 2 3 4 5 6 
#
# 1 0.035902 -0.024283 -0.009985 0.000000 0.000000 0.000000
# 2 -0.024283 0.035902 -0.009985 0.000000 0.000000 0.000000
# 3 -0.009985 -0.009985 0.027905 0.000000 0.000000 0.000000
# 4 0.000000 0.000000 0.000000 0.033112 0.000000 0.000000
# 5 0.000000 0.000000 0.000000 0.000000 0.033112 0.000000
# 6 0.000000 0.000000 0.000000 0.000000 0.000000 0.120370
#
#
# Mechanical properties :
#
#
# Convention : Reuss Voigt Hill
#
# Bulk Modulus (GPa) = 89.25357 95.55985 92.40671
# Shear Modulus (GPa) = 13.20847 18.39481 15.80164
#
# Velocity S-wave (km/s) = 2.77575 3.27568 3.03602
# Velocity P-wave (km/s) = 7.89535 8.36952 8.13589
#
# Compressibility (1/GPa) = 0.01120403
#
# Stress axis : x y z
#
# Youngs Moduli (GPa) = 27.85325 27.85325 35.83551
#
# Poissons Ratio (x) = 0.67635 0.35782
# Poissons Ratio (y) = 0.67635 0.35782
# Poissons Ratio (z) = 0.27812 0.27812
#
# Static dielectric constant tensor:
#      x y z
#    x 1.559640 0.000000 0.000000 
#    y 0.000000 1.559640 0.000000 
#    z 0.000000 0.000000 1.567350 
# 
# From -- ./inp_files/481.got.cif
#   From: 2010.05.17/outbox.cif.g08.bks.cpg/sg159_cif.got.tgz:481.got - 2010.05.20 10:50:30.
