data_PCOD9577000
_publ_section_title
;
Structure prediction by ZEFSAII (Michael W. Deem and Ramdas Pophale) SiO2 
 PCOD9577000
Probable space group: R 3 2
;
_chemical_formula_sum "Si O2"
_cell_formula_units_Z 78
_cell_length_a 18.062891
_cell_length_b 18.062891
_cell_length_c 13.857119
_cell_angle_alpha 90.000000
_cell_angle_beta 90.000000
_cell_angle_gamma 120.000000
_cell_volume 3915.417708
_symmetry_space_group_name_H-M "R 3 2"
_symmetry_group_IT_number 155
_symmetry_cell_setting 'hexagonal'
loop_
_space_group_symop_operation_xyz
x,y,z
-y,x-y,z
-x+y,-x,z
x-y,-y,-z
-x,-x+y,-z
y,x,-z
2/3+x,1/3+y,1/3+z
2/3-y,1/3+x-y,1/3+z
2/3-x+y,1/3-x,1/3+z
2/3+x-y,1/3-y,1/3-z
2/3-x,1/3-x+y,1/3-z
2/3+y,1/3+x,1/3-z
1/3+x,2/3+y,2/3+z
1/3-y,2/3+x-y,2/3+z
1/3-x+y,2/3-x,2/3+z
1/3+x-y,2/3-y,2/3-z
1/3-x,2/3-x+y,2/3-z
1/3+y,2/3+x,2/3-z
loop_
_atom_site_type_symbol
_atom_site_label
_atom_site_fract_x
_atom_site_fract_y
_atom_site_fract_z
Si Si1 0.912143 0.289319 0.561569
Si Si2 0.814841 0.901840 0.705421
Si Si3 0.422204 0.274396 0.214216
Si Si4 0.333335 0.666668 0.280630
Si Si5 0.540664 0.024501 0.260271
O O1 0.925194 0.258527 0.666667
O O2 0.880659 0.355567 0.586826
O O3 0.845433 0.213554 0.492399
O O4 0.000000 0.334918 0.500000
O O5 0.825104 0.957697 0.800588
O O6 0.738095 0.893196 0.636281
O O7 0.903542 0.941704 0.650623
O O8 0.333334 0.207065 0.166667
O O9 0.420757 0.361931 0.229121
O O10 0.422207 0.229041 0.314268
O O11 0.333334 0.666668 0.166667
#
# Coordination Sequence:
#
# PCOD9577000 Si02
#       5
#    18  18  18   6  18
#     4  12  24  40  67 102 133 175 217 277 343 402
#     4  11  24  44  65  93 134 168 226 270 335 406
#     4   9  20  41  67  95 125 172 217 277 329 386
#     4  12  30  45  63  91 140 196 216 282 343 404
#     4  10  21  41  66  95 130 166 219 273 331 398
#
# _framework density 19.921244000000002
#
# number of rings (size 3 to 8) (size 9 to 14) (size 15 to 20)
#    0.000    1.385    2.308    3.462    3.231    0.923 
#    8.308    0.000    0.000    2.769    0.000    0.000 
#    0.000    0.000    0.000    0.000    0.000    0.000 
#
# Total GULP energy -144962.274594 kJ/mol
# GULP energy per Si atom -5575.472100 kJ/mol
# Density = 1.987590 g / cm^3
# Si number density = 19.921244 Si / 1000 Ang^3
#
#
#
# Elastic Constant Matrix: (Units=GPa)
#
#
# Indices 1 2 3 4 5 6 
#
# 1 87.9057 36.0209 65.9741 -3.9612 -0.0002 0.0000
# 2 36.0209 87.9060 65.9738 3.9621 0.0000 0.0000
# 3 65.9741 65.9738 175.4141 0.0001 -0.0001 0.0000
# 4 -3.9612 3.9621 0.0001 33.5771 0.0000 0.0002
# 5 -0.0002 0.0000 -0.0001 0.0000 33.5764 -3.9617
# 6 0.0000 0.0000 0.0000 0.0002 -3.9617 25.9420
#
#
#
# Elastic Compliance Matrix: (Units=1/GPa)
#
#
# Indices 1 2 3 4 5 6 
#
# 1 0.016543 -0.003084 -0.005062 0.002316 0.000000 0.000000
# 2 -0.003084 0.016543 -0.005062 -0.002316 0.000000 0.000000
# 3 -0.005062 -0.005062 0.009508 0.000000 0.000000 0.000000
# 4 0.002316 -0.002316 0.000000 0.030329 0.000000 0.000000
# 5 0.000000 0.000000 0.000000 0.000000 0.030329 0.004632
# 6 0.000000 0.000000 0.000000 0.000000 0.004632 0.039255
#
#
# Mechanical properties :
#
#
# Convention : Reuss Voigt Hill
#
# Bulk Modulus (GPa) = 61.81081 76.35147 69.08114
# Shear Modulus (GPa) = 28.68357 30.83624 29.75990
#
# Velocity S-wave (km/s) = 3.79865 3.93861 3.86926
# Velocity P-wave (km/s) = 7.09469 7.68722 7.39689
#
# Compressibility (1/GPa) = 0.01617840
#
# Stress axis : x y z
#
# Youngs Moduli (GPa) = 60.44858 60.44889 105.17000
#
# Poissons Ratio (x) = 0.18643 0.53237
# Poissons Ratio (y) = 0.18643 0.53236
# Poissons Ratio (z) = 0.30599 0.30599
#
# Static dielectric constant tensor:
#      x y z
#    x 1.704220 0.000000 0.000000 
#    y 0.000000 1.704210 0.000000 
#    z 0.000000 0.000000 1.779390 
# 
# From -- ./inp_files/4913.got.cif
#   From: 2010.05.17/outbox.cif.g08.bks.cpg/sg155_3_cif.got.tgz:4913.got - 2010.05.20 10:44:35.
