data_PCOD9577569
_publ_section_title
;
Structure prediction by ZEFSAII (Michael W. Deem and Ramdas Pophale) SiO2 
 PCOD9577569
Probable space group: R 3 C
;
_chemical_formula_sum "Si O2"
_cell_formula_units_Z 120
_cell_length_a 16.250321
_cell_length_b 16.250321
_cell_length_c 23.320347
_cell_angle_alpha 90.000000
_cell_angle_beta 90.000000
_cell_angle_gamma 120.000000
_cell_volume 5333.220361
_symmetry_space_group_name_H-M "R 3 C"
_symmetry_group_IT_number 161
_symmetry_cell_setting 'hexagonal'
loop_
_space_group_symop_operation_xyz
x,y,z
-y,x-y,z
-x+y,-x,z
-x+y,y,1/2+z
x,x-y,1/2+z
-y,-x,1/2+z
2/3+x,1/3+y,1/3+z
2/3-y,1/3+x-y,1/3+z
2/3-x+y,1/3-x,1/3+z
2/3-x+y,1/3+y,5/6+z
2/3+x,1/3+x-y,5/6+z
2/3-y,1/3-x,5/6+z
1/3+x,2/3+y,2/3+z
1/3-y,2/3+x-y,2/3+z
1/3-x+y,2/3-x,2/3+z
1/3-x+y,2/3+y,1/6+z
1/3+x,2/3+x-y,1/6+z
1/3-y,2/3-x,1/6+z
loop_
_atom_site_type_symbol
_atom_site_label
_atom_site_fract_x
_atom_site_fract_y
_atom_site_fract_z
Si Si1 0.308210 0.280107 0.313131
Si Si2 0.605558 0.898464 0.214890
Si Si3 0.441016 0.774832 0.306619
Si Si4 0.000000 0.000000 0.476192
Si Si5 0.392357 0.264522 0.057921
Si Si6 0.000000 0.000000 0.838661
Si Si7 0.094074 0.887689 0.833972
Si Si8 0.449483 0.211529 0.302797
O O1 0.328725 0.333472 0.251312
O O2 0.344477 0.359365 0.362512
O O3 0.195069 0.219430 0.314629
O O4 0.364590 0.225454 0.324858
O O5 0.516192 0.835515 0.257526
O O6 0.667004 0.846677 0.206013
O O7 0.557377 0.903129 0.156176
O O8 0.332735 0.754764 0.303018
O O9 0.482951 0.835029 0.364491
O O10 0.889213 0.934764 0.492027
O O11 0.000000 0.000000 0.407477
O O12 0.393311 0.259647 0.126779
O O13 0.900209 0.986360 0.820842
O O14 0.105230 0.886290 0.901740
#
# Coordination Sequence:
#
# PCOD9577569 Si02
#       8
#    18  18  18   6  18   6  18  18
#     4  10  24  43  62  99 131 175 223 274 339 398
#     4  10  23  42  62  98 133 170 224 285 328 406
#     4   9  22  39  68  97 123 181 229 266 342 414
#     4   9  21  36  60  94 119 175 225 264 319 410
#     4  10  22  44  65  94 141 163 226 287 330 399
#     4   9  21  39  63  88 134 166 219 264 322 407
#     4  10  24  42  64  99 128 175 219 277 332 404
#     4  11  23  41  68  93 135 179 223 271 350 398
#
# _framework density 22.500478000000001
#
# number of rings (size 3 to 8) (size 9 to 14) (size 15 to 20)
#    0.300    1.800    0.000    0.900    6.300    8.400 
#   13.500    0.000    0.000    0.000    0.000    0.000 
#    0.000    0.000    0.000    0.000    0.000    0.000 
#
# Total GULP energy -223201.354389 kJ/mol
# GULP energy per Si atom -5580.033860 kJ/mol
# Density = 2.244927 g / cm^3
# Si number density = 22.500478 Si / 1000 Ang^3
#
#
#
# Elastic Constant Matrix: (Units=GPa)
#
#
# Indices 1 2 3 4 5 6 
#
# 1 36.1540 4.1478 -3.2405 -3.2333 0.0000 0.0000
# 2 4.1478 36.1540 -3.2405 3.2333 0.0000 0.0000
# 3 -3.2405 -3.2405 77.0428 0.0000 0.0000 0.0000
# 4 -3.2333 3.2333 0.0000 19.2375 0.0000 0.0000
# 5 0.0000 0.0000 0.0000 0.0000 19.2375 -3.2333
# 6 0.0000 0.0000 0.0000 0.0000 -3.2333 16.0031
#
#
#
# Elastic Compliance Matrix: (Units=1/GPa)
#
#
# Indices 1 2 3 4 5 6 
#
# 1 0.028662 -0.003680 0.001051 0.005436 0.000000 0.000000
# 2 -0.003680 0.028662 0.001051 -0.005436 0.000000 0.000000
# 3 0.001051 0.001051 0.013068 0.000000 0.000000 0.000000
# 4 0.005436 -0.005436 0.000000 0.053809 0.000000 0.000000
# 5 0.000000 0.000000 0.000000 0.000000 0.053809 0.010872
# 6 0.000000 0.000000 0.000000 0.000000 0.010872 0.064684
#
#
# Mechanical properties :
#
#
# Convention : Reuss Voigt Hill
#
# Bulk Modulus (GPa) = 14.87325 16.07602 15.47464
# Shear Modulus (GPa) = 18.63839 21.00790 19.82314
#
# Velocity S-wave (km/s) = 2.88124 3.05891 2.97140
# Velocity P-wave (km/s) = 4.20634 4.43127 4.32027
#
# Compressibility (1/GPa) = 0.06723482
#
# Stress axis : x y z
#
# Youngs Moduli (GPa) = 34.88942 34.88942 76.52167
#
# Poissons Ratio (x) = 0.12840 -0.08041
# Poissons Ratio (y) = 0.12840 -0.08041
# Poissons Ratio (z) = -0.03666 -0.03666
#
# Static dielectric constant tensor:
#      x y z
#    x 1.848260 0.000000 0.000000 
#    y 0.000000 1.848260 0.000000 
#    z 0.000000 0.000000 1.852350 
# 
# From -- ./inp_files/1984.got.cif
#   From: 2010.05.17/outbox.cif.g08.bks.cpg/sg161_cif.got.tgz:1984.got - 2010.05.20 10:52:32.
