data_PCOD9577235
_publ_section_title
;
Structure prediction by ZEFSAII (Michael W. Deem and Ramdas Pophale) SiO2 
 PCOD9577235
Probable space group: P 3 M 1
;
_chemical_formula_sum "Si O2"
_cell_formula_units_Z 48
_cell_length_a 12.821303
_cell_length_b 12.821303
_cell_length_c 21.072885
_cell_angle_alpha 90.000000
_cell_angle_beta 90.000000
_cell_angle_gamma 120.000000
_cell_volume 2999.984124
_symmetry_space_group_name_H-M "P 3 M 1"
_symmetry_group_IT_number 156
_symmetry_cell_setting 'hexagonal'
loop_
_space_group_symop_operation_xyz
x,y,z
-y,x-y,z
-x+y,-x,z
-x+y,y,z
x,x-y,z
-y,-x,z
loop_
_atom_site_type_symbol
_atom_site_label
_atom_site_fract_x
_atom_site_fract_y
_atom_site_fract_z
Si Si1 0.914646 0.581872 0.520430
Si Si2 0.914643 0.333049 0.278510
Si Si3 0.085492 0.666295 0.159653
Si Si4 0.247891 0.247837 0.641253
Si Si5 0.332807 0.418583 0.016695
Si Si6 0.248519 0.000591 0.399419
Si Si7 0.418512 0.086024 0.902795
Si Si8 0.418625 0.333568 0.759011
O O1 0.775716 0.551432 0.519484
O O2 0.921341 0.460671 0.519440
O O3 0.978246 0.665968 0.459667
O O4 0.974352 0.660808 0.583216
O O5 0.911308 0.455654 0.289544
O O6 0.780418 0.219583 0.274520
O O7 0.980486 0.306882 0.336183
O O8 0.987713 0.349442 0.213718
O O9 0.116081 0.558041 0.162520
O O10 0.206313 0.793688 0.169518
O O11 0.038677 0.663958 0.088146
O O12 0.126877 0.253754 0.635268
O O13 0.318748 0.306547 0.706371
O O14 0.219077 0.109539 0.640279
O O15 0.213583 0.427166 0.011924
O O16 0.449216 0.550785 0.010869
O O17 0.340780 0.341787 0.959302
O O18 0.218086 0.109043 0.401024
O O19 0.127636 0.872365 0.401066
O O20 0.551437 0.102873 0.907699
O O21 0.425958 0.212979 0.909760
O O22 0.375852 0.041342 0.830976
O O23 0.446085 0.223043 0.755447
O O24 0.540873 0.459128 0.747501
#
# Coordination Sequence:
#
# PCOD9577235 Si02
#       8
#     6   6   6   6   6   6   6   6
#     4  10  20  34  54  78 102 128 159 197 238 280
#     4  10  20  33  50  72  99 129 159 194 237 285
#     4   9  17  30  48  69  92 120 156 197 239 281
#     4  10  20  33  50  71  96 126 159 196 236 280
#     4   9  17  29  46  67  91 121 157 196 235 277
#     4  10  20  34  53  75  99 128 162 199 235 274
#     4   9  17  29  46  69  95 123 155 192 237 285
#     4   9  17  30  49  71  94 121 155 197 241 284
#
# _framework density 16.000084000000001
#
# number of rings (size 3 to 8) (size 9 to 14) (size 15 to 20)
#    0.000    2.500    0.000    2.500    0.000    3.000 
#    0.000    3.750    0.000    9.750    0.000    0.000 
#    0.000    0.000    0.000    0.000    0.000    0.000 
#
# Total GULP energy -267604.452170 kJ/mol
# GULP energy per Si atom -5575.092754 kJ/mol
# Density = 1.596367 g / cm^3
# Si number density = 16.000084 Si / 1000 Ang^3
#
#
#
# Elastic Constant Matrix: (Units=GPa)
#
#
# Indices 1 2 3 4 5 6 
#
# 1 98.2631 63.0010 75.8826 1.2392 -0.0001 0.0000
# 2 63.0010 98.2631 75.8826 -1.2392 0.0001 0.0000
# 3 75.8826 75.8826 150.6673 0.0000 0.0000 0.0000
# 4 1.2392 -1.2392 0.0000 22.4711 0.0000 0.0001
# 5 -0.0001 0.0001 0.0000 0.0000 22.4711 1.2392
# 6 0.0000 0.0000 0.0000 0.0001 1.2392 17.6310
#
#
#
# Elastic Compliance Matrix: (Units=1/GPa)
#
#
# Indices 1 2 3 4 5 6 
#
# 1 0.020129 -0.008340 -0.005937 -0.001570 0.000000 0.000000
# 2 -0.008340 0.020129 -0.005937 0.001570 0.000000 0.000000
# 3 -0.005937 -0.005937 0.012618 0.000000 0.000000 0.000000
# 4 -0.001570 0.001570 0.000000 0.044675 0.000000 0.000000
# 5 0.000000 0.000000 0.000000 0.000000 0.044675 -0.003140
# 6 0.000000 0.000000 0.000000 0.000000 -0.003140 0.056939
#
#
# Mechanical properties :
#
#
# Convention : Reuss Voigt Hill
#
# Bulk Modulus (GPa) = 80.34843 86.30286 83.32564
# Shear Modulus (GPa) = 20.51346 21.34312 20.92829
#
# Velocity S-wave (km/s) = 3.58451 3.65627 3.62057
# Velocity P-wave (km/s) = 8.21329 8.47824 8.34682
#
# Compressibility (1/GPa) = 0.01244579
#
# Stress axis : x y z
#
# Youngs Moduli (GPa) = 49.67964 49.67964 79.25446
#
# Poissons Ratio (x) = 0.41435 0.47055
# Poissons Ratio (y) = 0.41435 0.47055
# Poissons Ratio (z) = 0.29496 0.29496
#
# Static dielectric constant tensor:
#      x y z
#    x 1.502310 0.000000 0.000000 
#    y 0.000000 1.502310 0.000000 
#    z 0.000000 0.000000 1.552890 
# 
# From -- ./inp_files/1098.got.cif
#   From: 2010.05.17/outbox.cif.g08.bks.cpg/sg156_cif.got.tgz:1098.got - 2010.05.20 10:49:08.
