data_PCOD9577770
_publ_section_title
;
Structure prediction by ZEFSAII (Michael W. Deem and Ramdas Pophale) SiO2 
 PCOD9577770
Probable space group: P -3 1 M 
;
_chemical_formula_sum "Si O2"
_cell_formula_units_Z 54
_cell_length_a 24.380279
_cell_length_b 24.380279
_cell_length_c 5.077125
_cell_angle_alpha 90.000000
_cell_angle_beta 90.000000
_cell_angle_gamma 120.000000
_cell_volume 2613.520014
_symmetry_space_group_name_H-M "P -3 1 M "
_symmetry_group_IT_number 162
_symmetry_cell_setting 'hexagonal'
loop_
_space_group_symop_operation_xyz
x,y,z
-y,x-y,z
-x+y,-x,z
-y,-x,-z
-x+y,y,-z
x,x-y,-z
-x,-y,-z
y,-x+y,-z
x-y,x,-z
y,x,z
x-y,-y,z
-x,-x+y,z
loop_
_atom_site_type_symbol
_atom_site_label
_atom_site_fract_x
_atom_site_fract_y
_atom_site_fract_z
Si Si1 0.491172 0.860962 0.613886
Si Si2 0.651785 0.778404 0.806979
Si Si3 0.075855 0.924146 0.000000
Si Si4 0.878361 0.756722 0.500000
Si Si5 0.232952 0.465903 0.500000
Si Si6 0.359866 0.928291 0.888848
O O1 0.427372 0.854743 0.500000
O O2 0.492440 0.795985 0.600460
O O3 0.545264 0.908684 0.410498
O O4 0.512786 0.886556 0.907304
O O5 0.706289 0.805011 0.583776
O O6 0.584131 0.768059 0.708508
O O7 0.629593 0.710208 0.930249
O O8 0.675512 0.837756 0.000000
O O9 0.088894 0.892137 0.746140
O O10 0.000000 0.891302 0.039768
O O11 0.411503 0.000000 0.933144
#
# Coordination Sequence:
#
# PCOD9577770 Si02
#       6
#    12  12   6   6   6  12
#     4  11  23  40  62  88 125 169 210 263 312 365
#     4  10  19  41  66  93 128 165 205 260 327 385
#     4  12  27  48  68  92 128 172 214 256 318 390
#     4  11  24  42  69 100 123 156 210 272 320 370
#     4   9  20  38  64  90 123 166 217 254 319 382
#     4  11  24  39  61  93 125 165 210 252 311 385
#
# _framework density 20.66179
#
# number of rings (size 3 to 8) (size 9 to 14) (size 15 to 20)
#    0.000    1.333    3.333    2.111    0.000    4.444 
#    0.667    1.111    0.000    0.000    0.000    0.000 
#    0.000    0.000    0.000    0.000    0.000    0.000 
#
# Total GULP energy -301168.337595 kJ/mol
# GULP energy per Si atom -5577.191437 kJ/mol
# Density = 2.061476 g / cm^3
# Si number density = 20.661790 Si / 1000 Ang^3
#
#
#
# Elastic Constant Matrix: (Units=GPa)
#
#
# Indices 1 2 3 4 5 6 
#
# 1 71.7429 55.0381 3.3777 0.0001 2.1861 0.0000
# 2 55.0381 71.7429 3.3777 -0.0001 -2.1861 0.0000
# 3 3.3777 3.3777 74.5275 0.0000 0.0000 0.0000
# 4 0.0001 -0.0001 0.0000 21.3675 0.0000 -2.1861
# 5 2.1861 -2.1861 0.0000 0.0000 21.3675 0.0001
# 6 0.0000 0.0000 0.0000 -2.1861 0.0001 8.3524
#
#
#
# Elastic Compliance Matrix: (Units=1/GPa)
#
#
# Indices 1 2 3 4 5 6 
#
# 1 0.034708 -0.026802 -0.000358 0.000000 -0.006293 0.000000
# 2 -0.026802 0.034708 -0.000358 0.000000 0.006293 0.000000
# 3 -0.000358 -0.000358 0.013450 0.000000 0.000000 0.000000
# 4 0.000000 0.000000 0.000000 0.048088 0.000000 0.012586
# 5 -0.006293 0.006293 0.000000 0.000000 0.048088 -0.000001
# 6 0.000000 0.000000 0.000000 0.012586 -0.000001 0.123020
#
#
# Mechanical properties :
#
#
# Convention : Reuss Voigt Hill
#
# Bulk Modulus (GPa) = 35.93196 37.95560 36.94378
# Shear Modulus (GPa) = 13.64716 20.63213 17.13965
#
# Velocity S-wave (km/s) = 2.57281 3.16344 2.88329
# Velocity P-wave (km/s) = 5.12388 5.63497 5.38549
#
# Compressibility (1/GPa) = 0.02783038
#
# Stress axis : x y z
#
# Youngs Moduli (GPa) = 28.81144 28.81144 74.34757
#
# Poissons Ratio (x) = 0.77220 0.02664
# Poissons Ratio (y) = 0.77220 0.02664
# Poissons Ratio (z) = 0.01032 0.01032
#
# Static dielectric constant tensor:
#      x y z
#    x 1.753730 0.000000 0.000000 
#    y 0.000000 1.753730 0.000000 
#    z 0.000000 0.000000 1.803130 
# 
# From -- ./inp_files/575.got.cif
#   From: 2010.05.17/outbox.cif.g08.bks.cpg/sg162_1_cif.got.tgz:575.got - 2010.05.20 10:53:12.
