data_PCOD9577420
_publ_section_title
;
Structure prediction by ZEFSAII (Michael W. Deem and Ramdas Pophale) SiO2 
 PCOD9577420
Probable space group: P 3 1 C
;
_chemical_formula_sum "Si O2"
_cell_formula_units_Z 36
_cell_length_a 11.817237
_cell_length_b 11.817237
_cell_length_c 13.173877
_cell_angle_alpha 90.000000
_cell_angle_beta 90.000000
_cell_angle_gamma 120.000000
_cell_volume 1593.221385
_symmetry_space_group_name_H-M "P 3 1 C"
_symmetry_group_IT_number 159
_symmetry_cell_setting 'hexagonal'
loop_
_space_group_symop_operation_xyz
x,y,z
-y,x-y,z
-x+y,-x,z
y,x,1/2+z
x-y,-y,1/2+z
-x,-x+y,1/2+z
loop_
_atom_site_type_symbol
_atom_site_label
_atom_site_fract_x
_atom_site_fract_y
_atom_site_fract_z
Si Si1 0.650269 0.063730 0.604640
Si Si2 0.572757 0.540681 0.955144
Si Si3 0.278931 0.008000 0.307235
Si Si4 0.699888 0.124759 0.830316
Si Si5 0.691758 0.828725 0.591394
Si Si6 0.769387 0.941029 0.958685
O O1 0.540611 0.057923 0.532533
O O2 0.623015 0.914361 0.614626
O O3 0.645929 0.107809 0.717021
O O4 0.790145 0.133327 0.545140
O O5 0.584183 0.637869 0.864223
O O6 0.537157 0.401180 0.905214
O O7 0.706959 0.606341 0.018831
O O8 0.221266 0.853254 0.312737
O O9 0.278970 0.058827 0.195558
O O10 0.203692 0.057101 0.381780
O O11 0.706901 0.004296 0.883155
O O12 0.816536 0.939411 0.527548
#
# Coordination Sequence:
#
# PCOD9577420 Si02
#       6
#     6   6   6   6   6   6
#     4   9  21  42  67  96 146 187 243 315 364 462
#     4  11  22  42  68  99 145 201 247 308 373 461
#     4  12  23  42  79 108 147 208 249 326 403 466
#     4  11  22  43  69 105 149 187 256 316 374 472
#     4  10  22  42  72 106 144 200 250 319 391 464
#     4   9  20  43  67 102 151 181 245 318 389 467
#
# _framework density 22.595731000000001
#
# number of rings (size 3 to 8) (size 9 to 14) (size 15 to 20)
#    1.000    0.667    3.333    1.000    2.333    0.000 
#    9.000    0.000    7.333    5.333    0.000    0.000 
#    0.000    0.000    0.000    0.000    0.000    0.000 
#
# Total GULP energy -200409.255373 kJ/mol
# GULP energy per Si atom -5566.923760 kJ/mol
# Density = 2.254430 g / cm^3
# Si number density = 22.595731 Si / 1000 Ang^3
#
#
#
# Elastic Constant Matrix: (Units=GPa)
#
#
# Indices 1 2 3 4 5 6 
#
# 1 76.3674 33.8896 65.3781 0.0000 -2.2763 0.0000
# 2 33.8896 76.3674 65.3781 0.0000 2.2763 0.0000
# 3 65.3781 65.3781 209.8609 0.0000 0.0000 0.0000
# 4 0.0000 0.0000 0.0000 30.1337 0.0000 2.2763
# 5 -2.2763 2.2763 0.0000 0.0000 30.1337 0.0000
# 6 0.0000 0.0000 0.0000 2.2763 0.0000 21.2389
#
#
#
# Elastic Compliance Matrix: (Units=1/GPa)
#
#
# Indices 1 2 3 4 5 6 
#
# 1 0.019059 -0.004675 -0.004481 0.000000 0.001793 0.000000
# 2 -0.004675 0.019059 -0.004481 0.000000 -0.001793 0.000000
# 3 -0.004481 -0.004481 0.007557 0.000000 0.000000 0.000000
# 4 0.000000 0.000000 0.000000 0.033456 0.000000 -0.003586
# 5 0.001793 -0.001793 0.000000 0.000000 0.033456 0.000000
# 6 0.000000 0.000000 0.000000 -0.003586 0.000000 0.047468
#
#
# Mechanical properties :
#
#
# Convention : Reuss Voigt Hill
#
# Bulk Modulus (GPa) = 54.34584 76.87635 65.61110
# Shear Modulus (GPa) = 25.84479 29.49793 27.67136
#
# Velocity S-wave (km/s) = 3.38567 3.61704 3.50326
# Velocity P-wave (km/s) = 6.27593 7.17916 6.74268
#
# Compressibility (1/GPa) = 0.01840067
#
# Stress axis : x y z
#
# Youngs Moduli (GPa) = 52.46903 52.46903 132.32759
#
# Poissons Ratio (x) = 0.24529 0.59296
# Poissons Ratio (y) = 0.24529 0.59296
# Poissons Ratio (z) = 0.23511 0.23511
#
# Static dielectric constant tensor:
#      x y z
#    x 1.949470 0.000000 0.000000 
#    y 0.000000 1.949470 0.000000 
#    z 0.000000 0.000000 1.858490 
# 
# From -- ./inp_files/879.got.cif
#   From: 2010.05.17/outbox.cif.g08.bks.cpg/sg159_cif.got.tgz:879.got - 2010.05.20 10:50:30.
