data_PCOD9577243
_publ_section_title
;
Structure prediction by ZEFSAII (Michael W. Deem and Ramdas Pophale) SiO2 
 PCOD9577243
Probable space group: P 3 M 1
;
_chemical_formula_sum "Si O2"
_cell_formula_units_Z 36
_cell_length_a 18.386927
_cell_length_b 18.386927
_cell_length_c 7.566353
_cell_angle_alpha 90.000000
_cell_angle_beta 90.000000
_cell_angle_gamma 120.000000
_cell_volume 2215.315236
_symmetry_space_group_name_H-M "P 3 M 1"
_symmetry_group_IT_number 156
_symmetry_cell_setting 'hexagonal'
loop_
_space_group_symop_operation_xyz
x,y,z
-y,x-y,z
-x+y,-x,z
-x+y,y,z
x,x-y,z
-y,-x,z
loop_
_atom_site_type_symbol
_atom_site_label
_atom_site_fract_x
_atom_site_fract_y
_atom_site_fract_z
Si Si1 0.999443 0.830197 0.650120
Si Si2 0.597070 0.572438 0.942574
Si Si3 0.999443 0.169250 0.235112
Si Si4 0.496863 0.164087 0.235071
Si Si5 0.835917 0.332777 0.650080
Si Si6 0.239105 0.930403 0.942618
O O1 0.072749 0.927252 0.672758
O O2 0.025907 0.777113 0.773646
O O3 0.909876 0.819751 0.698215
O O4 0.997569 0.809654 0.442617
O O5 0.500132 0.499869 0.942563
O O6 0.640768 0.556233 0.773600
O O7 0.615744 0.666667 0.942595
O O8 0.640762 0.556223 0.111546
O O9 0.909878 0.090123 0.187021
O O10 0.072756 0.145511 0.212461
O O11 0.025898 0.248798 0.111591
O O12 0.593918 0.187835 0.212429
O O13 0.486418 0.243209 0.186977
O O14 0.476322 0.145419 0.442575
O O15 0.812176 0.406088 0.672731
O O16 0.756790 0.243211 0.698171
O O17 0.166536 0.833465 0.942633
#
# Coordination Sequence:
#
# PCOD9577243 Si02
#       6
#     6   6   6   6   6   6
#     4   9  17  29  46  69  98 131 162 187 211 246
#     4  10  21  35  49  66  89 117 150 190 237 283
#     4   9  17  29  46  69  98 131 162 187 211 246
#     4   9  17  29  46  69  98 131 162 187 211 246
#     4   9  17  29  46  69  98 131 162 187 211 246
#     4  10  21  35  49  66  89 117 150 190 237 283
#
# _framework density 16.250509999999998
#
# number of rings (size 3 to 8) (size 9 to 14) (size 15 to 20)
#    0.000    2.667    0.000    1.667    0.000    6.667 
#    0.000    6.667    0.000    0.333    0.000    0.000 
#    0.000    0.000    0.000   16.667    0.000    0.000 
#
# Total GULP energy -200838.553005 kJ/mol
# GULP energy per Si atom -5578.848695 kJ/mol
# Density = 1.621352 g / cm^3
# Si number density = 16.250510 Si / 1000 Ang^3
#
#
#
# Elastic Constant Matrix: (Units=GPa)
#
#
# Indices 1 2 3 4 5 6 
#
# 1 80.7648 71.6876 38.3906 0.0013 0.0001 0.0000
# 2 71.6876 80.7648 38.3906 -0.0013 -0.0001 0.0000
# 3 38.3906 38.3906 52.4041 0.0000 0.0000 0.0000
# 4 0.0013 -0.0013 0.0000 12.4401 0.0000 -0.0001
# 5 0.0001 -0.0001 0.0000 0.0000 12.4401 0.0013
# 6 0.0000 0.0000 0.0000 -0.0001 0.0013 4.5386
#
#
#
# Elastic Compliance Matrix: (Units=1/GPa)
#
#
# Indices 1 2 3 4 5 6 
#
# 1 0.060281 -0.049886 -0.007615 -0.000012 -0.000001 0.000000
# 2 -0.049886 0.060281 -0.007615 0.000012 0.000001 0.000000
# 3 -0.007615 -0.007615 0.030240 0.000000 0.000000 0.000000
# 4 -0.000012 0.000012 0.000000 0.080385 0.000000 0.000002
# 5 -0.000001 0.000001 0.000000 0.000000 0.080385 -0.000023
# 6 0.000000 0.000000 0.000000 0.000002 -0.000023 0.220333
#
#
# Mechanical properties :
#
#
# Convention : Reuss Voigt Hill
#
# Bulk Modulus (GPa) = 48.61661 56.76349 52.69005
# Shear Modulus (GPa) = 7.47392 10.24807 8.86100
#
# Velocity S-wave (km/s) = 2.14690 2.51396 2.33765
# Velocity P-wave (km/s) = 6.01061 6.59035 6.30715
#
# Compressibility (1/GPa) = 0.02056910
#
# Stress axis : x y z
#
# Youngs Moduli (GPa) = 16.58909 16.58909 33.06902
#
# Poissons Ratio (x) = 0.82756 0.25182
# Poissons Ratio (y) = 0.82756 0.25182
# Poissons Ratio (z) = 0.12633 0.12633
#
# Static dielectric constant tensor:
#      x y z
#    x 1.524300 0.000000 0.000000 
#    y 0.000000 1.524300 0.000000 
#    z 0.000000 0.000000 1.567890 
# 
# From -- ./inp_files/431.got.cif
#   From: 2010.05.17/outbox.cif.g08.bks.cpg/sg156_cif.got.tgz:431.got - 2010.05.20 10:49:08.
