data_PCOD9577692
_publ_section_title
;
Structure prediction by ZEFSAII (Michael W. Deem and Ramdas Pophale) SiO2 
 PCOD9577692
Probable space group: P -3 1 M 
;
_chemical_formula_sum "Si O2"
_cell_formula_units_Z 84
_cell_length_a 19.628961
_cell_length_b 19.628961
_cell_length_c 12.005861
_cell_angle_alpha 90.000000
_cell_angle_beta 90.000000
_cell_angle_gamma 120.000000
_cell_volume 4006.070307
_symmetry_space_group_name_H-M "P -3 1 M "
_symmetry_group_IT_number 162
_symmetry_cell_setting 'hexagonal'
loop_
_space_group_symop_operation_xyz
x,y,z
-y,x-y,z
-x+y,-x,z
-y,-x,-z
-x+y,y,-z
x,x-y,-z
-x,-y,-z
y,-x+y,-z
x-y,x,-z
y,x,z
x-y,-y,z
-x,-x+y,z
loop_
_atom_site_type_symbol
_atom_site_label
_atom_site_fract_x
_atom_site_fract_y
_atom_site_fract_z
Si Si1 0.784362 0.133840 0.359183
Si Si2 0.814958 0.724797 0.101889
Si Si3 0.702941 0.544320 0.053357
Si Si4 0.094635 0.514692 0.250130
Si Si5 0.091612 0.432632 0.813163
Si Si6 0.308228 0.909638 0.422027
Si Si7 0.091598 0.909200 0.323188
O O1 0.743431 0.119487 0.240115
O O2 0.712778 0.103718 0.447426
O O3 0.845959 0.225746 0.370268
O O4 0.836990 0.093598 0.385537
O O5 0.752681 0.752681 0.080334
O O6 0.764148 0.630531 0.100887
O O7 0.863983 0.771611 0.210213
O O8 0.874376 0.748752 0.000000
O O9 0.641923 0.500720 0.151945
O O10 0.754323 0.508646 0.000000
O O11 0.661666 0.554182 0.944028
O O12 0.122648 0.606677 0.247674
O O13 0.103833 0.479002 0.366697
O O14 0.000000 0.464886 0.224910
O O15 0.000000 0.386550 0.793461
O O16 0.334206 0.000000 0.394212
O O17 0.000000 0.882311 0.307259
O O18 0.139888 0.000000 0.366372
#
# Coordination Sequence:
#
# PCOD9577692 Si02
#       7
#    12  12  12  12  12  12  12
#     4  11  22  37  61  89 117 152 199 250 295 348
#     4  10  19  30  48  74 108 152 202 254 304 355
#     4  11  21  34  56  84 115 151 190 234 286 350
#     4  10  21  37  58  84 115 149 186 233 292 353
#     4  11  22  36  58  87 117 148 186 237 293 347
#     4  10  21  39  62  87 116 151 193 242 295 349
#     4  11  22  36  54  80 119 165 213 262 313 365
#
# _framework density 20.96818
#
# number of rings (size 3 to 8) (size 9 to 14) (size 15 to 20)
#    0.000    1.429    0.000    7.429    0.000    4.000 
#    0.000    2.143    0.000   10.286    0.000    5.000 
#    0.000    0.000    0.000    0.000    0.000    0.286 
#
# Total GULP energy -468794.001469 kJ/mol
# GULP energy per Si atom -5580.880970 kJ/mol
# Density = 2.092046 g / cm^3
# Si number density = 20.968180 Si / 1000 Ang^3
#
#
#
# Elastic Constant Matrix: (Units=GPa)
#
#
# Indices 1 2 3 4 5 6 
#
# 1 85.8641 45.9865 25.5329 0.0001 -17.3169 0.0000
# 2 45.9865 85.8641 25.5329 -0.0001 17.3169 0.0000
# 3 25.5329 25.5329 64.9531 0.0000 0.0000 0.0000
# 4 0.0001 -0.0001 0.0000 -0.2119 0.0000 17.3169
# 5 -17.3169 17.3169 0.0000 0.0000 -0.2119 0.0001
# 6 0.0000 0.0000 0.0000 17.3169 0.0001 19.9388
#
#
#
# Elastic Compliance Matrix: (Units=1/GPa)
#
#
# Indices 1 2 3 4 5 6 
#
# 1 0.004647 0.004299 -0.003517 0.000000 -0.028472 0.000000
# 2 0.004299 0.004647 -0.003517 0.000000 0.028472 0.000000
# 3 -0.003517 -0.003517 0.018161 0.000000 0.000000 0.000000
# 4 0.000000 0.000000 0.000000 -0.065567 0.000000 0.056945
# 5 -0.028472 0.028472 0.000000 0.000000 -0.065567 0.000000
# 6 0.000000 0.000000 0.000000 0.056945 0.000000 0.000697
#
#
# Mechanical properties :
#
#
# Convention : Reuss Voigt Hill
#
# Bulk Modulus (GPa) = 45.48307 47.86508 46.67407
# Shear Modulus (GPa) = -55.44274 13.21159 -21.11557
#
# Velocity S-wave (km/s) = -5.14770 2.51286 -3.17682
# Velocity P-wave (km/s) = 3.68689 5.59431 2.97516
#
# Compressibility (1/GPa) = 0.02198621
#
# Stress axis : x y z
#
# Youngs Moduli (GPa) = 215.17349 215.17349 55.06418
#
# Poissons Ratio (x) = -0.92503 0.19365
# Poissons Ratio (y) = -0.92503 0.19365
# Poissons Ratio (z) = 0.75672 0.75672
#
# Static dielectric constant tensor:
#      x y z
#    x 1.784860 0.000000 0.000000 
#    y 0.000000 1.784860 0.000000 
#    z 0.000000 0.000000 1.831730 
# 
# From -- ./inp_files/2541.got.cif
#   From: 2010.05.17/outbox.cif.g08.bks.cpg/sg162_2_cif.got.tgz:2541.got - 2010.05.20 10:53:12.
