data_PCOD9577917
_publ_section_title
;
Structure prediction by ZEFSAII (Michael W. Deem and Ramdas Pophale) SiO2 
 PCOD9577917
Probable space group: P -3 1 M 
;
_chemical_formula_sum "Si O2"
_cell_formula_units_Z 78
_cell_length_a 24.706968
_cell_length_b 24.706968
_cell_length_c 7.070513
_cell_angle_alpha 90.000000
_cell_angle_beta 90.000000
_cell_angle_gamma 120.000000
_cell_volume 3737.837892
_symmetry_space_group_name_H-M "P -3 1 M "
_symmetry_group_IT_number 162
_symmetry_cell_setting 'hexagonal'
loop_
_space_group_symop_operation_xyz
x,y,z
-y,x-y,z
-x+y,-x,z
-y,-x,-z
-x+y,y,-z
x,x-y,-z
-x,-y,-z
y,-x+y,-z
x-y,x,-z
y,x,z
x-y,-y,z
-x,-x+y,z
loop_
_atom_site_type_symbol
_atom_site_label
_atom_site_fract_x
_atom_site_fract_y
_atom_site_fract_z
Si Si1 0.683844 0.505099 0.217050
Si Si2 0.828031 0.758020 0.227865
Si Si3 0.069784 0.268279 0.672006
Si Si4 0.687985 0.489084 0.772295
Si Si5 0.602055 0.397946 0.500000
Si Si6 0.634836 0.931634 0.846310
Si Si7 0.072122 0.679615 0.286456
O O1 0.752189 0.513304 0.248555
O O2 0.629513 0.455862 0.352273
O O3 0.692767 0.573012 0.251359
O O4 0.670883 0.484054 0.995234
O O5 0.812400 0.812400 0.169910
O O6 0.892067 0.756549 0.207138
O O7 0.819627 0.753134 0.456123
O O8 0.773321 0.692090 0.150366
O O9 0.092900 0.341800 0.657305
O O10 0.000000 0.238140 0.750514
O O11 0.657181 0.424629 0.654479
O O12 0.668388 0.537836 0.686214
O O13 0.663102 0.000000 0.759070
O O14 0.614545 0.932759 0.059609
O O15 0.000000 0.631665 0.350581
#
# Coordination Sequence:
#
# PCOD9577917 Si02
#       7
#    12  12  12  12   6  12  12
#     4  10  22  41  62  85 116 150 187 235 283 329
#     4   9  17  28  45  72 106 142 183 230 278 328
#     4   9  17  28  45  72 106 142 183 230 278 328
#     4  10  22  41  62  85 116 150 187 235 283 329
#     4  12  24  40  61  84 110 144 192 232 272 334
#     4   9  18  34  57  84 113 143 176 220 277 339
#     4   9  18  34  57  84 113 143 176 220 277 339
#
# _framework density 20.867677
#
# number of rings (size 3 to 8) (size 9 to 14) (size 15 to 20)
#    0.000    2.462    0.000    1.846    2.154    1.846 
#    3.692    1.538    0.000    4.000    0.000    2.154 
#    0.000    0.000    0.000    7.692    0.000    8.000 
#
# Total GULP energy -434309.874891 kJ/mol
# GULP energy per Si atom -5568.075319 kJ/mol
# Density = 2.082018 g / cm^3
# Si number density = 20.867677 Si / 1000 Ang^3
#
#
#
# Elastic Constant Matrix: (Units=GPa)
#
#
# Indices 1 2 3 4 5 6 
#
# 1 56.5637 42.6710 13.3785 -0.0001 8.5466 0.0000
# 2 42.6710 56.5637 13.3785 0.0001 -8.5466 0.0000
# 3 13.3785 13.3785 71.3774 0.0000 0.0000 0.0000
# 4 -0.0001 0.0001 0.0000 -15.0813 0.0000 -8.5466
# 5 8.5466 -8.5466 0.0000 0.0000 -15.0813 -0.0001
# 6 0.0000 0.0000 0.0000 -8.5466 -0.0001 6.9464
#
#
#
# Elastic Compliance Matrix: (Units=1/GPa)
#
#
# Indices 1 2 3 4 5 6 
#
# 1 0.026512 -0.015898 -0.001989 0.000000 0.024034 0.000000
# 2 -0.015898 0.026512 -0.001989 0.000000 -0.024034 0.000000
# 3 -0.001989 -0.001989 0.014756 0.000000 0.000000 0.000000
# 4 0.000000 0.000000 0.000000 -0.039068 0.000000 -0.048067
# 5 0.024034 -0.024034 0.000000 0.000000 -0.039068 -0.000001
# 6 0.000000 0.000000 0.000000 -0.048067 -0.000001 0.084820
#
#
# Mechanical properties :
#
#
# Convention : Reuss Voigt Hill
#
# Bulk Modulus (GPa) = 35.68180 35.92897 35.80538
# Shear Modulus (GPa) = 40.46638 3.02855 21.74746
#
# Velocity S-wave (km/s) = 4.40840 1.20601 3.23175
# Velocity P-wave (km/s) = 6.56111 4.38112 5.57864
#
# Compressibility (1/GPa) = 0.02802549
#
# Stress axis : x y z
#
# Youngs Moduli (GPa) = 37.71920 37.71920 67.77014
#
# Poissons Ratio (x) = 0.59967 0.13482
# Poissons Ratio (y) = 0.59967 0.13482
# Poissons Ratio (z) = 0.07504 0.07504
#
# Static dielectric constant tensor:
#      x y z
#    x 1.774490 0.000000 0.000000 
#    y 0.000000 1.774490 0.000000 
#    z 0.000000 0.000000 1.852200 
# 
# From -- ./inp_files/1849.got.cif
#   From: 2010.05.17/outbox.cif.g08.bks.cpg/sg162_1_cif.got.tgz:1849.got - 2010.05.20 10:53:12.
