data_PCOD9577407
_publ_section_title
;
Structure prediction by ZEFSAII (Michael W. Deem and Ramdas Pophale) SiO2 
 PCOD9577407
Probable space group: P 3 1 C
;
_chemical_formula_sum "Si O2"
_cell_formula_units_Z 42
_cell_length_a 8.705814
_cell_length_b 8.705814
_cell_length_c 32.718760
_cell_angle_alpha 90.000000
_cell_angle_beta 90.000000
_cell_angle_gamma 120.000000
_cell_volume 2147.564598
_symmetry_space_group_name_H-M "P 3 1 C"
_symmetry_group_IT_number 159
_symmetry_cell_setting 'hexagonal'
loop_
_space_group_symop_operation_xyz
x,y,z
-y,x-y,z
-x+y,-x,z
y,x,1/2+z
x-y,-y,1/2+z
-x,-x+y,1/2+z
loop_
_atom_site_type_symbol
_atom_site_label
_atom_site_fract_x
_atom_site_fract_y
_atom_site_fract_z
Si Si1 0.999068 0.678878 0.712590
Si Si2 0.629478 0.514495 0.930607
Si Si3 0.651776 0.651433 0.679626
Si Si4 0.885017 0.370522 0.090563
Si Si5 0.678878 0.999068 0.808580
Si Si6 0.999657 0.348224 0.341544
Si Si7 0.631031 0.514828 0.510585
O O1 0.000000 0.714706 0.760585
O O2 0.851857 0.706262 0.689887
O O3 0.954925 0.479028 0.704802
O O4 0.190944 0.810193 0.693940
O O5 0.487952 0.302640 0.930892
O O6 0.614772 0.602803 0.889143
O O7 0.601791 0.603051 0.970372
O O8 0.602803 0.614772 0.632027
O O9 0.814688 0.512048 0.090279
O O10 0.001260 0.398209 0.050798
O O11 0.706262 0.851857 0.831284
O O12 0.479028 0.954925 0.816368
O O13 0.810193 0.190944 0.827230
O O14 0.487991 0.302976 0.510585
#
# Coordination Sequence:
#
# PCOD9577407 Si02
#       7
#     6   6   6   6   6   6   6
#     4  12  24  42  64  95 136 179 235 295 353 411
#     4  10  21  44  68  93 134 182 221 271 349 407
#     4  12  25  43  67  99 133 186 235 289 352 422
#     4  10  21  44  68  93 134 182 221 271 349 407
#     4  12  24  42  64  95 136 179 235 295 353 411
#     4  12  25  43  67  99 133 186 235 289 352 422
#     4  10  24  36  68 106 130 162 226 276 330 410
#
# _framework density 19.557036
#
# number of rings (size 3 to 8) (size 9 to 14) (size 15 to 20)
#    0.857    0.000    2.857    5.143    4.000    0.000 
#    0.000    0.000    0.000    4.571    0.000    0.000 
#    0.000    0.000    0.000    0.000    0.000    0.000 
#
# Total GULP energy -234647.877789 kJ/mol
# GULP energy per Si atom -5586.854233 kJ/mol
# Density = 1.951252 g / cm^3
# Si number density = 19.557036 Si / 1000 Ang^3
#
#
#
# Elastic Constant Matrix: (Units=GPa)
#
#
# Indices 1 2 3 4 5 6 
#
# 1 60.7574 -0.7661 42.2870 0.0000 0.0000 0.0000
# 2 -0.7661 60.7574 42.2870 0.0000 0.0000 0.0000
# 3 42.2870 42.2870 193.5191 0.0000 0.0000 0.0000
# 4 0.0000 0.0000 0.0000 21.8127 0.0000 0.0000
# 5 0.0000 0.0000 0.0000 0.0000 21.8127 0.0000
# 6 0.0000 0.0000 0.0000 0.0000 0.0000 30.7617
#
#
#
# Elastic Compliance Matrix: (Units=1/GPa)
#
#
# Indices 1 2 3 4 5 6 
#
# 1 0.020172 0.003918 -0.005264 0.000000 0.000000 0.000000
# 2 0.003918 0.020172 -0.005264 0.000000 0.000000 0.000000
# 3 -0.005264 -0.005264 0.007468 0.000000 0.000000 0.000000
# 4 0.000000 0.000000 0.000000 0.045845 0.000000 0.000000
# 5 0.000000 0.000000 0.000000 0.000000 0.045845 0.000000
# 6 0.000000 0.000000 0.000000 0.000000 0.000000 0.032508
#
#
# Mechanical properties :
#
#
# Convention : Reuss Voigt Hill
#
# Bulk Modulus (GPa) = 28.90831 53.62775 41.26803
# Shear Modulus (GPa) = 25.41156 30.29248 27.85202
#
# Velocity S-wave (km/s) = 3.60857 3.93991 3.77788
# Velocity P-wave (km/s) = 5.67239 6.94103 6.33853
#
# Compressibility (1/GPa) = 0.03459212
#
# Stress axis : x y z
#
# Youngs Moduli (GPa) = 49.57341 49.57341 133.90418
#
# Poissons Ratio (x) = -0.19424 0.70489
# Poissons Ratio (y) = -0.19424 0.70489
# Poissons Ratio (z) = 0.26096 0.26096
#
# Static dielectric constant tensor:
#      x y z
#    x 1.650810 0.000000 0.000000 
#    y 0.000000 1.650810 0.000000 
#    z 0.000000 0.000000 1.645240 
# 
# From -- ./inp_files/1307.got.cif
#   From: 2010.05.17/outbox.cif.g08.bks.cpg/sg159_cif.got.tgz:1307.got - 2010.05.20 10:50:30.
