data_PCOD9577050
_publ_section_title
;
Structure prediction by ZEFSAII (Michael W. Deem and Ramdas Pophale) SiO2 
 PCOD9577050
Probable space group: R 3 2
;
_chemical_formula_sum "Si O2"
_cell_formula_units_Z 108
_cell_length_a 14.781295
_cell_length_b 14.781295
_cell_length_c 27.700410
_cell_angle_alpha 90.000000
_cell_angle_beta 90.000000
_cell_angle_gamma 120.000000
_cell_volume 5241.333546
_symmetry_space_group_name_H-M "R 3 2"
_symmetry_group_IT_number 155
_symmetry_cell_setting 'hexagonal'
loop_
_space_group_symop_operation_xyz
x,y,z
-y,x-y,z
-x+y,-x,z
x-y,-y,-z
-x,-x+y,-z
y,x,-z
2/3+x,1/3+y,1/3+z
2/3-y,1/3+x-y,1/3+z
2/3-x+y,1/3-x,1/3+z
2/3+x-y,1/3-y,1/3-z
2/3-x,1/3-x+y,1/3-z
2/3+y,1/3+x,1/3-z
1/3+x,2/3+y,2/3+z
1/3-y,2/3+x-y,2/3+z
1/3-x+y,2/3-x,2/3+z
1/3+x-y,2/3-y,2/3-z
1/3-x,2/3-x+y,2/3-z
1/3+y,2/3+x,2/3-z
loop_
_atom_site_type_symbol
_atom_site_label
_atom_site_fract_x
_atom_site_fract_y
_atom_site_fract_z
Si Si1 0.908323 0.767636 0.345189
Si Si2 0.982287 0.499637 0.227363
Si Si3 0.404792 0.412652 0.588113
Si Si4 0.951209 0.275951 0.223266
Si Si5 0.578034 0.464992 0.978863
Si Si6 0.332283 0.176856 0.554037
O O1 0.901703 0.739179 0.401273
O O2 0.910192 0.681182 0.311111
O O3 0.812675 0.786588 0.337217
O O4 0.015942 0.873460 0.336531
O O5 0.906102 0.546810 0.238934
O O6 0.949695 0.380206 0.241329
O O7 0.013034 0.518903 0.170787
O O8 0.511571 0.504211 0.566391
O O9 0.378619 0.297459 0.569622
O O10 0.960371 0.293705 0.166667
O O11 0.054531 0.268068 0.234583
O O12 0.562527 0.460841 0.920790
O O13 0.498043 0.498043 0.000000
#
# Coordination Sequence:
#
# PCOD9577050 Si02
#       6
#    18  18  18  18  18  18
#     4  12  25  39  66  96 134 173 229 274 345 409
#     4  11  23  41  67  97 130 179 225 282 342 408
#     4  12  24  43  68  98 138 184 229 287 349 411
#     4  10  23  43  67  99 133 176 232 283 345 413
#     4  12  23  43  62  97 134 175 219 277 338 408
#     4  11  22  42  69  94 135 176 223 281 347 407
#
# _framework density 20.605443000000001
#
# number of rings (size 3 to 8) (size 9 to 14) (size 15 to 20)
#    0.000    0.667    5.000    3.333    0.000    0.000 
#    2.000    0.000    0.000    2.000    0.000    0.000 
#    0.000    0.000    0.000    0.000    0.000    0.000 
#
# Total GULP energy -200483.827741 kJ/mol
# GULP energy per Si atom -5568.995215 kJ/mol
# Density = 2.055854 g / cm^3
# Si number density = 20.605443 Si / 1000 Ang^3
#
#
#
# Elastic Constant Matrix: (Units=GPa)
#
#
# Indices 1 2 3 4 5 6 
#
# 1 104.0410 41.3368 16.5326 3.3821 0.0007 0.0000
# 2 41.3368 104.0410 16.5326 -3.3821 -0.0007 0.0000
# 3 16.5326 16.5326 117.0506 0.0000 0.0000 0.0000
# 4 3.3821 -3.3821 0.0000 29.9238 0.0000 -0.0007
# 5 0.0007 -0.0007 0.0000 0.0000 29.9238 3.3821
# 6 0.0000 0.0000 0.0000 -0.0007 3.3821 31.3521
#
#
#
# Elastic Compliance Matrix: (Units=1/GPa)
#
#
# Indices 1 2 3 4 5 6 
#
# 1 0.011626 -0.004519 -0.001004 -0.001825 0.000000 0.000000
# 2 -0.004519 0.011626 -0.001004 0.001825 0.000000 0.000000
# 3 -0.001004 -0.001004 0.008827 0.000000 0.000000 0.000000
# 4 -0.001825 0.001825 0.000000 0.033831 0.000000 0.000001
# 5 0.000000 0.000000 0.000000 0.000000 0.033831 -0.003649
# 6 0.000000 0.000000 0.000000 0.000001 -0.003649 0.032289
#
#
# Mechanical properties :
#
#
# Convention : Reuss Voigt Hill
#
# Bulk Modulus (GPa) = 52.56097 52.65963 52.61030
# Shear Modulus (GPa) = 33.01981 34.95532 33.98756
#
# Velocity S-wave (km/s) = 4.00744 4.12322 4.06574
# Velocity P-wave (km/s) = 6.85394 6.94835 6.90131
#
# Compressibility (1/GPa) = 0.01902552
#
# Stress axis : x y z
#
# Youngs Moduli (GPa) = 86.01536 86.01536 113.29042
#
# Poissons Ratio (x) = 0.38869 0.11372
# Poissons Ratio (y) = 0.38869 0.11372
# Poissons Ratio (z) = 0.08634 0.08634
#
# Static dielectric constant tensor:
#      x y z
#    x 1.755380 0.000000 0.000000 
#    y 0.000000 1.755380 0.000000 
#    z 0.000000 0.000000 1.824860 
# 
# From -- ./inp_files/8413.got.cif
#   From: 2010.05.17/outbox.cif.g08.bks.cpg/sg155_5_cif.got.tgz:8413.got - 2010.05.20 10:44:35.
