data_PCOD9577382
_publ_section_title
;
Structure prediction by ZEFSAII (Michael W. Deem and Ramdas Pophale) SiO2 
 PCOD9577382
Probable space group: P 3 1 C
;
_chemical_formula_sum "Si O2"
_cell_formula_units_Z 28
_cell_length_a 14.141185
_cell_length_b 14.141185
_cell_length_c 8.548243
_cell_angle_alpha 90.000000
_cell_angle_beta 90.000000
_cell_angle_gamma 120.000000
_cell_volume 1480.400076
_symmetry_space_group_name_H-M "P 3 1 C"
_symmetry_group_IT_number 159
_symmetry_cell_setting 'hexagonal'
loop_
_space_group_symop_operation_xyz
x,y,z
-y,x-y,z
-x+y,-x,z
y,x,1/2+z
x-y,-y,1/2+z
-x,-x+y,1/2+z
loop_
_atom_site_type_symbol
_atom_site_label
_atom_site_fract_x
_atom_site_fract_y
_atom_site_fract_z
Si Si1 0.119058 0.669376 0.439260
Si Si2 0.881208 0.120298 0.814395
Si Si3 0.120297 0.881207 0.940481
Si Si4 0.550318 0.880944 0.815616
Si Si5 0.666668 0.333335 0.317821
Si Si6 0.666668 0.333334 0.937064
O O1 0.141524 0.786263 0.376794
O O2 0.115612 0.670828 0.627438
O O3 0.216512 0.649403 0.387842
O O4 0.000001 0.580905 0.377437
O O5 0.880225 0.118715 0.627438
O O6 0.000000 0.206179 0.877438
O O7 0.848122 0.000000 0.877439
O O8 0.141523 0.786263 0.878082
O O9 0.432892 0.783490 0.867040
O O10 0.666668 0.333334 0.127443
#
# Coordination Sequence:
#
# PCOD9577382 Si02
#       6
#     6   6   6   6   2   2
#     4  10  20  38  58  82 112 146 184 230 277 327
#     4  11  21  35  54  81 113 149 187 231 278 330
#     4  11  21  35  54  81 113 149 187 231 278 330
#     4  10  20  38  58  82 112 146 184 230 277 327
#     4   9  21  39  61  83 112 147 184 227 277 327
#     4   9  21  39  61  83 112 147 184 227 277 327
#
# _framework density 18.913806000000001
#
# number of rings (size 3 to 8) (size 9 to 14) (size 15 to 20)
#    0.000    1.714    0.000    8.143    0.000    1.714 
#    0.000   12.857    0.000    0.000    0.000    0.000 
#    0.000    0.000    0.000    0.000    0.000    0.000 
#
# Total GULP energy -156459.053509 kJ/mol
# GULP energy per Si atom -5587.823340 kJ/mol
# Density = 1.887076 g / cm^3
# Si number density = 18.913806 Si / 1000 Ang^3
#
#
#
# Elastic Constant Matrix: (Units=GPa)
#
#
# Indices 1 2 3 4 5 6 
#
# 1 132.8765 102.1362 40.2869 -0.0003 -0.0008 0.0002
# 2 102.1362 132.8778 40.2870 -0.0002 0.0005 0.0010
# 3 40.2869 40.2870 124.2567 -0.0003 -0.0002 0.0001
# 4 -0.0003 -0.0002 -0.0003 -1.8911 0.0025 0.0007
# 5 -0.0008 0.0005 -0.0002 0.0025 -1.8940 0.0000
# 6 0.0002 0.0010 0.0001 0.0007 0.0000 15.3709
#
#
#
# Elastic Compliance Matrix: (Units=1/GPa)
#
#
# Indices 1 2 3 4 5 6 
#
# 1 0.018659 -0.013871 -0.001552 -0.000001 -0.000011 0.000001
# 2 -0.013871 0.018658 -0.001552 0.000000 0.000011 -0.000001
# 3 -0.001552 -0.001552 0.009054 -0.000001 -0.000001 0.000000
# 4 -0.000001 0.000000 -0.000001 -0.528795 -0.000696 0.000024
# 5 -0.000011 0.000011 -0.000001 -0.000696 -0.527992 0.000001
# 6 0.000001 -0.000001 0.000000 0.000024 0.000001 0.065058
#
#
# Mechanical properties :
#
#
# Convention : Reuss Voigt Hill
#
# Bulk Modulus (GPa) = 80.51365 83.93680 82.22523
# Shear Modulus (GPa) = -5.51107 16.13722 5.31308
#
# Velocity S-wave (km/s) = -1.70883 2.92412 1.67786
# Velocity P-wave (km/s) = 6.22637 7.47500 6.87907
#
# Compressibility (1/GPa) = 0.01242025
#
# Stress axis : x y z
#
# Youngs Moduli (GPa) = 53.59439 53.59498 110.44443
#
# Poissons Ratio (x) = 0.74343 0.17143
# Poissons Ratio (y) = 0.74343 0.17142
# Poissons Ratio (z) = 0.08319 0.08319
#
# Static dielectric constant tensor:
#      x y z
#    x 1.644570 0.000000 0.000000 
#    y 0.000000 1.644570 0.000000 
#    z 0.000000 0.000000 1.639070 
# 
# From -- ./inp_files/369.got.cif
#   From: 2010.05.17/outbox.cif.g08.bks.cpg/sg159_cif.got.tgz:369.got - 2010.05.20 10:50:30.
