data_PCOD9577299
_publ_section_title
;
Structure prediction by ZEFSAII (Michael W. Deem and Ramdas Pophale) SiO2 
 PCOD9577299
Probable space group: P 3 C 1
;
_chemical_formula_sum "Si O2"
_cell_formula_units_Z 36
_cell_length_a 8.705150
_cell_length_b 8.705150
_cell_length_c 26.811459
_cell_angle_alpha 90.000000
_cell_angle_beta 90.000000
_cell_angle_gamma 120.000000
_cell_volume 1759.558041
_symmetry_space_group_name_H-M "P 3 C 1"
_symmetry_group_IT_number 158
_symmetry_cell_setting 'hexagonal'
loop_
_space_group_symop_operation_xyz
x,y,z
-y,x-y,z
-x+y,-x,z
-x+y,y,1/2+z
x,x-y,1/2+z
-y,-x,1/2+z
loop_
_atom_site_type_symbol
_atom_site_label
_atom_site_fract_x
_atom_site_fract_y
_atom_site_fract_z
Si Si1 0.097040 0.548520 0.517810
Si Si2 0.025174 0.210250 0.767810
Si Si3 0.009036 0.327033 0.657552
Si Si4 0.647107 0.008637 0.618392
Si Si5 0.361530 0.352892 0.917228
Si Si6 0.009036 0.327033 0.878068
O O1 0.239159 0.478317 0.517810
O O2 0.982998 0.439302 0.470195
O O3 0.982998 0.543695 0.565425
O O4 0.032988 0.296194 0.715147
O O5 0.032989 0.296195 0.820473
O O6 0.177038 0.156177 0.767810
O O7 0.188723 0.371876 0.628119
O O8 0.847518 0.156704 0.630655
O O9 0.971201 0.487922 0.656089
O O10 0.512078 0.483278 0.879531
O O11 0.309185 0.152481 0.904964
O O12 0.188723 0.371877 0.907500
#
# Coordination Sequence:
#
# PCOD9577299 Si02
#       6
#     6   6   6   6   6   6
#     4  10  20  44  70  96 140 178 234 296 356 430
#     4  10  20  42  70 104 142 186 234 296 362 446
#     4  12  24  43  73 101 148 186 241 297 367 431
#     4  12  24  45  70 109 140 194 235 307 359 439
#     4  12  24  45  70 109 140 194 235 307 359 439
#     4  12  24  43  73 101 148 186 241 297 367 431
#
# _framework density 20.459682000000001
#
# number of rings (size 3 to 8) (size 9 to 14) (size 15 to 20)
#    0.667    0.000    6.667    2.000    0.000    4.000 
#    0.000    0.000    0.000    0.000    0.000    0.000 
#    0.000    0.000    0.000    0.000    0.000    0.000 
#
# Total GULP energy -200573.631525 kJ/mol
# GULP energy per Si atom -5571.489765 kJ/mol
# Density = 2.041311 g / cm^3
# Si number density = 20.459682 Si / 1000 Ang^3
#
#
#
# Elastic Constant Matrix: (Units=GPa)
#
#
# Indices 1 2 3 4 5 6 
#
# 1 53.1782 -15.8914 23.4394 0.0000 0.0000 0.0000
# 2 -15.8914 53.1782 23.4394 0.0000 0.0000 0.0000
# 3 23.4394 23.4394 184.4161 0.0000 0.0000 0.0000
# 4 0.0000 0.0000 0.0000 19.8452 0.0000 0.0000
# 5 0.0000 0.0000 0.0000 0.0000 19.8452 0.0000
# 6 0.0000 0.0000 0.0000 0.0000 0.0000 34.5348
#
#
#
# Elastic Compliance Matrix: (Units=1/GPa)
#
#
# Indices 1 2 3 4 5 6 
#
# 1 0.023199 0.008721 -0.004057 0.000000 0.000000 0.000000
# 2 0.008721 0.023199 -0.004057 0.000000 0.000000 0.000000
# 3 -0.004057 -0.004057 0.006454 0.000000 0.000000 0.000000
# 4 0.000000 0.000000 0.000000 0.050390 0.000000 0.000000
# 5 0.000000 0.000000 0.000000 0.000000 0.050390 0.000000
# 6 0.000000 0.000000 0.000000 0.000000 0.000000 0.028956
#
#
# Mechanical properties :
#
#
# Convention : Reuss Voigt Hill
#
# Bulk Modulus (GPa) = 18.49612 39.19413 28.84513
# Shear Modulus (GPa) = 25.07569 32.16405 28.61987
#
# Velocity S-wave (km/s) = 3.50468 3.96924 3.74417
# Velocity P-wave (km/s) = 5.04350 6.34072 5.72895
#
# Compressibility (1/GPa) = 0.05406538
#
# Stress axis : x y z
#
# Youngs Moduli (GPa) = 43.10532 43.10532 154.94703
#
# Poissons Ratio (x) = -0.37591 0.62862
# Poissons Ratio (y) = -0.37591 0.62862
# Poissons Ratio (z) = 0.17488 0.17488
#
# Static dielectric constant tensor:
#      x y z
#    x 1.726800 0.000000 0.000000 
#    y 0.000000 1.726800 0.000000 
#    z 0.000000 0.000000 1.890250 
# 
# From -- ./inp_files/765.got.cif
#   From: 2010.05.17/outbox.cif.g08.bks.cpg/sg158_cif.got.tgz:765.got - 2010.05.20 10:49:59.
