data_PCOD9577735
_publ_section_title
;
Structure prediction by ZEFSAII (Michael W. Deem and Ramdas Pophale) SiO2 
 PCOD9577735
Probable space group: P -3 1 M 
;
_chemical_formula_sum "Si O2"
_cell_formula_units_Z 84
_cell_length_a 20.942202
_cell_length_b 20.942202
_cell_length_c 12.885927
_cell_angle_alpha 90.000000
_cell_angle_beta 90.000000
_cell_angle_gamma 120.000000
_cell_volume 4894.304516
_symmetry_space_group_name_H-M "P -3 1 M "
_symmetry_group_IT_number 162
_symmetry_cell_setting 'hexagonal'
loop_
_space_group_symop_operation_xyz
x,y,z
-y,x-y,z
-x+y,-x,z
-y,-x,-z
-x+y,y,-z
x,x-y,-z
-x,-y,-z
y,-x+y,-z
x-y,x,-z
y,x,z
x-y,-y,z
-x,-x+y,z
loop_
_atom_site_type_symbol
_atom_site_label
_atom_site_fract_x
_atom_site_fract_y
_atom_site_fract_z
Si Si1 0.862612 0.289960 0.887513
Si Si2 0.322025 0.086703 0.297118
Si Si3 0.291725 0.850324 0.121065
Si Si4 0.499782 0.413794 0.398847
Si Si5 0.283326 0.368685 0.479677
Si Si6 0.911004 0.454978 0.824042
Si Si7 0.210609 0.918936 0.732260
O O1 0.774778 0.234452 0.869149
O O2 0.889442 0.375362 0.869711
O O3 0.903665 0.263133 0.808102
O O4 0.876431 0.280669 0.008035
O O5 0.386275 0.105378 0.214461
O O6 0.358142 0.115248 0.411288
O O7 0.281111 0.130020 0.259488
O O8 0.267435 0.000000 0.303285
O O9 0.375118 0.866902 0.126895
O O10 0.544438 0.455563 0.500000
O O11 0.443278 0.443278 0.372322
O O12 0.450014 0.328674 0.430483
O O13 0.549343 0.437135 0.297045
O O14 0.343705 0.343705 0.506042
O O15 0.235045 0.317013 0.386399
O O16 0.000000 0.509977 0.834074
O O17 0.224759 0.000000 0.754491
#
# Coordination Sequence:
#
# PCOD9577735 Si02
#       7
#    12  12  12  12  12  12  12
#     4  10  21  37  52  74 104 138 175 212 261 313
#     4  10  20  33  51  76 105 135 168 211 262 312
#     4  10  22  36  51  74 107 138 171 215 262 310
#     4   9  16  26  45  74 104 130 163 208 255 300
#     4   9  16  29  47  71 101 131 165 204 251 303
#     4  11  20  33  55  79 101 133 178 222 259 301
#     4  10  19  33  53  75 101 133 169 211 258 311
#
# _framework density 17.162807000000001
#
# number of rings (size 3 to 8) (size 9 to 14) (size 15 to 20)
#    0.000    2.143    1.429    2.571    0.000    5.143 
#    0.857    0.000    0.000    0.286    0.000    0.000 
#    0.000    3.429    0.000    7.143    0.000    0.000 
#
# Total GULP energy -467924.076323 kJ/mol
# GULP energy per Si atom -5570.524718 kJ/mol
# Density = 1.712374 g / cm^3
# Si number density = 17.162807 Si / 1000 Ang^3
#
#
#
# Elastic Constant Matrix: (Units=GPa)
#
#
# Indices 1 2 3 4 5 6 
#
# 1 48.6559 17.4796 12.9157 -0.0003 2.8060 0.0000
# 2 17.4796 48.6559 12.9157 0.0003 -2.8060 0.0000
# 3 12.9157 12.9157 104.0130 0.0000 0.0000 0.0000
# 4 -0.0003 0.0003 0.0000 8.7951 0.0000 -2.8060
# 5 2.8060 -2.8060 0.0000 0.0000 8.7951 -0.0003
# 6 0.0000 0.0000 0.0000 -2.8060 -0.0003 15.5881
#
#
#
# Elastic Compliance Matrix: (Units=1/GPa)
#
#
# Indices 1 2 3 4 5 6 
#
# 1 0.024961 -0.009069 -0.001973 0.000001 -0.010857 0.000000
# 2 -0.009069 0.024961 -0.001973 -0.000001 0.010857 0.000000
# 3 -0.001973 -0.001973 0.010104 0.000000 0.000000 0.000000
# 4 0.000001 -0.000001 0.000000 0.120627 0.000000 0.021714
# 5 -0.010857 0.010857 0.000000 0.000000 0.120627 0.000002
# 6 0.000000 0.000000 0.000000 0.021714 0.000002 0.068060
#
#
# Mechanical properties :
#
#
# Convention : Reuss Voigt Hill
#
# Bulk Modulus (GPa) = 29.41735 31.99408 30.70571
# Shear Modulus (GPa) = 12.29397 17.16992 14.73195
#
# Velocity S-wave (km/s) = 2.67931 3.16636 2.93296
# Velocity P-wave (km/s) = 5.17194 5.66125 5.42212
#
# Compressibility (1/GPa) = 0.03399354
#
# Stress axis : x y z
#
# Youngs Moduli (GPa) = 40.06316 40.06316 98.96834
#
# Poissons Ratio (x) = 0.36335 0.19529
# Poissons Ratio (y) = 0.36335 0.19529
# Poissons Ratio (z) = 0.07906 0.07906
#
# Static dielectric constant tensor:
#      x y z
#    x 1.590880 0.000000 0.000000 
#    y 0.000000 1.590880 0.000000 
#    z 0.000000 0.000000 1.624210 
# 
# From -- ./inp_files/2507.got.cif
#   From: 2010.05.17/outbox.cif.g08.bks.cpg/sg162_2_cif.got.tgz:2507.got - 2010.05.20 10:53:12.
