data_PCOD9577090
_publ_section_title
;
Structure prediction by ZEFSAII (Michael W. Deem and Ramdas Pophale) SiO2 
 PCOD9577090
Probable space group: R 3 2
;
_chemical_formula_sum "Si O2"
_cell_formula_units_Z 63
_cell_length_a 17.145759
_cell_length_b 17.145759
_cell_length_c 11.264929
_cell_angle_alpha 90.000000
_cell_angle_beta 90.000000
_cell_angle_gamma 120.000000
_cell_volume 2867.956240
_symmetry_space_group_name_H-M "R 3 2"
_symmetry_group_IT_number 155
_symmetry_cell_setting 'hexagonal'
loop_
_space_group_symop_operation_xyz
x,y,z
-y,x-y,z
-x+y,-x,z
x-y,-y,-z
-x,-x+y,-z
y,x,-z
2/3+x,1/3+y,1/3+z
2/3-y,1/3+x-y,1/3+z
2/3-x+y,1/3-x,1/3+z
2/3+x-y,1/3-y,1/3-z
2/3-x,1/3-x+y,1/3-z
2/3+y,1/3+x,1/3-z
1/3+x,2/3+y,2/3+z
1/3-y,2/3+x-y,2/3+z
1/3-x+y,2/3-x,2/3+z
1/3+x-y,2/3-y,2/3-z
1/3-x,2/3-x+y,2/3-z
1/3+y,2/3+x,2/3-z
loop_
_atom_site_type_symbol
_atom_site_label
_atom_site_fract_x
_atom_site_fract_y
_atom_site_fract_z
Si Si1 0.995402 0.767040 0.142826
Si Si2 0.333334 0.768402 0.166667
Si Si3 0.239876 0.066295 0.899847
Si Si4 0.908378 0.404998 0.625102
O O1 0.979765 0.666667 0.166667
O O2 0.086639 0.858759 0.170936
O O3 0.787358 0.667158 0.969594
O O4 0.000000 0.778009 0.000000
O O5 0.248938 0.666667 0.166667
O O6 0.350641 0.828313 0.282083
O O7 0.238103 0.999627 0.800985
O O8 0.232129 0.146674 0.215100
O O9 0.167063 0.000000 0.000000
#
# Coordination Sequence:
#
# PCOD9577090 Si02
#       4
#    18   9  18  18
#     4  12  24  51  76 111 158 205 268 325 401 488
#     4  10  26  50  68 108 160 196 264 320 402 492
#     4  12  26  47  79 114 155 200 264 333 393 479
#     4  12  26  49  78 113 154 208 262 330 403 481
#
# _framework density 21.966861999999999
#
# number of rings (size 3 to 8) (size 9 to 14) (size 15 to 20)
#    0.286    0.000    5.714    2.571    4.000    1.143 
#    6.857    1.429    0.000    0.000    0.000    0.000 
#    0.000    0.000    0.000    0.000    0.000    0.000 
#
# Total GULP energy -117188.063730 kJ/mol
# GULP energy per Si atom -5580.383987 kJ/mol
# Density = 2.191686 g / cm^3
# Si number density = 21.966862 Si / 1000 Ang^3
#
#
#
# Elastic Constant Matrix: (Units=GPa)
#
#
# Indices 1 2 3 4 5 6 
#
# 1 139.2841 83.9598 66.5750 -5.7567 0.0003 0.0000
# 2 83.9598 139.2841 66.5750 5.7567 -0.0003 0.0000
# 3 66.5750 66.5750 143.0123 0.0000 0.0000 0.0000
# 4 -5.7567 5.7567 0.0000 36.2615 0.0000 -0.0003
# 5 0.0003 -0.0003 0.0000 0.0000 36.2615 -5.7567
# 6 0.0000 0.0000 0.0000 -0.0003 -5.7567 27.6622
#
#
#
# Elastic Compliance Matrix: (Units=1/GPa)
#
#
# Indices 1 2 3 4 5 6 
#
# 1 0.012447 -0.006246 -0.002887 0.002968 0.000000 0.000000
# 2 -0.006246 0.012447 -0.002887 -0.002968 0.000000 0.000000
# 3 -0.002887 -0.002887 0.009680 0.000000 0.000000 0.000000
# 4 0.002968 -0.002968 0.000000 0.028520 0.000000 0.000000
# 5 0.000000 0.000000 0.000000 0.000000 0.028520 0.005935
# 6 0.000000 0.000000 0.000000 0.000000 0.005935 0.037386
#
#
# Mechanical properties :
#
#
# Convention : Reuss Voigt Hill
#
# Bulk Modulus (GPa) = 94.91832 95.08890 95.00361
# Shear Modulus (GPa) = 31.93875 33.66841 32.80358
#
# Velocity S-wave (km/s) = 3.81721 3.91921 3.86854
# Velocity P-wave (km/s) = 7.92033 7.99135 7.95592
#
# Compressibility (1/GPa) = 0.01053537
#
# Stress axis : x y z
#
# Youngs Moduli (GPa) = 80.34069 80.34069 103.30472
#
# Poissons Ratio (x) = 0.50179 0.29822
# Poissons Ratio (y) = 0.50179 0.29822
# Poissons Ratio (z) = 0.23192 0.23192
#
# Static dielectric constant tensor:
#      x y z
#    x 1.848420 0.000000 0.000000 
#    y 0.000000 1.848420 0.000000 
#    z 0.000000 0.000000 1.672190 
# 
# From -- ./inp_files/2367.got.cif
#   From: 2010.05.17/outbox.cif.g08.bks.cpg/sg155_2_cif.got.tgz:2367.got - 2010.05.20 10:44:35.
