data_PCOD9577525
_publ_section_title
;
Structure prediction by ZEFSAII (Michael W. Deem and Ramdas Pophale) SiO2 
 PCOD9577525
Probable space group: R 3 C
;
_chemical_formula_sum "Si O2"
_cell_formula_units_Z 144
_cell_length_a 21.201217
_cell_length_b 21.201217
_cell_length_c 18.881377
_cell_angle_alpha 90.000000
_cell_angle_beta 90.000000
_cell_angle_gamma 120.000000
_cell_volume 7349.975270
_symmetry_space_group_name_H-M "R 3 C"
_symmetry_group_IT_number 161
_symmetry_cell_setting 'hexagonal'
loop_
_space_group_symop_operation_xyz
x,y,z
-y,x-y,z
-x+y,-x,z
-x+y,y,1/2+z
x,x-y,1/2+z
-y,-x,1/2+z
2/3+x,1/3+y,1/3+z
2/3-y,1/3+x-y,1/3+z
2/3-x+y,1/3-x,1/3+z
2/3-x+y,1/3+y,5/6+z
2/3+x,1/3+x-y,5/6+z
2/3-y,1/3-x,5/6+z
1/3+x,2/3+y,2/3+z
1/3-y,2/3+x-y,2/3+z
1/3-x+y,2/3-x,2/3+z
1/3-x+y,2/3+y,1/6+z
1/3+x,2/3+x-y,1/6+z
1/3-y,2/3-x,1/6+z
loop_
_atom_site_type_symbol
_atom_site_label
_atom_site_fract_x
_atom_site_fract_y
_atom_site_fract_z
Si Si1 0.903258 0.753401 0.777900
Si Si2 0.052533 0.457623 0.424076
Si Si3 0.919814 0.543606 0.716932
Si Si4 0.504920 0.922507 0.150250
Si Si5 0.138557 0.425976 0.320975
Si Si6 0.699364 0.967710 0.613141
Si Si7 0.056465 0.271453 0.273474
Si Si8 0.885959 0.306783 0.847468
O O1 0.864431 0.764074 0.846370
O O2 0.876477 0.667225 0.776769
O O3 0.871238 0.768202 0.704833
O O4 0.989281 0.796034 0.791543
O O5 0.086018 0.437448 0.489988
O O6 0.105144 0.469948 0.358748
O O7 0.052301 0.530854 0.437197
O O8 0.976172 0.383356 0.417033
O O9 0.872346 0.542963 0.783228
O O10 0.008059 0.592446 0.720563
O O11 0.418708 0.892697 0.150468
O O12 0.532704 0.942582 0.230487
O O13 0.073740 0.341051 0.321465
O O14 0.144279 0.446643 0.237864
O O15 0.718590 0.965992 0.694660
O O16 0.611716 0.930001 0.619122
#
# Coordination Sequence:
#
# PCOD9577525 Si02
#       8
#    18  18  18  18  18  18  18  18
#     4  10  21  34  52  81 112 144 182 227 277 332
#     4  10  19  32  51  75 103 140 176 218 271 322
#     4   9  19  32  49  74 107 141 180 219 265 325
#     4  11  19  32  52  78 115 151 178 224 283 333
#     4  10  19  35  54  77 112 141 181 228 264 329
#     4  10  20  31  48  79 111 141 182 220 265 337
#     4  11  20  33  55  78 108 145 176 221 281 325
#     4   9  19  33  51  78 110 149 181 219 280 325
#
# _framework density 19.591902999999999
#
# number of rings (size 3 to 8) (size 9 to 14) (size 15 to 20)
#    0.000    2.000    0.000    6.750    0.000    2.000 
#    0.000    0.000    0.000    4.000    0.000    0.000 
#    0.000   16.000    0.000    0.000    0.000    0.000 
#
# Total GULP energy -267543.441012 kJ/mol
# GULP energy per Si atom -5573.821688 kJ/mol
# Density = 1.954731 g / cm^3
# Si number density = 19.591903 Si / 1000 Ang^3
#
#
#
# Elastic Constant Matrix: (Units=GPa)
#
#
# Indices 1 2 3 4 5 6 
#
# 1 67.5187 32.5386 10.5068 2.9082 0.0000 0.0000
# 2 32.5386 67.5187 10.5068 -2.9082 0.0000 0.0000
# 3 10.5068 10.5068 43.5841 0.0000 0.0000 0.0000
# 4 2.9082 -2.9082 0.0000 24.9642 0.0000 0.0000
# 5 0.0000 0.0000 0.0000 0.0000 24.9642 2.9082
# 6 0.0000 0.0000 0.0000 0.0000 2.9082 17.4900
#
#
#
# Elastic Compliance Matrix: (Units=1/GPa)
#
#
# Indices 1 2 3 4 5 6 
#
# 1 0.019840 -0.009313 -0.002538 -0.003396 0.000000 0.000000
# 2 -0.009313 0.019840 -0.002538 0.003396 0.000000 0.000000
# 3 -0.002538 -0.002538 0.024168 0.000000 0.000000 0.000000
# 4 -0.003396 0.003396 0.000000 0.040849 0.000000 0.000000
# 5 0.000000 0.000000 0.000000 0.000000 0.040849 -0.006792
# 6 0.000000 0.000000 0.000000 0.000000 -0.006792 0.058305
#
#
# Mechanical properties :
#
#
# Convention : Reuss Voigt Hill
#
# Bulk Modulus (GPa) = 28.51354 31.74730 30.13042
# Shear Modulus (GPa) = 20.46528 21.82162 21.14345
#
# Velocity S-wave (km/s) = 3.23550 3.34100 3.28867
# Velocity P-wave (km/s) = 5.34259 5.57875 5.46195
#
# Compressibility (1/GPa) = 0.03507106
#
# Stress axis : x y z
#
# Youngs Moduli (GPa) = 50.40368 50.40368 41.37748
#
# Poissons Ratio (x) = 0.46939 0.10501
# Poissons Ratio (y) = 0.46939 0.10501
# Poissons Ratio (z) = 0.12791 0.12791
#
# Static dielectric constant tensor:
#      x y z
#    x 1.715730 0.000000 0.000000 
#    y 0.000000 1.715730 0.000000 
#    z 0.000000 0.000000 1.759200 
# 
# From -- ./inp_files/1751.got.cif
#   From: 2010.05.17/outbox.cif.g08.bks.cpg/sg161_cif.got.tgz:1751.got - 2010.05.20 10:52:32.
