data_PCOD9577997
_publ_section_title
;
Structure prediction by ZEFSAII (Michael W. Deem and Ramdas Pophale) SiO2 
 PCOD9577997
Probable space group: P -3 1 C
;
_chemical_formula_sum "Si O2"
_cell_formula_units_Z 82
_cell_length_a 19.603844
_cell_length_b 19.603844
_cell_length_c 11.476248
_cell_angle_alpha 90.000000
_cell_angle_beta 90.000000
_cell_angle_gamma 120.000000
_cell_volume 3819.557323
_symmetry_space_group_name_H-M "P -3 1 C"
_symmetry_group_IT_number 163
_symmetry_cell_setting 'hexagonal'
loop_
_space_group_symop_operation_xyz
x,y,z
-y,x-y,z
-x+y,-x,z
-y,-x,1/2-z
-x+y,y,1/2-z
x,x-y,1/2-z
-x,-y,-z
y,-x+y,-z
x-y,x,-z
y,x,1/2+z
x-y,-y,1/2+z
-x,-x+y,1/2+z
loop_
_atom_site_type_symbol
_atom_site_label
_atom_site_fract_x
_atom_site_fract_y
_atom_site_fract_z
Si Si1 0.498801 0.213126 0.534452
Si Si2 0.886376 0.575999 0.440153
Si Si3 0.841449 0.835880 0.518513
Si Si4 0.718931 0.686069 0.878389
Si Si5 0.933154 0.721905 0.305291
Si Si6 0.333334 0.666668 0.111277
Si Si7 0.801899 0.198102 0.750000
Si Si8 0.335171 0.511637 0.720570
O O1 0.479678 0.282049 0.498544
O O2 0.590133 0.255541 0.566582
O O3 0.447454 0.181320 0.653383
O O4 0.488287 0.161948 0.416952
O O5 0.956337 0.616325 0.534894
O O6 0.887116 0.656553 0.403701
O O7 0.887985 0.532871 0.322710
O O8 0.925404 0.844222 0.497909
O O9 0.771657 0.772067 0.437815
O O10 0.804637 0.803573 0.645498
O O11 0.683311 0.712152 0.774588
O O12 0.773758 0.655138 0.822551
O O13 0.868392 0.736784 0.250000
O O14 0.333334 0.666667 0.250000
O O15 0.397690 0.602311 0.750000
O O16 0.247465 0.494930 0.750000
#
# Coordination Sequence:
#
# PCOD9577997 Si02
#       8
#    12  12  12  12  12   4   6  12
#     4  10  19  34  55  91 133 168 209 258 312 387
#     4   9  21  36  57  87 117 154 212 266 313 367
#     4  11  22  37  56  84 117 154 193 249 323 395
#     4  10  21  38  57  81 114 154 206 266 310 382
#     4  11  20  38  60  84 111 151 208 257 317 375
#     4  12  21  33  58 101 145 177 201 244 332 388
#     4  10  20  36  54  84 124 164 216 254 318 378
#     4  10  18  33  57  92 124 163 204 259 319 377
#
# _framework density 21.468457000000001
#
# number of rings (size 3 to 8) (size 9 to 14) (size 15 to 20)
#    0.000    1.756    2.195    4.244    0.000    0.000 
#    5.268    0.000    0.000    0.878    7.610    0.000 
#    0.000    0.000    0.000    0.000    0.000    0.000 
#
# Total GULP energy -456517.880243 kJ/mol
# GULP energy per Si atom -5567.291222 kJ/mol
# Density = 2.141959 g / cm^3
# Si number density = 21.468457 Si / 1000 Ang^3
#
#
#
# Elastic Constant Matrix: (Units=GPa)
#
#
# Indices 1 2 3 4 5 6 
#
# 1 21.1087 8.2273 13.8122 0.0001 3.2728 -0.0003
# 2 8.2273 21.1083 13.8122 0.0002 -3.2723 -0.0002
# 3 13.8122 13.8122 111.4460 -0.0001 0.0002 0.0001
# 4 0.0001 0.0002 -0.0001 16.9952 -0.0006 -3.2726
# 5 3.2728 -3.2723 0.0002 -0.0006 16.9956 0.0001
# 6 -0.0003 -0.0002 0.0001 -3.2726 0.0001 6.4406
#
#
#
# Elastic Compliance Matrix: (Units=1/GPa)
#
#
# Indices 1 2 3 4 5 6 
#
# 1 0.062322 -0.023730 -0.004783 0.000000 -0.016570 0.000002
# 2 -0.023730 0.062322 -0.004783 0.000000 0.016569 0.000001
# 3 -0.004783 -0.004783 0.010159 0.000000 0.000000 0.000000
# 4 0.000000 0.000000 0.000000 0.065222 0.000002 0.033141
# 5 -0.016570 0.016569 0.000000 0.000002 0.065220 0.000000
# 6 0.000002 0.000001 0.000000 0.033141 0.000000 0.172104
#
#
# Mechanical properties :
#
#
# Convention : Reuss Voigt Hill
#
# Bulk Modulus (GPa) = 14.66047 25.04071 19.85059
# Shear Modulus (GPa) = 9.49348 15.94036 12.71692
#
# Velocity S-wave (km/s) = 2.10515 2.72784 2.43647
# Velocity P-wave (km/s) = 3.57107 4.64874 4.14508
#
# Compressibility (1/GPa) = 0.06821063
#
# Stress axis : x y z
#
# Youngs Moduli (GPa) = 16.04576 16.04559 98.43959
#
# Poissons Ratio (x) = 0.38076 0.47082
# Poissons Ratio (y) = 0.38077 0.47084
# Poissons Ratio (z) = 0.07674 0.07675
#
# Static dielectric constant tensor:
#      x y z
#    x 1.757720 0.000000 0.000000 
#    y 0.000000 1.757720 0.000000 
#    z 0.000000 0.000000 1.993150 
# 
# From -- ./inp_files/1864.got.cif
#   From: 2010.05.17/outbox.cif.g08.bks.cpg/sg163_1_cif.got.tgz:1864.got - 2010.05.20 10:56:03.
