data_PCOD9577142
_publ_section_title
;
Structure prediction by ZEFSAII (Michael W. Deem and Ramdas Pophale) SiO2 
 PCOD9577142
Probable space group: R 3 2
;
_chemical_formula_sum "Si O2"
_cell_formula_units_Z 84
_cell_length_a 15.435543
_cell_length_b 15.435543
_cell_length_c 18.403025
_cell_angle_alpha 90.000000
_cell_angle_beta 90.000000
_cell_angle_gamma 120.000000
_cell_volume 3797.201744
_symmetry_space_group_name_H-M "R 3 2"
_symmetry_group_IT_number 155
_symmetry_cell_setting 'hexagonal'
loop_
_space_group_symop_operation_xyz
x,y,z
-y,x-y,z
-x+y,-x,z
x-y,-y,-z
-x,-x+y,-z
y,x,-z
2/3+x,1/3+y,1/3+z
2/3-y,1/3+x-y,1/3+z
2/3-x+y,1/3-x,1/3+z
2/3+x-y,1/3-y,1/3-z
2/3-x,1/3-x+y,1/3-z
2/3+y,1/3+x,1/3-z
1/3+x,2/3+y,2/3+z
1/3-y,2/3+x-y,2/3+z
1/3-x+y,2/3-x,2/3+z
1/3+x-y,2/3-y,2/3-z
1/3-x,2/3-x+y,2/3-z
1/3+y,2/3+x,2/3-z
loop_
_atom_site_type_symbol
_atom_site_label
_atom_site_fract_x
_atom_site_fract_y
_atom_site_fract_z
Si Si1 0.957203 0.785123 0.349968
Si Si2 0.376130 0.881543 0.816700
Si Si3 0.333334 0.666667 0.328710
Si Si4 0.000000 0.000000 0.162054
Si Si5 0.942311 0.249820 0.285618
Si Si6 0.249819 0.307504 0.214382
O O1 0.959668 0.887962 0.364360
O O2 0.842316 0.702901 0.332830
O O3 0.017038 0.794428 0.275583
O O4 0.017088 0.763255 0.411427
O O5 0.373667 0.778703 0.802316
O O6 0.316246 0.903406 0.755238
O O7 0.316294 0.872243 0.891084
O O8 0.491018 0.963765 0.833837
O O9 0.333334 0.666667 0.416661
O O10 0.033610 0.333334 0.333334
O O11 0.333334 0.299721 0.166667
#
# Coordination Sequence:
#
# PCOD9577142 Si02
#       6
#    18  18   6   6  18  18
#     4  11  24  40  69  94 124 173 213 266 320 396
#     4  11  24  40  69  94 124 173 213 266 320 396
#     4  12  21  42  67  89 124 165 219 250 317 397
#     4  12  21  42  67  89 124 165 219 250 317 397
#     4  11  24  42  64  94 131 164 215 268 327 381
#     4  11  24  42  64  94 131 164 215 268 327 381
#
# _framework density 22.121554
#
# number of rings (size 3 to 8) (size 9 to 14) (size 15 to 20)
#    0.000    0.857    4.286    1.286   12.000    0.000 
#    0.000    0.000    0.000    0.000    0.000    0.000 
#    0.000    0.000    0.000    0.000    0.000    0.000 
#
# Total GULP energy -156559.263312 kJ/mol
# GULP energy per Si atom -5591.402261 kJ/mol
# Density = 2.207120 g / cm^3
# Si number density = 22.121554 Si / 1000 Ang^3
#
#
#
# Elastic Constant Matrix: (Units=GPa)
#
#
# Indices 1 2 3 4 5 6 
#
# 1 120.6772 36.8738 35.7511 -2.6046 0.0000 0.0000
# 2 36.8738 120.6774 35.7512 2.6045 0.0000 0.0000
# 3 35.7511 35.7512 55.8118 -0.0001 0.0000 0.0000
# 4 -2.6046 2.6045 -0.0001 24.3912 0.0000 0.0000
# 5 0.0000 0.0000 0.0000 0.0000 24.3912 -2.6046
# 6 0.0000 0.0000 0.0000 0.0000 -2.6046 41.9016
#
#
#
# Elastic Compliance Matrix: (Units=1/GPa)
#
#
# Indices 1 2 3 4 5 6 
#
# 1 0.010481 -0.001532 -0.005732 0.001283 0.000000 0.000000
# 2 -0.001532 0.010480 -0.005732 -0.001283 0.000000 0.000000
# 3 -0.005732 -0.005732 0.025261 0.000000 0.000000 0.000000
# 4 0.001283 -0.001283 0.000000 0.041272 0.000000 0.000000
# 5 0.000000 0.000000 0.000000 0.000000 0.041272 0.002566
# 6 0.000000 0.000000 0.000000 0.000000 0.002566 0.024025
#
#
# Mechanical properties :
#
#
# Convention : Reuss Voigt Hill
#
# Bulk Modulus (GPa) = 49.43262 57.10207 53.26734
# Shear Modulus (GPa) = 26.95020 30.72283 28.83652
#
# Velocity S-wave (km/s) = 3.49417 3.73073 3.61439
# Velocity P-wave (km/s) = 6.21879 6.66533 6.44593
#
# Compressibility (1/GPa) = 0.02022956
#
# Stress axis : x y z
#
# Youngs Moduli (GPa) = 95.41513 95.41531 39.58662
#
# Poissons Ratio (x) = 0.14617 0.22692
# Poissons Ratio (y) = 0.14617 0.22692
# Poissons Ratio (z) = 0.54694 0.54694
#
# Static dielectric constant tensor:
#      x y z
#    x 1.791330 0.000000 0.000000 
#    y 0.000000 1.791320 0.000000 
#    z 0.000000 0.000000 1.852000 
# 
# From -- ./inp_files/7395.got.cif
#   From: 2010.05.17/outbox.cif.g08.bks.cpg/sg155_4_cif.got.tgz:7395.got - 2010.05.20 10:44:35.
