data_PCOD9577760
_publ_section_title
;
Structure prediction by ZEFSAII (Michael W. Deem and Ramdas Pophale) SiO2 
 PCOD9577760
Probable space group: P -3 1 M 
;
_chemical_formula_sum "Si O2"
_cell_formula_units_Z 46
_cell_length_a 17.988399
_cell_length_b 17.988399
_cell_length_c 8.916743
_cell_angle_alpha 90.000000
_cell_angle_beta 90.000000
_cell_angle_gamma 120.000000
_cell_volume 2498.744812
_symmetry_space_group_name_H-M "P -3 1 M "
_symmetry_group_IT_number 162
_symmetry_cell_setting 'hexagonal'
loop_
_space_group_symop_operation_xyz
x,y,z
-y,x-y,z
-x+y,-x,z
-y,-x,-z
-x+y,y,-z
x,x-y,-z
-x,-y,-z
y,-x+y,-z
x-y,x,-z
y,x,z
x-y,-y,z
-x,-x+y,z
loop_
_atom_site_type_symbol
_atom_site_label
_atom_site_fract_x
_atom_site_fract_y
_atom_site_fract_z
Si Si1 0.746468 0.649015 0.164870
Si Si2 0.333335 0.666668 0.176692
Si Si3 0.899888 0.799775 0.000000
Si Si4 0.524711 0.899017 0.093113
Si Si5 0.254719 0.759967 0.675797
O O1 0.681041 0.681041 0.211951
O O2 0.757873 0.590665 0.284578
O O3 0.836375 0.733264 0.124743
O O4 0.703180 0.589410 0.017254
O O5 0.315614 0.739164 0.240430
O O6 0.333334 0.666667 0.000000
O O7 0.858312 0.858312 0.956420
O O8 0.512755 0.843881 0.242104
O O9 0.570018 0.000000 0.128380
O O10 0.438221 0.876441 0.000000
O O11 0.255343 0.744657 0.500000
#
# Coordination Sequence:
#
# PCOD9577760 Si02
#       5
#    12   4   6  12  12
#     4  10  20  36  57  82 113 152 197 241 288 353
#     4  12  25  41  61  78 109 158 208 249 295 353
#     4  10  19  34  60  90 120 150 196 250 295 344
#     4  10  20  36  59  82 109 151 200 245 290 349
#     4  12  23  36  56  85 120 152 193 248 308 365
#
# _framework density 18.409241999999999
#
# number of rings (size 3 to 8) (size 9 to 14) (size 15 to 20)
#    0.000    1.304    2.609    4.826    0.000    1.043 
#    0.000    0.000    0.000    7.826    0.000    0.000 
#    0.000    5.217    0.000    0.000    0.000    0.000 
#
# Total GULP energy -256703.268660 kJ/mol
# GULP energy per Si atom -5580.505840 kJ/mol
# Density = 1.836734 g / cm^3
# Si number density = 18.409242 Si / 1000 Ang^3
#
#
#
# Elastic Constant Matrix: (Units=GPa)
#
#
# Indices 1 2 3 4 5 6 
#
# 1 123.0498 50.9586 51.9593 0.0001 -2.8216 -0.0004
# 2 50.9586 123.0492 51.9584 0.0003 2.8215 -0.0001
# 3 51.9593 51.9584 139.1624 -0.0007 -0.0009 -0.0004
# 4 0.0001 0.0003 -0.0007 10.4864 -0.0003 2.8217
# 5 -2.8216 2.8215 -0.0009 -0.0003 10.4866 0.0002
# 6 -0.0004 -0.0001 -0.0004 2.8217 0.0002 36.0456
#
#
#
# Elastic Compliance Matrix: (Units=1/GPa)
#
#
# Indices 1 2 3 4 5 6 
#
# 1 0.010783 -0.003387 -0.002761 0.000000 0.003812 0.000000
# 2 -0.003387 0.010783 -0.002761 -0.000001 -0.003813 0.000000
# 3 -0.002761 -0.002761 0.009248 0.000001 0.000001 0.000000
# 4 0.000000 -0.000001 0.000001 0.097414 0.000003 -0.007626
# 5 0.003812 -0.003813 0.000001 0.000003 0.097412 -0.000001
# 6 0.000000 0.000000 0.000000 -0.007626 -0.000001 0.028340
#
#
# Mechanical properties :
#
#
# Convention : Reuss Voigt Hill
#
# Bulk Modulus (GPa) = 76.95758 77.22376 77.09067
# Shear Modulus (GPa) = 18.10743 26.76272 22.43507
#
# Velocity S-wave (km/s) = 3.13965 3.81696 3.49475
# Velocity P-wave (km/s) = 7.41874 7.83997 7.63226
#
# Compressibility (1/GPa) = 0.01299417
#
# Stress axis : x y z
#
# Youngs Moduli (GPa) = 92.73957 92.73938 108.13261
#
# Poissons Ratio (x) = 0.31410 0.29860
# Poissons Ratio (y) = 0.31410 0.29860
# Poissons Ratio (z) = 0.25609 0.25609
#
# Static dielectric constant tensor:
#      x y z
#    x 1.674810 0.000000 0.000000 
#    y 0.000000 1.674810 0.000000 
#    z 0.000000 0.000000 1.588000 
# 
# From -- ./inp_files/1239.got.cif
#   From: 2010.05.17/outbox.cif.g08.bks.cpg/sg162_1_cif.got.tgz:1239.got - 2010.05.20 10:53:12.
