data_PCOD9577398
_publ_section_title
;
Structure prediction by ZEFSAII (Michael W. Deem and Ramdas Pophale) SiO2 
 PCOD9577398
Probable space group: P 3 1 C
;
_chemical_formula_sum "Si O2"
_cell_formula_units_Z 42
_cell_length_a 8.632598
_cell_length_b 8.632598
_cell_length_c 29.375275
_cell_angle_alpha 90.000000
_cell_angle_beta 90.000000
_cell_angle_gamma 120.000000
_cell_volume 1895.813481
_symmetry_space_group_name_H-M "P 3 1 C"
_symmetry_group_IT_number 159
_symmetry_cell_setting 'hexagonal'
loop_
_space_group_symop_operation_xyz
x,y,z
-y,x-y,z
-x+y,-x,z
y,x,1/2+z
x-y,-y,1/2+z
-x,-x+y,1/2+z
loop_
_atom_site_type_symbol
_atom_site_label
_atom_site_fract_x
_atom_site_fract_y
_atom_site_fract_z
Si Si1 0.671348 0.972424 0.883300
Si Si2 0.654733 0.971751 0.058610
Si Si3 0.020355 0.350829 0.417896
Si Si4 0.651283 0.678572 0.522619
Si Si5 0.301344 0.970943 0.697103
Si Si6 0.783341 0.214123 0.290303
Si Si7 0.672762 0.021911 0.662842
O O1 0.702880 0.849590 0.918487
O O2 0.676816 0.882374 0.835352
O O3 0.482815 0.958868 0.895833
O O4 0.821188 0.177238 0.888344
O O5 0.610461 0.912539 0.111068
O O6 0.852294 0.134099 0.047920
O O7 0.625221 0.804110 0.028716
O O8 0.524790 0.046223 0.045225
O O9 0.080863 0.394877 0.469930
O O10 0.204140 0.876910 0.744566
O O11 0.479244 0.963494 0.684360
O O12 0.149971 0.847980 0.661310
O O13 0.350734 0.174339 0.693249
O O14 0.858445 0.428218 0.290580
#
# Coordination Sequence:
#
# PCOD9577398 Si02
#       7
#     6   6   6   6   6   6   6
#     4  12  25  45  73 105 142 184 236 295 358 432
#     4  12  25  43  67 100 143 191 241 295 352 421
#     4  12  24  44  70 103 141 190 240 293 356 424
#     4  12  25  43  67 100 143 191 241 295 352 421
#     4  12  25  45  73 105 142 184 236 295 358 432
#     4  10  20  48  72 100 132 172 224 282 362 418
#     4  12  24  44  70 103 141 190 240 293 356 424
#
# _framework density 22.154076
#
# number of rings (size 3 to 8) (size 9 to 14) (size 15 to 20)
#    0.286    0.000    2.857    7.714    0.000    1.143 
#    0.000    0.000    0.000    0.000    0.000    0.000 
#    0.000    0.000    0.000    0.000    0.000    0.000 
#
# Total GULP energy -234653.861365 kJ/mol
# GULP energy per Si atom -5586.996699 kJ/mol
# Density = 2.210365 g / cm^3
# Si number density = 22.154076 Si / 1000 Ang^3
#
#
#
# Elastic Constant Matrix: (Units=GPa)
#
#
# Indices 1 2 3 4 5 6 
#
# 1 68.7003 -5.8390 15.4519 0.0000 -4.7371 0.0000
# 2 -5.8390 68.7003 15.4519 0.0000 4.7371 0.0000
# 3 15.4519 15.4519 150.7269 0.0000 0.0000 0.0000
# 4 0.0000 0.0000 0.0000 10.8861 0.0000 4.7371
# 5 -4.7371 4.7371 0.0000 0.0000 10.8861 0.0000
# 6 0.0000 0.0000 0.0000 4.7371 0.0000 37.2697
#
#
#
# Elastic Compliance Matrix: (Units=1/GPa)
#
#
# Indices 1 2 3 4 5 6 
#
# 1 0.015477 0.001276 -0.001717 0.000000 0.006180 0.000000
# 2 0.001276 0.015477 -0.001717 0.000000 -0.006180 0.000000
# 3 -0.001717 -0.001717 0.006987 0.000000 0.000000 0.000000
# 4 0.000000 0.000000 0.000000 0.097238 0.000000 -0.012359
# 5 0.006180 -0.006180 0.000000 0.000000 0.097238 0.000000
# 6 0.000000 0.000000 0.000000 -0.012359 0.000000 0.028402
#
#
# Mechanical properties :
#
#
# Convention : Reuss Voigt Hill
#
# Bulk Modulus (GPa) = 29.74264 37.58412 33.66338
# Shear Modulus (GPa) = 18.09332 29.34589 23.71961
#
# Velocity S-wave (km/s) = 2.86090 3.64349 3.27565
# Velocity P-wave (km/s) = 4.93635 5.89082 5.43458
#
# Compressibility (1/GPa) = 0.03362176
#
# Stress axis : x y z
#
# Youngs Moduli (GPa) = 64.61303 64.61303 143.13050
#
# Poissons Ratio (x) = -0.08242 0.24581
# Poissons Ratio (y) = -0.08242 0.24581
# Poissons Ratio (z) = 0.11096 0.11096
#
# Static dielectric constant tensor:
#      x y z
#    x 1.788270 0.000000 0.000000 
#    y 0.000000 1.788270 0.000000 
#    z 0.000000 0.000000 1.870650 
# 
# From -- ./inp_files/1303.got.cif
#   From: 2010.05.17/outbox.cif.g08.bks.cpg/sg159_cif.got.tgz:1303.got - 2010.05.20 10:50:30.
