data_PCOD9577694
_publ_section_title
;
Structure prediction by ZEFSAII (Michael W. Deem and Ramdas Pophale) SiO2 
 PCOD9577694
Probable space group: P -3 1 M 
;
_chemical_formula_sum "Si O2"
_cell_formula_units_Z 76
_cell_length_a 18.529840
_cell_length_b 18.529840
_cell_length_c 14.833858
_cell_angle_alpha 90.000000
_cell_angle_beta 90.000000
_cell_angle_gamma 120.000000
_cell_volume 4410.908894
_symmetry_space_group_name_H-M "P -3 1 M "
_symmetry_group_IT_number 162
_symmetry_cell_setting 'hexagonal'
loop_
_space_group_symop_operation_xyz
x,y,z
-y,x-y,z
-x+y,-x,z
-y,-x,-z
-x+y,y,-z
x,x-y,-z
-x,-y,-z
y,-x+y,-z
x-y,x,-z
y,x,z
x-y,-y,z
-x,-x+y,z
loop_
_atom_site_type_symbol
_atom_site_label
_atom_site_fract_x
_atom_site_fract_y
_atom_site_fract_z
Si Si1 0.521788 0.794715 0.337976
Si Si2 0.464589 0.366078 0.168590
Si Si3 0.095746 0.482303 0.115473
Si Si4 0.908865 0.598404 0.696973
Si Si5 0.370964 0.905033 0.503607
Si Si6 0.354977 0.098055 0.989411
Si Si7 0.333334 0.666668 0.390829
O O1 0.515606 0.851392 0.260537
O O2 0.590586 0.771656 0.304475
O O3 0.549280 0.846377 0.430596
O O4 0.429389 0.715476 0.355663
O O5 0.427331 0.427331 0.186504
O O6 0.550001 0.419820 0.112043
O O7 0.396823 0.291666 0.107642
O O8 0.095414 0.459796 0.220529
O O9 0.000000 0.438897 0.082549
O O10 0.130345 0.432538 0.059597
O O11 0.908891 0.562926 0.598326
O O12 0.000000 0.681361 0.707564
O O13 0.436288 0.872576 0.500000
O O14 0.419861 0.000000 0.539343
O O15 0.290777 0.000000 0.006715
O O16 0.318023 0.159012 0.000000
O O17 0.333334 0.666667 0.500000
#
# Coordination Sequence:
#
# PCOD9577694 Si02
#       7
#    12  12  12  12  12  12   4
#     4  12  21  32  47  67  97 126 159 205 247 285
#     4  10  20  33  51  74  97 126 162 197 240 295
#     4   9  17  32  51  69  92 124 160 197 239 287
#     4  10  20  32  47  65  87 122 164 200 240 290
#     4  10  19  31  47  66  90 123 160 197 241 294
#     4  10  20  34  53  75  99 128 163 203 245 293
#     4  12  24  33  45  69  97 131 169 207 249 288
#
# _framework density 17.230008999999999
#
# number of rings (size 3 to 8) (size 9 to 14) (size 15 to 20)
#    0.000    1.737    0.000    6.632    0.000    4.421 
#    0.000    0.000    0.000    4.579    0.000    0.000 
#    0.000    0.000    0.000    3.789    0.000   30.947 
#
# Total GULP energy -423668.396291 kJ/mol
# GULP energy per Si atom -5574.584162 kJ/mol
# Density = 1.719079 g / cm^3
# Si number density = 17.230009 Si / 1000 Ang^3
#
#
#
# Elastic Constant Matrix: (Units=GPa)
#
#
# Indices 1 2 3 4 5 6 
#
# 1 67.6200 26.4683 20.6591 0.0001 4.3702 -0.0001
# 2 26.4683 67.6199 20.6589 -0.0001 -4.3701 -0.0001
# 3 20.6591 20.6589 61.4091 0.0000 0.0000 -0.0001
# 4 0.0001 -0.0001 0.0000 21.2053 -0.0002 -4.3702
# 5 4.3702 -4.3701 0.0000 -0.0002 21.2056 0.0000
# 6 -0.0001 -0.0001 -0.0001 -4.3702 0.0000 20.5758
#
#
#
# Elastic Compliance Matrix: (Units=1/GPa)
#
#
# Indices 1 2 3 4 5 6 
#
# 1 0.018942 -0.006471 -0.004195 0.000000 -0.005237 0.000000
# 2 -0.006471 0.018942 -0.004195 0.000000 0.005237 0.000000
# 3 -0.004195 -0.004195 0.019107 0.000000 0.000000 0.000000
# 4 0.000000 0.000000 0.000000 0.049317 0.000000 0.010475
# 5 -0.005237 0.005237 0.000000 0.000000 0.049316 0.000000
# 6 0.000000 0.000000 0.000000 0.010475 0.000000 0.050826
#
#
# Mechanical properties :
#
#
# Convention : Reuss Voigt Hill
#
# Bulk Modulus (GPa) = 36.67439 36.91352 36.79395
# Shear Modulus (GPa) = 20.38646 21.18818 20.78732
#
# Velocity S-wave (km/s) = 3.44349 3.51055 3.47718
# Velocity P-wave (km/s) = 6.09439 6.15649 6.12552
#
# Compressibility (1/GPa) = 0.02726698
#
# Stress axis : x y z
#
# Youngs Moduli (GPa) = 52.79358 52.79361 52.33685
#
# Poissons Ratio (x) = 0.34163 0.21957
# Poissons Ratio (y) = 0.34163 0.21957
# Poissons Ratio (z) = 0.22149 0.22149
#
# Static dielectric constant tensor:
#      x y z
#    x 1.625290 0.000000 0.000000 
#    y 0.000000 1.625290 0.000000 
#    z 0.000000 0.000000 1.615170 
# 
# From -- ./inp_files/3114.got.cif
#   From: 2010.05.17/outbox.cif.g08.bks.cpg/sg162_2_cif.got.tgz:3114.got - 2010.05.20 10:53:12.
