data_PCOD9577606
_publ_section_title
;
Structure prediction by ZEFSAII (Michael W. Deem and Ramdas Pophale) SiO2 
 PCOD9577606
Probable space group: R 3 C
;
_chemical_formula_sum "Si O2"
_cell_formula_units_Z 84
_cell_length_a 16.153808
_cell_length_b 16.153808
_cell_length_c 14.030597
_cell_angle_alpha 90.000000
_cell_angle_beta 90.000000
_cell_angle_gamma 120.000000
_cell_volume 3170.710681
_symmetry_space_group_name_H-M "R 3 C"
_symmetry_group_IT_number 161
_symmetry_cell_setting 'hexagonal'
loop_
_space_group_symop_operation_xyz
x,y,z
-y,x-y,z
-x+y,-x,z
-x+y,y,1/2+z
x,x-y,1/2+z
-y,-x,1/2+z
2/3+x,1/3+y,1/3+z
2/3-y,1/3+x-y,1/3+z
2/3-x+y,1/3-x,1/3+z
2/3-x+y,1/3+y,5/6+z
2/3+x,1/3+x-y,5/6+z
2/3-y,1/3-x,5/6+z
1/3+x,2/3+y,2/3+z
1/3-y,2/3+x-y,2/3+z
1/3-x+y,2/3-x,2/3+z
1/3-x+y,2/3+y,1/6+z
1/3+x,2/3+x-y,1/6+z
1/3-y,2/3-x,1/6+z
loop_
_atom_site_type_symbol
_atom_site_label
_atom_site_fract_x
_atom_site_fract_y
_atom_site_fract_z
Si Si1 0.196102 0.723440 0.926400
Si Si2 0.767453 0.777188 0.383353
Si Si3 0.547007 0.424263 0.381180
Si Si4 0.666667 0.333334 0.340601
Si Si5 0.890085 0.292759 0.259193
Si Si6 0.666668 0.333334 0.613910
O O1 0.197494 0.768192 0.824849
O O2 0.279353 0.796216 0.997111
O O3 0.099567 0.674902 0.987675
O O4 0.231618 0.648014 0.909451
O O5 0.787855 0.737027 0.481126
O O6 0.713082 0.690589 0.307768
O O7 0.743011 0.861137 0.412199
O O8 0.579692 0.345431 0.374432
O O9 0.634424 0.515478 0.331670
O O10 0.666668 0.333334 0.227279
#
# Coordination Sequence:
#
# PCOD9577606 Si02
#       6
#    18  18  18   6  18   6
#     4  11  21  42  76 110 143 196 274 338 383 466
#     4  11  24  46  69 110 161 206 253 328 413 488
#     4  11  21  42  76 109 141 195 274 336 385 467
#     4  12  16  35  76 106 134 178 280 350 373 424
#     4  11  24  46  73 112 160 203 258 328 415 489
#     4  12  16  35  76 109 137 178 277 350 367 436
#
# _framework density 26.492484000000001
#
# number of rings (size 3 to 8) (size 9 to 14) (size 15 to 20)
#    0.000    0.857    8.571    1.286    0.000    0.000 
#   15.429    0.000    0.000    0.000    0.000    0.000 
#    0.000    0.000    0.000    0.000    0.000    0.000 
#
# Total GULP energy -156232.404616 kJ/mol
# GULP energy per Si atom -5579.728736 kJ/mol
# Density = 2.643219 g / cm^3
# Si number density = 26.492484 Si / 1000 Ang^3
#
#
#
# Elastic Constant Matrix: (Units=GPa)
#
#
# Indices 1 2 3 4 5 6 
#
# 1 124.4480 48.3108 63.4243 0.4794 0.0000 0.0000
# 2 48.3108 124.4486 63.4245 -0.4797 0.0000 0.0000
# 3 63.4243 63.4245 244.6713 0.0000 0.0000 0.0000
# 4 0.4794 -0.4797 0.0000 37.2479 0.0000 0.0000
# 5 0.0000 0.0000 0.0000 0.0000 37.2479 0.4793
# 6 0.0000 0.0000 0.0000 0.0000 0.4793 38.0692
#
#
#
# Elastic Compliance Matrix: (Units=1/GPa)
#
#
# Indices 1 2 3 4 5 6 
#
# 1 0.010143 -0.002994 -0.001853 -0.000169 0.000000 0.000000
# 2 -0.002994 0.010143 -0.001853 0.000169 0.000000 0.000000
# 3 -0.001853 -0.001853 0.005048 0.000000 0.000000 0.000000
# 4 -0.000169 0.000169 0.000000 0.026851 0.000000 0.000000
# 5 0.000000 0.000000 0.000000 0.000000 0.026851 -0.000338
# 6 0.000000 0.000000 0.000000 0.000000 -0.000338 0.026272
#
#
# Mechanical properties :
#
#
# Convention : Reuss Voigt Hill
#
# Bulk Modulus (GPa) = 83.79908 93.76525 88.78217
# Shear Modulus (GPa) = 40.75435 43.74022 42.24728
#
# Velocity S-wave (km/s) = 3.92642 4.06771 3.99769
# Velocity P-wave (km/s) = 7.22880 7.58496 7.40902
#
# Compressibility (1/GPa) = 0.01193330
#
# Stress axis : x y z
#
# Youngs Moduli (GPa) = 98.59278 98.59327 198.10171
#
# Poissons Ratio (x) = 0.29515 0.36713
# Poissons Ratio (y) = 0.29514 0.36713
# Poissons Ratio (z) = 0.18271 0.18272
#
# Static dielectric constant tensor:
#      x y z
#    x 2.232090 0.000000 0.000000 
#    y 0.000000 2.232070 0.000000 
#    z 0.000000 0.000000 2.047840 
# 
# From -- ./inp_files/842.got.cif
#   From: 2010.05.17/outbox.cif.g08.bks.cpg/sg161_cif.got.tgz:842.got - 2010.05.20 10:52:32.
