data_PCOD9577066
_publ_section_title
;
Structure prediction by ZEFSAII (Michael W. Deem and Ramdas Pophale) SiO2 
 PCOD9577066
Probable space group: R 3 2
;
_chemical_formula_sum "Si O2"
_cell_formula_units_Z 69
_cell_length_a 22.525855
_cell_length_b 22.525855
_cell_length_c 7.931725
_cell_angle_alpha 90.000000
_cell_angle_beta 90.000000
_cell_angle_gamma 120.000000
_cell_volume 3485.465983
_symmetry_space_group_name_H-M "R 3 2"
_symmetry_group_IT_number 155
_symmetry_cell_setting 'hexagonal'
loop_
_space_group_symop_operation_xyz
x,y,z
-y,x-y,z
-x+y,-x,z
x-y,-y,-z
-x,-x+y,-z
y,x,-z
2/3+x,1/3+y,1/3+z
2/3-y,1/3+x-y,1/3+z
2/3-x+y,1/3-x,1/3+z
2/3+x-y,1/3-y,1/3-z
2/3-x,1/3-x+y,1/3-z
2/3+y,1/3+x,1/3-z
1/3+x,2/3+y,2/3+z
1/3-y,2/3+x-y,2/3+z
1/3-x+y,2/3-x,2/3+z
1/3+x-y,2/3-y,2/3-z
1/3-x,2/3-x+y,2/3-z
1/3+y,2/3+x,2/3-z
loop_
_atom_site_type_symbol
_atom_site_label
_atom_site_fract_x
_atom_site_fract_y
_atom_site_fract_z
Si Si1 0.191101 0.930469 0.916341
Si Si2 0.154084 0.216251 0.138819
Si Si3 0.542322 0.203412 0.028237
Si Si4 0.333334 0.666667 0.868146
Si Si5 0.666667 0.951311 0.333334
O O1 0.226738 0.893405 0.833334
O O2 0.155049 0.961257 0.797728
O O3 0.132519 0.874181 0.034999
O O4 0.249357 0.000000 0.000000
O O5 0.084047 0.164629 0.238630
O O6 0.214155 0.267608 0.265528
O O7 0.180798 0.180798 0.000000
O O8 0.591450 0.283185 0.063805
O O9 0.524827 0.191494 0.833334
O O10 0.333334 0.666668 0.666667
O O11 0.688276 0.000000 0.500000
#
# Coordination Sequence:
#
# PCOD9577066 Si02
#       5
#    18  18  18   6   9
#     4  10  24  44  67  96 133 180 226 284 347 414
#     4  11  25  44  70 100 140 186 234 297 362 427
#     4  11  24  42  68 105 136 182 233 287 360 429
#     4  12  22  41  67  96 139 170 220 288 349 416
#     4  12  28  48  68 106 142 194 248 300 362 436
#
# _framework density 19.796491
#
# number of rings (size 3 to 8) (size 9 to 14) (size 15 to 20)
#    0.000    1.043    1.304    5.478    7.304    3.130 
#    4.696    0.000    0.000    0.000    0.000    0.000 
#    0.000    0.000    0.000    0.000    0.000    0.000 
#
# Total GULP energy -128362.919025 kJ/mol
# GULP energy per Si atom -5580.996479 kJ/mol
# Density = 1.975143 g / cm^3
# Si number density = 19.796491 Si / 1000 Ang^3
#
#
#
# Elastic Constant Matrix: (Units=GPa)
#
#
# Indices 1 2 3 4 5 6 
#
# 1 98.0223 81.1628 44.1670 22.6232 0.0688 -0.0111
# 2 81.1628 97.8733 44.0157 -22.6067 -0.0107 0.0137
# 3 44.1670 44.0157 105.1155 0.0398 0.0691 0.0089
# 4 22.6232 -22.6067 0.0398 32.0745 0.0191 0.0117
# 5 0.0688 -0.0107 0.0691 0.0191 32.0915 22.6067
# 6 -0.0111 0.0137 0.0089 0.0117 22.6067 8.3723
#
#
#
# Elastic Compliance Matrix: (Units=1/GPa)
#
#
# Indices 1 2 3 4 5 6 
#
# 1 -0.029572 0.036619 -0.002926 0.046672 -0.000186 0.000341
# 2 0.036619 -0.029594 -0.002977 -0.046683 0.000189 -0.000346
# 3 -0.002926 -0.002977 0.011989 -0.000049 0.000014 -0.000048
# 4 0.046672 -0.046683 -0.000049 -0.034645 0.000251 -0.000491
# 5 -0.000186 0.000189 0.000014 0.000251 -0.034543 0.093271
# 6 0.000341 -0.000346 -0.000048 -0.000491 0.093271 -0.132404
#
#
# Mechanical properties :
#
#
# Convention : Reuss Voigt Hill
#
# Bulk Modulus (GPa) = 70.14519 71.07803 70.61161
# Shear Modulus (GPa) = -16.36924 23.28537 3.45806
#
# Velocity S-wave (km/s) = -2.87866 3.43335 1.32310
# Velocity P-wave (km/s) = 4.94582 7.19024 6.17092
#
# Compressibility (1/GPa) = 0.01425615
#
# Stress axis : x y z
#
# Youngs Moduli (GPa) = -33.81521 -33.79075 83.40786
#
# Poissons Ratio (x) = 1.23740 0.24403
# Poissons Ratio (y) = 1.23829 0.24830
# Poissons Ratio (z) = -0.09894 -0.10059
#
# Static dielectric constant tensor:
#      x y z
#    x 1.702800 -0.000020 -0.000020 
#    y -0.000020 1.702800 0.000000 
#    z -0.000020 0.000000 1.713900 
# 
# From -- ./inp_files/2184.got.cif
#   From: 2010.05.17/outbox.cif.g08.bks.cpg/sg155_2_cif.got.tgz:2184.got - 2010.05.20 10:44:35.
