data_PCOD9577588
_publ_section_title
;
Structure prediction by ZEFSAII (Michael W. Deem and Ramdas Pophale) SiO2 
 PCOD9577588
Probable space group: R 3 C
;
_chemical_formula_sum "Si O2"
_cell_formula_units_Z 90
_cell_length_a 19.458160
_cell_length_b 19.458160
_cell_length_c 13.362542
_cell_angle_alpha 90.000000
_cell_angle_beta 90.000000
_cell_angle_gamma 120.000000
_cell_volume 4381.504432
_symmetry_space_group_name_H-M "R 3 C"
_symmetry_group_IT_number 161
_symmetry_cell_setting 'hexagonal'
loop_
_space_group_symop_operation_xyz
x,y,z
-y,x-y,z
-x+y,-x,z
-x+y,y,1/2+z
x,x-y,1/2+z
-y,-x,1/2+z
2/3+x,1/3+y,1/3+z
2/3-y,1/3+x-y,1/3+z
2/3-x+y,1/3-x,1/3+z
2/3-x+y,1/3+y,5/6+z
2/3+x,1/3+x-y,5/6+z
2/3-y,1/3-x,5/6+z
1/3+x,2/3+y,2/3+z
1/3-y,2/3+x-y,2/3+z
1/3-x+y,2/3-x,2/3+z
1/3-x+y,2/3+y,1/6+z
1/3+x,2/3+x-y,1/6+z
1/3-y,2/3-x,1/6+z
loop_
_atom_site_type_symbol
_atom_site_label
_atom_site_fract_x
_atom_site_fract_y
_atom_site_fract_z
Si Si1 0.737969 0.729538 0.388216
Si Si2 0.586457 0.883605 0.973732
Si Si3 0.630389 0.830214 0.167810
Si Si4 0.453472 0.216930 0.628124
Si Si5 0.555333 0.725356 0.868367
O O1 0.646375 0.680115 0.418884
O O2 0.801291 0.725104 0.460277
O O3 0.756933 0.820452 0.384596
O O4 0.761066 0.720072 0.273500
O O5 0.803653 0.835842 0.832233
O O6 0.570887 0.810296 0.903504
O O7 0.629860 0.878785 0.072425
O O8 0.714924 0.860747 0.218504
O O9 0.573055 0.834981 0.251468
O O10 0.513955 0.196331 0.568989
#
# Coordination Sequence:
#
# PCOD9577588 Si02
#       5
#    18  18  18  18  18
#     4   9  23  42  63  96 139 169 226 288 343 393
#     4  11  23  42  69  99 134 179 227 278 349 409
#     4  11  23  40  69  97 132 181 229 282 335 423
#     4  10  24  42  64  97 137 176 217 290 340 399
#     4   9  21  46  59  97 136 171 227 274 341 410
#
# _framework density 20.540890999999998
#
# number of rings (size 3 to 8) (size 9 to 14) (size 15 to 20)
#    1.200    0.800    2.000    0.000    5.600    3.200 
#    1.200    0.000    0.000    0.000    0.000    0.000 
#    0.000    0.000    0.000    0.000    0.000    0.000 
#
# Total GULP energy -167045.773651 kJ/mol
# GULP energy per Si atom -5568.192455 kJ/mol
# Density = 2.049414 g / cm^3
# Si number density = 20.540891 Si / 1000 Ang^3
#
#
#
# Elastic Constant Matrix: (Units=GPa)
#
#
# Indices 1 2 3 4 5 6 
#
# 1 67.9899 20.7047 12.0755 -0.4013 0.0000 0.0000
# 2 20.7047 67.9899 12.0755 0.4013 0.0000 0.0000
# 3 12.0755 12.0755 73.9618 0.0000 0.0000 0.0000
# 4 -0.4013 0.4013 0.0000 17.3183 0.0000 0.0000
# 5 0.0000 0.0000 0.0000 0.0000 17.3183 -0.4013
# 6 0.0000 0.0000 0.0000 0.0000 -0.4013 23.6426
#
#
#
# Elastic Compliance Matrix: (Units=1/GPa)
#
#
# Indices 1 2 3 4 5 6 
#
# 1 0.016478 -0.004679 -0.001926 0.000490 0.000000 0.000000
# 2 -0.004679 0.016478 -0.001926 -0.000490 0.000000 0.000000
# 3 -0.001926 -0.001926 0.014150 0.000000 0.000000 0.000000
# 4 0.000490 -0.000490 0.000000 0.057765 0.000000 0.000000
# 5 0.000000 0.000000 0.000000 0.000000 0.057765 0.000981
# 6 0.000000 0.000000 0.000000 0.000000 0.000981 0.042313
#
#
# Mechanical properties :
#
#
# Convention : Reuss Voigt Hill
#
# Bulk Modulus (GPa) = 33.28646 33.29480 33.29063
# Shear Modulus (GPa) = 21.54930 22.66155 22.10542
#
# Velocity S-wave (km/s) = 3.24248 3.32511 3.28406
# Velocity P-wave (km/s) = 5.50077 5.56651 5.53374
#
# Compressibility (1/GPa) = 0.03004224
#
# Stress axis : x y z
#
# Youngs Moduli (GPa) = 60.68733 60.68733 70.67375
#
# Poissons Ratio (x) = 0.28394 0.13615
# Poissons Ratio (y) = 0.28394 0.13615
# Poissons Ratio (z) = 0.11691 0.11691
#
# Static dielectric constant tensor:
#      x y z
#    x 1.802660 0.000000 0.000000 
#    y 0.000000 1.802660 0.000000 
#    z 0.000000 0.000000 1.749910 
# 
# From -- ./inp_files/1037.got.cif
#   From: 2010.05.17/outbox.cif.g08.bks.cpg/sg161_cif.got.tgz:1037.got - 2010.05.20 10:52:32.
