data_PCOD9577107
_publ_section_title
;
Structure prediction by ZEFSAII (Michael W. Deem and Ramdas Pophale) SiO2 
 PCOD9577107
Probable space group: R 3 2
;
_chemical_formula_sum "Si O2"
_cell_formula_units_Z 54
_cell_length_a 13.284737
_cell_length_b 13.284737
_cell_length_c 13.204400
_cell_angle_alpha 90.000000
_cell_angle_beta 90.000000
_cell_angle_gamma 120.000000
_cell_volume 2018.158288
_symmetry_space_group_name_H-M "R 3 2"
_symmetry_group_IT_number 155
_symmetry_cell_setting 'hexagonal'
loop_
_space_group_symop_operation_xyz
x,y,z
-y,x-y,z
-x+y,-x,z
x-y,-y,-z
-x,-x+y,-z
y,x,-z
2/3+x,1/3+y,1/3+z
2/3-y,1/3+x-y,1/3+z
2/3-x+y,1/3-x,1/3+z
2/3+x-y,1/3-y,1/3-z
2/3-x,1/3-x+y,1/3-z
2/3+y,1/3+x,1/3-z
1/3+x,2/3+y,2/3+z
1/3-y,2/3+x-y,2/3+z
1/3-x+y,2/3-x,2/3+z
1/3+x-y,2/3-y,2/3-z
1/3-x,2/3-x+y,2/3-z
1/3+y,2/3+x,2/3-z
loop_
_atom_site_type_symbol
_atom_site_label
_atom_site_fract_x
_atom_site_fract_y
_atom_site_fract_z
Si Si1 0.441478 0.930779 0.592057
Si Si2 0.787515 0.888914 0.438859
Si Si3 0.014855 0.814893 0.242746
O O1 0.333334 0.873454 0.666667
O O2 0.468289 0.840538 0.529960
O O3 0.422914 0.000000 0.500000
O O4 0.568632 0.036593 0.628416
O O5 0.785907 0.785907 0.500000
O O6 0.664103 0.882303 0.444767
O O7 0.874530 0.000000 0.500000
O O8 0.833197 0.915618 0.323211
#
# Coordination Sequence:
#
# PCOD9577107 Si02
#       3
#    18  18  18
#     4   8  16  38  76 120 167 219 289 355 454 542
#     4  11  20  40  71 115 163 229 284 367 430 526
#     4   8  20  39  70 119 159 217 306 339 456 522
#
# _framework density 26.757069000000001
#
# number of rings (size 3 to 8) (size 9 to 14) (size 15 to 20)
#    2.000    0.667    3.333    0.333    0.000    0.000 
#    0.000   10.000    7.333    0.000   34.667    0.000 
#   13.333    2.667    0.000    0.000    0.000    0.333 
#
# Total GULP energy -100364.742599 kJ/mol
# GULP energy per Si atom -5575.819033 kJ/mol
# Density = 2.669617 g / cm^3
# Si number density = 26.757069 Si / 1000 Ang^3
#
#
#
# Elastic Constant Matrix: (Units=GPa)
#
#
# Indices 1 2 3 4 5 6 
#
# 1 140.4665 75.9417 68.9698 -27.9406 -0.0001 0.0000
# 2 75.9417 140.4665 68.9698 27.9406 0.0001 0.0000
# 3 68.9698 68.9698 151.9444 0.0000 0.0000 0.0000
# 4 -27.9406 27.9406 0.0000 43.9530 0.0000 0.0001
# 5 -0.0001 0.0001 0.0000 0.0000 43.9530 -27.9406
# 6 0.0000 0.0000 0.0000 0.0001 -27.9406 32.2624
#
#
#
# Elastic Compliance Matrix: (Units=1/GPa)
#
#
# Indices 1 2 3 4 5 6 
#
# 1 0.020492 -0.013989 -0.002951 0.021919 0.000000 0.000000
# 2 -0.013989 0.020492 -0.002951 -0.021919 0.000000 0.000000
# 3 -0.002951 -0.002951 0.009261 0.000000 0.000000 0.000000
# 4 0.021919 -0.021919 0.000000 0.050619 0.000000 0.000000
# 5 0.000000 0.000000 0.000000 0.000000 0.050619 0.043839
# 6 0.000000 0.000000 0.000000 0.000000 0.043839 0.068962
#
#
# Mechanical properties :
#
#
# Convention : Reuss Voigt Hill
#
# Bulk Modulus (GPa) = 95.60820 95.62666 95.61743
# Shear Modulus (GPa) = 18.95984 38.63344 28.79664
#
# Velocity S-wave (km/s) = 2.66483 3.80394 3.28415
# Velocity P-wave (km/s) = 6.72889 7.42359 7.08476
#
# Compressibility (1/GPa) = 0.01045935
#
# Stress axis : x y z
#
# Youngs Moduli (GPa) = 48.80066 48.80066 107.98279
#
# Poissons Ratio (x) = 0.68269 0.31870
# Poissons Ratio (y) = 0.68269 0.31870
# Poissons Ratio (z) = 0.14403 0.14403
#
# Static dielectric constant tensor:
#      x y z
#    x 2.181340 0.000000 0.000000 
#    y 0.000000 2.181340 0.000000 
#    z 0.000000 0.000000 2.275260 
# 
# From -- ./inp_files/4649.got.cif
#   From: 2010.05.17/outbox.cif.g08.bks.cpg/sg155_3_cif.got.tgz:4649.got - 2010.05.20 10:44:35.
