data_PCOD9577326
_publ_section_title
;
Structure prediction by ZEFSAII (Michael W. Deem and Ramdas Pophale) SiO2 
 PCOD9577326
Probable space group: P 3 C 1
;
_chemical_formula_sum "Si O2"
_cell_formula_units_Z 36
_cell_length_a 8.406680
_cell_length_b 8.406680
_cell_length_c 29.999135
_cell_angle_alpha 90.000000
_cell_angle_beta 90.000000
_cell_angle_gamma 120.000000
_cell_volume 1836.066458
_symmetry_space_group_name_H-M "P 3 C 1"
_symmetry_group_IT_number 158
_symmetry_cell_setting 'hexagonal'
loop_
_space_group_symop_operation_xyz
x,y,z
-y,x-y,z
-x+y,-x,z
-x+y,y,1/2+z
x,x-y,1/2+z
-y,-x,1/2+z
loop_
_atom_site_type_symbol
_atom_site_label
_atom_site_fract_x
_atom_site_fract_y
_atom_site_fract_z
Si Si1 0.783115 0.985519 0.984460
Si Si2 0.875434 0.544372 0.152824
Si Si3 0.783372 0.985454 0.883902
Si Si4 0.659480 0.994695 0.789656
Si Si5 0.672194 0.668351 0.750984
Si Si6 0.122283 0.459612 0.568611
O O1 0.987510 0.164014 0.988701
O O2 0.715937 0.980556 0.934026
O O3 0.644403 0.965917 0.022709
O O4 0.665732 0.504084 0.152791
O O5 0.972979 0.645752 0.198088
O O6 0.994616 0.646337 0.109836
O O7 0.662835 0.980316 0.842852
O O8 0.835150 0.823457 0.879687
O O9 0.734498 0.870289 0.768000
O O10 0.462159 0.932409 0.769932
O O11 0.798707 0.198649 0.772947
O O12 0.330250 0.494208 0.570681
#
# Coordination Sequence:
#
# PCOD9577326 Si02
#       6
#     6   6   6   6   6   6
#     4   8  18  37  66  83 116 157 204 244 302 374
#     4  10  23  42  62  82 118 162 201 244 308 372
#     4   8  15  36  63  90 115 161 200 245 306 366
#     4  12  22  41  64  92 130 165 208 257 313 376
#     4  12  24  41  63  93 127 166 208 261 311 377
#     4  10  24  37  58  90 120 151 199 267 302 353
#
# _framework density 19.607135
#
# number of rings (size 3 to 8) (size 9 to 14) (size 15 to 20)
#    1.333    0.667    3.333    1.000    4.667    0.000 
#    3.000    0.000    0.000    0.000    0.000    0.000 
#    0.000    0.000    0.000    0.000    0.000    0.000 
#
# Total GULP energy -200492.427286 kJ/mol
# GULP energy per Si atom -5569.234091 kJ/mol
# Density = 1.956251 g / cm^3
# Si number density = 19.607135 Si / 1000 Ang^3
#
#
#
# Elastic Constant Matrix: (Units=GPa)
#
#
# Indices 1 2 3 4 5 6 
#
# 1 209.8315 -165.6601 31.8703 -696.9418 -0.0006 0.0002
# 2 -165.6601 209.8315 31.8703 696.9418 0.0006 -0.0002
# 3 31.8703 31.8703 195.1298 0.0000 0.0000 0.0000
# 4 -696.9418 696.9418 0.0000 2837.8749 0.0026 -0.0006
# 5 -0.0006 0.0006 0.0000 0.0026 2837.8720 -696.9411
# 6 0.0002 -0.0002 0.0000 -0.0006 -696.9411 187.7456
#
#
#
# Elastic Compliance Matrix: (Units=1/GPa)
#
#
# Indices 1 2 3 4 5 6 
#
# 1 0.029882 -0.000262 -0.004838 0.007403 0.000000 0.000000
# 2 -0.000262 0.029882 -0.004838 -0.007403 0.000000 0.000000
# 3 -0.004838 -0.004838 0.006705 0.000000 0.000000 0.000000
# 4 0.007403 -0.007403 0.000000 0.003989 0.000000 0.000000
# 5 0.000000 0.000000 0.000000 0.000000 0.003989 0.014806
# 6 0.000000 0.000000 0.000000 0.000000 0.014806 0.060289
#
#
# Mechanical properties :
#
#
# Convention : Reuss Voigt Hill
#
# Bulk Modulus (GPa) = 21.46186 45.66150 33.56168
# Shear Modulus (GPa) = 29.38706 1220.47933 624.93319
#
# Velocity S-wave (km/s) = 3.87563 24.97635 17.87231
# Velocity P-wave (km/s) = 5.56750 29.24203 21.04868
#
# Compressibility (1/GPa) = 0.04659429
#
# Stress axis : x y z
#
# Youngs Moduli (GPa) = 33.46454 33.46454 149.14002
#
# Poissons Ratio (x) = 0.00877 0.72152
# Poissons Ratio (y) = 0.00877 0.72152
# Poissons Ratio (z) = 0.16190 0.16190
#
# Static dielectric constant tensor:
#      x y z
#    x 1.352630 0.000000 0.000000 
#    y 0.000000 1.352630 0.000000 
#    z 0.000000 0.000000 1.650140 
# 
# From -- ./inp_files/762.got.cif
#   From: 2010.05.17/outbox.cif.g08.bks.cpg/sg158_cif.got.tgz:762.got - 2010.05.20 10:49:59.
