data_PCOD9577281
_publ_section_title
;
Structure prediction by ZEFSAII (Michael W. Deem and Ramdas Pophale) SiO2 
 PCOD9577281
Probable space group: P 3 C 1
;
_chemical_formula_sum "Si O2"
_cell_formula_units_Z 48
_cell_length_a 19.253542
_cell_length_b 19.253542
_cell_length_c 8.812359
_cell_angle_alpha 90.000000
_cell_angle_beta 90.000000
_cell_angle_gamma 120.000000
_cell_volume 2829.072559
_symmetry_space_group_name_H-M "P 3 C 1"
_symmetry_group_IT_number 158
_symmetry_cell_setting 'hexagonal'
loop_
_space_group_symop_operation_xyz
x,y,z
-y,x-y,z
-x+y,-x,z
-x+y,y,1/2+z
x,x-y,1/2+z
-y,-x,1/2+z
loop_
_atom_site_type_symbol
_atom_site_label
_atom_site_fract_x
_atom_site_fract_y
_atom_site_fract_z
Si Si1 0.332002 0.516715 0.340550
Si Si2 0.334771 0.242186 0.705030
Si Si3 0.148621 0.998669 0.840550
Si Si4 0.757814 0.092585 0.339702
Si Si5 0.483285 0.815288 0.704181
Si Si6 0.148621 0.149952 0.704181
Si Si7 0.425918 0.424481 0.339702
Si Si8 0.425918 0.001438 0.205030
O O1 0.330433 0.522408 0.522366
O O2 0.397485 0.602515 0.272366
O O3 0.246042 0.492083 0.272366
O O4 0.364440 0.456203 0.300567
O O5 0.338888 0.240302 0.522366
O O6 0.356265 0.178133 0.772366
O O7 0.241570 0.210463 0.744164
O O8 0.390801 0.333333 0.756728
O O9 0.087292 0.912708 0.772366
O O10 0.241570 0.031107 0.800567
O O11 0.128304 0.064152 0.772366
O O12 0.141358 0.997099 0.022366
O O13 0.666667 0.057468 0.288003
O O14 0.543797 0.908237 0.744164
O O15 0.511466 0.488534 0.272366
O O16 0.431920 0.426365 0.522366
#
# Coordination Sequence:
#
# PCOD9577281 Si02
#       8
#     6   6   6   6   6   6   6   6
#     4  10  19  31  47  68  97 132 168 204 240 279
#     4   9  19  35  53  74  99 126 158 197 241 289
#     4  10  19  31  47  68  97 132 168 204 240 279
#     4   9  19  35  53  74  99 126 158 197 241 289
#     4  10  19  31  47  68  97 132 168 204 240 279
#     4  10  19  31  47  68  97 132 168 204 240 279
#     4   9  19  35  53  74  99 126 158 197 241 289
#     4   9  19  35  53  74  99 126 158 197 241 289
#
# _framework density 16.966691000000001
#
# number of rings (size 3 to 8) (size 9 to 14) (size 15 to 20)
#    0.000    2.500    0.000    2.000    0.000    4.000 
#    0.000    0.000    0.000    0.500    0.000    0.000 
#    0.000    0.000    0.000    0.000    0.000    0.000 
#
# Total GULP energy -267799.107516 kJ/mol
# GULP energy per Si atom -5579.148073 kJ/mol
# Density = 1.692807 g / cm^3
# Si number density = 16.966691 Si / 1000 Ang^3
#
#
#
# Elastic Constant Matrix: (Units=GPa)
#
#
# Indices 1 2 3 4 5 6 
#
# 1 120.3322 99.7587 36.9095 0.0000 0.0000 0.0000
# 2 99.7587 120.3322 36.9095 0.0000 0.0000 0.0000
# 3 36.9095 36.9095 33.7910 0.0000 0.0000 0.0000
# 4 0.0000 0.0000 0.0000 25.2209 0.0000 0.0000
# 5 0.0000 0.0000 0.0000 0.0000 25.2209 0.0000
# 6 0.0000 0.0000 0.0000 0.0000 0.0000 10.2867
#
#
#
# Elastic Compliance Matrix: (Units=1/GPa)
#
#
# Indices 1 2 3 4 5 6 
#
# 1 0.027888 -0.020718 -0.007832 0.000000 0.000000 0.000000
# 2 -0.020718 0.027888 -0.007832 0.000000 0.000000 0.000000
# 3 -0.007832 -0.007832 0.046704 0.000000 0.000000 0.000000
# 4 0.000000 0.000000 0.000000 0.039650 0.000000 0.000000
# 5 0.000000 0.000000 0.000000 0.000000 0.039650 0.000000
# 6 0.000000 0.000000 0.000000 0.000000 0.000000 0.097213
#
#
# Mechanical properties :
#
#
# Convention : Reuss Voigt Hill
#
# Bulk Modulus (GPa) = 33.65208 69.06790 51.35999
# Shear Modulus (GPa) = 13.82502 18.87087 16.34794
#
# Velocity S-wave (km/s) = 2.85763 3.33863 3.10745
# Velocity P-wave (km/s) = 5.54665 7.46045 6.57357
#
# Compressibility (1/GPa) = 0.02971584
#
# Stress axis : x y z
#
# Youngs Moduli (GPa) = 35.85719 35.85719 21.41143
#
# Poissons Ratio (x) = 0.74288 0.16770
# Poissons Ratio (y) = 0.74288 0.16770
# Poissons Ratio (z) = 0.28085 0.28085
#
# Static dielectric constant tensor:
#      x y z
#    x 1.561440 0.000000 0.000000 
#    y 0.000000 1.561440 0.000000 
#    z 0.000000 0.000000 1.569370 
# 
# From -- ./inp_files/224.got.cif
#   From: 2010.05.17/outbox.cif.g08.bks.cpg/sg158_cif.got.tgz:224.got - 2010.05.20 10:49:59.
