data_PCOD9577131
_publ_section_title
;
Structure prediction by ZEFSAII (Michael W. Deem and Ramdas Pophale) SiO2 
 PCOD9577131
Probable space group: R 3 2
;
_chemical_formula_sum "Si O2"
_cell_formula_units_Z 69
_cell_length_a 20.742517
_cell_length_b 20.742517
_cell_length_c 8.398944
_cell_angle_alpha 90.000000
_cell_angle_beta 90.000000
_cell_angle_gamma 120.000000
_cell_volume 3129.523569
_symmetry_space_group_name_H-M "R 3 2"
_symmetry_group_IT_number 155
_symmetry_cell_setting 'hexagonal'
loop_
_space_group_symop_operation_xyz
x,y,z
-y,x-y,z
-x+y,-x,z
x-y,-y,-z
-x,-x+y,-z
y,x,-z
2/3+x,1/3+y,1/3+z
2/3-y,1/3+x-y,1/3+z
2/3-x+y,1/3-x,1/3+z
2/3+x-y,1/3-y,1/3-z
2/3-x,1/3-x+y,1/3-z
2/3+y,1/3+x,1/3-z
1/3+x,2/3+y,2/3+z
1/3-y,2/3+x-y,2/3+z
1/3-x+y,2/3-x,2/3+z
1/3+x-y,2/3-y,2/3-z
1/3-x,2/3-x+y,2/3-z
1/3+y,2/3+x,2/3-z
loop_
_atom_site_type_symbol
_atom_site_label
_atom_site_fract_x
_atom_site_fract_y
_atom_site_fract_z
Si Si1 0.243122 0.300697 0.172661
Si Si2 0.497478 0.539757 0.345092
Si Si3 0.000000 0.000000 0.307341
Si Si4 0.861260 0.015382 0.308074
Si Si5 0.666667 0.624266 0.833334
O O1 0.333334 0.336843 0.166667
O O2 0.230238 0.333334 0.333334
O O3 0.213488 0.332541 0.035718
O O4 0.194000 0.212821 0.200261
O O5 0.544289 0.544289 0.500000
O O6 0.436762 0.563886 0.380372
O O7 0.547030 0.591962 0.203050
O O8 0.920511 0.990535 0.261472
O O9 0.000000 0.000000 0.500000
O O10 0.842652 0.000000 0.500000
O O11 0.678852 0.666667 0.666667
#
# Coordination Sequence:
#
# PCOD9577131 Si02
#       5
#    18  18   6  18   9
#     4  12  22  41  71 106 142 184 246 315 390 430
#     4  12  26  43  74 107 143 198 247 316 380 453
#     4   9  24  42  63 100 140 193 240 277 377 475
#     4  11  23  41  68 106 142 194 244 312 374 460
#     4  12  28  52  72 104 150 202 258 308 380 464
#
# _framework density 22.048085
#
# number of rings (size 3 to 8) (size 9 to 14) (size 15 to 20)
#    0.000    0.522    6.522    1.565    5.478    1.043 
#    0.000    0.000    0.000    4.696    0.000    0.000 
#    0.000    0.000    0.000    0.000    0.000    0.000 
#
# Total GULP energy -128409.843133 kJ/mol
# GULP energy per Si atom -5583.036658 kJ/mol
# Density = 2.199790 g / cm^3
# Si number density = 22.048085 Si / 1000 Ang^3
#
#
#
# Elastic Constant Matrix: (Units=GPa)
#
#
# Indices 1 2 3 4 5 6 
#
# 1 120.5298 72.2387 27.5646 0.0624 -0.0022 -0.0002
# 2 72.2387 120.5315 27.5671 -0.0617 -0.0008 -0.0002
# 3 27.5646 27.5671 77.6488 0.0024 -0.0069 -0.0003
# 4 0.0624 -0.0617 0.0024 35.3599 0.0010 0.0002
# 5 -0.0022 -0.0008 -0.0069 0.0010 35.3576 0.0616
# 6 -0.0002 -0.0002 -0.0003 0.0002 0.0616 24.1461
#
#
#
# Elastic Compliance Matrix: (Units=1/GPa)
#
#
# Indices 1 2 3 4 5 6 
#
# 1 0.013241 -0.007467 -0.002049 -0.000036 0.000000 0.000000
# 2 -0.007467 0.013241 -0.002050 0.000036 -0.000001 0.000000
# 3 -0.002049 -0.002050 0.014334 -0.000001 0.000003 0.000000
# 4 -0.000036 0.000036 -0.000001 0.028281 -0.000001 0.000000
# 5 0.000000 -0.000001 0.000003 -0.000001 0.028283 -0.000072
# 6 0.000000 0.000000 0.000000 0.000000 -0.000072 0.041415
#
#
# Mechanical properties :
#
#
# Convention : Reuss Voigt Hill
#
# Bulk Modulus (GPa) = 56.55320 63.71676 60.13498
# Shear Modulus (GPa) = 29.79383 31.72871 30.76127
#
# Velocity S-wave (km/s) = 3.68001 3.79762 3.73928
# Velocity P-wave (km/s) = 6.61530 6.94197 6.78060
#
# Compressibility (1/GPa) = 0.01768247
#
# Stress axis : x y z
#
# Youngs Moduli (GPa) = 75.52514 75.52511 69.76498
#
# Poissons Ratio (x) = 0.56394 0.14298
# Poissons Ratio (y) = 0.56394 0.14302
# Poissons Ratio (z) = 0.15478 0.15483
#
# Static dielectric constant tensor:
#      x y z
#    x 1.807450 0.000000 0.000000 
#    y 0.000000 1.807450 0.000000 
#    z 0.000000 0.000000 1.871870 
# 
# From -- ./inp_files/2171.got.cif
#   From: 2010.05.17/outbox.cif.g08.bks.cpg/sg155_2_cif.got.tgz:2171.got - 2010.05.20 10:44:35.
