data_PCOD9577308
_publ_section_title
;
Structure prediction by ZEFSAII (Michael W. Deem and Ramdas Pophale) SiO2 
 PCOD9577308
Probable space group: P 3 C 1
;
_chemical_formula_sum "Si O2"
_cell_formula_units_Z 24
_cell_length_a 13.698405
_cell_length_b 13.698405
_cell_length_c 5.383499
_cell_angle_alpha 90.000000
_cell_angle_beta 90.000000
_cell_angle_gamma 120.000000
_cell_volume 874.853377
_symmetry_space_group_name_H-M "P 3 C 1"
_symmetry_group_IT_number 158
_symmetry_cell_setting 'hexagonal'
loop_
_space_group_symop_operation_xyz
x,y,z
-y,x-y,z
-x+y,-x,z
-x+y,y,1/2+z
x,x-y,1/2+z
-y,-x,1/2+z
loop_
_atom_site_type_symbol
_atom_site_label
_atom_site_fract_x
_atom_site_fract_y
_atom_site_fract_z
Si Si1 0.487985 0.031590 0.692790
Si Si2 0.771460 0.630838 0.499315
Si Si3 0.175962 0.465899 0.247967
Si Si4 0.042764 0.850390 0.804190
O O1 0.559375 0.090891 0.451914
O O2 0.376361 0.035817 0.626460
O O3 0.493183 0.916490 0.726071
O O4 0.811494 0.581347 0.724431
O O5 0.839258 0.758457 0.398950
O O6 0.248979 0.501783 0.500452
O O7 0.107431 0.329403 0.259661
O O8 0.065584 0.908523 0.537052
#
# Coordination Sequence:
#
# PCOD9577308 Si02
#       4
#     6   6   6   6
#     4  12  24  42  72 103 150 208 250 319 389 453
#     4  12  26  44  70 108 144 198 269 309 364 481
#     4  10  21  38  67 105 138 180 246 305 387 482
#     4  10  21  40  69 102 132 174 237 313 384 458
#
# _framework density 27.433166
#
# number of rings (size 3 to 8) (size 9 to 14) (size 15 to 20)
#    0.000    1.000    2.500    4.500    7.000    0.000 
#    0.000    0.000    0.000   39.000    0.000    0.000 
#    0.000    0.000    0.000    0.000    0.000    0.000 
#
# Total GULP energy -133820.780593 kJ/mol
# GULP energy per Si atom -5575.865858 kJ/mol
# Density = 2.737073 g / cm^3
# Si number density = 27.433166 Si / 1000 Ang^3
#
#
#
# Elastic Constant Matrix: (Units=GPa)
#
#
# Indices 1 2 3 4 5 6 
#
# 1 75.5129 29.7353 49.4066 -5.5131 0.0000 0.0000
# 2 29.7353 75.5129 49.4066 5.5131 0.0000 0.0000
# 3 49.4066 49.4066 297.7162 0.0000 0.0000 0.0000
# 4 -5.5131 5.5131 0.0000 44.2836 0.0000 0.0000
# 5 0.0000 0.0000 0.0000 0.0000 44.2836 -5.5131
# 6 0.0000 0.0000 0.0000 0.0000 -5.5131 22.8888
#
#
#
# Elastic Compliance Matrix: (Units=1/GPa)
#
#
# Indices 1 2 3 4 5 6 
#
# 1 0.016887 -0.005633 -0.001868 0.002804 0.000000 0.000000
# 2 -0.005633 0.016887 -0.001868 -0.002804 0.000000 0.000000
# 3 -0.001868 -0.001868 0.003979 0.000000 0.000000 0.000000
# 4 0.002804 -0.002804 0.000000 0.023280 0.000000 0.000000
# 5 0.000000 0.000000 0.000000 0.000000 0.023280 0.005607
# 6 0.000000 0.000000 0.000000 0.000000 0.005607 0.045040
#
#
# Mechanical properties :
#
#
# Convention : Reuss Voigt Hill
#
# Bulk Modulus (GPa) = 52.58292 78.42656 65.50474
# Shear Modulus (GPa) = 32.37736 43.63742 38.00739
#
# Velocity S-wave (km/s) = 3.43917 3.99266 3.72621
# Velocity P-wave (km/s) = 5.91437 7.06438 6.51480
#
# Compressibility (1/GPa) = 0.01901758
#
# Stress axis : x y z
#
# Youngs Moduli (GPa) = 59.21544 59.21544 251.33033
#
# Poissons Ratio (x) = 0.33353 0.46943
# Poissons Ratio (y) = 0.33353 0.46943
# Poissons Ratio (z) = 0.11060 0.11060
#
# Static dielectric constant tensor:
#      x y z
#    x 2.308620 0.000000 0.000000 
#    y 0.000000 2.308620 0.000000 
#    z 0.000000 0.000000 2.194850 
# 
# From -- ./inp_files/8.got.cif
#   From: 2010.05.17/outbox.cif.g08.bks.cpg/sg158_cif.got.tgz:8.got - 2010.05.20 10:49:59.
