data_PCOD9577581
_publ_section_title
;
Structure prediction by ZEFSAII (Michael W. Deem and Ramdas Pophale) SiO2 
 PCOD9577581
Probable space group: R 3 C
;
_chemical_formula_sum "Si O2"
_cell_formula_units_Z 108
_cell_length_a 14.052448
_cell_length_b 14.052448
_cell_length_c 28.544841
_cell_angle_alpha 90.000000
_cell_angle_beta 90.000000
_cell_angle_gamma 120.000000
_cell_volume 4881.600488
_symmetry_space_group_name_H-M "R 3 C"
_symmetry_group_IT_number 161
_symmetry_cell_setting 'hexagonal'
loop_
_space_group_symop_operation_xyz
x,y,z
-y,x-y,z
-x+y,-x,z
-x+y,y,1/2+z
x,x-y,1/2+z
-y,-x,1/2+z
2/3+x,1/3+y,1/3+z
2/3-y,1/3+x-y,1/3+z
2/3-x+y,1/3-x,1/3+z
2/3-x+y,1/3+y,5/6+z
2/3+x,1/3+x-y,5/6+z
2/3-y,1/3-x,5/6+z
1/3+x,2/3+y,2/3+z
1/3-y,2/3+x-y,2/3+z
1/3-x+y,2/3-x,2/3+z
1/3-x+y,2/3+y,1/6+z
1/3+x,2/3+x-y,1/6+z
1/3-y,2/3-x,1/6+z
loop_
_atom_site_type_symbol
_atom_site_label
_atom_site_fract_x
_atom_site_fract_y
_atom_site_fract_z
Si Si1 0.402361 0.807343 0.111992
Si Si2 0.467283 0.271316 0.585738
Si Si3 0.878942 0.452312 0.919719
Si Si4 0.203221 0.127385 0.692370
Si Si5 0.748616 0.862596 0.538260
Si Si6 0.017921 0.801361 0.356441
O O1 0.273812 0.725272 0.120987
O O2 0.448896 0.903199 0.149039
O O3 0.431161 0.842585 0.058851
O O4 0.342645 0.174694 0.590049
O O5 0.481452 0.367084 0.550612
O O6 0.529038 0.215851 0.559712
O O7 0.498312 0.319194 0.638274
O O8 0.836095 0.340310 0.890866
O O9 0.855036 0.541865 0.895755
O O10 0.830862 0.428854 0.972359
O O11 0.317526 0.241271 0.688770
O O12 0.624106 0.765705 0.544001
#
# Coordination Sequence:
#
# PCOD9577581 Si02
#       6
#    18  18  18  18  18  18
#     4  10  23  43  66  97 135 177 235 274 352 421
#     4  11  25  46  68 100 144 184 238 286 359 427
#     4  11  24  43  72 105 134 187 235 295 354 427
#     4  11  24  45  67 102 139 184 237 285 354 419
#     4  12  22  46  71 104 142 177 240 295 354 423
#     4  11  26  41  70 104 140 181 231 293 351 425
#
# _framework density 22.123892000000001
#
# number of rings (size 3 to 8) (size 9 to 14) (size 15 to 20)
#    0.333    0.667    3.333    2.667    2.333    6.667 
#    3.000    0.000    0.000    0.000    0.000    0.000 
#    0.000    0.000    0.000    0.000    0.000    0.000 
#
# Total GULP energy -201006.099053 kJ/mol
# GULP energy per Si atom -5583.502751 kJ/mol
# Density = 2.207354 g / cm^3
# Si number density = 22.123892 Si / 1000 Ang^3
#
#
#
# Elastic Constant Matrix: (Units=GPa)
#
#
# Indices 1 2 3 4 5 6 
#
# 1 45.2625 9.9900 17.5699 -2.5500 0.0000 0.0000
# 2 9.9900 45.2625 17.5699 2.5500 0.0000 0.0000
# 3 17.5699 17.5699 128.9623 0.0000 0.0000 0.0000
# 4 -2.5500 2.5500 0.0000 26.7691 0.0000 0.0000
# 5 0.0000 0.0000 0.0000 0.0000 26.7691 -2.5500
# 6 0.0000 0.0000 0.0000 0.0000 -2.5500 17.6362
#
#
#
# Elastic Compliance Matrix: (Units=1/GPa)
#
#
# Indices 1 2 3 4 5 6 
#
# 1 0.024281 -0.004465 -0.002700 0.002738 0.000000 0.000000
# 2 -0.004465 0.024281 -0.002700 -0.002738 0.000000 0.000000
# 3 -0.002700 -0.002700 0.008490 0.000000 0.000000 0.000000
# 4 0.002738 -0.002738 0.000000 0.037878 0.000000 0.000000
# 5 0.000000 0.000000 0.000000 0.000000 0.037878 0.005477
# 6 0.000000 0.000000 0.000000 0.000000 0.005477 0.057493
#
#
# Mechanical properties :
#
#
# Convention : Reuss Voigt Hill
#
# Bulk Modulus (GPa) = 26.79352 34.41630 30.60491
# Shear Modulus (GPa) = 22.47469 25.85871 24.16670
#
# Velocity S-wave (km/s) = 3.19071 3.42250 3.30863
# Velocity P-wave (km/s) = 5.07061 5.58641 5.33475
#
# Compressibility (1/GPa) = 0.03732245
#
# Stress axis : x y z
#
# Youngs Moduli (GPa) = 41.18415 41.18415 117.78809
#
# Poissons Ratio (x) = 0.18391 0.31799
# Poissons Ratio (y) = 0.18391 0.31799
# Poissons Ratio (z) = 0.11118 0.11118
#
# Static dielectric constant tensor:
#      x y z
#    x 1.811170 0.000000 0.000000 
#    y 0.000000 1.811170 0.000000 
#    z 0.000000 0.000000 1.805620 
# 
# From -- ./inp_files/2373.got.cif
#   From: 2010.05.17/outbox.cif.g08.bks.cpg/sg161_cif.got.tgz:2373.got - 2010.05.20 10:52:32.
