data_PCOD9577516
_publ_section_title
;
Structure prediction by ZEFSAII (Michael W. Deem and Ramdas Pophale) SiO2 
 PCOD9577516
Probable space group: R 3 M
;
_chemical_formula_sum "Si O2"
_cell_formula_units_Z 36
_cell_length_a 21.000000
_cell_length_b 21.000000
_cell_length_c 15.000000
_cell_angle_alpha 90.000000
_cell_angle_beta 90.000000
_cell_angle_gamma 120.000000
_cell_volume 5728.758046
_symmetry_space_group_name_H-M "R 3 M"
_symmetry_group_IT_number 160
_symmetry_cell_setting 'hexagonal'
loop_
_space_group_symop_operation_xyz
x,y,z
-y,x-y,z
-x+y,-x,z
-x+y,y,z
x,x-y,z
-y,-x,z
2/3+x,1/3+y,1/3+z
2/3-y,1/3+x-y,1/3+z
2/3-x+y,1/3-x,1/3+z
2/3-x+y,1/3+y,1/3+z
2/3+x,1/3+x-y,1/3+z
2/3-y,1/3-x,1/3+z
1/3+x,2/3+y,2/3+z
1/3-y,2/3+x-y,2/3+z
1/3-x+y,2/3-x,2/3+z
1/3-x+y,2/3+y,2/3+z
1/3+x,2/3+x-y,2/3+z
1/3-y,2/3-x,2/3+z
loop_
_atom_site_type_symbol
_atom_site_label
_atom_site_fract_x
_atom_site_fract_y
_atom_site_fract_z
Si Si1 0.265634 0.881470 0.092972
Si Si2 0.605903 0.730226 0.289204
Si Si3 0.911531 0.350652 0.431927
Si Si4 0.533113 0.923669 0.439091
Si Si5 0.148580 0.146626 0.934375
Si Si6 0.037501 0.820331 0.286321
O O1 0.181974 0.818027 0.105955
O O2 0.302608 0.892523 0.189650
O O3 0.263141 0.954134 0.068508
O O4 0.304496 0.857126 0.021099
O O5 0.579085 0.789542 0.298330
O O6 0.572305 0.669107 0.363236
O O7 0.694146 0.775590 0.297062
O O8 0.868293 0.361664 0.352618
O O9 0.860344 0.323092 0.518560
O O10 0.989654 0.419218 0.457868
O O11 0.453072 0.906144 0.408671
O O12 0.521888 0.874742 0.525481
O O13 0.135379 0.067690 0.904503
O O14 0.071536 0.143072 0.955094
O O15 0.094992 0.905009 0.303901
#
# Coordination Sequence:
#
# PCOD9577516 Si02
#       6
#    18  18  18  18  18  18
#     4  10  20  35  58  83 113 150 186 230 288 344
#     4   9  19  36  55  80 113 148 185 230 284 340
#     4  11  21  37  55  85 116 151 188 238 292 342
#     4  11  23  36  57  88 117 150 189 236 288 340
#     4  11  24  41  60  83 117 160 201 238 284 346
#     4  10  20  35  57  81 109 147 189 230 280 338
#
# _framework density 6.2840850000000001
#
# number of rings (size 3 to 8) (size 9 to 14) (size 15 to 20)
#    0.000    1.667    1.667    4.667    2.333    3.333 
#    0.000    0.000    0.000    0.667    0.000    0.000 
#    0.000    0.000    0.000    0.000    0.000    0.000 
#
# Total GULP energy -200917.652425 kJ/mol
# GULP energy per Si atom -5581.045901 kJ/mol
# Density = 0.626978 g / cm^3
# Si number density = 6.284085 Si / 1000 Ang^3
#
#
#
# Elastic Constant Matrix: (Units=GPa)
#
#
# Indices 1 2 3 4 5 6 
#
# 1 59.8665 32.3809 37.0137 -5.3733 0.0023 0.0000
# 2 32.3809 59.8665 37.0137 5.3733 -0.0023 0.0000
# 3 37.0137 37.0137 36.8453 0.0000 0.0000 0.0000
# 4 -5.3733 5.3733 0.0000 -7.7645 0.0000 -0.0023
# 5 0.0023 -0.0023 0.0000 0.0000 -7.7645 -5.3733
# 6 0.0000 0.0000 0.0000 -0.0023 -5.3733 13.7428
#
#
#
# Elastic Compliance Matrix: (Units=1/GPa)
#
#
# Indices 1 2 3 4 5 6 
#
# 1 0.042279 0.013644 -0.056179 -0.019816 0.000009 0.000000
# 2 0.013644 0.042279 -0.056179 0.019816 -0.000009 0.000000
# 3 -0.056179 -0.056179 0.140012 0.000000 0.000000 0.000000
# 4 -0.019816 0.019816 0.000000 -0.101365 0.000000 -0.000017
# 5 0.000009 -0.000009 0.000000 0.000000 -0.101365 -0.039632
# 6 0.000000 0.000000 0.000000 -0.000017 -0.039632 0.057270
#
#
# Mechanical properties :
#
#
# Convention : Reuss Voigt Hill
#
# Bulk Modulus (GPa) = 36.84217 41.04387 38.94302
# Shear Modulus (GPa) = 17.50786 2.98743 10.24764
#
# Velocity S-wave (km/s) = 3.05074 1.26020 2.33400
# Velocity P-wave (km/s) = 5.65636 4.89245 5.28822
#
# Compressibility (1/GPa) = 0.02714281
#
# Stress axis : x y z
#
# Youngs Moduli (GPa) = 23.65230 23.65230 7.14223
#
# Poissons Ratio (x) = -0.32272 0.40124
# Poissons Ratio (y) = -0.32272 0.40124
# Poissons Ratio (z) = 1.32877 1.32877
#
# Static dielectric constant tensor:
#      x y z
#    x 1.672970 0.000000 0.000000 
#    y 0.000000 1.672970 0.000000 
#    z 0.000000 0.000000 1.657380 
# 
# From -- ./inp_files/2232.got.cif
#   From: 2010.05.17/outbox.ucp.g08.bks.cvg/sg160_2_cif.got.tgz:2232.got - 2010.06.11 15:14:33.
