data_PCOD9577864
_publ_section_title
;
Structure prediction by ZEFSAII (Michael W. Deem and Ramdas Pophale) SiO2 
 PCOD9577864
Probable space group: P -3 1 M 
;
_chemical_formula_sum "Si O2"
_cell_formula_units_Z 66
_cell_length_a 19.549015
_cell_length_b 19.549015
_cell_length_c 9.053980
_cell_angle_alpha 90.000000
_cell_angle_beta 90.000000
_cell_angle_gamma 120.000000
_cell_volume 2996.538916
_symmetry_space_group_name_H-M "P -3 1 M "
_symmetry_group_IT_number 162
_symmetry_cell_setting 'hexagonal'
loop_
_space_group_symop_operation_xyz
x,y,z
-y,x-y,z
-x+y,-x,z
-y,-x,-z
-x+y,y,-z
x,x-y,-z
-x,-y,-z
y,-x+y,-z
x-y,x,-z
y,x,z
x-y,-y,z
-x,-x+y,z
loop_
_atom_site_type_symbol
_atom_site_label
_atom_site_fract_x
_atom_site_fract_y
_atom_site_fract_z
Si Si1 0.295022 0.093550 0.122032
Si Si2 0.911080 0.087528 0.324193
Si Si3 0.596936 0.403065 0.000000
Si Si4 0.374768 0.910559 0.533060
Si Si5 0.669496 0.422671 0.698591
Si Si6 0.906131 0.557182 0.806350
O O1 0.262111 0.108505 0.273021
O O2 0.386472 0.122843 0.125218
O O3 0.250966 0.000000 0.098273
O O4 0.272412 0.136206 0.000000
O O5 0.913546 0.086455 0.500000
O O6 0.000000 0.115496 0.270362
O O7 0.850647 0.000000 0.270336
O O8 0.575763 0.335332 0.123115
O O9 0.613804 0.475136 0.108870
O O10 0.458709 0.917417 0.500000
O O11 0.332812 0.831177 0.634373
O O12 0.337080 0.897577 0.370711
O O13 0.398112 0.000000 0.588533
O O14 0.594071 0.334964 0.656246
O O15 0.000000 0.594801 0.830159
#
# Coordination Sequence:
#
# PCOD9577864 Si02
#       6
#    12  12   6  12  12  12
#     4  10  21  39  60  89 129 176 220 268 325 389
#     4   9  17  32  59  93 130 172 221 275 325 378
#     4  12  21  42  64  92 122 166 196 262 314 388
#     4  10  20  42  68  93 121 163 211 260 317 390
#     4  10  24  42  63  97 135 161 202 258 331 383
#     4  10  23  41  64  89 121 164 217 265 320 384
#
# _framework density 22.025410000000001
#
# number of rings (size 3 to 8) (size 9 to 14) (size 15 to 20)
#    0.364    1.636    1.818    1.545    0.000    3.636 
#    0.000    3.636    0.000    7.273    0.000    0.000 
#    0.000    0.000    0.000    0.000    0.000    0.000 
#
# Total GULP energy -367893.159745 kJ/mol
# GULP energy per Si atom -5574.138784 kJ/mol
# Density = 2.197528 g / cm^3
# Si number density = 22.025410 Si / 1000 Ang^3
#
#
#
# Elastic Constant Matrix: (Units=GPa)
#
#
# Indices 1 2 3 4 5 6 
#
# 1 17.5221 89.7927 24.7713 0.0005 -0.0218 0.0000
# 2 89.7927 17.5221 24.7713 -0.0005 0.0218 0.0000
# 3 24.7713 24.7713 72.3286 0.0000 0.0000 0.0000
# 4 0.0005 -0.0005 0.0000 30.4574 0.0000 0.0218
# 5 -0.0218 0.0218 0.0000 0.0000 30.4574 0.0005
# 6 0.0000 0.0000 0.0000 0.0218 0.0005 -36.1353
#
#
#
# Elastic Compliance Matrix: (Units=1/GPa)
#
#
# Indices 1 2 3 4 5 6 
#
# 1 -0.001384 0.012453 -0.003791 0.000000 -0.000010 0.000000
# 2 0.012453 -0.001384 -0.003791 0.000000 0.000010 0.000000
# 3 -0.003791 -0.003791 0.016422 0.000000 0.000000 0.000000
# 4 0.000000 0.000000 0.000000 0.032833 0.000000 0.000020
# 5 -0.000010 0.000010 0.000000 0.000000 0.032833 0.000000
# 6 0.000000 0.000000 0.000000 0.000020 0.000000 -0.027674
#
#
# Mechanical properties :
#
#
# Convention : Reuss Voigt Hill
#
# Bulk Modulus (GPa) = 42.74209 42.89375 42.81792
# Shear Modulus (GPa) = 100.59991 2.82508 51.71249
#
# Velocity S-wave (km/s) = 6.76562 1.13377 4.85072
# Velocity P-wave (km/s) = 8.97103 4.60770 7.13128
#
# Compressibility (1/GPa) = 0.02339614
#
# Stress axis : x y z
#
# Youngs Moduli (GPa) = -722.41621 -722.41621 60.89278
#
# Poissons Ratio (x) = 8.99599 0.23083
# Poissons Ratio (y) = 8.99599 0.23083
# Poissons Ratio (z) = -2.73849 -2.73849
#
# Static dielectric constant tensor:
#      x y z
#    x 1.852690 0.000000 0.000000 
#    y 0.000000 1.852690 0.000000 
#    z 0.000000 0.000000 1.587230 
# 
# From -- ./inp_files/1617.got.cif
#   From: 2010.05.17/outbox.cif.g08.bks.cpg/sg162_1_cif.got.tgz:1617.got - 2010.05.20 10:53:12.
