data_PCOD9577290
_publ_section_title
;
Structure prediction by ZEFSAII (Michael W. Deem and Ramdas Pophale) SiO2 
 PCOD9577290
Probable space group: P 3 C 1
;
_chemical_formula_sum "Si O2"
_cell_formula_units_Z 42
_cell_length_a 11.471733
_cell_length_b 11.471733
_cell_length_c 18.145393
_cell_angle_alpha 90.000000
_cell_angle_beta 90.000000
_cell_angle_gamma 120.000000
_cell_volume 2068.021603
_symmetry_space_group_name_H-M "P 3 C 1"
_symmetry_group_IT_number 158
_symmetry_cell_setting 'hexagonal'
loop_
_space_group_symop_operation_xyz
x,y,z
-y,x-y,z
-x+y,-x,z
-x+y,y,1/2+z
x,x-y,1/2+z
-y,-x,1/2+z
loop_
_atom_site_type_symbol
_atom_site_label
_atom_site_fract_x
_atom_site_fract_y
_atom_site_fract_z
Si Si1 0.247229 0.964319 0.857420
Si Si2 0.697605 0.745413 0.019567
Si Si3 0.640575 0.065047 0.738705
Si Si4 0.318706 0.507220 0.648711
Si Si5 0.736001 0.036578 0.882700
Si Si6 0.927337 0.616694 0.203491
Si Si7 0.958764 0.234528 0.542847
O O1 0.102009 0.830640 0.858707
O O2 0.251840 0.106009 0.872148
O O3 0.314843 0.983523 0.777213
O O4 0.304222 0.949282 0.936579
O O5 0.571532 0.691668 0.074084
O O6 0.812153 0.710864 0.042127
O O7 0.778333 0.909057 0.027284
O O8 0.647597 0.067476 0.826719
O O9 0.790927 0.168051 0.713826
O O10 0.536688 0.106042 0.706456
O O11 0.586335 0.913370 0.710951
O O12 0.450995 0.655411 0.654033
O O13 0.691668 0.038329 0.966537
O O14 0.978030 0.678597 0.122818
#
# Coordination Sequence:
#
# PCOD9577290 Si02
#       7
#     6   6   6   6   6   6   6
#     4   9  20  35  62  87 123 156 192 250 305 368
#     4  10  19  40  58  96 125 155 205 252 316 365
#     4  11  23  42  60  88 124 161 212 255 311 364
#     4  10  23  39  62  91 129 165 203 259 307 372
#     4   9  20  38  60  91 124 158 196 253 313 367
#     4  11  23  40  63  87 120 163 211 259 306 369
#     4  10  20  36  65  92 123 158 199 260 306 371
#
# _framework density 20.309266000000001
#
# number of rings (size 3 to 8) (size 9 to 14) (size 15 to 20)
#    0.286    1.714    1.429    1.714    4.000    2.286 
#    7.714    0.000    0.000    0.000    0.000    0.000 
#    0.000    0.000    0.000    0.000    0.000    0.000 
#
# Total GULP energy -233806.405471 kJ/mol
# GULP energy per Si atom -5566.819178 kJ/mol
# Density = 2.026304 g / cm^3
# Si number density = 20.309266 Si / 1000 Ang^3
#
#
#
# Elastic Constant Matrix: (Units=GPa)
#
#
# Indices 1 2 3 4 5 6 
#
# 1 52.9907 7.0125 27.2363 3.1346 0.0000 0.0000
# 2 7.0125 52.9907 27.2363 -3.1346 0.0000 0.0000
# 3 27.2363 27.2363 182.2482 0.0000 0.0000 0.0000
# 4 3.1346 -3.1346 0.0000 13.9357 0.0000 0.0000
# 5 0.0000 0.0000 0.0000 0.0000 13.9357 3.1346
# 6 0.0000 0.0000 0.0000 0.0000 3.1346 22.9891
#
#
#
# Elastic Compliance Matrix: (Units=1/GPa)
#
#
# Indices 1 2 3 4 5 6 
#
# 1 0.020860 -0.001578 -0.002882 -0.005047 0.000000 0.000000
# 2 -0.001578 0.020860 -0.002882 0.005047 0.000000 0.000000
# 3 -0.002882 -0.002882 0.006348 0.000000 0.000000 0.000000
# 4 -0.005047 0.005047 0.000000 0.074028 0.000000 0.000000
# 5 0.000000 0.000000 0.000000 0.000000 0.074028 -0.010094
# 6 0.000000 0.000000 0.000000 0.000000 -0.010094 0.044875
#
#
# Mechanical properties :
#
#
# Convention : Reuss Voigt Hill
#
# Bulk Modulus (GPa) = 29.95309 45.68885 37.82097
# Shear Modulus (GPa) = 18.73990 25.28841 22.01416
#
# Velocity S-wave (km/s) = 3.04094 3.53252 3.29591
# Velocity P-wave (km/s) = 5.20675 6.25968 5.75734
#
# Compressibility (1/GPa) = 0.03338554
#
# Stress axis : x y z
#
# Youngs Moduli (GPa) = 47.93933 47.93933 157.52229
#
# Poissons Ratio (x) = 0.07564 0.45391
# Poissons Ratio (y) = 0.07564 0.45391
# Poissons Ratio (z) = 0.13814 0.13814
#
# Static dielectric constant tensor:
#      x y z
#    x 1.740740 0.000000 0.000000 
#    y 0.000000 1.740740 0.000000 
#    z 0.000000 0.000000 1.761010 
# 
# From -- ./inp_files/648.got.cif
#   From: 2010.05.17/outbox.cif.g08.bks.cpg/sg158_cif.got.tgz:648.got - 2010.05.20 10:49:59.
