data_PCOD9577976
_publ_section_title
;
Structure prediction by ZEFSAII (Michael W. Deem and Ramdas Pophale) SiO2 
 PCOD9577976
Probable space group: P -3 1 C
;
_chemical_formula_sum "Si O2"
_cell_formula_units_Z 72
_cell_length_a 17.229700
_cell_length_b 17.229700
_cell_length_c 21.196025
_cell_angle_alpha 90.000000
_cell_angle_beta 90.000000
_cell_angle_gamma 120.000000
_cell_volume 5449.297093
_symmetry_space_group_name_H-M "P -3 1 C"
_symmetry_group_IT_number 163
_symmetry_cell_setting 'hexagonal'
loop_
_space_group_symop_operation_xyz
x,y,z
-y,x-y,z
-x+y,-x,z
-y,-x,1/2-z
-x+y,y,1/2-z
x,x-y,1/2-z
-x,-y,-z
y,-x+y,-z
x-y,x,-z
y,x,1/2+z
x-y,-y,1/2+z
-x,-x+y,1/2+z
loop_
_atom_site_type_symbol
_atom_site_label
_atom_site_fract_x
_atom_site_fract_y
_atom_site_fract_z
Si Si1 0.812930 0.812930 0.500000
Si Si2 0.516067 0.666249 0.825138
Si Si3 0.052917 0.759006 0.873799
Si Si4 0.052917 0.293911 0.873799
Si Si5 0.184272 0.998441 0.250000
Si Si6 0.849818 0.516067 0.325139
O O1 0.822209 0.911105 0.497783
O O2 0.756209 0.762136 0.562052
O O3 0.762136 0.756209 0.437948
O O4 0.603126 0.683311 0.864043
O O5 0.536464 0.669547 0.750000
O O6 0.499910 0.749955 0.836721
O O7 0.426946 0.573054 0.838493
O O8 0.147900 0.852101 0.872519
O O9 0.000069 0.762876 0.812695
O O10 0.080185 0.683311 0.864043
O O11 0.000068 0.237192 0.812695
O O12 0.179626 0.089813 0.250000
O O13 0.085931 0.914070 0.250000
#
# Coordination Sequence:
#
# PCOD9577976 Si02
#       6
#    12  12  12  12  12  12
#     4  10  19  30  43  58  80 114 150 178 203 240
#     4   9  15  25  42  63  84 106 131 161 201 253
#     4   9  17  28  40  57  82 107 134 171 211 242
#     4   9  17  28  40  57  82 107 134 171 211 242
#     4  10  17  26  39  56  78 106 140 176 209 244
#     4   9  15  25  42  63  84 106 131 161 201 253
#
# _framework density 13.212713000000001
#
# number of rings (size 3 to 8) (size 9 to 14) (size 15 to 20)
#    0.000    2.667    1.667    1.667    0.000    1.333 
#    0.000    4.167    0.000    0.000    0.000    0.000 
#    0.000    0.000    0.000   14.000    0.000    0.000 
#
# Total GULP energy -400869.446595 kJ/mol
# GULP energy per Si atom -5567.631203 kJ/mol
# Density = 1.318264 g / cm^3
# Si number density = 13.212713 Si / 1000 Ang^3
#
#
#
# Elastic Constant Matrix: (Units=GPa)
#
#
# Indices 1 2 3 4 5 6 
#
# 1 74.4880 40.7862 48.6849 0.0000 0.0000 0.0000
# 2 40.7862 74.4880 48.6849 0.0000 0.0000 0.0000
# 3 48.6849 48.6849 109.9391 0.0000 0.0000 0.0000
# 4 0.0000 0.0000 0.0000 17.8402 0.0000 0.0000
# 5 0.0000 0.0000 0.0000 0.0000 17.8402 0.0000
# 6 0.0000 0.0000 0.0000 0.0000 0.0000 16.8509
#
#
#
# Elastic Compliance Matrix: (Units=1/GPa)
#
#
# Indices 1 2 3 4 5 6 
#
# 1 0.021765 -0.007907 -0.006137 0.000000 0.000000 0.000000
# 2 -0.007907 0.021765 -0.006137 0.000000 0.000000 0.000000
# 3 -0.006137 -0.006137 0.014532 0.000000 0.000000 0.000000
# 4 0.000000 0.000000 0.000000 0.056053 0.000000 0.000000
# 5 0.000000 0.000000 0.000000 0.000000 0.056053 0.000000
# 6 0.000000 0.000000 0.000000 0.000000 0.000000 0.059344
#
#
# Mechanical properties :
#
#
# Convention : Reuss Voigt Hill
#
# Bulk Modulus (GPa) = 56.49557 59.46966 57.98262
# Shear Modulus (GPa) = 18.13074 18.55688 18.34381
#
# Velocity S-wave (km/s) = 3.70837 3.75169 3.73009
# Velocity P-wave (km/s) = 7.82223 7.99213 7.90763
#
# Compressibility (1/GPa) = 0.01770050
#
# Stress axis : x y z
#
# Youngs Moduli (GPa) = 45.94431 45.94431 68.81599
#
# Poissons Ratio (x) = 0.36326 0.42234
# Poissons Ratio (y) = 0.36326 0.42234
# Poissons Ratio (z) = 0.28197 0.28197
#
# Static dielectric constant tensor:
#      x y z
#    x 1.418910 0.000000 0.000000 
#    y 0.000000 1.418910 0.000000 
#    z 0.000000 0.000000 1.437160 
# 
# From -- ./inp_files/3198.got.cif
#   From: 2010.05.17/outbox.cif.g08.bks.cpg/sg163_2_cif.got.tgz:3198.got - 2010.05.20 10:56:03.
