data_PCOD9577639
_publ_section_title
;
Structure prediction by ZEFSAII (Michael W. Deem and Ramdas Pophale) SiO2 
 PCOD9577639
Probable space group: P -3 1 M 
;
_chemical_formula_sum "Si O2"
_cell_formula_units_Z 96
_cell_length_a 24.277106
_cell_length_b 24.277106
_cell_length_c 11.962341
_cell_angle_alpha 90.000000
_cell_angle_beta 90.000000
_cell_angle_gamma 120.000000
_cell_volume 6105.772790
_symmetry_space_group_name_H-M "P -3 1 M "
_symmetry_group_IT_number 162
_symmetry_cell_setting 'hexagonal'
loop_
_space_group_symop_operation_xyz
x,y,z
-y,x-y,z
-x+y,-x,z
-y,-x,-z
-x+y,y,-z
x,x-y,-z
-x,-y,-z
y,-x+y,-z
x-y,x,-z
y,x,z
x-y,-y,z
-x,-x+y,z
loop_
_atom_site_type_symbol
_atom_site_label
_atom_site_fract_x
_atom_site_fract_y
_atom_site_fract_z
Si Si1 0.446884 0.371502 0.500000
Si Si2 0.264972 0.403173 0.866520
Si Si3 0.102900 0.331168 0.500000
Si Si4 0.197528 0.928202 0.741922
Si Si5 0.928202 0.730674 0.741922
Si Si6 0.600895 0.524419 0.748039
Si Si7 0.076476 0.600895 0.748039
Si Si8 0.596827 0.735028 0.866520
O O1 0.419299 0.419299 0.500000
O O2 0.387979 0.300030 0.500000
O O3 0.481848 0.384183 0.381858
O O4 0.481848 0.384183 0.618142
O O5 0.238707 0.333443 0.813250
O O6 0.334262 0.448989 0.816285
O O7 0.210940 0.421881 0.838515
O O8 0.268213 0.400138 0.000000
O O9 0.178320 0.356639 0.500000
O O10 0.076075 0.290362 0.612339
O O11 0.076075 0.290362 0.387661
O O12 0.124087 0.875913 0.759553
O O13 0.238707 0.905263 0.813250
O O14 0.218008 0.000000 0.769439
O O15 0.000000 0.781992 0.769439
O O16 0.574482 0.574482 0.753348
O O17 0.542892 0.457108 0.787236
O O18 0.665738 0.551011 0.816285
O O19 0.000000 0.574483 0.753348
#
# Coordination Sequence:
#
# PCOD9577639 Si02
#       8
#    12  12  12  12  12  12  12  12
#     4  10  17  28  46  69 100 129 154 186 229 282
#     4  10  21  35  50  69  95 128 165 204 243 284
#     4  10  18  27  46  74  97 123 161 200 239 283
#     4  10  19  31  48  71  98 127 160 200 245 291
#     4  10  19  31  48  71  98 127 160 200 245 291
#     4  10  20  32  49  74 102 130 157 190 235 286
#     4  10  20  32  49  74 102 130 157 190 235 286
#     4  10  21  35  50  69  95 128 165 204 243 284
#
# _framework density 15.722825
#
# number of rings (size 3 to 8) (size 9 to 14) (size 15 to 20)
#    0.000    2.000    2.500    2.250    0.000    4.000 
#    0.000    1.250    0.000    0.750    0.000    0.000 
#    0.000    3.000    0.000    6.250    0.000    0.000 
#
# Total GULP energy -535345.674550 kJ/mol
# GULP energy per Si atom -5576.517443 kJ/mol
# Density = 1.568704 g / cm^3
# Si number density = 15.722825 Si / 1000 Ang^3
#
#
#
# Elastic Constant Matrix: (Units=GPa)
#
#
# Indices 1 2 3 4 5 6 
#
# 1 104.0071 60.5453 45.2463 0.0000 -0.0001 0.0000
# 2 60.5453 104.0071 45.2463 0.0000 0.0001 0.0000
# 3 45.2463 45.2463 79.4628 0.0000 0.0000 0.0000
# 4 0.0000 0.0000 0.0000 -8.8526 0.0000 0.0001
# 5 -0.0001 0.0001 0.0000 0.0000 -8.8526 0.0000
# 6 0.0000 0.0000 0.0000 0.0001 0.0000 21.7309
#
#
#
# Elastic Compliance Matrix: (Units=1/GPa)
#
#
# Indices 1 2 3 4 5 6 
#
# 1 0.015928 -0.007081 -0.005038 0.000000 0.000000 0.000000
# 2 -0.007081 0.015928 -0.005038 0.000000 0.000000 0.000000
# 3 -0.005038 -0.005038 0.018322 0.000000 0.000000 0.000000
# 4 0.000000 0.000000 0.000000 -0.112961 0.000000 0.000000
# 5 0.000000 0.000000 0.000000 0.000000 -0.112961 0.000000
# 6 0.000000 0.000000 0.000000 0.000000 0.000000 0.046017
#
#
# Mechanical properties :
#
#
# Convention : Reuss Voigt Hill
#
# Bulk Modulus (GPa) = 63.03012 65.50586 64.26799
# Shear Modulus (GPa) = -55.47845 9.90105 -22.78870
#
# Velocity S-wave (km/s) = -5.94659 2.51215 -3.81123
# Velocity P-wave (km/s) = 2.64081 7.08293 4.64726
#
# Compressibility (1/GPa) = 0.01586543
#
# Stress axis : x y z
#
# Youngs Moduli (GPa) = 62.78195 62.78195 54.58045
#
# Poissons Ratio (x) = 0.44453 0.27497
# Poissons Ratio (y) = 0.44453 0.27497
# Poissons Ratio (z) = 0.31628 0.31628
#
# Static dielectric constant tensor:
#      x y z
#    x 1.515000 0.000000 0.000000 
#    y 0.000000 1.515000 0.000000 
#    z 0.000000 0.000000 1.543900 
# 
# From -- ./inp_files/2677.got.cif
#   From: 2010.05.17/outbox.cif.g08.bks.cpg/sg162_2_cif.got.tgz:2677.got - 2010.05.20 10:53:12.
