data_PCOD9577374
_publ_section_title
;
Structure prediction by ZEFSAII (Michael W. Deem and Ramdas Pophale) SiO2 
 PCOD9577374
Probable space group: P 3 1 C
;
_chemical_formula_sum "Si O2"
_cell_formula_units_Z 48
_cell_length_a 15.104799
_cell_length_b 15.104799
_cell_length_c 13.644393
_cell_angle_alpha 90.000000
_cell_angle_beta 90.000000
_cell_angle_gamma 120.000000
_cell_volume 2695.968121
_symmetry_space_group_name_H-M "P 3 1 C"
_symmetry_group_IT_number 159
_symmetry_cell_setting 'hexagonal'
loop_
_space_group_symop_operation_xyz
x,y,z
-y,x-y,z
-x+y,-x,z
y,x,1/2+z
x-y,-y,1/2+z
-x,-x+y,1/2+z
loop_
_atom_site_type_symbol
_atom_site_label
_atom_site_fract_x
_atom_site_fract_y
_atom_site_fract_z
Si Si1 0.893826 0.744731 0.485980
Si Si2 0.255269 0.149095 0.051977
Si Si3 0.516053 0.630513 0.650904
Si Si4 0.630513 0.516053 0.387053
Si Si5 0.034270 0.286452 0.154412
Si Si6 0.852039 0.550602 0.150341
Si Si7 0.965730 0.252182 0.883545
Si Si8 0.852039 0.550602 0.387616
O O1 0.820700 0.697390 0.580861
O O2 0.827455 0.769511 0.410161
O O3 0.915165 0.661799 0.434766
O O4 1.000000 0.839624 0.518978
O O5 0.338201 0.253366 0.103191
O O6 0.230489 0.057944 0.127796
O O7 0.302610 0.123310 0.957096
O O8 0.509362 0.627257 0.768978
O O9 0.626929 0.643771 0.630074
O O10 0.515841 0.734326 0.623394
O O11 0.414702 0.530705 0.615280
O O12 0.643771 0.626929 0.407883
O O13 0.734326 0.515841 0.414563
O O14 0.530705 0.414702 0.422677
O O15 0.059824 0.296100 0.268978
O O16 0.859137 0.557862 0.268978
#
# Coordination Sequence:
#
# PCOD9577374 Si02
#       8
#     6   6   6   6   6   6   6   6
#     4  10  20  34  49  77 107 132 173 221 263 315
#     4  10  20  34  49  77 107 132 173 221 263 315
#     4   8  14  27  50  77 101 131 167 206 258 304
#     4   8  14  27  50  77 101 131 167 206 258 304
#     4   9  19  36  55  72 102 141 173 215 266 315
#     4   9  16  29  51  78 105 132 169 217 257 304
#     4   9  19  36  55  72 102 141 173 215 266 315
#     4   9  16  29  51  78 105 132 169 217 257 304
#
# _framework density 17.804365000000001
#
# number of rings (size 3 to 8) (size 9 to 14) (size 15 to 20)
#    0.000    3.000    0.000    2.750    0.000    4.000 
#   15.000    0.000    0.000    0.000    0.000    0.000 
#    0.000    0.000    0.000    0.000    0.000    0.000 
#
# Total GULP energy -267219.433673 kJ/mol
# GULP energy per Si atom -5567.071535 kJ/mol
# Density = 1.776384 g / cm^3
# Si number density = 17.804365 Si / 1000 Ang^3
#
#
#
# Elastic Constant Matrix: (Units=GPa)
#
#
# Indices 1 2 3 4 5 6 
#
# 1 45.0534 21.6261 14.4107 0.0000 0.0000 0.0000
# 2 21.6261 45.0534 14.4107 0.0000 0.0000 0.0000
# 3 14.4107 14.4107 78.4267 0.0000 0.0000 0.0000
# 4 0.0000 0.0000 0.0000 24.9397 0.0000 0.0000
# 5 0.0000 0.0000 0.0000 0.0000 24.9397 0.0000
# 6 0.0000 0.0000 0.0000 0.0000 0.0000 11.7136
#
#
#
# Elastic Compliance Matrix: (Units=1/GPa)
#
#
# Indices 1 2 3 4 5 6 
#
# 1 0.029488 -0.013197 -0.002993 0.000000 0.000000 0.000000
# 2 -0.013197 0.029488 -0.002993 0.000000 0.000000 0.000000
# 3 -0.002993 -0.002993 0.013851 0.000000 0.000000 0.000000
# 4 0.000000 0.000000 0.000000 0.040097 0.000000 0.000000
# 5 0.000000 0.000000 0.000000 0.000000 0.040097 0.000000
# 6 0.000000 0.000000 0.000000 0.000000 0.000000 0.085371
#
#
# Mechanical properties :
#
#
# Convention : Reuss Voigt Hill
#
# Bulk Modulus (GPa) = 29.01989 29.93648 29.47818
# Shear Modulus (GPa) = 17.34634 20.19102 18.76868
#
# Velocity S-wave (km/s) = 3.12472 3.37122 3.25031
# Velocity P-wave (km/s) = 5.41786 5.65722 5.53883
#
# Compressibility (1/GPa) = 0.03445912
#
# Stress axis : x y z
#
# Youngs Moduli (GPa) = 33.91195 33.91195 72.19784
#
# Poissons Ratio (x) = 0.44754 0.21612
# Poissons Ratio (y) = 0.44754 0.21612
# Poissons Ratio (z) = 0.10151 0.10151
#
# Static dielectric constant tensor:
#      x y z
#    x 1.627490 0.000000 0.000000 
#    y 0.000000 1.627490 0.000000 
#    z 0.000000 0.000000 1.614850 
# 
# From -- ./inp_files/956.got.cif
#   From: 2010.05.17/outbox.cif.g08.bks.cpg/sg159_cif.got.tgz:956.got - 2010.05.20 10:50:30.
