data_PCOD9577908
_publ_section_title
;
Structure prediction by ZEFSAII (Michael W. Deem and Ramdas Pophale) SiO2 
 PCOD9577908
Probable space group: P -3 1 M 
;
_chemical_formula_sum "Si O2"
_cell_formula_units_Z 40
_cell_length_a 14.126783
_cell_length_b 14.126783
_cell_length_c 12.984111
_cell_angle_alpha 90.000000
_cell_angle_beta 90.000000
_cell_angle_gamma 120.000000
_cell_volume 2244.033828
_symmetry_space_group_name_H-M "P -3 1 M "
_symmetry_group_IT_number 162
_symmetry_cell_setting 'hexagonal'
loop_
_space_group_symop_operation_xyz
x,y,z
-y,x-y,z
-x+y,-x,z
-y,-x,-z
-x+y,y,-z
x,x-y,-z
-x,-y,-z
y,-x+y,-z
x-y,x,-z
y,x,z
x-y,-y,z
-x,-x+y,z
loop_
_atom_site_type_symbol
_atom_site_label
_atom_site_fract_x
_atom_site_fract_y
_atom_site_fract_z
Si Si1 0.000000 0.577117 0.358237
Si Si2 0.742206 0.870615 0.122317
Si Si3 0.637201 0.000000 0.595257
Si Si4 0.666667 0.333334 0.372616
Si Si5 0.791712 0.218288 0.296878
O O1 0.893774 0.574583 0.314736
O O2 0.000000 0.603194 0.478771
O O3 0.000000 0.463703 0.343240
O O4 0.825671 0.825671 0.142758
O O5 0.631904 0.796764 0.187069
O O6 0.799481 0.000000 0.149214
O O7 0.720337 0.860169 0.000000
O O8 0.641059 0.892259 0.625399
O O9 0.666668 0.333334 0.500000
O O10 0.756320 0.307083 0.326467
#
# Coordination Sequence:
#
# PCOD9577908 Si02
#       5
#     6  12   6   4  12
#     4  11  22  36  57  84 119 160 199 242 295 354
#     4  10  21  40  64  88 114 152 199 248 302 360
#     4  11  22  36  57  84 119 160 199 242 295 354
#     4  12  24  39  61  86 121 165 204 234 280 362
#     4  12  22  37  59  87 119 152 202 247 291 351
#
# _framework density 17.825043999999998
#
# number of rings (size 3 to 8) (size 9 to 14) (size 15 to 20)
#    0.000    0.900    6.000    3.000    0.000    1.200 
#    0.000    1.500    0.000    5.400    0.000    4.200 
#    0.000    0.000    0.000    0.000    0.000    0.000 
#
# Total GULP energy -222829.955802 kJ/mol
# GULP energy per Si atom -5570.748895 kJ/mol
# Density = 1.778447 g / cm^3
# Si number density = 17.825044 Si / 1000 Ang^3
#
#
#
# Elastic Constant Matrix: (Units=GPa)
#
#
# Indices 1 2 3 4 5 6 
#
# 1 71.0171 18.5961 26.5201 -0.0001 -2.7494 -0.0003
# 2 18.5961 71.0168 26.5201 0.0001 2.7492 -0.0004
# 3 26.5201 26.5201 73.4870 0.0001 0.0000 -0.0001
# 4 -0.0001 0.0001 0.0001 30.5009 -0.0001 2.7495
# 5 -2.7494 2.7492 0.0000 -0.0001 30.5010 0.0001
# 6 -0.0003 -0.0004 -0.0001 2.7495 0.0001 26.2102
#
#
#
# Elastic Compliance Matrix: (Units=1/GPa)
#
#
# Indices 1 2 3 4 5 6 
#
# 1 0.016724 -0.002534 -0.005121 0.000000 0.001736 0.000000
# 2 -0.002534 0.016724 -0.005121 0.000000 -0.001736 0.000000
# 3 -0.005121 -0.005121 0.017304 0.000000 0.000000 0.000000
# 4 0.000000 0.000000 0.000000 0.033099 0.000000 -0.003472
# 5 0.001736 -0.001736 0.000000 0.000000 0.033099 0.000000
# 6 0.000000 0.000000 0.000000 -0.003472 0.000000 0.038517
#
#
# Mechanical properties :
#
#
# Convention : Reuss Voigt Hill
#
# Bulk Modulus (GPa) = 39.68199 39.86594 39.77396
# Shear Modulus (GPa) = 26.39642 27.03473 26.71557
#
# Velocity S-wave (km/s) = 3.85237 3.89867 3.87559
# Velocity P-wave (km/s) = 6.48829 6.53298 6.51068
#
# Compressibility (1/GPa) = 0.02520035
#
# Stress axis : x y z
#
# Youngs Moduli (GPa) = 59.79352 59.79320 57.79028
#
# Poissons Ratio (x) = 0.15153 0.29594
# Poissons Ratio (y) = 0.15153 0.29594
# Poissons Ratio (z) = 0.30620 0.30620
#
# Static dielectric constant tensor:
#      x y z
#    x 1.637380 0.000000 0.000000 
#    y 0.000000 1.637380 0.000000 
#    z 0.000000 0.000000 1.596500 
# 
# From -- ./inp_files/2800.got.cif
#   From: 2010.05.17/outbox.cif.g08.bks.cpg/sg162_2_cif.got.tgz:2800.got - 2010.05.20 10:53:12.
