data_PCOD9577022
_publ_section_title
;
Structure prediction by ZEFSAII (Michael W. Deem and Ramdas Pophale) SiO2 
 PCOD9577022
Probable space group: R 3 2
;
_chemical_formula_sum "Si O2"
_cell_formula_units_Z 75
_cell_length_a 13.998027
_cell_length_b 13.998027
_cell_length_c 20.235427
_cell_angle_alpha 90.000000
_cell_angle_beta 90.000000
_cell_angle_gamma 120.000000
_cell_volume 3433.813143
_symmetry_space_group_name_H-M "R 3 2"
_symmetry_group_IT_number 155
_symmetry_cell_setting 'hexagonal'
loop_
_space_group_symop_operation_xyz
x,y,z
-y,x-y,z
-x+y,-x,z
x-y,-y,-z
-x,-x+y,-z
y,x,-z
2/3+x,1/3+y,1/3+z
2/3-y,1/3+x-y,1/3+z
2/3-x+y,1/3-x,1/3+z
2/3+x-y,1/3-y,1/3-z
2/3-x,1/3-x+y,1/3-z
2/3+y,1/3+x,1/3-z
1/3+x,2/3+y,2/3+z
1/3-y,2/3+x-y,2/3+z
1/3-x+y,2/3-x,2/3+z
1/3+x-y,2/3-y,2/3-z
1/3-x,2/3-x+y,2/3-z
1/3+y,2/3+x,2/3-z
loop_
_atom_site_type_symbol
_atom_site_label
_atom_site_fract_x
_atom_site_fract_y
_atom_site_fract_z
Si Si1 0.415507 0.215827 0.929677
Si Si2 0.203052 0.808619 0.914488
Si Si3 0.000000 0.000000 0.577211
Si Si4 0.345425 0.012092 0.833334
Si Si5 0.333335 0.666668 0.745069
Si Si6 0.141424 0.677670 0.533076
O O1 0.544385 0.307759 0.928370
O O2 0.388939 0.108719 0.886949
O O3 0.326876 0.241530 0.894174
O O4 0.398430 0.189972 0.007219
O O5 0.107895 0.837627 0.898808
O O6 0.156921 0.690014 0.877495
O O7 0.311972 0.902118 0.877061
O O8 0.000000 0.000000 0.500000
O O9 0.333334 0.666668 0.666667
O O10 0.209501 0.613719 0.772526
#
# Coordination Sequence:
#
# PCOD9577022 Si02
#       6
#    18  18   6   9   6  18
#     4  12  24  45  69  91 139 178 231 292 337 405
#     4  10  23  41  66 104 132 183 226 271 355 413
#     4  12  30  46  62  94 123 186 247 278 331 393
#     4  10  22  40  66  94 136 170 222 274 338 412
#     4  12  21  37  71 109 144 184 224 286 363 426
#     4  10  23  40  67 102 143 176 228 284 346 418
#
# _framework density 21.841605999999999
#
# number of rings (size 3 to 8) (size 9 to 14) (size 15 to 20)
#    0.000    1.440    1.200    5.760    3.360    3.840 
#    0.000    2.400    0.000    0.000    0.000    0.000 
#    0.000    0.000    0.000    0.000    0.000    0.000 
#
# Total GULP energy -139296.778561 kJ/mol
# GULP energy per Si atom -5571.871142 kJ/mol
# Density = 2.179189 g / cm^3
# Si number density = 21.841606 Si / 1000 Ang^3
#
#
#
# Elastic Constant Matrix: (Units=GPa)
#
#
# Indices 1 2 3 4 5 6 
#
# 1 74.1229 18.1656 32.3030 -0.6366 0.0000 0.0000
# 2 18.1656 74.1234 32.3032 0.6363 0.0002 0.0000
# 3 32.3030 32.3032 203.3584 0.0005 0.0001 0.0000
# 4 -0.6366 0.6363 0.0005 17.2475 0.0000 0.0000
# 5 0.0000 0.0002 0.0001 0.0000 17.2461 -0.6356
# 6 0.0000 0.0000 0.0000 0.0000 -0.6356 27.9786
#
#
#
# Elastic Compliance Matrix: (Units=1/GPa)
#
#
# Indices 1 2 3 4 5 6 
#
# 1 0.015039 -0.002847 -0.001937 0.000660 0.000000 0.000000
# 2 -0.002847 0.015038 -0.001937 -0.000660 0.000000 0.000000
# 3 -0.001937 -0.001937 0.005533 0.000000 0.000000 0.000000
# 4 0.000660 -0.000660 0.000000 0.058028 0.000000 0.000000
# 5 0.000000 0.000000 0.000000 0.000000 0.058033 0.001318
# 6 0.000000 0.000000 0.000000 0.000000 0.001318 0.035772
#
#
# Mechanical properties :
#
#
# Convention : Reuss Voigt Hill
#
# Bulk Modulus (GPa) = 45.10823 57.46093 51.28458
# Shear Modulus (GPa) = 24.00701 30.41662 27.21182
#
# Velocity S-wave (km/s) = 3.31893 3.73580 3.53352
# Velocity P-wave (km/s) = 5.94847 6.70622 6.33868
#
# Compressibility (1/GPa) = 0.02216890
#
# Stress axis : x y z
#
# Youngs Moduli (GPa) = 66.49588 66.49635 180.74482
#
# Poissons Ratio (x) = 0.18933 0.35002
# Poissons Ratio (y) = 0.18933 0.35002
# Poissons Ratio (z) = 0.12877 0.12877
#
# Static dielectric constant tensor:
#      x y z
#    x 1.812810 0.000000 0.000000 
#    y 0.000000 1.812810 0.000000 
#    z 0.000000 0.000000 1.821450 
# 
# From -- ./inp_files/6845.got.cif
#   From: 2010.05.17/outbox.cif.g08.bks.cpg/sg155_4_cif.got.tgz:6845.got - 2010.05.20 10:44:35.
