data_PCOD9577980
_publ_section_title
;
Structure prediction by ZEFSAII (Michael W. Deem and Ramdas Pophale) SiO2 
 PCOD9577980
Probable space group: P -3 1 C
;
_chemical_formula_sum "Si O2"
_cell_formula_units_Z 96
_cell_length_a 17.670956
_cell_length_b 17.670956
_cell_length_c 22.511967
_cell_angle_alpha 90.000000
_cell_angle_beta 90.000000
_cell_angle_gamma 120.000000
_cell_volume 6087.853125
_symmetry_space_group_name_H-M "P -3 1 C"
_symmetry_group_IT_number 163
_symmetry_cell_setting 'hexagonal'
loop_
_space_group_symop_operation_xyz
x,y,z
-y,x-y,z
-x+y,-x,z
-y,-x,1/2-z
-x+y,y,1/2-z
x,x-y,1/2-z
-x,-y,-z
y,-x+y,-z
x-y,x,-z
y,x,1/2+z
x-y,-y,1/2+z
-x,-x+y,1/2+z
loop_
_atom_site_type_symbol
_atom_site_label
_atom_site_fract_x
_atom_site_fract_y
_atom_site_fract_z
Si Si1 0.176862 0.013427 0.119543
Si Si2 0.782946 0.055114 0.257586
Si Si3 0.604620 0.713887 0.249789
Si Si4 0.738365 0.676663 0.941622
Si Si5 0.158654 0.481854 0.120846
Si Si6 0.157798 0.990857 0.355755
Si Si7 0.321534 0.091232 0.530726
Si Si8 0.657337 0.154981 0.628006
O O1 0.240821 0.033440 0.174952
O O2 0.176331 0.101641 0.105365
O O3 0.080851 0.942752 0.142019
O O4 0.201551 0.968567 0.067858
O O5 0.839422 0.160579 0.250000
O O6 0.681457 0.990832 0.243426
O O7 0.829910 0.022528 0.210363
O O8 0.638915 0.819458 0.250000
O O9 0.560101 0.684243 0.185720
O O10 0.537514 0.670267 0.304097
O O11 0.789082 0.737883 0.885238
O O12 0.815888 0.674542 0.979505
O O13 0.675336 0.581423 0.915723
O O14 0.688072 0.718149 0.975490
O O15 0.113214 0.405182 0.071865
O O16 0.145707 0.564568 0.115317
O O17 0.261829 0.514500 0.118413
#
# Coordination Sequence:
#
# PCOD9577980 Si02
#       8
#    12  12  12  12  12  12  12  12
#     4  10  18  28  43  64  92 125 161 196 227 264
#     4  10  18  27  44  68  95 126 156 187 221 265
#     4  10  17  31  50  72  99 124 152 183 229 281
#     4  10  20  33  48  66  91 125 162 196 233 274
#     4  10  20  33  52  73  95 120 149 192 241 294
#     4  10  18  28  43  64  92 125 161 196 227 264
#     4  10  20  33  48  66  91 125 162 196 233 274
#     4  10  20  33  52  73  95 120 149 192 241 294
#
# _framework density 15.769105
#
# number of rings (size 3 to 8) (size 9 to 14) (size 15 to 20)
#    0.000    2.000    2.500    2.750    0.000    0.500 
#    0.000    2.500    0.000    4.250    0.000    0.000 
#    0.000    0.000    0.000   10.250    0.000    0.000 
#
# Total GULP energy -534860.419775 kJ/mol
# GULP energy per Si atom -5571.462706 kJ/mol
# Density = 1.573321 g / cm^3
# Si number density = 15.769105 Si / 1000 Ang^3
#
#
#
# Elastic Constant Matrix: (Units=GPa)
#
#
# Indices 1 2 3 4 5 6 
#
# 1 54.8979 11.2590 -2.1643 0.0000 0.1610 0.0000
# 2 11.2590 54.8979 -2.1643 0.0000 -0.1610 0.0000
# 3 -2.1643 -2.1643 29.6215 0.0000 0.0000 0.0000
# 4 0.0000 0.0000 0.0000 14.8033 0.0000 -0.1610
# 5 0.1610 -0.1610 0.0000 0.0000 14.8033 0.0000
# 6 0.0000 0.0000 0.0000 -0.1610 0.0000 21.8194
#
#
#
# Elastic Compliance Matrix: (Units=1/GPa)
#
#
# Indices 1 2 3 4 5 6 
#
# 1 0.019053 -0.003865 0.001110 0.000000 -0.000249 0.000000
# 2 -0.003865 0.019053 0.001110 0.000000 0.000249 0.000000
# 3 0.001110 0.001110 0.033921 0.000000 0.000000 0.000000
# 4 0.000000 0.000000 0.000000 0.067558 0.000000 0.000499
# 5 -0.000249 0.000249 0.000000 0.000000 0.067558 0.000000
# 6 0.000000 0.000000 0.000000 0.000499 0.000000 0.045834
#
#
# Mechanical properties :
#
#
# Convention : Reuss Voigt Hill
#
# Bulk Modulus (GPa) = 14.54827 17.03091 15.78959
# Shear Modulus (GPa) = 17.90961 19.11765 18.51363
#
# Velocity S-wave (km/s) = 3.37373 3.48566 3.43015
# Velocity P-wave (km/s) = 4.94185 5.19840 5.07175
#
# Compressibility (1/GPa) = 0.06873671
#
# Stress axis : x y z
#
# Youngs Moduli (GPa) = 52.48603 52.48603 29.47986
#
# Poissons Ratio (x) = 0.20283 -0.03271
# Poissons Ratio (y) = 0.20283 -0.03271
# Poissons Ratio (z) = -0.05824 -0.05824
#
# Static dielectric constant tensor:
#      x y z
#    x 1.530370 0.000000 0.000000 
#    y 0.000000 1.530370 0.000000 
#    z 0.000000 0.000000 1.532200 
# 
# From -- ./inp_files/3697.got.cif
#   From: 2010.05.17/outbox.cif.g08.bks.cpg/sg163_2_cif.got.tgz:3697.got - 2010.05.20 10:56:03.
