data_PCOD9577534
_publ_section_title
;
Structure prediction by ZEFSAII (Michael W. Deem and Ramdas Pophale) SiO2 
 PCOD9577534
Probable space group: R 3 C
;
_chemical_formula_sum "Si O2"
_cell_formula_units_Z 108
_cell_length_a 12.337331
_cell_length_b 12.337331
_cell_length_c 29.857152
_cell_angle_alpha 90.000000
_cell_angle_beta 90.000000
_cell_angle_gamma 120.000000
_cell_volume 3935.695082
_symmetry_space_group_name_H-M "R 3 C"
_symmetry_group_IT_number 161
_symmetry_cell_setting 'hexagonal'
loop_
_space_group_symop_operation_xyz
x,y,z
-y,x-y,z
-x+y,-x,z
-x+y,y,1/2+z
x,x-y,1/2+z
-y,-x,1/2+z
2/3+x,1/3+y,1/3+z
2/3-y,1/3+x-y,1/3+z
2/3-x+y,1/3-x,1/3+z
2/3-x+y,1/3+y,5/6+z
2/3+x,1/3+x-y,5/6+z
2/3-y,1/3-x,5/6+z
1/3+x,2/3+y,2/3+z
1/3-y,2/3+x-y,2/3+z
1/3-x+y,2/3-x,2/3+z
1/3-x+y,2/3+y,1/6+z
1/3+x,2/3+x-y,1/6+z
1/3-y,2/3-x,1/6+z
loop_
_atom_site_type_symbol
_atom_site_label
_atom_site_fract_x
_atom_site_fract_y
_atom_site_fract_z
Si Si1 0.480025 0.364462 0.384688
Si Si2 0.789552 0.834175 0.318429
Si Si3 0.031131 0.217771 0.992341
Si Si4 0.464330 0.102037 0.462949
Si Si5 0.695626 0.564634 0.747413
Si Si6 0.955377 0.789556 0.725266
O O1 0.563844 0.455081 0.344684
O O2 0.442089 0.230507 0.365678
O O3 0.568682 0.421467 0.427910
O O4 0.358514 0.374584 0.392736
O O5 0.707912 0.682734 0.317626
O O6 0.701701 0.894703 0.313110
O O7 0.847361 0.846683 0.367946
O O8 0.863874 0.863874 0.271848
O O9 0.088137 0.186122 0.949119
O O10 0.513354 0.180699 0.509083
O O11 0.333335 0.069556 0.438515
O O12 0.806998 0.701706 0.730586
#
# Coordination Sequence:
#
# PCOD9577534 Si02
#       6
#    18  18  18  18  18  18
#     4  11  22  40  64 101 138 184 227 291 344 411
#     4   9  20  39  64  96 132 178 223 281 343 411
#     4  11  22  40  64 101 138 184 227 291 344 411
#     4  10  19  40  65  98 132 178 234 280 346 415
#     4  10  19  40  65  98 132 178 234 280 346 415
#     4   9  20  39  64  96 132 178 223 281 343 411
#
# _framework density 27.441147999999998
#
# number of rings (size 3 to 8) (size 9 to 14) (size 15 to 20)
#    0.000    2.000    3.333    0.333    0.000    0.000 
#   18.000    0.000    0.000   18.000    0.000    0.000 
#    0.000    0.000    0.000    0.000    0.000    0.000 
#
# Total GULP energy -200974.861202 kJ/mol
# GULP energy per Si atom -5582.635033 kJ/mol
# Density = 2.737869 g / cm^3
# Si number density = 27.441148 Si / 1000 Ang^3
#
#
#
# Elastic Constant Matrix: (Units=GPa)
#
#
# Indices 1 2 3 4 5 6 
#
# 1 78.2374 24.0228 47.0337 -2.2473 0.0000 0.0000
# 2 24.0228 78.2374 47.0337 2.2473 0.0000 0.0000
# 3 47.0337 47.0337 300.5782 0.0000 0.0000 0.0000
# 4 -2.2473 2.2473 0.0000 37.6966 0.0000 0.0000
# 5 0.0000 0.0000 0.0000 0.0000 37.6966 -2.2473
# 6 0.0000 0.0000 0.0000 0.0000 -2.2473 27.1073
#
#
#
# Elastic Compliance Matrix: (Units=1/GPa)
#
#
# Indices 1 2 3 4 5 6 
#
# 1 0.014980 -0.003557 -0.001787 0.001105 0.000000 0.000000
# 2 -0.003557 0.014980 -0.001787 -0.001105 0.000000 0.000000
# 3 -0.001787 -0.001787 0.003886 0.000000 0.000000 0.000000
# 4 0.001105 -0.001105 0.000000 0.026659 0.000000 0.000000
# 5 0.000000 0.000000 0.000000 0.000000 0.026659 0.002210
# 6 0.000000 0.000000 0.000000 0.000000 0.002210 0.037074
#
#
# Mechanical properties :
#
#
# Convention : Reuss Voigt Hill
#
# Bulk Modulus (GPa) = 51.06497 77.02592 64.04545
# Shear Modulus (GPa) = 34.47564 43.09762 38.78663
#
# Velocity S-wave (km/s) = 3.54835 3.96731 3.76366
# Velocity P-wave (km/s) = 5.95290 7.00832 6.50206
#
# Compressibility (1/GPa) = 0.01958290
#
# Stress axis : x y z
#
# Youngs Moduli (GPa) = 66.75549 66.75549 257.31279
#
# Poissons Ratio (x) = 0.23744 0.45994
# Poissons Ratio (y) = 0.23744 0.45994
# Poissons Ratio (z) = 0.11932 0.11932
#
# Static dielectric constant tensor:
#      x y z
#    x 2.078370 0.000000 0.000000 
#    y 0.000000 2.078370 0.000000 
#    z 0.000000 0.000000 2.334080 
# 
# From -- ./inp_files/2375.got.cif
#   From: 2010.05.17/outbox.cif.g08.bks.cpg/sg161_cif.got.tgz:2375.got - 2010.05.20 10:52:32.
