data_PCOD9577156
_publ_section_title
;
Structure prediction by ZEFSAII (Michael W. Deem and Ramdas Pophale) SiO2 
 PCOD9577156
Probable space group: R 3 2
;
_chemical_formula_sum "Si O2"
_cell_formula_units_Z 60
_cell_length_a 14.220232
_cell_length_b 14.220232
_cell_length_c 14.026139
_cell_angle_alpha 90.000000
_cell_angle_beta 90.000000
_cell_angle_gamma 120.000000
_cell_volume 2456.304104
_symmetry_space_group_name_H-M "R 3 2"
_symmetry_group_IT_number 155
_symmetry_cell_setting 'hexagonal'
loop_
_space_group_symop_operation_xyz
x,y,z
-y,x-y,z
-x+y,-x,z
x-y,-y,-z
-x,-x+y,-z
y,x,-z
2/3+x,1/3+y,1/3+z
2/3-y,1/3+x-y,1/3+z
2/3-x+y,1/3-x,1/3+z
2/3+x-y,1/3-y,1/3-z
2/3-x,1/3-x+y,1/3-z
2/3+y,1/3+x,1/3-z
1/3+x,2/3+y,2/3+z
1/3-y,2/3+x-y,2/3+z
1/3-x+y,2/3-x,2/3+z
1/3+x-y,2/3-y,2/3-z
1/3-x,2/3-x+y,2/3-z
1/3+y,2/3+x,2/3-z
loop_
_atom_site_type_symbol
_atom_site_label
_atom_site_fract_x
_atom_site_fract_y
_atom_site_fract_z
Si Si1 0.209259 0.044065 0.891353
Si Si2 0.754714 0.196943 0.918751
Si Si3 0.666668 0.333335 0.722178
Si Si4 0.443148 0.283334 0.126948
O O1 0.339244 0.129228 0.894610
O O2 0.165393 0.119630 0.846271
O O3 0.158101 0.938452 0.824167
O O4 0.171909 0.000000 0.000000
O O5 0.666667 0.147876 0.833334
O O6 0.762531 0.308582 0.961477
O O7 0.705405 0.132431 0.015628
O O8 0.666668 0.333334 0.833334
O O9 0.333334 0.271445 0.166667
#
# Coordination Sequence:
#
# PCOD9577156 Si02
#       4
#    18  18   6  18
#     4  12  26  47  78 113 165 218 273 340 416 494
#     4  11  25  49  77 114 159 217 270 339 414 494
#     4   9  21  45  72 102 148 206 265 318 399 474
#     4  12  26  47  76 118 161 213 278 339 414 499
#
# _framework density 24.426943000000001
#
# number of rings (size 3 to 8) (size 9 to 14) (size 15 to 20)
#    0.000    0.600    3.000    4.200    0.000    7.200 
#    0.000    0.000    0.000    0.000    0.000    0.000 
#    0.000    0.000    0.000    0.000    0.000    0.000 
#
# Total GULP energy -111361.087174 kJ/mol
# GULP energy per Si atom -5568.054359 kJ/mol
# Density = 2.437135 g / cm^3
# Si number density = 24.426943 Si / 1000 Ang^3
#
#
#
# Elastic Constant Matrix: (Units=GPa)
#
#
# Indices 1 2 3 4 5 6 
#
# 1 90.8983 119.1572 34.3690 -40.7164 0.0028 -0.0104
# 2 119.1572 90.8949 34.3717 40.7172 -0.0019 0.0121
# 3 34.3690 34.3717 203.1547 -0.0010 0.0010 0.0018
# 4 -40.7164 40.7172 -0.0010 -1.9024 -0.0069 -0.0200
# 5 0.0028 -0.0019 0.0010 -0.0069 -1.8835 -40.6898
# 6 -0.0104 0.0121 0.0018 -0.0200 -40.6898 -14.0900
#
#
#
# Elastic Compliance Matrix: (Units=1/GPa)
#
#
# Indices 1 2 3 4 5 6 
#
# 1 0.002812 0.002228 -0.000853 -0.012482 0.000005 0.000002
# 2 0.002228 0.002811 -0.000853 0.012482 -0.000005 -0.000002
# 3 -0.000853 -0.000853 0.005211 0.000000 0.000000 0.000000
# 4 -0.012482 0.012482 0.000000 0.008664 0.000004 -0.000003
# 5 0.000005 -0.000005 0.000000 0.000004 0.008649 -0.024977
# 6 0.000002 -0.000002 0.000000 -0.000003 -0.024977 0.001156
#
#
# Mechanical properties :
#
#
# Convention : Reuss Voigt Hill
#
# Bulk Modulus (GPa) = 84.17691 84.52710 84.35201
# Shear Modulus (GPa) = 155.20051 9.56150 82.38100
#
# Velocity S-wave (km/s) = 7.97963 1.98061 5.81366
# Velocity P-wave (km/s) = 10.92863 6.31740 8.92593
#
# Compressibility (1/GPa) = 0.01187974
#
# Stress axis : x y z
#
# Youngs Moduli (GPa) = 355.67920 355.69551 191.90693
#
# Poissons Ratio (x) = -0.79258 0.16364
# Poissons Ratio (y) = -0.79254 0.16361
# Poissons Ratio (z) = 0.30329 0.30325
#
# Static dielectric constant tensor:
#      x y z
#    x 5.093230 -0.001100 -0.000250 
#    y -0.001100 5.089970 -0.000590 
#    z -0.000250 -0.000590 3.578490 
# 
# From -- ./inp_files/4752.got.cif
#   From: 2010.05.17/outbox.cif.g08.bks.cpg/sg155_3_cif.got.tgz:4752.got - 2010.05.20 10:44:35.
