data_PCOD9577102
_publ_section_title
;
Structure prediction by ZEFSAII (Michael W. Deem and Ramdas Pophale) SiO2 
 PCOD9577102
Probable space group: R 3 2
;
_chemical_formula_sum "Si O2"
_cell_formula_units_Z 108
_cell_length_a 22.559028
_cell_length_b 22.559028
_cell_length_c 12.754766
_cell_angle_alpha 90.000000
_cell_angle_beta 90.000000
_cell_angle_gamma 120.000000
_cell_volume 5621.392290
_symmetry_space_group_name_H-M "R 3 2"
_symmetry_group_IT_number 155
_symmetry_cell_setting 'hexagonal'
loop_
_space_group_symop_operation_xyz
x,y,z
-y,x-y,z
-x+y,-x,z
x-y,-y,-z
-x,-x+y,-z
y,x,-z
2/3+x,1/3+y,1/3+z
2/3-y,1/3+x-y,1/3+z
2/3-x+y,1/3-x,1/3+z
2/3+x-y,1/3-y,1/3-z
2/3-x,1/3-x+y,1/3-z
2/3+y,1/3+x,1/3-z
1/3+x,2/3+y,2/3+z
1/3-y,2/3+x-y,2/3+z
1/3-x+y,2/3-x,2/3+z
1/3+x-y,2/3-y,2/3-z
1/3-x,2/3-x+y,2/3-z
1/3+y,2/3+x,2/3-z
loop_
_atom_site_type_symbol
_atom_site_label
_atom_site_fract_x
_atom_site_fract_y
_atom_site_fract_z
Si Si1 0.321277 0.864917 0.547377
Si Si2 0.452970 0.937364 0.418370
Si Si3 0.971437 0.608653 0.233563
Si Si4 0.515605 0.452969 0.081630
Si Si5 0.012057 0.801748 0.619290
Si Si6 0.696118 0.638105 0.933104
O O1 0.333334 0.848732 0.666667
O O2 0.388636 0.881788 0.484220
O O3 0.252737 0.818862 0.480161
O O4 0.316127 0.933639 0.558190
O O5 0.485530 0.899459 0.353174
O O6 0.418576 0.964083 0.332601
O O7 0.498608 0.000000 0.500000
O O8 0.922203 0.588870 0.333334
O O9 0.964083 0.545507 0.167399
O O10 0.967173 0.666667 0.166667
O O11 0.049152 0.649459 0.275145
O O12 0.498607 0.498607 0.000000
O O13 0.506848 0.388636 0.015780
O O14 0.000000 0.817932 0.500000
O O15 0.666667 0.588872 0.833334
O O16 0.633840 0.633840 0.000000
#
# Coordination Sequence:
#
# PCOD9577102 Si02
#       6
#    18  18  18  18  18  18
#     4  11  24  40  58  93 132 169 219 265 327 391
#     4  12  24  39  65  93 133 179 217 276 332 403
#     4  11  19  36  58  92 134 172 211 256 317 395
#     4  12  24  39  65  93 133 179 217 276 332 403
#     4  11  24  40  58  93 132 169 219 265 327 391
#     4  11  19  36  58  92 134 172 211 256 317 395
#
# _framework density 19.212323999999999
#
# number of rings (size 3 to 8) (size 9 to 14) (size 15 to 20)
#    0.000    0.667   10.000    1.000    4.667    0.000 
#    0.000    0.000    0.000    0.667    0.000    2.333 
#    0.000    0.000    0.000    0.000    0.000    0.000 
#
# Total GULP energy -200593.785801 kJ/mol
# GULP energy per Si atom -5572.049606 kJ/mol
# Density = 1.916860 g / cm^3
# Si number density = 19.212324 Si / 1000 Ang^3
#
#
#
# Elastic Constant Matrix: (Units=GPa)
#
#
# Indices 1 2 3 4 5 6 
#
# 1 93.1682 53.0601 72.8503 7.3050 0.0001 0.0000
# 2 53.0601 93.1682 72.8503 -7.3050 -0.0001 0.0000
# 3 72.8503 72.8503 174.1645 0.0000 0.0000 0.0000
# 4 7.3050 -7.3050 0.0000 34.4215 0.0000 -0.0001
# 5 0.0001 -0.0001 0.0000 0.0000 34.4215 7.3050
# 6 0.0000 0.0000 0.0000 -0.0001 7.3050 20.0541
#
#
#
# Elastic Compliance Matrix: (Units=1/GPa)
#
#
# Indices 1 2 3 4 5 6 
#
# 1 0.019374 -0.007648 -0.004905 -0.005735 0.000000 0.000000
# 2 -0.007648 0.019374 -0.004905 0.005735 0.000000 0.000000
# 3 -0.004905 -0.004905 0.009845 0.000000 0.000000 0.000000
# 4 -0.005735 0.005735 0.000000 0.031486 0.000000 0.000000
# 5 0.000000 0.000000 0.000000 0.000000 0.031486 -0.011469
# 6 0.000000 0.000000 0.000000 0.000000 -0.011469 0.054043
#
#
# Mechanical properties :
#
#
# Convention : Reuss Voigt Hill
#
# Bulk Modulus (GPa) = 73.11349 84.22473 78.66911
# Shear Modulus (GPa) = 24.38079 28.56210 26.47145
#
# Velocity S-wave (km/s) = 3.56619 3.85990 3.71595
# Velocity P-wave (km/s) = 7.42261 7.98744 7.71020
#
# Compressibility (1/GPa) = 0.01367737
#
# Stress axis : x y z
#
# Youngs Moduli (GPa) = 51.61686 51.61686 101.57700
#
# Poissons Ratio (x) = 0.39476 0.49820
# Poissons Ratio (y) = 0.39476 0.49820
# Poissons Ratio (z) = 0.25316 0.25316
#
# Static dielectric constant tensor:
#      x y z
#    x 1.679960 0.000000 0.000000 
#    y 0.000000 1.679960 0.000000 
#    z 0.000000 0.000000 1.910580 
# 
# From -- ./inp_files/4084.got.cif
#   From: 2010.05.17/outbox.cif.g08.bks.cpg/sg155_3_cif.got.tgz:4084.got - 2010.05.20 10:44:35.
