data_PCOD9577579
_publ_section_title
;
Structure prediction by ZEFSAII (Michael W. Deem and Ramdas Pophale) SiO2 
 PCOD9577579
Probable space group: R 3 C
;
_chemical_formula_sum "Si O2"
_cell_formula_units_Z 126
_cell_length_a 20.341028
_cell_length_b 20.341028
_cell_length_c 17.250339
_cell_angle_alpha 90.000000
_cell_angle_beta 90.000000
_cell_angle_gamma 120.000000
_cell_volume 6181.218007
_symmetry_space_group_name_H-M "R 3 C"
_symmetry_group_IT_number 161
_symmetry_cell_setting 'hexagonal'
loop_
_space_group_symop_operation_xyz
x,y,z
-y,x-y,z
-x+y,-x,z
-x+y,y,1/2+z
x,x-y,1/2+z
-y,-x,1/2+z
2/3+x,1/3+y,1/3+z
2/3-y,1/3+x-y,1/3+z
2/3-x+y,1/3-x,1/3+z
2/3-x+y,1/3+y,5/6+z
2/3+x,1/3+x-y,5/6+z
2/3-y,1/3-x,5/6+z
1/3+x,2/3+y,2/3+z
1/3-y,2/3+x-y,2/3+z
1/3-x+y,2/3-x,2/3+z
1/3-x+y,2/3+y,1/6+z
1/3+x,2/3+x-y,1/6+z
1/3-y,2/3-x,1/6+z
loop_
_atom_site_type_symbol
_atom_site_label
_atom_site_fract_x
_atom_site_fract_y
_atom_site_fract_z
Si Si1 0.929276 0.262944 0.659999
Si Si2 0.162508 0.907534 0.776811
Si Si3 0.647547 0.499180 0.893973
Si Si4 0.582259 0.064826 0.827710
Si Si5 0.011745 0.451820 0.159899
Si Si6 0.686804 0.259502 0.526257
Si Si7 0.372063 0.097768 0.274070
O O1 0.842636 0.235223 0.638253
O O2 0.953127 0.204700 0.625373
O O3 0.936519 0.263342 0.752796
O O4 0.979872 0.342896 0.618759
O O5 0.210537 0.887474 0.715273
O O6 0.210989 0.945407 0.853630
O O7 0.123617 0.953809 0.743077
O O8 0.571193 0.452433 0.843915
O O9 0.714157 0.567550 0.846862
O O10 0.679139 0.451709 0.939071
O O11 0.673271 0.112088 0.834216
O O12 0.571398 0.033687 0.740174
O O13 0.001870 0.520547 0.129419
O O14 0.744356 0.349838 0.539471
#
# Coordination Sequence:
#
# PCOD9577579 Si02
#       7
#    18  18  18  18  18  18  18
#     4  10  23  42  68  97 135 175 223 295 344 409
#     4  10  23  45  63 102 130 174 237 274 351 413
#     4  11  23  42  63  98 133 173 232 272 340 420
#     4  11  24  38  69  94 130 174 217 294 331 404
#     4  11  23  41  63  98 131 172 222 276 345 407
#     4  10  24  42  67  92 132 189 220 275 338 432
#     4  11  24  40  67  97 131 173 219 286 339 399
#
# _framework density 20.384331
#
# number of rings (size 3 to 8) (size 9 to 14) (size 15 to 20)
#    0.286    1.143    2.857    0.857    6.000    5.714 
#    5.143    0.000    0.000    0.000    0.000    0.000 
#    0.000    0.000    0.000    0.000    0.000    0.000 
#
# Total GULP energy -234249.488188 kJ/mol
# GULP energy per Si atom -5577.368766 kJ/mol
# Density = 2.033794 g / cm^3
# Si number density = 20.384331 Si / 1000 Ang^3
#
#
#
# Elastic Constant Matrix: (Units=GPa)
#
#
# Indices 1 2 3 4 5 6 
#
# 1 73.2172 21.2077 30.9569 -0.9734 0.0000 0.0000
# 2 21.2077 73.2172 30.9569 0.9734 0.0000 0.0000
# 3 30.9569 30.9569 94.5546 0.0000 0.0000 0.0000
# 4 -0.9734 0.9734 0.0000 29.4703 0.0000 0.0000
# 5 0.0000 0.0000 0.0000 0.0000 29.4703 -0.9734
# 6 0.0000 0.0000 0.0000 0.0000 -0.9734 26.0048
#
#
#
# Elastic Compliance Matrix: (Units=1/GPa)
#
#
# Indices 1 2 3 4 5 6 
#
# 1 0.016368 -0.002883 -0.004415 0.000636 0.000000 0.000000
# 2 -0.002883 0.016368 -0.004415 -0.000636 0.000000 0.000000
# 3 -0.004415 -0.004415 0.013467 0.000000 0.000000 0.000000
# 4 0.000636 -0.000636 0.000000 0.033974 0.000000 0.000000
# 5 0.000000 0.000000 0.000000 0.000000 0.033974 0.001272
# 6 0.000000 0.000000 0.000000 0.000000 0.001272 0.038502
#
#
# Mechanical properties :
#
#
# Convention : Reuss Voigt Hill
#
# Bulk Modulus (GPa) = 43.90337 45.24803 44.57570
# Shear Modulus (GPa) = 27.22233 27.51357 27.36795
#
# Velocity S-wave (km/s) = 3.65835 3.67787 3.66812
# Velocity P-wave (km/s) = 6.27927 6.34675 6.31310
#
# Compressibility (1/GPa) = 0.02277729
#
# Stress axis : x y z
#
# Youngs Moduli (GPa) = 61.09407 61.09407 74.25630
#
# Poissons Ratio (x) = 0.17612 0.32785
# Poissons Ratio (y) = 0.17612 0.32785
# Poissons Ratio (z) = 0.26973 0.26973
#
# Static dielectric constant tensor:
#      x y z
#    x 1.770170 0.000000 0.000000 
#    y 0.000000 1.770170 0.000000 
#    z 0.000000 0.000000 1.734780 
# 
# From -- ./inp_files/1450.got.cif
#   From: 2010.05.17/outbox.cif.g08.bks.cpg/sg161_cif.got.tgz:1450.got - 2010.05.20 10:52:32.
