data_PCOD9577797
_publ_section_title
;
Structure prediction by ZEFSAII (Michael W. Deem and Ramdas Pophale) SiO2 
 PCOD9577797
Probable space group: P -3 1 M 
;
_chemical_formula_sum "Si O2"
_cell_formula_units_Z 40
_cell_length_a 18.427955
_cell_length_b 18.427955
_cell_length_c 7.349947
_cell_angle_alpha 90.000000
_cell_angle_beta 90.000000
_cell_angle_gamma 120.000000
_cell_volume 2161.569109
_symmetry_space_group_name_H-M "P -3 1 M "
_symmetry_group_IT_number 162
_symmetry_cell_setting 'hexagonal'
loop_
_space_group_symop_operation_xyz
x,y,z
-y,x-y,z
-x+y,-x,z
-y,-x,-z
-x+y,y,-z
x,x-y,-z
-x,-y,-z
y,-x+y,-z
x-y,x,-z
y,x,z
x-y,-y,z
-x,-x+y,z
loop_
_atom_site_type_symbol
_atom_site_label
_atom_site_fract_x
_atom_site_fract_y
_atom_site_fract_z
Si Si1 0.739475 0.097564 0.984063
Si Si2 0.097727 0.634133 0.653603
Si Si3 0.666667 0.333334 0.279512
Si Si4 0.836365 0.487726 0.258595
O O1 0.691286 0.123187 0.131779
O O2 0.709348 0.000000 0.004960
O O3 0.837571 0.162429 0.000000
O O4 0.706479 0.110068 0.789856
O O5 0.120013 0.569613 0.753136
O O6 0.151341 0.665744 0.470336
O O7 0.000000 0.582560 0.600552
O O8 0.666668 0.333334 0.500000
O O9 0.739059 0.424196 0.218050
#
# Coordination Sequence:
#
# PCOD9577797 Si02
#       4
#    12  12   4  12
#     4  11  24  39  57  80 104 136 177 224 277 332
#     4  10  20  34  54  79 108 145 187 226 266 314
#     4  12  21  33  51  82 111 156 199 225 249 301
#     4  11  21  35  53  75 114 151 187 225 261 295
#
# _framework density 18.505074
#
# number of rings (size 3 to 8) (size 9 to 14) (size 15 to 20)
#    0.000    1.200    3.000    6.300    0.000    2.400 
#    0.000    3.000    0.000    0.300    0.000    0.000 
#    0.000    0.000    0.000    9.600    0.000    0.000 
#
# Total GULP energy -223876.295244 kJ/mol
# GULP energy per Si atom -5596.907381 kJ/mol
# Density = 1.846296 g / cm^3
# Si number density = 18.505074 Si / 1000 Ang^3
#
#
#
# Elastic Constant Matrix: (Units=GPa)
#
#
# Indices 1 2 3 4 5 6 
#
# 1 124.1933 61.8259 38.2382 -0.0001 -0.6948 0.0001
# 2 61.8259 124.1936 38.2381 -0.0001 0.6948 0.0002
# 3 38.2382 38.2381 62.3028 -0.0001 0.0000 0.0001
# 4 -0.0001 -0.0001 -0.0001 16.0158 0.0001 0.6948
# 5 -0.6948 0.6948 0.0000 0.0001 16.0157 -0.0001
# 6 0.0001 0.0002 0.0001 0.6948 -0.0001 31.1838
#
#
#
# Elastic Compliance Matrix: (Units=1/GPa)
#
#
# Indices 1 2 3 4 5 6 
#
# 1 0.011620 -0.004430 -0.004413 0.000000 0.000696 0.000000
# 2 -0.004430 0.011620 -0.004413 0.000000 -0.000696 0.000000
# 3 -0.004413 -0.004413 0.021467 0.000000 0.000000 0.000000
# 4 0.000000 0.000000 0.000000 0.062499 0.000000 -0.001392
# 5 0.000696 -0.000696 0.000000 0.000000 0.062499 0.000000
# 6 0.000000 0.000000 0.000000 -0.001392 0.000000 0.032099
#
#
# Mechanical properties :
#
#
# Convention : Reuss Voigt Hill
#
# Bulk Modulus (GPa) = 54.95711 65.25491 60.10601
# Shear Modulus (GPa) = 21.33290 24.13557 22.73423
#
# Velocity S-wave (km/s) = 3.39899 3.61538 3.50886
# Velocity P-wave (km/s) = 6.72065 7.26414 6.99767
#
# Compressibility (1/GPa) = 0.01819601
#
# Stress axis : x y z
#
# Youngs Moduli (GPa) = 86.06021 86.06065 46.58235
#
# Poissons Ratio (x) = 0.38123 0.20556
# Poissons Ratio (y) = 0.38123 0.20556
# Poissons Ratio (z) = 0.37977 0.37977
#
# Static dielectric constant tensor:
#      x y z
#    x 1.647590 0.000000 0.000000 
#    y 0.000000 1.647590 0.000000 
#    z 0.000000 0.000000 1.664500 
# 
# From -- ./inp_files/1110.got.cif
#   From: 2010.05.17/outbox.cif.g08.bks.cpg/sg162_1_cif.got.tgz:1110.got - 2010.05.20 10:53:12.
