data_PCOD9577810
_publ_section_title
;
Structure prediction by ZEFSAII (Michael W. Deem and Ramdas Pophale) SiO2 
 PCOD9577810
Probable space group: P -3 1 M 
;
_chemical_formula_sum "Si O2"
_cell_formula_units_Z 76
_cell_length_a 17.836941
_cell_length_b 17.836941
_cell_length_c 15.648639
_cell_angle_alpha 90.000000
_cell_angle_beta 90.000000
_cell_angle_gamma 120.000000
_cell_volume 4311.694235
_symmetry_space_group_name_H-M "P -3 1 M "
_symmetry_group_IT_number 162
_symmetry_cell_setting 'hexagonal'
loop_
_space_group_symop_operation_xyz
x,y,z
-y,x-y,z
-x+y,-x,z
-y,-x,-z
-x+y,y,-z
x,x-y,-z
-x,-y,-z
y,-x+y,-z
x-y,x,-z
y,x,z
x-y,-y,z
-x,-x+y,z
loop_
_atom_site_type_symbol
_atom_site_label
_atom_site_fract_x
_atom_site_fract_y
_atom_site_fract_z
Si Si1 0.895763 0.531072 0.980437
Si Si2 0.369148 0.264620 0.817719
Si Si3 0.462809 0.102094 0.510946
Si Si4 0.619448 0.103019 0.300760
Si Si5 0.627433 0.896028 0.146901
Si Si6 0.333334 0.666668 0.394691
Si Si7 0.180258 0.685955 0.660352
O O1 0.874901 0.577401 0.056930
O O2 0.000000 0.576729 0.980974
O O3 0.860267 0.430134 0.000000
O O4 0.874852 0.557042 0.889368
O O5 0.305578 0.305578 0.815380
O O6 0.329221 0.163675 0.842003
O O7 0.419033 0.275314 0.729425
O O8 0.563183 0.126365 0.500000
O O9 0.449262 0.117788 0.608536
O O10 0.450336 0.150085 0.432353
O O11 0.406788 0.000000 0.495234
O O12 0.682799 0.128953 0.220218
O O13 0.552344 0.137410 0.310563
O O14 0.558857 0.000000 0.292854
O O15 0.692577 0.000000 0.151991
O O16 0.333334 0.666667 0.500000
O O17 0.291714 0.721417 0.356282
#
# Coordination Sequence:
#
# PCOD9577810 Si02
#       7
#    12  12  12  12  12   4  12
#     4   9  18  33  54  78 103 133 167 200 237 289
#     4  11  22  35  54  78 101 131 174 219 263 313
#     4   8  14  26  45  66  89 123 166 206 244 290
#     4   9  16  29  50  71  94 131 172 205 249 307
#     4  10  20  35  54  75 101 132 168 214 264 312
#     4  12  24  33  45  69 106 149 184 213 252 303
#     4  11  20  31  45  68 102 136 170 211 251 292
#
# _framework density 17.626480999999998
#
# number of rings (size 3 to 8) (size 9 to 14) (size 15 to 20)
#    0.000    2.211    0.000    6.158    0.000    2.526 
#    0.000    0.000    0.000    4.737    0.000    0.000 
#    0.000    3.789    0.000    0.000    0.000   15.158 
#
# Total GULP energy -423431.469619 kJ/mol
# GULP energy per Si atom -5571.466706 kJ/mol
# Density = 1.758636 g / cm^3
# Si number density = 17.626481 Si / 1000 Ang^3
#
#
#
# Elastic Constant Matrix: (Units=GPa)
#
#
# Indices 1 2 3 4 5 6 
#
# 1 51.0430 19.5546 -3.4017 0.0000 -6.3765 -0.0002
# 2 19.5546 51.0434 -3.4020 0.0001 6.3764 -0.0001
# 3 -3.4017 -3.4020 68.9847 0.0001 0.0002 0.0002
# 4 0.0000 0.0001 0.0001 10.7508 0.0000 6.3765
# 5 -6.3765 6.3764 0.0002 0.0000 10.7509 -0.0001
# 6 -0.0002 -0.0001 0.0002 6.3765 -0.0001 15.7440
#
#
#
# Elastic Compliance Matrix: (Units=1/GPa)
#
#
# Indices 1 2 3 4 5 6 
#
# 1 0.028015 -0.013783 0.000702 0.000000 0.024791 0.000001
# 2 -0.013783 0.028015 0.000702 0.000000 -0.024791 0.000000
# 3 0.000702 0.000702 0.014565 0.000000 0.000000 0.000000
# 4 0.000000 0.000000 0.000000 0.122425 0.000000 -0.049584
# 5 0.024791 -0.024791 0.000000 0.000000 0.122423 0.000001
# 6 0.000001 0.000000 0.000000 -0.049584 0.000001 0.083599
#
#
# Mechanical properties :
#
#
# Convention : Reuss Voigt Hill
#
# Bulk Modulus (GPa) = 21.81630 21.84145 21.82888
# Shear Modulus (GPa) = 11.38746 18.00382 14.69564
#
# Velocity S-wave (km/s) = 2.54449 3.19941 2.89056
# Velocity P-wave (km/s) = 4.58655 5.10554 4.85299
#
# Compressibility (1/GPa) = 0.04583729
#
# Stress axis : x y z
#
# Youngs Moduli (GPa) = 35.69482 35.69522 68.65689
#
# Poissons Ratio (x) = 0.49198 -0.04818
# Poissons Ratio (y) = 0.49197 -0.04820
# Poissons Ratio (z) = -0.02505 -0.02506
#
# Static dielectric constant tensor:
#      x y z
#    x 1.630620 0.000000 0.000000 
#    y 0.000000 1.630620 0.000000 
#    z 0.000000 0.000000 1.648610 
# 
# From -- ./inp_files/3108.got.cif
#   From: 2010.05.17/outbox.cif.g08.bks.cpg/sg162_2_cif.got.tgz:3108.got - 2010.05.20 10:53:12.
