data_PCOD9577089
_publ_section_title
;
Structure prediction by ZEFSAII (Michael W. Deem and Ramdas Pophale) SiO2 
 PCOD9577089
Probable space group: R 3 2
;
_chemical_formula_sum "Si O2"
_cell_formula_units_Z 60
_cell_length_a 14.115059
_cell_length_b 14.115059
_cell_length_c 15.573287
_cell_angle_alpha 90.000000
_cell_angle_beta 90.000000
_cell_angle_gamma 120.000000
_cell_volume 2687.053507
_symmetry_space_group_name_H-M "R 3 2"
_symmetry_group_IT_number 155
_symmetry_cell_setting 'hexagonal'
loop_
_space_group_symop_operation_xyz
x,y,z
-y,x-y,z
-x+y,-x,z
x-y,-y,-z
-x,-x+y,-z
y,x,-z
2/3+x,1/3+y,1/3+z
2/3-y,1/3+x-y,1/3+z
2/3-x+y,1/3-x,1/3+z
2/3+x-y,1/3-y,1/3-z
2/3-x,1/3-x+y,1/3-z
2/3+y,1/3+x,1/3-z
1/3+x,2/3+y,2/3+z
1/3-y,2/3+x-y,2/3+z
1/3-x+y,2/3-x,2/3+z
1/3+x-y,2/3-y,2/3-z
1/3-x,2/3-x+y,2/3-z
1/3+y,2/3+x,2/3-z
loop_
_atom_site_type_symbol
_atom_site_label
_atom_site_fract_x
_atom_site_fract_y
_atom_site_fract_z
Si Si1 0.333334 0.666668 0.770565
Si Si2 0.738123 0.954006 0.632128
Si Si3 0.494297 0.039303 0.865810
Si Si4 0.548137 0.724320 0.877483
O O1 0.333334 0.666668 0.666667
O O2 0.452871 0.705381 0.811432
O O3 0.679887 0.869939 0.555070
O O4 0.783665 0.907987 0.705280
O O5 0.650434 0.983767 0.666667
O O6 0.833848 0.067442 0.592864
O O7 0.452148 0.118814 0.833334
O O8 0.392803 0.928756 0.901590
O O9 0.666667 0.793453 0.833334
#
# Coordination Sequence:
#
# PCOD9577089 Si02
#       4
#     6  18  18  18
#     4  12  30  48  72 118 152 193 258 312 384 450
#     4  11  26  47  78 107 152 193 255 307 380 445
#     4  10  26  49  74 109 150 199 247 316 374 449
#     4  11  28  48  79 108 150 203 249 311 381 455
#
# _framework density 22.329291999999999
#
# number of rings (size 3 to 8) (size 9 to 14) (size 15 to 20)
#    0.000    1.200    0.000    1.800   21.000    2.400 
#    7.200    0.000    0.000    0.000    0.000    0.000 
#    0.000    0.000    0.000    0.000    0.000    0.000 
#
# Total GULP energy -112020.739487 kJ/mol
# GULP energy per Si atom -5601.036974 kJ/mol
# Density = 2.227847 g / cm^3
# Si number density = 22.329292 Si / 1000 Ang^3
#
#
#
# Elastic Constant Matrix: (Units=GPa)
#
#
# Indices 1 2 3 4 5 6 
#
# 1 140.8781 60.6932 67.5411 -1.2385 0.0005 -0.0001
# 2 60.6932 140.8772 67.5411 1.2387 -0.0004 0.0001
# 3 67.5411 67.5411 141.7392 -0.0001 0.0001 0.0000
# 4 -1.2385 1.2387 -0.0001 41.3434 0.0000 -0.0005
# 5 0.0005 -0.0004 0.0001 0.0000 41.3437 -1.2384
# 6 -0.0001 0.0001 0.0000 -0.0005 -1.2384 40.0924
#
#
#
# Elastic Compliance Matrix: (Units=1/GPa)
#
#
# Indices 1 2 3 4 5 6 
#
# 1 0.009886 -0.002597 -0.003473 0.000374 0.000000 0.000000
# 2 -0.002597 0.009886 -0.003473 -0.000374 0.000000 0.000000
# 3 -0.003473 -0.003473 0.010365 0.000000 0.000000 0.000000
# 4 0.000374 -0.000374 0.000000 0.024210 0.000000 0.000000
# 5 0.000000 0.000000 0.000000 0.000000 0.024210 0.000748
# 6 0.000000 0.000000 0.000000 0.000000 0.000748 0.024965
#
#
# Mechanical properties :
#
#
# Convention : Reuss Voigt Hill
#
# Bulk Modulus (GPa) = 90.49913 90.56059 90.52986
# Shear Modulus (GPa) = 39.59081 39.73717 39.66399
#
# Velocity S-wave (km/s) = 4.21532 4.22311 4.21921
# Velocity P-wave (km/s) = 8.01930 8.02648 8.02289
#
# Compressibility (1/GPa) = 0.01104983
#
# Stress axis : x y z
#
# Youngs Moduli (GPa) = 101.15705 101.15615 96.47666
#
# Poissons Ratio (x) = 0.26272 0.33507
# Poissons Ratio (y) = 0.26272 0.33508
# Poissons Ratio (z) = 0.35133 0.35133
#
# Static dielectric constant tensor:
#      x y z
#    x 1.629740 0.000000 0.000000 
#    y 0.000000 1.629750 0.000000 
#    z 0.000000 0.000000 1.802640 
# 
# From -- ./inp_files/4748.got.cif
#   From: 2010.05.17/outbox.cif.g08.bks.cpg/sg155_3_cif.got.tgz:4748.got - 2010.05.20 10:44:35.
