data_PCOD9577837
_publ_section_title
;
Structure prediction by ZEFSAII (Michael W. Deem and Ramdas Pophale) SiO2 
 PCOD9577837
Probable space group: P -3 1 M 
;
_chemical_formula_sum "Si O2"
_cell_formula_units_Z 76
_cell_length_a 18.748588
_cell_length_b 18.748588
_cell_length_c 14.472510
_cell_angle_alpha 90.000000
_cell_angle_beta 90.000000
_cell_angle_gamma 120.000000
_cell_volume 4405.666523
_symmetry_space_group_name_H-M "P -3 1 M "
_symmetry_group_IT_number 162
_symmetry_cell_setting 'hexagonal'
loop_
_space_group_symop_operation_xyz
x,y,z
-y,x-y,z
-x+y,-x,z
-y,-x,-z
-x+y,y,-z
x,x-y,-z
-x,-y,-z
y,-x+y,-z
x-y,x,-z
y,x,z
x-y,-y,z
-x,-x+y,z
loop_
_atom_site_type_symbol
_atom_site_label
_atom_site_fract_x
_atom_site_fract_y
_atom_site_fract_z
Si Si1 0.675481 0.908722 0.378209
Si Si2 0.333334 0.666667 0.890777
Si Si3 0.463426 0.144335 0.765980
Si Si4 0.368843 0.095095 0.411191
Si Si5 0.686997 0.184488 0.851414
Si Si6 0.414999 0.510046 0.691858
Si Si7 0.908891 0.538429 0.024455
O O1 0.618212 0.904695 0.294355
O O2 0.634002 0.904125 0.477657
O O3 0.672985 0.820853 0.376477
O O4 0.757382 0.000000 0.376492
O O5 0.244499 0.648710 0.860199
O O6 0.333334 0.666667 0.000000
O O7 0.471775 0.231445 0.792810
O O8 0.535706 0.144373 0.704185
O O9 0.460274 0.106532 0.866898
O O10 0.461796 0.124352 0.376938
O O11 0.315131 0.000000 0.380085
O O12 0.626564 0.105178 0.792331
O O13 0.695620 0.156928 0.953580
O O14 0.479923 0.479923 0.671669
O O15 0.000000 0.611334 0.003534
O O16 0.905912 0.452956 0.000000
#
# Coordination Sequence:
#
# PCOD9577837 Si02
#       7
#    12   4  12  12  12  12  12
#     4  10  20  36  58  84 109 134 171 219 266 316
#     4  12  21  33  45  66  97 131 178 222 264 309
#     4  12  22  34  52  78 106 138 180 225 270 306
#     4   9  20  38  59  80 106 140 175 211 260 322
#     4  12  21  33  49  71 100 137 175 219 264 314
#     4  11  21  35  53  75 102 138 180 218 260 313
#     4  11  21  34  49  70 100 136 178 225 270 315
#
# _framework density 17.250512000000001
#
# number of rings (size 3 to 8) (size 9 to 14) (size 15 to 20)
#    0.000    1.105    4.737    3.789    0.000    0.632 
#    0.000    2.368    0.000    0.316    0.000    2.211 
#    0.000    0.000    0.000    0.000    0.000    5.842 
#
# Total GULP energy -423260.784375 kJ/mol
# GULP energy per Si atom -5569.220847 kJ/mol
# Density = 1.721125 g / cm^3
# Si number density = 17.250512 Si / 1000 Ang^3
#
#
#
# Elastic Constant Matrix: (Units=GPa)
#
#
# Indices 1 2 3 4 5 6 
#
# 1 62.3910 31.4468 19.7480 0.0001 3.0326 0.0000
# 2 31.4468 62.3916 19.7482 -0.0002 -3.0327 0.0004
# 3 19.7480 19.7482 56.7443 -0.0001 0.0000 0.0000
# 4 0.0001 -0.0002 -0.0001 20.2260 0.0000 -3.0326
# 5 3.0326 -3.0327 0.0000 0.0000 20.2260 -0.0001
# 6 0.0000 0.0004 0.0000 -3.0326 -0.0001 15.4730
#
#
#
# Elastic Compliance Matrix: (Units=1/GPa)
#
#
# Indices 1 2 3 4 5 6 
#
# 1 0.022890 -0.010404 -0.004345 0.000000 -0.004992 0.000000
# 2 -0.010404 0.022890 -0.004345 0.000000 0.004992 0.000000
# 3 -0.004345 -0.004345 0.020647 0.000000 0.000000 0.000000
# 4 0.000000 0.000000 0.000000 0.050938 0.000000 0.009984
# 5 -0.004992 0.004992 0.000000 0.000000 0.050938 0.000000
# 6 0.000000 0.000000 0.000000 0.009984 0.000000 0.066585
#
#
# Mechanical properties :
#
#
# Convention : Reuss Voigt Hill
#
# Bulk Modulus (GPa) = 35.41379 35.93478 35.67429
# Shear Modulus (GPa) = 17.69964 18.55726 18.12845
#
# Velocity S-wave (km/s) = 3.20665 3.28342 3.24527
# Velocity P-wave (km/s) = 5.85524 5.93724 5.89639
#
# Compressibility (1/GPa) = 0.02823759
#
# Stress axis : x y z
#
# Youngs Moduli (GPa) = 43.68706 43.68741 48.43236
#
# Poissons Ratio (x) = 0.45454 0.21045
# Poissons Ratio (y) = 0.45454 0.21045
# Poissons Ratio (z) = 0.18983 0.18983
#
# Static dielectric constant tensor:
#      x y z
#    x 1.626410 0.000000 0.000000 
#    y 0.000000 1.626410 0.000000 
#    z 0.000000 0.000000 1.604700 
# 
# From -- ./inp_files/3110.got.cif
#   From: 2010.05.17/outbox.cif.g08.bks.cpg/sg162_2_cif.got.tgz:3110.got - 2010.05.20 10:53:12.
