data_PCOD9577751
_publ_section_title
;
Structure prediction by ZEFSAII (Michael W. Deem and Ramdas Pophale) SiO2 
 PCOD9577751
Probable space group: P -3 1 M 
;
_chemical_formula_sum "Si O2"
_cell_formula_units_Z 64
_cell_length_a 14.851189
_cell_length_b 14.851189
_cell_length_c 17.776690
_cell_angle_alpha 90.000000
_cell_angle_beta 90.000000
_cell_angle_gamma 120.000000
_cell_volume 3395.501924
_symmetry_space_group_name_H-M "P -3 1 M "
_symmetry_group_IT_number 162
_symmetry_cell_setting 'hexagonal'
loop_
_space_group_symop_operation_xyz
x,y,z
-y,x-y,z
-x+y,-x,z
-y,-x,-z
-x+y,y,-z
x,x-y,-z
-x,-y,-z
y,-x+y,-z
x-y,x,-z
y,x,z
x-y,-y,z
-x,-x+y,z
loop_
_atom_site_type_symbol
_atom_site_label
_atom_site_fract_x
_atom_site_fract_y
_atom_site_fract_z
Si Si1 0.794174 0.265414 0.807211
Si Si2 0.874666 0.754612 0.248072
Si Si3 0.333335 0.666668 0.910702
Si Si4 0.617022 0.122324 0.433248
Si Si5 0.183954 0.876614 0.585211
Si Si6 0.474322 0.587742 0.273378
O O1 0.842485 0.189562 0.803806
O O2 0.740776 0.289682 0.878299
O O3 0.696614 0.207491 0.751106
O O4 0.876052 0.376434 0.773149
O O5 0.818040 0.818040 0.224342
O O6 0.841146 0.719288 0.336086
O O7 0.000000 0.827068 0.246472
O O8 0.333334 0.666667 0.000000
O O9 0.585746 0.171491 0.500000
O O10 0.737502 0.168057 0.417212
O O11 0.556949 0.121423 0.359383
O O12 0.573344 0.000000 0.453816
O O13 0.138975 0.861026 0.500000
O O14 0.249115 0.000000 0.595795
O O15 0.572811 0.572811 0.258557
#
# Coordination Sequence:
#
# PCOD9577751 Si02
#       6
#    12  12   4  12  12  12
#     4  10  20  35  61  88 116 151 186 224 291 351
#     4  11  22  37  57  83 117 162 215 263 300 339
#     4   9  21  42  69 102 133 149 169 213 279 366
#     4   9  18  29  43  65  99 141 185 241 304 353
#     4  10  20  33  47  69 102 147 202 260 315 355
#     4  10  19  34  51  76 111 144 189 243 290 348
#
# _framework density 18.848465000000001
#
# number of rings (size 3 to 8) (size 9 to 14) (size 15 to 20)
#    0.000    2.062    1.875    2.250    2.625    0.000 
#    0.000    0.000    0.000   23.625    0.000    0.000 
#    0.000    1.500    0.000    0.000    0.000    0.000 
#
# Total GULP energy -356577.079214 kJ/mol
# GULP energy per Si atom -5571.516863 kJ/mol
# Density = 1.880556 g / cm^3
# Si number density = 18.848465 Si / 1000 Ang^3
#
#
#
# Elastic Constant Matrix: (Units=GPa)
#
#
# Indices 1 2 3 4 5 6 
#
# 1 77.8927 33.3693 25.9251 0.0001 3.3926 -0.0001
# 2 33.3693 77.8929 25.9253 -0.0001 -3.3925 0.0000
# 3 25.9251 25.9253 87.3310 -0.0005 -0.0001 -0.0001
# 4 0.0001 -0.0001 -0.0005 7.4070 0.0000 -3.3926
# 5 3.3926 -3.3925 -0.0001 0.0000 7.4070 0.0002
# 6 -0.0001 0.0000 -0.0001 -3.3926 0.0002 22.2617
#
#
#
# Elastic Compliance Matrix: (Units=1/GPa)
#
#
# Indices 1 2 3 4 5 6 
#
# 1 0.017288 -0.006857 -0.003096 -0.000001 -0.011059 0.000000
# 2 -0.006857 0.017288 -0.003097 0.000000 0.011059 0.000000
# 3 -0.003096 -0.003097 0.013289 0.000001 0.000000 0.000000
# 4 -0.000001 0.000000 0.000001 0.145139 -0.000001 0.022118
# 5 -0.011059 0.011059 0.000000 -0.000001 0.145139 -0.000001
# 6 0.000000 0.000000 0.000000 0.022118 -0.000001 0.048291
#
#
# Mechanical properties :
#
#
# Convention : Reuss Voigt Hill
#
# Bulk Modulus (GPa) = 45.94583 45.95068 45.94825
# Shear Modulus (GPa) = 11.91074 17.94158 14.92616
#
# Velocity S-wave (km/s) = 2.51653 3.08861 2.81713
# Velocity P-wave (km/s) = 5.73352 6.09519 5.91712
#
# Compressibility (1/GPa) = 0.02176476
#
# Stress axis : x y z
#
# Youngs Moduli (GPa) = 57.84315 57.84327 75.24932
#
# Poissons Ratio (x) = 0.39665 0.23301
# Poissons Ratio (y) = 0.39665 0.23301
# Poissons Ratio (z) = 0.17911 0.17911
#
# Static dielectric constant tensor:
#      x y z
#    x 1.688990 0.000000 0.000000 
#    y 0.000000 1.688990 0.000000 
#    z 0.000000 0.000000 1.640920 
# 
# From -- ./inp_files/3474.got.cif
#   From: 2010.05.17/outbox.cif.g08.bks.cpg/sg162_2_cif.got.tgz:3474.got - 2010.05.20 10:53:12.
