data_PCOD9577274
_publ_section_title
;
Structure prediction by ZEFSAII (Michael W. Deem and Ramdas Pophale) SiO2 
 PCOD9577274
Probable space group: P 3 1 M
;
_chemical_formula_sum "Si O2"
_cell_formula_units_Z 30
_cell_length_a 15.000000
_cell_length_b 15.000000
_cell_length_c 9.000000
_cell_angle_alpha 90.000000
_cell_angle_beta 90.000000
_cell_angle_gamma 120.000000
_cell_volume 1753.701443
_symmetry_space_group_name_H-M "P 3 1 M"
_symmetry_group_IT_number 157
_symmetry_cell_setting 'hexagonal'
loop_
_space_group_symop_operation_xyz
x,y,z
-y,x-y,z
-x+y,-x,z
y,x,z
x-y,-y,z
-x,-x+y,z
loop_
_atom_site_type_symbol
_atom_site_label
_atom_site_fract_x
_atom_site_fract_y
_atom_site_fract_z
Si Si1 0.734317 0.469354 0.382380
Si Si2 0.876922 0.753231 0.890082
Si Si3 0.553482 0.774368 0.711100
Si Si4 0.289903 0.411325 0.120333
Si Si5 0.879507 0.447202 0.865546
O O1 0.611601 0.388828 0.374102
O O2 0.750029 0.526193 0.538878
O O3 0.795074 0.548725 0.251244
O O4 0.816185 0.816185 0.916343
O O5 0.824924 0.673323 0.752930
O O6 0.000000 0.830193 0.869286
O O7 0.867220 0.672548 0.019810
O O8 0.513564 0.853111 0.751904
O O9 0.486833 0.671501 0.813228
O O10 0.354344 0.354344 0.165919
O O11 0.369627 0.511282 0.021161
O O12 0.000000 0.484012 0.862840
#
# Coordination Sequence:
#
# PCOD9577274 Si02
#       5
#     6   6   6   6   6
#     4  10  21  36  53  85 122 168 190 226 290 353
#     4  10  22  41  64  86 110 148 203 263 309 349
#     4  11  19  36  56  83 119 156 190 233 288 353
#     4   9  21  37  57  85 118 155 197 246 293 346
#     4  10  20  34  54  81 110 151 196 234 282 335
#
# _framework density 17.106674999999999
#
# number of rings (size 3 to 8) (size 9 to 14) (size 15 to 20)
#    0.400    1.600    2.000    3.000    5.600    1.600 
#    0.000    2.000    0.000    0.000    0.000    2.800 
#    0.000    0.000    0.000    0.000    0.000    0.000 
#
# Total GULP energy -167053.892463 kJ/mol
# GULP energy per Si atom -5568.463082 kJ/mol
# Density = 1.706774 g / cm^3
# Si number density = 17.106675 Si / 1000 Ang^3
#
#
#
# Elastic Constant Matrix: (Units=GPa)
#
#
# Indices 1 2 3 4 5 6 
#
# 1 99.4813 33.2389 43.0374 0.0000 1.8767 0.0000
# 2 33.2389 99.4813 43.0374 0.0000 -1.8767 0.0000
# 3 43.0374 43.0374 76.9440 0.0000 0.0000 0.0000
# 4 0.0000 0.0000 0.0000 20.5010 0.0000 -1.8767
# 5 1.8767 -1.8767 0.0000 0.0000 20.5010 0.0000
# 6 0.0000 0.0000 0.0000 -1.8767 0.0000 33.1212
#
#
#
# Elastic Compliance Matrix: (Units=1/GPa)
#
#
# Indices 1 2 3 4 5 6 
#
# 1 0.013499 -0.001676 -0.006613 0.000000 -0.001389 0.000000
# 2 -0.001676 0.013499 -0.006613 0.000000 0.001389 0.000000
# 3 -0.006613 -0.006613 0.020395 0.000000 0.000000 0.000000
# 4 0.000000 0.000000 0.000000 0.049032 0.000000 0.002778
# 5 -0.001389 0.001389 0.000000 0.000000 0.049032 0.000000
# 6 0.000000 0.000000 0.000000 0.002778 0.000000 0.030350
#
#
# Mechanical properties :
#
#
# Convention : Reuss Voigt Hill
#
# Bulk Modulus (GPa) = 56.85542 57.17048 57.01295
# Shear Modulus (GPa) = 23.64345 25.26418 24.45381
#
# Velocity S-wave (km/s) = 3.72172 3.84716 3.78496
# Velocity P-wave (km/s) = 7.19557 7.29567 7.24579
#
# Compressibility (1/GPa) = 0.01758847
#
# Stress axis : x y z
#
# Youngs Moduli (GPa) = 74.07815 74.07815 49.03239
#
# Poissons Ratio (x) = 0.12412 0.32427
# Poissons Ratio (y) = 0.12412 0.32427
# Poissons Ratio (z) = 0.48991 0.48991
#
# Static dielectric constant tensor:
#      x y z
#    x 1.575670 0.000000 0.000000 
#    y 0.000000 1.575670 0.000000 
#    z 0.000000 0.000000 1.602800 
# 
# From -- ./inp_files/331.got.cif
#   From: 2010.05.17/outbox.ucp.g08.bks.cvg/sg157_cif.got.tgz:331.got - 2010.06.11 15:14:25.
