data_PCOD9577621
_publ_section_title
;
Structure prediction by ZEFSAII (Michael W. Deem and Ramdas Pophale) SiO2 
 PCOD9577621
Probable space group: R 3 C
;
_chemical_formula_sum "Si O2"
_cell_formula_units_Z 108
_cell_length_a 14.321557
_cell_length_b 14.321557
_cell_length_c 28.184998
_cell_angle_alpha 90.000000
_cell_angle_beta 90.000000
_cell_angle_gamma 120.000000
_cell_volume 5006.441107
_symmetry_space_group_name_H-M "R 3 C"
_symmetry_group_IT_number 161
_symmetry_cell_setting 'hexagonal'
loop_
_space_group_symop_operation_xyz
x,y,z
-y,x-y,z
-x+y,-x,z
-x+y,y,1/2+z
x,x-y,1/2+z
-y,-x,1/2+z
2/3+x,1/3+y,1/3+z
2/3-y,1/3+x-y,1/3+z
2/3-x+y,1/3-x,1/3+z
2/3-x+y,1/3+y,5/6+z
2/3+x,1/3+x-y,5/6+z
2/3-y,1/3-x,5/6+z
1/3+x,2/3+y,2/3+z
1/3-y,2/3+x-y,2/3+z
1/3-x+y,2/3-x,2/3+z
1/3-x+y,2/3+y,1/6+z
1/3+x,2/3+x-y,1/6+z
1/3-y,2/3-x,1/6+z
loop_
_atom_site_type_symbol
_atom_site_label
_atom_site_fract_x
_atom_site_fract_y
_atom_site_fract_z
Si Si1 0.844259 0.566029 0.957628
Si Si2 0.237393 0.819560 0.183686
Si Si3 0.481559 0.904613 0.180679
Si Si4 0.762608 0.180442 0.105062
Si Si5 0.278230 0.844259 0.331120
Si Si6 0.185109 0.756389 0.941403
O O1 0.925680 0.678746 0.980908
O O2 0.853734 0.591854 0.902090
O O3 0.727408 0.534664 0.979530
O O4 0.867996 0.473922 0.975884
O O5 0.353043 0.830301 0.190840
O O6 0.160259 0.700596 0.163131
O O7 0.183443 0.850110 0.227707
O O8 0.500001 1.000000 0.144374
O O9 0.740988 0.086402 0.141174
O O10 0.839742 0.299405 0.125617
O O11 0.646958 0.169700 0.097908
O O12 0.261879 0.853733 0.386658
#
# Coordination Sequence:
#
# PCOD9577621 Si02
#       6
#    18  18  18  18  18  18
#     4  12  23  42  73 103 141 187 242 292 348 421
#     4  12  25  44  70 102 143 182 237 288 357 416
#     4  12  27  44  72 107 146 183 235 298 355 415
#     4  12  25  44  70 102 143 182 237 288 357 416
#     4  12  23  42  73 103 141 187 242 292 348 421
#     4  12  27  44  72 107 146 183 235 298 355 415
#
# _framework density 21.572210999999999
#
# number of rings (size 3 to 8) (size 9 to 14) (size 15 to 20)
#    0.000    0.000    6.667    3.000    0.000    0.000 
#    0.000    0.000    0.000    4.000    0.000    0.000 
#    0.000    0.000    0.000    0.000    0.000    0.000 
#
# Total GULP energy -200654.767123 kJ/mol
# GULP energy per Si atom -5573.743531 kJ/mol
# Density = 2.152311 g / cm^3
# Si number density = 21.572211 Si / 1000 Ang^3
#
#
#
# Elastic Constant Matrix: (Units=GPa)
#
#
# Indices 1 2 3 4 5 6 
#
# 1 116.7334 26.9306 9.8767 -7.4818 0.0000 0.0000
# 2 26.9306 116.7334 9.8767 7.4818 0.0000 0.0000
# 3 9.8767 9.8767 98.7184 0.0000 0.0000 0.0000
# 4 -7.4818 7.4818 0.0000 19.4504 0.0000 0.0000
# 5 0.0000 0.0000 0.0000 0.0000 19.4504 -7.4818
# 6 0.0000 0.0000 0.0000 0.0000 -7.4818 44.9014
#
#
#
# Elastic Compliance Matrix: (Units=1/GPa)
#
#
# Indices 1 2 3 4 5 6 
#
# 1 0.009478 -0.002420 -0.000706 0.004577 0.000000 0.000000
# 2 -0.002420 0.009478 -0.000706 -0.004577 0.000000 0.000000
# 3 -0.000706 -0.000706 0.010271 0.000000 0.000000 0.000000
# 4 0.004577 -0.004577 0.000000 0.054934 0.000000 0.000000
# 5 0.000000 0.000000 0.000000 0.000000 0.054934 0.009154
# 6 0.000000 0.000000 0.000000 0.000000 0.009154 0.023796
#
#
# Mechanical properties :
#
#
# Convention : Reuss Voigt Hill
#
# Bulk Modulus (GPa) = 46.37753 47.28370 46.83062
# Shear Modulus (GPa) = 28.13044 35.79382 31.96213
#
# Velocity S-wave (km/s) = 3.61503 4.07782 3.85338
# Velocity P-wave (km/s) = 6.24259 6.64363 6.44623
#
# Compressibility (1/GPa) = 0.02156217
#
# Stress axis : x y z
#
# Youngs Moduli (GPa) = 105.50803 105.50803 97.36036
#
# Poissons Ratio (x) = 0.25535 0.06875
# Poissons Ratio (y) = 0.25535 0.06875
# Poissons Ratio (z) = 0.07450 0.07450
#
# Static dielectric constant tensor:
#      x y z
#    x 1.787660 0.000000 0.000000 
#    y 0.000000 1.787660 0.000000 
#    z 0.000000 0.000000 1.899110 
# 
# From -- ./inp_files/2355.got.cif
#   From: 2010.05.17/outbox.cif.g08.bks.cpg/sg161_cif.got.tgz:2355.got - 2010.05.20 10:52:32.
