data_PCOD9577440
_publ_section_title
;
Structure prediction by ZEFSAII (Michael W. Deem and Ramdas Pophale) SiO2 
 PCOD9577440
Probable space group: P 3 1 C
;
_chemical_formula_sum "Si O2"
_cell_formula_units_Z 40
_cell_length_a 11.365851
_cell_length_b 11.365851
_cell_length_c 18.936817
_cell_angle_alpha 90.000000
_cell_angle_beta 90.000000
_cell_angle_gamma 120.000000
_cell_volume 2118.563720
_symmetry_space_group_name_H-M "P 3 1 C"
_symmetry_group_IT_number 159
_symmetry_cell_setting 'hexagonal'
loop_
_space_group_symop_operation_xyz
x,y,z
-y,x-y,z
-x+y,-x,z
y,x,1/2+z
x-y,-y,1/2+z
-x,-x+y,1/2+z
loop_
_atom_site_type_symbol
_atom_site_label
_atom_site_fract_x
_atom_site_fract_y
_atom_site_fract_z
Si Si1 0.000000 0.000000 0.585575
Si Si2 0.157390 0.314780 0.086318
Si Si3 0.157390 0.314779 0.255174
Si Si4 0.665773 0.057116 0.998861
Si Si5 0.665773 0.057116 0.342631
Si Si6 0.000000 0.000000 0.255917
Si Si7 0.608656 0.665773 0.498861
Si Si8 0.942884 0.334227 0.342631
O O1 0.922086 0.844173 0.563715
O O2 0.000000 0.000000 0.670746
O O3 0.162597 0.325193 0.170746
O O4 0.304987 0.370564 0.052859
O O5 0.065577 0.370564 0.052859
O O6 0.304987 0.370564 0.288633
O O7 0.077913 0.155827 0.277777
O O8 0.065577 0.370564 0.288633
O O9 0.811159 0.188841 0.014368
O O10 0.547842 0.095684 0.000356
O O11 0.664823 0.000000 0.920746
O O12 0.811159 0.188841 0.327124
O O13 0.547842 0.095684 0.341136
O O14 0.664823 0.664823 0.420746
#
# Coordination Sequence:
#
# PCOD9577440 Si02
#       8
#     2   6   6   6   6   2   6   6
#     4   9  18  33  61  89 115 144 190 254 307 357
#     4  11  22  39  63  93 124 157 203 260 311 364
#     4  11  22  39  63  93 124 157 203 260 311 364
#     4  11  23  40  63  91 125 165 208 255 310 374
#     4  11  23  40  63  91 125 165 208 255 310 374
#     4   9  18  33  61  89 115 144 190 254 307 357
#     4  11  23  40  63  91 125 165 208 255 310 374
#     4  11  23  40  63  91 125 165 208 255 310 374
#
# _framework density 18.880716
#
# number of rings (size 3 to 8) (size 9 to 14) (size 15 to 20)
#    0.000    1.200    6.000    0.600    0.000    1.200 
#    1.800    3.000    0.000    3.600    0.000    0.000 
#    0.000    0.000    0.000    0.000    0.000    0.000 
#
# Total GULP energy -223342.544094 kJ/mol
# GULP energy per Si atom -5583.563602 kJ/mol
# Density = 1.883774 g / cm^3
# Si number density = 18.880716 Si / 1000 Ang^3
#
#
#
# Elastic Constant Matrix: (Units=GPa)
#
#
# Indices 1 2 3 4 5 6 
#
# 1 70.8909 26.0150 26.9067 0.0000 0.0000 0.0000
# 2 26.0150 70.8909 26.9067 0.0000 0.0000 0.0000
# 3 26.9067 26.9067 109.1493 0.0000 0.0000 0.0000
# 4 0.0000 0.0000 0.0000 15.9156 0.0000 0.0000
# 5 0.0000 0.0000 0.0000 0.0000 15.9156 0.0000
# 6 0.0000 0.0000 0.0000 0.0000 0.0000 22.4379
#
#
#
# Elastic Compliance Matrix: (Units=1/GPa)
#
#
# Indices 1 2 3 4 5 6 
#
# 1 0.017120 -0.005164 -0.002947 0.000000 0.000000 0.000000
# 2 -0.005164 0.017120 -0.002947 0.000000 0.000000 0.000000
# 3 -0.002947 -0.002947 0.010615 0.000000 0.000000 0.000000
# 4 0.000000 0.000000 0.000000 0.062831 0.000000 0.000000
# 5 0.000000 0.000000 0.000000 0.000000 0.062831 0.000000
# 6 0.000000 0.000000 0.000000 0.000000 0.000000 0.044567
#
#
# Mechanical properties :
#
#
# Convention : Reuss Voigt Hill
#
# Bulk Modulus (GPa) = 43.98003 45.62090 44.80047
# Shear Modulus (GPa) = 20.42644 22.26067 21.34356
#
# Velocity S-wave (km/s) = 3.29274 3.43741 3.36585
# Velocity P-wave (km/s) = 6.14820 6.32214 6.23578
#
# Compressibility (1/GPa) = 0.02273759
#
# Stress axis : x y z
#
# Youngs Moduli (GPa) = 58.41178 58.41178 94.20755
#
# Poissons Ratio (x) = 0.30163 0.27766
# Poissons Ratio (y) = 0.30163 0.27766
# Poissons Ratio (z) = 0.17216 0.17216
#
# Static dielectric constant tensor:
#      x y z
#    x 1.646680 0.000000 0.000000 
#    y 0.000000 1.646680 0.000000 
#    z 0.000000 0.000000 1.628900 
# 
# From -- ./inp_files/1125.got.cif
#   From: 2010.05.17/outbox.cif.g08.bks.cpg/sg159_cif.got.tgz:1125.got - 2010.05.20 10:50:30.
