data_PCOD9577765
_publ_section_title
;
Structure prediction by ZEFSAII (Michael W. Deem and Ramdas Pophale) SiO2 
 PCOD9577765
Probable space group: P -3 1 M 
;
_chemical_formula_sum "Si O2"
_cell_formula_units_Z 40
_cell_length_a 16.427932
_cell_length_b 16.427932
_cell_length_c 7.604782
_cell_angle_alpha 90.000000
_cell_angle_beta 90.000000
_cell_angle_gamma 120.000000
_cell_volume 1777.391888
_symmetry_space_group_name_H-M "P -3 1 M "
_symmetry_group_IT_number 162
_symmetry_cell_setting 'hexagonal'
loop_
_space_group_symop_operation_xyz
x,y,z
-y,x-y,z
-x+y,-x,z
-y,-x,-z
-x+y,y,-z
x,x-y,-z
-x,-y,-z
y,-x+y,-z
x-y,x,-z
y,x,z
x-y,-y,z
-x,-x+y,z
loop_
_atom_site_type_symbol
_atom_site_label
_atom_site_fract_x
_atom_site_fract_y
_atom_site_fract_z
Si Si1 0.112918 0.580927 0.239044
Si Si2 0.714228 0.611108 0.052748
Si Si3 0.666667 0.333335 0.711240
Si Si4 0.288025 0.895869 0.462628
O O1 0.223428 0.605260 0.231454
O O2 0.118172 0.641309 0.413761
O O3 0.000000 0.494927 0.247900
O O4 0.109474 0.638661 0.069168
O O5 0.699255 0.699255 0.026970
O O6 0.695203 0.583279 0.257005
O O7 0.815479 0.630957 0.000000
O O8 0.666668 0.333334 0.500000
O O9 0.183545 0.816456 0.500000
O O10 0.308333 0.000000 0.497765
#
# Coordination Sequence:
#
# PCOD9577765 Si02
#       4
#    12  12   4  12
#     4  10  23  46  69  96 140 179 225 293 349 408
#     4  10  20  36  66  99 131 177 229 281 350 424
#     4  12  27  45  72 106 136 188 247 286 356 427
#     4  10  19  35  65  98 130 174 225 282 349 419
#
# _framework density 22.504885999999999
#
# number of rings (size 3 to 8) (size 9 to 14) (size 15 to 20)
#    0.000    1.800    3.000    0.900    0.000    0.600 
#    0.000    7.500    0.000    4.200    0.000    0.000 
#    0.000    0.000    0.000    0.900    0.000    0.300 
#
# Total GULP energy -223564.700238 kJ/mol
# GULP energy per Si atom -5589.117506 kJ/mol
# Density = 2.245366 g / cm^3
# Si number density = 22.504886 Si / 1000 Ang^3
#
#
#
# Elastic Constant Matrix: (Units=GPa)
#
#
# Indices 1 2 3 4 5 6 
#
# 1 223.1458 106.0894 32.2259 0.0004 -3.6731 0.0002
# 2 106.0894 223.1463 32.2266 0.0006 3.6736 0.0002
# 3 32.2259 32.2266 121.3898 -0.0001 -0.0002 0.0006
# 4 0.0004 0.0006 -0.0001 24.4180 0.0007 3.6734
# 5 -3.6731 3.6736 -0.0002 0.0007 24.4176 0.0001
# 6 0.0002 0.0002 0.0006 3.6734 0.0001 58.5286
#
#
#
# Elastic Compliance Matrix: (Units=1/GPa)
#
#
# Indices 1 2 3 4 5 6 
#
# 1 0.005914 -0.002710 -0.000851 0.000000 0.001297 0.000000
# 2 -0.002710 0.005914 -0.000851 0.000000 -0.001297 0.000000
# 3 -0.000851 -0.000851 0.008690 0.000000 0.000000 0.000000
# 4 0.000000 0.000000 0.000000 0.041344 -0.000001 -0.002595
# 5 0.001297 -0.001297 0.000000 -0.000001 0.041344 0.000000
# 6 0.000000 0.000000 0.000000 -0.002595 0.000000 0.017249
#
#
# Mechanical properties :
#
#
# Convention : Reuss Voigt Hill
#
# Bulk Modulus (GPa) = 85.50644 100.97397 93.24020
# Shear Modulus (GPa) = 37.54447 47.94884 42.74665
#
# Velocity S-wave (km/s) = 4.08889 4.62085 4.36298
# Velocity P-wave (km/s) = 7.76976 8.56940 8.17936
#
# Compressibility (1/GPa) = 0.01169503
#
# Stress axis : x y z
#
# Youngs Moduli (GPa) = 169.08823 169.08816 115.08105
#
# Poissons Ratio (x) = 0.45827 0.09788
# Poissons Ratio (y) = 0.45827 0.09789
# Poissons Ratio (z) = 0.14381 0.14382
#
# Static dielectric constant tensor:
#      x y z
#    x 1.897580 0.000000 0.000000 
#    y 0.000000 1.897580 0.000000 
#    z 0.000000 0.000000 2.028180 
# 
# From -- ./inp_files/1147.got.cif
#   From: 2010.05.17/outbox.cif.g08.bks.cpg/sg162_1_cif.got.tgz:1147.got - 2010.05.20 10:53:12.
