data_PCOD9577490
_publ_section_title
;
Structure prediction by ZEFSAII (Michael W. Deem and Ramdas Pophale) SiO2 
 PCOD9577490
Probable space group: R 3 M
;
_chemical_formula_sum "Si O2"
_cell_formula_units_Z 72
_cell_length_a 12.988397
_cell_length_b 12.988397
_cell_length_c 30.932939
_cell_angle_alpha 90.000000
_cell_angle_beta 90.000000
_cell_angle_gamma 120.000000
_cell_volume 4519.214199
_symmetry_space_group_name_H-M "R 3 M"
_symmetry_group_IT_number 160
_symmetry_cell_setting 'hexagonal'
loop_
_space_group_symop_operation_xyz
x,y,z
-y,x-y,z
-x+y,-x,z
-x+y,y,z
x,x-y,z
-y,-x,z
2/3+x,1/3+y,1/3+z
2/3-y,1/3+x-y,1/3+z
2/3-x+y,1/3-x,1/3+z
2/3-x+y,1/3+y,1/3+z
2/3+x,1/3+x-y,1/3+z
2/3-y,1/3-x,1/3+z
1/3+x,2/3+y,2/3+z
1/3-y,2/3+x-y,2/3+z
1/3-x+y,2/3-x,2/3+z
1/3-x+y,2/3+y,2/3+z
1/3+x,2/3+x-y,2/3+z
1/3-y,2/3-x,2/3+z
loop_
_atom_site_type_symbol
_atom_site_label
_atom_site_fract_x
_atom_site_fract_y
_atom_site_fract_z
Si Si1 0.666672 0.088953 0.100743
Si Si2 0.575022 0.908469 0.944008
Si Si3 0.666955 0.090445 0.510198
Si Si4 0.999776 0.755586 0.020875
O O1 0.541418 0.082835 0.097363
O O2 0.774758 0.225243 0.101470
O O3 0.678655 0.027172 0.144135
O O4 0.691930 0.026532 0.060381
O O5 0.459905 0.919810 0.953612
O O6 0.542567 0.771284 0.948106
O O7 0.608818 0.942207 0.893833
O O8 0.680758 0.981959 0.977308
O O9 0.558967 0.117934 0.504616
O O10 0.791505 0.208496 0.500885
O O11 0.887556 0.775111 0.017208
O O12 0.119952 0.880048 0.028565
#
# Coordination Sequence:
#
# PCOD9577490 Si02
#       4
#    18  18  18  18
#     4  10  20  33  49  69  94 125 160 197 237 282
#     4   9  17  30  49  73  99 127 159 194 232 275
#     4   9  17  30  50  74  98 125 158 196 235 275
#     4  10  20  33  50  72  97 125 157 195 238 282
#
# _framework density 15.931972999999999
#
# number of rings (size 3 to 8) (size 9 to 14) (size 15 to 20)
#    0.000    2.500    0.000    2.500    0.000    3.000 
#    0.000    2.500    0.000    9.000    0.000    0.000 
#    0.000    0.000    0.000    0.000    0.000    0.000 
#
# Total GULP energy -133836.741468 kJ/mol
# GULP energy per Si atom -5576.530895 kJ/mol
# Density = 1.589571 g / cm^3
# Si number density = 15.931973 Si / 1000 Ang^3
#
#
#
# Elastic Constant Matrix: (Units=GPa)
#
#
# Indices 1 2 3 4 5 6 
#
# 1 120.5058 80.3899 80.2195 -2.8508 0.0000 0.0000
# 2 80.3899 120.5058 80.2195 2.8508 0.0000 0.0000
# 3 80.2195 80.2195 99.7431 0.0000 0.0000 0.0000
# 4 -2.8508 2.8508 0.0000 24.2173 0.0000 0.0000
# 5 0.0000 0.0000 0.0000 0.0000 24.2173 -2.8508
# 6 0.0000 0.0000 0.0000 0.0000 -2.8508 20.0580
#
#
#
# Elastic Compliance Matrix: (Units=1/GPa)
#
#
# Indices 1 2 3 4 5 6 
#
# 1 0.019634 -0.005718 -0.011192 0.002984 0.000000 0.000000
# 2 -0.005718 0.019634 -0.011192 -0.002984 0.000000 0.000000
# 3 -0.011192 -0.011192 0.028028 0.000000 0.000000 0.000000
# 4 0.002984 -0.002984 0.000000 0.041995 0.000000 0.000000
# 5 0.000000 0.000000 0.000000 0.000000 0.041995 0.005969
# 6 0.000000 0.000000 0.000000 0.000000 0.005969 0.050704
#
#
# Mechanical properties :
#
#
# Convention : Reuss Voigt Hill
#
# Bulk Modulus (GPa) = 90.15436 91.37917 90.76677
# Shear Modulus (GPa) = 19.09184 20.36022 19.72603
#
# Velocity S-wave (km/s) = 3.46545 3.57872 3.52254
# Velocity P-wave (km/s) = 8.52774 8.63462 8.58135
#
# Compressibility (1/GPa) = 0.01109209
#
# Stress axis : x y z
#
# Youngs Moduli (GPa) = 50.93242 50.93242 35.67830
#
# Poissons Ratio (x) = 0.29123 0.39931
# Poissons Ratio (y) = 0.29123 0.39931
# Poissons Ratio (z) = 0.57003 0.57003
#
# Static dielectric constant tensor:
#      x y z
#    x 1.502390 0.000000 0.000000 
#    y 0.000000 1.502390 0.000000 
#    z 0.000000 0.000000 1.535570 
# 
# From -- ./inp_files/4325.got.cif
#   From: 2010.05.17/outbox.cif.g08.bks.cpg/sg160_3_cif.got.tgz:4325.got - 2010.05.20 10:51:19.
