data_PCOD9577069
_publ_section_title
;
Structure prediction by ZEFSAII (Michael W. Deem and Ramdas Pophale) SiO2 
 PCOD9577069
Probable space group: R 3 2
;
_chemical_formula_sum "Si O2"
_cell_formula_units_Z 54
_cell_length_a 13.675679
_cell_length_b 13.675679
_cell_length_c 13.359739
_cell_angle_alpha 90.000000
_cell_angle_beta 90.000000
_cell_angle_gamma 120.000000
_cell_volume 2163.846265
_symmetry_space_group_name_H-M "R 3 2"
_symmetry_group_IT_number 155
_symmetry_cell_setting 'hexagonal'
loop_
_space_group_symop_operation_xyz
x,y,z
-y,x-y,z
-x+y,-x,z
x-y,-y,-z
-x,-x+y,-z
y,x,-z
2/3+x,1/3+y,1/3+z
2/3-y,1/3+x-y,1/3+z
2/3-x+y,1/3-x,1/3+z
2/3+x-y,1/3-y,1/3-z
2/3-x,1/3-x+y,1/3-z
2/3+y,1/3+x,1/3-z
1/3+x,2/3+y,2/3+z
1/3-y,2/3+x-y,2/3+z
1/3-x+y,2/3-x,2/3+z
1/3+x-y,2/3-y,2/3-z
1/3-x,2/3-x+y,2/3-z
1/3+y,2/3+x,2/3-z
loop_
_atom_site_type_symbol
_atom_site_label
_atom_site_fract_x
_atom_site_fract_y
_atom_site_fract_z
Si Si1 0.395616 0.812962 0.289297
Si Si2 0.581361 0.890223 0.429862
Si Si3 0.051830 0.276478 0.106786
O O1 0.265808 0.718401 0.266927
O O2 0.455223 0.855461 0.396613
O O3 0.419440 0.929980 0.245849
O O4 0.666667 0.925097 0.333334
O O5 0.564423 0.781225 0.489465
O O6 0.637771 0.000000 0.500000
O O7 0.961051 0.294385 0.166667
O O8 0.000000 0.217799 0.000000
#
# Coordination Sequence:
#
# PCOD9577069 Si02
#       3
#    18  18  18
#     4  10  24  45  71 107 149 198 253 313 382 444
#     4  12  25  49  75 112 154 205 258 321 387 471
#     4  12  26  46  78 112 154 199 261 320 391 458
#
# _framework density 24.955562
#
# number of rings (size 3 to 8) (size 9 to 14) (size 15 to 20)
#    0.667    0.000    3.333    5.000    0.000    4.000 
#    0.000    0.000    0.000    2.000    0.000    0.000 
#    0.000    0.000    0.000    0.000    0.000    0.000 
#
# Total GULP energy -100384.362030 kJ/mol
# GULP energy per Si atom -5576.909002 kJ/mol
# Density = 2.489876 g / cm^3
# Si number density = 24.955562 Si / 1000 Ang^3
#
#
#
# Elastic Constant Matrix: (Units=GPa)
#
#
# Indices 1 2 3 4 5 6 
#
# 1 103.7386 34.1364 53.2171 -2.9282 0.0002 0.0000
# 2 34.1364 103.7386 53.2171 2.9282 -0.0002 0.0000
# 3 53.2171 53.2171 163.2538 0.0000 0.0000 0.0000
# 4 -2.9282 2.9282 0.0000 61.1058 0.0000 -0.0002
# 5 0.0002 -0.0002 0.0000 0.0000 61.1058 -2.9282
# 6 0.0000 0.0000 0.0000 -0.0002 -2.9282 34.8011
#
#
#
# Elastic Compliance Matrix: (Units=1/GPa)
#
#
# Indices 1 2 3 4 5 6 
#
# 1 0.012059 -0.002367 -0.003159 0.000691 0.000000 0.000000
# 2 -0.002367 0.012059 -0.003159 -0.000691 0.000000 0.000000
# 3 -0.003159 -0.003159 0.008185 0.000000 0.000000 0.000000
# 4 0.000691 -0.000691 0.000000 0.016431 0.000000 0.000000
# 5 0.000000 0.000000 0.000000 0.000000 0.016431 0.001383
# 6 0.000000 0.000000 0.000000 0.000000 0.001383 0.028851
#
#
# Mechanical properties :
#
#
# Convention : Reuss Voigt Hill
#
# Bulk Modulus (GPa) = 66.97235 72.43025 69.70130
# Shear Modulus (GPa) = 42.96849 46.74656 44.85753
#
# Velocity S-wave (km/s) = 4.15396 4.33273 4.24429
# Velocity P-wave (km/s) = 7.06414 7.35641 7.21176
#
# Compressibility (1/GPa) = 0.01493153
#
# Stress axis : x y z
#
# Youngs Moduli (GPa) = 82.92788 82.92788 122.17222
#
# Poissons Ratio (x) = 0.19628 0.38598
# Poissons Ratio (y) = 0.19628 0.38598
# Poissons Ratio (z) = 0.26200 0.26200
#
# Static dielectric constant tensor:
#      x y z
#    x 2.000090 0.000000 0.000000 
#    y 0.000000 2.000090 0.000000 
#    z 0.000000 0.000000 2.175490 
# 
# From -- ./inp_files/4669.got.cif
#   From: 2010.05.17/outbox.cif.g08.bks.cpg/sg155_3_cif.got.tgz:4669.got - 2010.05.20 10:44:35.
