data_PCOD9577601
_publ_section_title
;
Structure prediction by ZEFSAII (Michael W. Deem and Ramdas Pophale) SiO2 
 PCOD9577601
Probable space group: R 3 C
;
_chemical_formula_sum "Si O2"
_cell_formula_units_Z 102
_cell_length_a 14.809211
_cell_length_b 14.809211
_cell_length_c 21.767862
_cell_angle_alpha 90.000000
_cell_angle_beta 90.000000
_cell_angle_gamma 120.000000
_cell_volume 4134.378648
_symmetry_space_group_name_H-M "R 3 C"
_symmetry_group_IT_number 161
_symmetry_cell_setting 'hexagonal'
loop_
_space_group_symop_operation_xyz
x,y,z
-y,x-y,z
-x+y,-x,z
-x+y,y,1/2+z
x,x-y,1/2+z
-y,-x,1/2+z
2/3+x,1/3+y,1/3+z
2/3-y,1/3+x-y,1/3+z
2/3-x+y,1/3-x,1/3+z
2/3-x+y,1/3+y,5/6+z
2/3+x,1/3+x-y,5/6+z
2/3-y,1/3-x,5/6+z
1/3+x,2/3+y,2/3+z
1/3-y,2/3+x-y,2/3+z
1/3-x+y,2/3-x,2/3+z
1/3-x+y,2/3+y,1/6+z
1/3+x,2/3+x-y,1/6+z
1/3-y,2/3-x,1/6+z
loop_
_atom_site_type_symbol
_atom_site_label
_atom_site_fract_x
_atom_site_fract_y
_atom_site_fract_z
Si Si1 0.666667 0.333334 0.401840
Si Si2 0.230841 0.090253 0.552372
Si Si3 0.333333 0.666667 0.881294
Si Si4 0.480274 0.892939 0.929416
Si Si5 0.333448 0.466960 0.062064
Si Si6 0.004095 0.632310 0.480600
Si Si7 0.203762 0.998671 0.425263
O O1 0.666668 0.333334 0.474890
O O2 0.628744 0.413790 0.381079
O O3 0.431941 0.144854 0.617811
O O4 0.336859 0.202884 0.552227
O O5 0.234024 0.022031 0.496225
O O6 0.239132 0.041266 0.617008
O O7 0.430478 0.776754 0.903986
O O8 0.690620 0.958439 0.885548
O O9 0.542177 0.908289 0.992925
O O10 0.345614 0.398005 0.114322
O O11 0.415492 0.584698 0.082137
O O12 0.215282 0.440480 0.064008
#
# Coordination Sequence:
#
# PCOD9577601 Si02
#       7
#     6  18   6  18  18  18  18
#     4  12  27  48  85 116 175 201 268 332 415 471
#     4  10  25  50  70 117 152 208 259 328 399 480
#     4  12  24  45  82 113 157 219 256 341 391 483
#     4   9  23  45  71 107 152 195 268 310 400 464
#     4  11  22  44  74 105 144 198 266 316 394 464
#     4   9  24  43  69 109 145 196 258 328 391 467
#     4  11  23  45  77 103 151 201 261 323 396 475
#
# _framework density 24.671181000000001
#
# number of rings (size 3 to 8) (size 9 to 14) (size 15 to 20)
#    1.059    0.706    0.000    3.529    4.941    1.412 
#    9.529    0.000    0.000    0.000    0.000    0.000 
#    0.000    0.000    0.000    0.000    0.000    0.000 
#
# Total GULP energy -189856.237572 kJ/mol
# GULP energy per Si atom -5584.006987 kJ/mol
# Density = 2.461503 g / cm^3
# Si number density = 24.671181 Si / 1000 Ang^3
#
#
#
# Elastic Constant Matrix: (Units=GPa)
#
#
# Indices 1 2 3 4 5 6 
#
# 1 82.0339 12.9636 33.3170 -3.9010 0.0000 0.0000
# 2 12.9636 82.0334 33.3170 3.9008 0.0000 0.0000
# 3 33.3170 33.3170 164.8717 0.0002 0.0000 0.0000
# 4 -3.9010 3.9008 0.0002 42.7745 0.0000 0.0000
# 5 0.0000 0.0000 0.0000 0.0000 42.7747 -3.9010
# 6 0.0000 0.0000 0.0000 0.0000 -3.9010 34.5353
#
#
#
# Elastic Compliance Matrix: (Units=1/GPa)
#
#
# Indices 1 2 3 4 5 6 
#
# 1 0.013447 -0.001182 -0.002479 0.001334 0.000000 0.000000
# 2 -0.001182 0.013447 -0.002479 -0.001334 0.000000 0.000000
# 3 -0.002479 -0.002479 0.007067 0.000000 0.000000 0.000000
# 4 0.001334 -0.001334 0.000000 0.023622 0.000000 0.000000
# 5 0.000000 0.000000 0.000000 0.000000 0.023622 0.002668
# 6 0.000000 0.000000 0.000000 0.000000 0.002668 0.029257
#
#
# Mechanical properties :
#
#
# Convention : Reuss Voigt Hill
#
# Bulk Modulus (GPa) = 46.11858 54.23712 50.17785
# Shear Modulus (GPa) = 38.47132 40.63967 39.55549
#
# Velocity S-wave (km/s) = 3.95316 4.06304 4.00848
# Velocity P-wave (km/s) = 6.29051 6.63647 6.46581
#
# Compressibility (1/GPa) = 0.02168323
#
# Stress axis : x y z
#
# Youngs Moduli (GPa) = 74.36655 74.36613 141.50204
#
# Poissons Ratio (x) = 0.08789 0.35072
# Poissons Ratio (y) = 0.08789 0.35072
# Poissons Ratio (z) = 0.18432 0.18432
#
# Static dielectric constant tensor:
#      x y z
#    x 1.957080 0.000000 0.000000 
#    y 0.000000 1.957080 0.000000 
#    z 0.000000 0.000000 2.024270 
# 
# From -- ./inp_files/1718.got.cif
#   From: 2010.05.17/outbox.cif.g08.bks.cpg/sg161_cif.got.tgz:1718.got - 2010.05.20 10:52:32.
