data_PCOD9577238
_publ_section_title
;
Structure prediction by ZEFSAII (Michael W. Deem and Ramdas Pophale) SiO2 
 PCOD9577238
Probable space group: P 3 M 1
;
_chemical_formula_sum "Si O2"
_cell_formula_units_Z 30
_cell_length_a 12.848714
_cell_length_b 12.848714
_cell_length_c 13.034658
_cell_angle_alpha 90.000000
_cell_angle_beta 90.000000
_cell_angle_gamma 120.000000
_cell_volume 1863.586677
_symmetry_space_group_name_H-M "P 3 M 1"
_symmetry_group_IT_number 156
_symmetry_cell_setting 'hexagonal'
loop_
_space_group_symop_operation_xyz
x,y,z
-y,x-y,z
-x+y,-x,z
-x+y,y,z
x,x-y,z
-y,-x,z
loop_
_atom_site_type_symbol
_atom_site_label
_atom_site_fract_x
_atom_site_fract_y
_atom_site_fract_z
Si Si1 0.666755 0.579175 0.217040
Si Si2 0.752435 0.999704 0.028614
Si Si3 0.332991 0.913993 0.834878
Si Si4 0.752435 0.752731 0.641142
Si Si5 0.912420 0.333245 0.452716
O O1 0.774355 0.548710 0.208618
O O2 0.539788 0.460213 0.197826
O O3 0.695304 0.681111 0.133778
O O4 0.667856 0.618236 0.334878
O O5 0.772769 0.886385 0.033591
O O6 0.661868 0.975975 0.934991
O O7 0.878076 0.121925 0.012123
O O8 0.460367 0.920733 0.834878
O O9 0.224014 0.775987 0.834878
O O10 0.314106 0.975976 0.734765
O O11 0.772770 0.886385 0.636165
O O12 0.695303 0.681111 0.535978
O O13 0.878076 0.756151 0.657632
O O14 0.920424 0.460212 0.471931
O O15 0.774356 0.225645 0.461139
#
# Coordination Sequence:
#
# PCOD9577238 Si02
#       5
#     6   6   6   6   6
#     4   9  17  30  49  72  97 126 161 202 247 291
#     4  10  20  33  50  72  99 131 164 197 235 282
#     4  10  20  34  52  72  94 122 158 200 244 288
#     4  10  20  33  50  72  99 131 164 197 235 282
#     4   9  17  30  49  72  97 126 161 202 247 291
#
# _framework density 16.097988000000001
#
# number of rings (size 3 to 8) (size 9 to 14) (size 15 to 20)
#    0.000    2.400    0.000    2.800    0.000    2.400 
#    0.000    2.000    0.000    8.800    0.000    0.000 
#    0.000    0.000    0.000    0.000    0.000    0.000 
#
# Total GULP energy -167315.935860 kJ/mol
# GULP energy per Si atom -5577.197862 kJ/mol
# Density = 1.606135 g / cm^3
# Si number density = 16.097988 Si / 1000 Ang^3
#
#
#
# Elastic Constant Matrix: (Units=GPa)
#
#
# Indices 1 2 3 4 5 6 
#
# 1 113.4733 75.1205 84.2146 0.0001 0.0003 0.0000
# 2 75.1205 113.4733 84.2146 -0.0001 -0.0003 0.0000
# 3 84.2146 84.2146 129.1395 0.0000 0.0000 0.0000
# 4 0.0001 -0.0001 0.0000 24.9559 0.0000 -0.0003
# 5 0.0003 -0.0003 0.0000 0.0000 24.9559 0.0001
# 6 0.0000 0.0000 0.0000 -0.0003 0.0001 19.1764
#
#
#
# Elastic Compliance Matrix: (Units=1/GPa)
#
#
# Indices 1 2 3 4 5 6 
#
# 1 0.019385 -0.006688 -0.008280 0.000000 0.000000 0.000000
# 2 -0.006688 0.019385 -0.008280 0.000000 0.000000 0.000000
# 3 -0.008280 -0.008280 0.018543 0.000000 0.000000 0.000000
# 4 0.000000 0.000000 0.000000 0.040071 0.000000 0.000001
# 5 0.000000 0.000000 0.000000 0.000000 0.040071 0.000000
# 6 0.000000 0.000000 0.000000 0.000001 0.000000 0.052147
#
#
# Mechanical properties :
#
#
# Convention : Reuss Voigt Hill
#
# Bulk Modulus (GPa) = 92.44890 93.68728 93.06809
# Shear Modulus (GPa) = 20.85896 21.32007 21.08952
#
# Velocity S-wave (km/s) = 3.60356 3.64317 3.62342
# Velocity P-wave (km/s) = 8.65261 8.71902 8.68588
#
# Compressibility (1/GPa) = 0.01081679
#
# Stress axis : x y z
#
# Youngs Moduli (GPa) = 51.58503 51.58503 53.92915
#
# Poissons Ratio (x) = 0.34501 0.44654
# Poissons Ratio (y) = 0.34501 0.44654
# Poissons Ratio (z) = 0.42713 0.42713
#
# Static dielectric constant tensor:
#      x y z
#    x 1.507790 0.000000 0.000000 
#    y 0.000000 1.507790 0.000000 
#    z 0.000000 0.000000 1.535640 
# 
# From -- ./inp_files/771.got.cif
#   From: 2010.05.17/outbox.cif.g08.bks.cpg/sg156_cif.got.tgz:771.got - 2010.05.20 10:49:08.
