data_PCOD9577401
_publ_section_title
;
Structure prediction by ZEFSAII (Michael W. Deem and Ramdas Pophale) SiO2 
 PCOD9577401
Probable space group: P 3 1 C
;
_chemical_formula_sum "Si O2"
_cell_formula_units_Z 30
_cell_length_a 15.732552
_cell_length_b 15.732552
_cell_length_c 5.374782
_cell_angle_alpha 90.000000
_cell_angle_beta 90.000000
_cell_angle_gamma 120.000000
_cell_volume 1152.099100
_symmetry_space_group_name_H-M "P 3 1 C"
_symmetry_group_IT_number 159
_symmetry_cell_setting 'hexagonal'
loop_
_space_group_symop_operation_xyz
x,y,z
-y,x-y,z
-x+y,-x,z
y,x,1/2+z
x-y,-y,1/2+z
-x,-x+y,1/2+z
loop_
_atom_site_type_symbol
_atom_site_label
_atom_site_fract_x
_atom_site_fract_y
_atom_site_fract_z
Si Si1 0.370031 0.057411 0.027970
Si Si2 0.849063 0.828952 0.556173
Si Si3 0.497341 0.931870 0.112498
Si Si4 0.691433 0.935674 0.090769
Si Si5 0.658534 0.439817 0.277508
O O1 0.470951 0.151921 0.097886
O O2 0.353471 0.984767 0.257845
O O3 0.268223 0.058174 0.045799
O O4 0.889522 0.884930 0.303690
O O5 0.863345 0.734776 0.566430
O O6 0.574573 0.891692 0.100099
O O7 0.388378 0.844381 0.032712
O O8 0.532771 0.011902 0.881657
O O9 0.732714 0.003484 0.846132
O O10 0.573612 0.326571 0.238679
#
# Coordination Sequence:
#
# PCOD9577401 Si02
#       5
#     6   6   6   6   6
#     4  10  22  43  67  95 133 184 233 279 337 415
#     4  10  21  36  65  98 130 173 224 275 338 414
#     4  10  22  44  67  92 133 181 226 278 349 404
#     4  10  21  39  66  98 132 170 226 287 337 410
#     4  10  24  42  67 101 146 180 231 291 341 405
#
# _framework density 26.039425999999999
#
# number of rings (size 3 to 8) (size 9 to 14) (size 15 to 20)
#    0.400    1.600    0.000    2.400    5.600    0.000 
#    7.200    6.000    0.000    8.000    0.000    0.000 
#    0.000    0.000    0.000    0.000    0.000    0.000 
#
# Total GULP energy -167311.216883 kJ/mol
# GULP energy per Si atom -5577.040563 kJ/mol
# Density = 2.598016 g / cm^3
# Si number density = 26.039426 Si / 1000 Ang^3
#
#
#
# Elastic Constant Matrix: (Units=GPa)
#
#
# Indices 1 2 3 4 5 6 
#
# 1 113.5961 27.3848 28.1606 0.0000 -3.8990 0.0000
# 2 27.3848 113.5961 28.1606 0.0000 3.8990 0.0000
# 3 28.1606 28.1606 168.4460 0.0000 0.0000 0.0000
# 4 0.0000 0.0000 0.0000 20.4622 0.0000 3.8990
# 5 -3.8990 3.8990 0.0000 0.0000 20.4622 0.0000
# 6 0.0000 0.0000 0.0000 3.8990 0.0000 43.1057
#
#
#
# Elastic Compliance Matrix: (Units=1/GPa)
#
#
# Indices 1 2 3 4 5 6 
#
# 1 0.009702 -0.002101 -0.001271 0.000000 0.002249 0.000000
# 2 -0.002101 0.009702 -0.001271 0.000000 -0.002249 0.000000
# 3 -0.001271 -0.001271 0.006361 0.000000 0.000000 0.000000
# 4 0.000000 0.000000 0.000000 0.049728 0.000000 -0.004498
# 5 0.002249 -0.002249 0.000000 0.000000 0.049728 0.000000
# 6 0.000000 0.000000 0.000000 -0.004498 0.000000 0.023606
#
#
# Mechanical properties :
#
#
# Convention : Reuss Voigt Hill
#
# Bulk Modulus (GPa) = 60.67847 62.56113 61.61980
# Shear Modulus (GPa) = 30.56154 37.60151 34.08152
#
# Velocity S-wave (km/s) = 3.42959 3.80415 3.62172
# Velocity P-wave (km/s) = 6.24788 6.58583 6.41908
#
# Compressibility (1/GPa) = 0.01648031
#
# Stress axis : x y z
#
# Youngs Moduli (GPa) = 103.07353 103.07353 157.19604
#
# Poissons Ratio (x) = 0.21656 0.19975
# Poissons Ratio (y) = 0.21656 0.19975
# Poissons Ratio (z) = 0.13097 0.13097
#
# Static dielectric constant tensor:
#      x y z
#    x 2.115530 0.000000 0.000000 
#    y 0.000000 2.115530 0.000000 
#    z 0.000000 0.000000 2.109520 
# 
# From -- ./inp_files/79.got.cif
#   From: 2010.05.17/outbox.cif.g08.bks.cpg/sg159_cif.got.tgz:79.got - 2010.05.20 10:50:30.
