data_PCOD9577662
_publ_section_title
;
Structure prediction by ZEFSAII (Michael W. Deem and Ramdas Pophale) SiO2 
 PCOD9577662
Probable space group: P -3 1 M 
;
_chemical_formula_sum "Si O2"
_cell_formula_units_Z 84
_cell_length_a 14.783066
_cell_length_b 14.783066
_cell_length_c 24.794395
_cell_angle_alpha 90.000000
_cell_angle_beta 90.000000
_cell_angle_gamma 120.000000
_cell_volume 4692.596140
_symmetry_space_group_name_H-M "P -3 1 M "
_symmetry_group_IT_number 162
_symmetry_cell_setting 'hexagonal'
loop_
_space_group_symop_operation_xyz
x,y,z
-y,x-y,z
-x+y,-x,z
-y,-x,-z
-x+y,y,-z
x,x-y,-z
-x,-y,-z
y,-x+y,-z
x-y,x,-z
y,x,z
x-y,-y,z
-x,-x+y,z
loop_
_atom_site_type_symbol
_atom_site_label
_atom_site_fract_x
_atom_site_fract_y
_atom_site_fract_z
Si Si1 0.418573 0.247487 0.645897
Si Si2 0.753168 0.877339 0.935788
Si Si3 0.881230 0.119960 0.437396
Si Si4 0.770108 0.648843 0.230583
Si Si5 0.274633 0.395319 0.144910
Si Si6 0.436384 0.874789 0.209014
Si Si7 0.878716 0.474250 0.330126
O O1 0.329605 0.200578 0.601277
O O2 0.367261 0.224570 0.705724
O O3 0.485034 0.189234 0.640737
O O4 0.499345 0.370698 0.645018
O O5 0.828835 0.828835 0.924010
O O6 0.645823 0.810239 0.902754
O O7 0.811610 0.000000 0.921687
O O8 0.734487 0.867244 0.000000
O O9 0.863627 0.136374 0.500000
O O10 0.000000 0.144082 0.434126
O O11 0.801663 0.000000 0.422382
O O12 0.734336 0.734336 0.222014
O O13 0.869367 0.663374 0.197986
O O14 0.677721 0.538961 0.206063
O O15 0.350159 0.350159 0.130438
O O16 0.350754 0.515466 0.162882
O O17 0.446503 0.836685 0.268427
O O18 0.511833 0.000000 0.210882
O O19 0.000000 0.562179 0.328732
#
# Coordination Sequence:
#
# PCOD9577662 Si02
#       7
#    12  12  12  12  12  12  12
#     4  11  20  34  54  77 105 138 175 214 261 313
#     4   9  17  29  47  71 100 135 174 214 254 300
#     4  10  21  38  59  81 105 137 178 220 261 309
#     4  10  19  31  49  73 104 134 165 206 256 309
#     4  10  18  30  48  71 100 131 169 211 253 307
#     4   8  16  30  44  65  96 128 161 202 247 298
#     4  10  19  32  50  75 105 134 168 212 260 311
#
# _framework density 17.900538999999998
#
# number of rings (size 3 to 8) (size 9 to 14) (size 15 to 20)
#    0.000    2.286    1.429    3.571    0.000    1.714 
#    0.857    0.714    0.000    3.714    0.000    5.000 
#    0.000    0.000    0.000    0.000    0.000    0.000 
#
# Total GULP energy -467980.607837 kJ/mol
# GULP energy per Si atom -5571.197712 kJ/mol
# Density = 1.785980 g / cm^3
# Si number density = 17.900539 Si / 1000 Ang^3
#
#
#
# Elastic Constant Matrix: (Units=GPa)
#
#
# Indices 1 2 3 4 5 6 
#
# 1 54.0436 8.6524 27.0821 0.0000 -8.4739 0.0000
# 2 8.6524 54.0436 27.0821 0.0000 8.4739 0.0000
# 3 27.0821 27.0821 59.2216 0.0000 0.0000 0.0000
# 4 0.0000 0.0000 0.0000 26.4926 0.0000 8.4739
# 5 -8.4739 8.4739 0.0000 0.0000 26.4926 0.0000
# 6 0.0000 0.0000 0.0000 8.4739 0.0000 22.6956
#
#
#
# Elastic Compliance Matrix: (Units=1/GPa)
#
#
# Indices 1 2 3 4 5 6 
#
# 1 0.025693 0.000674 -0.012057 0.000000 0.008002 0.000000
# 2 0.000674 0.025693 -0.012057 0.000000 -0.008002 0.000000
# 3 -0.012057 -0.012057 0.027914 0.000000 0.000000 0.000000
# 4 0.000000 0.000000 0.000000 0.042866 0.000000 -0.016005
# 5 0.008002 -0.008002 0.000000 0.000000 0.042866 0.000000
# 6 0.000000 0.000000 0.000000 -0.016005 0.000000 0.050037
#
#
# Mechanical properties :
#
#
# Convention : Reuss Voigt Hill
#
# Bulk Modulus (GPa) = 30.84813 32.54910 31.69861
# Shear Modulus (GPa) = 18.33148 22.10231 20.21689
#
# Velocity S-wave (km/s) = 3.20359 3.51768 3.36430
# Velocity P-wave (km/s) = 5.56367 5.89250 5.73045
#
# Compressibility (1/GPa) = 0.03241688
#
# Stress axis : x y z
#
# Youngs Moduli (GPa) = 38.92166 38.92166 35.82493
#
# Poissons Ratio (x) = -0.02623 0.43196
# Poissons Ratio (y) = -0.02623 0.43196
# Poissons Ratio (z) = 0.46930 0.46930
#
# Static dielectric constant tensor:
#      x y z
#    x 1.638350 0.000000 0.000000 
#    y 0.000000 1.638350 0.000000 
#    z 0.000000 0.000000 1.606270 
# 
# From -- ./inp_files/4047.got.cif
#   From: 2010.05.17/outbox.cif.g08.bks.cpg/sg162_3_cif.got.tgz:4047.got - 2010.05.20 10:53:12.
