data_PCOD9577145
_publ_section_title
;
Structure prediction by ZEFSAII (Michael W. Deem and Ramdas Pophale) SiO2 
 PCOD9577145
Probable space group: R 3 2
;
_chemical_formula_sum "Si O2"
_cell_formula_units_Z 75
_cell_length_a 13.822406
_cell_length_b 13.822406
_cell_length_c 21.612752
_cell_angle_alpha 90.000000
_cell_angle_beta 90.000000
_cell_angle_gamma 120.000000
_cell_volume 3576.086310
_symmetry_space_group_name_H-M "R 3 2"
_symmetry_group_IT_number 155
_symmetry_cell_setting 'hexagonal'
loop_
_space_group_symop_operation_xyz
x,y,z
-y,x-y,z
-x+y,-x,z
x-y,-y,-z
-x,-x+y,-z
y,x,-z
2/3+x,1/3+y,1/3+z
2/3-y,1/3+x-y,1/3+z
2/3-x+y,1/3-x,1/3+z
2/3+x-y,1/3-y,1/3-z
2/3-x,1/3-x+y,1/3-z
2/3+y,1/3+x,1/3-z
1/3+x,2/3+y,2/3+z
1/3-y,2/3+x-y,2/3+z
1/3-x+y,2/3-x,2/3+z
1/3+x-y,2/3-y,2/3-z
1/3-x,2/3-x+y,2/3-z
1/3+y,2/3+x,2/3-z
loop_
_atom_site_type_symbol
_atom_site_label
_atom_site_fract_x
_atom_site_fract_y
_atom_site_fract_z
Si Si1 0.666667 0.333335 0.456333
Si Si2 0.666668 0.333334 0.603000
Si Si3 0.570332 0.494886 0.439942
Si Si4 0.145324 0.229184 0.677413
Si Si5 0.333334 0.169235 0.666667
Si Si6 0.924154 0.364150 0.765675
O O1 0.666668 0.333334 0.530263
O O2 0.597537 0.394816 0.437960
O O3 0.580268 0.210254 0.627476
O O4 0.502676 0.502676 0.500000
O O5 0.502446 0.495555 0.380019
O O6 0.688038 0.610756 0.440834
O O7 0.239674 0.197735 0.688096
O O8 0.119143 0.238414 0.606089
O O9 0.378331 0.123359 0.721663
O O10 0.870224 0.333334 0.833334
#
# Coordination Sequence:
#
# PCOD9577145 Si02
#       6
#     6   6  18  18   9  18
#     4  12  27  42  73 119 142 195 247 299 370 447
#     4  12  21  45  76 101 142 192 241 296 367 435
#     4  11  24  44  72 102 148 190 241 298 359 440
#     4  12  24  46  71 101 143 188 238 298 365 438
#     4  12  26  46  72 102 140 190 236 300 366 436
#     4  11  25  47  70 102 143 186 235 304 364 431
#
# _framework density 20.972649000000001
#
# number of rings (size 3 to 8) (size 9 to 14) (size 15 to 20)
#    0.000    0.480    7.200    0.000    6.720    0.960 
#    0.000    0.000    0.000    0.000    0.000    0.000 
#    0.000    0.000    0.000    0.000    0.000    0.000 
#
# Total GULP energy -139736.645420 kJ/mol
# GULP energy per Si atom -5589.465817 kJ/mol
# Density = 2.092491 g / cm^3
# Si number density = 20.972649 Si / 1000 Ang^3
#
#
#
# Elastic Constant Matrix: (Units=GPa)
#
#
# Indices 1 2 3 4 5 6 
#
# 1 70.5669 36.7117 3.4430 -1.7298 0.0002 0.0000
# 2 36.7117 70.5621 3.4435 1.7298 -0.0002 0.0000
# 3 3.4430 3.4435 94.7503 0.0002 0.0000 0.0000
# 4 -1.7298 1.7298 0.0002 20.6926 0.0000 -0.0002
# 5 0.0002 -0.0002 0.0000 0.0000 20.6931 -1.7297
# 6 0.0000 0.0000 0.0000 -0.0002 -1.7297 16.9270
#
#
#
# Elastic Compliance Matrix: (Units=1/GPa)
#
#
# Indices 1 2 3 4 5 6 
#
# 1 0.019568 -0.010225 -0.000339 0.002491 0.000000 0.000000
# 2 -0.010225 0.019569 -0.000340 -0.002491 0.000000 0.000000
# 3 -0.000339 -0.000340 0.010579 0.000000 0.000000 0.000000
# 4 0.002491 -0.002491 0.000000 0.048743 0.000000 0.000001
# 5 0.000000 0.000000 0.000000 0.000000 0.048742 0.004981
# 6 0.000000 0.000000 0.000000 0.000001 0.004981 0.059586
#
#
# Mechanical properties :
#
#
# Convention : Reuss Voigt Hill
#
# Bulk Modulus (GPa) = 35.83251 35.89729 35.86490
# Shear Modulus (GPa) = 21.01739 24.48130 22.74935
#
# Velocity S-wave (km/s) = 3.16908 3.42028 3.29707
# Velocity P-wave (km/s) = 5.52388 5.72286 5.62425
#
# Compressibility (1/GPa) = 0.02790761
#
# Stress axis : x y z
#
# Youngs Moduli (GPa) = 51.10345 51.09994 94.52931
#
# Poissons Ratio (x) = 0.52251 0.03209
# Poissons Ratio (y) = 0.52255 0.03211
# Poissons Ratio (z) = 0.01735 0.01736
#
# Static dielectric constant tensor:
#      x y z
#    x 1.815660 0.000000 0.000000 
#    y 0.000000 1.815670 0.000000 
#    z 0.000000 0.000000 1.744790 
# 
# From -- ./inp_files/6817.got.cif
#   From: 2010.05.17/outbox.cif.g08.bks.cpg/sg155_4_cif.got.tgz:6817.got - 2010.05.20 10:44:35.
