data_PCOD9577489
_publ_section_title
;
Structure prediction by ZEFSAII (Michael W. Deem and Ramdas Pophale) SiO2 
 PCOD9577489
Probable space group: R 3 M
;
_chemical_formula_sum "Si O2"
_cell_formula_units_Z 126
_cell_length_a 18.178199
_cell_length_b 18.178199
_cell_length_c 25.292879
_cell_angle_alpha 90.000000
_cell_angle_beta 90.000000
_cell_angle_gamma 120.000000
_cell_volume 7238.200432
_symmetry_space_group_name_H-M "R 3 M"
_symmetry_group_IT_number 160
_symmetry_cell_setting 'hexagonal'
loop_
_space_group_symop_operation_xyz
x,y,z
-y,x-y,z
-x+y,-x,z
-x+y,y,z
x,x-y,z
-y,-x,z
2/3+x,1/3+y,1/3+z
2/3-y,1/3+x-y,1/3+z
2/3-x+y,1/3-x,1/3+z
2/3-x+y,1/3+y,1/3+z
2/3+x,1/3+x-y,1/3+z
2/3-y,1/3-x,1/3+z
1/3+x,2/3+y,2/3+z
1/3-y,2/3+x-y,2/3+z
1/3-x+y,2/3-x,2/3+z
1/3-x+y,2/3+y,2/3+z
1/3+x,2/3+x-y,2/3+z
1/3-y,2/3-x,2/3+z
loop_
_atom_site_type_symbol
_atom_site_label
_atom_site_fract_x
_atom_site_fract_y
_atom_site_fract_z
Si Si1 0.666029 0.507948 0.821185
Si Si2 0.667711 0.504002 0.278798
Si Si3 0.159194 0.491944 0.036479
Si Si4 0.637447 0.905057 0.822797
Si Si5 0.335138 0.499019 0.736963
Si Si6 0.757549 0.685317 0.863710
Si Si7 0.999466 0.822793 0.252613
O O1 0.744303 0.488605 0.820916
O O2 0.577150 0.422851 0.831532
O O3 0.662146 0.540949 0.761564
O O4 0.691432 0.584599 0.862121
O O5 0.759403 0.518806 0.260937
O O6 0.594440 0.405561 0.270431
O O7 0.673124 0.519786 0.341398
O O8 0.634094 0.559802 0.249659
O O9 0.255749 0.511498 0.037531
O O10 0.157656 0.578828 0.034649
O O11 0.125207 0.451356 0.978642
O O12 0.655414 0.827707 0.826613
O O13 0.583598 0.892545 0.770631
O O14 0.577696 0.894860 0.873276
O O15 0.721588 0.994600 0.823642
O O16 0.261200 0.522400 0.745423
O O17 0.424015 0.575986 0.755470
O O18 0.847072 0.694143 0.848545
O O19 0.089496 0.910505 0.247165
O O20 0.920761 0.841521 0.248121
#
# Coordination Sequence:
#
# PCOD9577489 Si02
#       7
#    18  18  18  18  18  18  18
#     4   9  17  30  49  71  96 128 170 218 262 302
#     4   9  17  32  55  81 105 133 171 213 254 297
#     4   8  13  23  40  65  95 130 168 203 235 276
#     4  10  20  33  48  71 104 135 165 203 253 308
#     4   9  17  30  51  80 112 144 173 200 233 287
#     4  10  21  36  52  69  94 128 170 221 269 306
#     4   9  16  26  43  69 105 144 175 198 228 284
#
# _framework density 17.407641000000002
#
# number of rings (size 3 to 8) (size 9 to 14) (size 15 to 20)
#    0.000    2.857    0.000    1.571    0.000    4.571 
#    2.571    1.429    0.000    1.143    0.000    0.000 
#    0.000    0.000    0.000    0.000    1.429    0.000 
#
# Total GULP energy -233808.333394 kJ/mol
# GULP energy per Si atom -5566.865081 kJ/mol
# Density = 1.736802 g / cm^3
# Si number density = 17.407641 Si / 1000 Ang^3
#
#
#
# Elastic Constant Matrix: (Units=GPa)
#
#
# Indices 1 2 3 4 5 6 
#
# 1 41.6121 61.6305 29.2283 -74.2225 -0.0144 0.0000
# 2 61.6305 41.6121 29.2283 74.2225 0.0144 0.0000
# 3 29.2283 29.2283 40.5426 0.0000 0.0000 0.0000
# 4 -74.2225 74.2225 0.0000 -194.8056 0.0000 0.0144
# 5 -0.0144 0.0144 0.0000 0.0000 -194.8056 -74.2226
# 6 0.0000 0.0000 0.0000 0.0144 -74.2226 -10.0092
#
#
#
# Elastic Compliance Matrix: (Units=1/GPa)
#
#
# Indices 1 2 3 4 5 6 
#
# 1 0.021867 -0.005500 -0.011799 -0.010427 -0.000002 0.000000
# 2 -0.005500 0.021867 -0.011799 0.010427 0.000002 0.000000
# 3 -0.011799 -0.011799 0.041678 0.000000 0.000000 0.000000
# 4 -0.010427 0.010427 0.000000 0.002812 0.000000 0.000004
# 5 -0.000002 0.000002 0.000000 0.000000 0.002812 -0.020854
# 6 0.000000 0.000000 0.000000 0.000004 -0.020854 0.054734
#
#
# Mechanical properties :
#
#
# Convention : Reuss Voigt Hill
#
# Bulk Modulus (GPa) = 36.74482 40.43790 38.59136
# Shear Modulus (GPa) = 23.46985 -79.67877 -28.10446
#
# Velocity S-wave (km/s) = 3.67584 -6.77286 -4.02243
# Velocity P-wave (km/s) = 6.25859 6.15482 0.80254
#
# Compressibility (1/GPa) = 0.02721472
#
# Stress axis : x y z
#
# Youngs Moduli (GPa) = 45.73129 45.73129 23.99333
#
# Poissons Ratio (x) = 0.25153 0.28310
# Poissons Ratio (y) = 0.25153 0.28310
# Poissons Ratio (z) = 0.53959 0.53959
#
# Static dielectric constant tensor:
#      x y z
#    x 1.602670 0.000000 0.000000 
#    y 0.000000 1.602670 0.000000 
#    z 0.000000 0.000000 1.628960 
# 
# From -- ./inp_files/3778.got.cif
#   From: 2010.05.17/outbox.cif.g08.bks.cpg/sg160_2_cif.got.tgz:3778.got - 2010.05.20 10:51:19.
