data_PCOD9577971
_publ_section_title
;
Structure prediction by ZEFSAII (Michael W. Deem and Ramdas Pophale) SiO2 
 PCOD9577971
Probable space group: P -3 1 C
;
_chemical_formula_sum "Si O2"
_cell_formula_units_Z 66
_cell_length_a 31.990240
_cell_length_b 31.990240
_cell_length_c 5.499102
_cell_angle_alpha 90.000000
_cell_angle_beta 90.000000
_cell_angle_gamma 120.000000
_cell_volume 4873.684411
_symmetry_space_group_name_H-M "P -3 1 C"
_symmetry_group_IT_number 163
_symmetry_cell_setting 'hexagonal'
loop_
_space_group_symop_operation_xyz
x,y,z
-y,x-y,z
-x+y,-x,z
-y,-x,1/2-z
-x+y,y,1/2-z
x,x-y,1/2-z
-x,-y,-z
y,-x+y,-z
x-y,x,-z
y,x,1/2+z
x-y,-y,1/2+z
-x,-x+y,1/2+z
loop_
_atom_site_type_symbol
_atom_site_label
_atom_site_fract_x
_atom_site_fract_y
_atom_site_fract_z
Si Si1 0.299619 0.054077 0.249995
Si Si2 0.564693 0.622228 0.249997
Si Si3 0.969494 0.127322 0.749987
Si Si4 0.968935 0.484468 0.750000
Si Si5 0.345645 0.946621 0.749996
Si Si6 0.056441 0.266580 0.249995
O O1 0.347194 0.049493 0.249996
O O2 0.295046 0.077575 0.499342
O O3 0.253667 0.999629 0.249996
O O4 0.295046 0.077575 0.000649
O O5 0.513728 0.573291 0.249999
O O6 0.573484 0.650820 0.500677
O O7 0.607234 0.607892 0.249996
O O8 0.573484 0.650820 0.999316
O O9 0.927914 0.072087 0.750000
O O10 0.945412 0.161255 0.749992
O O11 0.999998 0.139561 0.499982
O O12 0.000000 0.500000 0.500000
#
# Coordination Sequence:
#
# PCOD9577971 Si02
#       6
#    12  12  12   6  12  12
#     4  10  16  25  43  57  87  96 114 139 173 203
#     4  10  16  22  28  39  59  80 128 145 191 210
#     4  12  23  40  59  78  96 110 128 144 160 187
#     4  12  16  24  28  32  50  86 110 170 180 212
#     4  10  16  22  31  49  63  91 109 147 173 219
#     4  10  16  29  44  65  84 102 116 132 159 199
#
# _framework density 13.542116999999999
#
# number of rings (size 3 to 8) (size 9 to 14) (size 15 to 20)
#    0.000    1.455    7.273    6.000    0.000    0.000 
#    0.000    0.000    0.000    3.636    0.000    0.000 
#    0.000    0.000    0.000    0.000    0.000    0.000 
#
# Total GULP energy -367508.120719 kJ/mol
# GULP energy per Si atom -5568.304859 kJ/mol
# Density = 1.351129 g / cm^3
# Si number density = 13.542117 Si / 1000 Ang^3
#
#
#
# Elastic Constant Matrix: (Units=GPa)
#
#
# Indices 1 2 3 4 5 6 
#
# 1 43.7930 13.4033 22.2184 0.0000 0.0004 0.0000
# 2 13.4033 43.7930 22.2184 0.0000 -0.0004 0.0000
# 3 22.2184 22.2184 163.0092 0.0000 0.0000 0.0000
# 4 0.0000 0.0000 0.0000 9.5527 0.0000 -0.0004
# 5 0.0004 -0.0004 0.0000 0.0000 9.5527 0.0000
# 6 0.0000 0.0000 0.0000 -0.0004 0.0000 15.1949
#
#
#
# Elastic Compliance Matrix: (Units=1/GPa)
#
#
# Indices 1 2 3 4 5 6 
#
# 1 0.026230 -0.006676 -0.002665 0.000000 -0.000001 0.000000
# 2 -0.006676 0.026230 -0.002665 0.000000 0.000001 0.000000
# 3 -0.002665 -0.002665 0.006861 0.000000 0.000000 0.000000
# 4 0.000000 0.000000 0.000000 0.104682 0.000000 0.000002
# 5 -0.000001 0.000001 0.000000 0.000000 0.104682 0.000000
# 6 0.000000 0.000000 0.000000 0.000002 0.000000 0.065812
#
#
# Mechanical properties :
#
#
# Convention : Reuss Voigt Hill
#
# Bulk Modulus (GPa) = 28.32159 40.69727 34.50943
# Shear Modulus (GPa) = 13.50330 19.71040 16.60685
#
# Velocity S-wave (km/s) = 3.16117 3.81923 3.50567
# Velocity P-wave (km/s) = 5.85518 7.04033 6.47493
#
# Compressibility (1/GPa) = 0.03530875
#
# Stress axis : x y z
#
# Youngs Moduli (GPa) = 38.12413 38.12413 145.74726
#
# Poissons Ratio (x) = 0.25451 0.38846
# Poissons Ratio (y) = 0.25451 0.38846
# Poissons Ratio (z) = 0.10161 0.10161
#
# Static dielectric constant tensor:
#      x y z
#    x 1.418690 0.000000 0.000000 
#    y 0.000000 1.418690 0.000000 
#    z 0.000000 0.000000 1.561020 
# 
# From -- ./inp_files/402.got.cif
#   From: 2010.05.17/outbox.cif.g08.bks.cpg/sg163_1_cif.got.tgz:402.got - 2010.05.20 10:56:03.
