data_PCOD9577610
_publ_section_title
;
Structure prediction by ZEFSAII (Michael W. Deem and Ramdas Pophale) SiO2 
 PCOD9577610
Probable space group: R 3 C
;
_chemical_formula_sum "Si O2"
_cell_formula_units_Z 108
_cell_length_a 17.819744
_cell_length_b 17.819744
_cell_length_c 18.943864
_cell_angle_alpha 90.000000
_cell_angle_beta 90.000000
_cell_angle_gamma 120.000000
_cell_volume 5209.572906
_symmetry_space_group_name_H-M "R 3 C"
_symmetry_group_IT_number 161
_symmetry_cell_setting 'hexagonal'
loop_
_space_group_symop_operation_xyz
x,y,z
-y,x-y,z
-x+y,-x,z
-x+y,y,1/2+z
x,x-y,1/2+z
-y,-x,1/2+z
2/3+x,1/3+y,1/3+z
2/3-y,1/3+x-y,1/3+z
2/3-x+y,1/3-x,1/3+z
2/3-x+y,1/3+y,5/6+z
2/3+x,1/3+x-y,5/6+z
2/3-y,1/3-x,5/6+z
1/3+x,2/3+y,2/3+z
1/3-y,2/3+x-y,2/3+z
1/3-x+y,2/3-x,2/3+z
1/3-x+y,2/3+y,1/6+z
1/3+x,2/3+x-y,1/6+z
1/3-y,2/3-x,1/6+z
loop_
_atom_site_type_symbol
_atom_site_label
_atom_site_fract_x
_atom_site_fract_y
_atom_site_fract_z
Si Si1 0.160607 0.528624 0.927130
Si Si2 0.225649 0.457182 0.622147
Si Si3 0.600838 0.037796 0.408573
Si Si4 0.899882 0.217428 0.830734
Si Si5 0.421924 0.570412 0.588441
Si Si6 0.187945 0.158890 0.217455
O O1 0.168871 0.567351 0.005938
O O2 0.171118 0.604996 0.875932
O O3 0.232026 0.502640 0.908366
O O4 0.064423 0.448296 0.920998
O O5 0.212731 0.396354 0.688451
O O6 0.195050 0.396914 0.552268
O O7 0.327080 0.528280 0.623231
O O8 0.175668 0.510602 0.616636
O O9 0.694343 0.067399 0.374091
O O10 0.612789 0.089364 0.480443
O O11 0.825758 0.208243 0.777191
O O12 0.974615 0.220248 0.781699
#
# Coordination Sequence:
#
# PCOD9577610 Si02
#       6
#    18  18  18  18  18  18
#     4  12  24  45  73 102 139 189 241 295 361 433
#     4  11  24  44  68 100 137 180 234 290 352 432
#     4  11  28  44  68 108 144 188 234 304 369 424
#     4  11  24  43  68 102 141 183 235 292 356 430
#     4  11  22  42  71  97 132 183 232 285 353 422
#     4  12  26  46  72 105 141 191 246 298 365 439
#
# _framework density 20.731065000000001
#
# number of rings (size 3 to 8) (size 9 to 14) (size 15 to 20)
#    0.000    0.667    5.000    1.667    4.667    4.000 
#    3.000    0.000    0.000    0.000    0.000    0.000 
#    0.000    0.000    0.000    0.000    0.000    0.000 
#
# Total GULP energy -201250.809636 kJ/mol
# GULP energy per Si atom -5590.300268 kJ/mol
# Density = 2.068388 g / cm^3
# Si number density = 20.731065 Si / 1000 Ang^3
#
#
#
# Elastic Constant Matrix: (Units=GPa)
#
#
# Indices 1 2 3 4 5 6 
#
# 1 86.1813 31.0460 13.4466 -5.0972 0.0000 0.0000
# 2 31.0460 86.1813 13.4466 5.0972 0.0000 0.0000
# 3 13.4466 13.4466 86.3727 0.0000 0.0000 0.0000
# 4 -5.0972 5.0972 0.0000 25.1236 0.0000 0.0000
# 5 0.0000 0.0000 0.0000 0.0000 25.1236 -5.0972
# 6 0.0000 0.0000 0.0000 0.0000 -5.0972 27.5677
#
#
#
# Elastic Compliance Matrix: (Units=1/GPa)
#
#
# Indices 1 2 3 4 5 6 
#
# 1 0.013845 -0.004999 -0.001377 0.003823 0.000000 0.000000
# 2 -0.004999 0.013845 -0.001377 -0.003823 0.000000 0.000000
# 3 -0.001377 -0.001377 0.012007 0.000000 0.000000 0.000000
# 4 0.003823 -0.003823 0.000000 0.041355 0.000000 0.000000
# 5 0.000000 0.000000 0.000000 0.000000 0.041355 0.007646
# 6 0.000000 0.000000 0.000000 0.000000 0.007646 0.037688
#
#
# Mechanical properties :
#
#
# Convention : Reuss Voigt Hill
#
# Bulk Modulus (GPa) = 41.33864 41.62377 41.48120
# Shear Modulus (GPa) = 27.22355 28.94938 28.08646
#
# Velocity S-wave (km/s) = 3.62771 3.74093 3.68475
# Velocity P-wave (km/s) = 6.12623 6.22744 6.17704
#
# Compressibility (1/GPa) = 0.02419044
#
# Stress axis : x y z
#
# Youngs Moduli (GPa) = 72.22699 72.22699 83.28791
#
# Poissons Ratio (x) = 0.36105 0.11471
# Poissons Ratio (y) = 0.36105 0.11471
# Poissons Ratio (z) = 0.09947 0.09947
#
# Static dielectric constant tensor:
#      x y z
#    x 1.728710 0.000000 0.000000 
#    y 0.000000 1.728710 0.000000 
#    z 0.000000 0.000000 1.751190 
# 
# From -- ./inp_files/1667.got.cif
#   From: 2010.05.17/outbox.cif.g08.bks.cpg/sg161_cif.got.tgz:1667.got - 2010.05.20 10:52:32.
