data_PCOD9577178
_publ_section_title
;
Structure prediction by ZEFSAII (Michael W. Deem and Ramdas Pophale) SiO2 
 PCOD9577178
Probable space group: R 3 2
;
_chemical_formula_sum "Si O2"
_cell_formula_units_Z 51
_cell_length_a 16.593175
_cell_length_b 16.593175
_cell_length_c 8.688758
_cell_angle_alpha 90.000000
_cell_angle_beta 90.000000
_cell_angle_gamma 120.000000
_cell_volume 2071.797573
_symmetry_space_group_name_H-M "R 3 2"
_symmetry_group_IT_number 155
_symmetry_cell_setting 'hexagonal'
loop_
_space_group_symop_operation_xyz
x,y,z
-y,x-y,z
-x+y,-x,z
x-y,-y,-z
-x,-x+y,-z
y,x,-z
2/3+x,1/3+y,1/3+z
2/3-y,1/3+x-y,1/3+z
2/3-x+y,1/3-x,1/3+z
2/3+x-y,1/3-y,1/3-z
2/3-x,1/3-x+y,1/3-z
2/3+y,1/3+x,1/3-z
1/3+x,2/3+y,2/3+z
1/3-y,2/3+x-y,2/3+z
1/3-x+y,2/3-x,2/3+z
1/3+x-y,2/3-y,2/3-z
1/3-x,2/3-x+y,2/3-z
1/3+y,2/3+x,2/3-z
loop_
_atom_site_type_symbol
_atom_site_label
_atom_site_fract_x
_atom_site_fract_y
_atom_site_fract_z
Si Si1 0.666668 0.333334 0.513010
Si Si2 0.666667 0.617493 0.333334
Si Si3 0.501124 0.822918 0.000184
Si Si4 0.434466 0.484647 0.743520
O O1 0.666668 0.333334 0.333334
O O2 0.772989 0.397676 0.567211
O O3 0.663564 0.663564 0.500000
O O4 0.729061 0.817806 0.006043
O O5 0.457024 0.790357 0.166667
O O6 0.609458 0.863795 0.039281
O O7 0.495578 0.906786 0.915511
O O8 0.333334 0.441645 0.666667
#
# Coordination Sequence:
#
# PCOD9577178 Si02
#       4
#     6   9  18  18
#     4  12  31  50  82 117 169 218 280 348 421 512
#     4  12  32  54  84 128 172 226 280 356 426 508
#     4  12  27  50  84 120 158 219 277 350 418 510
#     4  12  28  53  81 121 167 215 285 341 424 504
#
# _framework density 24.616304
#
# number of rings (size 3 to 8) (size 9 to 14) (size 15 to 20)
#    0.000    0.000    0.000    8.471   17.294    0.000 
#    1.059    0.000    0.000    0.000    0.000    0.000 
#    0.000    0.000    0.000    0.000    0.000    0.000 
#
# Total GULP energy -95068.507537 kJ/mol
# GULP energy per Si atom -5592.265149 kJ/mol
# Density = 2.456028 g / cm^3
# Si number density = 24.616304 Si / 1000 Ang^3
#
#
#
# Elastic Constant Matrix: (Units=GPa)
#
#
# Indices 1 2 3 4 5 6 
#
# 1 95.5552 77.5033 49.9120 -18.7973 0.0006 -0.0001
# 2 77.5033 95.5517 49.9129 18.7982 -0.0011 -0.0002
# 3 49.9120 49.9129 202.0615 -0.0024 -0.0005 0.0001
# 4 -18.7973 18.7982 -0.0024 23.3545 -0.0003 -0.0006
# 5 0.0006 -0.0011 -0.0005 -0.0003 23.3584 -18.7961
# 6 -0.0001 -0.0002 0.0001 -0.0006 -18.7961 9.0269
#
#
#
# Elastic Compliance Matrix: (Units=1/GPa)
#
#
# Indices 1 2 3 4 5 6 
#
# 1 -0.037579 0.044320 -0.001666 -0.065919 0.000002 0.000000
# 2 0.044320 -0.037583 -0.001663 0.065922 -0.000002 -0.000001
# 3 -0.001666 -0.001663 0.005771 -0.000002 0.000000 0.000000
# 4 -0.065919 0.065922 -0.000002 -0.063299 -0.000001 -0.000006
# 5 0.000002 -0.000002 0.000000 -0.000001 -0.063374 -0.131958
# 6 0.000000 -0.000001 0.000000 -0.000006 -0.131958 -0.163987
#
#
# Mechanical properties :
#
#
# Convention : Reuss Voigt Hill
#
# Bulk Modulus (GPa) = 79.42575 83.09164 81.25870
# Shear Modulus (GPa) = -11.41983 25.53732 7.05874
#
# Velocity S-wave (km/s) = -2.15620 3.22439 1.69521
# Velocity P-wave (km/s) = 5.11240 6.90581 6.07564
#
# Compressibility (1/GPa) = 0.01259037
#
# Stress axis : x y z
#
# Youngs Moduli (GPa) = -26.61058 -26.60783 173.27030
#
# Poissons Ratio (x) = 1.17925 0.28867
# Poissons Ratio (y) = 1.17937 0.28817
# Poissons Ratio (z) = -0.04433 -0.04425
#
# Static dielectric constant tensor:
#      x y z
#    x 1.948620 0.000000 0.000000 
#    y 0.000000 1.948630 0.000000 
#    z 0.000000 0.000000 2.097110 
# 
# From -- ./inp_files/1693.got.cif
#   From: 2010.05.17/outbox.cif.g08.bks.cpg/sg155_1_cif.got.tgz:1693.got - 2010.05.20 10:44:35.
