data_PCOD9577683
_publ_section_title
;
Structure prediction by ZEFSAII (Michael W. Deem and Ramdas Pophale) SiO2 
 PCOD9577683
Probable space group: P -3 1 M 
;
_chemical_formula_sum "Si O2"
_cell_formula_units_Z 70
_cell_length_a 14.794341
_cell_length_b 14.794341
_cell_length_c 18.633310
_cell_angle_alpha 90.000000
_cell_angle_beta 90.000000
_cell_angle_gamma 120.000000
_cell_volume 3531.928396
_symmetry_space_group_name_H-M "P -3 1 M "
_symmetry_group_IT_number 162
_symmetry_cell_setting 'hexagonal'
loop_
_space_group_symop_operation_xyz
x,y,z
-y,x-y,z
-x+y,-x,z
-y,-x,-z
-x+y,y,-z
x,x-y,-z
-x,-y,-z
y,-x+y,-z
x-y,x,-z
y,x,z
x-y,-y,z
-x,-x+y,z
loop_
_atom_site_type_symbol
_atom_site_label
_atom_site_fract_x
_atom_site_fract_y
_atom_site_fract_z
Si Si1 0.768112 0.120108 0.359687
Si Si2 0.230615 0.115308 0.500000
Si Si3 0.125140 0.249462 0.782503
Si Si4 0.198656 0.724087 0.183010
Si Si5 0.517896 0.115744 0.267780
Si Si6 0.333334 0.666668 0.085096
Si Si7 0.876012 0.412174 0.578654
O O1 0.819313 0.116988 0.433881
O O2 0.852110 0.157436 0.296277
O O3 0.700839 0.172142 0.384683
O O4 0.687430 0.000000 0.337772
O O5 0.159433 0.159433 0.527716
O O6 0.190435 0.190435 0.797854
O O7 0.149112 0.350948 0.830949
O O8 0.000000 0.167998 0.782972
O O9 0.126686 0.623686 0.232592
O O10 0.301281 0.794380 0.230325
O O11 0.242725 0.687505 0.116662
O O12 0.521596 0.126729 0.353989
O O13 0.426017 0.000000 0.249889
O O14 0.333334 0.666667 0.000000
O O15 0.833905 0.416953 0.500000
O O16 0.000000 0.454988 0.566179
#
# Coordination Sequence:
#
# PCOD9577683 Si02
#       7
#    12   6  12  12  12   4  12
#     4   9  18  31  46  66  97 142 194 251 309 359
#     4  10  19  30  44  64  96 138 190 246 303 352
#     4  11  21  35  56  86 124 166 212 255 295 345
#     4  10  20  35  62  91 118 156 199 238 300 369
#     4  10  19  35  55  79 114 152 196 251 306 362
#     4   9  21  42  69 102 133 152 178 237 306 378
#     4   9  17  31  49  68  98 142 191 250 316 365
#
# _framework density 19.819202000000001
#
# number of rings (size 3 to 8) (size 9 to 14) (size 15 to 20)
#    0.000    2.229    1.714    2.143    0.000    1.371 
#    0.000    5.143    0.000   18.514    0.000    0.000 
#    0.000    1.371    0.000    0.000    0.000    0.000 
#
# Total GULP energy -390003.016403 kJ/mol
# GULP energy per Si atom -5571.471663 kJ/mol
# Density = 1.977409 g / cm^3
# Si number density = 19.819202 Si / 1000 Ang^3
#
#
#
# Elastic Constant Matrix: (Units=GPa)
#
#
# Indices 1 2 3 4 5 6 
#
# 1 76.0213 17.7230 18.9552 0.0000 -0.5877 0.0002
# 2 17.7230 76.0217 18.9553 0.0000 0.5876 0.0002
# 3 18.9552 18.9553 101.3504 0.0003 0.0001 0.0001
# 4 0.0000 0.0000 0.0003 18.5288 0.0001 0.5875
# 5 -0.5877 0.5876 0.0001 0.0001 18.5288 0.0000
# 6 0.0002 0.0002 0.0001 0.5875 0.0000 29.1493
#
#
#
# Elastic Compliance Matrix: (Units=1/GPa)
#
#
# Indices 1 2 3 4 5 6 
#
# 1 0.014352 -0.002812 -0.002158 0.000000 0.000544 0.000000
# 2 -0.002812 0.014352 -0.002158 0.000000 -0.000544 0.000000
# 3 -0.002158 -0.002158 0.010674 0.000000 0.000000 0.000000
# 4 0.000000 0.000000 0.000000 0.054005 0.000000 -0.001089
# 5 0.000544 -0.000544 0.000000 0.000000 0.054004 0.000000
# 6 0.000000 0.000000 0.000000 -0.001089 0.000000 0.034328
#
#
# Mechanical properties :
#
#
# Convention : Reuss Voigt Hill
#
# Bulk Modulus (GPa) = 39.80720 40.51781 40.16250
# Shear Modulus (GPa) = 24.46827 26.42538 25.44682
#
# Velocity S-wave (km/s) = 3.51746 3.65543 3.58711
# Velocity P-wave (km/s) = 6.05190 6.18905 6.12086
#
# Compressibility (1/GPa) = 0.02512108
#
# Stress axis : x y z
#
# Youngs Moduli (GPa) = 69.67606 69.67644 93.68491
#
# Poissons Ratio (x) = 0.19593 0.20220
# Poissons Ratio (y) = 0.19593 0.20220
# Poissons Ratio (z) = 0.15038 0.15038
#
# Static dielectric constant tensor:
#      x y z
#    x 1.764660 0.000000 0.000000 
#    y 0.000000 1.764660 0.000000 
#    z 0.000000 0.000000 1.674590 
# 
# From -- ./inp_files/3552.got.cif
#   From: 2010.05.17/outbox.cif.g08.bks.cpg/sg162_2_cif.got.tgz:3552.got - 2010.05.20 10:53:12.
