data_PCOD9577748
_publ_section_title
;
Structure prediction by ZEFSAII (Michael W. Deem and Ramdas Pophale) SiO2 
 PCOD9577748
Probable space group: P -3 1 M 
;
_chemical_formula_sum "Si O2"
_cell_formula_units_Z 72
_cell_length_a 13.637114
_cell_length_b 13.637114
_cell_length_c 19.784670
_cell_angle_alpha 90.000000
_cell_angle_beta 90.000000
_cell_angle_gamma 120.000000
_cell_volume 3186.430017
_symmetry_space_group_name_H-M "P -3 1 M "
_symmetry_group_IT_number 162
_symmetry_cell_setting 'hexagonal'
loop_
_space_group_symop_operation_xyz
x,y,z
-y,x-y,z
-x+y,-x,z
-y,-x,-z
-x+y,y,-z
x,x-y,-z
-x,-y,-z
y,-x+y,-z
x-y,x,-z
y,x,z
x-y,-y,z
-x,-x+y,z
loop_
_atom_site_type_symbol
_atom_site_label
_atom_site_fract_x
_atom_site_fract_y
_atom_site_fract_z
Si Si1 0.131894 0.464671 0.039645
Si Si2 0.347173 0.483596 0.809509
Si Si3 0.129648 0.446206 0.451909
Si Si4 0.124833 0.251242 0.789495
Si Si5 0.122730 0.806958 0.357906
Si Si6 0.550175 0.132777 0.671953
O O1 0.175233 0.519402 0.114084
O O2 0.000000 0.361584 0.045139
O O3 0.216884 0.433768 0.000000
O O4 0.128123 0.564062 0.000000
O O5 0.431859 0.431859 0.810106
O O6 0.220798 0.378231 0.803035
O O7 0.383064 0.562391 0.742756
O O8 0.235515 0.471030 0.500000
O O9 0.120902 0.344660 0.406781
O O10 0.167556 0.549885 0.398855
O O11 0.000000 0.400093 0.478804
O O12 0.167420 0.167420 0.814646
O O13 0.120814 0.248776 0.708208
O O14 0.000000 0.214842 0.814582
O O15 0.139858 0.702881 0.333203
O O16 0.000000 0.750413 0.391768
O O17 0.509843 0.000000 0.673753
#
# Coordination Sequence:
#
# PCOD9577748 Si02
#       6
#    12  12  12  12  12  12
#     4  10  22  40  63  92 129 172 219 270 332 402
#     4   9  18  36  59  85 121 163 207 264 319 371
#     4  11  22  39  62  86 120 161 200 251 312 377
#     4  10  19  33  57  90 128 168 209 256 312 379
#     4  10  20  35  58  87 116 155 206 254 311 372
#     4   9  19  37  58  81 114 156 201 252 314 372
#
# _framework density 22.595818999999999
#
# number of rings (size 3 to 8) (size 9 to 14) (size 15 to 20)
#    0.000    2.167    1.667    1.333    0.000    2.667 
#    1.000    5.833    0.000    4.167    0.000    0.000 
#    0.000    0.000    0.000    0.000    0.000    0.000 
#
# Total GULP energy -401517.432772 kJ/mol
# GULP energy per Si atom -5576.631011 kJ/mol
# Density = 2.254439 g / cm^3
# Si number density = 22.595819 Si / 1000 Ang^3
#
#
#
# Elastic Constant Matrix: (Units=GPa)
#
#
# Indices 1 2 3 4 5 6 
#
# 1 2640.7949-2534.0669 36.2276 0.0171-2426.7508 0.0002
# 2 -2534.0669 2640.7949 36.2276 -0.0171 2426.7508 -0.0002
# 3 36.2276 36.2276 116.8633 0.0000 0.0000 0.0000
# 4 0.0171 -0.0171 0.0000 2309.8770 -0.0002 2426.7506
# 5 -2426.7508 2426.7508 0.0000 -0.0002 2309.8772 0.0167
# 6 0.0002 -0.0002 0.0000 2426.7506 0.0167 2587.4307
#
#
#
# Elastic Compliance Matrix: (Units=1/GPa)
#
#
# Indices 1 2 3 4 5 6 
#
# 1 0.012531 -0.000664 -0.003679 0.000000 0.013863 0.000000
# 2 -0.000664 0.012531 -0.003679 0.000000 -0.013863 0.000000
# 3 -0.003679 -0.003679 0.010838 0.000000 0.000000 0.000000
# 4 0.000000 0.000000 0.000000 0.029561 0.000000 -0.027725
# 5 0.013863 -0.013863 0.000000 0.000000 0.029561 0.000000
# 6 0.000000 0.000000 0.000000 -0.027725 0.000000 0.026390
#
#
# Mechanical properties :
#
#
# Convention : Reuss Voigt Hill
#
# Bulk Modulus (GPa) = 50.36054 52.80332 51.58193
# Shear Modulus (GPa) = 34.70425 1965.44128 1000.07276
#
# Velocity S-wave (km/s) = 3.92327 29.52479 21.06069
# Velocity P-wave (km/s) = 6.54665 34.43405 24.78470
#
# Compressibility (1/GPa) = 0.01985681
#
# Stress axis : x y z
#
# Youngs Moduli (GPa) = 79.80167 79.80167 92.26911
#
# Poissons Ratio (x) = 0.05299 0.33944
# Poissons Ratio (y) = 0.05299 0.33944
# Poissons Ratio (z) = 0.29357 0.29357
#
# Static dielectric constant tensor:
#      x y z
#    x 1.728100 0.000000 0.000000 
#    y 0.000000 1.728100 0.000000 
#    z 0.000000 0.000000 1.965070 
# 
# From -- ./inp_files/3502.got.cif
#   From: 2010.05.17/outbox.cif.g08.bks.cpg/sg162_2_cif.got.tgz:3502.got - 2010.05.20 10:53:12.
