data_PCOD9577497
_publ_section_title
;
Structure prediction by ZEFSAII (Michael W. Deem and Ramdas Pophale) SiO2 
 PCOD9577497
Probable space group: R 3 M
;
_chemical_formula_sum "Si O2"
_cell_formula_units_Z 126
_cell_length_a 25.324002
_cell_length_b 25.324002
_cell_length_c 11.766020
_cell_angle_alpha 90.000000
_cell_angle_beta 90.000000
_cell_angle_gamma 120.000000
_cell_volume 6534.688532
_symmetry_space_group_name_H-M "R 3 M"
_symmetry_group_IT_number 160
_symmetry_cell_setting 'hexagonal'
loop_
_space_group_symop_operation_xyz
x,y,z
-y,x-y,z
-x+y,-x,z
-x+y,y,z
x,x-y,z
-y,-x,z
2/3+x,1/3+y,1/3+z
2/3-y,1/3+x-y,1/3+z
2/3-x+y,1/3-x,1/3+z
2/3-x+y,1/3+y,1/3+z
2/3+x,1/3+x-y,1/3+z
2/3-y,1/3-x,1/3+z
1/3+x,2/3+y,2/3+z
1/3-y,2/3+x-y,2/3+z
1/3-x+y,2/3-x,2/3+z
1/3-x+y,2/3+y,2/3+z
1/3+x,2/3+x-y,2/3+z
1/3-y,2/3-x,2/3+z
loop_
_atom_site_type_symbol
_atom_site_label
_atom_site_fract_x
_atom_site_fract_y
_atom_site_fract_z
Si Si1 0.408966 0.142043 0.763541
Si Si2 0.565628 0.006761 0.702011
Si Si3 0.881808 0.500196 0.871507
Si Si4 0.101198 0.778055 0.777822
Si Si5 0.214470 0.165968 0.989208
Si Si6 0.270689 0.034760 0.761219
Si Si7 0.175418 0.950992 0.169258
O O1 0.394937 0.197469 0.771286
O O2 0.464079 0.154953 0.849727
O O3 0.343512 0.079546 0.780367
O O4 0.434801 0.143572 0.636233
O O5 0.497171 0.994342 0.694182
O O6 0.600058 0.068094 0.772214
O O7 0.582319 0.005532 0.572527
O O8 0.561476 0.952328 0.776100
O O9 0.854596 0.427298 0.861374
O O10 0.917029 0.521829 0.990814
O O11 0.148038 0.851963 0.779513
O O12 0.137536 0.751854 0.711684
O O13 0.034276 0.750031 0.726429
O O14 0.191744 0.095872 0.963704
O O15 0.228749 0.202739 0.871427
O O16 0.174453 0.173187 0.087704
O O17 0.110415 0.889586 0.160652
#
# Coordination Sequence:
#
# PCOD9577497 Si02
#       7
#    18  18  18  18  18  18  18
#     4  11  24  40  59  85 117 151 196 249 296 345
#     4   9  17  34  56  79 106 139 187 232 268 332
#     4  11  23  38  59  82 112 155 197 236 285 351
#     4  10  22  37  55  83 115 153 196 236 278 343
#     4  11  23  36  54  84 120 149 190 240 285 339
#     4  12  23  36  57  81 122 160 189 230 291 345
#     4  10  20  37  60  80 108 147 191 237 289 345
#
# _framework density 19.281714999999998
#
# number of rings (size 3 to 8) (size 9 to 14) (size 15 to 20)
#    0.000    1.429    2.857    3.000    2.000    5.714 
#    0.000    0.000    0.000    0.571    0.000    0.000 
#    0.000    0.000    0.000    0.000    0.000    0.000 
#
# Total GULP energy -234041.181306 kJ/mol
# GULP energy per Si atom -5572.409079 kJ/mol
# Density = 1.923783 g / cm^3
# Si number density = 19.281715 Si / 1000 Ang^3
#
#
#
# Elastic Constant Matrix: (Units=GPa)
#
#
# Indices 1 2 3 4 5 6 
#
# 1 62.0922 31.8781 13.6048 -0.3879 -0.0001 0.0001
# 2 31.8781 62.0922 13.6055 0.3880 0.0001 -0.0001
# 3 13.6048 13.6055 70.9917 -0.0002 -0.0003 0.0002
# 4 -0.3879 0.3880 -0.0002 24.6296 -0.0001 0.0000
# 5 -0.0001 0.0001 -0.0003 -0.0001 24.6295 -0.3879
# 6 0.0001 -0.0001 0.0002 0.0000 -0.3879 15.1070
#
#
#
# Elastic Compliance Matrix: (Units=1/GPa)
#
#
# Indices 1 2 3 4 5 6 
#
# 1 0.022189 -0.010922 -0.002159 0.000521 0.000000 0.000000
# 2 -0.010922 0.022189 -0.002159 -0.000522 0.000000 0.000000
# 3 -0.002159 -0.002159 0.014914 0.000000 0.000000 0.000000
# 4 0.000521 -0.000522 0.000000 0.040618 0.000000 0.000000
# 5 0.000000 0.000000 0.000000 0.000000 0.040618 0.001043
# 6 0.000000 0.000000 0.000000 0.000000 0.001043 0.066221
#
#
# Mechanical properties :
#
#
# Convention : Reuss Voigt Hill
#
# Bulk Modulus (GPa) = 34.70945 34.81701 34.76323
# Shear Modulus (GPa) = 20.25665 21.94575 21.10120
#
# Velocity S-wave (km/s) = 3.24475 3.37733 3.31170
# Velocity P-wave (km/s) = 5.66376 5.77102 5.71764
#
# Compressibility (1/GPa) = 0.02881060
#
# Stress axis : x y z
#
# Youngs Moduli (GPa) = 45.06804 45.06787 67.05209
#
# Poissons Ratio (x) = 0.49222 0.14477
# Poissons Ratio (y) = 0.49223 0.14479
# Poissons Ratio (z) = 0.09731 0.09732
#
# Static dielectric constant tensor:
#      x y z
#    x 1.716180 0.000000 0.000000 
#    y 0.000000 1.716180 0.000000 
#    z 0.000000 0.000000 1.738490 
# 
# From -- ./inp_files/1820.got.cif
#   From: 2010.05.17/outbox.cif.g08.bks.cpg/sg160_1_cif.got.tgz:1820.got - 2010.05.20 10:51:19.
