data_PCOD9577505
_publ_section_title
;
Structure prediction by ZEFSAII (Michael W. Deem and Ramdas Pophale) SiO2 
 PCOD9577505
Probable space group: R 3 M
;
_chemical_formula_sum "Si O2"
_cell_formula_units_Z 42
_cell_length_a 15.287591
_cell_length_b 15.287591
_cell_length_c 8.512706
_cell_angle_alpha 90.000000
_cell_angle_beta 90.000000
_cell_angle_gamma 120.000000
_cell_volume 1722.964688
_symmetry_space_group_name_H-M "R 3 M"
_symmetry_group_IT_number 160
_symmetry_cell_setting 'hexagonal'
loop_
_space_group_symop_operation_xyz
x,y,z
-y,x-y,z
-x+y,-x,z
-x+y,y,z
x,x-y,z
-y,-x,z
2/3+x,1/3+y,1/3+z
2/3-y,1/3+x-y,1/3+z
2/3-x+y,1/3-x,1/3+z
2/3-x+y,1/3+y,1/3+z
2/3+x,1/3+x-y,1/3+z
2/3-y,1/3-x,1/3+z
1/3+x,2/3+y,2/3+z
1/3-y,2/3+x-y,2/3+z
1/3-x+y,2/3-x,2/3+z
1/3-x+y,2/3+y,2/3+z
1/3+x,2/3+x-y,2/3+z
1/3-y,2/3-x,2/3+z
loop_
_atom_site_type_symbol
_atom_site_label
_atom_site_fract_x
_atom_site_fract_y
_atom_site_fract_z
Si Si1 0.124224 0.248447 0.876224
Si Si2 0.095979 0.547990 0.165001
Si Si3 0.205470 0.102735 0.837396
Si Si4 0.902246 0.804492 0.347649
Si Si5 0.666667 0.333334 0.469728
Si Si6 0.666667 0.333334 0.089539
O O1 0.128451 0.256902 0.686224
O O2 0.181986 0.185763 0.917114
O O3 0.178662 0.357324 0.952482
O O4 0.156147 0.493453 0.104892
O O5 0.982212 0.491106 0.098927
O O6 0.114231 0.057116 0.710732
O O7 0.944085 0.888170 0.208867
O O8 0.666667 0.333334 0.280779
#
# Coordination Sequence:
#
# PCOD9577505 Si02
#       6
#     9   9   9   9   3   3
#     4  11  24  46  69 107 144 193 240 311 354 444
#     4  11  24  46  71 108 142 195 241 307 357 448
#     4  10  24  40  70 101 143 185 246 290 373 425
#     4  10  24  44  74 103 146 188 249 293 376 426
#     4   9  18  42  67  95 133 189 231 307 353 436
#     4   9  18  42  61  92 136 192 225 304 359 427
#
# _framework density 24.376587000000001
#
# number of rings (size 3 to 8) (size 9 to 14) (size 15 to 20)
#    0.000    1.714    0.000    3.429    6.000    0.000 
#    0.000    0.000    0.000    0.000    0.000    0.000 
#    0.000    0.000    0.000    0.000    0.000    0.000 
#
# Total GULP energy -78230.787780 kJ/mol
# GULP energy per Si atom -5587.913413 kJ/mol
# Density = 2.432110 g / cm^3
# Si number density = 24.376587 Si / 1000 Ang^3
#
#
#
# Elastic Constant Matrix: (Units=GPa)
#
#
# Indices 1 2 3 4 5 6 
#
# 1 268.9043 136.3907 68.1240 -8.3772 -0.0001 -0.0002
# 2 136.3907 268.9034 68.1239 8.3772 0.0001 -0.0001
# 3 68.1240 68.1239 118.4800 0.0001 -0.0001 0.0000
# 4 -8.3772 8.3772 0.0001 12.5139 0.0000 0.0001
# 5 -0.0001 0.0001 -0.0001 0.0000 12.5139 -8.3772
# 6 -0.0002 -0.0001 0.0000 0.0001 -8.3772 66.2568
#
#
#
# Elastic Compliance Matrix: (Units=1/GPa)
#
#
# Indices 1 2 3 4 5 6 
#
# 1 0.005651 -0.002593 -0.001759 0.005519 0.000000 0.000000
# 2 -0.002593 0.005651 -0.001759 -0.005519 0.000000 0.000000
# 3 -0.001759 -0.001759 0.010463 0.000000 0.000000 0.000000
# 4 0.005519 -0.005519 0.000000 0.087300 0.000000 0.000000
# 5 0.000000 0.000000 0.000000 0.000000 0.087300 0.011038
# 6 0.000000 0.000000 0.000000 0.000000 0.011038 0.016488
#
#
# Mechanical properties :
#
#
# Convention : Reuss Voigt Hill
#
# Bulk Modulus (GPa) = 104.76443 133.50722 119.13582
# Shear Modulus (GPa) = 21.90524 43.83353 32.86938
#
# Velocity S-wave (km/s) = 3.00095 4.24510 3.67604
# Velocity P-wave (km/s) = 7.42148 8.88343 8.18516
#
# Compressibility (1/GPa) = 0.00954522
#
# Stress axis : x y z
#
# Youngs Moduli (GPa) = 176.94838 176.94790 95.57877
#
# Poissons Ratio (x) = 0.45880 0.16809
# Poissons Ratio (y) = 0.45880 0.16808
# Poissons Ratio (z) = 0.31118 0.31118
#
# Static dielectric constant tensor:
#      x y z
#    x 1.978780 0.000000 0.000000 
#    y 0.000000 1.978790 0.000000 
#    z 0.000000 0.000000 1.988710 
# 
# From -- ./inp_files/1286.got.cif
#   From: 2010.05.17/outbox.cif.g08.bks.cpg/sg160_1_cif.got.tgz:1286.got - 2010.05.20 10:51:19.
