data_PCOD9577115
_publ_section_title
;
Structure prediction by ZEFSAII (Michael W. Deem and Ramdas Pophale) SiO2 
 PCOD9577115
Probable space group: R 3 2
;
_chemical_formula_sum "Si O2"
_cell_formula_units_Z 66
_cell_length_a 11.868846
_cell_length_b 11.868846
_cell_length_c 20.046417
_cell_angle_alpha 90.000000
_cell_angle_beta 90.000000
_cell_angle_gamma 120.000000
_cell_volume 2445.594120
_symmetry_space_group_name_H-M "R 3 2"
_symmetry_group_IT_number 155
_symmetry_cell_setting 'hexagonal'
loop_
_space_group_symop_operation_xyz
x,y,z
-y,x-y,z
-x+y,-x,z
x-y,-y,-z
-x,-x+y,-z
y,x,-z
2/3+x,1/3+y,1/3+z
2/3-y,1/3+x-y,1/3+z
2/3-x+y,1/3-x,1/3+z
2/3+x-y,1/3-y,1/3-z
2/3-x,1/3-x+y,1/3-z
2/3+y,1/3+x,1/3-z
1/3+x,2/3+y,2/3+z
1/3-y,2/3+x-y,2/3+z
1/3-x+y,2/3-x,2/3+z
1/3+x-y,2/3-y,2/3-z
1/3-x,2/3-x+y,2/3-z
1/3+y,2/3+x,2/3-z
loop_
_atom_site_type_symbol
_atom_site_label
_atom_site_fract_x
_atom_site_fract_y
_atom_site_fract_z
Si Si1 0.390185 0.244818 0.096880
Si Si2 0.000000 0.222570 0.000000
Si Si3 0.000000 0.000000 0.596228
Si Si4 0.000000 0.000000 0.757008
Si Si5 0.930606 0.194731 0.431784
Si Si6 0.156946 0.823612 0.333334
O O1 0.333334 0.258082 0.166667
O O2 0.520414 0.238819 0.113397
O O3 0.446128 0.372073 0.050615
O O4 0.295174 0.118911 0.054196
O O5 0.892714 0.161453 0.936049
O O6 0.854820 0.952387 0.569113
O O7 0.000000 0.000000 0.676030
O O8 0.044138 0.252157 0.375301
O O9 0.000000 0.263202 0.500000
#
# Coordination Sequence:
#
# PCOD9577115 Si02
#       6
#    18   9   6   6  18   9
#     4  12  27  44  71  97 135 188 225 278 340 405
#     4  11  22  42  62  91 132 176 226 273 326 403
#     4  12  19  37  66  96 133 163 196 290 352 394
#     4  12  21  49  67  97 145 162 214 296 346 387
#     4  11  21  36  67 101 132 172 214 277 358 408
#     4  11  24  44  64  99 144 174 234 289 330 409
#
# _framework density 26.987304999999999
#
# number of rings (size 3 to 8) (size 9 to 14) (size 15 to 20)
#    0.000    0.545    5.455    3.273    0.000    6.545 
#    0.000    0.000    0.000    2.182    0.000    0.000 
#    0.000    0.000    0.000    0.000    0.000    0.000 
#
# Total GULP energy -122506.105818 kJ/mol
# GULP energy per Si atom -5568.459355 kJ/mol
# Density = 2.692588 g / cm^3
# Si number density = 26.987305 Si / 1000 Ang^3
#
#
#
# Elastic Constant Matrix: (Units=GPa)
#
#
# Indices 1 2 3 4 5 6 
#
# 1 65.4114 9.4071 11.8385 -3.5169 0.0003 0.0000
# 2 9.4071 65.4114 11.8385 3.5169 -0.0003 0.0000
# 3 11.8385 11.8385 182.5829 0.0000 0.0000 0.0000
# 4 -3.5169 3.5169 0.0000 29.2794 0.0000 -0.0003
# 5 0.0003 -0.0003 0.0000 0.0000 29.2794 -3.5169
# 6 0.0000 0.0000 0.0000 -0.0003 -3.5169 28.0021
#
#
#
# Elastic Compliance Matrix: (Units=1/GPa)
#
#
# Indices 1 2 3 4 5 6 
#
# 1 0.015887 -0.002242 -0.000885 0.002178 0.000000 0.000000
# 2 -0.002242 0.015887 -0.000885 -0.002178 0.000000 0.000000
# 3 -0.000885 -0.000885 0.005592 0.000000 0.000000 0.000000
# 4 0.002178 -0.002178 0.000000 0.034677 0.000000 0.000000
# 5 0.000000 0.000000 0.000000 0.000000 0.034677 0.004355
# 6 0.000000 0.000000 0.000000 0.000000 0.004355 0.036259
#
#
# Mechanical properties :
#
#
# Convention : Reuss Voigt Hill
#
# Bulk Modulus (GPa) = 34.07858 42.17489 38.12674
# Shear Modulus (GPa) = 31.09784 36.00029 33.54907
#
# Velocity S-wave (km/s) = 3.39826 3.65632 3.52965
# Velocity P-wave (km/s) = 5.29647 5.78675 5.54703
#
# Compressibility (1/GPa) = 0.02934394
#
# Stress axis : x y z
#
# Youngs Moduli (GPa) = 62.94267 62.94267 178.83650
#
# Poissons Ratio (x) = 0.14111 0.15823
# Poissons Ratio (y) = 0.14111 0.15823
# Poissons Ratio (z) = 0.05569 0.05569
#
# Static dielectric constant tensor:
#      x y z
#    x 2.506940 0.000000 0.000000 
#    y 0.000000 2.506940 0.000000 
#    z 0.000000 0.000000 2.140500 
# 
# From -- ./inp_files/6781.got.cif
#   From: 2010.05.17/outbox.cif.g08.bks.cpg/sg155_4_cif.got.tgz:6781.got - 2010.05.20 10:44:35.
