data_PCOD9577016
_publ_section_title
;
Structure prediction by ZEFSAII (Michael W. Deem and Ramdas Pophale) SiO2 
 PCOD9577016
Probable space group: R 3 2
;
_chemical_formula_sum "Si O2"
_cell_formula_units_Z 144
_cell_length_a 30.071557
_cell_length_b 30.071557
_cell_length_c 9.305380
_cell_angle_alpha 90.000000
_cell_angle_beta 90.000000
_cell_angle_gamma 120.000000
_cell_volume 7287.466553
_symmetry_space_group_name_H-M "R 3 2"
_symmetry_group_IT_number 155
_symmetry_cell_setting 'hexagonal'
loop_
_space_group_symop_operation_xyz
x,y,z
-y,x-y,z
-x+y,-x,z
x-y,-y,-z
-x,-x+y,-z
y,x,-z
2/3+x,1/3+y,1/3+z
2/3-y,1/3+x-y,1/3+z
2/3-x+y,1/3-x,1/3+z
2/3+x-y,1/3-y,1/3-z
2/3-x,1/3-x+y,1/3-z
2/3+y,1/3+x,1/3-z
1/3+x,2/3+y,2/3+z
1/3-y,2/3+x-y,2/3+z
1/3-x+y,2/3-x,2/3+z
1/3+x-y,2/3-y,2/3-z
1/3-x,2/3-x+y,2/3-z
1/3+y,2/3+x,2/3-z
loop_
_atom_site_type_symbol
_atom_site_label
_atom_site_fract_x
_atom_site_fract_y
_atom_site_fract_z
Si Si1 0.309046 0.744375 0.822582
Si Si2 0.267515 0.035719 0.356751
Si Si3 0.545962 0.819898 0.634048
Si Si4 0.574657 0.452182 0.573574
Si Si5 0.903140 0.271679 0.523688
Si Si6 0.052891 0.859021 0.483114
Si Si7 0.882922 0.966690 0.234980
Si Si8 0.055715 0.538906 0.931334
O O1 0.333334 0.748638 0.666667
O O2 0.292042 0.786260 0.848435
O O3 0.259607 0.689090 0.848475
O O4 0.356509 0.757028 0.923989
O O5 0.333334 0.905311 0.166667
O O6 0.249042 0.075446 0.310909
O O7 0.327800 0.067488 0.397638
O O8 0.254456 0.996994 0.223549
O O9 0.526473 0.859806 0.666667
O O10 0.559863 0.798127 0.774395
O O11 0.496869 0.773405 0.549413
O O12 0.593591 0.841602 0.525732
O O13 0.550796 0.410249 0.699473
O O14 0.921217 0.254551 0.666667
O O15 0.841751 0.234792 0.527592
O O16 0.034278 0.889845 0.382104
O O17 0.098925 0.860224 0.393880
O O18 0.000000 0.804711 0.500000
O O19 0.000000 0.515854 0.000000
#
# Coordination Sequence:
#
# PCOD9577016 Si02
#       8
#    18  18  18  18  18  18  18  18
#     4  12  22  35  58  84 129 174 231 270 316 372
#     4  10  22  39  64  89 128 172 218 271 331 398
#     4  11  21  43  64  93 129 169 216 267 326 396
#     4  12  23  36  61  96 122 165 230 273 322 379
#     4   9  19  41  60  89 122 170 213 262 326 382
#     4  11  22  41  63  91 128 169 211 267 332 403
#     4  11  23  40  57  85 127 180 222 268 321 380
#     4  10  22  42  70  93 128 165 212 264 336 399
#
# _framework density 19.759954
#
# number of rings (size 3 to 8) (size 9 to 14) (size 15 to 20)
#    0.000    1.250    3.750    3.625    5.250    0.000 
#    0.000   11.250    0.000    0.750    0.000    0.000 
#    0.000    0.000    0.000    0.000    0.000    0.000 
#
# Total GULP energy -267847.087465 kJ/mol
# GULP energy per Si atom -5580.147656 kJ/mol
# Density = 1.971498 g / cm^3
# Si number density = 19.759954 Si / 1000 Ang^3
#
#
#
# Elastic Constant Matrix: (Units=GPa)
#
#
# Indices 1 2 3 4 5 6 
#
# 1 91.5786 50.0158 41.0294 0.9064 0.0201 -0.0322
# 2 50.0158 91.5128 40.9794 -0.9157 -0.0112 -0.0302
# 3 41.0294 40.9794 107.9812 -0.0361 -0.0207 -0.1322
# 4 0.9064 -0.9157 -0.0361 24.6258 -0.0054 -0.0240
# 5 0.0201 -0.0112 -0.0207 -0.0054 24.6344 0.8961
# 6 -0.0322 -0.0302 -0.1322 -0.0240 0.8961 20.7232
#
#
#
# Elastic Compliance Matrix: (Units=1/GPa)
#
#
# Indices 1 2 3 4 5 6 
#
# 1 0.016584 -0.007531 -0.003444 -0.000896 -0.000020 -0.000007
# 2 -0.007531 0.016590 -0.003434 0.000889 0.000011 -0.000009
# 3 -0.003444 -0.003434 0.011873 0.000017 0.000009 0.000065
# 4 -0.000896 0.000889 0.000017 0.040674 0.000008 0.000047
# 5 -0.000020 0.000011 0.000009 0.000008 0.040658 -0.001758
# 6 -0.000007 -0.000009 0.000065 0.000047 -0.001758 0.048332
#
#
# Mechanical properties :
#
#
# Convention : Reuss Voigt Hill
#
# Bulk Modulus (GPa) = 61.61669 61.68021 61.64845
# Shear Modulus (GPa) = 23.93050 24.59987 24.26518
#
# Velocity S-wave (km/s) = 3.48380 3.53219 3.50808
# Velocity P-wave (km/s) = 6.88715 6.92226 6.90473
#
# Compressibility (1/GPa) = 0.01622937
#
# Stress axis : x y z
#
# Youngs Moduli (GPa) = 60.29763 60.27663 84.22599
#
# Poissons Ratio (x) = 0.45394 0.29006
# Poissons Ratio (y) = 0.45410 0.28925
# Poissons Ratio (z) = 0.20765 0.20701
#
# Static dielectric constant tensor:
#      x y z
#    x 1.728850 0.000000 -0.000100 
#    y 0.000000 1.728840 0.000020 
#    z -0.000100 0.000020 1.747160 
# 
# From -- ./inp_files/3048.got.cif
#   From: 2010.05.17/outbox.cif.g08.bks.cpg/sg155_2_cif.got.tgz:3048.got - 2010.05.20 10:44:35.
