data_PCOD9577680
_publ_section_title
;
Structure prediction by ZEFSAII (Michael W. Deem and Ramdas Pophale) SiO2 
 PCOD9577680
Probable space group: P -3 1 M 
;
_chemical_formula_sum "Si O2"
_cell_formula_units_Z 84
_cell_length_a 15.212478
_cell_length_b 15.212478
_cell_length_c 25.365098
_cell_angle_alpha 90.000000
_cell_angle_beta 90.000000
_cell_angle_gamma 120.000000
_cell_volume 5083.550037
_symmetry_space_group_name_H-M "P -3 1 M "
_symmetry_group_IT_number 162
_symmetry_cell_setting 'hexagonal'
loop_
_space_group_symop_operation_xyz
x,y,z
-y,x-y,z
-x+y,-x,z
-y,-x,-z
-x+y,y,-z
x,x-y,-z
-x,-y,-z
y,-x+y,-z
x-y,x,-z
y,x,z
x-y,-y,z
-x,-x+y,z
loop_
_atom_site_type_symbol
_atom_site_label
_atom_site_fract_x
_atom_site_fract_y
_atom_site_fract_z
Si Si1 0.587706 0.111182 0.699342
Si Si2 0.240116 0.119561 0.770378
Si Si3 0.181373 0.749507 0.300328
Si Si4 0.120099 0.879902 0.500000
Si Si5 0.879053 0.121300 0.113321
Si Si6 0.121950 0.878051 0.000000
Si Si7 0.589019 0.477492 0.428389
Si Si8 0.250643 0.821549 0.572540
O O1 0.699695 0.197005 0.713934
O O2 0.497277 0.129866 0.716381
O O3 0.586474 0.112112 0.635494
O O4 0.563048 0.000000 0.716643
O O5 0.185969 0.185969 0.760434
O O6 0.324337 0.137492 0.727611
O O7 0.291717 0.148193 0.828810
O O8 0.156683 0.000000 0.771123
O O9 0.170981 0.752087 0.363862
O O10 0.186906 0.867964 0.546356
O O11 0.000000 0.829036 0.512468
O O12 0.852623 0.152405 0.056882
O O13 0.000000 0.167411 0.113431
O O14 0.823005 0.000000 0.112381
O O15 0.000000 0.826524 0.000712
O O16 0.563411 0.563411 0.445295
O O17 0.702477 0.506966 0.442175
O O18 0.497896 0.367586 0.444634
#
# Coordination Sequence:
#
# PCOD9577680 Si02
#       8
#    12  12  12   6  12   6  12  12
#     4   9  17  29  47  70  92 115 144 180 224 273
#     4  10  19  29  42  63  94 130 165 197 227 266
#     4  10  19  33  52  72  95 121 151 189 234 281
#     4  12  27  44  58  72  96 132 171 200 216 244
#     4   8  13  20  31  50  78 114 154 193 231 270
#     4   8  11  16  28  46  72 108 150 192 232 274
#     4   9  17  32  54  77  97 114 139 179 228 281
#     4  10  21  37  57  79  99 121 148 185 237 287
#
# _framework density 16.523886000000001
#
# number of rings (size 3 to 8) (size 9 to 14) (size 15 to 20)
#    0.000    2.571    0.000    2.714    0.000    8.571 
#    0.000    1.429    0.000    1.714    0.000    0.000 
#    0.000    1.143    0.000   10.714    0.000    0.429 
#
# Total GULP energy -467843.789242 kJ/mol
# GULP energy per Si atom -5569.568920 kJ/mol
# Density = 1.648628 g / cm^3
# Si number density = 16.523886 Si / 1000 Ang^3
#
#
#
# Elastic Constant Matrix: (Units=GPa)
#
#
# Indices 1 2 3 4 5 6 
#
# 1 55.1052 5.9433 0.2514 0.0000 -0.6862 0.0000
# 2 5.9433 55.1052 0.2514 0.0000 0.6862 0.0000
# 3 0.2514 0.2514 60.9758 0.0000 0.0000 0.0000
# 4 0.0000 0.0000 0.0000 5.7952 0.0000 0.6862
# 5 -0.6862 0.6862 0.0000 0.0000 5.7952 0.0000
# 6 0.0000 0.0000 0.0000 0.6862 0.0000 24.5809
#
#
#
# Elastic Compliance Matrix: (Units=1/GPa)
#
#
# Indices 1 2 3 4 5 6 
#
# 1 0.018395 -0.002014 -0.000068 0.000000 0.002417 0.000000
# 2 -0.002014 0.018395 -0.000068 0.000000 -0.002417 0.000000
# 3 -0.000068 -0.000068 0.016401 0.000000 0.000000 0.000000
# 4 0.000000 0.000000 0.000000 0.173130 0.000000 -0.004833
# 5 0.002417 -0.002417 0.000000 0.000000 0.173130 0.000000
# 6 0.000000 0.000000 0.000000 -0.004833 0.000000 0.040817
#
#
# Mechanical properties :
#
#
# Convention : Reuss Voigt Hill
#
# Bulk Modulus (GPa) = 20.45315 20.45319 20.45317
# Shear Modulus (GPa) = 10.84924 18.21692 14.53308
#
# Velocity S-wave (km/s) = 2.56516 3.32393 2.96889
# Velocity P-wave (km/s) = 4.60198 5.20924 4.91500
#
# Compressibility (1/GPa) = 0.04889223
#
# Stress axis : x y z
#
# Youngs Moduli (GPa) = 54.36349 54.36349 60.97374
#
# Poissons Ratio (x) = 0.10947 0.00412
# Poissons Ratio (y) = 0.10947 0.00412
# Poissons Ratio (z) = 0.00367 0.00367
#
# Static dielectric constant tensor:
#      x y z
#    x 1.543090 0.000000 0.000000 
#    y 0.000000 1.543090 0.000000 
#    z 0.000000 0.000000 1.623300 
# 
# From -- ./inp_files/3999.got.cif
#   From: 2010.05.17/outbox.cif.g08.bks.cpg/sg162_2_cif.got.tgz:3999.got - 2010.05.20 10:53:12.
