data_PCOD9577052
_publ_section_title
;
Structure prediction by ZEFSAII (Michael W. Deem and Ramdas Pophale) SiO2 
 PCOD9577052
Probable space group: R 3 2
;
_chemical_formula_sum "Si O2"
_cell_formula_units_Z 69
_cell_length_a 23.473200
_cell_length_b 23.473200
_cell_length_c 7.489289
_cell_angle_alpha 90.000000
_cell_angle_beta 90.000000
_cell_angle_gamma 120.000000
_cell_volume 3573.681300
_symmetry_space_group_name_H-M "R 3 2"
_symmetry_group_IT_number 155
_symmetry_cell_setting 'hexagonal'
loop_
_space_group_symop_operation_xyz
x,y,z
-y,x-y,z
-x+y,-x,z
x-y,-y,-z
-x,-x+y,-z
y,x,-z
2/3+x,1/3+y,1/3+z
2/3-y,1/3+x-y,1/3+z
2/3-x+y,1/3-x,1/3+z
2/3+x-y,1/3-y,1/3-z
2/3-x,1/3-x+y,1/3-z
2/3+y,1/3+x,1/3-z
1/3+x,2/3+y,2/3+z
1/3-y,2/3+x-y,2/3+z
1/3-x+y,2/3-x,2/3+z
1/3+x-y,2/3-y,2/3-z
1/3-x,2/3-x+y,2/3-z
1/3+y,2/3+x,2/3-z
loop_
_atom_site_type_symbol
_atom_site_label
_atom_site_fract_x
_atom_site_fract_y
_atom_site_fract_z
Si Si1 0.666667 0.333334 0.047570
Si Si2 0.333334 0.871745 0.166667
Si Si3 0.000000 0.455790 0.000000
Si Si4 0.541545 0.052203 0.356776
Si Si5 0.564473 0.186043 0.505361
Si Si6 0.298046 0.298046 0.000000
O O1 0.704155 0.409667 0.112877
O O2 0.666668 0.333334 0.833334
O O3 0.275366 0.883280 0.239764
O O4 0.356415 0.841334 0.326371
O O5 0.035963 0.508108 0.838625
O O6 0.571692 0.125221 0.437090
O O7 0.602952 0.041343 0.348008
O O8 0.490167 0.000000 0.500000
O O9 0.532241 0.198908 0.333334
O O10 0.333334 0.342781 0.166667
#
# Coordination Sequence:
#
# PCOD9577052 Si02
#       6
#     6   9   9  18  18   9
#     4  12  28  47  73 109 152 187 241 296 364 448
#     4  12  26  42  72 100 140 186 240 302 352 438
#     4  12  25  44  66 104 136 185 236 296 352 422
#     4  11  24  42  71  98 137 182 234 286 351 417
#     4  12  25  46  70 105 143 189 238 288 359 432
#     4  10  23  44  66 100 132 173 224 286 344 410
#
# _framework density 19.307821000000001
#
# number of rings (size 3 to 8) (size 9 to 14) (size 15 to 20)
#    0.000    0.522    6.522    1.565    3.652    2.087 
#    0.000    1.304    0.000    0.000    0.000    0.000 
#    0.000    0.000    0.000    0.000    0.000    0.000 
#
# Total GULP energy -128302.048699 kJ/mol
# GULP energy per Si atom -5578.349943 kJ/mol
# Density = 1.926388 g / cm^3
# Si number density = 19.307821 Si / 1000 Ang^3
#
#
#
# Elastic Constant Matrix: (Units=GPa)
#
#
# Indices 1 2 3 4 5 6 
#
# 1 113.8805 65.8901 55.2432 1.8925 0.0546 0.0396
# 2 65.8901 113.8098 55.1591 -1.8709 0.0015 -0.0103
# 3 55.2432 55.1591 163.5606 -0.0074 -0.0111 0.0084
# 4 1.8925 -1.8709 -0.0074 39.5419 0.0047 -0.0016
# 5 0.0546 0.0015 -0.0111 0.0047 39.5747 1.8755
# 6 0.0396 -0.0103 0.0084 -0.0016 1.8755 23.9791
#
#
#
# Elastic Compliance Matrix: (Units=1/GPa)
#
#
# Indices 1 2 3 4 5 6 
#
# 1 0.013974 -0.006956 -0.002374 -0.000998 -0.000018 -0.000024
# 2 -0.006956 0.013976 -0.002364 0.000994 0.000007 0.000018
# 3 -0.002374 -0.002364 0.007713 0.000003 0.000006 0.000000
# 4 -0.000998 0.000994 0.000003 0.025384 -0.000002 0.000004
# 5 -0.000018 0.000007 0.000006 -0.000002 0.025363 -0.001984
# 6 -0.000024 0.000018 0.000000 0.000004 -0.001984 0.041858
#
#
# Mechanical properties :
#
#
# Convention : Reuss Voigt Hill
#
# Bulk Modulus (GPa) = 81.46516 82.64840 82.05678
# Shear Modulus (GPa) = 32.10328 34.94971 33.52650
#
# Velocity S-wave (km/s) = 4.08206 4.25918 4.17156
# Velocity P-wave (km/s) = 8.03131 8.19061 8.11135
#
# Compressibility (1/GPa) = 0.01227519
#
# Stress axis : x y z
#
# Youngs Moduli (GPa) = 71.56093 71.55244 129.65326
#
# Poissons Ratio (x) = 0.49773 0.30779
# Poissons Ratio (y) = 0.49779 0.30646
# Poissons Ratio (z) = 0.16988 0.16913
#
# Static dielectric constant tensor:
#      x y z
#    x 1.672810 0.000050 -0.000020 
#    y 0.000050 1.672720 0.000000 
#    z -0.000020 0.000000 1.712530 
# 
# From -- ./inp_files/2252.got.cif
#   From: 2010.05.17/outbox.cif.g08.bks.cpg/sg155_2_cif.got.tgz:2252.got - 2010.05.20 10:44:35.
