data_PCOD9577638
_publ_section_title
;
Structure prediction by ZEFSAII (Michael W. Deem and Ramdas Pophale) SiO2 
 PCOD9577638
Probable space group: P -3 1 M 
;
_chemical_formula_sum "Si O2"
_cell_formula_units_Z 84
_cell_length_a 33.533468
_cell_length_b 33.533468
_cell_length_c 5.359996
_cell_angle_alpha 90.000000
_cell_angle_beta 90.000000
_cell_angle_gamma 120.000000
_cell_volume 5219.778058
_symmetry_space_group_name_H-M "P -3 1 M "
_symmetry_group_IT_number 162
_symmetry_cell_setting 'hexagonal'
loop_
_space_group_symop_operation_xyz
x,y,z
-y,x-y,z
-x+y,-x,z
-y,-x,-z
-x+y,y,-z
x,x-y,-z
-x,-y,-z
y,-x+y,-z
x-y,x,-z
y,x,z
x-y,-y,z
-x,-x+y,z
loop_
_atom_site_type_symbol
_atom_site_label
_atom_site_fract_x
_atom_site_fract_y
_atom_site_fract_z
Si Si1 0.555060 0.802121 0.738862
Si Si2 0.391974 0.089775 0.146583
Si Si3 0.536134 0.338625 0.578208
Si Si4 0.946058 0.325026 0.645895
Si Si5 0.665288 0.419421 0.934339
Si Si6 0.394399 0.906102 0.602189
Si Si7 0.587800 0.533767 0.103125
O O1 0.574724 0.787362 0.500000
O O2 0.584078 0.855982 0.809642
O O3 0.507286 0.795534 0.627692
O O4 0.549453 0.774727 0.000000
O O5 0.362318 0.063753 0.386659
O O6 0.429779 0.072626 0.126982
O O7 0.366412 0.073678 0.884652
O O8 0.567450 0.337634 0.351263
O O9 0.518574 0.372205 0.479434
O O10 0.558548 0.352386 0.852967
O O11 0.918466 0.353262 0.626718
O O12 0.000000 0.360731 0.673743
O O13 0.634035 0.365966 0.000000
O O14 0.717602 0.435203 0.000000
O O15 0.425240 0.936358 0.373714
O O16 0.417155 0.918778 0.872123
O O17 0.561012 0.561012 0.048249
#
# Coordination Sequence:
#
# PCOD9577638 Si02
#       7
#    12  12  12  12  12  12  12
#     4  12  23  33  49  72 104 138 161 181 225 272
#     4  10  18  29  40  63  96 131 159 199 215 258
#     4  12  23  40  60  84 106 127 153 180 221 269
#     4  10  17  28  46  68 100 135 159 190 230 259
#     4  12  27  47  66  84 100 123 153 188 224 269
#     4  10  18  29  47  73 107 127 147 191 214 253
#     4  10  17  28  46  69 104 139 161 188 225 254
#
# _framework density 16.092639999999999
#
# number of rings (size 3 to 8) (size 9 to 14) (size 15 to 20)
#    0.000    1.143    2.857    9.143    4.000    0.000 
#    0.000    1.429    0.000    0.000    0.000    0.000 
#    0.000   66.286    0.000    0.000    0.000    0.000 
#
# Total GULP energy -468765.230596 kJ/mol
# GULP energy per Si atom -5580.538459 kJ/mol
# Density = 1.605601 g / cm^3
# Si number density = 16.092640 Si / 1000 Ang^3
#
#
#
# Elastic Constant Matrix: (Units=GPa)
#
#
# Indices 1 2 3 4 5 6 
#
# 1 20.3770 31.5521 12.6732 -0.0020 -1.3927 0.0000
# 2 31.5521 20.3770 12.6732 0.0020 1.3927 0.0000
# 3 12.6732 12.6732 149.7226 0.0000 0.0000 0.0000
# 4 -0.0020 0.0020 0.0000 -19.6500 0.0000 1.3927
# 5 -1.3927 1.3927 0.0000 0.0000 -19.6500 -0.0020
# 6 0.0000 0.0000 0.0000 1.3927 -0.0020 -5.5876
#
#
#
# Elastic Compliance Matrix: (Units=1/GPa)
#
#
# Indices 1 2 3 4 5 6 
#
# 1 -0.035503 0.055590 -0.001700 0.000009 0.006456 0.000000
# 2 0.055590 -0.035503 -0.001700 -0.000009 -0.006456 0.000000
# 3 -0.001700 -0.001700 0.006967 0.000000 0.000000 0.000000
# 4 0.000009 -0.000009 0.000000 -0.051806 0.000000 -0.012913
# 5 0.006456 -0.006456 0.000000 0.000000 -0.051806 0.000019
# 6 0.000000 0.000000 0.000000 -0.012913 0.000019 -0.182188
#
#
# Mechanical properties :
#
#
# Convention : Reuss Voigt Hill
#
# Bulk Modulus (GPa) = 24.78952 33.80821 29.29886
# Shear Modulus (GPa) = -11.34373 -0.07232 -5.70802
#
# Velocity S-wave (km/s) = -2.65788 -0.21222 -1.88539
# Velocity P-wave (km/s) = 2.45329 4.58193 3.67510
#
# Compressibility (1/GPa) = 0.04033964
#
# Stress axis : x y z
#
# Youngs Moduli (GPa) = -28.16629 -28.16629 143.53682
#
# Poissons Ratio (x) = 1.56577 0.24405
# Poissons Ratio (y) = 1.56577 0.24405
# Poissons Ratio (z) = -0.04789 -0.04789
#
# Static dielectric constant tensor:
#      x y z
#    x 1.235360 0.000000 0.000000 
#    y 0.000000 1.235360 0.000000 
#    z 0.000000 0.000000 1.658880 
# 
# From -- ./inp_files/783.got.cif
#   From: 2010.05.17/outbox.cif.g08.bks.cpg/sg162_1_cif.got.tgz:783.got - 2010.05.20 10:53:12.
