data_PCOD9577538
_publ_section_title
;
Structure prediction by ZEFSAII (Michael W. Deem and Ramdas Pophale) SiO2 
 PCOD9577538
Probable space group: R 3 C
;
_chemical_formula_sum "Si O2"
_cell_formula_units_Z 144
_cell_length_a 21.445435
_cell_length_b 21.445435
_cell_length_c 20.777235
_cell_angle_alpha 90.000000
_cell_angle_beta 90.000000
_cell_angle_gamma 120.000000
_cell_volume 8275.383010
_symmetry_space_group_name_H-M "R 3 C"
_symmetry_group_IT_number 161
_symmetry_cell_setting 'hexagonal'
loop_
_space_group_symop_operation_xyz
x,y,z
-y,x-y,z
-x+y,-x,z
-x+y,y,1/2+z
x,x-y,1/2+z
-y,-x,1/2+z
2/3+x,1/3+y,1/3+z
2/3-y,1/3+x-y,1/3+z
2/3-x+y,1/3-x,1/3+z
2/3-x+y,1/3+y,5/6+z
2/3+x,1/3+x-y,5/6+z
2/3-y,1/3-x,5/6+z
1/3+x,2/3+y,2/3+z
1/3-y,2/3+x-y,2/3+z
1/3-x+y,2/3-x,2/3+z
1/3-x+y,2/3+y,1/6+z
1/3+x,2/3+x-y,1/6+z
1/3-y,2/3-x,1/6+z
loop_
_atom_site_type_symbol
_atom_site_label
_atom_site_fract_x
_atom_site_fract_y
_atom_site_fract_z
Si Si1 0.322683 0.253566 0.067711
Si Si2 0.222984 0.869000 0.095378
Si Si3 0.113206 0.945935 0.868510
Si Si4 0.266982 0.403095 0.402710
Si Si5 0.586899 0.597548 0.310849
Si Si6 0.687316 0.889649 0.283182
Si Si7 0.279269 0.779873 0.010050
Si Si8 0.530554 0.600315 0.642517
O O1 0.307301 0.243377 0.991421
O O2 0.398663 0.323966 0.083609
O O3 0.263066 0.263067 0.105947
O O4 0.333534 0.189261 0.091910
O O5 0.144276 0.810740 0.119984
O O6 0.258587 0.829556 0.055179
O O7 0.206244 0.919419 0.049655
O O8 0.162889 0.925252 0.823381
O O9 0.029236 0.892518 0.854093
O O10 0.136719 0.029236 0.857800
O O11 0.131339 0.935705 0.942443
O O12 0.252753 0.379843 0.328905
O O13 0.269039 0.471034 0.436117
O O14 0.204795 0.333333 0.439280
O O15 0.576710 0.602741 0.387139
O O16 0.657299 0.591969 0.294951
#
# Coordination Sequence:
#
# PCOD9577538 Si02
#       8
#    18  18  18  18  18  18  18  18
#     4  10  20  36  57  86 115 144 186 228 293 347
#     4  10  21  36  57  85 115 147 183 235 284 352
#     4  11  22  38  57  80 112 152 198 238 281 335
#     4   9  19  36  54  82 110 144 183 228 286 332
#     4  10  20  36  57  86 115 144 186 228 293 347
#     4  10  21  36  57  85 115 147 183 235 284 352
#     4  11  22  38  57  80 112 152 198 238 281 335
#     4   9  19  36  54  82 110 144 183 228 286 332
#
# _framework density 17.401007
#
# number of rings (size 3 to 8) (size 9 to 14) (size 15 to 20)
#    0.000    2.000    2.500    1.000    3.500    0.000 
#    0.000    0.000    0.000    0.000    0.000    0.000 
#    0.000    0.000    0.000    0.000    0.000    0.000 
#
# Total GULP energy -267244.218644 kJ/mol
# GULP energy per Si atom -5567.587888 kJ/mol
# Density = 1.736140 g / cm^3
# Si number density = 17.401007 Si / 1000 Ang^3
#
#
#
# Elastic Constant Matrix: (Units=GPa)
#
#
# Indices 1 2 3 4 5 6 
#
# 1 67.8539 38.0474 32.5913 0.2453 0.0000 0.0000
# 2 38.0474 67.8539 32.5913 -0.2453 0.0000 0.0000
# 3 32.5913 32.5913 105.5717 0.0000 0.0000 0.0000
# 4 0.2453 -0.2453 0.0000 24.9616 0.0000 0.0000
# 5 0.0000 0.0000 0.0000 0.0000 24.9616 0.2453
# 6 0.0000 0.0000 0.0000 0.0000 0.2453 14.9033
#
#
#
# Elastic Compliance Matrix: (Units=1/GPa)
#
#
# Indices 1 2 3 4 5 6 
#
# 1 0.022607 -0.010949 -0.003599 -0.000330 0.000000 0.000000
# 2 -0.010949 0.022607 -0.003599 0.000330 0.000000 0.000000
# 3 -0.003599 -0.003599 0.011694 0.000000 0.000000 0.000000
# 4 -0.000330 0.000330 0.000000 0.040068 0.000000 0.000000
# 5 0.000000 0.000000 0.000000 0.000000 0.040068 -0.000660
# 6 0.000000 0.000000 0.000000 0.000000 -0.000660 0.067110
#
#
# Mechanical properties :
#
#
# Convention : Reuss Voigt Hill
#
# Bulk Modulus (GPa) = 48.50986 49.74885 49.12935
# Shear Modulus (GPa) = 20.21688 22.16860 21.19274
#
# Velocity S-wave (km/s) = 3.41225 3.57316 3.49363
# Velocity P-wave (km/s) = 6.59263 6.75833 6.67599
#
# Compressibility (1/GPa) = 0.02061437
#
# Stress axis : x y z
#
# Youngs Moduli (GPa) = 44.23501 44.23501 85.51165
#
# Poissons Ratio (x) = 0.48431 0.30775
# Poissons Ratio (y) = 0.48431 0.30775
# Poissons Ratio (z) = 0.15920 0.15920
#
# Static dielectric constant tensor:
#      x y z
#    x 1.585130 0.000000 0.000000 
#    y 0.000000 1.585130 0.000000 
#    z 0.000000 0.000000 1.650540 
# 
# From -- ./inp_files/1761.got.cif
#   From: 2010.05.17/outbox.cif.g08.bks.cpg/sg161_cif.got.tgz:1761.got - 2010.05.20 10:52:32.
