data_PCOD9577103
_publ_section_title
;
Structure prediction by ZEFSAII (Michael W. Deem and Ramdas Pophale) SiO2 
 PCOD9577103
Probable space group: R 3 2
;
_chemical_formula_sum "Si O2"
_cell_formula_units_Z 72
_cell_length_a 34.514905
_cell_length_b 34.514905
_cell_length_c 5.214904
_cell_angle_alpha 90.000000
_cell_angle_beta 90.000000
_cell_angle_gamma 120.000000
_cell_volume 5380.099584
_symmetry_space_group_name_H-M "R 3 2"
_symmetry_group_IT_number 155
_symmetry_cell_setting 'hexagonal'
loop_
_space_group_symop_operation_xyz
x,y,z
-y,x-y,z
-x+y,-x,z
x-y,-y,-z
-x,-x+y,-z
y,x,-z
2/3+x,1/3+y,1/3+z
2/3-y,1/3+x-y,1/3+z
2/3-x+y,1/3-x,1/3+z
2/3+x-y,1/3-y,1/3-z
2/3-x,1/3-x+y,1/3-z
2/3+y,1/3+x,1/3-z
1/3+x,2/3+y,2/3+z
1/3-y,2/3+x-y,2/3+z
1/3-x+y,2/3-x,2/3+z
1/3+x-y,2/3-y,2/3-z
1/3-x,2/3-x+y,2/3-z
1/3+y,2/3+x,2/3-z
loop_
_atom_site_type_symbol
_atom_site_label
_atom_site_fract_x
_atom_site_fract_y
_atom_site_fract_z
Si Si1 0.584768 0.637104 0.423184
Si Si2 0.082026 0.696322 0.409767
Si Si3 0.827401 0.612606 0.639984
Si Si4 0.172254 0.387436 0.860664
O O1 0.614243 0.614243 0.500000
O O2 0.588016 0.666667 0.666667
O O3 0.533924 0.597268 0.393463
O O4 0.603636 0.666667 0.166667
O O5 0.063528 0.666667 0.666667
O O6 0.052208 0.718875 0.333334
O O7 0.132813 0.736452 0.435997
O O8 0.078716 0.666667 0.166667
O O9 0.851527 0.666667 0.666667
O O10 0.790431 0.596288 0.417450
O O11 0.805510 0.596222 0.917532
O O12 0.147894 0.333334 0.833334
#
# Coordination Sequence:
#
# PCOD9577103 Si02
#       4
#    18  18  18  18
#     4  11  20  29  41  58  79  99 122 157 203 244
#     4  11  20  29  41  58  79  99 122 157 203 244
#     4   9  17  29  42  54  70  96 127 154 184 227
#     4   9  17  29  42  54  70  96 127 154 184 227
#
# _framework density 13.382652
#
# number of rings (size 3 to 8) (size 9 to 14) (size 15 to 20)
#    0.000    2.000    0.000    6.000    0.000    8.000 
#    0.000    0.000    0.000    0.000    0.000    0.000 
#    0.000    0.000    0.000    0.000    0.000    0.000 
#
# Total GULP energy -133837.394435 kJ/mol
# GULP energy per Si atom -5576.558101 kJ/mol
# Density = 1.335219 g / cm^3
# Si number density = 13.382652 Si / 1000 Ang^3
#
#
#
# Elastic Constant Matrix: (Units=GPa)
#
#
# Indices 1 2 3 4 5 6 
#
# 1 45.2515 25.9113 29.3948 -1.4215 -0.5603 0.0554
# 2 25.9113 46.7275 31.4930 0.4181 -0.0041 0.0699
# 3 29.3948 31.4930 107.4372 -1.8713 -0.5541 0.2131
# 4 -1.4215 0.4181 -1.8713 14.2725 -0.1957 -0.0598
# 5 -0.5603 -0.0041 -0.5541 -0.1957 16.1912 0.1268
# 6 0.0554 0.0699 0.2131 -0.0598 0.1268 10.5604
#
#
#
# Elastic Compliance Matrix: (Units=1/GPa)
#
#
# Indices 1 2 3 4 5 6 
#
# 1 0.034379 -0.015947 -0.004669 0.003294 0.001066 0.000025
# 2 -0.015947 0.034114 -0.005699 -0.003346 -0.000778 -0.000037
# 3 -0.004669 -0.005699 0.012280 0.001315 0.000275 -0.000181
# 4 0.003294 -0.003346 0.001315 0.070679 0.001009 0.000366
# 5 0.001066 -0.000778 0.000275 0.001009 0.061826 -0.000743
# 6 0.000025 -0.000037 -0.000181 0.000366 -0.000743 0.094708
#
#
# Mechanical properties :
#
#
# Convention : Reuss Voigt Hill
#
# Bulk Modulus (GPa) = 35.53068 41.44604 38.48836
# Shear Modulus (GPa) = 13.51360 15.71264 14.61312
#
# Velocity S-wave (km/s) = 3.18116 3.43024 3.30804
# Velocity P-wave (km/s) = 6.33249 6.83564 6.58887
#
# Compressibility (1/GPa) = 0.02814469
#
# Stress axis : x y z
#
# Youngs Moduli (GPa) = 29.08720 29.31311 81.43020
#
# Poissons Ratio (x) = 0.46745 0.38019
# Poissons Ratio (y) = 0.46384 0.46408
# Poissons Ratio (z) = 0.13581 0.16706
#
# Static dielectric constant tensor:
#      x y z
#    x 1.442330 0.000590 -0.000540 
#    y 0.000590 1.440370 -0.000260 
#    z -0.000540 -0.000260 1.457000 
# 
# From -- ./inp_files/914.got.cif
#   From: 2010.05.17/outbox.cif.g08.bks.cpg/sg155_1_cif.got.tgz:914.got - 2010.05.20 10:44:35.
