data_PCOD9577990
_publ_section_title
;
Structure prediction by ZEFSAII (Michael W. Deem and Ramdas Pophale) SiO2 
 PCOD9577990
Probable space group: P -3 1 C
;
_chemical_formula_sum "Si O2"
_cell_formula_units_Z 60
_cell_length_a 17.040456
_cell_length_b 17.040456
_cell_length_c 11.390791
_cell_angle_alpha 90.000000
_cell_angle_beta 90.000000
_cell_angle_gamma 120.000000
_cell_volume 2864.487554
_symmetry_space_group_name_H-M "P -3 1 C"
_symmetry_group_IT_number 163
_symmetry_cell_setting 'hexagonal'
loop_
_space_group_symop_operation_xyz
x,y,z
-y,x-y,z
-x+y,-x,z
-y,-x,1/2-z
-x+y,y,1/2-z
x,x-y,1/2-z
-x,-y,-z
y,-x+y,-z
x-y,x,-z
y,x,1/2+z
x-y,-y,1/2+z
-x,-x+y,1/2+z
loop_
_atom_site_type_symbol
_atom_site_label
_atom_site_fract_x
_atom_site_fract_y
_atom_site_fract_z
Si Si1 0.098691 0.346077 0.196560
Si Si2 0.246403 0.465992 0.016349
Si Si3 0.769905 0.670771 0.171013
Si Si4 0.404967 0.930268 0.359173
Si Si5 0.866144 0.363932 0.339356
O O1 0.147926 0.295852 0.250000
O O2 0.174859 0.430824 0.123112
O O3 0.071933 0.389641 0.302228
O O4 0.005314 0.279311 0.135486
O O5 0.351798 0.508224 0.054116
O O6 0.219309 0.374162 0.945486
O O7 0.214365 0.518280 0.928684
O O8 0.860205 0.720410 0.250000
O O9 0.703234 0.586026 0.255340
O O10 0.458702 0.917403 0.250000
O O11 0.466994 0.035362 0.400156
O O12 0.844563 0.422282 0.250000
#
# Coordination Sequence:
#
# PCOD9577990 Si02
#       5
#    12  12  12  12  12
#     4   9  18  32  52  77 102 131 172 219 262 308
#     4  10  18  30  50  74 105 140 175 212 262 316
#     4   9  18  32  52  77 102 131 172 219 262 308
#     4   9  18  32  51  76 104 136 178 224 265 310
#     4   9  18  32  51  76 104 136 178 224 265 310
#
# _framework density 20.946152999999999
#
# number of rings (size 3 to 8) (size 9 to 14) (size 15 to 20)
#    0.000    2.800    0.000    1.200    0.000    3.200 
#    0.000    6.000    0.000   36.400    0.000    1.400 
#    0.000    0.000    0.000    7.000    0.000    3.600 
#
# Total GULP energy -334182.074971 kJ/mol
# GULP energy per Si atom -5569.701250 kJ/mol
# Density = 2.089848 g / cm^3
# Si number density = 20.946153 Si / 1000 Ang^3
#
#
#
# Elastic Constant Matrix: (Units=GPa)
#
#
# Indices 1 2 3 4 5 6 
#
# 1 37.6257 85.0941 21.1140 -0.0002 29.3257 0.0000
# 2 85.0941 37.6257 21.1140 0.0002 -29.3257 0.0000
# 3 21.1140 21.1140 48.3689 0.0000 0.0000 0.0000
# 4 -0.0002 0.0002 0.0000 15.7140 0.0000 -29.3257
# 5 29.3257 -29.3257 0.0000 0.0000 15.7140 -0.0002
# 6 0.0000 0.0000 0.0000 -29.3257 -0.0002 -23.7342
#
#
#
# Elastic Compliance Matrix: (Units=1/GPa)
#
#
# Indices 1 2 3 4 5 6 
#
# 1 0.001608 0.007981 -0.004186 0.000000 0.011892 0.000000
# 2 0.007981 0.001608 -0.004186 0.000000 -0.011892 0.000000
# 3 -0.004186 -0.004186 0.024329 0.000000 0.000000 0.000000
# 4 0.000000 0.000000 0.000000 0.019250 0.000000 -0.023785
# 5 0.011892 -0.011892 0.000000 0.000000 0.019250 0.000000
# 6 0.000000 0.000000 0.000000 -0.023785 0.000000 -0.012745
#
#
# Mechanical properties :
#
#
# Convention : Reuss Voigt Hill
#
# Bulk Modulus (GPa) = 37.36414 42.02936 39.69675
# Shear Modulus (GPa) = 79.36155 1.29197 40.32676
#
# Velocity S-wave (km/s) = 6.16203 0.78622 4.39254
# Velocity P-wave (km/s) = 8.27674 4.57528 6.68721
#
# Compressibility (1/GPa) = 0.02676363
#
# Stress axis : x y z
#
# Youngs Moduli (GPa) = 621.79773 621.79773 41.10363
#
# Poissons Ratio (x) = -4.96240 0.17205
# Poissons Ratio (y) = -4.96240 0.17205
# Poissons Ratio (z) = 2.60270 2.60270
#
# Static dielectric constant tensor:
#      x y z
#    x 1.803000 0.000000 0.000000 
#    y 0.000000 1.803000 0.000000 
#    z 0.000000 0.000000 1.879910 
# 
# From -- ./inp_files/1743.got.cif
#   From: 2010.05.17/outbox.cif.g08.bks.cpg/sg163_1_cif.got.tgz:1743.got - 2010.05.20 10:56:03.
