data_PCOD9577778
_publ_section_title
;
Structure prediction by ZEFSAII (Michael W. Deem and Ramdas Pophale) SiO2 
 PCOD9577778
Probable space group: P -3 1 M 
;
_chemical_formula_sum "Si O2"
_cell_formula_units_Z 60
_cell_length_a 18.062470
_cell_length_b 18.062470
_cell_length_c 12.938915
_cell_angle_alpha 90.000000
_cell_angle_beta 90.000000
_cell_angle_gamma 120.000000
_cell_volume 3655.802867
_symmetry_space_group_name_H-M "P -3 1 M "
_symmetry_group_IT_number 162
_symmetry_cell_setting 'hexagonal'
loop_
_space_group_symop_operation_xyz
x,y,z
-y,x-y,z
-x+y,-x,z
-y,-x,-z
-x+y,y,-z
x,x-y,-z
-x,-y,-z
y,-x+y,-z
x-y,x,-z
y,x,z
x-y,-y,z
-x,-x+y,z
loop_
_atom_site_type_symbol
_atom_site_label
_atom_site_fract_x
_atom_site_fract_y
_atom_site_fract_z
Si Si1 0.333688 0.840408 0.119676
Si Si2 0.506720 0.666312 0.880324
Si Si3 0.103303 0.467901 0.500000
Si Si4 0.266403 0.901567 0.695793
Si Si5 0.901567 0.266403 0.304208
O O1 0.258622 0.741378 0.127909
O O2 0.424941 0.849882 0.144631
O O3 0.308263 0.891453 0.199116
O O4 0.335481 0.866066 0.000000
O O5 0.583190 0.691737 0.800884
O O6 0.137677 0.568839 0.500000
O O7 0.125192 0.432793 0.602242
O O8 0.125192 0.432793 0.397758
O O9 0.000000 0.421462 0.500000
O O10 0.165968 0.834032 0.698512
O O11 0.293537 0.000000 0.680689
O O12 0.000000 0.293537 0.319311
#
# Coordination Sequence:
#
# PCOD9577778 Si02
#       5
#    12  12  12  12  12
#     4   9  17  29  46  69  97 127 156 186 223 270
#     4   9  17  29  46  69  97 127 156 186 223 270
#     4   9  17  30  49  72  96 120 146 177 215 264
#     4  10  20  33  49  69  93 122 157 197 239 279
#     4  10  20  33  49  69  93 122 157 197 239 279
#
# _framework density 16.412264
#
# number of rings (size 3 to 8) (size 9 to 14) (size 15 to 20)
#    0.000    2.600    0.000    2.200    0.000    4.800 
#    0.000    2.000    0.000    6.000    0.000    0.000 
#    0.000    4.800    0.000   10.000    0.000    0.000 
#
# Total GULP energy -334508.787059 kJ/mol
# GULP energy per Si atom -5575.146451 kJ/mol
# Density = 1.637491 g / cm^3
# Si number density = 16.412264 Si / 1000 Ang^3
#
#
#
# Elastic Constant Matrix: (Units=GPa)
#
#
# Indices 1 2 3 4 5 6 
#
# 1 76.8036 57.6848 34.5662 0.0000 0.0000 0.0000
# 2 57.6848 76.8036 34.5662 0.0000 0.0000 0.0000
# 3 34.5662 34.5662 67.2125 0.0000 0.0000 0.0000
# 4 0.0000 0.0000 0.0000 19.9095 0.0000 0.0000
# 5 0.0000 0.0000 0.0000 0.0000 19.9095 0.0000
# 6 0.0000 0.0000 0.0000 0.0000 0.0000 9.5594
#
#
#
# Elastic Compliance Matrix: (Units=1/GPa)
#
#
# Indices 1 2 3 4 5 6 
#
# 1 0.031206 -0.021099 -0.005198 0.000000 0.000000 0.000000
# 2 -0.021099 0.031206 -0.005198 0.000000 0.000000 0.000000
# 3 -0.005198 -0.005198 0.020225 0.000000 0.000000 0.000000
# 4 0.000000 0.000000 0.000000 0.050227 0.000000 0.000000
# 5 0.000000 0.000000 0.000000 0.000000 0.050227 0.000000
# 6 0.000000 0.000000 0.000000 0.000000 0.000000 0.104609
#
#
# Mechanical properties :
#
#
# Convention : Reuss Voigt Hill
#
# Bulk Modulus (GPa) = 50.89725 52.71711 51.80718
# Shear Modulus (GPa) = 13.99619 16.14252 15.06936
#
# Velocity S-wave (km/s) = 2.92342 3.13959 3.03343
# Velocity P-wave (km/s) = 6.51723 6.73297 6.62598
#
# Compressibility (1/GPa) = 0.01964743
#
# Stress axis : x y z
#
# Youngs Moduli (GPa) = 32.04492 32.04492 49.44410
#
# Poissons Ratio (x) = 0.67610 0.25702
# Poissons Ratio (y) = 0.67610 0.25702
# Poissons Ratio (z) = 0.16658 0.16658
#
# Static dielectric constant tensor:
#      x y z
#    x 1.543880 0.000000 0.000000 
#    y 0.000000 1.543880 0.000000 
#    z 0.000000 0.000000 1.566130 
# 
# From -- ./inp_files/2299.got.cif
#   From: 2010.05.17/outbox.cif.g08.bks.cpg/sg162_2_cif.got.tgz:2299.got - 2010.05.20 10:53:12.
