data_PCOD9577696
_publ_section_title
;
Structure prediction by ZEFSAII (Michael W. Deem and Ramdas Pophale) SiO2 
 PCOD9577696
Probable space group: P -3 1 M 
;
_chemical_formula_sum "Si O2"
_cell_formula_units_Z 72
_cell_length_a 24.357051
_cell_length_b 24.357051
_cell_length_c 9.050651
_cell_angle_alpha 90.000000
_cell_angle_beta 90.000000
_cell_angle_gamma 120.000000
_cell_volume 4650.073967
_symmetry_space_group_name_H-M "P -3 1 M "
_symmetry_group_IT_number 162
_symmetry_cell_setting 'hexagonal'
loop_
_space_group_symop_operation_xyz
x,y,z
-y,x-y,z
-x+y,-x,z
-y,-x,-z
-x+y,y,-z
x,x-y,-z
-x,-y,-z
y,-x+y,-z
x-y,x,-z
y,x,z
x-y,-y,z
-x,-x+y,z
loop_
_atom_site_type_symbol
_atom_site_label
_atom_site_fract_x
_atom_site_fract_y
_atom_site_fract_z
Si Si1 0.264012 0.859045 0.443220
Si Si2 0.619000 0.694665 0.129905
Si Si3 0.076315 0.596758 0.421051
Si Si4 0.516524 0.593140 0.922626
Si Si5 0.741724 0.813898 0.435048
Si Si6 0.185424 0.256410 0.921058
O O1 0.211734 0.788267 0.500000
O O2 0.278871 0.876288 0.268499
O O3 0.333330 0.885285 0.511253
O O4 0.232037 0.901397 0.486599
O O5 0.651299 0.651299 0.178058
O O6 0.674977 0.754121 0.044792
O O7 0.561268 0.653762 0.020917
O O8 0.088754 0.544377 0.500000
O O9 0.094006 0.603130 0.248577
O O10 0.000000 0.568453 0.434960
O O11 0.552328 0.552328 0.923782
O O12 0.449340 0.550661 0.000000
O O13 0.764647 0.882324 0.500000
O O14 0.783870 0.783870 0.480385
O O15 0.742806 0.818580 0.257096
O O16 0.203878 0.203878 0.962945
O O17 0.123734 0.247467 0.000000
#
# Coordination Sequence:
#
# PCOD9577696 Si02
#       6
#    12  12  12  12  12  12
#     4  10  19  31  47  69  97 127 156 190 232 278
#     4   9  17  30  46  64  94 129 157 190 231 277
#     4  10  19  31  50  73  96 123 157 195 232 276
#     4   9  17  28  44  69  97 125 155 188 231 276
#     4   9  18  31  47  68  95 125 156 193 236 281
#     4   9  18  31  46  66  91 121 156 193 236 283
#
# _framework density 15.483625
#
# number of rings (size 3 to 8) (size 9 to 14) (size 15 to 20)
#    0.000    2.667    0.000    3.500    0.000    7.333 
#    0.000    1.667    0.000    0.667    0.000    0.000 
#    0.000    0.000    0.000    0.500    0.000    0.333 
#
# Total GULP energy -400860.166749 kJ/mol
# GULP energy per Si atom -5567.502316 kJ/mol
# Density = 1.544838 g / cm^3
# Si number density = 15.483625 Si / 1000 Ang^3
#
#
#
# Elastic Constant Matrix: (Units=GPa)
#
#
# Indices 1 2 3 4 5 6 
#
# 1 112.3739 68.9713 51.6829 0.0000 -1.1168 0.0000
# 2 68.9713 112.3739 51.6829 0.0000 1.1168 0.0000
# 3 51.6829 51.6829 63.1859 0.0000 0.0000 0.0000
# 4 0.0000 0.0000 0.0000 25.7195 0.0000 1.1168
# 5 -1.1168 1.1168 0.0000 0.0000 25.7195 0.0000
# 6 0.0000 0.0000 0.0000 1.1168 0.0000 21.7013
#
#
#
# Elastic Compliance Matrix: (Units=1/GPa)
#
#
# Indices 1 2 3 4 5 6 
#
# 1 0.016711 -0.006380 -0.008450 0.000000 0.001003 0.000000
# 2 -0.006380 0.016711 -0.008450 0.000000 -0.001003 0.000000
# 3 -0.008450 -0.008450 0.029650 0.000000 0.000000 0.000000
# 4 0.000000 0.000000 0.000000 0.038968 0.000000 -0.002005
# 5 0.001003 -0.001003 0.000000 0.000000 0.038968 0.000000
# 6 0.000000 0.000000 0.000000 -0.002005 0.000000 0.046183
#
#
# Mechanical properties :
#
#
# Convention : Reuss Voigt Hill
#
# Bulk Modulus (GPa) = 60.56534 70.28975 65.42755
# Shear Modulus (GPa) = 20.89803 22.33450 21.61626
#
# Velocity S-wave (km/s) = 3.67779 3.80209 3.74046
# Velocity P-wave (km/s) = 7.56542 8.04794 7.81040
#
# Compressibility (1/GPa) = 0.01651109
#
# Stress axis : x y z
#
# Youngs Moduli (GPa) = 59.83986 59.83986 33.72697
#
# Poissons Ratio (x) = 0.38180 0.28500
# Poissons Ratio (y) = 0.38180 0.28500
# Poissons Ratio (z) = 0.50565 0.50565
#
# Static dielectric constant tensor:
#      x y z
#    x 1.510590 0.000000 0.000000 
#    y 0.000000 1.510590 0.000000 
#    z 0.000000 0.000000 1.544040 
# 
# From -- ./inp_files/1760.got.cif
#   From: 2010.05.17/outbox.cif.g08.bks.cpg/sg162_1_cif.got.tgz:1760.got - 2010.05.20 10:53:12.
