data_PCOD9577153
_publ_section_title
;
Structure prediction by ZEFSAII (Michael W. Deem and Ramdas Pophale) SiO2 
 PCOD9577153
Probable space group: R 3 2
;
_chemical_formula_sum "Si O2"
_cell_formula_units_Z 75
_cell_length_a 14.202033
_cell_length_b 14.202033
_cell_length_c 20.662689
_cell_angle_alpha 90.000000
_cell_angle_beta 90.000000
_cell_angle_gamma 120.000000
_cell_volume 3609.262802
_symmetry_space_group_name_H-M "R 3 2"
_symmetry_group_IT_number 155
_symmetry_cell_setting 'hexagonal'
loop_
_space_group_symop_operation_xyz
x,y,z
-y,x-y,z
-x+y,-x,z
x-y,-y,-z
-x,-x+y,-z
y,x,-z
2/3+x,1/3+y,1/3+z
2/3-y,1/3+x-y,1/3+z
2/3-x+y,1/3-x,1/3+z
2/3+x-y,1/3-y,1/3-z
2/3-x,1/3-x+y,1/3-z
2/3+y,1/3+x,1/3-z
1/3+x,2/3+y,2/3+z
1/3-y,2/3+x-y,2/3+z
1/3-x+y,2/3-x,2/3+z
1/3+x-y,2/3-y,2/3-z
1/3-x,2/3-x+y,2/3-z
1/3+y,2/3+x,2/3-z
loop_
_atom_site_type_symbol
_atom_site_label
_atom_site_fract_x
_atom_site_fract_y
_atom_site_fract_z
Si Si1 0.901108 0.386343 0.216943
Si Si2 0.859935 0.666667 0.666667
Si Si3 0.666667 0.333334 0.757386
Si Si4 0.428093 0.252121 0.952248
Si Si5 0.333334 0.666667 0.590527
Si Si6 0.082020 0.448032 0.404522
O O1 0.790251 0.382097 0.235328
O O2 0.877019 0.332413 0.145300
O O3 0.001978 0.505115 0.235454
O O4 0.933146 0.310694 0.258775
O O5 0.892631 0.596685 0.712557
O O6 0.747856 0.587465 0.630605
O O7 0.666668 0.333334 0.833334
O O8 0.610161 0.400468 0.734751
O O9 0.413774 0.207430 0.026518
O O10 0.333334 0.666668 0.666667
#
# Coordination Sequence:
#
# PCOD9577153 Si02
#       6
#    18   9   6  18   6  18
#     4  11  27  44  73  99 145 183 242 282 359 421
#     4  12  26  42  78 100 140 182 236 294 364 420
#     4  12  27  43  74 106 138 180 235 293 358 429
#     4  12  25  46  72 101 144 183 231 295 359 421
#     4  12  27  46  71 103 138 195 238 299 346 429
#     4  11  24  49  68 103 143 186 226 303 350 419
#
# _framework density 20.779865000000001
#
# number of rings (size 3 to 8) (size 9 to 14) (size 15 to 20)
#    0.000    0.480    4.800    1.440   15.120    0.000 
#    0.000    0.000    0.000    0.000    0.000    0.000 
#    0.000    0.000    0.000    0.000    0.000    0.000 
#
# Total GULP energy -139440.863804 kJ/mol
# GULP energy per Si atom -5577.634552 kJ/mol
# Density = 2.073257 g / cm^3
# Si number density = 20.779865 Si / 1000 Ang^3
#
#
#
# Elastic Constant Matrix: (Units=GPa)
#
#
# Indices 1 2 3 4 5 6 
#
# 1 55.3032 55.6592 -5.4631 -11.5921 0.0120 -0.0003
# 2 55.6592 55.3029 -5.4660 11.5918 -0.0134 -0.0013
# 3 -5.4631 -5.4660 68.5688 0.0009 -0.0004 -0.0005
# 4 -11.5921 11.5918 0.0009 7.8080 -0.0008 -0.0131
# 5 0.0120 -0.0134 -0.0004 -0.0008 7.8399 -11.5569
# 6 -0.0003 -0.0013 -0.0005 -0.0131 -11.5569 -0.1390
#
#
#
# Elastic Compliance Matrix: (Units=1/GPa)
#
#
# Indices 1 2 3 4 5 6 
#
# 1 -0.009836 0.018920 0.000725 -0.042691 0.000046 0.000002
# 2 0.018920 -0.009836 0.000723 0.042692 -0.000048 -0.000004
# 3 0.000725 0.000723 0.014699 0.000002 -0.000001 -0.000001
# 4 -0.042691 0.042692 0.000002 0.001312 -0.000004 -0.000096
# 5 0.000046 -0.000048 -0.000001 -0.000004 0.001032 -0.085828
# 6 0.000002 -0.000004 -0.000001 -0.000096 -0.085828 -0.058223
#
#
# Mechanical properties :
#
#
# Convention : Reuss Voigt Hill
#
# Bulk Modulus (GPa) = 27.96296 29.84834 28.90565
# Shear Modulus (GPa) = -55.76247 12.06475 -21.84886
#
# Velocity S-wave (km/s) = -5.18586 2.41217 -3.24612
# Velocity P-wave (km/s) = 4.72985 4.70674 0.33026
#
# Compressibility (1/GPa) = 0.03576159
#
# Stress axis : x y z
#
# Youngs Moduli (GPa) = -101.66609 -101.66523 68.03061
#
# Poissons Ratio (x) = 1.92346 -0.04933
# Poissons Ratio (y) = 1.92348 -0.04917
# Poissons Ratio (z) = 0.07371 0.07348
#
# Static dielectric constant tensor:
#      x y z
#    x 1.899350 -0.000010 0.000020 
#    y -0.000010 1.899060 -0.000020 
#    z 0.000020 -0.000020 1.905600 
# 
# From -- ./inp_files/6848.got.cif
#   From: 2010.05.17/outbox.cif.g08.bks.cpg/sg155_4_cif.got.tgz:6848.got - 2010.05.20 10:44:35.
