data_PCOD9577007
_publ_section_title
;
Structure prediction by ZEFSAII (Michael W. Deem and Ramdas Pophale) SiO2 
 PCOD9577007
Probable space group: R 3 2
;
_chemical_formula_sum "Si O2"
_cell_formula_units_Z 144
_cell_length_a 31.318052
_cell_length_b 31.318052
_cell_length_c 9.070608
_cell_angle_alpha 90.000000
_cell_angle_beta 90.000000
_cell_angle_gamma 120.000000
_cell_volume 7704.713819
_symmetry_space_group_name_H-M "R 3 2"
_symmetry_group_IT_number 155
_symmetry_cell_setting 'hexagonal'
loop_
_space_group_symop_operation_xyz
x,y,z
-y,x-y,z
-x+y,-x,z
x-y,-y,-z
-x,-x+y,-z
y,x,-z
2/3+x,1/3+y,1/3+z
2/3-y,1/3+x-y,1/3+z
2/3-x+y,1/3-x,1/3+z
2/3+x-y,1/3-y,1/3-z
2/3-x,1/3-x+y,1/3-z
2/3+y,1/3+x,1/3-z
1/3+x,2/3+y,2/3+z
1/3-y,2/3+x-y,2/3+z
1/3-x+y,2/3-x,2/3+z
1/3+x-y,2/3-y,2/3-z
1/3-x,2/3-x+y,2/3-z
1/3+y,2/3+x,2/3-z
loop_
_atom_site_type_symbol
_atom_site_label
_atom_site_fract_x
_atom_site_fract_y
_atom_site_fract_z
Si Si1 0.626537 0.811753 0.213047
Si Si2 0.231900 0.950659 0.906968
Si Si3 0.286192 0.746405 0.072675
Si Si4 0.047004 0.854050 0.407923
Si Si5 0.281055 0.562993 0.738518
Si Si6 0.948713 0.802952 0.941621
Si Si7 0.957554 0.183401 0.386954
Si Si8 0.300465 0.155236 0.019969
O O1 0.666667 0.816540 0.333334
O O2 0.580783 0.818891 0.254578
O O3 0.599766 0.760157 0.126521
O O4 0.662523 0.853521 0.102268
O O5 0.269121 0.935788 0.833334
O O6 0.205085 0.961067 0.773023
O O7 0.190414 0.901626 0.991312
O O8 0.260116 0.000000 0.000000
O O9 0.333334 0.754944 0.166667
O O10 0.237543 0.723775 0.175277
O O11 0.293663 0.800372 0.036637
O O12 0.282208 0.720017 0.916821
O O13 0.041917 0.857748 0.232479
O O14 0.000000 0.812790 0.500000
O O15 0.333334 0.602210 0.666667
O O16 0.240859 0.574192 0.666667
O O17 0.272765 0.510570 0.684873
O O18 0.904140 0.750739 0.993163
O O19 0.000000 0.810267 0.000000
O O20 0.000000 0.217882 0.500000
O O21 0.333334 0.176006 0.166667
#
# Coordination Sequence:
#
# PCOD9577007 Si02
#       8
#    18  18  18  18  18  18  18  18
#     4  11  22  41  64  91 121 165 209 257 305 371
#     4  11  24  39  55  85 122 167 213 257 308 358
#     4  10  22  39  61  91 125 161 206 255 309 362
#     4  11  23  39  63  94 128 160 205 256 309 367
#     4  11  23  40  63  90 126 164 206 251 306 365
#     4  11  24  40  65  96 122 161 205 251 311 370
#     4  10  22  37  59  86 120 162 207 260 308 352
#     4  11  23  42  65  90 125 161 211 253 311 368
#
# _framework density 18.689857
#
# number of rings (size 3 to 8) (size 9 to 14) (size 15 to 20)
#    0.000    1.250    3.750    3.125    5.250    3.500 
#    0.000    0.000    0.000    1.750    0.000    0.000 
#    0.000    0.000    0.000    0.000    0.000    0.000 
#
# Total GULP energy -267674.278762 kJ/mol
# GULP energy per Si atom -5576.547474 kJ/mol
# Density = 1.864732 g / cm^3
# Si number density = 18.689857 Si / 1000 Ang^3
#
#
#
# Elastic Constant Matrix: (Units=GPa)
#
#
# Indices 1 2 3 4 5 6 
#
# 1 77.3714 52.4156 44.0170 2.5798 0.0138 0.0137
# 2 52.4156 77.3430 43.8453 -2.6035 -0.0363 -0.0265
# 3 44.0170 43.8453 130.6278 -0.0716 -0.1031 -0.0157
# 4 2.5798 -2.6035 -0.0716 29.2715 -0.0664 0.0014
# 5 0.0138 -0.0363 -0.1031 -0.0664 29.3065 2.4961
# 6 0.0137 -0.0265 -0.0157 0.0014 2.4961 12.5358
#
#
#
# Elastic Compliance Matrix: (Units=1/GPa)
#
#
# Indices 1 2 3 4 5 6 
#
# 1 0.025430 -0.015434 -0.003391 -0.003622 -0.000047 -0.000055
# 2 -0.015434 0.025393 -0.003320 0.003611 0.000030 0.000060
# 3 -0.003391 -0.003320 0.009912 0.000028 0.000032 0.000003
# 4 -0.003622 0.003611 0.000028 0.034804 0.000086 -0.000009
# 5 -0.000047 0.000030 0.000032 0.000086 0.034711 -0.006911
# 6 -0.000055 0.000060 0.000003 -0.000009 -0.006911 0.081148
#
#
# Mechanical properties :
#
#
# Convention : Reuss Voigt Hill
#
# Bulk Modulus (GPa) = 60.80722 62.87756 61.84239
# Shear Modulus (GPa) = 19.14454 23.89370 21.51912
#
# Velocity S-wave (km/s) = 3.20398 3.57939 3.39688
# Velocity P-wave (km/s) = 6.80389 7.12730 6.96747
#
# Compressibility (1/GPa) = 0.01644542
#
# Stress axis : x y z
#
# Youngs Moduli (GPa) = 39.32313 39.38089 100.88330
#
# Poissons Ratio (x) = 0.60781 0.34207
# Poissons Ratio (y) = 0.60691 0.33498
# Poissons Ratio (z) = 0.13333 0.13076
#
# Static dielectric constant tensor:
#      x y z
#    x 1.652090 0.000080 -0.000110 
#    y 0.000080 1.651530 -0.000340 
#    z -0.000110 -0.000340 1.717860 
# 
# From -- ./inp_files/3071.got.cif
#   From: 2010.05.17/outbox.cif.g08.bks.cpg/sg155_2_cif.got.tgz:3071.got - 2010.05.20 10:44:35.
