data_PCOD9577907
_publ_section_title
;
Structure prediction by ZEFSAII (Michael W. Deem and Ramdas Pophale) SiO2 
 PCOD9577907
Probable space group: P -3 1 M 
;
_chemical_formula_sum "Si O2"
_cell_formula_units_Z 72
_cell_length_a 14.338104
_cell_length_b 14.338104
_cell_length_c 19.766665
_cell_angle_alpha 90.000000
_cell_angle_beta 90.000000
_cell_angle_gamma 120.000000
_cell_volume 3519.228662
_symmetry_space_group_name_H-M "P -3 1 M "
_symmetry_group_IT_number 162
_symmetry_cell_setting 'hexagonal'
loop_
_space_group_symop_operation_xyz
x,y,z
-y,x-y,z
-x+y,-x,z
-y,-x,-z
-x+y,y,-z
x,x-y,-z
-x,-y,-z
y,-x+y,-z
x-y,x,-z
y,x,z
x-y,-y,z
-x,-x+y,z
loop_
_atom_site_type_symbol
_atom_site_label
_atom_site_fract_x
_atom_site_fract_y
_atom_site_fract_z
Si Si1 0.876229 0.559816 0.312259
Si Si2 0.455529 0.579185 0.928314
Si Si3 0.411430 0.536599 0.789149
Si Si4 0.460984 0.130398 0.532234
Si Si5 0.201672 0.882267 0.226415
Si Si6 0.878375 0.200390 0.923054
O O1 0.823391 0.460534 0.260176
O O2 0.837187 0.529192 0.388429
O O3 0.874734 0.659604 0.275442
O O4 0.000000 0.591476 0.318531
O O5 0.478464 0.478464 0.934706
O O6 0.382736 0.558425 0.863441
O O7 0.567316 0.687000 0.916084
O O8 0.411604 0.588397 0.000000
O O9 0.505559 0.505559 0.801810
O O10 0.312678 0.430386 0.760587
O O11 0.572810 0.145620 0.500000
O O12 0.430468 0.215234 0.500000
O O13 0.375019 0.000000 0.525431
O O14 0.178680 0.864221 0.145556
O O15 0.221906 0.000000 0.243689
O O16 0.000000 0.224847 0.919580
O O17 0.838774 0.161227 0.000000
#
# Coordination Sequence:
#
# PCOD9577907 Si02
#       6
#    12  12  12  12  12  12
#     4  10  21  40  62  87 123 162 200 247 300 361
#     4   9  16  29  50  71  99 142 188 238 296 354
#     4   9  18  34  53  78 110 145 189 238 291 347
#     4  10  23  42  67  99 136 175 216 263 324 396
#     4  11  22  36  59  88 118 160 208 250 303 372
#     4  11  21  35  55  79 112 156 205 259 316 370
#
# _framework density 20.459028
#
# number of rings (size 3 to 8) (size 9 to 14) (size 15 to 20)
#    0.000    2.000    1.667    2.167    2.333    3.333 
#    1.000    0.000    0.000    7.833    0.000    0.000 
#    0.000    0.000    0.000    0.000    0.000    0.000 
#
# Total GULP energy -400957.883462 kJ/mol
# GULP energy per Si atom -5568.859493 kJ/mol
# Density = 2.041246 g / cm^3
# Si number density = 20.459028 Si / 1000 Ang^3
#
#
#
# Elastic Constant Matrix: (Units=GPa)
#
#
# Indices 1 2 3 4 5 6 
#
# 1 59.4827 11.4375 16.0702 0.0000 3.1035 0.0000
# 2 11.4375 59.4827 16.0702 0.0000 -3.1035 0.0000
# 3 16.0702 16.0702 132.8355 0.0000 0.0000 0.0000
# 4 0.0000 0.0000 0.0000 21.5567 0.0000 -3.1035
# 5 3.1035 -3.1035 0.0000 0.0000 21.5567 0.0000
# 6 0.0000 0.0000 0.0000 -3.1035 0.0000 24.0226
#
#
#
# Elastic Compliance Matrix: (Units=1/GPa)
#
#
# Indices 1 2 3 4 5 6 
#
# 1 0.018063 -0.003145 -0.001805 0.000000 -0.003053 0.000000
# 2 -0.003145 0.018063 -0.001805 0.000000 0.003053 0.000000
# 3 -0.001805 -0.001805 0.007965 0.000000 0.000000 0.000000
# 4 0.000000 0.000000 0.000000 0.047269 0.000000 0.006107
# 5 -0.003053 0.003053 0.000000 0.000000 0.047269 0.000000
# 6 0.000000 0.000000 0.000000 0.006107 0.000000 0.042416
#
#
# Mechanical properties :
#
#
# Convention : Reuss Voigt Hill
#
# Bulk Modulus (GPa) = 32.69879 37.66185 35.18032
# Shear Modulus (GPa) = 24.42029 27.30873 25.86451
#
# Velocity S-wave (km/s) = 3.45863 3.65746 3.55943
# Velocity P-wave (km/s) = 5.65391 6.02365 5.84171
#
# Compressibility (1/GPa) = 0.03058217
#
# Stress axis : x y z
#
# Youngs Moduli (GPa) = 55.36112 55.36112 125.55261
#
# Poissons Ratio (x) = 0.17411 0.22659
# Poissons Ratio (y) = 0.17411 0.22659
# Poissons Ratio (z) = 0.09991 0.09991
#
# Static dielectric constant tensor:
#      x y z
#    x 1.760360 0.000000 0.000000 
#    y 0.000000 1.760360 0.000000 
#    z 0.000000 0.000000 1.897880 
# 
# From -- ./inp_files/3501.got.cif
#   From: 2010.05.17/outbox.cif.g08.bks.cpg/sg162_2_cif.got.tgz:3501.got - 2010.05.20 10:53:12.
