data_PCOD9577918
_publ_section_title
;
Structure prediction by ZEFSAII (Michael W. Deem and Ramdas Pophale) SiO2 
 PCOD9577918
Probable space group: P -3 1 M 
;
_chemical_formula_sum "Si O2"
_cell_formula_units_Z 66
_cell_length_a 22.882996
_cell_length_b 22.882996
_cell_length_c 7.500206
_cell_angle_alpha 90.000000
_cell_angle_beta 90.000000
_cell_angle_gamma 120.000000
_cell_volume 3401.179814
_symmetry_space_group_name_H-M "P -3 1 M "
_symmetry_group_IT_number 162
_symmetry_cell_setting 'hexagonal'
loop_
_space_group_symop_operation_xyz
x,y,z
-y,x-y,z
-x+y,-x,z
-y,-x,-z
-x+y,y,-z
x,x-y,-z
-x,-y,-z
y,-x+y,-z
x-y,x,-z
y,x,z
x-y,-y,z
-x,-x+y,z
loop_
_atom_site_type_symbol
_atom_site_label
_atom_site_fract_x
_atom_site_fract_y
_atom_site_fract_z
Si Si1 0.465764 0.665881 0.712872
Si Si2 0.245070 0.245070 0.217548
Si Si3 0.000000 0.141411 0.500000
Si Si4 0.386647 0.127552 0.213333
Si Si5 0.740905 0.613353 0.786667
Si Si6 0.000000 0.754930 0.782452
Si Si7 0.334119 0.799883 0.287128
O O1 0.540350 0.677578 0.745245
O O2 0.458265 0.665962 0.500000
O O3 0.463122 0.731561 0.782932
O O4 0.403584 0.596416 0.781849
O O5 0.184918 0.184918 0.327968
O O6 0.316994 0.253154 0.269324
O O7 0.235636 0.235636 1.000000
O O8 0.067986 0.135972 0.500000
O O9 0.000000 0.184918 0.327968
O O10 0.388889 0.194444 0.286240
O O11 0.459650 0.137228 0.254756
O O12 0.316994 0.063840 0.269325
O O13 0.382944 0.128235 0.000000
#
# Coordination Sequence:
#
# PCOD9577918 Si02
#       7
#    12   6   6  12  12   6  12
#     4   9  17  29  47  72 105 145 189 238 292 345
#     4  10  22  41  64  90 121 156 193 233 280 337
#     4  12  27  44  68  98 127 156 188 226 274 332
#     4   9  18  33  53  77 105 140 186 236 282 334
#     4   9  18  33  53  77 105 140 186 236 282 334
#     4  10  22  41  64  90 121 156 193 233 280 337
#     4   9  17  29  47  72 105 145 189 238 292 345
#
# _framework density 19.405031999999999
#
# number of rings (size 3 to 8) (size 9 to 14) (size 15 to 20)
#    0.000    2.545    0.000    1.545    2.545    4.364 
#    0.000    0.909    0.000    8.727    0.000    0.000 
#    0.000    0.000    0.000    0.000    0.000    0.000 
#
# Total GULP energy -367813.528263 kJ/mol
# GULP energy per Si atom -5572.932246 kJ/mol
# Density = 1.936087 g / cm^3
# Si number density = 19.405032 Si / 1000 Ang^3
#
#
#
# Elastic Constant Matrix: (Units=GPa)
#
#
# Indices 1 2 3 4 5 6 
#
# 1 152.9220 90.9439 26.0963 0.0000 0.0000 0.0000
# 2 90.9439 152.9220 26.0963 0.0000 0.0000 0.0000
# 3 26.0963 26.0963 71.3167 0.0000 0.0000 0.0000
# 4 0.0000 0.0000 0.0000 13.1732 0.0000 0.0000
# 5 0.0000 0.0000 0.0000 0.0000 13.1732 0.0000
# 6 0.0000 0.0000 0.0000 0.0000 0.0000 30.9890
#
#
#
# Elastic Compliance Matrix: (Units=1/GPa)
#
#
# Indices 1 2 3 4 5 6 
#
# 1 0.010292 -0.005843 -0.001628 0.000000 0.000000 0.000000
# 2 -0.005843 0.010292 -0.001628 0.000000 0.000000 0.000000
# 3 -0.001628 -0.001628 0.015213 0.000000 0.000000 0.000000
# 4 0.000000 0.000000 0.000000 0.075912 0.000000 0.000000
# 5 0.000000 0.000000 0.000000 0.000000 0.075912 0.000000
# 6 0.000000 0.000000 0.000000 0.000000 0.000000 0.032269
#
#
# Mechanical properties :
#
#
# Convention : Reuss Voigt Hill
#
# Bulk Modulus (GPa) = 56.81982 73.71484 65.26733
# Shear Modulus (GPa) = 20.49566 27.06871 23.78218
#
# Velocity S-wave (km/s) = 3.25345 3.73893 3.50461
# Velocity P-wave (km/s) = 6.59226 7.53057 7.07698
#
# Compressibility (1/GPa) = 0.01759949
#
# Stress axis : x y z
#
# Youngs Moduli (GPa) = 97.16389 97.16389 65.73152
#
# Poissons Ratio (x) = 0.56771 0.10701
# Poissons Ratio (y) = 0.56771 0.10701
# Poissons Ratio (z) = 0.15818 0.15818
#
# Static dielectric constant tensor:
#      x y z
#    x 1.690090 0.000000 0.000000 
#    y 0.000000 1.690090 0.000000 
#    z 0.000000 0.000000 1.723840 
# 
# From -- ./inp_files/1633.got.cif
#   From: 2010.05.17/outbox.cif.g08.bks.cpg/sg162_1_cif.got.tgz:1633.got - 2010.05.20 10:53:12.
