data_PCOD9577078
_publ_section_title
;
Structure prediction by ZEFSAII (Michael W. Deem and Ramdas Pophale) SiO2 
 PCOD9577078
Probable space group: R 3 2
;
_chemical_formula_sum "Si O2"
_cell_formula_units_Z 75
_cell_length_a 11.775114
_cell_length_b 11.775114
_cell_length_c 28.201132
_cell_angle_alpha 90.000000
_cell_angle_beta 90.000000
_cell_angle_gamma 120.000000
_cell_volume 3386.315464
_symmetry_space_group_name_H-M "R 3 2"
_symmetry_group_IT_number 155
_symmetry_cell_setting 'hexagonal'
loop_
_space_group_symop_operation_xyz
x,y,z
-y,x-y,z
-x+y,-x,z
x-y,-y,-z
-x,-x+y,-z
y,x,-z
2/3+x,1/3+y,1/3+z
2/3-y,1/3+x-y,1/3+z
2/3-x+y,1/3-x,1/3+z
2/3+x-y,1/3-y,1/3-z
2/3-x,1/3-x+y,1/3-z
2/3+y,1/3+x,1/3-z
1/3+x,2/3+y,2/3+z
1/3-y,2/3+x-y,2/3+z
1/3-x+y,2/3-x,2/3+z
1/3+x-y,2/3-y,2/3-z
1/3-x,2/3-x+y,2/3-z
1/3+y,2/3+x,2/3-z
loop_
_atom_site_type_symbol
_atom_site_label
_atom_site_fract_x
_atom_site_fract_y
_atom_site_fract_z
Si Si1 0.767055 0.601459 0.591836
Si Si2 0.000000 0.000000 0.294027
Si Si3 0.333334 0.666668 0.074383
Si Si4 0.339602 0.339602 0.000000
Si Si5 0.754864 0.506076 0.489331
Si Si6 0.872927 0.169161 0.403600
O O1 0.658689 0.455374 0.606948
O O2 0.792216 0.593338 0.536417
O O3 0.723299 0.706423 0.603086
O O4 0.890436 0.628992 0.623960
O O5 0.000000 0.000000 0.350243
O O6 0.239308 0.723638 0.087737
O O7 0.210639 0.331284 0.022365
O O8 0.596964 0.405016 0.489799
O O9 0.799622 0.595811 0.443367
#
# Coordination Sequence:
#
# PCOD9577078 Si02
#       6
#    18   6   6   9  18  18
#     4  12  23  48  82 106 153 202 262 328 372 478
#     4  12  21  45  84 118 136 205 286 300 372 478
#     4  12  24  51  70 112 162 195 280 313 396 454
#     4  12  28  46  78 118 160 204 260 328 392 470
#     4  10  25  53  75 109 154 204 264 321 388 480
#     4  12  26  50  75 119 158 204 260 334 394 463
#
# _framework density 22.147967000000001
#
# number of rings (size 3 to 8) (size 9 to 14) (size 15 to 20)
#    0.480    0.000    7.200    0.720    0.000    2.880 
#   12.960    0.000    0.000    0.000    0.000    0.000 
#    0.000    0.000    0.000    0.000    0.000    0.000 
#
# Total GULP energy -139842.360761 kJ/mol
# GULP energy per Si atom -5593.694430 kJ/mol
# Density = 2.209756 g / cm^3
# Si number density = 22.147967 Si / 1000 Ang^3
#
#
#
# Elastic Constant Matrix: (Units=GPa)
#
#
# Indices 1 2 3 4 5 6 
#
# 1 116.9496 49.4224 71.1190 6.2613 0.0000 0.0000
# 2 49.4224 116.9489 71.1192 -6.2609 0.0000 0.0000
# 3 71.1190 71.1192 150.7337 -0.0002 0.0000 0.0000
# 4 6.2613 -6.2609 -0.0002 42.8395 0.0000 0.0000
# 5 0.0000 0.0000 0.0000 0.0000 42.8395 6.2611
# 6 0.0000 0.0000 0.0000 0.0000 6.2611 33.7636
#
#
#
# Elastic Compliance Matrix: (Units=1/GPa)
#
#
# Indices 1 2 3 4 5 6 
#
# 1 0.012648 -0.002574 -0.004753 -0.002225 0.000000 0.000000
# 2 -0.002574 0.012648 -0.004753 0.002225 0.000000 0.000000
# 3 -0.004753 -0.004753 0.011120 0.000000 0.000000 0.000000
# 4 -0.002225 0.002225 0.000000 0.023993 0.000000 0.000000
# 5 0.000000 0.000000 0.000000 0.000000 0.023993 -0.004449
# 6 0.000000 0.000000 0.000000 0.000000 -0.004449 0.030443
#
#
# Mechanical properties :
#
#
# Convention : Reuss Voigt Hill
#
# Bulk Modulus (GPa) = 81.59766 85.32815 83.46291
# Shear Modulus (GPa) = 34.94299 36.75328 35.84814
#
# Velocity S-wave (km/s) = 3.97634 4.07805 4.02752
# Velocity P-wave (km/s) = 7.61602 7.79641 7.70674
#
# Compressibility (1/GPa) = 0.01225525
#
# Stress axis : x y z
#
# Youngs Moduli (GPa) = 79.06449 79.06381 89.93099
#
# Poissons Ratio (x) = 0.20347 0.42747
# Poissons Ratio (y) = 0.20347 0.42747
# Poissons Ratio (z) = 0.37582 0.37582
#
# Static dielectric constant tensor:
#      x y z
#    x 1.878510 0.000000 0.000000 
#    y 0.000000 1.878510 0.000000 
#    z 0.000000 0.000000 1.772730 
# 
# From -- ./inp_files/8326.got.cif
#   From: 2010.05.17/outbox.cif.g08.bks.cpg/sg155_5_cif.got.tgz:8326.got - 2010.05.20 10:44:35.
