data_PCOD9577682
_publ_section_title
;
Structure prediction by ZEFSAII (Michael W. Deem and Ramdas Pophale) SiO2 
 PCOD9577682
Probable space group: P -3 1 M 
;
_chemical_formula_sum "Si O2"
_cell_formula_units_Z 84
_cell_length_a 18.890399
_cell_length_b 18.890399
_cell_length_c 17.437672
_cell_angle_alpha 90.000000
_cell_angle_beta 90.000000
_cell_angle_gamma 120.000000
_cell_volume 5388.915805
_symmetry_space_group_name_H-M "P -3 1 M "
_symmetry_group_IT_number 162
_symmetry_cell_setting 'hexagonal'
loop_
_space_group_symop_operation_xyz
x,y,z
-y,x-y,z
-x+y,-x,z
-y,-x,-z
-x+y,y,-z
x,x-y,-z
-x,-y,-z
y,-x+y,-z
x-y,x,-z
y,x,z
x-y,-y,z
-x,-x+y,z
loop_
_atom_site_type_symbol
_atom_site_label
_atom_site_fract_x
_atom_site_fract_y
_atom_site_fract_z
Si Si1 0.902737 0.532026 0.362910
Si Si2 0.097616 0.358286 0.500000
Si Si3 0.253654 0.345708 0.909235
Si Si4 0.502054 0.168824 0.805066
Si Si5 0.345708 0.092054 0.909235
Si Si6 0.168825 0.502054 0.194934
Si Si7 0.532026 0.902737 0.637090
O O1 0.886759 0.583189 0.426626
O O2 0.856594 0.522026 0.283374
O O3 0.883210 0.441605 0.389374
O O4 0.000000 0.582047 0.347400
O O5 0.164226 0.328452 0.500000
O O6 0.113240 0.416811 0.426625
O O7 0.000000 0.290273 0.500000
O O8 0.276311 0.276311 0.892625
O O9 0.160661 0.321321 0.892157
O O10 0.310576 0.425429 0.859465
O O11 0.267320 0.364918 0.000000
O O12 0.425429 0.114853 0.859464
O O13 0.524247 0.262124 0.815442
O O14 0.578812 0.157624 0.822623
O O15 0.276311 0.000000 0.892625
O O16 0.143406 0.477974 0.283374
O O17 0.582047 0.000000 0.652600
#
# Coordination Sequence:
#
# PCOD9577682 Si02
#       7
#    12  12  12  12  12  12  12
#     4   9  17  29  46  67  89 114 145 182 223 265
#     4  10  19  31  47  66  89 117 150 186 223 265
#     4   9  18  32  49  68  89 114 145 182 224 268
#     4  10  19  30  44  64  92 124 156 187 218 252
#     4   9  18  32  49  68  89 114 145 182 224 268
#     4  10  19  30  44  64  92 124 156 187 218 252
#     4   9  17  29  46  67  89 114 145 182 223 265
#
# _framework density 15.58755
#
# number of rings (size 3 to 8) (size 9 to 14) (size 15 to 20)
#    0.000    2.571    0.000    2.429    0.000    4.000 
#    0.000    1.429    0.000    6.143    0.000    2.000 
#    0.000    0.000    0.000    9.143    0.000    6.286 
#
# Total GULP energy -468085.795051 kJ/mol
# GULP energy per Si atom -5572.449941 kJ/mol
# Density = 1.555207 g / cm^3
# Si number density = 15.587550 Si / 1000 Ang^3
#
#
#
# Elastic Constant Matrix: (Units=GPa)
#
#
# Indices 1 2 3 4 5 6 
#
# 1 95.1869 66.4517 45.1957 0.0000 0.0000 0.0000
# 2 66.4517 95.1869 45.1957 0.0000 0.0000 0.0000
# 3 45.1957 45.1957 42.9851 0.0000 0.0000 0.0000
# 4 0.0000 0.0000 0.0000 20.7601 0.0000 0.0000
# 5 0.0000 0.0000 0.0000 0.0000 20.7601 0.0000
# 6 0.0000 0.0000 0.0000 0.0000 0.0000 14.3676
#
#
#
# Elastic Compliance Matrix: (Units=1/GPa)
#
#
# Indices 1 2 3 4 5 6 
#
# 1 0.024908 -0.009893 -0.015787 0.000000 0.000000 0.000000
# 2 -0.009893 0.024908 -0.015787 0.000000 0.000000 0.000000
# 3 -0.015787 -0.015787 0.056463 0.000000 0.000000 0.000000
# 4 0.000000 0.000000 0.000000 0.048169 0.000000 0.000000
# 5 0.000000 0.000000 0.000000 0.000000 0.048169 0.000000
# 6 0.000000 0.000000 0.000000 0.000000 0.000000 0.069601
#
#
# Mechanical properties :
#
#
# Convention : Reuss Voigt Hill
#
# Bulk Modulus (GPa) = 42.83889 60.78282 51.81085
# Shear Modulus (GPa) = 13.77660 16.27863 15.02761
#
# Velocity S-wave (km/s) = 2.97614 3.23512 3.10833
# Velocity P-wave (km/s) = 6.27314 7.28243 6.79655
#
# Compressibility (1/GPa) = 0.02334328
#
# Stress axis : x y z
#
# Youngs Moduli (GPa) = 40.14789 40.14789 17.71084
#
# Poissons Ratio (x) = 0.39717 0.27961
# Poissons Ratio (y) = 0.39717 0.27961
# Poissons Ratio (z) = 0.63383 0.63383
#
# Static dielectric constant tensor:
#      x y z
#    x 1.510680 0.000000 0.000000 
#    y 0.000000 1.510680 0.000000 
#    z 0.000000 0.000000 1.511850 
# 
# From -- ./inp_files/3210.got.cif
#   From: 2010.05.17/outbox.cif.g08.bks.cpg/sg162_2_cif.got.tgz:3210.got - 2010.05.20 10:53:12.
