data_PCOD9577291
_publ_section_title
;
Structure prediction by ZEFSAII (Michael W. Deem and Ramdas Pophale) SiO2 
 PCOD9577291
Probable space group: P 3 C 1
;
_chemical_formula_sum "Si O2"
_cell_formula_units_Z 48
_cell_length_a 19.047335
_cell_length_b 19.047335
_cell_length_c 9.167551
_cell_angle_alpha 90.000000
_cell_angle_beta 90.000000
_cell_angle_gamma 120.000000
_cell_volume 2880.397376
_symmetry_space_group_name_H-M "P 3 C 1"
_symmetry_group_IT_number 158
_symmetry_cell_setting 'hexagonal'
loop_
_space_group_symop_operation_xyz
x,y,z
-y,x-y,z
-x+y,-x,z
-x+y,y,1/2+z
x,x-y,1/2+z
-y,-x,1/2+z
loop_
_atom_site_type_symbol
_atom_site_label
_atom_site_fract_x
_atom_site_fract_y
_atom_site_fract_z
Si Si1 0.431928 0.286080 0.878560
Si Si2 0.237355 0.903373 0.873040
Si Si3 0.429312 0.999352 0.219313
Si Si4 0.429312 0.429960 0.373040
Si Si5 0.666019 0.762645 0.219313
Si Si6 0.431928 0.145848 0.713793
Si Si7 0.952747 0.765261 0.878560
Si Si8 0.812515 0.047253 0.213793
O O1 0.452316 0.366693 0.790971
O O2 0.460073 0.230036 0.796177
O O3 0.333333 0.233727 0.881640
O O4 0.459730 0.302821 0.046177
O O5 0.182206 0.817794 0.796177
O O6 0.333333 0.940513 0.848271
O O7 0.214351 0.966640 0.801383
O O8 0.223337 0.898027 0.046177
O O9 0.333333 0.940513 0.244082
O O10 0.484461 0.968922 0.296177
O O11 0.443329 0.008023 0.046177
O O12 0.452316 0.366693 0.301383
O O13 0.752290 0.785649 0.290971
O O14 0.333333 0.099607 0.710713
O O15 0.896703 0.793406 0.796177
O O16 0.969488 0.793064 0.046177
#
# Coordination Sequence:
#
# PCOD9577291 Si02
#       8
#     6   6   6   6   6   6   6   6
#     4   9  16  27  45  69  96 124 154 190 233 283
#     4  10  20  33  50  73 100 131 169 213 260 308
#     4  10  20  33  50  73 100 131 169 213 260 308
#     4  10  20  33  50  73 100 131 169 213 260 308
#     4  10  20  33  50  73 100 131 169 213 260 308
#     4   9  16  27  45  69  96 124 154 190 233 283
#     4   9  16  27  45  69  96 124 154 190 233 283
#     4   9  16  27  45  69  96 124 154 190 233 283
#
# _framework density 16.664366000000001
#
# number of rings (size 3 to 8) (size 9 to 14) (size 15 to 20)
#    0.000    2.500    0.000    3.000    0.000    9.000 
#    0.000    0.000    0.000    1.500    0.000    7.000 
#    0.000    0.000    0.000    0.000    0.000    0.000 
#
# Total GULP energy -267635.017498 kJ/mol
# GULP energy per Si atom -5575.729531 kJ/mol
# Density = 1.662644 g / cm^3
# Si number density = 16.664366 Si / 1000 Ang^3
#
#
#
# Elastic Constant Matrix: (Units=GPa)
#
#
# Indices 1 2 3 4 5 6 
#
# 1 65.9468 39.6401 66.9002 0.0000 0.0000 0.0000
# 2 39.6401 65.9468 66.9002 0.0000 0.0000 0.0000
# 3 66.9002 66.9002 155.5189 0.0000 0.0000 0.0000
# 4 0.0000 0.0000 0.0000 26.9525 0.0000 0.0000
# 5 0.0000 0.0000 0.0000 0.0000 26.9525 0.0000
# 6 0.0000 0.0000 0.0000 0.0000 0.0000 13.1533
#
#
#
# Elastic Compliance Matrix: (Units=1/GPa)
#
#
# Indices 1 2 3 4 5 6 
#
# 1 0.029417 -0.008596 -0.008956 0.000000 0.000000 0.000000
# 2 -0.008596 0.029417 -0.008956 0.000000 0.000000 0.000000
# 3 -0.008956 -0.008956 0.014136 0.000000 0.000000 0.000000
# 4 0.000000 0.000000 0.000000 0.037102 0.000000 0.000000
# 5 0.000000 0.000000 0.000000 0.000000 0.037102 0.000000
# 6 0.000000 0.000000 0.000000 0.000000 0.000000 0.076026
#
#
# Mechanical properties :
#
#
# Convention : Reuss Voigt Hill
#
# Bulk Modulus (GPa) = 50.12276 70.47709 60.29993
# Shear Modulus (GPa) = 17.67601 21.00979 19.34290
#
# Velocity S-wave (km/s) = 3.26038 3.55457 3.41065
# Velocity P-wave (km/s) = 6.65707 7.69614 7.19538
#
# Compressibility (1/GPa) = 0.01995102
#
# Stress axis : x y z
#
# Youngs Moduli (GPa) = 33.99411 33.99411 70.74244
#
# Poissons Ratio (x) = 0.29222 0.63360
# Poissons Ratio (y) = 0.29222 0.63360
# Poissons Ratio (z) = 0.30447 0.30447
#
# Static dielectric constant tensor:
#      x y z
#    x 1.557770 0.000000 0.000000 
#    y 0.000000 1.557770 0.000000 
#    z 0.000000 0.000000 1.556790 
# 
# From -- ./inp_files/225.got.cif
#   From: 2010.05.17/outbox.cif.g08.bks.cpg/sg158_cif.got.tgz:225.got - 2010.05.20 10:49:59.
