data_PCOD9577556
_publ_section_title
;
Structure prediction by ZEFSAII (Michael W. Deem and Ramdas Pophale) SiO2 
 PCOD9577556
Probable space group: R 3 C
;
_chemical_formula_sum "Si O2"
_cell_formula_units_Z 144
_cell_length_a 20.418786
_cell_length_b 20.418786
_cell_length_c 19.340022
_cell_angle_alpha 90.000000
_cell_angle_beta 90.000000
_cell_angle_gamma 120.000000
_cell_volume 6983.086641
_symmetry_space_group_name_H-M "R 3 C"
_symmetry_group_IT_number 161
_symmetry_cell_setting 'hexagonal'
loop_
_space_group_symop_operation_xyz
x,y,z
-y,x-y,z
-x+y,-x,z
-x+y,y,1/2+z
x,x-y,1/2+z
-y,-x,1/2+z
2/3+x,1/3+y,1/3+z
2/3-y,1/3+x-y,1/3+z
2/3-x+y,1/3-x,1/3+z
2/3-x+y,1/3+y,5/6+z
2/3+x,1/3+x-y,5/6+z
2/3-y,1/3-x,5/6+z
1/3+x,2/3+y,2/3+z
1/3-y,2/3+x-y,2/3+z
1/3-x+y,2/3-x,2/3+z
1/3-x+y,2/3+y,1/6+z
1/3+x,2/3+x-y,1/6+z
1/3-y,2/3-x,1/6+z
loop_
_atom_site_type_symbol
_atom_site_label
_atom_site_fract_x
_atom_site_fract_y
_atom_site_fract_z
Si Si1 0.081307 0.754533 0.072805
Si Si2 0.689145 0.967617 0.821549
Si Si3 0.231613 0.740237 0.658258
Si Si4 0.860736 0.092336 0.201143
Si Si5 0.527077 0.418289 0.188080
Si Si6 0.402536 0.396457 0.335316
Si Si7 0.864154 0.519979 0.932503
Si Si8 0.374080 0.548993 0.776199
O O1 0.073158 0.827390 0.087846
O O2 0.034710 0.696818 0.135697
O O3 0.166069 0.781274 0.053749
O O4 0.027184 0.709982 0.008087
O O5 0.637522 0.889999 0.862693
O O6 0.699704 0.942022 0.744131
O O7 0.770572 0.025283 0.852294
O O8 0.232720 0.723266 0.577585
O O9 0.153525 0.743239 0.667018
O O10 0.297367 0.818611 0.689493
O O11 0.222942 0.675102 0.710461
O O12 0.897497 0.112283 0.276248
O O13 0.914807 0.156715 0.146404
O O14 0.856068 0.016562 0.171416
O O15 0.373595 0.431235 0.277732
O O16 0.778308 0.482778 0.960156
#
# Coordination Sequence:
#
# PCOD9577556 Si02
#       8
#    18  18  18  18  18  18  18  18
#     4   8  19  37  54  94 126 167 213 253 333 387
#     4   9  20  38  64  90 136 171 213 276 322 395
#     4  10  23  39  60  98 135 164 226 275 319 417
#     4  10  21  41  63  96 130 167 226 275 325 404
#     4  12  22  37  66  94 137 179 201 279 357 381
#     4   9  18  40  61  92 127 167 219 274 314 395
#     4  11  19  41  68  90 122 183 223 265 342 384
#     4   9  20  41  60  88 127 168 227 269 308 399
#
# _framework density 20.621252999999999
#
# number of rings (size 3 to 8) (size 9 to 14) (size 15 to 20)
#    0.750    1.500    3.750    0.750    3.500    2.000 
#   10.500    1.250    0.000    0.000    0.000    0.000 
#    0.000    0.000    0.000    0.000    0.000    0.000 
#
# Total GULP energy -267381.241668 kJ/mol
# GULP energy per Si atom -5570.442535 kJ/mol
# Density = 2.057432 g / cm^3
# Si number density = 20.621253 Si / 1000 Ang^3
#
#
#
# Elastic Constant Matrix: (Units=GPa)
#
#
# Indices 1 2 3 4 5 6 
#
# 1 63.0508 32.6013 18.1024 -1.1962 0.0000 0.0000
# 2 32.6013 63.0508 18.1024 1.1962 0.0000 0.0000
# 3 18.1024 18.1024 109.3662 0.0000 0.0000 0.0000
# 4 -1.1962 1.1962 0.0000 25.2540 0.0000 0.0000
# 5 0.0000 0.0000 0.0000 0.0000 25.2540 -1.1962
# 6 0.0000 0.0000 0.0000 0.0000 -1.1962 15.2248
#
#
#
# Elastic Compliance Matrix: (Units=1/GPa)
#
#
# Indices 1 2 3 4 5 6 
#
# 1 0.022059 -0.010905 -0.001846 0.001561 0.000000 0.000000
# 2 -0.010905 0.022059 -0.001846 -0.001561 0.000000 0.000000
# 3 -0.001846 -0.001846 0.009755 0.000000 0.000000 0.000000
# 4 0.001561 -0.001561 0.000000 0.039746 0.000000 0.000000
# 5 0.000000 0.000000 0.000000 0.000000 0.039746 0.003123
# 6 0.000000 0.000000 0.000000 0.000000 0.003123 0.065928
#
#
# Mechanical properties :
#
#
# Convention : Reuss Voigt Hill
#
# Bulk Modulus (GPa) = 40.52367 41.45333 40.98850
# Shear Modulus (GPa) = 21.12272 24.25732 22.69002
#
# Velocity S-wave (km/s) = 3.20397 3.43348 3.32071
# Velocity P-wave (km/s) = 5.77765 5.98868 5.88411
#
# Compressibility (1/GPa) = 0.02467694
#
# Stress axis : x y z
#
# Youngs Moduli (GPa) = 45.33372 45.33372 102.51435
#
# Poissons Ratio (x) = 0.49438 0.18925
# Poissons Ratio (y) = 0.49438 0.18925
# Poissons Ratio (z) = 0.08369 0.08369
#
# Static dielectric constant tensor:
#      x y z
#    x 1.758400 0.000000 0.000000 
#    y 0.000000 1.758400 0.000000 
#    z 0.000000 0.000000 1.827830 
# 
# From -- ./inp_files/1779.got.cif
#   From: 2010.05.17/outbox.cif.g08.bks.cpg/sg161_cif.got.tgz:1779.got - 2010.05.20 10:52:32.
