data_PCOD9577519
_publ_section_title
;
Structure prediction by ZEFSAII (Michael W. Deem and Ramdas Pophale) SiO2 
 PCOD9577519
Probable space group: R 3 M
;
_chemical_formula_sum "Si O2"
_cell_formula_units_Z 36
_cell_length_a 18.000000
_cell_length_b 18.000000
_cell_length_c 21.000000
_cell_angle_alpha 90.000000
_cell_angle_beta 90.000000
_cell_angle_gamma 120.000000
_cell_volume 5892.436847
_symmetry_space_group_name_H-M "R 3 M"
_symmetry_group_IT_number 160
_symmetry_cell_setting 'hexagonal'
loop_
_space_group_symop_operation_xyz
x,y,z
-y,x-y,z
-x+y,-x,z
-x+y,y,z
x,x-y,z
-y,-x,z
2/3+x,1/3+y,1/3+z
2/3-y,1/3+x-y,1/3+z
2/3-x+y,1/3-x,1/3+z
2/3-x+y,1/3+y,1/3+z
2/3+x,1/3+x-y,1/3+z
2/3-y,1/3-x,1/3+z
1/3+x,2/3+y,2/3+z
1/3-y,2/3+x-y,2/3+z
1/3-x+y,2/3-x,2/3+z
1/3-x+y,2/3+y,2/3+z
1/3+x,2/3+x-y,2/3+z
1/3-y,2/3-x,2/3+z
loop_
_atom_site_type_symbol
_atom_site_label
_atom_site_fract_x
_atom_site_fract_y
_atom_site_fract_z
Si Si1 0.152210 0.484757 0.526278
Si Si2 0.839917 0.505097 0.571538
Si Si3 0.937528 0.697213 0.982398
Si Si4 0.296495 0.059655 0.732394
Si Si5 0.489483 0.334609 0.715023
Si Si6 0.824946 0.823819 0.100026
O O1 0.251518 0.503035 0.530628
O O2 0.149037 0.574519 0.529498
O O3 0.101070 0.418393 0.584866
O O4 0.114085 0.433566 0.459350
O O5 0.760045 0.520090 0.570724
O O6 0.807583 0.403792 0.569938
O O7 0.879208 0.532054 0.641517
O O8 0.885777 0.539506 0.503633
O O9 0.839343 0.678685 0.978625
O O10 0.939968 0.612547 0.006021
O O11 0.982683 0.760971 0.042071
O O12 0.290530 0.145265 0.716595
O O13 0.397972 0.097387 0.749793
O O14 0.508537 0.254269 0.716206
O O15 0.575485 0.424516 0.733607
O O16 0.816947 0.908474 0.096448
O O17 0.924479 0.848958 0.095200
#
# Coordination Sequence:
#
# PCOD9577519 Si02
#       6
#    18  18  18  18  18  18
#     4  10  21  39  64  91 120 155 195 237 282 340
#     4   8  13  22  39  66 102 143 183 221 264 322
#     4  10  21  36  55  81 111 144 186 240 298 345
#     4  10  22  39  57  80 112 153 199 242 288 343
#     4   9  17  30  49  74 106 147 196 245 291 342
#     4   9  16  26  43  72 112 154 191 227 276 344
#
# _framework density 6.1095269999999999
#
# number of rings (size 3 to 8) (size 9 to 14) (size 15 to 20)
#    0.000    2.667    0.000    1.667    0.000    5.333 
#    0.000    4.167    0.000    0.333    0.000    0.000 
#    0.000    0.000    0.000    0.000    0.000    0.000 
#
# Total GULP energy -200467.489708 kJ/mol
# GULP energy per Si atom -5568.541381 kJ/mol
# Density = 0.609562 g / cm^3
# Si number density = 6.109527 Si / 1000 Ang^3
#
#
#
# Elastic Constant Matrix: (Units=GPa)
#
#
# Indices 1 2 3 4 5 6 
#
# 1 97.1111 46.3344 37.8092 -3.7618 -0.0001 0.0000
# 2 46.3344 97.1111 37.8092 3.7618 0.0001 0.0000
# 3 37.8092 37.8092 81.0140 0.0000 0.0000 0.0000
# 4 -3.7618 3.7618 0.0000 30.5090 0.0000 0.0001
# 5 -0.0001 0.0001 0.0000 0.0000 30.5090 -3.7618
# 6 0.0000 0.0000 0.0000 0.0001 -3.7618 25.3884
#
#
#
# Elastic Compliance Matrix: (Units=1/GPa)
#
#
# Indices 1 2 3 4 5 6 
#
# 1 0.014653 -0.005407 -0.004315 0.002473 0.000000 0.000000
# 2 -0.005407 0.014653 -0.004315 -0.002473 0.000000 0.000000
# 3 -0.004315 -0.004315 0.016371 0.000000 0.000000 0.000000
# 4 0.002473 -0.002473 0.000000 0.033387 0.000000 0.000000
# 5 0.000000 0.000000 0.000000 0.000000 0.033387 0.004947
# 6 0.000000 0.000000 0.000000 0.000000 0.004947 0.040121
#
#
# Mechanical properties :
#
#
# Convention : Reuss Voigt Hill
#
# Bulk Modulus (GPa) = 56.80891 57.68240 57.24566
# Shear Modulus (GPa) = 26.80737 27.50017 27.15377
#
# Velocity S-wave (km/s) = 3.82854 3.87770 3.85320
# Velocity P-wave (km/s) = 7.11377 7.18250 7.14822
#
# Compressibility (1/GPa) = 0.01760287
#
# Stress axis : x y z
#
# Youngs Moduli (GPa) = 68.24406 68.24406 61.08262
#
# Poissons Ratio (x) = 0.36901 0.26358
# Poissons Ratio (y) = 0.36901 0.26358
# Poissons Ratio (z) = 0.29448 0.29448
#
# Static dielectric constant tensor:
#      x y z
#    x 1.650440 0.000000 0.000000 
#    y 0.000000 1.650440 0.000000 
#    z 0.000000 0.000000 1.666610 
# 
# From -- ./inp_files/3333.got.cif
#   From: 2010.05.17/outbox.ucp.g08.bks.cvg/sg160_2_cif.got.tgz:3333.got - 2010.06.11 15:14:33.
