data_PCOD9577642
_publ_section_title
;
Structure prediction by ZEFSAII (Michael W. Deem and Ramdas Pophale) SiO2 
 PCOD9577642
Probable space group: P -3 1 M 
;
_chemical_formula_sum "Si O2"
_cell_formula_units_Z 46
_cell_length_a 14.752628
_cell_length_b 14.752628
_cell_length_c 15.556021
_cell_angle_alpha 90.000000
_cell_angle_beta 90.000000
_cell_angle_gamma 120.000000
_cell_volume 2932.026798
_symmetry_space_group_name_H-M "P -3 1 M "
_symmetry_group_IT_number 162
_symmetry_cell_setting 'hexagonal'
loop_
_space_group_symop_operation_xyz
x,y,z
-y,x-y,z
-x+y,-x,z
-y,-x,-z
-x+y,y,-z
x,x-y,-z
-x,-y,-z
y,-x+y,-z
x-y,x,-z
y,x,z
x-y,-y,z
-x,-x+y,z
loop_
_atom_site_type_symbol
_atom_site_label
_atom_site_fract_x
_atom_site_fract_y
_atom_site_fract_z
Si Si1 0.666668 0.333335 0.099616
Si Si2 0.535825 0.746429 0.208550
Si Si3 0.803639 0.401820 0.500000
Si Si4 0.575543 0.115580 0.310450
Si Si5 0.874650 0.125552 0.101712
O O1 0.704055 0.448841 0.134153
O O2 0.666668 0.333334 0.000000
O O3 0.496526 0.806978 0.271828
O O4 0.512071 0.643462 0.261720
O O5 0.649185 0.815832 0.165400
O O6 0.723251 0.446501 0.500000
O O7 0.865227 0.435576 0.411402
O O8 0.552127 0.000000 0.294653
O O9 0.000000 0.176143 0.113304
O O10 0.812820 0.000000 0.116805
O O11 0.858420 0.141581 0.000000
#
# Coordination Sequence:
#
# PCOD9577642 Si02
#       5
#     4  12   6  12  12
#     4   9  18  30  48  70  98 133 159 183 237 291
#     4  10  19  33  48  73 101 126 159 203 234 287
#     4  10  17  34  52  68 100 128 152 196 235 280
#     4  11  20  32  52  73  98 130 156 189 242 290
#     4  10  20  34  51  70  95 129 170 213 251 285
#
# _framework density 15.688807000000001
#
# number of rings (size 3 to 8) (size 9 to 14) (size 15 to 20)
#    0.261    1.565    2.609    3.522    0.000    1.043 
#    0.000    0.000    0.000   12.522    0.000    0.000 
#    0.000    0.000    0.000   11.217    0.000    0.000 
#
# Total GULP energy -256195.502954 kJ/mol
# GULP energy per Si atom -5569.467456 kJ/mol
# Density = 1.565310 g / cm^3
# Si number density = 15.688807 Si / 1000 Ang^3
#
#
#
# Elastic Constant Matrix: (Units=GPa)
#
#
# Indices 1 2 3 4 5 6 
#
# 1 60.2306 21.6295 29.2222 -0.0020 -4.5111 0.0010
# 2 21.6295 60.2309 29.2216 0.0007 4.5108 -0.0003
# 3 29.2222 29.2216 112.4519 -0.0010 0.0000 0.0005
# 4 -0.0020 0.0007 -0.0010 5.1013 -0.0017 4.5121
# 5 -4.5111 4.5108 0.0000 -0.0017 5.1031 0.0011
# 6 0.0010 -0.0003 0.0005 4.5121 0.0011 19.3006
#
#
#
# Elastic Compliance Matrix: (Units=1/GPa)
#
#
# Indices 1 2 3 4 5 6 
#
# 1 0.023825 -0.008827 -0.003898 0.000027 0.028864 -0.000009
# 2 -0.008827 0.023825 -0.003897 -0.000024 -0.028862 0.000008
# 3 -0.003898 -0.003897 0.010918 0.000002 -0.000001 -0.000001
# 4 0.000027 -0.000024 0.000002 0.247133 0.000139 -0.057775
# 5 0.028864 -0.028862 -0.000001 0.000139 0.246986 -0.000049
# 6 -0.000009 0.000008 -0.000001 -0.057775 -0.000049 0.065319
#
#
# Mechanical properties :
#
#
# Convention : Reuss Voigt Hill
#
# Bulk Modulus (GPa) = 39.48621 43.67334 41.57977
# Shear Modulus (GPa) = 7.57930 16.09034 11.83482
#
# Velocity S-wave (km/s) = 2.20034 3.20596 2.74952
# Velocity P-wave (km/s) = 5.62836 6.44996 6.05311
#
# Compressibility (1/GPa) = 0.02532530
#
# Stress axis : x y z
#
# Youngs Moduli (GPa) = 41.97188 41.97283 91.58898
#
# Poissons Ratio (x) = 0.37048 0.35699
# Poissons Ratio (y) = 0.37047 0.35696
# Poissons Ratio (z) = 0.16359 0.16358
#
# Static dielectric constant tensor:
#      x y z
#    x 1.508600 0.000000 0.000000 
#    y 0.000000 1.508600 0.000000 
#    z 0.000000 0.000000 1.512050 
# 
# From -- ./inp_files/2847.got.cif
#   From: 2010.05.17/outbox.cif.g08.bks.cpg/sg162_2_cif.got.tgz:2847.got - 2010.05.20 10:53:12.
