data_PCOD9577826
_publ_section_title
;
Structure prediction by ZEFSAII (Michael W. Deem and Ramdas Pophale) SiO2 
 PCOD9577826
Probable space group: P -3 1 M 
;
_chemical_formula_sum "Si O2"
_cell_formula_units_Z 60
_cell_length_a 14.139799
_cell_length_b 14.139799
_cell_length_c 17.721346
_cell_angle_alpha 90.000000
_cell_angle_beta 90.000000
_cell_angle_gamma 120.000000
_cell_volume 3068.412961
_symmetry_space_group_name_H-M "P -3 1 M "
_symmetry_group_IT_number 162
_symmetry_cell_setting 'hexagonal'
loop_
_space_group_symop_operation_xyz
x,y,z
-y,x-y,z
-x+y,-x,z
-y,-x,-z
-x+y,y,-z
x,x-y,-z
-x,-y,-z
y,-x+y,-z
x-y,x,-z
y,x,z
x-y,-y,z
-x,-x+y,z
loop_
_atom_site_type_symbol
_atom_site_label
_atom_site_fract_x
_atom_site_fract_y
_atom_site_fract_z
Si Si1 0.529772 0.794775 0.684273
Si Si2 0.545512 0.421913 0.414921
Si Si3 0.568737 0.125709 0.816627
Si Si4 0.784556 0.659076 0.806748
Si Si5 0.124435 0.410449 0.061002
O O1 0.484073 0.682731 0.636926
O O2 0.523272 0.875716 0.625136
O O3 0.457903 0.800103 0.754645
O O4 0.642288 0.823027 0.724829
O O5 0.581770 0.418231 0.500000
O O6 0.445864 0.445864 0.417114
O O7 0.457484 0.128712 0.817238
O O8 0.626042 0.147840 0.897804
O O9 0.532428 0.000000 0.797505
O O10 0.751918 0.751918 0.810972
O O11 0.863759 0.660982 0.871772
O O12 0.000000 0.349142 0.031341
O O13 0.213374 0.426747 0.000000
#
# Coordination Sequence:
#
# PCOD9577826 Si02
#       5
#    12  12  12  12  12
#     4  11  19  32  53  74 107 141 182 220 270 314
#     4  11  23  35  49  75 110 149 190 227 269 328
#     4   9  19  34  54  81 108 141 180 222 269 328
#     4  10  20  35  58  80 106 143 185 225 272 329
#     4  10  21  36  55  79 110 141 178 225 278 332
#
# _framework density 19.554081
#
# number of rings (size 3 to 8) (size 9 to 14) (size 15 to 20)
#    0.000    1.800    2.000    2.800    0.000    1.600 
#    1.200    3.000    0.000    3.600    0.000    0.000 
#    0.000    0.000    0.000    0.000    0.000  119.400 
#
# Total GULP energy -334649.996970 kJ/mol
# GULP energy per Si atom -5577.499949 kJ/mol
# Density = 1.950958 g / cm^3
# Si number density = 19.554081 Si / 1000 Ang^3
#
#
#
# Elastic Constant Matrix: (Units=GPa)
#
#
# Indices 1 2 3 4 5 6 
#
# 1 53.0577 8.8708 19.0524 0.0000 2.5679 0.0000
# 2 8.8708 53.0577 19.0524 0.0000 -2.5679 0.0000
# 3 19.0524 19.0524 96.9834 0.0000 0.0000 0.0000
# 4 0.0000 0.0000 0.0000 24.9674 0.0000 -2.5679
# 5 2.5679 -2.5679 0.0000 0.0000 24.9674 0.0000
# 6 0.0000 0.0000 0.0000 -2.5679 0.0000 22.0934
#
#
#
# Elastic Compliance Matrix: (Units=1/GPa)
#
#
# Indices 1 2 3 4 5 6 
#
# 1 0.020636 -0.002269 -0.003608 0.000000 -0.002356 0.000000
# 2 -0.002269 0.020636 -0.003608 0.000000 0.002356 0.000000
# 3 -0.003608 -0.003608 0.011729 0.000000 0.000000 0.000000
# 4 0.000000 0.000000 0.000000 0.040537 0.000000 0.004712
# 5 -0.002356 0.002356 0.000000 0.000000 0.040537 0.000000
# 6 0.000000 0.000000 0.000000 0.004712 0.000000 0.045810
#
#
# Mechanical properties :
#
#
# Convention : Reuss Voigt Hill
#
# Bulk Modulus (GPa) = 29.38493 33.00557 31.19525
# Shear Modulus (GPa) = 23.78695 24.81389 24.30042
#
# Velocity S-wave (km/s) = 3.49158 3.56615 3.52906
# Velocity P-wave (km/s) = 5.59598 5.81999 5.70908
#
# Compressibility (1/GPa) = 0.03403105
#
# Stress axis : x y z
#
# Youngs Moduli (GPa) = 48.45802 48.45802 85.26044
#
# Poissons Ratio (x) = 0.10993 0.30765
# Poissons Ratio (y) = 0.10993 0.30765
# Poissons Ratio (z) = 0.17485 0.17485
#
# Static dielectric constant tensor:
#      x y z
#    x 1.699180 0.000000 0.000000 
#    y 0.000000 1.699180 0.000000 
#    z 0.000000 0.000000 1.738380 
# 
# From -- ./inp_files/2935.got.cif
#   From: 2010.05.17/outbox.cif.g08.bks.cpg/sg162_2_cif.got.tgz:2935.got - 2010.05.20 10:53:12.
