data_PCOD9577273
_publ_section_title
;
Structure prediction by ZEFSAII (Michael W. Deem and Ramdas Pophale) SiO2 
 PCOD9577273
Probable space group: P 3 1 M
;
_chemical_formula_sum "Si O2"
_cell_formula_units_Z 32
_cell_length_a 14.516385
_cell_length_b 14.516385
_cell_length_c 8.862624
_cell_angle_alpha 90.000000
_cell_angle_beta 90.000000
_cell_angle_gamma 120.000000
_cell_volume 1617.371970
_symmetry_space_group_name_H-M "P 3 1 M"
_symmetry_group_IT_number 157
_symmetry_cell_setting 'hexagonal'
loop_
_space_group_symop_operation_xyz
x,y,z
-y,x-y,z
-x+y,-x,z
y,x,z
x-y,-y,z
-x,-x+y,z
loop_
_atom_site_type_symbol
_atom_site_label
_atom_site_fract_x
_atom_site_fract_y
_atom_site_fract_z
Si Si1 0.226633 0.795688 0.101240
Si Si2 0.000000 0.000000 0.599950
Si Si3 0.550993 0.425443 0.608052
Si Si4 0.000000 0.000000 0.961081
Si Si5 0.773367 0.569055 0.459791
Si Si6 0.795463 0.795463 0.462779
Si Si7 0.574557 0.125550 0.952979
Si Si8 0.204537 0.000000 0.098252
O O1 0.211946 0.781160 0.280516
O O2 0.211251 0.895027 0.057901
O O3 0.149141 0.687467 0.015823
O O4 0.344516 0.821662 0.055487
O O5 0.104678 0.000000 0.538441
O O6 0.000000 0.000000 0.780515
O O7 0.504942 0.504942 0.606285
O O8 0.655483 0.477146 0.505544
O O9 0.461675 0.312533 0.545208
O O10 0.578570 0.414598 0.780516
O O11 0.895322 0.895322 0.022590
O O12 0.788749 0.683776 0.503130
O O13 0.806581 0.806581 0.280515
O O14 0.495058 0.000000 0.954746
#
# Coordination Sequence:
#
# PCOD9577273 Si02
#       8
#     6   1   6   1   6   3   6   3
#     4  11  23  42  68  95 126 167 215 263 312 376
#     4  12  28  44  67  96 127 170 217 264 322 386
#     4  11  24  41  63  94 131 167 205 256 319 381
#     4  12  28  44  67  96 127 170 217 264 322 386
#     4  11  23  42  68  95 126 167 215 263 312 376
#     4  10  24  46  69  94 127 168 217 270 320 370
#     4  11  24  41  63  94 131 167 205 256 319 381
#     4  10  24  46  69  94 127 168 217 270 320 370
#
# _framework density 19.785183
#
# number of rings (size 3 to 8) (size 9 to 14) (size 15 to 20)
#    0.000    1.125    1.875    3.562    2.625    5.250 
#    0.000    0.000    0.000    0.000    0.000    0.000 
#    0.000    0.000    0.000    0.000    0.000    0.000 
#
# Total GULP energy -178956.037909 kJ/mol
# GULP energy per Si atom -5592.376185 kJ/mol
# Density = 1.974015 g / cm^3
# Si number density = 19.785183 Si / 1000 Ang^3
#
#
#
# Elastic Constant Matrix: (Units=GPa)
#
#
# Indices 1 2 3 4 5 6 
#
# 1 72.7578 -3.4839 8.3286 0.0000 0.0000 0.0000
# 2 -3.4839 72.7578 8.3286 0.0000 0.0000 0.0000
# 3 8.3286 8.3286 32.4612 0.0000 0.0000 0.0000
# 4 0.0000 0.0000 0.0000 29.1476 0.0000 0.0000
# 5 0.0000 0.0000 0.0000 0.0000 29.1476 0.0000
# 6 0.0000 0.0000 0.0000 0.0000 0.0000 38.1208
#
#
#
# Elastic Compliance Matrix: (Units=1/GPa)
#
#
# Indices 1 2 3 4 5 6 
#
# 1 0.014250 0.001134 -0.003947 0.000000 0.000000 0.000000
# 2 0.001134 0.014250 -0.003947 0.000000 0.000000 0.000000
# 3 -0.003947 -0.003947 0.032831 0.000000 0.000000 0.000000
# 4 0.000000 0.000000 0.000000 0.034308 0.000000 0.000000
# 5 0.000000 0.000000 0.000000 0.000000 0.034308 0.000000
# 6 0.000000 0.000000 0.000000 0.000000 0.000000 0.026232
#
#
# Mechanical properties :
#
#
# Convention : Reuss Voigt Hill
#
# Bulk Modulus (GPa) = 20.91540 22.70260 21.80900
# Shear Modulus (GPa) = 26.93403 30.27011 28.60207
#
# Velocity S-wave (km/s) = 3.69361 3.91569 3.80627
# Velocity P-wave (km/s) = 5.36513 5.65181 5.51033
#
# Compressibility (1/GPa) = 0.04781167
#
# Stress axis : x y z
#
# Youngs Moduli (GPa) = 70.17348 70.17348 30.45856
#
# Poissons Ratio (x) = -0.07959 0.12023
# Poissons Ratio (y) = -0.07959 0.12023
# Poissons Ratio (z) = 0.27699 0.27699
#
# Static dielectric constant tensor:
#      x y z
#    x 1.671040 0.000000 0.000000 
#    y 0.000000 1.671040 0.000000 
#    z 0.000000 0.000000 1.676180 
# 
# From -- ./inp_files/388.got.cif
#   From: 2010.05.17/outbox.cif.g08.bks.cpg/sg157_cif.got.tgz:388.got - 2010.05.20 10:49:36.
