data_PCOD9577913
_publ_section_title
;
Structure prediction by ZEFSAII (Michael W. Deem and Ramdas Pophale) SiO2 
 PCOD9577913
Probable space group: P -3 1 M 
;
_chemical_formula_sum "Si O2"
_cell_formula_units_Z 42
_cell_length_a 22.233027
_cell_length_b 22.233027
_cell_length_c 5.282545
_cell_angle_alpha 90.000000
_cell_angle_beta 90.000000
_cell_angle_gamma 120.000000
_cell_volume 2261.366883
_symmetry_space_group_name_H-M "P -3 1 M "
_symmetry_group_IT_number 162
_symmetry_cell_setting 'hexagonal'
loop_
_space_group_symop_operation_xyz
x,y,z
-y,x-y,z
-x+y,-x,z
-y,-x,-z
-x+y,y,-z
x,x-y,-z
-x,-y,-z
y,-x+y,-z
x-y,x,-z
y,x,z
x-y,-y,z
-x,-x+y,z
loop_
_atom_site_type_symbol
_atom_site_label
_atom_site_fract_x
_atom_site_fract_y
_atom_site_fract_z
Si Si1 0.922449 0.605104 0.721146
Si Si2 0.451167 0.225584 0.500000
Si Si3 0.643935 0.422148 0.749448
Si Si4 0.400462 0.474596 0.224185
O O1 0.846978 0.596679 0.650403
O O2 0.926647 0.563346 0.481638
O O3 0.000000 0.675202 0.728475
O O4 0.917838 0.566552 0.985122
O O5 0.507136 0.224481 0.700714
O O6 0.623898 0.376103 0.500000
O O7 0.589900 0.450377 0.759958
O O8 0.624296 0.375705 0.000000
O O9 0.468683 0.468683 0.213197
#
# Coordination Sequence:
#
# PCOD9577913 Si02
#       4
#    12   6  12  12
#     4   9  18  33  56  81 100 130 171 205 255 311
#     4  10  22  40  60  74 106 140 162 222 264 298
#     4  11  23  36  53  75  97 129 171 202 252 317
#     4   9  18  33  52  76 101 123 158 210 250 294
#
# _framework density 18.572837
#
# number of rings (size 3 to 8) (size 9 to 14) (size 15 to 20)
#    0.000    2.286    0.000    3.429    0.000   11.429 
#    0.857    0.000    6.286    0.000    0.000    0.000 
#    0.000    0.000    0.000    0.429    0.000    0.000 
#
# Total GULP energy -233919.694444 kJ/mol
# GULP energy per Si atom -5569.516534 kJ/mol
# Density = 1.853056 g / cm^3
# Si number density = 18.572837 Si / 1000 Ang^3
#
#
#
# Elastic Constant Matrix: (Units=GPa)
#
#
# Indices 1 2 3 4 5 6 
#
# 1 99.3978 47.2326 21.6008 -0.0012 38.9524 0.0000
# 2 47.2326 99.3978 21.6008 0.0012 -38.9524 0.0000
# 3 21.6008 21.6008 148.2927 0.0000 0.0000 0.0000
# 4 -0.0012 0.0012 0.0000 324.9657 0.0000 -38.9524
# 5 38.9524 -38.9524 0.0000 0.0000 324.9657 -0.0012
# 6 0.0000 0.0000 0.0000 -38.9524 -0.0012 26.0826
#
#
#
# Elastic Compliance Matrix: (Units=1/GPa)
#
#
# Indices 1 2 3 4 5 6 
#
# 1 0.015238 -0.008112 -0.001038 0.000000 -0.002799 0.000000
# 2 -0.008112 0.015238 -0.001038 0.000000 0.002799 0.000000
# 3 -0.001038 -0.001038 0.007046 0.000000 0.000000 0.000000
# 4 0.000000 0.000000 0.000000 0.003748 0.000000 0.005598
# 5 -0.002799 0.002799 0.000000 0.000000 0.003748 0.000000
# 6 0.000000 0.000000 0.000000 0.005598 0.000000 0.046700
#
#
# Mechanical properties :
#
#
# Convention : Reuss Voigt Hill
#
# Bulk Modulus (GPa) = 58.32483 58.66187 58.49335
# Shear Modulus (GPa) = 42.44185 152.31305 97.37745
#
# Velocity S-wave (km/s) = 4.78552 9.06568 7.24871
# Velocity P-wave (km/s) = 7.87441 11.88425 10.08072
#
# Compressibility (1/GPa) = 0.01714536
#
# Stress axis : x y z
#
# Youngs Moduli (GPa) = 65.62660 65.62660 141.92848
#
# Poissons Ratio (x) = 0.53237 0.14731
# Poissons Ratio (y) = 0.53237 0.14731
# Poissons Ratio (z) = 0.06812 0.06812
#
# Static dielectric constant tensor:
#      x y z
#    x 1.721150 0.000000 0.000000 
#    y 0.000000 1.721150 0.000000 
#    z 0.000000 0.000000 1.767430 
# 
# From -- ./inp_files/441.got.cif
#   From: 2010.05.17/outbox.cif.g08.bks.cpg/sg162_1_cif.got.tgz:441.got - 2010.05.20 10:53:12.
