data_PCOD9577754
_publ_section_title
;
Structure prediction by ZEFSAII (Michael W. Deem and Ramdas Pophale) SiO2 
 PCOD9577754
Probable space group: P -3 1 M 
;
_chemical_formula_sum "Si O2"
_cell_formula_units_Z 66
_cell_length_a 27.900263
_cell_length_b 27.900263
_cell_length_c 5.208123
_cell_angle_alpha 90.000000
_cell_angle_beta 90.000000
_cell_angle_gamma 120.000000
_cell_volume 3510.980831
_symmetry_space_group_name_H-M "P -3 1 M "
_symmetry_group_IT_number 162
_symmetry_cell_setting 'hexagonal'
loop_
_space_group_symop_operation_xyz
x,y,z
-y,x-y,z
-x+y,-x,z
-y,-x,-z
-x+y,y,-z
x,x-y,-z
-x,-y,-z
y,-x+y,-z
x-y,x,-z
y,x,z
x-y,-y,z
-x,-x+y,z
loop_
_atom_site_type_symbol
_atom_site_label
_atom_site_fract_x
_atom_site_fract_y
_atom_site_fract_z
Si Si1 0.577260 0.422741 0.500000
Si Si2 0.195380 0.698517 0.418292
Si Si3 0.763854 0.064468 0.952613
Si Si4 0.171465 0.235341 0.446774
Si Si5 0.300637 0.869035 0.070404
Si Si6 0.517255 0.939927 0.831632
O O1 0.637978 0.448541 0.620679
O O2 0.586824 0.475114 0.335440
O O3 0.256946 0.743055 0.500000
O O4 0.157931 0.701596 0.651648
O O5 0.174996 0.712473 0.155020
O O6 0.794095 0.068035 0.685607
O O7 0.738590 0.104673 0.945583
O O8 0.716314 0.000000 0.986599
O O9 0.806146 0.077578 0.187540
O O10 0.107898 0.215796 0.500000
O O11 0.187167 0.187167 0.428577
O O12 0.364373 0.918484 0.027938
O O13 0.556388 0.000000 0.704499
O O14 0.473326 0.946652 0.000000
#
# Coordination Sequence:
#
# PCOD9577754 Si02
#       6
#     6  12  12  12  12  12
#     4  10  21  40  56  78 114 136 184 234 278 330
#     4  11  24  39  58  80 105 142 182 230 283 333
#     4  10  21  36  55  84 117 152 188 225 270 328
#     4  10  21  37  58  83 115 154 195 236 278 328
#     4  11  22  38  57  84 115 144 181 231 276 330
#     4  10  19  34  57  82 109 146 180 216 277 337
#
# _framework density 18.798165000000001
#
# number of rings (size 3 to 8) (size 9 to 14) (size 15 to 20)
#    0.000    1.636    1.818    3.000    0.000    4.364 
#    0.545    1.818    0.000    0.182    0.000    0.000 
#    0.000    4.364    0.000    0.000    0.000    0.727 
#
# Total GULP energy -367858.214331 kJ/mol
# GULP energy per Si atom -5573.609308 kJ/mol
# Density = 1.875538 g / cm^3
# Si number density = 18.798165 Si / 1000 Ang^3
#
#
#
# Elastic Constant Matrix: (Units=GPa)
#
#
# Indices 1 2 3 4 5 6 
#
# 1 -44.0740 169.7023 0.1651 0.0024 -4.6355 0.0000
# 2 169.7023 -44.0740 0.1651 -0.0024 4.6355 0.0000
# 3 0.1651 0.1651 73.5318 0.0000 0.0000 0.0000
# 4 0.0024 -0.0024 0.0000 18.3373 0.0000 4.6355
# 5 -4.6355 4.6355 0.0000 0.0000 18.3373 0.0024
# 6 0.0000 0.0000 0.0000 4.6355 0.0024 -106.8881
#
#
#
# Elastic Compliance Matrix: (Units=1/GPa)
#
#
# Indices 1 2 3 4 5 6 
#
# 1 0.001666 0.006294 -0.000018 0.000001 -0.001170 0.000000
# 2 0.006294 0.001666 -0.000018 -0.000001 0.001170 0.000000
# 3 -0.000018 -0.000018 0.013600 0.000000 0.000000 0.000000
# 4 0.000001 -0.000001 0.000000 0.053942 0.000000 0.002339
# 5 -0.001170 0.001170 0.000000 0.000000 0.053942 0.000001
# 6 0.000000 0.000000 0.000000 0.002339 0.000001 -0.009254
#
#
# Mechanical properties :
#
#
# Convention : Reuss Voigt Hill
#
# Bulk Modulus (GPa) = 33.95791 36.16098 35.05944
# Shear Modulus (GPa) = 44.30131 -26.35260 8.97435
#
# Velocity S-wave (km/s) = 4.85983 -3.74822 2.18733
# Velocity P-wave (km/s) = 7.04233 0.73892 5.00701
#
# Compressibility (1/GPa) = 0.02944822
#
# Stress axis : x y z
#
# Youngs Moduli (GPa) = 600.06477 600.06477 73.53142
#
# Poissons Ratio (x) = -3.77654 0.00131
# Poissons Ratio (y) = -3.77654 0.00131
# Poissons Ratio (z) = 0.01072 0.01072
#
# Static dielectric constant tensor:
#      x y z
#    x 1.729450 0.000000 0.000000 
#    y 0.000000 1.729450 0.000000 
#    z 0.000000 0.000000 1.658570 
# 
# From -- ./inp_files/730.got.cif
#   From: 2010.05.17/outbox.cif.g08.bks.cpg/sg162_1_cif.got.tgz:730.got - 2010.05.20 10:53:12.
