data_PCOD9577111
_publ_section_title
;
Structure prediction by ZEFSAII (Michael W. Deem and Ramdas Pophale) SiO2 
 PCOD9577111
Probable space group: R 3 2
;
_chemical_formula_sum "Si O2"
_cell_formula_units_Z 102
_cell_length_a 20.430645
_cell_length_b 20.430645
_cell_length_c 15.028916
_cell_angle_alpha 90.000000
_cell_angle_beta 90.000000
_cell_angle_gamma 120.000000
_cell_volume 5432.784070
_symmetry_space_group_name_H-M "R 3 2"
_symmetry_group_IT_number 155
_symmetry_cell_setting 'hexagonal'
loop_
_space_group_symop_operation_xyz
x,y,z
-y,x-y,z
-x+y,-x,z
x-y,-y,-z
-x,-x+y,-z
y,x,-z
2/3+x,1/3+y,1/3+z
2/3-y,1/3+x-y,1/3+z
2/3-x+y,1/3-x,1/3+z
2/3+x-y,1/3-y,1/3-z
2/3-x,1/3-x+y,1/3-z
2/3+y,1/3+x,1/3-z
1/3+x,2/3+y,2/3+z
1/3-y,2/3+x-y,2/3+z
1/3-x+y,2/3-x,2/3+z
1/3+x-y,2/3-y,2/3-z
1/3-x,2/3-x+y,2/3-z
1/3+y,2/3+x,2/3-z
loop_
_atom_site_type_symbol
_atom_site_label
_atom_site_fract_x
_atom_site_fract_y
_atom_site_fract_z
Si Si1 0.151864 0.239027 0.520892
Si Si2 0.437568 0.909828 0.996406
Si Si3 0.548866 0.167272 0.648702
Si Si4 0.734352 0.020370 0.899369
Si Si5 0.000000 0.000000 0.892001
Si Si6 0.813273 0.471325 0.145530
Si Si7 0.666667 0.333334 0.725470
O O1 0.181607 0.181607 0.500000
O O2 0.102244 0.227362 0.434350
O O3 0.102663 0.218521 0.608179
O O4 0.227620 0.319163 0.536604
O O5 0.351504 0.868924 0.963751
O O6 0.469400 0.866899 0.934233
O O7 0.488151 0.000000 0.000000
O O8 0.593131 0.162054 0.564494
O O9 0.600346 0.253705 0.686471
O O10 0.806252 0.010233 0.885048
O O11 0.666667 0.966885 0.833334
O O12 0.704639 0.000000 0.000000
O O13 0.942636 0.026640 0.852901
O O14 0.000000 0.000000 0.000000
O O15 0.666668 0.333334 0.833334
#
# Coordination Sequence:
#
# PCOD9577111 Si02
#       7
#    18  18  18  18   6  18   6
#     4  11  21  34  61  93 131 169 205 272 331 409
#     4  12  23  38  60  94 138 175 215 273 349 417
#     4  12  21  36  60  93 132 170 217 267 343 404
#     4  11  25  41  64  95 132 175 228 274 345 414
#     4  12  25  44  70 100 128 172 231 304 350 391
#     4  12  22  41  65  95 131 171 225 288 336 401
#     4  12  19  29  52  93 133 164 217 274 332 418
#
# _framework density 18.774903999999999
#
# number of rings (size 3 to 8) (size 9 to 14) (size 15 to 20)
#    0.000    0.353    7.059    3.706    2.471    0.000 
#    0.000    0.000    0.000   11.647    0.000    0.000 
#    0.000    0.000    0.000    0.000    0.000    0.000 
#
# Total GULP energy -189748.598719 kJ/mol
# GULP energy per Si atom -5580.841139 kJ/mol
# Density = 1.873217 g / cm^3
# Si number density = 18.774904 Si / 1000 Ang^3
#
#
#
# Elastic Constant Matrix: (Units=GPa)
#
#
# Indices 1 2 3 4 5 6 
#
# 1 60.2775 30.8623 4.9231 1.2898 -0.0001 0.0000
# 2 30.8623 60.2770 4.9231 -1.2900 0.0001 0.0004
# 3 4.9231 4.9231 87.3974 -0.0001 0.0000 0.0002
# 4 1.2898 -1.2900 -0.0001 26.6579 0.0000 0.0002
# 5 -0.0001 0.0001 0.0000 0.0000 26.6580 1.2898
# 6 0.0000 0.0004 0.0002 0.0002 1.2898 14.7078
#
#
#
# Elastic Compliance Matrix: (Units=1/GPa)
#
#
# Indices 1 2 3 4 5 6 
#
# 1 0.022590 -0.011551 -0.000622 -0.001652 0.000000 0.000000
# 2 -0.011551 0.022590 -0.000622 0.001652 0.000000 -0.000001
# 3 -0.000622 -0.000622 0.011512 0.000000 0.000000 0.000000
# 4 -0.001652 0.001652 0.000000 0.037672 0.000000 -0.000001
# 5 0.000000 0.000000 0.000000 0.000000 0.037672 -0.003304
# 6 0.000000 -0.000001 0.000000 -0.000001 -0.003304 0.068281
#
#
# Mechanical properties :
#
#
# Convention : Reuss Voigt Hill
#
# Bulk Modulus (GPa) = 32.15084 32.15210 32.15147
# Shear Modulus (GPa) = 21.16183 24.75432 22.95807
#
# Velocity S-wave (km/s) = 3.36092 3.63503 3.50066
# Velocity P-wave (km/s) = 5.67650 5.89747 5.78804
#
# Compressibility (1/GPa) = 0.03110339
#
# Stress axis : x y z
#
# Youngs Moduli (GPa) = 44.26706 44.26668 86.86551
#
# Poissons Ratio (x) = 0.51132 0.05402
# Poissons Ratio (y) = 0.51132 0.05402
# Poissons Ratio (z) = 0.02753 0.02753
#
# Static dielectric constant tensor:
#      x y z
#    x 1.668760 0.000000 0.000000 
#    y 0.000000 1.668760 0.000000 
#    z 0.000000 0.000000 1.627220 
# 
# From -- ./inp_files/5177.got.cif
#   From: 2010.05.17/outbox.cif.g08.bks.cpg/sg155_3_cif.got.tgz:5177.got - 2010.05.20 10:44:35.
