data_PCOD9577049
_publ_section_title
;
Structure prediction by ZEFSAII (Michael W. Deem and Ramdas Pophale) SiO2 
 PCOD9577049
Probable space group: R 3 2
;
_chemical_formula_sum "Si O2"
_cell_formula_units_Z 114
_cell_length_a 20.914993
_cell_length_b 20.914993
_cell_length_c 14.698092
_cell_angle_alpha 90.000000
_cell_angle_beta 90.000000
_cell_angle_gamma 120.000000
_cell_volume 5568.100178
_symmetry_space_group_name_H-M "R 3 2"
_symmetry_group_IT_number 155
_symmetry_cell_setting 'hexagonal'
loop_
_space_group_symop_operation_xyz
x,y,z
-y,x-y,z
-x+y,-x,z
x-y,-y,-z
-x,-x+y,-z
y,x,-z
2/3+x,1/3+y,1/3+z
2/3-y,1/3+x-y,1/3+z
2/3-x+y,1/3-x,1/3+z
2/3+x-y,1/3-y,1/3-z
2/3-x,1/3-x+y,1/3-z
2/3+y,1/3+x,1/3-z
1/3+x,2/3+y,2/3+z
1/3-y,2/3+x-y,2/3+z
1/3-x+y,2/3-x,2/3+z
1/3+x-y,2/3-y,2/3-z
1/3-x,2/3-x+y,2/3-z
1/3+y,2/3+x,2/3-z
loop_
_atom_site_type_symbol
_atom_site_label
_atom_site_fract_x
_atom_site_fract_y
_atom_site_fract_z
Si Si1 0.333334 0.666668 0.056008
Si Si2 0.601129 0.712069 0.584380
Si Si3 0.171783 0.416328 0.843636
Si Si4 0.623209 0.752329 0.240788
Si Si5 0.191153 0.269171 0.540843
Si Si6 0.792303 0.292944 0.966710
Si Si7 0.247756 0.398423 0.679070
O O1 0.333334 0.666668 0.166667
O O2 0.412159 0.677133 0.023593
O O3 0.610374 0.666667 0.666667
O O4 0.524260 0.655986 0.537689
O O5 0.667493 0.743961 0.512884
O O6 0.590825 0.776487 0.627708
O O7 0.102419 0.333334 0.833334
O O8 0.231261 0.406857 0.784672
O O9 0.192468 0.450365 0.943088
O O10 0.666667 0.761440 0.333334
O O11 0.633911 0.831518 0.209497
O O12 0.538120 0.690787 0.262332
O O13 0.245714 0.245714 0.500000
O O14 0.112125 0.199541 0.568890
O O15 0.227846 0.321508 0.629062
O O16 0.333334 0.455205 0.666667
#
# Coordination Sequence:
#
# PCOD9577049 Si02
#       7
#     6  18  18  18  18  18  18
#     4  12  27  48  69  99 151 206 244 303 366 459
#     4   9  21  42  66  99 140 182 227 293 369 426
#     4  11  22  42  67 101 138 176 232 298 362 435
#     4  11  22  41  66 103 137 176 231 301 366 434
#     4  11  24  44  63  95 135 180 236 289 360 432
#     4  12  24  44  70 101 140 189 237 296 372 433
#     4  10  23  43  67  96 135 183 232 294 355 429
#
# _framework density 20.473769999999998
#
# number of rings (size 3 to 8) (size 9 to 14) (size 15 to 20)
#    0.000    1.263    3.158    2.842    0.000    5.053 
#    8.526    0.000    0.000    8.526    0.000    0.000 
#    0.000    0.000    0.000    0.000    0.000    0.000 
#
# Total GULP energy -211751.242706 kJ/mol
# GULP energy per Si atom -5572.401124 kJ/mol
# Density = 2.042717 g / cm^3
# Si number density = 20.473770 Si / 1000 Ang^3
#
#
#
# Elastic Constant Matrix: (Units=GPa)
#
#
# Indices 1 2 3 4 5 6 
#
# 1 114.6313 55.7998 58.2781 2.2348 0.0006 0.0000
# 2 55.7998 114.6307 58.2779 -2.2350 -0.0006 0.0000
# 3 58.2781 58.2779 136.4331 0.0000 0.0000 0.0000
# 4 2.2348 -2.2350 0.0000 25.1907 0.0000 -0.0006
# 5 0.0006 -0.0006 0.0000 0.0000 25.1906 2.2348
# 6 0.0000 0.0000 0.0000 -0.0006 2.2348 29.4156
#
#
#
# Elastic Compliance Matrix: (Units=1/GPa)
#
#
# Indices 1 2 3 4 5 6 
#
# 1 0.012701 -0.004412 -0.003541 -0.001518 0.000000 0.000000
# 2 -0.004412 0.012701 -0.003541 0.001518 0.000000 0.000000
# 3 -0.003541 -0.003541 0.010354 0.000000 0.000000 0.000000
# 4 -0.001518 0.001518 0.000000 0.039967 0.000000 0.000001
# 5 0.000000 0.000000 0.000000 0.000000 0.039967 -0.003036
# 6 0.000000 0.000000 0.000000 0.000001 -0.003036 0.034226
#
#
# Mechanical properties :
#
#
# Convention : Reuss Voigt Hill
#
# Bulk Modulus (GPa) = 78.31077 78.93407 78.62242
# Shear Modulus (GPa) = 28.22318 28.84867 28.53592
#
# Velocity S-wave (km/s) = 3.71685 3.75781 3.73739
# Velocity P-wave (km/s) = 7.53341 7.58061 7.55705
#
# Compressibility (1/GPa) = 0.01276964
#
# Stress axis : x y z
#
# Youngs Moduli (GPa) = 78.73408 78.73363 96.57733
#
# Poissons Ratio (x) = 0.34738 0.34194
# Poissons Ratio (y) = 0.34738 0.34195
# Poissons Ratio (z) = 0.27877 0.27877
#
# Static dielectric constant tensor:
#      x y z
#    x 1.754300 0.000000 0.000000 
#    y 0.000000 1.754300 0.000000 
#    z 0.000000 0.000000 1.807460 
# 
# From -- ./inp_files/5218.got.cif
#   From: 2010.05.17/outbox.cif.g08.bks.cpg/sg155_3_cif.got.tgz:5218.got - 2010.05.20 10:44:35.
