data_PCOD9577827
_publ_section_title
;
Structure prediction by ZEFSAII (Michael W. Deem and Ramdas Pophale) SiO2 
 PCOD9577827
Probable space group: P -3 1 M 
;
_chemical_formula_sum "Si O2"
_cell_formula_units_Z 96
_cell_length_a 15.496140
_cell_length_b 15.496140
_cell_length_c 23.584968
_cell_angle_alpha 90.000000
_cell_angle_beta 90.000000
_cell_angle_gamma 120.000000
_cell_volume 4904.706067
_symmetry_space_group_name_H-M "P -3 1 M "
_symmetry_group_IT_number 162
_symmetry_cell_setting 'hexagonal'
loop_
_space_group_symop_operation_xyz
x,y,z
-y,x-y,z
-x+y,-x,z
-y,-x,-z
-x+y,y,-z
x,x-y,-z
-x,-y,-z
y,-x+y,-z
x-y,x,-z
y,x,z
x-y,-y,z
-x,-x+y,z
loop_
_atom_site_type_symbol
_atom_site_label
_atom_site_fract_x
_atom_site_fract_y
_atom_site_fract_z
Si Si1 0.461804 0.721374 0.742553
Si Si2 0.889706 0.446956 0.430409
Si Si3 0.239585 0.778858 0.872361
Si Si4 0.235889 0.118155 0.164213
Si Si5 0.115256 0.886309 0.592584
Si Si6 0.112851 0.795701 0.287136
Si Si7 0.433612 0.551053 0.932922
Si Si8 0.224049 0.452062 0.434648
O O1 0.394943 0.773861 0.731935
O O2 0.493208 0.736660 0.808853
O O3 0.566383 0.762219 0.710606
O O4 0.893102 0.446551 0.500000
O O5 0.853743 0.522933 0.412079
O O6 0.816773 0.336294 0.408788
O O7 0.000000 0.483293 0.410338
O O8 0.173438 0.832150 0.868255
O O9 0.343917 0.848696 0.902936
O O10 0.180734 0.675289 0.905791
O O11 0.169292 0.169292 0.151453
O O12 0.268310 0.141352 0.230356
O O13 0.175258 0.000000 0.154239
O O14 0.140052 0.882834 0.658711
O O15 0.146468 0.810836 0.566006
O O16 0.000000 0.848432 0.583637
O O17 0.183741 0.000000 0.572331
O O18 0.000000 0.702052 0.284672
O O19 0.477374 0.477374 0.924026
O O20 0.431799 0.568201 0.000000
O O21 0.242180 0.484360 0.500000
#
# Coordination Sequence:
#
# PCOD9577827 Si02
#       8
#    12  12  12  12  12  12  12  12
#     4   9  17  35  57  82 111 147 183 222 281 348
#     4   9  17  31  51  76 106 137 171 214 266 318
#     4  11  19  36  54  81 113 150 184 230 281 337
#     4  10  20  35  58  83 110 143 190 245 292 338
#     4  11  23  40  59  81 113 151 192 235 283 338
#     4   9  20  37  56  81 113 149 189 231 282 342
#     4  11  22  34  52  79 111 150 191 226 271 331
#     4  10  20  36  59  85 112 145 187 233 278 332
#
# _framework density 19.573038
#
# number of rings (size 3 to 8) (size 9 to 14) (size 15 to 20)
#    0.250    1.750    1.250    3.000    0.000    3.000 
#    2.250    2.500    0.000    0.750    0.000    0.000 
#    0.000    6.000    0.000    0.000    0.000    0.000 
#
# Total GULP energy -535814.428300 kJ/mol
# GULP energy per Si atom -5581.400295 kJ/mol
# Density = 1.952849 g / cm^3
# Si number density = 19.573038 Si / 1000 Ang^3
#
#
#
# Elastic Constant Matrix: (Units=GPa)
#
#
# Indices 1 2 3 4 5 6 
#
# 1 96.4398 24.0570 -1.8364 0.0001 -0.9302 0.0000
# 2 24.0570 96.4398 -1.8364 -0.0001 0.9302 0.0000
# 3 -1.8364 -1.8364 35.9192 0.0000 0.0000 0.0000
# 4 0.0001 -0.0001 0.0000 8.7753 0.0000 0.9302
# 5 -0.9302 0.9302 0.0000 0.0000 8.7753 0.0001
# 6 0.0000 0.0000 0.0000 0.9302 0.0001 36.1914
#
#
#
# Elastic Compliance Matrix: (Units=1/GPa)
#
#
# Indices 1 2 3 4 5 6 
#
# 1 0.011083 -0.002771 0.000425 0.000000 0.001469 0.000000
# 2 -0.002771 0.011083 0.000425 0.000000 -0.001469 0.000000
# 3 0.000425 0.000425 0.027884 0.000000 0.000000 0.000000
# 4 0.000000 0.000000 0.000000 0.114267 0.000000 -0.002937
# 5 0.001469 -0.001469 0.000000 0.000000 0.114267 0.000000
# 6 0.000000 0.000000 0.000000 -0.002937 0.000000 0.027706
#
#
# Mechanical properties :
#
#
# Convention : Reuss Voigt Hill
#
# Bulk Modulus (GPa) = 21.64155 29.95190 25.79672
# Shear Modulus (GPa) = 15.35939 24.64272 20.00105
#
# Velocity S-wave (km/s) = 2.80433 3.55211 3.20013
# Velocity P-wave (km/s) = 4.64397 5.67090 5.18294
#
# Compressibility (1/GPa) = 0.04620741
#
# Stress axis : x y z
#
# Youngs Moduli (GPa) = 90.23191 90.23191 35.86323
#
# Poissons Ratio (x) = 0.25000 -0.01524
# Poissons Ratio (y) = 0.25000 -0.01524
# Poissons Ratio (z) = -0.03834 -0.03834
#
# Static dielectric constant tensor:
#      x y z
#    x 1.648990 0.000000 0.000000 
#    y 0.000000 1.648990 0.000000 
#    z 0.000000 0.000000 1.720580 
# 
# From -- ./inp_files/4076.got.cif
#   From: 2010.05.17/outbox.cif.g08.bks.cpg/sg162_3_cif.got.tgz:4076.got - 2010.05.20 10:53:12.
