data_PCOD9577796
_publ_section_title
;
Structure prediction by ZEFSAII (Michael W. Deem and Ramdas Pophale) SiO2 
 PCOD9577796
Probable space group: P -3 1 M 
;
_chemical_formula_sum "Si O2"
_cell_formula_units_Z 96
_cell_length_a 13.861682
_cell_length_b 13.861682
_cell_length_c 32.763228
_cell_angle_alpha 90.000000
_cell_angle_beta 90.000000
_cell_angle_gamma 120.000000
_cell_volume 5451.916288
_symmetry_space_group_name_H-M "P -3 1 M "
_symmetry_group_IT_number 162
_symmetry_cell_setting 'hexagonal'
loop_
_space_group_symop_operation_xyz
x,y,z
-y,x-y,z
-x+y,-x,z
-y,-x,-z
-x+y,y,-z
x,x-y,-z
-x,-y,-z
y,-x+y,-z
x-y,x,-z
y,x,z
x-y,-y,z
-x,-x+y,z
loop_
_atom_site_type_symbol
_atom_site_label
_atom_site_fract_x
_atom_site_fract_y
_atom_site_fract_z
Si Si1 0.872596 0.354553 0.180652
Si Si2 0.531125 0.867848 0.340639
Si Si3 0.453502 0.128576 0.383101
Si Si4 0.460543 0.130030 0.480317
Si Si5 0.516938 0.389615 0.251132
Si Si6 0.766403 0.649602 0.818053
Si Si7 0.485309 0.612424 0.888659
Si Si8 0.462462 0.330685 0.022313
O O1 0.821491 0.375145 0.221757
O O2 0.870644 0.238905 0.181248
O O3 0.821720 0.374701 0.139383
O O4 0.000000 0.453148 0.180568
O O5 0.425327 0.857917 0.364677
O O6 0.570106 0.789418 0.362248
O O7 0.488995 0.825062 0.294601
O O8 0.624073 0.000000 0.339743
O O9 0.469448 0.146151 0.431653
O O10 0.359306 0.000000 0.375659
O O11 0.577759 0.155517 0.500000
O O12 0.425033 0.212517 0.500000
O O13 0.375414 0.000000 0.488688
O O14 0.486037 0.486037 0.261381
O O15 0.420393 0.301977 0.221486
O O16 0.763527 0.763527 0.818168
O O17 0.696467 0.578559 0.857206
O O18 0.517012 0.517012 0.899781
O O19 0.496873 0.671166 0.931488
O O20 0.366770 0.366770 0.022644
O O21 0.568997 0.431004 0.000000
O O22 0.429740 0.214870 0.000000
#
# Coordination Sequence:
#
# PCOD9577796 Si02
#       8
#    12  12  12  12  12  12  12  12
#     4   9  17  31  50  71  97 131 171 208 249 303
#     4  10  20  35  52  71 106 143 170 212 263 307
#     4  10  21  34  51  79 105 134 176 212 255 320
#     4  10  20  34  54  77 103 135 172 215 261 311
#     4   8  17  32  46  65  94 128 165 201 240 294
#     4   9  17  31  48  67  94 126 164 204 243 288
#     4   8  17  33  47  65  97 127 159 206 250 298
#     4  10  21  36  53  75 105 137 172 216 265 324
#
# _framework density 17.608487
#
# number of rings (size 3 to 8) (size 9 to 14) (size 15 to 20)
#    0.000    2.750    0.000    2.750    3.500    1.500 
#    6.000    0.000    0.000    0.750    0.000    0.000 
#    0.000    0.000    0.000    0.000    0.000    0.000 
#
# Total GULP energy -534427.485755 kJ/mol
# GULP energy per Si atom -5566.952977 kJ/mol
# Density = 1.756841 g / cm^3
# Si number density = 17.608487 Si / 1000 Ang^3
#
#
#
# Elastic Constant Matrix: (Units=GPa)
#
#
# Indices 1 2 3 4 5 6 
#
# 1 78.0231 31.7874 45.8864 0.0000 0.0757 0.0000
# 2 31.7874 78.0231 45.8864 0.0000 -0.0757 0.0000
# 3 45.8864 45.8864 140.7780 0.0000 0.0000 0.0000
# 4 0.0000 0.0000 0.0000 15.5500 0.0000 -0.0757
# 5 0.0757 -0.0757 0.0000 0.0000 15.5500 0.0000
# 6 0.0000 0.0000 0.0000 -0.0757 0.0000 23.1178
#
#
#
# Elastic Compliance Matrix: (Units=1/GPa)
#
#
# Indices 1 2 3 4 5 6 
#
# 1 0.017072 -0.004556 -0.004080 0.000000 -0.000105 0.000000
# 2 -0.004556 0.017072 -0.004080 0.000000 0.000105 0.000000
# 3 -0.004080 -0.004080 0.009763 0.000000 0.000000 0.000000
# 4 0.000000 0.000000 0.000000 0.064310 0.000000 0.000211
# 5 -0.000105 0.000105 0.000000 0.000000 0.064310 0.000000
# 6 0.000000 0.000000 0.000000 0.000211 0.000000 0.043257
#
#
# Mechanical properties :
#
#
# Convention : Reuss Voigt Hill
#
# Bulk Modulus (GPa) = 54.12247 60.43827 57.28037
# Shear Modulus (GPa) = 20.21230 22.39450 21.30340
#
# Velocity S-wave (km/s) = 3.39170 3.57010 3.48204
# Velocity P-wave (km/s) = 6.79275 7.16883 6.98332
#
# Compressibility (1/GPa) = 0.01847661
#
# Stress axis : x y z
#
# Youngs Moduli (GPa) = 58.57421 58.57421 102.42902
#
# Poissons Ratio (x) = 0.26688 0.41787
# Poissons Ratio (y) = 0.26688 0.41787
# Poissons Ratio (z) = 0.23896 0.23896
#
# Static dielectric constant tensor:
#      x y z
#    x 1.626810 0.000000 0.000000 
#    y 0.000000 1.626810 0.000000 
#    z 0.000000 0.000000 1.631380 
# 
# From -- ./inp_files/4114.got.cif
#   From: 2010.05.17/outbox.cif.g08.bks.cpg/sg162_3_cif.got.tgz:4114.got - 2010.05.20 10:53:12.
