data_PCOD9577795
_publ_section_title
;
Structure prediction by ZEFSAII (Michael W. Deem and Ramdas Pophale) SiO2 
 PCOD9577795
Probable space group: P -3 1 M 
;
_chemical_formula_sum "Si O2"
_cell_formula_units_Z 76
_cell_length_a 17.482507
_cell_length_b 17.482507
_cell_length_c 15.242110
_cell_angle_alpha 90.000000
_cell_angle_beta 90.000000
_cell_angle_gamma 120.000000
_cell_volume 4034.438921
_symmetry_space_group_name_H-M "P -3 1 M "
_symmetry_group_IT_number 162
_symmetry_cell_setting 'hexagonal'
loop_
_space_group_symop_operation_xyz
x,y,z
-y,x-y,z
-x+y,-x,z
-y,-x,-z
-x+y,y,-z
x,x-y,-z
-x,-y,-z
y,-x+y,-z
x-y,x,-z
y,x,z
x-y,-y,z
-x,-x+y,z
loop_
_atom_site_type_symbol
_atom_site_label
_atom_site_fract_x
_atom_site_fract_y
_atom_site_fract_z
Si Si1 0.382222 0.105667 0.843640
Si Si2 0.106008 0.735708 0.809430
Si Si3 0.896232 0.265947 0.525486
Si Si4 0.105390 0.467959 0.360915
Si Si5 0.636628 0.530811 0.023174
Si Si6 0.333334 0.666667 0.393153
Si Si7 0.827913 0.497846 0.320294
O O1 0.332161 0.160603 0.825714
O O2 0.419090 0.120345 0.942487
O O3 0.466733 0.150182 0.778499
O O4 0.324512 0.000000 0.828427
O O5 0.128690 0.708167 0.716561
O O6 0.000000 0.697646 0.814002
O O7 0.131707 0.687206 0.884861
O O8 0.835936 0.164065 0.500000
O O9 0.867810 0.317548 0.455938
O O10 0.872622 0.287974 0.619662
O O11 0.000000 0.303167 0.518145
O O12 0.129070 0.566509 0.340619
O O13 0.000000 0.413463 0.362833
O O14 0.574435 0.574435 0.030989
O O15 0.571680 0.428321 0.000000
O O16 0.333334 0.666667 0.500000
O O17 0.431231 0.727930 0.352765
#
# Coordination Sequence:
#
# PCOD9577795 Si02
#       7
#    12  12  12  12  12   4  12
#     4  11  22  35  54  80 107 139 183 227 269 322
#     4  10  20  36  56  77 105 140 179 225 274 320
#     4  11  22  36  54  76 103 135 173 215 259 309
#     4  10  20  34  54  77 102 137 177 212 255 314
#     4   9  18  33  54  78 104 136 173 214 259 313
#     4  12  24  36  54  78 115 152 181 216 258 318
#     4  12  22  35  53  78 110 142 173 212 259 306
#
# _framework density 18.837812
#
# number of rings (size 3 to 8) (size 9 to 14) (size 15 to 20)
#    0.000    1.421    0.000    7.579    0.000    3.789 
#    0.000    0.000    0.000    4.895    0.000    0.000 
#    0.000    8.842    0.000    0.000    0.000    1.895 
#
# Total GULP energy -424240.182177 kJ/mol
# GULP energy per Si atom -5582.107660 kJ/mol
# Density = 1.879494 g / cm^3
# Si number density = 18.837812 Si / 1000 Ang^3
#
#
#
# Elastic Constant Matrix: (Units=GPa)
#
#
# Indices 1 2 3 4 5 6 
#
# 1 79.2349 20.9795 1.6587 0.0000 -1.3524 0.0000
# 2 20.9795 79.2349 1.6587 -0.0002 1.3523 0.0000
# 3 1.6587 1.6587 78.5441 0.0000 0.0000 0.0000
# 4 0.0000 -0.0002 0.0000 23.2956 0.0000 1.3523
# 5 -1.3524 1.3523 0.0000 0.0000 23.2957 0.0001
# 6 0.0000 0.0000 0.0000 1.3523 0.0001 29.1277
#
#
#
# Elastic Compliance Matrix: (Units=1/GPa)
#
#
# Indices 1 2 3 4 5 6 
#
# 1 0.013599 -0.003613 -0.000211 0.000000 0.000999 0.000000
# 2 -0.003613 0.013599 -0.000211 0.000000 -0.000999 0.000000
# 3 -0.000211 -0.000211 0.012741 0.000000 0.000000 0.000000
# 4 0.000000 0.000000 0.000000 0.043043 0.000000 -0.001998
# 5 0.000999 -0.000999 0.000000 0.000000 0.043042 0.000000
# 6 0.000000 0.000000 0.000000 -0.001998 0.000000 0.034424
#
#
# Mechanical properties :
#
#
# Convention : Reuss Voigt Hill
#
# Bulk Modulus (GPa) = 31.37914 31.73416 31.55665
# Shear Modulus (GPa) = 27.91106 29.32495 28.61800
#
# Velocity S-wave (km/s) = 3.85340 3.94979 3.90189
# Velocity P-wave (km/s) = 6.04085 6.13871 6.08998
#
# Compressibility (1/GPa) = 0.03186830
#
# Stress axis : x y z
#
# Youngs Moduli (GPa) = 73.53542 73.53544 78.48923
#
# Poissons Ratio (x) = 0.26571 0.01655
# Poissons Ratio (y) = 0.26571 0.01655
# Poissons Ratio (z) = 0.01551 0.01551
#
# Static dielectric constant tensor:
#      x y z
#    x 1.693780 0.000000 0.000000 
#    y 0.000000 1.693780 0.000000 
#    z 0.000000 0.000000 1.656660 
# 
# From -- ./inp_files/3120.got.cif
#   From: 2010.05.17/outbox.cif.g08.bks.cpg/sg162_2_cif.got.tgz:3120.got - 2010.05.20 10:53:12.
