data_PCOD9577075
_publ_section_title
;
Structure prediction by ZEFSAII (Michael W. Deem and Ramdas Pophale) SiO2 
 PCOD9577075
Probable space group: R 3 2
;
_chemical_formula_sum "Si O2"
_cell_formula_units_Z 135
_cell_length_a 24.216454
_cell_length_b 24.216454
_cell_length_c 14.895521
_cell_angle_alpha 90.000000
_cell_angle_beta 90.000000
_cell_angle_gamma 120.000000
_cell_volume 7564.973827
_symmetry_space_group_name_H-M "R 3 2"
_symmetry_group_IT_number 155
_symmetry_cell_setting 'hexagonal'
loop_
_space_group_symop_operation_xyz
x,y,z
-y,x-y,z
-x+y,-x,z
x-y,-y,-z
-x,-x+y,-z
y,x,-z
2/3+x,1/3+y,1/3+z
2/3-y,1/3+x-y,1/3+z
2/3-x+y,1/3-x,1/3+z
2/3+x-y,1/3-y,1/3-z
2/3-x,1/3-x+y,1/3-z
2/3+y,1/3+x,1/3-z
1/3+x,2/3+y,2/3+z
1/3-y,2/3+x-y,2/3+z
1/3-x+y,2/3-x,2/3+z
1/3+x-y,2/3-y,2/3-z
1/3-x,2/3-x+y,2/3-z
1/3+y,2/3+x,2/3-z
loop_
_atom_site_type_symbol
_atom_site_label
_atom_site_fract_x
_atom_site_fract_y
_atom_site_fract_z
Si Si1 0.494955 0.161621 0.333334
Si Si2 0.407544 0.527724 0.638428
Si Si3 0.065127 0.479562 0.944515
Si Si4 0.632390 0.879876 0.428693
Si Si5 0.394307 0.055401 0.215751
Si Si6 0.698152 0.588514 0.930060
Si Si7 0.796402 0.059393 0.207500
Si Si8 0.486071 0.462961 0.722492
O O1 0.561213 0.162145 0.328251
O O2 0.442079 0.123322 0.256561
O O3 0.333334 0.484530 0.666667
O O4 0.407976 0.519726 0.529846
O O5 0.451734 0.501665 0.683709
O O6 0.079606 0.549882 0.921363
O O7 0.046836 0.438635 0.855384
O O8 0.111595 0.461968 0.998151
O O9 0.000000 0.450785 0.000000
O O10 0.666667 0.909311 0.333334
O O11 0.588949 0.907660 0.461937
O O12 0.681199 0.889934 0.509987
O O13 0.333334 0.050606 0.166667
O O14 0.370151 0.991114 0.274020
O O15 0.666667 0.562640 0.833334
O O16 0.770974 0.607444 0.937129
O O17 0.765199 0.098532 0.166667
O O18 0.808089 0.078111 0.312344
#
# Coordination Sequence:
#
# PCOD9577075 Si02
#       8
#     9  18  18  18  18  18  18  18
#     4  12  24  36  60  88 110 164 202 250 308 370
#     4  11  23  43  60  82 120 157 210 260 315 368
#     4  11  19  32  50  80 117 156 185 228 293 371
#     4  11  22  36  59  84 117 161 208 253 310 361
#     4  11  20  31  52  83 122 151 185 231 293 370
#     4  11  19  33  55  84 125 158 183 236 306 376
#     4  10  25  39  61  83 116 165 209 264 312 364
#     4  11  22  41  59  88 124 159 205 258 314 378
#
# _framework density 17.845400999999999
#
# number of rings (size 3 to 8) (size 9 to 14) (size 15 to 20)
#    0.000    1.067    6.667    1.600    3.733    0.533 
#    0.400    0.000    0.000    0.000    0.000    0.000 
#    1.333    0.000    0.800    0.000    0.000    0.000 
#
# Total GULP energy -250714.857508 kJ/mol
# GULP energy per Si atom -5571.441278 kJ/mol
# Density = 1.780478 g / cm^3
# Si number density = 17.845401 Si / 1000 Ang^3
#
#
#
# Elastic Constant Matrix: (Units=GPa)
#
#
# Indices 1 2 3 4 5 6 
#
# 1 59.5444 7.4190 8.5415 -2.0636 -0.0002 0.0000
# 2 7.4190 59.5444 8.5415 2.0636 0.0002 0.0000
# 3 8.5415 8.5415 80.8592 0.0000 0.0000 0.0000
# 4 -2.0636 2.0636 0.0000 21.7464 0.0000 0.0002
# 5 -0.0002 0.0002 0.0000 0.0000 21.7464 -2.0636
# 6 0.0000 0.0000 0.0000 0.0002 -2.0636 26.0627
#
#
#
# Elastic Compliance Matrix: (Units=1/GPa)
#
#
# Indices 1 2 3 4 5 6 
#
# 1 0.017338 -0.001991 -0.001621 0.001834 0.000000 0.000000
# 2 -0.001991 0.017338 -0.001621 -0.001834 0.000000 0.000000
# 3 -0.001621 -0.001621 0.012710 0.000000 0.000000 0.000000
# 4 0.001834 -0.001834 0.000000 0.046333 0.000000 0.000000
# 5 0.000000 0.000000 0.000000 0.000000 0.046333 0.003669
# 6 0.000000 0.000000 0.000000 0.000000 0.003669 0.038660
#
#
# Mechanical properties :
#
#
# Convention : Reuss Voigt Hill
#
# Bulk Modulus (GPa) = 27.08620 27.66134 27.37377
# Shear Modulus (GPa) = 24.81570 25.60749 25.21160
#
# Velocity S-wave (km/s) = 3.73311 3.79220 3.76277
# Velocity P-wave (km/s) = 5.81315 5.89140 5.85240
#
# Compressibility (1/GPa) = 0.03691918
#
# Stress axis : x y z
#
# Youngs Moduli (GPa) = 57.67532 57.67532 78.68020
#
# Poissons Ratio (x) = 0.11485 0.12756
# Poissons Ratio (y) = 0.11485 0.12756
# Poissons Ratio (z) = 0.09350 0.09350
#
# Static dielectric constant tensor:
#      x y z
#    x 1.642420 0.000000 0.000000 
#    y 0.000000 1.642420 0.000000 
#    z 0.000000 0.000000 1.732720 
# 
# From -- ./inp_files/5436.got.cif
#   From: 2010.05.17/outbox.cif.g08.bks.cpg/sg155_3_cif.got.tgz:5436.got - 2010.05.20 10:44:35.
