data_PCOD9577194
_publ_section_title
;
Structure prediction by ZEFSAII (Michael W. Deem and Ramdas Pophale) SiO2 
 PCOD9577194
Probable space group: P 3 M 1
;
_chemical_formula_sum "Si O2"
_cell_formula_units_Z 48
_cell_length_a 24.605808
_cell_length_b 24.605808
_cell_length_c 5.192741
_cell_angle_alpha 90.000000
_cell_angle_beta 90.000000
_cell_angle_gamma 120.000000
_cell_volume 2722.717327
_symmetry_space_group_name_H-M "P 3 M 1"
_symmetry_group_IT_number 156
_symmetry_cell_setting 'hexagonal'
loop_
_space_group_symop_operation_xyz
x,y,z
-y,x-y,z
-x+y,-x,z
-x+y,y,z
x,x-y,z
-y,-x,z
loop_
_atom_site_type_symbol
_atom_site_label
_atom_site_fract_x
_atom_site_fract_y
_atom_site_fract_z
Si Si1 0.192824 0.934771 0.379910
Si Si2 0.173713 0.472374 0.814425
Si Si3 0.143082 0.510550 0.312682
Si Si4 0.404676 0.404943 0.266017
Si Si5 0.106017 0.335916 0.868290
Si Si6 0.311072 0.051826 0.285337
Si Si7 0.383393 0.254461 0.788854
Si Si8 0.475147 0.075078 0.769540
O O1 0.116155 0.883846 0.392964
O O2 0.222796 0.937718 0.660041
O O3 0.234941 0.008444 0.296479
O O4 0.215220 0.904697 0.156536
O O5 0.235003 0.470006 0.894787
O O6 0.178045 0.490903 0.519219
O O7 0.112476 0.403169 0.846119
O O8 0.165953 0.515440 0.021559
O O9 0.149775 0.574888 0.402760
O O10 0.070754 0.457379 0.317972
O O11 0.343498 0.335423 0.269795
O O12 0.450492 0.407807 0.493063
O O13 0.440323 0.416099 0.995502
O O14 0.173177 0.346355 0.779246
O O15 0.342012 0.093865 0.537482
O O16 0.338844 0.095077 0.034318
O O17 0.402002 0.201001 0.783354
O O18 0.444563 0.324522 0.800048
O O19 0.549684 0.099367 0.788622
#
# Coordination Sequence:
#
# PCOD9577194 Si02
#       8
#     6   6   6   6   6   6   6   6
#     4  10  18  29  45  71 104 133 164 195 229 278
#     4  11  22  36  51  65  85 113 147 185 225 279
#     4  12  23  35  52  72  93 114 143 192 248 295
#     4  10  20  32  49  75 104 127 154 190 239 306
#     4   9  17  28  45  67  92 122 150 180 221 272
#     4  10  19  32  51  72  99 138 172 201 244 297
#     4  10  21  35  51  72 100 136 179 221 256 305
#     4  10  19  33  52  74 101 133 166 204 255 308
#
# _framework density 17.629446000000002
#
# number of rings (size 3 to 8) (size 9 to 14) (size 15 to 20)
#    0.000    1.750    0.000    6.000    0.000    4.000 
#    0.000    0.000    0.000    5.250    0.000    0.000 
#    0.000    6.000    0.000    7.500    0.000    1.000 
#
# Total GULP energy -267362.993795 kJ/mol
# GULP energy per Si atom -5570.062371 kJ/mol
# Density = 1.758932 g / cm^3
# Si number density = 17.629446 Si / 1000 Ang^3
#
#
#
# Elastic Constant Matrix: (Units=GPa)
#
#
# Indices 1 2 3 4 5 6 
#
# 1 57.8590 35.9252 6.7548 -2.4944 0.0005 0.0000
# 2 35.9252 57.8590 6.7548 2.4944 -0.0005 0.0000
# 3 6.7548 6.7548 67.3518 0.0000 0.0000 0.0000
# 4 -2.4944 2.4944 0.0000 6.5422 0.0000 -0.0005
# 5 0.0005 -0.0005 0.0000 0.0000 6.5422 -2.4944
# 6 0.0000 0.0000 0.0000 -0.0005 -2.4944 10.9669
#
#
#
# Elastic Compliance Matrix: (Units=1/GPa)
#
#
# Indices 1 2 3 4 5 6 
#
# 1 0.030370 -0.019551 -0.001085 0.019034 -0.000004 0.000000
# 2 -0.019551 0.030370 -0.001085 -0.019034 0.000004 0.000000
# 3 -0.001085 -0.001085 0.015065 0.000000 0.000000 0.000000
# 4 0.019034 -0.019034 0.000000 0.167367 0.000000 0.000008
# 5 -0.000004 0.000004 0.000000 0.000000 0.167367 0.038067
# 6 0.000000 0.000000 0.000000 0.000008 0.038067 0.099842
#
#
# Mechanical properties :
#
#
# Convention : Reuss Voigt Hill
#
# Bulk Modulus (GPa) = 30.89950 31.32660 31.11305
# Shear Modulus (GPa) = 8.85566 13.71927 11.28746
#
# Velocity S-wave (km/s) = 2.24369 2.79265 2.53308
# Velocity P-wave (km/s) = 4.92721 5.31099 5.12270
#
# Compressibility (1/GPa) = 0.03236298
#
# Stress axis : x y z
#
# Youngs Moduli (GPa) = 32.92731 32.92731 66.37875
#
# Poissons Ratio (x) = 0.64376 0.07202
# Poissons Ratio (y) = 0.64376 0.07202
# Poissons Ratio (z) = 0.03573 0.03573
#
# Static dielectric constant tensor:
#      x y z
#    x 1.632740 0.000000 0.000000 
#    y 0.000000 1.632740 0.000000 
#    z 0.000000 0.000000 1.615850 
# 
# From -- ./inp_files/251.got.cif
#   From: 2010.05.17/outbox.cif.g08.bks.cpg/sg156_cif.got.tgz:251.got - 2010.05.20 10:49:08.
