data_PCOD9577843
_publ_section_title
;
Structure prediction by ZEFSAII (Michael W. Deem and Ramdas Pophale) SiO2 
 PCOD9577843
Probable space group: P -3 1 M 
;
_chemical_formula_sum "Si O2"
_cell_formula_units_Z 84
_cell_length_a 14.126219
_cell_length_b 14.126219
_cell_length_c 21.867844
_cell_angle_alpha 90.000000
_cell_angle_beta 90.000000
_cell_angle_gamma 120.000000
_cell_volume 3779.100735
_symmetry_space_group_name_H-M "P -3 1 M "
_symmetry_group_IT_number 162
_symmetry_cell_setting 'hexagonal'
loop_
_space_group_symop_operation_xyz
x,y,z
-y,x-y,z
-x+y,-x,z
-y,-x,-z
-x+y,y,-z
x,x-y,-z
-x,-y,-z
y,-x+y,-z
x-y,x,-z
y,x,z
x-y,-y,z
-x,-x+y,z
loop_
_atom_site_type_symbol
_atom_site_label
_atom_site_fract_x
_atom_site_fract_y
_atom_site_fract_z
Si Si1 0.694403 0.570030 0.538133
Si Si2 0.124765 0.694309 0.837495
Si Si3 0.873551 0.454099 0.066233
Si Si4 0.236082 0.794599 0.712361
Si Si5 0.125370 0.877371 0.627684
Si Si6 0.879479 0.449708 0.648431
Si Si7 0.876959 0.195870 0.930278
O O1 0.765124 0.530248 0.500000
O O2 0.626178 0.626178 0.510174
O O3 0.790663 0.667034 0.578274
O O4 0.610099 0.475864 0.583769
O O5 0.169919 0.630334 0.878616
O O6 0.201766 0.750484 0.779999
O O7 0.122926 0.785183 0.881593
O O8 0.000000 0.611603 0.816688
O O9 0.876966 0.567028 0.075699
O O10 0.000000 0.481955 0.061770
O O11 0.822003 0.411002 0.000000
O O12 0.165522 0.848501 0.690151
O O13 0.363285 0.872371 0.699257
O O14 0.204816 0.692485 0.666956
O O15 0.000000 0.793605 0.614030
O O16 0.147984 0.000000 0.630030
O O17 0.000000 0.553583 0.649480
O O18 0.000000 0.223055 0.917732
O O19 0.845183 0.154818 0.000000
#
# Coordination Sequence:
#
# PCOD9577843 Si02
#       7
#    12  12  12  12  12  12  12
#     4   9  18  34  59  91 126 162 203 254 311 369
#     4  11  23  39  60  86 119 158 201 249 305 366
#     4   9  18  36  57  80 113 146 185 239 294 348
#     4  11  23  40  61  87 123 164 208 257 313 371
#     4  10  20  36  59  87 121 162 206 255 310 369
#     4  10  22  41  63  89 124 164 207 255 309 371
#     4  11  22  38  61  88 120 158 199 246 304 366
#
# _framework density 22.227509000000001
#
# number of rings (size 3 to 8) (size 9 to 14) (size 15 to 20)
#    0.000    1.857    1.429    3.857    2.000    1.143 
#    0.857    3.571    0.000   12.571    0.000    0.000 
#    0.000    0.571    0.000    0.000    0.000    0.000 
#
# Total GULP energy -469379.264117 kJ/mol
# GULP energy per Si atom -5587.848382 kJ/mol
# Density = 2.217692 g / cm^3
# Si number density = 22.227509 Si / 1000 Ang^3
#
#
#
# Elastic Constant Matrix: (Units=GPa)
#
#
# Indices 1 2 3 4 5 6 
#
# 1 75.2982 16.3765 13.1564 -0.0001 -4.0260 0.0000
# 2 16.3765 75.2982 13.1564 0.0001 4.0260 0.0000
# 3 13.1564 13.1564 69.1696 0.0000 0.0000 0.0000
# 4 -0.0001 0.0001 0.0000 15.6544 0.0000 4.0260
# 5 -4.0260 4.0260 0.0000 0.0000 15.6544 -0.0001
# 6 0.0000 0.0000 0.0000 4.0260 -0.0001 29.4609
#
#
#
# Elastic Compliance Matrix: (Units=1/GPa)
#
#
# Indices 1 2 3 4 5 6 
#
# 1 0.014564 -0.003026 -0.002195 0.000000 0.004524 0.000000
# 2 -0.003026 0.014564 -0.002195 0.000000 -0.004524 0.000000
# 3 -0.002195 -0.002195 0.015292 0.000000 0.000000 0.000000
# 4 0.000000 0.000000 0.000000 0.066206 0.000000 -0.009048
# 5 0.004524 -0.004524 0.000000 0.000000 0.066206 0.000000
# 6 0.000000 0.000000 0.000000 -0.009048 0.000000 0.035180
#
#
# Mechanical properties :
#
#
# Convention : Reuss Voigt Hill
#
# Bulk Modulus (GPa) = 33.79548 33.90496 33.85022
# Shear Modulus (GPa) = 21.12324 23.95907 22.54116
#
# Velocity S-wave (km/s) = 3.08607 3.28670 3.18797
# Velocity P-wave (km/s) = 5.28543 5.44885 5.36776
#
# Compressibility (1/GPa) = 0.02958976
#
# Stress axis : x y z
#
# Youngs Moduli (GPa) = 68.66269 68.66269 65.39340
#
# Poissons Ratio (x) = 0.20777 0.14351
# Poissons Ratio (y) = 0.20777 0.14351
# Poissons Ratio (z) = 0.15069 0.15069
#
# Static dielectric constant tensor:
#      x y z
#    x 1.817470 0.000000 0.000000 
#    y 0.000000 1.817470 0.000000 
#    z 0.000000 0.000000 1.843950 
# 
# From -- ./inp_files/3966.got.cif
#   From: 2010.05.17/outbox.cif.g08.bks.cpg/sg162_2_cif.got.tgz:3966.got - 2010.05.20 10:53:12.
