data_PCOD9577307
_publ_section_title
;
Structure prediction by ZEFSAII (Michael W. Deem and Ramdas Pophale) SiO2 
 PCOD9577307
Probable space group: P 3 C 1
;
_chemical_formula_sum "Si O2"
_cell_formula_units_Z 30
_cell_length_a 8.529817
_cell_length_b 8.529817
_cell_length_c 24.714807
_cell_angle_alpha 90.000000
_cell_angle_beta 90.000000
_cell_angle_gamma 120.000000
_cell_volume 1557.282068
_symmetry_space_group_name_H-M "P 3 C 1"
_symmetry_group_IT_number 158
_symmetry_cell_setting 'hexagonal'
loop_
_space_group_symop_operation_xyz
x,y,z
-y,x-y,z
-x+y,-x,z
-x+y,y,1/2+z
x,x-y,1/2+z
-y,-x,1/2+z
loop_
_atom_site_type_symbol
_atom_site_label
_atom_site_fract_x
_atom_site_fract_y
_atom_site_fract_z
Si Si1 0.997661 0.664893 0.901870
Si Si2 0.665375 0.996000 0.355822
Si Si3 0.869333 0.325058 0.619335
Si Si4 0.999816 0.793174 0.019344
Si Si5 0.667054 0.126853 0.241520
O O1 0.863526 0.727928 0.877736
O O2 0.938782 0.466434 0.880845
O O3 0.194283 0.799364 0.878050
O O4 0.998272 0.685840 0.966272
O O5 0.663640 0.007850 0.291076
O O6 0.838385 0.497471 0.614078
O O7 0.933962 0.327390 0.680611
O O8 0.985270 0.301891 0.573215
O O9 0.830791 0.831918 0.017793
O O10 0.835382 0.333682 0.246731
#
# Coordination Sequence:
#
# PCOD9577307 Si02
#       5
#     6   6   6   6   6
#     4  12  24  39  61  90 121 168 205 258 309 378
#     4  12  22  41  61  89 123 164 207 255 322 358
#     4   8  18  34  62  85 107 158 210 238 293 368
#     4  10  21  38  52  84 130 149 198 255 299 356
#     4   8  15  36  60  86 117 153 202 250 295 368
#
# _framework density 19.264332
#
# number of rings (size 3 to 8) (size 9 to 14) (size 15 to 20)
#    1.200    0.800    4.000    1.200    2.800    0.000 
#    3.600    0.000    0.000    0.800    0.000    0.000 
#    0.000    0.000    0.000    0.000    0.000    0.000 
#
# Total GULP energy -167092.620920 kJ/mol
# GULP energy per Si atom -5569.754031 kJ/mol
# Density = 1.922049 g / cm^3
# Si number density = 19.264332 Si / 1000 Ang^3
#
#
#
# Elastic Constant Matrix: (Units=GPa)
#
#
# Indices 1 2 3 4 5 6 
#
# 1 35.6523 5.4596 32.7197 -3.3788 0.0000 0.0000
# 2 5.4596 35.6523 32.7197 3.3788 0.0000 0.0000
# 3 32.7197 32.7197 204.0073 0.0000 0.0000 0.0000
# 4 -3.3788 3.3788 0.0000 8.6395 0.0000 0.0000
# 5 0.0000 0.0000 0.0000 0.0000 8.6395 -3.3788
# 6 0.0000 0.0000 0.0000 0.0000 -3.3788 15.0964
#
#
#
# Elastic Compliance Matrix: (Units=1/GPa)
#
#
# Indices 1 2 3 4 5 6 
#
# 1 0.034480 -0.001818 -0.005239 0.014196 0.000000 0.000000
# 2 -0.001818 0.034480 -0.005239 -0.014196 0.000000 0.000000
# 3 -0.005239 -0.005239 0.006582 0.000000 0.000000 0.000000
# 4 0.014196 -0.014196 0.000000 0.126852 0.000000 0.000000
# 5 0.000000 0.000000 0.000000 0.000000 0.126852 0.028392
# 6 0.000000 0.000000 0.000000 0.000000 0.028392 0.072595
#
#
# Mechanical properties :
#
#
# Convention : Reuss Voigt Hill
#
# Bulk Modulus (GPa) = 19.62613 46.34555 32.98584
# Shear Modulus (GPa) = 11.27613 20.10260 15.68936
#
# Velocity S-wave (km/s) = 2.42200 3.23385 2.85691
# Velocity P-wave (km/s) = 4.24634 6.16876 5.29552
#
# Compressibility (1/GPa) = 0.05095247
#
# Stress axis : x y z
#
# Youngs Moduli (GPa) = 29.00234 29.00234 151.92615
#
# Poissons Ratio (x) = 0.05272 0.79587
# Poissons Ratio (y) = 0.05272 0.79587
# Poissons Ratio (z) = 0.15193 0.15193
#
# Static dielectric constant tensor:
#      x y z
#    x 1.705920 0.000000 0.000000 
#    y 0.000000 1.705920 0.000000 
#    z 0.000000 0.000000 1.650560 
# 
# From -- ./inp_files/728.got.cif
#   From: 2010.05.17/outbox.cif.g08.bks.cpg/sg158_cif.got.tgz:728.got - 2010.05.20 10:49:59.
