data_PCOD9578918
_publ_section_title
;
Structure prediction by ZEFSAII (Michael W. Deem and Ramdas Pophale) SiO2 
 PCOD9578918
Probable space group: P -3 C 1
;
_chemical_formula_sum "Si O2"
_cell_formula_units_Z 68
_cell_length_a 13.866364
_cell_length_b 13.866364
_cell_length_c 18.413242
_cell_angle_alpha 90.000000
_cell_angle_beta 90.000000
_cell_angle_gamma 120.000000
_cell_volume 3066.098380
_symmetry_space_group_name_H-M "P -3 C 1"
_symmetry_group_IT_number 165
_symmetry_cell_setting 'hexagonal'
loop_
_space_group_symop_operation_xyz
x,y,z
-y,x-y,z
-x+y,-x,z
x-y,-y,1/2-z
-x,-x+y,1/2-z
y,x,1/2-z
-x,-y,-z
y,-x+y,-z
x-y,x,-z
-x+y,y,1/2+z
x,x-y,1/2+z
-y,-x,1/2+z
loop_
_atom_site_type_symbol
_atom_site_label
_atom_site_fract_x
_atom_site_fract_y
_atom_site_fract_z
Si Si1 0.786264 0.786264 0.750000
Si Si2 0.558006 0.037207 0.368952
Si Si3 0.756841 0.166270 0.476878
Si Si4 0.333335 0.666668 0.487257
Si Si5 0.333335 0.666668 0.815427
Si Si6 0.686875 0.673658 0.401223
Si Si7 0.785065 0.785065 0.250000
Si Si8 0.856692 0.537530 0.217779
O O1 0.806866 0.902555 0.720622
O O2 0.670374 0.752000 0.791173
O O3 0.657645 0.078461 0.425273
O O4 0.456325 0.049700 0.395485
O O5 0.616003 0.102373 0.294319
O O6 0.503627 0.907696 0.348759
O O7 0.727003 0.264668 0.487481
O O8 0.877319 0.212081 0.439604
O O9 0.741028 0.097101 0.550144
O O10 0.333334 0.666667 0.400802
O O11 0.274371 0.540709 0.785423
O O12 0.710812 0.724827 0.320519
#
# Coordination Sequence:
#
# PCOD9578918 Si02
#       8
#     6  12  12   4   4  12   6  12
#     4  10  25  47  74 106 144 180 245 313 374 426
#     4  10  22  44  66 100 148 195 242 298 372 442
#     4  12  27  46  70 106 153 200 243 311 375 463
#     4  12  27  43  68 106 156 205 242 301 396 460
#     4  12  27  37  71 115 153 199 239 307 375 469
#     4  12  27  45  77 106 148 195 251 302 375 446
#     4  12  27  51  82 106 136 202 257 317 372 438
#     4  10  24  41  71 108 150 188 245 311 362 455
#
# _framework density 22.178021000000001
#
# number of rings (size 3 to 8) (size 9 to 14) (size 15 to 20)
#    0.000    1.059    1.765    4.941   12.353    2.824 
#    0.000    0.000    0.000    1.412    0.000    0.000 
#    0.000    0.000    0.000    0.000    0.000    0.000 
#
# Total GULP energy -379332.563500 kJ/mol
# GULP energy per Si atom -5578.420051 kJ/mol
# Density = 2.212754 g / cm^3
# Si number density = 22.178021 Si / 1000 Ang^3
#
#
#
# Elastic Constant Matrix: (Units=GPa)
#
#
# Indices 1 2 3 4 5 6 
#
# 1 85.6193 41.3173 34.0128 1.9428 0.0000 0.0000
# 2 41.3173 85.6172 34.0128 -1.9430 0.0000 0.0000
# 3 34.0128 34.0128 113.0867 0.0010 0.0000 0.0000
# 4 1.9428 -1.9430 0.0010 38.6008 0.0000 0.0000
# 5 0.0000 0.0000 0.0000 0.0000 38.6007 1.9438
# 6 0.0000 0.0000 0.0000 0.0000 1.9438 22.1506
#
#
#
# Elastic Compliance Matrix: (Units=1/GPa)
#
#
# Indices 1 2 3 4 5 6 
#
# 1 0.016032 -0.006641 -0.002825 -0.001141 0.000000 0.000000
# 2 -0.006641 0.016033 -0.002825 0.001141 0.000000 0.000000
# 3 -0.002825 -0.002825 0.010542 0.000000 0.000000 0.000000
# 4 -0.001141 0.001141 0.000000 0.026021 0.000000 0.000000
# 5 0.000000 0.000000 0.000000 0.000000 0.026021 -0.002283
# 6 0.000000 0.000000 0.000000 0.000000 -0.002283 0.045346
#
#
# Mechanical properties :
#
#
# Convention : Reuss Voigt Hill
#
# Bulk Modulus (GPa) = 55.47360 55.88986 55.68173
# Shear Modulus (GPa) = 29.31107 31.53578 30.42342
#
# Velocity S-wave (km/s) = 3.63936 3.77495 3.70778
# Velocity P-wave (km/s) = 6.53660 6.65249 6.59480
#
# Compressibility (1/GPa) = 0.01802659
#
# Stress axis : x y z
#
# Youngs Moduli (GPa) = 62.37461 62.37279 94.85908
#
# Poissons Ratio (x) = 0.41419 0.26795
# Poissons Ratio (y) = 0.41420 0.26796
# Poissons Ratio (z) = 0.17619 0.17619
#
# Static dielectric constant tensor:
#      x y z
#    x 1.912590 0.000000 0.000000 
#    y 0.000000 1.912590 0.000000 
#    z 0.000000 0.000000 1.812720 
# 
# From -- ./inp_files/2316.got.cif
#   From: 2010.05.17/outbox.cif.g08.bks.cpg/sg165_2_cif.got.tgz:2316.got - 2010.05.20 11:02:39.
