data_PCOD9578334
_publ_section_title
;
Structure prediction by ZEFSAII (Michael W. Deem and Ramdas Pophale) SiO2 
 PCOD9578334
Probable space group: P -3 M 1
;
_chemical_formula_sum "Si O2"
_cell_formula_units_Z 96
_cell_length_a 18.503731
_cell_length_b 18.503731
_cell_length_c 20.485257
_cell_angle_alpha 90.000000
_cell_angle_beta 90.000000
_cell_angle_gamma 120.000000
_cell_volume 6074.222007
_symmetry_space_group_name_H-M "P -3 M 1"
_symmetry_group_IT_number 164
_symmetry_cell_setting 'hexagonal'
loop_
_space_group_symop_operation_xyz
x,y,z
-y,x-y,z
-x+y,-x,z
x-y,-y,-z
-x,-x+y,-z
y,x,-z
-x,-y,-z
y,-x+y,-z
x-y,x,-z
-x+y,y,z
x,x-y,z
-y,-x,z
loop_
_atom_site_type_symbol
_atom_site_label
_atom_site_fract_x
_atom_site_fract_y
_atom_site_fract_z
Si Si1 0.503191 0.668195 0.353128
Si Si2 0.561216 0.606767 0.231290
Si Si3 0.666001 0.502031 0.893794
Si Si4 0.410431 0.125073 0.234597
Si Si5 0.829884 0.496738 0.105683
Si Si6 0.459849 0.364560 0.506217
Si Si7 0.827725 0.496704 0.369574
Si Si8 0.736450 0.095673 0.006410
O O1 0.506293 0.753147 0.333653
O O2 0.407522 0.592479 0.355690
O O3 0.548255 0.640193 0.300200
O O4 0.541708 0.677352 0.425221
O O5 0.493531 0.506470 0.229642
O O6 0.533058 0.645804 0.173461
O O7 0.656821 0.630140 0.222262
O O8 0.742302 0.484604 0.885426
O O9 0.582134 0.417867 0.914042
O O10 0.694469 0.574450 0.947532
O O11 0.369955 0.184978 0.224674
O O12 0.486748 0.162786 0.182993
O O13 0.441245 0.136841 0.308957
O O14 0.736233 0.472466 0.084906
O O15 0.849801 0.424901 0.088413
O O16 0.889744 0.584497 0.070845
O O17 0.388163 0.388163 0.500000
O O18 0.547832 0.452169 0.507437
O O19 0.461716 0.319557 0.440213
O O20 0.728478 0.456955 0.367243
O O21 0.853569 0.426785 0.362275
O O22 0.834323 0.165678 0.007374
O O23 0.712003 0.000000 0.000000
#
# Coordination Sequence:
#
# PCOD9578334 Si02
#       8
#    12  12  12  12  12  12  12  12
#     4  10  19  30  45  65  90 120 155 194 233 272
#     4  10  19  31  47  65  88 120 156 193 233 276
#     4  10  20  33  50  72  99 130 162 193 224 262
#     4  10  20  31  44  62  84 114 152 192 231 272
#     4  10  19  30  45  66  93 123 154 187 223 266
#     4   9  17  28  41  56  76 106 144 183 223 268
#     4  10  18  27  39  55  76 101 132 172 217 262
#     4  10  21  35  51  71  94 122 155 193 237 281
#
# _framework density 15.804493000000001
#
# number of rings (size 3 to 8) (size 9 to 14) (size 15 to 20)
#    0.000    2.125    0.000    4.250    0.000    4.000 
#    0.000    5.000    0.000    0.375    0.000    0.000 
#    0.000    0.000    0.000    3.000    0.000    1.125 
#
# Total GULP energy -534990.240757 kJ/mol
# GULP energy per Si atom -5572.815008 kJ/mol
# Density = 1.576852 g / cm^3
# Si number density = 15.804493 Si / 1000 Ang^3
#
#
#
# Elastic Constant Matrix: (Units=GPa)
#
#
# Indices 1 2 3 4 5 6 
#
# 1 71.3877 42.0286 15.0521 -0.5757 0.0000 0.0000
# 2 42.0286 71.3877 15.0521 0.5757 0.0000 0.0000
# 3 15.0521 15.0521 72.4019 0.0000 0.0000 0.0000
# 4 -0.5757 0.5757 0.0000 17.1086 0.0000 0.0000
# 5 0.0000 0.0000 0.0000 0.0000 17.1086 -0.5757
# 6 0.0000 0.0000 0.0000 0.0000 -0.5757 14.6795
#
#
#
# Elastic Compliance Matrix: (Units=1/GPa)
#
#
# Indices 1 2 3 4 5 6 
#
# 1 0.021719 -0.012387 -0.001940 0.001148 0.000000 0.000000
# 2 -0.012387 0.021719 -0.001940 -0.001148 0.000000 0.000000
# 3 -0.001940 -0.001940 0.014618 0.000000 0.000000 0.000000
# 4 0.001148 -0.001148 0.000000 0.058527 0.000000 0.000000
# 5 0.000000 0.000000 0.000000 0.000000 0.058527 0.002295
# 6 0.000000 0.000000 0.000000 0.000000 0.002295 0.068212
#
#
# Mechanical properties :
#
#
# Convention : Reuss Voigt Hill
#
# Bulk Modulus (GPa) = 39.18165 39.93810 39.55988
# Shear Modulus (GPa) = 17.58303 19.31565 18.44934
#
# Velocity S-wave (km/s) = 3.33908 3.49974 3.42035
# Velocity P-wave (km/s) = 6.30169 6.45413 6.37837
#
# Compressibility (1/GPa) = 0.02552215
#
# Stress axis : x y z
#
# Youngs Moduli (GPa) = 46.04252 46.04252 68.40659
#
# Poissons Ratio (x) = 0.57033 0.13272
# Poissons Ratio (y) = 0.57033 0.13272
# Poissons Ratio (z) = 0.08933 0.08933
#
# Static dielectric constant tensor:
#      x y z
#    x 1.529480 0.000000 0.000000 
#    y 0.000000 1.529480 0.000000 
#    z 0.000000 0.000000 1.557370 
# 
# From -- ./inp_files/4704.got.cif
#   From: 2010.05.17/outbox.cif.g08.bks.cpg/sg164_3_cif.got.tgz:4704.got - 2010.05.20 10:58:56.
