data_PCOD9578131
_publ_section_title
;
Structure prediction by ZEFSAII (Michael W. Deem and Ramdas Pophale) SiO2 
 PCOD9578131
Probable space group: P -3 1 C
;
_chemical_formula_sum "Si O2"
_cell_formula_units_Z 66
_cell_length_a 21.594502
_cell_length_b 21.594502
_cell_length_c 8.282908
_cell_angle_alpha 90.000000
_cell_angle_beta 90.000000
_cell_angle_gamma 120.000000
_cell_volume 3345.028754
_symmetry_space_group_name_H-M "P -3 1 C"
_symmetry_group_IT_number 163
_symmetry_cell_setting 'hexagonal'
loop_
_space_group_symop_operation_xyz
x,y,z
-y,x-y,z
-x+y,-x,z
-y,-x,1/2-z
-x+y,y,1/2-z
x,x-y,1/2-z
-x,-y,-z
y,-x+y,-z
x-y,x,-z
y,x,1/2+z
x-y,-y,1/2+z
-x,-x+y,1/2+z
loop_
_atom_site_type_symbol
_atom_site_label
_atom_site_fract_x
_atom_site_fract_y
_atom_site_fract_z
Si Si1 0.414791 0.207396 0.250000
Si Si2 0.015651 0.763374 0.913689
Si Si3 0.037982 0.564989 0.124018
Si Si4 0.682940 0.837780 0.069258
Si Si5 0.898317 0.020348 0.390362
Si Si6 0.661220 0.584833 0.169828
O O1 0.369121 0.183043 0.415580
O O2 0.449244 0.156527 0.239068
O O3 0.029059 0.834107 0.819317
O O4 0.038892 0.710336 0.834928
O O5 0.931343 0.722951 0.950176
O O6 0.075309 0.803096 0.054454
O O7 0.077490 0.538745 0.250000
O O8 0.975974 0.569954 0.221000
O O9 0.078784 0.634349 0.011145
O O10 0.000000 0.500000 0.000000
O O11 0.651264 0.825632 0.250000
O O12 0.955403 0.044598 0.250000
O O13 0.942062 0.073779 0.536878
#
# Coordination Sequence:
#
# PCOD9578131 Si02
#       6
#     6  12  12  12  12  12
#     4  10  24  40  58  92 132 164 202 258 304 390
#     4  11  25  38  59  81 111 159 209 276 337 402
#     4   9  19  38  64  91 123 171 203 242 292 371
#     4  11  26  39  57  77 113 162 220 269 347 389
#     4  12  27  43  58  71  99 151 223 295 348 395
#     4  10  21  36  61  91 128 163 209 250 319 380
#
# _framework density 19.730771000000001
#
# number of rings (size 3 to 8) (size 9 to 14) (size 15 to 20)
#    0.000    1.455    1.818    1.818   17.818    0.000 
#    0.000    0.000    0.000    0.000    0.000    0.000 
#   24.545    0.000   37.091    0.000    0.000    0.000 
#
# Total GULP energy -367668.891027 kJ/mol
# GULP energy per Si atom -5570.740773 kJ/mol
# Density = 1.968586 g / cm^3
# Si number density = 19.730771 Si / 1000 Ang^3
#
#
#
# Elastic Constant Matrix: (Units=GPa)
#
#
# Indices 1 2 3 4 5 6 
#
# 1 76.0605 33.1332 26.8895 0.0001 3.0299 0.0000
# 2 33.1332 76.0605 26.8895 -0.0001 -3.0299 0.0000
# 3 26.8895 26.8895 116.4192 0.0000 0.0000 0.0000
# 4 0.0001 -0.0001 0.0000 32.3348 0.0000 -3.0299
# 5 3.0299 -3.0299 0.0000 0.0000 32.3348 0.0001
# 6 0.0000 0.0000 0.0000 -3.0299 0.0001 21.4637
#
#
#
# Elastic Compliance Matrix: (Units=1/GPa)
#
#
# Indices 1 2 3 4 5 6 
#
# 1 0.016970 -0.006637 -0.002387 0.000000 -0.002212 0.000000
# 2 -0.006637 0.016970 -0.002387 0.000000 0.002212 0.000000
# 3 -0.002387 -0.002387 0.009692 0.000000 0.000000 0.000000
# 4 0.000000 0.000000 0.000000 0.031341 0.000000 0.004424
# 5 -0.002212 0.002212 0.000000 0.000000 0.031341 0.000000
# 6 0.000000 0.000000 0.000000 0.004424 0.000000 0.047215
#
#
# Mechanical properties :
#
#
# Convention : Reuss Voigt Hill
#
# Bulk Modulus (GPa) = 48.04860 49.15162 48.60011
# Shear Modulus (GPa) = 27.27942 29.33521 28.30731
#
# Velocity S-wave (km/s) = 3.72234 3.86005 3.79182
# Velocity P-wave (km/s) = 6.54824 6.69566 6.62236
#
# Compressibility (1/GPa) = 0.02081226
#
# Stress axis : x y z
#
# Youngs Moduli (GPa) = 58.92581 58.92581 103.17594
#
# Poissons Ratio (x) = 0.39109 0.24625
# Poissons Ratio (y) = 0.39109 0.24625
# Poissons Ratio (z) = 0.14064 0.14064
#
# Static dielectric constant tensor:
#      x y z
#    x 1.721720 0.000000 0.000000 
#    y 0.000000 1.721720 0.000000 
#    z 0.000000 0.000000 1.787970 
# 
# From -- ./inp_files/1124.got.cif
#   From: 2010.05.17/outbox.cif.g08.bks.cpg/sg163_1_cif.got.tgz:1124.got - 2010.05.20 10:56:03.
