data_PCOD9578509
_publ_section_title
;
Structure prediction by ZEFSAII (Michael W. Deem and Ramdas Pophale) SiO2 
 PCOD9578509
Probable space group: P -3 M 1
;
_chemical_formula_sum "Si O2"
_cell_formula_units_Z 96
_cell_length_a 17.443680
_cell_length_b 17.443680
_cell_length_c 21.204999
_cell_angle_alpha 90.000000
_cell_angle_beta 90.000000
_cell_angle_gamma 120.000000
_cell_volume 5587.854770
_symmetry_space_group_name_H-M "P -3 M 1"
_symmetry_group_IT_number 164
_symmetry_cell_setting 'hexagonal'
loop_
_space_group_symop_operation_xyz
x,y,z
-y,x-y,z
-x+y,-x,z
x-y,-y,-z
-x,-x+y,-z
y,x,-z
-x,-y,-z
y,-x+y,-z
x-y,x,-z
-x+y,y,z
x,x-y,z
-y,-x,z
loop_
_atom_site_type_symbol
_atom_site_label
_atom_site_fract_x
_atom_site_fract_y
_atom_site_fract_z
Si Si1 0.760403 0.697935 0.814906
Si Si2 0.718488 0.102492 0.247281
Si Si3 0.388102 0.283688 0.631537
Si Si4 0.154268 0.487746 0.238320
Si Si5 0.665151 0.152577 0.124040
Si Si6 0.908751 0.266163 0.384974
Si Si7 0.843934 0.333346 0.500946
Si Si8 0.702931 0.759766 0.936484
O O1 0.859736 0.719472 0.800945
O O2 0.710313 0.725215 0.763781
O O3 0.700965 0.590649 0.813197
O O4 0.752635 0.741497 0.879196
O O5 0.814608 0.185393 0.233623
O O6 0.657796 0.110021 0.193688
O O7 0.696931 0.109523 0.319650
O O8 0.367978 0.183989 0.637906
O O9 0.442363 0.332739 0.694628
O O10 0.300085 0.288242 0.619646
O O11 0.448541 0.325587 0.569962
O O12 0.257203 0.514405 0.243330
O O13 0.143910 0.571955 0.225519
O O14 0.573512 0.147023 0.106568
O O15 0.745545 0.254455 0.126045
O O16 0.698394 0.100339 0.078994
O O17 0.838490 0.161511 0.384957
O O18 0.889996 0.306360 0.446763
O O19 0.859639 0.429820 0.489805
O O20 0.740213 0.259787 0.498295
O O21 0.720945 0.860473 0.937613
O O22 0.732137 0.732137 0.000000
#
# Coordination Sequence:
#
# PCOD9578509 Si02
#       8
#    12  12  12  12  12  12  12  12
#     4  10  19  33  55  80 104 136 175 212 259 308
#     4   9  18  33  50  71 101 138 177 218 270 321
#     4  10  20  35  53  75 100 136 183 226 276 330
#     4  10  20  33  51  77 108 143 181 223 268 313
#     4   9  18  32  51  76 106 140 178 218 258 301
#     4  10  20  34  50  73 103 137 176 225 279 329
#     4  10  21  35  51  72 103 140 180 224 275 328
#     4  10  21  38  59  83 110 142 174 209 255 308
#
# _framework density 17.180116999999999
#
# number of rings (size 3 to 8) (size 9 to 14) (size 15 to 20)
#    0.000    2.250    1.250    2.625    0.000    4.250 
#    0.000    1.250    0.000    6.500    0.000    1.750 
#    0.000    3.000    0.000    0.000    0.000    0.000 
#
# Total GULP energy -534829.609168 kJ/mol
# GULP energy per Si atom -5571.141762 kJ/mol
# Density = 1.714101 g / cm^3
# Si number density = 17.180117 Si / 1000 Ang^3
#
#
#
# Elastic Constant Matrix: (Units=GPa)
#
#
# Indices 1 2 3 4 5 6 
#
# 1 60.6350 39.8526 10.9890 -0.6536 0.0000 0.0000
# 2 39.8526 60.6350 10.9890 0.6536 0.0000 0.0000
# 3 10.9890 10.9890 77.7339 0.0000 0.0000 0.0000
# 4 -0.6536 0.6536 0.0000 15.5013 0.0000 0.0000
# 5 0.0000 0.0000 0.0000 0.0000 15.5013 -0.6536
# 6 0.0000 0.0000 0.0000 0.0000 -0.6536 10.3912
#
#
#
# Elastic Compliance Matrix: (Units=1/GPa)
#
#
# Indices 1 2 3 4 5 6 
#
# 1 0.029257 -0.018988 -0.001452 0.002034 0.000000 0.000000
# 2 -0.018988 0.029257 -0.001452 -0.002034 0.000000 0.000000
# 3 -0.001452 -0.001452 0.013275 0.000000 0.000000 0.000000
# 4 0.002034 -0.002034 0.000000 0.064682 0.000000 0.000000
# 5 0.000000 0.000000 0.000000 0.000000 0.064682 0.004068
# 6 0.000000 0.000000 0.000000 0.000000 0.004068 0.096491
#
#
# Mechanical properties :
#
#
# Convention : Reuss Voigt Hill
#
# Bulk Modulus (GPa) = 35.70657 35.85166 35.77912
# Shear Modulus (GPa) = 14.25463 17.42367 15.83915
#
# Velocity S-wave (km/s) = 2.88360 3.18807 3.03965
# Velocity P-wave (km/s) = 5.64940 5.87070 5.76111
#
# Compressibility (1/GPa) = 0.02800605
#
# Stress axis : x y z
#
# Youngs Moduli (GPa) = 34.17953 34.17953 75.33043
#
# Poissons Ratio (x) = 0.64901 0.10936
# Poissons Ratio (y) = 0.64901 0.10936
# Poissons Ratio (z) = 0.04962 0.04962
#
# Static dielectric constant tensor:
#      x y z
#    x 1.582370 0.000000 0.000000 
#    y 0.000000 1.582370 0.000000 
#    z 0.000000 0.000000 1.612940 
# 
# From -- ./inp_files/4739.got.cif
#   From: 2010.05.17/outbox.cif.g08.bks.cpg/sg164_3_cif.got.tgz:4739.got - 2010.05.20 10:58:56.
