data_PCOD9578762
_publ_section_title
;
Structure prediction by ZEFSAII (Michael W. Deem and Ramdas Pophale) SiO2 
 PCOD9578762
Probable space group: P -3 C 1
;
_chemical_formula_sum "Si O2"
_cell_formula_units_Z 60
_cell_length_a 29.804798
_cell_length_b 29.804798
_cell_length_c 5.310175
_cell_angle_alpha 90.000000
_cell_angle_beta 90.000000
_cell_angle_gamma 120.000000
_cell_volume 4085.185963
_symmetry_space_group_name_H-M "P -3 C 1"
_symmetry_group_IT_number 165
_symmetry_cell_setting 'hexagonal'
loop_
_space_group_symop_operation_xyz
x,y,z
-y,x-y,z
-x+y,-x,z
x-y,-y,1/2-z
-x,-x+y,1/2-z
y,x,1/2-z
-x,-y,-z
y,-x+y,-z
x-y,x,-z
-x+y,y,1/2+z
x,x-y,1/2+z
-y,-x,1/2+z
loop_
_atom_site_type_symbol
_atom_site_label
_atom_site_fract_x
_atom_site_fract_y
_atom_site_fract_z
Si Si1 0.299230 0.178102 0.810765
Si Si2 0.547163 0.487562 0.952820
Si Si3 0.061128 0.411462 0.737131
Si Si4 0.363819 0.300597 0.761327
Si Si5 0.884905 0.824595 0.311812
O O1 0.312015 0.155910 0.560886
O O2 0.327855 0.239966 0.810332
O O3 0.237202 0.154543 0.806065
O O4 0.555006 0.472580 0.232580
O O5 0.500000 0.500000 0.000000
O O6 0.599094 0.535081 0.841520
O O7 0.081907 0.392366 0.506713
O O8 0.000000 0.371503 0.750000
O O9 0.079466 0.405501 0.012225
O O10 0.329547 0.329547 0.750000
O O11 0.854896 0.854896 0.250000
O O12 0.910575 0.836610 0.587668
#
# Coordination Sequence:
#
# PCOD9578762 Si02
#       5
#    12  12  12  12  12
#     4  10  20  34  50  66  84 111 143 177 226 279
#     4  10  17  24  39  54  80 114 152 179 208 244
#     4  10  18  27  39  60  83 113 142 177 222 259
#     4  10  20  30  44  62  88 107 136 182 233 274
#     4  10  20  34  54  74  92 112 138 170 208 269
#
# _framework density 14.687214000000001
#
# number of rings (size 3 to 8) (size 9 to 14) (size 15 to 20)
#    0.000    2.000    2.000    3.600    5.600    0.000 
#    0.000    6.000    0.000    4.000    0.000    0.000 
#    0.000    0.000    0.000    0.000    0.000    0.000 
#
# Total GULP energy -334062.073433 kJ/mol
# GULP energy per Si atom -5567.701224 kJ/mol
# Density = 1.465379 g / cm^3
# Si number density = 14.687214 Si / 1000 Ang^3
#
#
#
# Elastic Constant Matrix: (Units=GPa)
#
#
# Indices 1 2 3 4 5 6 
#
# 1 48.7910 12.5867 20.3934 -0.3123 0.0000 0.0000
# 2 12.5867 48.7910 20.3934 0.3123 0.0000 0.0000
# 3 20.3934 20.3934 115.8123 0.0000 0.0000 0.0000
# 4 -0.3123 0.3123 0.0000 16.1091 0.0000 0.0000
# 5 0.0000 0.0000 0.0000 0.0000 16.1091 -0.3123
# 6 0.0000 0.0000 0.0000 0.0000 -0.3123 18.1022
#
#
#
# Elastic Compliance Matrix: (Units=1/GPa)
#
#
# Indices 1 2 3 4 5 6 
#
# 1 0.023041 -0.004589 -0.003249 0.000536 0.000000 0.000000
# 2 -0.004589 0.023041 -0.003249 -0.000536 0.000000 0.000000
# 3 -0.003249 -0.003249 0.009779 0.000000 0.000000 0.000000
# 4 0.000536 -0.000536 0.000000 0.062098 0.000000 0.000000
# 5 0.000000 0.000000 0.000000 0.000000 0.062098 0.001071
# 6 0.000000 0.000000 0.000000 0.000000 0.001071 0.055261
#
#
# Mechanical properties :
#
#
# Convention : Reuss Voigt Hill
#
# Bulk Modulus (GPa) = 29.68621 35.57126 32.62874
# Shear Modulus (GPa) = 18.60670 20.73211 19.66940
#
# Velocity S-wave (km/s) = 3.56316 3.76117 3.66351
# Velocity P-wave (km/s) = 6.09790 6.56762 6.33711
#
# Compressibility (1/GPa) = 0.03368567
#
# Stress axis : x y z
#
# Youngs Moduli (GPa) = 43.40096 43.40096 102.26051
#
# Poissons Ratio (x) = 0.19918 0.33226
# Poissons Ratio (y) = 0.19918 0.33226
# Poissons Ratio (z) = 0.14102 0.14102
#
# Static dielectric constant tensor:
#      x y z
#    x 1.486500 0.000000 0.000000 
#    y 0.000000 1.486500 0.000000 
#    z 0.000000 0.000000 1.567230 
# 
# From -- ./inp_files/189.got.cif
#   From: 2010.05.17/outbox.cif.g08.bks.cpg/sg165_1_cif.got.tgz:189.got - 2010.05.20 11:02:39.
