data_PCOD9578202
_publ_section_title
;
Structure prediction by ZEFSAII (Michael W. Deem and Ramdas Pophale) SiO2 
 PCOD9578202
Probable space group: P -3 1 C
;
_chemical_formula_sum "Si O2"
_cell_formula_units_Z 52
_cell_length_a 12.396742
_cell_length_b 12.396742
_cell_length_c 18.696185
_cell_angle_alpha 90.000000
_cell_angle_beta 90.000000
_cell_angle_gamma 120.000000
_cell_volume 2488.277165
_symmetry_space_group_name_H-M "P -3 1 C"
_symmetry_group_IT_number 163
_symmetry_cell_setting 'hexagonal'
loop_
_space_group_symop_operation_xyz
x,y,z
-y,x-y,z
-x+y,-x,z
-y,-x,1/2-z
-x+y,y,1/2-z
x,x-y,1/2-z
-x,-y,-z
y,-x+y,-z
x-y,x,-z
y,x,1/2+z
x-y,-y,1/2+z
-x,-x+y,1/2+z
loop_
_atom_site_type_symbol
_atom_site_label
_atom_site_fract_x
_atom_site_fract_y
_atom_site_fract_z
Si Si1 0.915786 0.182019 0.670416
Si Si2 0.075160 0.799815 0.025805
Si Si3 0.667628 0.119993 0.296276
Si Si4 0.000000 0.000000 0.334569
Si Si5 0.202289 0.674102 0.954886
O O1 0.866539 0.133462 0.750000
O O2 0.813113 0.119674 0.608553
O O3 0.005583 0.127571 0.645992
O O4 0.994933 0.329223 0.679029
O O5 0.099850 0.696543 0.990508
O O6 0.933891 0.765778 0.011080
O O7 0.791525 0.208476 0.250000
O O8 0.549341 0.098681 0.250000
O O9 0.673471 0.188552 0.369787
O O10 0.000000 0.000000 0.250000
O O11 0.212732 0.553464 0.975011
#
# Coordination Sequence:
#
# PCOD9578202 Si02
#       5
#    12  12  12   4  12
#     4  11  24  40  63  99 130 176 210 263 336 398
#     4  12  25  42  67 101 139 175 220 274 340 405
#     4  12  21  39  67  96 127 160 223 284 322 379
#     4   9  18  39  64  89 130 159 214 263 316 396
#     4  10  23  45  65  95 126 175 231 281 328 382
#
# _framework density 20.897994000000001
#
# number of rings (size 3 to 8) (size 9 to 14) (size 15 to 20)
#    0.462    0.462    4.615    3.923    3.231    0.923 
#    4.154    0.000    0.000    0.462    0.000    0.000 
#    0.000    0.000    0.000    0.000    0.000    0.000 
#
# Total GULP energy -290090.082083 kJ/mol
# GULP energy per Si atom -5578.655425 kJ/mol
# Density = 2.085043 g / cm^3
# Si number density = 20.897994 Si / 1000 Ang^3
#
#
#
# Elastic Constant Matrix: (Units=GPa)
#
#
# Indices 1 2 3 4 5 6 
#
# 1 57.2382 13.6518 7.6566 0.0000 -0.5276 0.0000
# 2 13.6518 57.2382 7.6566 0.0000 0.5276 0.0000
# 3 7.6566 7.6566 117.2254 0.0000 0.0000 0.0000
# 4 0.0000 0.0000 0.0000 28.8165 0.0000 0.5276
# 5 -0.5276 0.5276 0.0000 0.0000 28.8165 0.0000
# 6 0.0000 0.0000 0.0000 0.5276 0.0000 21.7932
#
#
#
# Elastic Compliance Matrix: (Units=1/GPa)
#
#
# Indices 1 2 3 4 5 6 
#
# 1 0.018631 -0.004322 -0.000935 0.000000 0.000420 0.000000
# 2 -0.004322 0.018631 -0.000935 0.000000 -0.000420 0.000000
# 3 -0.000935 -0.000935 0.008653 0.000000 0.000000 0.000000
# 4 0.000000 0.000000 0.000000 0.034718 0.000000 -0.000840
# 5 0.000420 -0.000420 0.000000 0.000000 0.034718 0.000000
# 6 0.000000 0.000000 0.000000 -0.000840 0.000000 0.045906
#
#
# Mechanical properties :
#
#
# Convention : Reuss Voigt Hill
#
# Bulk Modulus (GPa) = 29.82320 32.18132 31.00226
# Shear Modulus (GPa) = 27.05397 29.40101 28.22749
#
# Velocity S-wave (km/s) = 3.60192 3.75491 3.67921
# Velocity P-wave (km/s) = 5.62141 5.85080 5.73725
#
# Compressibility (1/GPa) = 0.03353094
#
# Stress axis : x y z
#
# Youngs Moduli (GPa) = 53.67496 53.67496 115.57144
#
# Poissons Ratio (x) = 0.23201 0.10801
# Poissons Ratio (y) = 0.23201 0.10801
# Poissons Ratio (z) = 0.05016 0.05016
#
# Static dielectric constant tensor:
#      x y z
#    x 1.763620 0.000000 0.000000 
#    y 0.000000 1.763620 0.000000 
#    z 0.000000 0.000000 1.768170 
# 
# From -- ./inp_files/3511.got.cif
#   From: 2010.05.17/outbox.cif.g08.bks.cpg/sg163_2_cif.got.tgz:3511.got - 2010.05.20 10:56:03.
