data_PCOD9578402
_publ_section_title
;
Structure prediction by ZEFSAII (Michael W. Deem and Ramdas Pophale) SiO2 
 PCOD9578402
Probable space group: P -3 M 1
;
_chemical_formula_sum "Si O2"
_cell_formula_units_Z 60
_cell_length_a 20.260560
_cell_length_b 20.260560
_cell_length_c 10.194246
_cell_angle_alpha 90.000000
_cell_angle_beta 90.000000
_cell_angle_gamma 120.000000
_cell_volume 3624.003690
_symmetry_space_group_name_H-M "P -3 M 1"
_symmetry_group_IT_number 164
_symmetry_cell_setting 'hexagonal'
loop_
_space_group_symop_operation_xyz
x,y,z
-y,x-y,z
-x+y,-x,z
x-y,-y,-z
-x,-x+y,-z
y,x,-z
-x,-y,-z
y,-x+y,-z
x-y,x,-z
-x+y,y,z
x,x-y,z
-y,-x,z
loop_
_atom_site_type_symbol
_atom_site_label
_atom_site_fract_x
_atom_site_fract_y
_atom_site_fract_z
Si Si1 0.080466 0.305413 0.745531
Si Si2 0.291458 0.861789 0.516992
Si Si3 0.594984 0.686597 0.987314
Si Si4 0.660218 0.754699 0.259918
Si Si5 0.075505 0.537753 0.908812
Si Si6 0.463336 0.926671 0.596709
O O1 0.133493 0.266985 0.741194
O O2 0.101747 0.360444 0.620416
O O3 0.989154 0.254985 0.751274
O O4 0.105626 0.360440 0.871813
O O5 0.227474 0.772527 0.506755
O O6 0.295544 0.901619 0.378320
O O7 0.373710 0.879455 0.564209
O O8 0.611075 0.727123 0.126844
O O9 0.636359 0.636359 0.000000
O O10 0.508706 0.627027 0.945833
O O11 0.682445 0.841223 0.287272
O O12 0.055232 0.527616 0.753469
O O13 0.000000 0.500000 0.000000
O O14 0.500000 0.000000 0.500000
#
# Coordination Sequence:
#
# PCOD9578402 Si02
#       6
#    12  12  12  12   6   6
#     4  10  18  32  52  75 104 137 176 220 266 319
#     4  10  22  36  52  79 109 139 175 217 272 323
#     4   9  18  30  48  71 104 134 166 210 264 311
#     4  10  20  34  51  76 108 142 176 222 272 321
#     4  10  20  32  48  82 112 136 168 222 272 312
#     4  12  22  34  60  84 108 142 188 228 270 318
#
# _framework density 16.556273999999998
#
# number of rings (size 3 to 8) (size 9 to 14) (size 15 to 20)
#    0.000    2.000    2.000    2.400    5.600    0.000 
#    0.600    0.000    0.000    0.400    0.000    0.000 
#    1.000    9.600    0.000    0.000    0.000    1.600 
#
# Total GULP energy -334317.282415 kJ/mol
# GULP energy per Si atom -5571.954707 kJ/mol
# Density = 1.651859 g / cm^3
# Si number density = 16.556274 Si / 1000 Ang^3
#
#
#
# Elastic Constant Matrix: (Units=GPa)
#
#
# Indices 1 2 3 4 5 6 
#
# 1 77.5720 37.2896 17.6696 1.1036 0.0000 0.0000
# 2 37.2896 77.5720 17.6696 -1.1036 0.0000 0.0000
# 3 17.6696 17.6696 127.6037 0.0000 0.0000 0.0000
# 4 1.1036 -1.1036 0.0000 22.5150 0.0000 0.0000
# 5 0.0000 0.0000 0.0000 0.0000 22.5150 1.1036
# 6 0.0000 0.0000 0.0000 0.0000 1.1036 20.1412
#
#
#
# Elastic Compliance Matrix: (Units=1/GPa)
#
#
# Indices 1 2 3 4 5 6 
#
# 1 0.016993 -0.007899 -0.001259 -0.001220 0.000000 0.000000
# 2 -0.007899 0.016993 -0.001259 0.001220 0.000000 0.000000
# 3 -0.001259 -0.001259 0.008185 0.000000 0.000000 0.000000
# 4 -0.001220 0.001220 0.000000 0.044535 0.000000 0.000000
# 5 0.000000 0.000000 0.000000 0.000000 0.044535 -0.002440
# 6 0.000000 0.000000 0.000000 0.000000 -0.002440 0.049783
#
#
# Mechanical properties :
#
#
# Convention : Reuss Voigt Hill
#
# Bulk Modulus (GPa) = 46.86966 47.55614 47.21290
# Shear Modulus (GPa) = 23.92691 27.04215 25.48453
#
# Velocity S-wave (km/s) = 3.80569 4.04585 3.92761
# Velocity P-wave (km/s) = 6.90520 7.11418 7.01047
#
# Compressibility (1/GPa) = 0.02133576
#
# Stress axis : x y z
#
# Youngs Moduli (GPa) = 58.84924 58.84924 122.16732
#
# Poissons Ratio (x) = 0.46485 0.15383
# Poissons Ratio (y) = 0.46485 0.15383
# Poissons Ratio (z) = 0.07410 0.07410
#
# Static dielectric constant tensor:
#      x y z
#    x 1.566100 0.000000 0.000000 
#    y 0.000000 1.566100 0.000000 
#    z 0.000000 0.000000 1.596360 
# 
# From -- ./inp_files/1634.got.cif
#   From: 2010.05.17/outbox.cif.g08.bks.cpg/sg164_1_cif.got.tgz:1634.got - 2010.05.20 10:58:56.
