data_PCOD9578462
_publ_section_title
;
Structure prediction by ZEFSAII (Michael W. Deem and Ramdas Pophale) SiO2 
 PCOD9578462
Probable space group: P -3 M 1
;
_chemical_formula_sum "Si O2"
_cell_formula_units_Z 96
_cell_length_a 17.721968
_cell_length_b 17.721968
_cell_length_c 22.943738
_cell_angle_alpha 90.000000
_cell_angle_beta 90.000000
_cell_angle_gamma 120.000000
_cell_volume 6240.490156
_symmetry_space_group_name_H-M "P -3 M 1"
_symmetry_group_IT_number 164
_symmetry_cell_setting 'hexagonal'
loop_
_space_group_symop_operation_xyz
x,y,z
-y,x-y,z
-x+y,-x,z
x-y,-y,-z
-x,-x+y,-z
y,x,-z
-x,-y,-z
y,-x+y,-z
x-y,x,-z
-x+y,y,z
x,x-y,z
-y,-x,z
loop_
_atom_site_type_symbol
_atom_site_label
_atom_site_fract_x
_atom_site_fract_y
_atom_site_fract_z
Si Si1 0.513381 0.667927 0.346903
Si Si2 0.626516 0.725964 0.229934
Si Si3 0.667403 0.511382 0.885404
Si Si4 0.373488 0.099449 0.229932
Si Si5 0.843979 0.511382 0.114593
Si Si6 0.408550 0.408550 0.433626
Si Si7 0.845456 0.332074 0.346902
Si Si8 0.726592 0.098382 0.999998
O O1 0.501692 0.750846 0.357922
O O2 0.420343 0.579658 0.343683
O O3 0.564128 0.684071 0.285876
O O4 0.569781 0.655515 0.397050
O O5 0.655846 0.827923 0.229427
O O6 0.569797 0.684264 0.171812
O O7 0.702672 0.702671 0.232378
O O8 0.742093 0.484185 0.885287
O O9 0.572686 0.427315 0.885182
O O10 0.683916 0.569059 0.942946
O O11 0.344161 0.172081 0.229426
O O12 0.430203 0.114465 0.171809
O O13 0.435876 0.119942 0.285874
O O14 0.742093 0.484186 0.114713
O O15 0.854629 0.427315 0.114814
O O16 0.885141 0.569059 0.057051
O O17 0.380691 0.380691 0.500000
O O18 0.500000 0.500000 0.435623
O O19 0.430218 0.344485 0.397049
O O20 0.840682 0.420341 0.343684
O O21 0.750848 0.249153 0.357920
O O22 0.827898 0.172103 0.999997
O O23 0.706169 0.000000 0.000000
#
# Coordination Sequence:
#
# PCOD9578462 Si02
#       8
#    12  12  12  12  12  12  12  12
#     4  10  19  31  48  70  97 127 161 198 238 282
#     4  10  20  33  50  72  96 125 159 199 243 286
#     4  10  20  32  48  70  99 132 165 198 234 277
#     4  10  20  33  50  72  96 125 159 199 243 286
#     4  10  20  32  48  70  99 132 165 198 234 277
#     4   9  18  32  48  66  92 125 158 194 234 277
#     4  10  19  31  48  70  97 127 161 198 238 282
#     4  10  21  35  49  68  93 125 162 202 247 291
#
# _framework density 15.383406000000001
#
# number of rings (size 3 to 8) (size 9 to 14) (size 15 to 20)
#    0.000    2.125    1.250    2.375    0.000    4.000 
#    0.000    3.750    0.000    1.875    0.000    0.000 
#    0.000    6.000    0.000    0.000    0.000   11.875 
#
# Total GULP energy -535608.158565 kJ/mol
# GULP energy per Si atom -5579.251652 kJ/mol
# Density = 1.534839 g / cm^3
# Si number density = 15.383406 Si / 1000 Ang^3
#
#
#
# Elastic Constant Matrix: (Units=GPa)
#
#
# Indices 1 2 3 4 5 6 
#
# 1 102.5937 83.4156 52.1985 -0.0002 0.0000 0.0000
# 2 83.4156 102.5937 52.1985 0.0002 0.0000 0.0000
# 3 52.1985 52.1985 140.1817 0.0000 0.0000 0.0000
# 4 -0.0002 0.0002 0.0000 18.8516 0.0000 0.0000
# 5 0.0000 0.0000 0.0000 0.0000 18.8516 -0.0002
# 6 0.0000 0.0000 0.0000 0.0000 -0.0002 9.5891
#
#
#
# Elastic Compliance Matrix: (Units=1/GPa)
#
#
# Indices 1 2 3 4 5 6 
#
# 1 0.029470 -0.022673 -0.002531 0.000001 0.000000 0.000000
# 2 -0.022673 0.029470 -0.002531 -0.000001 0.000000 0.000000
# 3 -0.002531 -0.002531 0.009018 0.000000 0.000000 0.000000
# 4 0.000001 -0.000001 0.000000 0.053046 0.000000 0.000000
# 5 0.000000 0.000000 0.000000 0.000000 0.053046 0.000001
# 6 0.000000 0.000000 0.000000 0.000000 0.000001 0.104285
#
#
# Mechanical properties :
#
#
# Convention : Reuss Voigt Hill
#
# Bulk Modulus (GPa) = 80.07546 80.11048 80.09297
# Shear Modulus (GPa) = 14.79437 19.96222 17.37830
#
# Velocity S-wave (km/s) = 3.10451 3.60619 3.36471
# Velocity P-wave (km/s) = 8.06330 8.33837 8.20199
#
# Compressibility (1/GPa) = 0.01248822
#
# Stress axis : x y z
#
# Youngs Moduli (GPa) = 33.93336 33.93336 110.88549
#
# Poissons Ratio (x) = 0.76937 0.28062
# Poissons Ratio (y) = 0.76937 0.28062
# Poissons Ratio (z) = 0.08588 0.08588
#
# Static dielectric constant tensor:
#      x y z
#    x 1.494130 0.000000 0.000000 
#    y 0.000000 1.494130 0.000000 
#    z 0.000000 0.000000 1.510620 
# 
# From -- ./inp_files/4703.got.cif
#   From: 2010.05.17/outbox.cif.g08.bks.cpg/sg164_3_cif.got.tgz:4703.got - 2010.05.20 10:58:56.
