data_PCOD9578704
_publ_section_title
;
Structure prediction by ZEFSAII (Michael W. Deem and Ramdas Pophale) SiO2 
 PCOD9578704
Probable space group: P -3 M 1
;
_chemical_formula_sum "Si O2"
_cell_formula_units_Z 60
_cell_length_a 17.959517
_cell_length_b 17.959517
_cell_length_c 12.497189
_cell_angle_alpha 90.000000
_cell_angle_beta 90.000000
_cell_angle_gamma 120.000000
_cell_volume 3490.858738
_symmetry_space_group_name_H-M "P -3 M 1"
_symmetry_group_IT_number 164
_symmetry_cell_setting 'hexagonal'
loop_
_space_group_symop_operation_xyz
x,y,z
-y,x-y,z
-x+y,-x,z
x-y,-y,-z
-x,-x+y,-z
y,x,-z
-x,-y,-z
y,-x+y,-z
x-y,x,-z
-x+y,y,z
x,x-y,z
-y,-x,z
loop_
_atom_site_type_symbol
_atom_site_label
_atom_site_fract_x
_atom_site_fract_y
_atom_site_fract_z
Si Si1 0.908914 0.639322 0.796757
Si Si2 0.333943 0.844364 0.013080
Si Si3 0.591127 0.584065 0.623931
Si Si4 0.333351 0.492800 0.768993
Si Si5 0.174321 0.000856 0.128314
O O1 0.818690 0.637380 0.788663
O O2 0.900579 0.582170 0.900348
O O3 0.927629 0.600398 0.692473
O O4 0.980302 0.738422 0.815441
O O5 0.423008 0.846015 0.033327
O O6 0.253088 0.746913 0.020464
O O7 0.334413 0.872404 0.890394
O O8 0.608956 0.608956 0.500000
O O9 0.515202 0.484798 0.628844
O O10 0.554425 0.638370 0.684213
O O11 0.240951 0.481901 0.747626
O O12 0.406656 0.593345 0.767956
O O13 0.182931 0.091466 0.157528
O O14 0.078293 0.921708 0.150787
O O15 0.186210 0.000000 0.000000
#
# Coordination Sequence:
#
# PCOD9578704 Si02
#       5
#    12  12  12  12  12
#     4  10  21  34  51  77 105 133 168 213 260 307
#     4   9  17  30  50  77 107 136 164 199 250 310
#     4  10  22  38  53  71  99 138 179 215 254 300
#     4   9  18  32  53  78 102 129 163 204 250 302
#     4   9  18  32  51  75 105 138 170 206 251 308
#
# _framework density 17.187747999999999
#
# number of rings (size 3 to 8) (size 9 to 14) (size 15 to 20)
#    0.000    2.600    0.000    1.200    2.800    4.000 
#    0.000    3.000    0.000    0.400    0.000    0.000 
#    0.000    4.000    0.000    0.000    0.000    0.000 
#
# Total GULP energy -334872.678481 kJ/mol
# GULP energy per Si atom -5581.211308 kJ/mol
# Density = 1.714863 g / cm^3
# Si number density = 17.187748 Si / 1000 Ang^3
#
#
#
# Elastic Constant Matrix: (Units=GPa)
#
#
# Indices 1 2 3 4 5 6 
#
# 1 69.9195 42.7676 53.0131 -0.2803 0.0000 0.0000
# 2 42.7676 69.9195 53.0131 0.2803 0.0000 0.0000
# 3 53.0131 53.0131 115.1951 0.0000 0.0000 0.0000
# 4 -0.2803 0.2803 0.0000 21.9720 0.0000 0.0000
# 5 0.0000 0.0000 0.0000 0.0000 21.9720 -0.2803
# 6 0.0000 0.0000 0.0000 0.0000 -0.2803 13.5760
#
#
#
# Elastic Compliance Matrix: (Units=1/GPa)
#
#
# Indices 1 2 3 4 5 6 
#
# 1 0.026245 -0.010594 -0.007203 0.000470 0.000000 0.000000
# 2 -0.010594 0.026245 -0.007203 -0.000470 0.000000 0.000000
# 3 -0.007203 -0.007203 0.015310 0.000000 0.000000 0.000000
# 4 0.000470 -0.000470 0.000000 0.045525 0.000000 0.000000
# 5 0.000000 0.000000 0.000000 0.000000 0.045525 0.000940
# 6 0.000000 0.000000 0.000000 0.000000 0.000940 0.073679
#
#
# Mechanical properties :
#
#
# Convention : Reuss Voigt Hill
#
# Bulk Modulus (GPa) = 56.17426 61.40242 58.78834
# Shear Modulus (GPa) = 17.33331 18.58667 17.95999
#
# Velocity S-wave (km/s) = 3.17909 3.29202 3.23604
# Velocity P-wave (km/s) = 6.79920 7.08886 6.94554
#
# Compressibility (1/GPa) = 0.01780175
#
# Stress axis : x y z
#
# Youngs Moduli (GPa) = 38.10212 38.10212 65.31552
#
# Poissons Ratio (x) = 0.40366 0.47045
# Poissons Ratio (y) = 0.40366 0.47045
# Poissons Ratio (z) = 0.27444 0.27444
#
# Static dielectric constant tensor:
#      x y z
#    x 1.583480 0.000000 0.000000 
#    y 0.000000 1.583480 0.000000 
#    z 0.000000 0.000000 1.549430 
# 
# From -- ./inp_files/2664.got.cif
#   From: 2010.05.17/outbox.cif.g08.bks.cpg/sg164_2_cif.got.tgz:2664.got - 2010.05.20 10:58:56.
