data_PCOD9578673
_publ_section_title
;
Structure prediction by ZEFSAII (Michael W. Deem and Ramdas Pophale) SiO2 
 PCOD9578673
Probable space group: P -3 M 1
;
_chemical_formula_sum "Si O2"
_cell_formula_units_Z 48
_cell_length_a 18.366435
_cell_length_b 18.366435
_cell_length_c 7.694761
_cell_angle_alpha 90.000000
_cell_angle_beta 90.000000
_cell_angle_gamma 120.000000
_cell_volume 2247.892297
_symmetry_space_group_name_H-M "P -3 M 1"
_symmetry_group_IT_number 164
_symmetry_cell_setting 'hexagonal'
loop_
_space_group_symop_operation_xyz
x,y,z
-y,x-y,z
-x+y,-x,z
x-y,-y,-z
-x,-x+y,-z
y,x,-z
-x,-y,-z
y,-x+y,-z
x-y,x,-z
-x+y,y,z
x,x-y,z
-y,-x,z
loop_
_atom_site_type_symbol
_atom_site_label
_atom_site_fract_x
_atom_site_fract_y
_atom_site_fract_z
Si Si1 0.798308 0.042837 0.827753
Si Si2 0.365515 0.094680 0.340093
Si Si3 0.701440 0.567590 0.986125
Si Si4 0.160696 0.662388 0.373995
O O1 0.886388 0.113613 0.750157
O O2 0.753693 0.091706 0.910175
O O3 0.730265 0.976121 0.696346
O O4 0.811154 0.000000 0.000000
O O5 0.365681 0.182841 0.331318
O O6 0.416023 0.100213 0.513234
O O7 0.420099 0.093124 0.174763
O O8 0.767723 0.535446 0.015160
O O9 0.645629 0.515960 0.825145
O O10 0.165193 0.582597 0.442446
O O11 0.252970 0.747031 0.377473
#
# Coordination Sequence:
#
# PCOD9578673 Si02
#       4
#    12  12  12  12
#     4   9  16  30  54  79 104 138 180 223 270 331
#     4   9  18  33  53  77 109 149 186 224 281 347
#     4   8  16  31  49  71 101 136 176 224 278 335
#     4  10  20  34  53  77 107 146 193 241 286 335
#
# _framework density 21.353335000000001
#
# number of rings (size 3 to 8) (size 9 to 14) (size 15 to 20)
#    0.000    3.000    0.000    2.500    0.000    2.000 
#    0.000    2.500    0.000   18.000    0.000    0.000 
#    0.000    0.000    0.000  113.250    0.000    6.250 
#
# Total GULP energy -267492.577782 kJ/mol
# GULP energy per Si atom -5572.762037 kJ/mol
# Density = 2.130473 g / cm^3
# Si number density = 21.353335 Si / 1000 Ang^3
#
#
#
# Elastic Constant Matrix: (Units=GPa)
#
#
# Indices 1 2 3 4 5 6 
#
# 1 75.8524 34.9252 35.3561 0.0271 0.0000 0.0000
# 2 34.9252 75.8524 35.3561 -0.0271 0.0000 0.0000
# 3 35.3561 35.3561 124.3906 0.0000 0.0000 0.0000
# 4 0.0271 -0.0271 0.0000 19.9770 0.0000 0.0000
# 5 0.0000 0.0000 0.0000 0.0000 19.9770 0.0271
# 6 0.0000 0.0000 0.0000 0.0000 0.0271 20.4636
#
#
#
# Elastic Compliance Matrix: (Units=1/GPa)
#
#
# Indices 1 2 3 4 5 6 
#
# 1 0.017731 -0.006703 -0.003135 -0.000033 0.000000 0.000000
# 2 -0.006703 0.017731 -0.003135 0.000033 0.000000 0.000000
# 3 -0.003135 -0.003135 0.009821 0.000000 0.000000 0.000000
# 4 -0.000033 0.000033 0.000000 0.050058 0.000000 0.000000
# 5 0.000000 0.000000 0.000000 0.000000 0.050058 -0.000066
# 6 0.000000 0.000000 0.000000 0.000000 -0.000066 0.048867
#
#
# Mechanical properties :
#
#
# Convention : Reuss Voigt Hill
#
# Bulk Modulus (GPa) = 51.70932 54.15222 52.93077
# Shear Modulus (GPa) = 22.05993 23.44740 22.75366
#
# Velocity S-wave (km/s) = 3.21766 3.31730 3.26786
# Velocity P-wave (km/s) = 6.17034 6.33149 6.25143
#
# Compressibility (1/GPa) = 0.01933887
#
# Stress axis : x y z
#
# Youngs Moduli (GPa) = 56.39904 56.39904 101.82190
#
# Poissons Ratio (x) = 0.37803 0.31916
# Poissons Ratio (y) = 0.37803 0.31916
# Poissons Ratio (z) = 0.17678 0.17678
#
# Static dielectric constant tensor:
#      x y z
#    x 1.784030 0.000000 0.000000 
#    y 0.000000 1.784030 0.000000 
#    z 0.000000 0.000000 1.849690 
# 
# From -- ./inp_files/1258.got.cif
#   From: 2010.05.17/outbox.cif.g08.bks.cpg/sg164_1_cif.got.tgz:1258.got - 2010.05.20 10:58:56.
