data_PCOD9578629
_publ_section_title
;
Structure prediction by ZEFSAII (Michael W. Deem and Ramdas Pophale) SiO2 
 PCOD9578629
Probable space group: P -3 M 1
;
_chemical_formula_sum "Si O2"
_cell_formula_units_Z 54
_cell_length_a 12.814022
_cell_length_b 12.814022
_cell_length_c 23.672558
_cell_angle_alpha 90.000000
_cell_angle_beta 90.000000
_cell_angle_gamma 120.000000
_cell_volume 3366.252985
_symmetry_space_group_name_H-M "P -3 M 1"
_symmetry_group_IT_number 164
_symmetry_cell_setting 'hexagonal'
loop_
_space_group_symop_operation_xyz
x,y,z
-y,x-y,z
-x+y,-x,z
x-y,-y,-z
-x,-x+y,-z
y,x,-z
-x,-y,-z
y,-x+y,-z
x-y,x,-z
-x+y,y,z
x,x-y,z
-y,-x,z
loop_
_atom_site_type_symbol
_atom_site_label
_atom_site_fract_x
_atom_site_fract_y
_atom_site_fract_z
Si Si1 0.418784 0.333410 0.678343
Si Si2 0.248551 0.248551 0.000000
Si Si3 0.085870 0.667444 0.448782
Si Si4 0.581511 0.914122 0.891551
Si Si5 0.999841 0.248326 0.215718
O O1 0.447809 0.223905 0.679786
O O2 0.540230 0.459771 0.688191
O O3 0.373432 0.334490 0.614740
O O4 0.320934 0.305094 0.726484
O O5 0.308203 0.333448 0.945778
O O6 0.117835 0.235669 0.008707
O O7 0.104222 0.552111 0.452013
O O8 0.212114 0.787887 0.454787
O O9 0.000000 0.655930 0.500000
O O10 0.461677 0.923353 0.893582
O O11 0.549687 0.774844 0.890853
O O12 0.660317 0.975722 0.835756
O O13 0.121995 0.243989 0.206328
O O14 0.885479 0.114522 0.218752
#
# Coordination Sequence:
#
# PCOD9578629 Si02
#       5
#    12   6  12  12  12
#     4   9  17  30  48  69  92 120 155 195 238 282
#     4  10  20  34  54  78 104 134 166 200 236 278
#     4   9  17  29  46  67  91 120 154 193 236 282
#     4  10  20  34  52  73  98 128 161 198 239 282
#     4  10  20  33  50  71  96 126 158 194 235 281
#
# _framework density 16.041574000000001
#
# number of rings (size 3 to 8) (size 9 to 14) (size 15 to 20)
#    0.000    2.444    0.000    2.667    0.000    2.667 
#    0.000    2.222    0.000    6.889    0.000    0.000 
#    0.000    0.000    0.000    0.000    0.000    0.000 
#
# Total GULP energy -301087.343104 kJ/mol
# GULP energy per Si atom -5575.691539 kJ/mol
# Density = 1.600506 g / cm^3
# Si number density = 16.041574 Si / 1000 Ang^3
#
#
#
# Elastic Constant Matrix: (Units=GPa)
#
#
# Indices 1 2 3 4 5 6 
#
# 1 89.1513 78.4140 80.2591 6.7545 0.0000 0.0000
# 2 78.4140 89.1513 80.2591 -6.7545 0.0000 0.0000
# 3 80.2591 80.2591 153.0828 0.0000 0.0000 0.0000
# 4 6.7545 -6.7545 0.0000 22.8842 0.0000 0.0000
# 5 0.0000 0.0000 0.0000 0.0000 22.8842 6.7545
# 6 0.0000 0.0000 0.0000 0.0000 6.7545 5.3686
#
#
#
# Elastic Compliance Matrix: (Units=1/GPa)
#
#
# Indices 1 2 3 4 5 6 
#
# 1 0.080069 -0.068080 -0.006286 -0.043728 0.000000 0.000000
# 2 -0.068080 0.080069 -0.006286 0.043728 0.000000 0.000000
# 3 -0.006286 -0.006286 0.013124 0.000000 0.000000 0.000000
# 4 -0.043728 0.043728 0.000000 0.069511 0.000000 0.000000
# 5 0.000000 0.000000 0.000000 0.000000 0.069511 -0.087455
# 6 0.000000 0.000000 0.000000 0.000000 -0.087455 0.296298
#
#
# Mechanical properties :
#
#
# Convention : Reuss Voigt Hill
#
# Bulk Modulus (GPa) = 83.62004 89.91666 86.76835
# Shear Modulus (GPa) = 6.46101 16.39097 11.42599
#
# Velocity S-wave (km/s) = 2.00908 3.20000 2.67174
# Velocity P-wave (km/s) = 7.59092 8.35627 7.98278
#
# Compressibility (1/GPa) = 0.01195886
#
# Stress axis : x y z
#
# Youngs Moduli (GPa) = 12.48920 12.48920 76.19911
#
# Poissons Ratio (x) = 0.85026 0.47897
# Poissons Ratio (y) = 0.85026 0.47897
# Poissons Ratio (z) = 0.07850 0.07850
#
# Static dielectric constant tensor:
#      x y z
#    x 1.505740 0.000000 0.000000 
#    y 0.000000 1.505740 0.000000 
#    z 0.000000 0.000000 1.543300 
# 
# From -- ./inp_files/4860.got.cif
#   From: 2010.05.17/outbox.cif.g08.bks.cpg/sg164_3_cif.got.tgz:4860.got - 2010.05.20 10:58:56.
