data_PCOD9578603
_publ_section_title
;
Structure prediction by ZEFSAII (Michael W. Deem and Ramdas Pophale) SiO2 
 PCOD9578603
Probable space group: P -3 M 1
;
_chemical_formula_sum "Si O2"
_cell_formula_units_Z 66
_cell_length_a 12.734249
_cell_length_b 12.734249
_cell_length_c 28.721177
_cell_angle_alpha 90.000000
_cell_angle_beta 90.000000
_cell_angle_gamma 120.000000
_cell_volume 4033.476587
_symmetry_space_group_name_H-M "P -3 M 1"
_symmetry_group_IT_number 164
_symmetry_cell_setting 'hexagonal'
loop_
_space_group_symop_operation_xyz
x,y,z
-y,x-y,z
-x+y,-x,z
x-y,-y,-z
-x,-x+y,-z
y,x,-z
-x,-y,-z
y,-x+y,-z
x-y,x,-z
-x+y,y,z
x,x-y,z
-y,-x,z
loop_
_atom_site_type_symbol
_atom_site_label
_atom_site_fract_x
_atom_site_fract_y
_atom_site_fract_z
Si Si1 0.333784 0.915991 0.859725
Si Si2 0.249852 0.999782 0.319967
Si Si3 0.751448 0.751221 0.947184
Si Si4 0.250130 0.000000 0.500000
Si Si5 0.417121 0.332630 0.409800
Si Si6 0.416935 0.333046 0.770303
O O1 0.447271 0.894542 0.862318
O O2 0.209899 0.790102 0.852537
O O3 0.320272 0.973830 0.907562
O O4 0.357547 0.005620 0.816642
O O5 0.235369 0.117685 0.314800
O O6 0.337183 0.023568 0.363885
O O7 0.307455 0.977998 0.273736
O O8 0.119787 0.880214 0.327625
O O9 0.780651 0.890325 0.945286
O O10 0.872893 0.745785 0.938893
O O11 0.708091 0.708091 0.000000
O O12 0.237307 0.118653 0.506537
O O13 0.333873 0.023246 0.454973
O O14 0.449147 0.224574 0.409672
O O15 0.537652 0.462349 0.410563
O O16 0.434808 0.217404 0.775525
O O17 0.545095 0.454906 0.762952
#
# Coordination Sequence:
#
# PCOD9578603 Si02
#       6
#    12  12  12   6  12  12
#     4  10  20  33  49  69  95 127 162 199 239 285
#     4  10  20  34  53  76 102 131 163 201 244 290
#     4   9  17  30  49  72  96 122 154 194 240 288
#     4  10  20  34  54  78 104 134 168 208 252 298
#     4  10  20  34  52  74 101 133 168 205 245 290
#     4  10  20  34  52  73  98 128 162 201 244 290
#
# _framework density 16.363054999999999
#
# number of rings (size 3 to 8) (size 9 to 14) (size 15 to 20)
#    0.000    2.182    0.000    3.455    0.000    1.091 
#    0.000    1.818    0.000   17.091    0.000    0.000 
#    0.000    0.000    0.000    0.000    0.000    0.000 
#
# Total GULP energy -368315.336949 kJ/mol
# GULP energy per Si atom -5580.535408 kJ/mol
# Density = 1.632581 g / cm^3
# Si number density = 16.363055 Si / 1000 Ang^3
#
#
#
# Elastic Constant Matrix: (Units=GPa)
#
#
# Indices 1 2 3 4 5 6 
#
# 1 125.3601 86.4113 91.4359 -3.0875 0.0000 0.0000
# 2 86.4113 125.3601 91.4359 3.0875 0.0000 0.0000
# 3 91.4359 91.4359 144.2755 0.0000 0.0000 0.0000
# 4 -3.0875 3.0875 0.0000 24.9606 0.0000 0.0000
# 5 0.0000 0.0000 0.0000 0.0000 24.9606 -3.0875
# 6 0.0000 0.0000 0.0000 0.0000 -3.0875 19.4744
#
#
#
# Elastic Compliance Matrix: (Units=1/GPa)
#
#
# Indices 1 2 3 4 5 6 
#
# 1 0.018309 -0.007879 -0.006610 0.003239 0.000000 0.000000
# 2 -0.007879 0.018309 -0.006610 -0.003239 0.000000 0.000000
# 3 -0.006610 -0.006610 0.015310 0.000000 0.000000 0.000000
# 4 0.003239 -0.003239 0.000000 0.040864 0.000000 0.000000
# 5 0.000000 0.000000 0.000000 0.000000 0.040864 0.006479
# 6 0.000000 0.000000 0.000000 0.000000 0.006479 0.052377
#
#
# Mechanical properties :
#
#
# Convention : Reuss Voigt Hill
#
# Bulk Modulus (GPa) = 102.78273 103.72910 103.25592
# Shear Modulus (GPa) = 21.60051 22.26000 21.93026
#
# Velocity S-wave (km/s) = 3.63723 3.69234 3.66489
# Velocity P-wave (km/s) = 8.97717 9.03923 9.00825
#
# Compressibility (1/GPa) = 0.00972926
#
# Stress axis : x y z
#
# Youngs Moduli (GPa) = 54.61717 54.61717 65.31752
#
# Poissons Ratio (x) = 0.43033 0.43177
# Poissons Ratio (y) = 0.43033 0.43177
# Poissons Ratio (z) = 0.36103 0.36103
#
# Static dielectric constant tensor:
#      x y z
#    x 1.517860 0.000000 0.000000 
#    y 0.000000 1.517860 0.000000 
#    z 0.000000 0.000000 1.534480 
# 
# From -- ./inp_files/5428.got.cif
#   From: 2010.05.17/outbox.cif.g08.bks.cpg/sg164_3_cif.got.tgz:5428.got - 2010.05.20 10:58:56.
