data_PCOD9578165
_publ_section_title
;
Structure prediction by ZEFSAII (Michael W. Deem and Ramdas Pophale) SiO2 
 PCOD9578165
Probable space group: P -3 1 C
;
_chemical_formula_sum "Si O2"
_cell_formula_units_Z 30
_cell_length_a 11.800960
_cell_length_b 11.800960
_cell_length_c 12.298486
_cell_angle_alpha 90.000000
_cell_angle_beta 90.000000
_cell_angle_gamma 120.000000
_cell_volume 1483.258888
_symmetry_space_group_name_H-M "P -3 1 C"
_symmetry_group_IT_number 163
_symmetry_cell_setting 'hexagonal'
loop_
_space_group_symop_operation_xyz
x,y,z
-y,x-y,z
-x+y,-x,z
-y,-x,1/2-z
-x+y,y,1/2-z
x,x-y,1/2-z
-x,-y,-z
y,-x+y,-z
x-y,x,-z
y,x,1/2+z
x-y,-y,1/2+z
-x,-x+y,1/2+z
loop_
_atom_site_type_symbol
_atom_site_label
_atom_site_fract_x
_atom_site_fract_y
_atom_site_fract_z
Si Si1 0.412350 0.081059 0.301331
Si Si2 0.514665 0.315533 0.978324
Si Si3 0.801004 0.602007 0.750000
O O1 0.533734 0.067467 0.250000
O O2 0.422239 0.211120 0.250000
O O3 0.422055 0.102738 0.431450
O O4 0.273111 0.952022 0.283032
O O5 0.552158 0.203456 0.000423
O O6 0.478892 0.289533 0.852388
#
# Coordination Sequence:
#
# PCOD9578165 Si02
#       3
#    12  12   6
#     4  12  24  46  71 103 139 189 234 286 352 418
#     4  10  21  42  67 102 136 180 229 291 345 416
#     4  12  28  38  70 106 144 184 226 296 354 412
#
# _framework density 20.225733999999999
#
# number of rings (size 3 to 8) (size 9 to 14) (size 15 to 20)
#    0.800    0.000    4.000    4.000    5.600    3.200 
#    2.400    0.000    0.000    2.400    0.000    0.000 
#    0.000    0.000    0.000    0.000    0.000    0.000 
#
# Total GULP energy -167046.863429 kJ/mol
# GULP energy per Si atom -5568.228781 kJ/mol
# Density = 2.017970 g / cm^3
# Si number density = 20.225734 Si / 1000 Ang^3
#
#
#
# Elastic Constant Matrix: (Units=GPa)
#
#
# Indices 1 2 3 4 5 6 
#
# 1 110.3913 57.4539 41.8371 -0.0003 -21.2651 0.0000
# 2 57.4539 110.3913 41.8371 0.0003 21.2651 0.0000
# 3 41.8371 41.8371 139.9702 0.0000 0.0000 0.0000
# 4 -0.0003 0.0003 0.0000 24.0696 0.0000 21.2651
# 5 -21.2651 21.2651 0.0000 0.0000 24.0696 -0.0003
# 6 0.0000 0.0000 0.0000 21.2651 -0.0003 26.4687
#
#
#
# Elastic Compliance Matrix: (Units=1/GPa)
#
#
# Indices 1 2 3 4 5 6 
#
# 1 0.036047 -0.029046 -0.002093 0.000001 0.057508 0.000000
# 2 -0.029046 0.036047 -0.002093 -0.000001 -0.057508 0.000000
# 3 -0.002093 -0.002093 0.008395 0.000000 0.000000 0.000000
# 4 0.000001 -0.000001 0.000000 0.143160 0.000000 -0.115016
# 5 0.057508 -0.057508 0.000000 0.000000 0.143160 0.000001
# 6 0.000000 0.000000 0.000000 -0.115016 0.000001 0.130185
#
#
# Mechanical properties :
#
#
# Convention : Reuss Voigt Hill
#
# Bulk Modulus (GPa) = 71.29099 71.44547 71.36823
# Shear Modulus (GPa) = 8.80079 29.56324 19.18202
#
# Velocity S-wave (km/s) = 2.08824 3.82732 3.08295
# Velocity P-wave (km/s) = 6.41393 7.41161 6.93074
#
# Compressibility (1/GPa) = 0.01402702
#
# Stress axis : x y z
#
# Youngs Moduli (GPa) = 27.74181 27.74181 119.11360
#
# Poissons Ratio (x) = 0.80578 0.24926
# Poissons Ratio (y) = 0.80578 0.24926
# Poissons Ratio (z) = 0.05805 0.05805
#
# Static dielectric constant tensor:
#      x y z
#    x 1.742310 0.000000 0.000000 
#    y 0.000000 1.742310 0.000000 
#    z 0.000000 0.000000 1.800420 
# 
# From -- ./inp_files/2028.got.cif
#   From: 2010.05.17/outbox.cif.g08.bks.cpg/sg163_2_cif.got.tgz:2028.got - 2010.05.20 10:56:03.
