data_PCOD9578115
_publ_section_title
;
Structure prediction by ZEFSAII (Michael W. Deem and Ramdas Pophale) SiO2 
 PCOD9578115
Probable space group: P -3 1 C
;
_chemical_formula_sum "Si O2"
_cell_formula_units_Z 58
_cell_length_a 14.143000
_cell_length_b 14.143000
_cell_length_c 14.220852
_cell_angle_alpha 90.000000
_cell_angle_beta 90.000000
_cell_angle_gamma 120.000000
_cell_volume 2463.424924
_symmetry_space_group_name_H-M "P -3 1 C"
_symmetry_group_IT_number 163
_symmetry_cell_setting 'hexagonal'
loop_
_space_group_symop_operation_xyz
x,y,z
-y,x-y,z
-x+y,-x,z
-y,-x,1/2-z
-x+y,y,1/2-z
x,x-y,1/2-z
-x,-y,-z
y,-x+y,-z
x-y,x,-z
y,x,1/2+z
x-y,-y,1/2+z
-x,-x+y,1/2+z
loop_
_atom_site_type_symbol
_atom_site_label
_atom_site_fract_x
_atom_site_fract_y
_atom_site_fract_z
Si Si1 0.000000 0.000000 0.889307
Si Si2 0.561562 0.197142 0.062134
Si Si3 0.827257 0.068744 0.133415
Si Si4 0.663908 0.953083 0.965602
Si Si5 0.469512 0.939023 0.750000
Si Si6 0.283964 0.933146 0.223711
O O1 0.875545 0.934112 0.861460
O O2 0.000000 0.000000 0.000000
O O3 0.691359 0.247484 0.048162
O O4 0.462541 0.101354 0.004164
O O5 0.540318 0.141240 0.165166
O O6 0.861030 0.187849 0.095011
O O7 0.763944 0.020960 0.229715
O O8 0.745827 0.988759 0.052224
O O9 0.700719 0.049563 0.888874
O O10 0.596766 0.021948 0.732028
O O11 0.187151 0.812850 0.250000
#
# Coordination Sequence:
#
# PCOD9578115 Si02
#       6
#     4  12  12  12   6  12
#     4  12  21  39  60  88 129 177 199 255 315 373
#     4   9  19  36  63  89 121 155 204 264 323 363
#     4  12  22  38  61  88 129 166 205 251 312 372
#     4  11  22  39  62  92 126 165 205 257 313 373
#     4  10  20  40  62  90 120 162 204 264 326 362
#     4  11  24  40  62  93 121 161 212 255 307 382
#
# _framework density 23.544454999999999
#
# number of rings (size 3 to 8) (size 9 to 14) (size 15 to 20)
#    0.414    0.828    2.069    4.966    0.000    3.310 
#    0.621   13.448    0.000    0.000    0.000    0.000 
#    0.000    0.000    0.000    0.000    0.000    0.000 
#
# Total GULP energy -323820.886409 kJ/mol
# GULP energy per Si atom -5583.118731 kJ/mol
# Density = 2.349087 g / cm^3
# Si number density = 23.544455 Si / 1000 Ang^3
#
#
#
# Elastic Constant Matrix: (Units=GPa)
#
#
# Indices 1 2 3 4 5 6 
#
# 1 96.0348 52.3220 10.2059 -0.0001 2.7755 0.0000
# 2 52.3220 96.0348 10.2059 0.0000 -2.7755 0.0000
# 3 10.2059 10.2059 87.0436 0.0000 0.0000 0.0000
# 4 -0.0001 0.0000 0.0000 12.2410 0.0000 -2.7755
# 5 2.7755 -2.7755 0.0000 0.0000 12.2410 -0.0001
# 6 0.0000 0.0000 0.0000 -2.7755 -0.0001 21.8564
#
#
#
# Elastic Compliance Matrix: (Units=1/GPa)
#
#
# Indices 1 2 3 4 5 6 
#
# 1 0.015203 -0.008352 -0.000803 0.000000 -0.005341 0.000000
# 2 -0.008352 0.015203 -0.000803 0.000000 0.005341 0.000000
# 3 -0.000803 -0.000803 0.011677 0.000000 0.000000 0.000000
# 4 0.000000 0.000000 0.000000 0.084115 0.000000 0.010682
# 5 -0.005341 0.005341 0.000000 0.000000 0.084115 0.000000
# 6 0.000000 0.000000 0.000000 0.010682 0.000000 0.047110
#
#
# Mechanical properties :
#
#
# Convention : Reuss Voigt Hill
#
# Bulk Modulus (GPa) = 45.11460 47.17565 46.14513
# Shear Modulus (GPa) = 17.56068 23.02631 20.29349
#
# Velocity S-wave (km/s) = 2.73399 3.13068 2.93904
# Velocity P-wave (km/s) = 5.40086 5.75748 5.58202
#
# Compressibility (1/GPa) = 0.02216577
#
# Stress axis : x y z
#
# Youngs Moduli (GPa) = 65.77681 65.77681 85.63938
#
# Poissons Ratio (x) = 0.54936 0.06879
# Poissons Ratio (y) = 0.54936 0.06879
# Poissons Ratio (z) = 0.05284 0.05284
#
# Static dielectric constant tensor:
#      x y z
#    x 1.794130 0.000000 0.000000 
#    y 0.000000 1.794130 0.000000 
#    z 0.000000 0.000000 5.215360 
# 
# From -- ./inp_files/2408.got.cif
#   From: 2010.05.17/outbox.cif.g08.bks.cpg/sg163_2_cif.got.tgz:2408.got - 2010.05.20 10:56:03.
