data_PCOD9578415
_publ_section_title
;
Structure prediction by ZEFSAII (Michael W. Deem and Ramdas Pophale) SiO2 
 PCOD9578415
Probable space group: P -3 M 1
;
_chemical_formula_sum "Si O2"
_cell_formula_units_Z 84
_cell_length_a 17.531558
_cell_length_b 17.531558
_cell_length_c 22.672922
_cell_angle_alpha 90.000000
_cell_angle_beta 90.000000
_cell_angle_gamma 120.000000
_cell_volume 6035.026081
_symmetry_space_group_name_H-M "P -3 M 1"
_symmetry_group_IT_number 164
_symmetry_cell_setting 'hexagonal'
loop_
_space_group_symop_operation_xyz
x,y,z
-y,x-y,z
-x+y,-x,z
x-y,-y,-z
-x,-x+y,-z
y,x,-z
-x,-y,-z
y,-x+y,-z
x-y,x,-z
-x+y,y,z
x,x-y,z
-y,-x,z
loop_
_atom_site_type_symbol
_atom_site_label
_atom_site_fract_x
_atom_site_fract_y
_atom_site_fract_z
Si Si1 0.425105 0.035019 0.136289
Si Si2 0.151289 0.667026 0.751702
Si Si3 0.667730 0.513400 0.595516
Si Si4 0.904074 0.272693 0.479964
Si Si5 0.332798 0.845321 0.970284
Si Si6 0.961956 0.390703 0.365145
Si Si7 0.667522 0.154578 0.889709
O O1 0.515258 0.030515 0.136697
O O2 0.434898 0.099291 0.189138
O O3 0.424490 0.077055 0.073454
O O4 0.349452 0.934122 0.142075
O O5 0.168164 0.584082 0.754742
O O6 0.242525 0.757476 0.746003
O O7 0.087653 0.648937 0.695929
O O8 0.758419 0.516837 0.612571
O O9 0.585830 0.414171 0.595956
O O10 0.681896 0.555313 0.529870
O O11 0.639725 0.572714 0.634585
O O12 0.828441 0.171560 0.476854
O O13 0.917733 0.321258 0.417773
O O14 0.000000 0.291319 0.500000
O O15 0.414274 0.828548 0.959724
O O16 0.242245 0.757756 0.956254
O O17 0.334004 0.863256 0.039860
O O18 0.953470 0.476735 0.378441
O O19 0.584835 0.169670 0.878407
O O20 0.758308 0.241693 0.875348
#
# Coordination Sequence:
#
# PCOD9578415 Si02
#       7
#    12  12  12  12  12  12  12
#     4   9  17  27  38  54  77 104 132 163 199 234
#     4  10  19  30  43  58  78 104 133 162 192 230
#     4   9  16  26  41  61  84 109 136 165 196 230
#     4   9  16  26  41  60  81 105 133 166 204 244
#     4   9  15  23  37  57  80 105 133 163 194 231
#     4   9  17  28  41  58  81 108 136 165 197 232
#     4   9  16  26  40  57  77 103 135 168 199 231
#
# _framework density 13.918747
#
# number of rings (size 3 to 8) (size 9 to 14) (size 15 to 20)
#    0.000    2.857    0.000    2.286    0.000    4.571 
#    0.000    2.143    0.000    4.714    0.000    2.000 
#    0.000    0.000    0.000    7.429    0.000   26.857 
#
# Total GULP energy -467711.230045 kJ/mol
# GULP energy per Si atom -5567.990834 kJ/mol
# Density = 1.388707 g / cm^3
# Si number density = 13.918747 Si / 1000 Ang^3
#
#
#
# Elastic Constant Matrix: (Units=GPa)
#
#
# Indices 1 2 3 4 5 6 
#
# 1 87.6110 47.8417 26.8458 -1.4571 0.0000 0.0000
# 2 47.8417 87.6110 26.8458 1.4571 0.0000 0.0000
# 3 26.8458 26.8458 22.7611 0.0000 0.0000 0.0000
# 4 -1.4571 1.4571 0.0000 15.0535 0.0000 0.0000
# 5 0.0000 0.0000 0.0000 0.0000 15.0535 -1.4571
# 6 0.0000 0.0000 0.0000 0.0000 -1.4571 19.8846
#
#
#
# Elastic Compliance Matrix: (Units=1/GPa)
#
#
# Indices 1 2 3 4 5 6 
#
# 1 0.019595 -0.005730 -0.016353 0.002451 0.000000 0.000000
# 2 -0.005730 0.019595 -0.016353 -0.002451 0.000000 0.000000
# 3 -0.016353 -0.016353 0.082510 0.000000 0.000000 0.000000
# 4 0.002451 -0.002451 0.000000 0.066904 0.000000 0.000000
# 5 0.000000 0.000000 0.000000 0.000000 0.066904 0.004903
# 6 0.000000 0.000000 0.000000 0.000000 0.004903 0.050649
#
#
# Mechanical properties :
#
#
# Convention : Reuss Voigt Hill
#
# Bulk Modulus (GPa) = 22.30766 44.56106 33.43436
# Shear Modulus (GPa) = 12.56373 16.42829 14.49601
#
# Velocity S-wave (km/s) = 3.00767 3.43928 3.23069
# Velocity P-wave (km/s) = 5.30314 6.91781 6.16358
#
# Compressibility (1/GPa) = 0.04482766
#
# Stress axis : x y z
#
# Youngs Moduli (GPa) = 51.03424 51.03424 12.11981
#
# Poissons Ratio (x) = 0.29243 0.19819
# Poissons Ratio (y) = 0.29243 0.19819
# Poissons Ratio (z) = 0.83455 0.83455
#
# Static dielectric constant tensor:
#      x y z
#    x 1.446450 0.000000 0.000000 
#    y 0.000000 1.446450 0.000000 
#    z 0.000000 0.000000 1.465340 
# 
# From -- ./inp_files/4619.got.cif
#   From: 2010.05.17/outbox.cif.g08.bks.cpg/sg164_3_cif.got.tgz:4619.got - 2010.05.20 10:58:56.
