data_PCOD9578777
_publ_section_title
;
Structure prediction by ZEFSAII (Michael W. Deem and Ramdas Pophale) SiO2 
 PCOD9578777
Probable space group: P -3 C 1
;
_chemical_formula_sum "Si O2"
_cell_formula_units_Z 74
_cell_length_a 17.846964
_cell_length_b 17.846964
_cell_length_c 14.189407
_cell_angle_alpha 90.000000
_cell_angle_beta 90.000000
_cell_angle_gamma 120.000000
_cell_volume 3914.024798
_symmetry_space_group_name_H-M "P -3 C 1"
_symmetry_group_IT_number 165
_symmetry_cell_setting 'hexagonal'
loop_
_space_group_symop_operation_xyz
x,y,z
-y,x-y,z
-x+y,-x,z
x-y,-y,1/2-z
-x,-x+y,1/2-z
y,x,1/2-z
-x,-y,-z
y,-x+y,-z
x-y,x,-z
-x+y,y,1/2+z
x,x-y,1/2+z
-y,-x,1/2+z
loop_
_atom_site_type_symbol
_atom_site_label
_atom_site_fract_x
_atom_site_fract_y
_atom_site_fract_z
Si Si1 0.622091 0.000000 0.250000
Si Si2 0.333334 0.666668 0.147243
Si Si3 0.620629 0.924921 0.620654
Si Si4 0.551407 0.144703 0.084868
Si Si5 0.419412 0.870089 0.634103
Si Si6 0.666667 0.333334 0.078750
Si Si7 0.402253 0.281154 0.091329
Si Si8 0.607521 0.721574 0.322096
O O1 0.533907 0.928526 0.197744
O O2 0.646847 0.952982 0.330833
O O3 0.395164 0.769290 0.169416
O O4 0.333334 0.666667 0.033703
O O5 0.522894 0.910624 0.625340
O O6 0.629446 0.898683 0.515932
O O7 0.618370 0.871358 0.712663
O O8 0.700229 0.020574 0.641196
O O9 0.588936 0.244301 0.109728
O O10 0.631716 0.128840 0.091471
O O11 0.474833 0.100551 0.158578
O O12 0.520769 0.129316 0.975690
O O13 0.402927 0.195329 0.121301
#
# Coordination Sequence:
#
# PCOD9578777 Si02
#       8
#     6   4  12  12  12   4  12  12
#     4  12  24  38  52  86 116 152 200 258 308 346
#     4   9  21  33  58  86 107 164 211 250 287 355
#     4  10  23  40  55  82 113 153 197 249 299 352
#     4  10  18  34  57  81 106 146 196 256 292 349
#     4  10  21  37  57  82 116 152 207 255 304 343
#     4   9  15  30  49  83 107 131 202 256 287 319
#     4  11  24  38  58  83 113 154 199 248 302 352
#     4  11  22  38  60  79 113 157 198 240 307 365
#
# _framework density 18.906369000000002
#
# number of rings (size 3 to 8) (size 9 to 14) (size 15 to 20)
#    0.000    1.622    1.622    3.892    4.541    3.892 
#    0.000    0.000    0.000    0.000    0.000    0.000 
#    0.000    0.000    0.000   30.649    0.000    0.000 
#
# Total GULP energy -412751.313833 kJ/mol
# GULP energy per Si atom -5577.720457 kJ/mol
# Density = 1.886334 g / cm^3
# Si number density = 18.906369 Si / 1000 Ang^3
#
#
#
# Elastic Constant Matrix: (Units=GPa)
#
#
# Indices 1 2 3 4 5 6 
#
# 1 56.1187 24.6962 37.6884 -2.1543 0.0000 0.0000
# 2 24.6962 56.1188 37.6881 2.1545 0.0000 0.0000
# 3 37.6884 37.6881 169.0652 0.0001 0.0000 0.0000
# 4 -2.1543 2.1545 0.0001 18.5405 0.0000 0.0000
# 5 0.0000 0.0000 0.0000 0.0000 18.5402 -2.1541
# 6 0.0000 0.0000 0.0000 0.0000 -2.1541 15.7119
#
#
#
# Elastic Compliance Matrix: (Units=1/GPa)
#
#
# Indices 1 2 3 4 5 6 
#
# 1 0.023981 -0.008359 -0.003483 0.003758 0.000000 0.000000
# 2 -0.008359 0.023981 -0.003482 -0.003758 0.000000 0.000000
# 3 -0.003483 -0.003482 0.007468 0.000000 0.000000 0.000000
# 4 0.003758 -0.003758 0.000000 0.054809 0.000000 0.000000
# 5 0.000000 0.000000 0.000000 0.000000 0.054810 0.007514
# 6 0.000000 0.000000 0.000000 0.000000 0.007514 0.064676
#
#
# Mechanical properties :
#
#
# Convention : Reuss Voigt Hill
#
# Bulk Modulus (GPa) = 40.35232 53.49421 46.92326
# Shear Modulus (GPa) = 18.61279 22.64054 20.62667
#
# Velocity S-wave (km/s) = 3.14103 3.46426 3.30660
# Velocity P-wave (km/s) = 5.87745 6.66012 6.28098
#
# Compressibility (1/GPa) = 0.02478172
#
# Stress axis : x y z
#
# Youngs Moduli (GPa) = 41.69994 41.70008 133.91324
#
# Poissons Ratio (x) = 0.34856 0.46636
# Poissons Ratio (y) = 0.34856 0.46635
# Poissons Ratio (z) = 0.14522 0.14522
#
# Static dielectric constant tensor:
#      x y z
#    x 1.685720 0.000000 0.000000 
#    y 0.000000 1.685720 0.000000 
#    z 0.000000 0.000000 1.728000 
# 
# From -- ./inp_files/1859.got.cif
#   From: 2010.05.17/outbox.cif.g08.bks.cpg/sg165_1_cif.got.tgz:1859.got - 2010.05.20 11:02:39.
