data_PCOD9578337
_publ_section_title
;
Structure prediction by ZEFSAII (Michael W. Deem and Ramdas Pophale) SiO2 
 PCOD9578337
Probable space group: P -3 M 1
;
_chemical_formula_sum "Si O2"
_cell_formula_units_Z 96
_cell_length_a 18.381881
_cell_length_b 18.381881
_cell_length_c 21.118516
_cell_angle_alpha 90.000000
_cell_angle_beta 90.000000
_cell_angle_gamma 120.000000
_cell_volume 6179.793016
_symmetry_space_group_name_H-M "P -3 M 1"
_symmetry_group_IT_number 164
_symmetry_cell_setting 'hexagonal'
loop_
_space_group_symop_operation_xyz
x,y,z
-y,x-y,z
-x+y,-x,z
x-y,-y,-z
-x,-x+y,-z
y,x,-z
-x,-y,-z
y,-x+y,-z
x-y,x,-z
-x+y,y,z
x,x-y,z
-y,-x,z
loop_
_atom_site_type_symbol
_atom_site_label
_atom_site_fract_x
_atom_site_fract_y
_atom_site_fract_z
Si Si1 0.636643 0.734848 0.752769
Si Si2 0.168650 0.499557 0.500001
Si Si3 0.668570 0.165125 0.862904
Si Si4 0.100584 0.633903 0.366353
Si Si5 0.904353 0.364194 0.999999
Si Si6 0.466684 0.100589 0.366350
Si Si7 0.668570 0.503445 0.137094
Si Si8 0.363358 0.265153 0.752766
O O1 0.667415 0.833708 0.756425
O O2 0.575360 0.696229 0.691994
O O3 0.577612 0.690169 0.813524
O O4 0.706966 0.706966 0.748644
O O5 0.267445 0.534889 0.499998
O O6 0.146252 0.573126 0.500002
O O7 0.132939 0.453199 0.433667
O O8 0.132945 0.453202 0.566336
O O9 0.574948 0.149895 0.854386
O O10 0.737523 0.262478 0.852715
O O11 0.677810 0.140665 0.934593
O O12 0.690168 0.112558 0.813521
O O13 0.131862 0.565931 0.356875
O O14 0.120867 0.696228 0.308009
O O15 0.999997 0.579756 0.369831
O O16 0.906935 0.453468 0.999998
O O17 0.859334 0.322191 0.065404
O O18 0.000000 0.385021 0.000000
O O19 0.565934 0.131867 0.356871
O O20 0.737523 0.475046 0.147284
O O21 0.574948 0.425053 0.145613
O O22 0.332586 0.166293 0.756422
#
# Coordination Sequence:
#
# PCOD9578337 Si02
#       8
#    12  12  12  12  12  12  12  12
#     4  10  20  33  49  68  89 114 145 183 226 271
#     4  10  18  27  39  57  84 117 151 183 213 246
#     4  10  19  30  45  66  93 124 156 189 223 260
#     4   9  17  29  45  64  86 114 147 181 218 260
#     4   9  17  28  42  60  84 119 161 197 225 254
#     4   9  17  29  45  64  86 114 147 181 218 260
#     4  10  19  30  45  66  93 124 156 189 223 260
#     4  10  20  33  49  68  89 114 145 183 226 271
#
# _framework density 15.534502
#
# number of rings (size 3 to 8) (size 9 to 14) (size 15 to 20)
#    0.000    2.375    0.000    3.375    0.000    4.000 
#    0.000    1.250    0.000    8.250    0.000    0.000 
#    0.000    0.000    0.000    0.000    0.000   52.000 
#
# Total GULP energy -534796.303755 kJ/mol
# GULP energy per Si atom -5570.794831 kJ/mol
# Density = 1.549914 g / cm^3
# Si number density = 15.534502 Si / 1000 Ang^3
#
#
#
# Elastic Constant Matrix: (Units=GPa)
#
#
# Indices 1 2 3 4 5 6 
#
# 1 59.0881 37.4319 29.7540 -0.0002 0.0000 0.0000
# 2 37.4319 59.0881 29.7540 0.0002 0.0000 0.0000
# 3 29.7540 29.7540 117.5720 0.0000 0.0000 0.0000
# 4 -0.0002 0.0002 0.0000 14.8027 0.0000 0.0000
# 5 0.0000 0.0000 0.0000 0.0000 14.8027 -0.0002
# 6 0.0000 0.0000 0.0000 0.0000 -0.0002 10.8281
#
#
#
# Elastic Compliance Matrix: (Units=1/GPa)
#
#
# Indices 1 2 3 4 5 6 
#
# 1 0.029226 -0.016950 -0.003107 0.000000 0.000000 0.000000
# 2 -0.016950 0.029226 -0.003107 0.000000 0.000000 0.000000
# 3 -0.003107 -0.003107 0.010078 0.000000 0.000000 0.000000
# 4 0.000000 0.000000 0.000000 0.067555 0.000000 0.000000
# 5 0.000000 0.000000 0.000000 0.000000 0.067555 0.000001
# 6 0.000000 0.000000 0.000000 0.000000 0.000001 0.092352
#
#
# Mechanical properties :
#
#
# Convention : Reuss Voigt Hill
#
# Bulk Modulus (GPa) = 45.03901 47.73647 46.38774
# Shear Modulus (GPa) = 14.29711 17.34057 15.81884
#
# Velocity S-wave (km/s) = 3.03701 3.34467 3.19455
# Velocity P-wave (km/s) = 6.43069 6.76105 6.59794
#
# Compressibility (1/GPa) = 0.02220298
#
# Stress axis : x y z
#
# Youngs Moduli (GPa) = 34.21602 34.21602 99.22754
#
# Poissons Ratio (x) = 0.57997 0.30827
# Poissons Ratio (y) = 0.57997 0.30827
# Poissons Ratio (z) = 0.10630 0.10630
#
# Static dielectric constant tensor:
#      x y z
#    x 1.506960 0.000000 0.000000 
#    y 0.000000 1.506960 0.000000 
#    z 0.000000 0.000000 1.540550 
# 
# From -- ./inp_files/4751.got.cif
#   From: 2010.05.17/outbox.cif.g08.bks.cpg/sg164_3_cif.got.tgz:4751.got - 2010.05.20 10:58:56.
