data_PCOD9578724
_publ_section_title
;
Structure prediction by ZEFSAII (Michael W. Deem and Ramdas Pophale) SiO2 
 PCOD9578724
Probable space group: P -3 M 1
;
_chemical_formula_sum "Si O2"
_cell_formula_units_Z 40
_cell_length_a 14.155609
_cell_length_b 14.155609
_cell_length_c 11.964760
_cell_angle_alpha 90.000000
_cell_angle_beta 90.000000
_cell_angle_gamma 120.000000
_cell_volume 2076.307820
_symmetry_space_group_name_H-M "P -3 M 1"
_symmetry_group_IT_number 164
_symmetry_cell_setting 'hexagonal'
loop_
_space_group_symop_operation_xyz
x,y,z
-y,x-y,z
-x+y,-x,z
x-y,-y,-z
-x,-x+y,-z
y,x,-z
-x,-y,-z
y,-x+y,-z
x-y,x,-z
-x+y,y,z
x,x-y,z
-y,-x,z
loop_
_atom_site_type_symbol
_atom_site_label
_atom_site_fract_x
_atom_site_fract_y
_atom_site_fract_z
Si Si1 0.333334 0.666668 0.056308
Si Si2 0.598335 0.973316 0.210472
Si Si3 0.582168 0.791084 0.792587
Si Si4 0.208391 0.416781 0.061803
Si Si5 0.333334 0.666668 0.785556
Si Si6 0.117590 0.450158 0.453459
O O1 0.271948 0.543896 0.094925
O O2 0.333334 0.666667 0.921530
O O3 0.498241 0.996481 0.180029
O O4 0.624511 0.909993 0.114725
O O5 0.558036 0.897180 0.319564
O O6 0.709682 0.084076 0.240144
O O7 0.457753 0.728877 0.751850
O O8 0.589059 0.794530 0.928317
O O9 0.216897 0.433794 0.487487
O O10 0.137361 0.568681 0.489178
O O11 0.000000 0.362484 0.500000
#
# Coordination Sequence:
#
# PCOD9578724 Si02
#       6
#     2  12   6   6   2  12
#     4   9  18  27  54  84 109 152 193 240 276 330
#     4  11  22  36  57  85 117 158 196 234 288 346
#     4  11  22  34  52  84 123 159 193 234 281 337
#     4  11  20  34  54  84 120 153 195 238 282 341
#     4   9  18  33  48  78 121 155 193 234 276 327
#     4  10  22  40  63  90 118 148 187 237 292 348
#
# _framework density 19.264966999999999
#
# number of rings (size 3 to 8) (size 9 to 14) (size 15 to 20)
#    0.000    1.500    4.500    1.200    2.100    1.200 
#    0.000    0.000    0.000    0.900    3.900    2.100 
#    0.000    0.000    0.000    0.000    0.000    0.000 
#
# Total GULP energy -223306.157254 kJ/mol
# GULP energy per Si atom -5582.653931 kJ/mol
# Density = 1.922112 g / cm^3
# Si number density = 19.264967 Si / 1000 Ang^3
#
#
#
# Elastic Constant Matrix: (Units=GPa)
#
#
# Indices 1 2 3 4 5 6 
#
# 1 112.7233 67.1635 4.8288 -0.2476 0.0000 0.0000
# 2 67.1635 112.7225 4.8287 0.2477 0.0000 0.0000
# 3 4.8288 4.8287 46.2778 0.0000 0.0000 0.0000
# 4 -0.2476 0.2477 0.0000 25.5100 0.0000 0.0000
# 5 0.0000 0.0000 0.0000 0.0000 25.5099 -0.2474
# 6 0.0000 0.0000 0.0000 0.0000 -0.2474 22.7797
#
#
#
# Elastic Compliance Matrix: (Units=1/GPa)
#
#
# Indices 1 2 3 4 5 6 
#
# 1 0.013771 -0.008181 -0.000583 0.000213 0.000000 0.000000
# 2 -0.008181 0.013771 -0.000583 -0.000213 0.000000 0.000000
# 3 -0.000583 -0.000583 0.021730 0.000000 0.000000 0.000000
# 4 0.000213 -0.000213 0.000000 0.039204 0.000000 0.000000
# 5 0.000000 0.000000 0.000000 0.000000 0.039205 0.000426
# 6 0.000000 0.000000 0.000000 0.000000 0.000426 0.043903
#
#
# Mechanical properties :
#
#
# Convention : Reuss Voigt Hill
#
# Bulk Modulus (GPa) = 32.70343 47.26287 39.98315
# Shear Modulus (GPa) = 24.94114 27.75343 26.34728
#
# Velocity S-wave (km/s) = 3.60201 3.79966 3.70216
# Velocity P-wave (km/s) = 5.85762 6.62089 6.25092
#
# Compressibility (1/GPa) = 0.03057783
#
# Stress axis : x y z
#
# Youngs Moduli (GPa) = 72.61649 72.61597 46.01860
#
# Poissons Ratio (x) = 0.59405 0.02684
# Poissons Ratio (y) = 0.59405 0.02684
# Poissons Ratio (z) = 0.04236 0.04236
#
# Static dielectric constant tensor:
#      x y z
#    x 1.672700 0.000000 0.000000 
#    y 0.000000 1.672710 0.000000 
#    z 0.000000 0.000000 1.722940 
# 
# From -- ./inp_files/2269.got.cif
#   From: 2010.05.17/outbox.cif.g08.bks.cpg/sg164_2_cif.got.tgz:2269.got - 2010.05.20 10:58:56.
