data_PCOD9578840
_publ_section_title
;
Structure prediction by ZEFSAII (Michael W. Deem and Ramdas Pophale) SiO2 
 PCOD9578840
Probable space group: P -3 C 1
;
_chemical_formula_sum "Si O2"
_cell_formula_units_Z 48
_cell_length_a 18.017720
_cell_length_b 18.017720
_cell_length_c 8.187263
_cell_angle_alpha 90.000000
_cell_angle_beta 90.000000
_cell_angle_gamma 120.000000
_cell_volume 2301.807710
_symmetry_space_group_name_H-M "P -3 C 1"
_symmetry_group_IT_number 165
_symmetry_cell_setting 'hexagonal'
loop_
_space_group_symop_operation_xyz
x,y,z
-y,x-y,z
-x+y,-x,z
x-y,-y,1/2-z
-x,-x+y,1/2-z
y,x,1/2-z
-x,-y,-z
y,-x+y,-z
x-y,x,-z
-x+y,y,1/2+z
x,x-y,1/2+z
-y,-x,1/2+z
loop_
_atom_site_type_symbol
_atom_site_label
_atom_site_fract_x
_atom_site_fract_y
_atom_site_fract_z
Si Si1 0.240178 0.799408 0.141854
Si Si2 0.240582 0.676493 0.916438
Si Si3 0.840196 0.014857 0.943948
Si Si4 0.266987 0.921251 0.851379
O O1 0.311681 0.810236 0.270148
O O2 0.157293 0.794345 0.228974
O O3 0.207328 0.703462 0.072940
O O4 0.279138 0.867941 0.997387
O O5 0.250392 0.593356 0.913188
O O6 0.819442 0.000000 0.750000
O O7 0.837892 0.933210 0.025340
O O8 0.777367 0.034177 0.050852
O O9 0.342426 0.000000 0.750000
#
# Coordination Sequence:
#
# PCOD9578840 Si02
#       4
#    12  12  12  12
#     4  10  20  36  59  87 122 157 197 245 297 357
#     4   9  18  34  65  98 117 141 190 263 302 355
#     4  12  24  40  61  86 118 161 219 273 310 336
#     4  11  23  38  56  85 125 170 209 244 296 369
#
# _framework density 20.853173999999999
#
# number of rings (size 3 to 8) (size 9 to 14) (size 15 to 20)
#    0.500    1.000    0.000    7.000    0.000    2.000 
#    0.000    0.000    0.000   24.000    0.000    0.000 
#    0.000    0.000    0.000    0.000    0.000    0.000 
#
# Total GULP energy -267284.693956 kJ/mol
# GULP energy per Si atom -5568.431124 kJ/mol
# Density = 2.080571 g / cm^3
# Si number density = 20.853174 Si / 1000 Ang^3
#
#
#
# Elastic Constant Matrix: (Units=GPa)
#
#
# Indices 1 2 3 4 5 6 
#
# 1 46.9269 33.7334 31.6416 7.7488 0.0000 0.0000
# 2 33.7334 46.9269 31.6416 -7.7488 0.0000 0.0000
# 3 31.6416 31.6416 126.3200 0.0000 0.0000 0.0000
# 4 7.7488 -7.7488 0.0000 23.6905 0.0000 0.0000
# 5 0.0000 0.0000 0.0000 0.0000 23.6905 7.7488
# 6 0.0000 0.0000 0.0000 0.0000 7.7488 6.5967
#
#
#
# Elastic Compliance Matrix: (Units=1/GPa)
#
#
# Indices 1 2 3 4 5 6 
#
# 1 0.069258 -0.053828 -0.003865 -0.040259 0.000000 0.000000
# 2 -0.053828 0.069258 -0.003865 0.040259 0.000000 0.000000
# 3 -0.003865 -0.003865 0.009853 0.000000 0.000000 0.000000
# 4 -0.040259 0.040259 0.000000 0.068547 0.000000 0.000000
# 5 0.000000 0.000000 0.000000 0.000000 0.068547 -0.080519
# 6 0.000000 0.000000 0.000000 0.000000 -0.080519 0.246171
#
#
# Mechanical properties :
#
#
# Convention : Reuss Voigt Hill
#
# Bulk Modulus (GPa) = 39.59982 46.02298 42.81140
# Shear Modulus (GPa) = 7.53959 19.00601 13.27280
#
# Velocity S-wave (km/s) = 1.90352 3.02225 2.52561
# Velocity P-wave (km/s) = 4.88490 5.85633 5.39253
#
# Compressibility (1/GPa) = 0.02525264
#
# Stress axis : x y z
#
# Youngs Moduli (GPa) = 14.43883 14.43883 101.49512
#
# Poissons Ratio (x) = 0.77721 0.39228
# Poissons Ratio (y) = 0.77721 0.39228
# Poissons Ratio (z) = 0.05581 0.05581
#
# Static dielectric constant tensor:
#      x y z
#    x 1.759890 0.000000 0.000000 
#    y 0.000000 1.759890 0.000000 
#    z 0.000000 0.000000 1.865290 
# 
# From -- ./inp_files/538.got.cif
#   From: 2010.05.17/outbox.cif.g08.bks.cpg/sg165_1_cif.got.tgz:538.got - 2010.05.20 11:02:39.
