data_PCOD9578631
_publ_section_title
;
Structure prediction by ZEFSAII (Michael W. Deem and Ramdas Pophale) SiO2 
 PCOD9578631
Probable space group: P -3 M 1
;
_chemical_formula_sum "Si O2"
_cell_formula_units_Z 54
_cell_length_a 12.757483
_cell_length_b 12.757483
_cell_length_c 23.468683
_cell_angle_alpha 90.000000
_cell_angle_beta 90.000000
_cell_angle_gamma 120.000000
_cell_volume 3307.876960
_symmetry_space_group_name_H-M "P -3 M 1"
_symmetry_group_IT_number 164
_symmetry_cell_setting 'hexagonal'
loop_
_space_group_symop_operation_xyz
x,y,z
-y,x-y,z
-x+y,-x,z
x-y,-y,-z
-x,-x+y,-z
y,x,-z
-x,-y,-z
y,-x+y,-z
x-y,x,-z
-x+y,y,z
x,x-y,z
-y,-x,z
loop_
_atom_site_type_symbol
_atom_site_label
_atom_site_fract_x
_atom_site_fract_y
_atom_site_fract_z
Si Si1 0.666265 0.581948 0.780052
Si Si2 0.247923 0.000171 0.564832
Si Si3 0.750986 0.750986 0.000000
Si Si4 0.417723 0.333482 0.328453
Si Si5 0.582658 0.915724 0.889772
O O1 0.794722 0.589443 0.782178
O O2 0.557269 0.442732 0.779404
O O3 0.650641 0.643905 0.723463
O O4 0.643620 0.643298 0.835026
O O5 0.255136 0.127568 0.575533
O O6 0.289942 0.000000 0.500000
O O7 0.319185 0.971690 0.612600
O O8 0.108602 0.891399 0.567329
O O9 0.691810 0.666055 0.054882
O O10 0.881698 0.763396 0.990808
O O11 0.421488 0.210744 0.319202
O O12 0.552056 0.447945 0.330554
O O13 0.451994 0.903987 0.897919
O O14 0.569076 0.784538 0.880715
#
# Coordination Sequence:
#
# PCOD9578631 Si02
#       5
#    12  12   6  12  12
#     4  10  20  34  52  73  97 125 158 197 241 289
#     4   9  17  30  49  72  97 126 161 202 247 293
#     4  10  20  34  52  74 102 136 172 210 252 296
#     4  10  20  33  50  71  97 129 163 200 241 288
#     4  10  20  34  53  76 102 132 166 204 245 291
#
# _framework density 16.324669
#
# number of rings (size 3 to 8) (size 9 to 14) (size 15 to 20)
#    0.000    2.222    0.000    3.333    0.000    1.333 
#    0.000    2.222    0.000   13.778    0.000    0.000 
#    0.000    0.000    0.000    0.000    0.000    0.000 
#
# Total GULP energy -301325.161338 kJ/mol
# GULP energy per Si atom -5580.095580 kJ/mol
# Density = 1.628751 g / cm^3
# Si number density = 16.324669 Si / 1000 Ang^3
#
#
#
# Elastic Constant Matrix: (Units=GPa)
#
#
# Indices 1 2 3 4 5 6 
#
# 1 126.4798 89.2101 90.5077 -0.6864 0.0000 0.0000
# 2 89.2101 126.4798 90.5077 0.6864 0.0000 0.0000
# 3 90.5077 90.5077 138.8363 0.0000 0.0000 0.0000
# 4 -0.6864 0.6864 0.0000 25.5882 0.0000 0.0000
# 5 0.0000 0.0000 0.0000 0.0000 25.5882 -0.6864
# 6 0.0000 0.0000 0.0000 0.0000 -0.6864 18.6348
#
#
#
# Elastic Compliance Matrix: (Units=1/GPa)
#
#
# Indices 1 2 3 4 5 6 
#
# 1 0.018547 -0.008311 -0.006673 0.000720 0.000000 0.000000
# 2 -0.008311 0.018547 -0.006673 -0.000720 0.000000 0.000000
# 3 -0.006673 -0.006673 0.015904 0.000000 0.000000 0.000000
# 4 0.000720 -0.000720 0.000000 0.039119 0.000000 0.000000
# 5 0.000000 0.000000 0.000000 0.000000 0.039119 0.001441
# 6 0.000000 0.000000 0.000000 0.000000 0.001441 0.053716
#
#
# Mechanical properties :
#
#
# Convention : Reuss Voigt Hill
#
# Bulk Modulus (GPa) = 103.26753 103.58299 103.42526
# Shear Modulus (GPa) = 21.59865 22.06692 21.83279
#
# Velocity S-wave (km/s) = 3.64135 3.68061 3.66103
# Velocity P-wave (km/s) = 9.00417 9.03615 9.02018
#
# Compressibility (1/GPa) = 0.00968359
#
# Stress axis : x y z
#
# Youngs Moduli (GPa) = 53.91567 53.91567 62.87874
#
# Poissons Ratio (x) = 0.44807 0.41962
# Poissons Ratio (y) = 0.44807 0.41962
# Poissons Ratio (z) = 0.35980 0.35980
#
# Static dielectric constant tensor:
#      x y z
#    x 1.516500 0.000000 0.000000 
#    y 0.000000 1.516500 0.000000 
#    z 0.000000 0.000000 1.535470 
# 
# From -- ./inp_files/4834.got.cif
#   From: 2010.05.17/outbox.cif.g08.bks.cpg/sg164_3_cif.got.tgz:4834.got - 2010.05.20 10:58:56.
