data_PCOD9578710
_publ_section_title
;
Structure prediction by ZEFSAII (Michael W. Deem and Ramdas Pophale) SiO2 
 PCOD9578710
Probable space group: P -3 M 1
;
_chemical_formula_sum "Si O2"
_cell_formula_units_Z 60
_cell_length_a 18.001188
_cell_length_b 18.001188
_cell_length_c 10.525946
_cell_angle_alpha 90.000000
_cell_angle_beta 90.000000
_cell_angle_gamma 120.000000
_cell_volume 2953.888544
_symmetry_space_group_name_H-M "P -3 M 1"
_symmetry_group_IT_number 164
_symmetry_cell_setting 'hexagonal'
loop_
_space_group_symop_operation_xyz
x,y,z
-y,x-y,z
-x+y,-x,z
x-y,-y,-z
-x,-x+y,-z
y,x,-z
-x,-y,-z
y,-x+y,-z
x-y,x,-z
-x+y,y,z
x,x-y,z
-y,-x,z
loop_
_atom_site_type_symbol
_atom_site_label
_atom_site_fract_x
_atom_site_fract_y
_atom_site_fract_z
Si Si1 0.177103 0.999743 0.144088
Si Si2 0.708022 0.766616 0.614664
Si Si3 0.162610 0.494752 0.216267
Si Si4 0.430231 0.401301 0.303754
Si Si5 0.163548 0.667415 0.915977
O O1 0.159063 0.079532 0.151025
O O2 0.246284 0.016234 0.251608
O O3 0.089633 0.910368 0.164771
O O4 0.207834 0.000000 0.000000
O O5 0.764747 0.764747 0.500000
O O6 0.699573 0.849787 0.608042
O O7 0.615995 0.681602 0.609420
O O8 0.239763 0.479525 0.256371
O O9 0.188668 0.594334 0.231655
O O10 0.072102 0.439242 0.284499
O O11 0.147371 0.475520 0.065152
O O12 0.521521 0.478480 0.348604
O O13 0.447687 0.368284 0.169881
O O14 0.194087 0.597044 0.903507
O O15 0.239087 0.760914 0.874681
#
# Coordination Sequence:
#
# PCOD9578710 Si02
#       5
#    12  12  12  12  12
#     4   9  18  34  58  88 121 156 193 233 278 330
#     4  11  24  41  61  86 117 152 190 232 279 334
#     4   9  17  29  48  76 111 151 192 235 283 335
#     4  10  21  36  54  77 106 142 186 236 287 337
#     4   9  16  28  48  76 111 149 189 232 281 338
#
# _framework density 20.312207999999998
#
# number of rings (size 3 to 8) (size 9 to 14) (size 15 to 20)
#    0.000    2.400    0.000    2.400    0.000    8.400 
#    0.000    4.000    0.000    3.600    0.000    1.400 
#    0.000    0.000    0.000    0.000    0.000    0.200 
#
# Total GULP energy -335125.082830 kJ/mol
# GULP energy per Si atom -5585.418047 kJ/mol
# Density = 2.026598 g / cm^3
# Si number density = 20.312208 Si / 1000 Ang^3
#
#
#
# Elastic Constant Matrix: (Units=GPa)
#
#
# Indices 1 2 3 4 5 6 
#
# 1 93.2325 46.4117 37.0696 2.8206 0.0000 0.0000
# 2 46.4117 93.2325 37.0696 -2.8206 0.0000 0.0000
# 3 37.0696 37.0696 63.2671 0.0000 0.0000 0.0000
# 4 2.8206 -2.8206 0.0000 20.9755 0.0000 0.0000
# 5 0.0000 0.0000 0.0000 0.0000 20.9755 2.8206
# 6 0.0000 0.0000 0.0000 0.0000 2.8206 23.4104
#
#
#
# Elastic Compliance Matrix: (Units=1/GPa)
#
#
# Indices 1 2 3 4 5 6 
#
# 1 0.016052 -0.005658 -0.006090 -0.002919 0.000000 0.000000
# 2 -0.005658 0.016052 -0.006090 0.002919 0.000000 0.000000
# 3 -0.006090 -0.006090 0.022943 0.000000 0.000000 0.000000
# 4 -0.002919 0.002919 0.000000 0.048460 0.000000 0.000000
# 5 0.000000 0.000000 0.000000 0.000000 0.048460 -0.005839
# 6 0.000000 0.000000 0.000000 0.000000 -0.005839 0.043419
#
#
# Mechanical properties :
#
#
# Convention : Reuss Voigt Hill
#
# Bulk Modulus (GPa) = 51.62491 54.53712 53.08101
# Shear Modulus (GPa) = 21.05088 21.68438 21.36763
#
# Velocity S-wave (km/s) = 3.22276 3.27089 3.24691
# Velocity P-wave (km/s) = 6.27049 6.41659 6.34396
#
# Compressibility (1/GPa) = 0.01937050
#
# Stress axis : x y z
#
# Youngs Moduli (GPa) = 62.29699 62.29699 43.58630
#
# Poissons Ratio (x) = 0.35245 0.26546
# Poissons Ratio (y) = 0.35245 0.26546
# Poissons Ratio (z) = 0.37941 0.37941
#
# Static dielectric constant tensor:
#      x y z
#    x 1.707020 0.000000 0.000000 
#    y 0.000000 1.707020 0.000000 
#    z 0.000000 0.000000 1.747610 
# 
# From -- ./inp_files/2711.got.cif
#   From: 2010.05.17/outbox.cif.g08.bks.cpg/sg164_2_cif.got.tgz:2711.got - 2010.05.20 10:58:56.
