data_PCOD9578869
_publ_section_title
;
Structure prediction by ZEFSAII (Michael W. Deem and Ramdas Pophale) SiO2 
 PCOD9578869
Probable space group: P -3 C 1
;
_chemical_formula_sum "Si O2"
_cell_formula_units_Z 66
_cell_length_a 11.605340
_cell_length_b 11.605340
_cell_length_c 27.720308
_cell_angle_alpha 90.000000
_cell_angle_beta 90.000000
_cell_angle_gamma 120.000000
_cell_volume 3233.288220
_symmetry_space_group_name_H-M "P -3 C 1"
_symmetry_group_IT_number 165
_symmetry_cell_setting 'hexagonal'
loop_
_space_group_symop_operation_xyz
x,y,z
-y,x-y,z
-x+y,-x,z
x-y,-y,1/2-z
-x,-x+y,1/2-z
y,x,1/2-z
-x,-y,-z
y,-x+y,-z
x-y,x,-z
-x+y,y,1/2+z
x,x-y,1/2+z
-y,-x,1/2+z
loop_
_atom_site_type_symbol
_atom_site_label
_atom_site_fract_x
_atom_site_fract_y
_atom_site_fract_z
Si Si1 0.980734 0.715495 0.159575
Si Si2 0.384291 0.079529 0.039940
Si Si3 0.828633 0.460857 0.820716
Si Si4 0.247913 0.983167 0.136824
Si Si5 0.056277 0.413616 0.943343
Si Si6 0.000000 0.554477 0.250000
O O1 0.847621 0.726250 0.158692
O O2 0.981965 0.645051 0.109789
O O3 0.974135 0.625025 0.204696
O O4 0.107852 0.864171 0.156103
O O5 0.439119 0.235559 0.046300
O O6 0.502031 0.049119 0.051907
O O7 0.266003 0.003863 0.078931
O O8 0.346062 0.034733 0.984888
O O9 0.694989 0.466867 0.831808
O O10 0.944815 0.586205 0.847084
O O11 0.878360 0.467271 0.766054
#
# Coordination Sequence:
#
# PCOD9578869 Si02
#       6
#    12  12  12  12  12   6
#     4  11  24  41  63  92 133 165 224 259 333 393
#     4  10  21  37  67  88 132 166 216 269 338 388
#     4  10  23  42  64  91 127 161 224 264 320 389
#     4  11  23  42  66  96 128 173 208 275 321 404
#     4  10  21  40  58  94 123 168 212 272 318 403
#     4  12  24  42  64  92 124 176 212 280 318 388
#
# _framework density 20.412656999999999
#
# number of rings (size 3 to 8) (size 9 to 14) (size 15 to 20)
#    0.364    1.091    1.818    2.909    2.545    0.727 
#    0.000    0.000    0.000    5.818    0.000    0.000 
#    0.000    0.000    0.000    0.000    0.000    0.000 
#
# Total GULP energy -367813.704612 kJ/mol
# GULP energy per Si atom -5572.934918 kJ/mol
# Density = 2.036620 g / cm^3
# Si number density = 20.412657 Si / 1000 Ang^3
#
#
#
# Elastic Constant Matrix: (Units=GPa)
#
#
# Indices 1 2 3 4 5 6 
#
# 1 277.2575 -166.7359 37.9994 -234.2682 0.0000 0.0000
# 2 -166.7359 277.2575 37.9994 234.2682 0.0000 0.0000
# 3 37.9994 37.9994 135.4286 0.0000 0.0000 0.0000
# 4 -234.2682 234.2682 0.0000 -358.3542 0.0000 0.0000
# 5 0.0000 0.0000 0.0000 0.0000 -358.3542 -234.2682
# 6 0.0000 0.0000 0.0000 0.0000 -234.2682 221.9967
#
#
#
# Elastic Compliance Matrix: (Units=1/GPa)
#
#
# Indices 1 2 3 4 5 6 
#
# 1 0.006272 0.004939 -0.003146 -0.000871 0.000000 0.000000
# 2 0.004939 0.006272 -0.003146 0.000871 0.000000 0.000000
# 3 -0.003146 -0.003146 0.009149 0.000000 0.000000 0.000000
# 4 -0.000871 0.000871 0.000000 -0.001651 0.000000 0.000000
# 5 0.000000 0.000000 0.000000 0.000000 -0.001651 -0.001743
# 6 0.000000 0.000000 0.000000 0.000000 -0.001743 0.002666
#
#
# Mechanical properties :
#
#
# Convention : Reuss Voigt Hill
#
# Bulk Modulus (GPa) = 52.66289 56.49660 54.57975
# Shear Modulus (GPa) = 166.16752 -46.89696 59.63528
#
# Velocity S-wave (km/s) = 9.03221 -4.79837 5.41094
# Velocity P-wave (km/s) = 11.60300 1.72098 8.11381
#
# Compressibility (1/GPa) = 0.01898870
#
# Stress axis : x y z
#
# Youngs Moduli (GPa) = 159.43993 159.43993 109.29878
#
# Poissons Ratio (x) = -0.78750 0.34382
# Poissons Ratio (y) = -0.78750 0.34382
# Poissons Ratio (z) = 0.50155 0.50155
#
# Static dielectric constant tensor:
#      x y z
#    x 1.745630 0.000000 0.000000 
#    y 0.000000 1.745630 0.000000 
#    z 0.000000 0.000000 1.712410 
# 
# From -- ./inp_files/3318.got.cif
#   From: 2010.05.17/outbox.cif.g08.bks.cpg/sg165_2_cif.got.tgz:3318.got - 2010.05.20 11:02:39.
