data_PCOD9578893
_publ_section_title
;
Structure prediction by ZEFSAII (Michael W. Deem and Ramdas Pophale) SiO2 
 PCOD9578893
Probable space group: P -3 C 1
;
_chemical_formula_sum "Si O2"
_cell_formula_units_Z 66
_cell_length_a 15.052058
_cell_length_b 15.052058
_cell_length_c 14.087661
_cell_angle_alpha 90.000000
_cell_angle_beta 90.000000
_cell_angle_gamma 120.000000
_cell_volume 2764.147985
_symmetry_space_group_name_H-M "P -3 C 1"
_symmetry_group_IT_number 165
_symmetry_cell_setting 'hexagonal'
loop_
_space_group_symop_operation_xyz
x,y,z
-y,x-y,z
-x+y,-x,z
x-y,-y,1/2-z
-x,-x+y,1/2-z
y,x,1/2-z
-x,-y,-z
y,-x+y,-z
x-y,x,-z
-x+y,y,1/2+z
x,x-y,1/2+z
-y,-x,1/2+z
loop_
_atom_site_type_symbol
_atom_site_label
_atom_site_fract_x
_atom_site_fract_y
_atom_site_fract_z
Si Si1 0.372503 0.342360 0.094373
Si Si2 0.241863 0.453448 0.824151
Si Si3 0.499555 0.311158 0.361270
Si Si4 0.004386 0.803461 0.541562
Si Si5 0.202122 0.673239 0.502845
Si Si6 0.000000 0.277006 0.250000
O O1 0.370582 0.248928 0.152525
O O2 0.355788 0.424294 0.148857
O O3 0.448218 0.241120 0.923958
O O4 0.291572 0.296706 0.009702
O O5 0.239239 0.522167 0.739770
O O6 0.274126 0.525501 0.917504
O O7 0.290042 0.386373 0.785362
O O8 0.596482 0.384151 0.425715
O O9 0.901898 0.804264 0.509504
O O10 0.019383 0.793265 0.654973
O O11 0.093721 0.608967 0.451581
#
# Coordination Sequence:
#
# PCOD9578893 Si02
#       6
#    12  12  12  12  12   6
#     4  10  21  45  67 102 139 197 257 328 391 479
#     4  10  24  41  72 106 137 195 256 320 397 484
#     4  12  22  44  70  95 149 191 250 321 405 480
#     4  12  24  42  66 103 154 201 264 343 405 489
#     4  10  25  40  64 107 134 195 249 331 391 468
#     4  12  22  44  74 108 142 206 262 322 418 488
#
# _framework density 23.877158000000001
#
# number of rings (size 3 to 8) (size 9 to 14) (size 15 to 20)
#    1.091    0.000    1.818    6.000    0.000    2.182 
#    0.000    1.818    0.000    0.000    0.000    0.000 
#    0.000    0.000    0.000    0.000    0.000    0.000 
#
# Total GULP energy -367544.157844 kJ/mol
# GULP energy per Si atom -5568.850876 kJ/mol
# Density = 2.382281 g / cm^3
# Si number density = 23.877158 Si / 1000 Ang^3
#
#
#
# Elastic Constant Matrix: (Units=GPa)
#
#
# Indices 1 2 3 4 5 6 
#
# 1 93.8058 19.9034 32.7114 1.8268 0.0000 0.0000
# 2 19.9034 93.8058 32.7114 -1.8268 0.0000 0.0000
# 3 32.7114 32.7114 189.5458 0.0000 0.0000 0.0000
# 4 1.8268 -1.8268 0.0000 35.5700 0.0000 0.0000
# 5 0.0000 0.0000 0.0000 0.0000 35.5700 1.8268
# 6 0.0000 0.0000 0.0000 0.0000 1.8268 36.9512
#
#
#
# Elastic Compliance Matrix: (Units=1/GPa)
#
#
# Indices 1 2 3 4 5 6 
#
# 1 0.011665 -0.001901 -0.001685 -0.000697 0.000000 0.000000
# 2 -0.001901 0.011665 -0.001685 0.000697 0.000000 0.000000
# 3 -0.001685 -0.001685 0.005857 0.000000 0.000000 0.000000
# 4 -0.000697 0.000697 0.000000 0.028185 0.000000 0.000000
# 5 0.000000 0.000000 0.000000 0.000000 0.028185 -0.001393
# 6 0.000000 0.000000 0.000000 0.000000 -0.001393 0.027132
#
#
# Mechanical properties :
#
#
# Convention : Reuss Voigt Hill
#
# Bulk Modulus (GPa) = 53.63382 60.86778 57.25080
# Shear Modulus (GPa) = 38.62617 41.07366 39.84991
#
# Velocity S-wave (km/s) = 4.02643 4.15204 4.08972
# Velocity P-wave (km/s) = 6.64284 6.96658 6.80664
#
# Compressibility (1/GPa) = 0.01864495
#
# Stress axis : x y z
#
# Youngs Moduli (GPa) = 85.72786 85.72786 170.72522
#
# Poissons Ratio (x) = 0.16297 0.28768
# Poissons Ratio (y) = 0.16297 0.28768
# Poissons Ratio (z) = 0.14445 0.14445
#
# Static dielectric constant tensor:
#      x y z
#    x 1.970400 0.000000 0.000000 
#    y 0.000000 1.970400 0.000000 
#    z 0.000000 0.000000 1.929660 
# 
# From -- ./inp_files/1799.got.cif
#   From: 2010.05.17/outbox.cif.g08.bks.cpg/sg165_1_cif.got.tgz:1799.got - 2010.05.20 11:02:39.
