data_PCOD9578671
_publ_section_title
;
Structure prediction by ZEFSAII (Michael W. Deem and Ramdas Pophale) SiO2 
 PCOD9578671
Probable space group: P -3 M 1
;
_chemical_formula_sum "Si O2"
_cell_formula_units_Z 66
_cell_length_a 12.620491
_cell_length_b 12.620491
_cell_length_c 28.850672
_cell_angle_alpha 90.000000
_cell_angle_beta 90.000000
_cell_angle_gamma 120.000000
_cell_volume 3979.596754
_symmetry_space_group_name_H-M "P -3 M 1"
_symmetry_group_IT_number 164
_symmetry_cell_setting 'hexagonal'
loop_
_space_group_symop_operation_xyz
x,y,z
-y,x-y,z
-x+y,-x,z
x-y,-y,-z
-x,-x+y,-z
y,x,-z
-x,-y,-z
y,-x+y,-z
x-y,x,-z
-x+y,y,z
x,x-y,z
-y,-x,z
loop_
_atom_site_type_symbol
_atom_site_label
_atom_site_fract_x
_atom_site_fract_y
_atom_site_fract_z
Si Si1 0.666503 0.081186 0.454311
Si Si2 0.918388 0.333004 0.272743
Si Si3 0.748089 0.748489 0.636701
Si Si4 0.667150 0.585230 0.091208
Si Si5 0.252101 0.000000 0.000000
Si Si6 0.251773 0.252104 0.818232
O O1 0.546516 0.093031 0.447315
O O2 0.785956 0.214045 0.459934
O O3 0.644588 0.000000 0.500000
O O4 0.689278 0.018929 0.409728
O O5 0.923916 0.461958 0.272004
O O6 0.777806 0.222195 0.273060
O O7 0.980241 0.313077 0.227390
O O8 0.980841 0.316212 0.318560
O O9 0.871046 0.742091 0.637404
O O10 0.778192 0.889096 0.637934
O O11 0.777314 0.554628 0.092550
O O12 0.537470 0.462531 0.091280
O O13 0.685121 0.667591 0.136224
O O14 0.687320 0.664648 0.045104
O O15 0.239114 0.119557 0.993594
O O16 0.111212 0.222424 0.818719
O O17 0.257192 0.128596 0.817859
#
# Coordination Sequence:
#
# PCOD9578671 Si02
#       6
#    12  12  12  12   6  12
#     4  10  20  34  53  76 103 135 170 209 252 300
#     4  10  20  34  54  78 104 134 168 208 252 300
#     4  10  20  34  53  76 102 132 167 209 255 301
#     4  10  20  34  53  76 103 135 170 209 252 300
#     4  10  20  34  54  78 104 134 168 210 256 302
#     4  10  20  34  54  78 104 134 168 209 254 300
#
# _framework density 16.584596000000001
#
# number of rings (size 3 to 8) (size 9 to 14) (size 15 to 20)
#    0.000    2.000    0.000    4.000    0.000    0.000 
#    0.000    7.273    0.000   18.909    0.000    0.000 
#    0.000    0.000    0.000    0.000    0.000    0.000 
#
# Total GULP energy -368550.105181 kJ/mol
# GULP energy per Si atom -5584.092503 kJ/mol
# Density = 1.654685 g / cm^3
# Si number density = 16.584596 Si / 1000 Ang^3
#
#
#
# Elastic Constant Matrix: (Units=GPa)
#
#
# Indices 1 2 3 4 5 6 
#
# 1 150.9031 112.6785 101.1253 -1.6941 0.0000 0.0000
# 2 112.6785 150.9031 101.1253 1.6941 0.0000 0.0000
# 3 101.1253 101.1253 173.2970 0.0000 0.0000 0.0000
# 4 -1.6941 1.6941 0.0000 18.1447 0.0000 0.0000
# 5 0.0000 0.0000 0.0000 0.0000 18.1447 -1.6941
# 6 0.0000 0.0000 0.0000 0.0000 -1.6941 19.1123
#
#
#
# Elastic Compliance Matrix: (Units=1/GPa)
#
#
# Indices 1 2 3 4 5 6 
#
# 1 0.016625 -0.009755 -0.004009 0.002463 0.000000 0.000000
# 2 -0.009755 0.016625 -0.004009 -0.002463 0.000000 0.000000
# 3 -0.004009 -0.004009 0.010449 0.000000 0.000000 0.000000
# 4 0.002463 -0.002463 0.000000 0.055573 0.000000 0.000000
# 5 0.000000 0.000000 0.000000 0.000000 0.055573 0.004926
# 6 0.000000 0.000000 0.000000 0.000000 0.004926 0.052759
#
#
# Mechanical properties :
#
#
# Convention : Reuss Voigt Hill
#
# Bulk Modulus (GPa) = 122.64655 122.77352 122.71003
# Shear Modulus (GPa) = 20.33632 21.75860 21.04746
#
# Velocity S-wave (km/s) = 3.50554 3.62605 3.56630
# Velocity P-wave (km/s) = 9.51303 9.57707 9.54510
#
# Compressibility (1/GPa) = 0.00815351
#
# Stress axis : x y z
#
# Youngs Moduli (GPa) = 60.15134 60.15134 95.70178
#
# Poissons Ratio (x) = 0.58676 0.38366
# Poissons Ratio (y) = 0.58676 0.38366
# Poissons Ratio (z) = 0.24114 0.24114
#
# Static dielectric constant tensor:
#      x y z
#    x 1.522800 0.000000 0.000000 
#    y 0.000000 1.522800 0.000000 
#    z 0.000000 0.000000 1.546090 
# 
# From -- ./inp_files/5516.got.cif
#   From: 2010.05.17/outbox.cif.g08.bks.cpg/sg164_3_cif.got.tgz:5516.got - 2010.05.20 10:58:56.
