data_PCOD9578121
_publ_section_title
;
Structure prediction by ZEFSAII (Michael W. Deem and Ramdas Pophale) SiO2 
 PCOD9578121
Probable space group: P -3 1 C
;
_chemical_formula_sum "Si O2"
_cell_formula_units_Z 48
_cell_length_a 11.340797
_cell_length_b 11.340797
_cell_length_c 19.545576
_cell_angle_alpha 90.000000
_cell_angle_beta 90.000000
_cell_angle_gamma 120.000000
_cell_volume 2177.039247
_symmetry_space_group_name_H-M "P -3 1 C"
_symmetry_group_IT_number 163
_symmetry_cell_setting 'hexagonal'
loop_
_space_group_symop_operation_xyz
x,y,z
-y,x-y,z
-x+y,-x,z
-y,-x,1/2-z
-x+y,y,1/2-z
x,x-y,1/2-z
-x,-y,-z
y,-x+y,-z
x-y,x,-z
y,x,1/2+z
x-y,-y,1/2+z
-x,-x+y,1/2+z
loop_
_atom_site_type_symbol
_atom_site_label
_atom_site_fract_x
_atom_site_fract_y
_atom_site_fract_z
Si Si1 0.622432 0.933102 0.669898
Si Si2 0.230122 0.276630 0.529015
Si Si3 0.676708 0.492778 0.568254
Si Si4 0.357201 0.395452 0.822359
O O1 0.725026 0.998796 0.606609
O O2 0.663693 0.999448 0.745159
O O3 0.604065 0.782554 0.666756
O O4 0.476640 0.925040 0.665504
O O5 0.246282 0.169192 0.482696
O O6 0.319272 0.429986 0.500736
O O7 0.545530 0.341669 0.571399
O O8 0.681737 0.591002 0.628169
#
# Coordination Sequence:
#
# PCOD9578121 Si02
#       4
#    12  12  12  12
#     4  10  22  37  70  96 135 181 225 287 340 407
#     4  12  25  44  69 100 140 186 240 286 346 417
#     4  10  24  42  69 103 142 181 223 291 365 413
#     4  10  20  43  65 102 134 178 235 284 346 416
#
# _framework density 22.048293000000001
#
# number of rings (size 3 to 8) (size 9 to 14) (size 15 to 20)
#    0.500    1.000    2.500    2.250    3.500    4.000 
#    0.000   11.250    0.000    0.000    0.000    0.000 
#    0.000    0.000    0.000    0.000    0.000    0.000 
#
# Total GULP energy -267545.934138 kJ/mol
# GULP energy per Si atom -5573.873628 kJ/mol
# Density = 2.199811 g / cm^3
# Si number density = 22.048293 Si / 1000 Ang^3
#
#
#
# Elastic Constant Matrix: (Units=GPa)
#
#
# Indices 1 2 3 4 5 6 
#
# 1 90.9736 24.6937 30.9604 0.0000 4.6568 0.0000
# 2 24.6937 90.9736 30.9604 0.0000 -4.6568 0.0000
# 3 30.9604 30.9604 109.5843 0.0000 0.0000 0.0000
# 4 0.0000 0.0000 0.0000 29.3973 0.0000 -4.6568
# 5 4.6568 -4.6568 0.0000 0.0000 29.3973 0.0000
# 6 0.0000 0.0000 0.0000 -4.6568 0.0000 33.1399
#
#
#
# Elastic Compliance Matrix: (Units=1/GPa)
#
#
# Indices 1 2 3 4 5 6 
#
# 1 0.012809 -0.002622 -0.002878 0.000000 -0.002444 0.000000
# 2 -0.002622 0.012809 -0.002878 0.000000 0.002444 0.000000
# 3 -0.002878 -0.002878 0.010752 0.000000 0.000000 0.000000
# 4 0.000000 0.000000 0.000000 0.034791 0.000000 0.004889
# 5 -0.002444 0.002444 0.000000 0.000000 0.034791 0.000000
# 6 0.000000 0.000000 0.000000 0.004889 0.000000 0.030862
#
#
# Mechanical properties :
#
#
# Convention : Reuss Voigt Hill
#
# Bulk Modulus (GPa) = 50.98822 51.64004 51.31413
# Shear Modulus (GPa) = 31.22918 32.04805 31.63861
#
# Velocity S-wave (km/s) = 3.76759 3.81667 3.79221
# Velocity P-wave (km/s) = 6.48862 6.54941 6.51909
#
# Compressibility (1/GPa) = 0.01961237
#
# Stress axis : x y z
#
# Youngs Moduli (GPa) = 78.07282 78.07282 93.01010
#
# Poissons Ratio (x) = 0.20474 0.26767
# Poissons Ratio (y) = 0.20474 0.26767
# Poissons Ratio (z) = 0.22468 0.22468
#
# Static dielectric constant tensor:
#      x y z
#    x 1.820040 0.000000 0.000000 
#    y 0.000000 1.820040 0.000000 
#    z 0.000000 0.000000 1.881440 
# 
# From -- ./inp_files/3441.got.cif
#   From: 2010.05.17/outbox.cif.g08.bks.cpg/sg163_2_cif.got.tgz:3441.got - 2010.05.20 10:56:03.
