data_PCOD9578887
_publ_section_title
;
Structure prediction by ZEFSAII (Michael W. Deem and Ramdas Pophale) SiO2 
 PCOD9578887
Probable space group: P -3 C 1
;
_chemical_formula_sum "Si O2"
_cell_formula_units_Z 36
_cell_length_a 11.143410
_cell_length_b 11.143410
_cell_length_c 14.868122
_cell_angle_alpha 90.000000
_cell_angle_beta 90.000000
_cell_angle_gamma 120.000000
_cell_volume 1598.906129
_symmetry_space_group_name_H-M "P -3 C 1"
_symmetry_group_IT_number 165
_symmetry_cell_setting 'hexagonal'
loop_
_space_group_symop_operation_xyz
x,y,z
-y,x-y,z
-x+y,-x,z
x-y,-y,1/2-z
-x,-x+y,1/2-z
y,x,1/2-z
-x,-y,-z
y,-x+y,-z
x-y,x,-z
-x+y,y,1/2+z
x,x-y,1/2+z
-y,-x,1/2+z
loop_
_atom_site_type_symbol
_atom_site_label
_atom_site_fract_x
_atom_site_fract_y
_atom_site_fract_z
Si Si1 0.027537 0.730817 0.646693
Si Si2 0.353873 0.834696 0.000000
Si Si3 0.027537 0.296720 0.853307
O O1 0.078571 0.647119 0.585321
O O2 0.000000 0.678396 0.750000
O O3 0.886302 0.732346 0.629593
O O4 0.153956 0.886302 0.629593
O O5 0.213909 0.681909 0.000001
O O6 0.352881 0.921428 0.914679
O O7 0.000000 0.321604 0.750000
#
# Coordination Sequence:
#
# PCOD9578887 Si02
#       3
#    12  12  12
#     4  10  21  40  68 102 137 179 231 299 359 408
#     4  10  24  44  66 100 142 190 238 272 342 428
#     4  10  21  40  68 102 137 179 231 299 359 408
#
# _framework density 22.515394000000001
#
# number of rings (size 3 to 8) (size 9 to 14) (size 15 to 20)
#    0.667    1.333    0.000    2.667    0.000    8.000 
#    0.000   26.667    0.000    0.000    0.000    0.000 
#    0.000    0.000    0.000    0.000    0.000    0.000 
#
# Total GULP energy -200626.244678 kJ/mol
# GULP energy per Si atom -5572.951241 kJ/mol
# Density = 2.246415 g / cm^3
# Si number density = 22.515394 Si / 1000 Ang^3
#
#
#
# Elastic Constant Matrix: (Units=GPa)
#
#
# Indices 1 2 3 4 5 6 
#
# 1 181.6353 81.7945 107.8267 0.0006 0.0000 0.0000
# 2 81.7945 181.6353 107.8267 -0.0006 0.0000 0.0000
# 3 107.8267 107.8267 130.6320 0.0000 0.0000 0.0000
# 4 0.0006 -0.0006 0.0000 54.4054 0.0000 0.0000
# 5 0.0000 0.0000 0.0000 0.0000 54.4054 0.0006
# 6 0.0000 0.0000 0.0000 0.0000 0.0006 49.9204
#
#
#
# Elastic Compliance Matrix: (Units=1/GPa)
#
#
# Indices 1 2 3 4 5 6 
#
# 1 0.010861 0.000845 -0.009663 0.000000 0.000000 0.000000
# 2 0.000845 0.010861 -0.009663 0.000000 0.000000 0.000000
# 3 -0.009663 -0.009663 0.023607 0.000000 0.000000 0.000000
# 4 0.000000 0.000000 0.000000 0.018381 0.000000 0.000000
# 5 0.000000 0.000000 0.000000 0.000000 0.018381 0.000000
# 6 0.000000 0.000000 0.000000 0.000000 0.000000 0.020032
#
#
# Mechanical properties :
#
#
# Convention : Reuss Voigt Hill
#
# Bulk Modulus (GPa) = 119.49379 120.97759 120.23569
# Shear Modulus (GPa) = 35.24317 44.84320 40.04319
#
# Velocity S-wave (km/s) = 3.96067 4.46765 4.22178
# Velocity P-wave (km/s) = 8.60832 8.97000 8.79102
#
# Compressibility (1/GPa) = 0.00836864
#
# Stress axis : x y z
#
# Youngs Moduli (GPa) = 92.07173 92.07173 42.36106
#
# Poissons Ratio (x) = -0.07781 0.40932
# Poissons Ratio (y) = -0.07781 0.40932
# Poissons Ratio (z) = 0.88965 0.88965
#
# Static dielectric constant tensor:
#      x y z
#    x 1.854240 0.000000 0.000000 
#    y 0.000000 1.854240 0.000000 
#    z 0.000000 0.000000 1.881230 
# 
# From -- ./inp_files/1382.got.cif
#   From: 2010.05.17/outbox.cif.g08.bks.cpg/sg165_1_cif.got.tgz:1382.got - 2010.05.20 11:02:39.
