data_PCOD9578152
_publ_section_title
;
Structure prediction by ZEFSAII (Michael W. Deem and Ramdas Pophale) SiO2 
 PCOD9578152
Probable space group: P -3 1 C
;
_chemical_formula_sum "Si O2"
_cell_formula_units_Z 78
_cell_length_a 15.922586
_cell_length_b 15.922586
_cell_length_c 15.738443
_cell_angle_alpha 90.000000
_cell_angle_beta 90.000000
_cell_angle_gamma 120.000000
_cell_volume 3455.569274
_symmetry_space_group_name_H-M "P -3 1 C"
_symmetry_group_IT_number 163
_symmetry_cell_setting 'hexagonal'
loop_
_space_group_symop_operation_xyz
x,y,z
-y,x-y,z
-x+y,-x,z
-y,-x,1/2-z
-x+y,y,1/2-z
x,x-y,1/2-z
-x,-y,-z
y,-x+y,-z
x-y,x,-z
y,x,1/2+z
x-y,-y,1/2+z
-x,-x+y,1/2+z
loop_
_atom_site_type_symbol
_atom_site_label
_atom_site_fract_x
_atom_site_fract_y
_atom_site_fract_z
Si Si1 0.286233 0.972734 0.227297
Si Si2 0.149777 0.673922 0.600375
Si Si3 0.661181 0.130670 0.366534
Si Si4 0.277351 0.034247 0.059209
Si Si5 0.470069 0.235035 0.750000
Si Si6 0.686093 0.237626 0.930124
Si Si7 0.789015 0.743827 0.381560
O O1 0.279287 0.878398 0.269665
O O2 0.395404 0.061497 0.206951
O O3 0.244423 0.949766 0.130169
O O4 0.223660 0.000735 0.288907
O O5 0.251473 0.758350 0.640046
O O6 0.127858 0.567896 0.626625
O O7 0.166434 0.689061 0.498273
O O8 0.068617 0.701094 0.619573
O O9 0.688755 0.083109 0.445807
O O10 0.260468 0.113908 0.106581
O O11 0.227804 0.012718 0.968403
O O12 0.527878 0.297631 0.831335
O O13 0.764313 0.349789 0.949110
#
# Coordination Sequence:
#
# PCOD9578152 Si02
#       7
#    12  12  12  12   6  12  12
#     4  10  25  42  62  96 130 175 225 283 339 412
#     4  11  19  38  65  87 130 179 223 274 334 386
#     4   9  21  39  60  96 126 173 232 266 332 401
#     4   9  23  42  62  97 125 170 220 266 347 408
#     4  12  24  40  64  90 134 174 234 278 348 398
#     4  10  21  39  59  88 127 186 222 271 335 389
#     4  11  23  40  68  88 134 166 214 283 333 405
#
# _framework density 22.572258000000001
#
# number of rings (size 3 to 8) (size 9 to 14) (size 15 to 20)
#    1.231    0.615    1.538    2.154    6.462    1.231 
#    5.538    0.000    0.000    2.154    0.000    0.000 
#    0.000    0.000    0.000    0.000    0.000    0.000 
#
# Total GULP energy -434437.119417 kJ/mol
# GULP energy per Si atom -5569.706659 kJ/mol
# Density = 2.252088 g / cm^3
# Si number density = 22.572258 Si / 1000 Ang^3
#
#
#
# Elastic Constant Matrix: (Units=GPa)
#
#
# Indices 1 2 3 4 5 6 
#
# 1 29.3595 5.3991 6.9414 0.0000 5.1797 0.0000
# 2 5.3991 29.3595 6.9414 0.0000 -5.1797 0.0000
# 3 6.9414 6.9414 115.7809 0.0000 0.0000 0.0000
# 4 0.0000 0.0000 0.0000 29.1918 0.0000 -5.1797
# 5 5.1797 -5.1797 0.0000 0.0000 29.1918 0.0000
# 6 0.0000 0.0000 0.0000 -5.1797 0.0000 11.9802
#
#
#
# Elastic Compliance Matrix: (Units=1/GPa)
#
#
# Indices 1 2 3 4 5 6 
#
# 1 0.037340 -0.007864 -0.001767 0.000000 -0.008021 0.000000
# 2 -0.007864 0.037340 -0.001767 0.000000 0.008021 0.000000
# 3 -0.001767 -0.001767 0.008849 0.000000 0.000000 0.000000
# 4 0.000000 0.000000 0.000000 0.037103 0.000000 0.016042
# 5 -0.008021 0.008021 0.000000 0.000000 0.037103 0.000000
# 6 0.000000 0.000000 0.000000 0.016042 0.000000 0.090407
#
#
# Mechanical properties :
#
#
# Convention : Reuss Voigt Hill
#
# Bulk Modulus (GPa) = 16.46587 23.67373 20.06980
# Shear Modulus (GPa) = 17.17152 24.42064 20.79608
#
# Velocity S-wave (km/s) = 2.76114 3.29277 3.03860
# Velocity P-wave (km/s) = 4.18040 4.99672 4.60668
#
# Compressibility (1/GPa) = 0.06073169
#
# Stress axis : x y z
#
# Youngs Moduli (GPa) = 26.78128 26.78128 113.00845
#
# Poissons Ratio (x) = 0.21060 0.19970
# Poissons Ratio (y) = 0.21060 0.19970
# Poissons Ratio (z) = 0.04733 0.04733
#
# Static dielectric constant tensor:
#      x y z
#    x 1.852710 0.000000 0.000000 
#    y 0.000000 1.852710 0.000000 
#    z 0.000000 0.000000 1.978930 
# 
# From -- ./inp_files/3266.got.cif
#   From: 2010.05.17/outbox.cif.g08.bks.cpg/sg163_2_cif.got.tgz:3266.got - 2010.05.20 10:56:03.
