data_PCOD9578278
_publ_section_title
;
Structure prediction by ZEFSAII (Michael W. Deem and Ramdas Pophale) SiO2 
 PCOD9578278
Probable space group: P -3 1 C
;
_chemical_formula_sum "Si O2"
_cell_formula_units_Z 60
_cell_length_a 11.752576
_cell_length_b 11.752576
_cell_length_c 27.499514
_cell_angle_alpha 90.000000
_cell_angle_beta 90.000000
_cell_angle_gamma 120.000000
_cell_volume 3289.438619
_symmetry_space_group_name_H-M "P -3 1 C"
_symmetry_group_IT_number 163
_symmetry_cell_setting 'hexagonal'
loop_
_space_group_symop_operation_xyz
x,y,z
-y,x-y,z
-x+y,-x,z
-y,-x,1/2-z
-x+y,y,1/2-z
x,x-y,1/2-z
-x,-y,-z
y,-x+y,-z
x-y,x,-z
y,x,1/2+z
x-y,-y,1/2+z
-x,-x+y,1/2+z
loop_
_atom_site_type_symbol
_atom_site_label
_atom_site_fract_x
_atom_site_fract_y
_atom_site_fract_z
Si Si1 0.975586 0.246734 0.443995
Si Si2 0.000000 0.000000 0.557845
Si Si3 0.901636 0.830930 0.192566
Si Si4 0.333334 0.666668 0.609227
Si Si5 0.333334 0.666668 0.008923
Si Si6 0.393022 0.121784 0.548457
Si Si7 0.871901 0.606277 0.382253
O O1 0.948762 0.250228 0.501248
O O2 0.851938 0.236395 0.416544
O O3 0.125140 0.355570 0.434100
O O4 0.967706 0.110970 0.427832
O O5 0.000000 0.000000 0.500000
O O6 0.902407 0.804813 0.250000
O O7 0.809718 0.702441 0.162305
O O8 0.859274 0.941276 0.181763
O O9 0.333334 0.666667 0.549765
O O10 0.197152 0.546667 0.628702
O O11 0.200174 0.542018 0.029376
O O12 0.351367 0.006868 0.587728
#
# Coordination Sequence:
#
# PCOD9578278 Si02
#       7
#    12   4  12   4   4  12  12
#     4  12  19  31  54  79 110 145 196 257 290 339
#     4  12  15  27  45  84 100 122 187 246 303 321
#     4   8  18  39  67  97 117 136 183 259 325 363
#     4  12  27  39  52  82 132 174 214 235 291 367
#     4  12  27  42  48  73 127 190 211 240 285 358
#     4  12  23  36  55  77 114 159 211 249 292 345
#     4  12  23  37  57  86 117 159 202 250 299 358
#
# _framework density 18.240193999999999
#
# number of rings (size 3 to 8) (size 9 to 14) (size 15 to 20)
#    0.400    0.400    8.000    1.200    2.800    1.600 
#    0.000    1.000    0.000    0.000    0.000    0.000 
#    0.000    0.000    0.000    0.000    0.000    0.000 
#
# Total GULP energy -334599.954303 kJ/mol
# GULP energy per Si atom -5576.665905 kJ/mol
# Density = 1.819868 g / cm^3
# Si number density = 18.240194 Si / 1000 Ang^3
#
#
#
# Elastic Constant Matrix: (Units=GPa)
#
#
# Indices 1 2 3 4 5 6 
#
# 1 83.8868 38.1246 30.9626 0.0000 1.8389 -0.0002
# 2 38.1246 83.8864 30.9626 0.0003 -1.8387 -0.0002
# 3 30.9626 30.9626 80.4970 0.0000 0.0000 -0.0001
# 4 0.0000 0.0003 0.0000 17.9698 0.0000 -1.8387
# 5 1.8389 -1.8387 0.0000 0.0000 17.9698 0.0001
# 6 -0.0002 -0.0002 -0.0001 -1.8387 0.0001 22.8810
#
#
#
# Elastic Compliance Matrix: (Units=1/GPa)
#
#
# Indices 1 2 3 4 5 6 
#
# 1 0.016109 -0.005925 -0.003917 0.000000 -0.002255 0.000000
# 2 -0.005925 0.016109 -0.003917 0.000000 0.002255 0.000000
# 3 -0.003917 -0.003917 0.015436 0.000000 0.000000 0.000000
# 4 0.000000 0.000000 0.000000 0.056110 0.000000 0.004509
# 5 -0.002255 0.002255 0.000000 0.000000 0.056110 0.000000
# 6 0.000000 0.000000 0.000000 0.004509 0.000000 0.044067
#
#
# Mechanical properties :
#
#
# Convention : Reuss Voigt Hill
#
# Bulk Modulus (GPa) = 49.66341 49.81886 49.74113
# Shear Modulus (GPa) = 20.99332 21.64550 21.31941
#
# Velocity S-wave (km/s) = 3.39623 3.44858 3.42250
# Velocity P-wave (km/s) = 6.53190 6.57487 6.55342
#
# Compressibility (1/GPa) = 0.02013555
#
# Stress axis : x y z
#
# Youngs Moduli (GPa) = 62.07823 62.07796 64.78229
#
# Poissons Ratio (x) = 0.36779 0.25377
# Poissons Ratio (y) = 0.36779 0.25377
# Poissons Ratio (z) = 0.24318 0.24318
#
# Static dielectric constant tensor:
#      x y z
#    x 1.662780 0.000000 0.000000 
#    y 0.000000 1.662780 0.000000 
#    z 0.000000 0.000000 1.631450 
# 
# From -- ./inp_files/4325.got.cif
#   From: 2010.05.17/outbox.cif.g08.bks.cpg/sg163_3_cif.got.tgz:4325.got - 2010.05.20 10:56:03.
