data_PCOD9578844
_publ_section_title
;
Structure prediction by ZEFSAII (Michael W. Deem and Ramdas Pophale) SiO2 
 PCOD9578844
Probable space group: P -3 C 1
;
_chemical_formula_sum "Si O2"
_cell_formula_units_Z 68
_cell_length_a 16.285584
_cell_length_b 16.285584
_cell_length_c 14.566854
_cell_angle_alpha 90.000000
_cell_angle_beta 90.000000
_cell_angle_gamma 120.000000
_cell_volume 3345.823853
_symmetry_space_group_name_H-M "P -3 C 1"
_symmetry_group_IT_number 165
_symmetry_cell_setting 'hexagonal'
loop_
_space_group_symop_operation_xyz
x,y,z
-y,x-y,z
-x+y,-x,z
x-y,-y,1/2-z
-x,-x+y,1/2-z
y,x,1/2-z
-x,-y,-z
y,-x+y,-z
x-y,x,-z
-x+y,y,1/2+z
x,x-y,1/2+z
-y,-x,1/2+z
loop_
_atom_site_type_symbol
_atom_site_label
_atom_site_fract_x
_atom_site_fract_y
_atom_site_fract_z
Si Si1 0.832129 0.225661 0.143323
Si Si2 0.333334 0.666668 0.430363
Si Si3 0.666668 0.333335 0.287677
Si Si4 0.422925 0.986915 0.393237
Si Si5 0.296381 0.296381 0.750000
Si Si6 0.430064 0.430064 0.250000
Si Si7 0.280244 0.474343 0.178524
Si Si8 0.305508 0.470215 0.504219
O O1 0.778789 0.240297 0.228651
O O2 0.889991 0.325005 0.087484
O O3 0.913046 0.211744 0.195496
O O4 0.755536 0.149856 0.075212
O O5 0.333334 0.666667 0.320862
O O6 0.331755 0.572674 0.465695
O O7 0.767851 0.413125 0.326124
O O8 0.468239 0.067348 0.470219
O O9 0.379146 0.036071 0.325846
O O10 0.491670 0.966114 0.331374
O O11 0.336844 0.420430 0.202930
O O12 0.216276 0.449446 0.088946
#
# Coordination Sequence:
#
# PCOD9578844 Si02
#       8
#    12   4   4  12   6   6  12  12
#     4  10  20  37  61  77 110 151 194 238 298 355
#     4  12  25  32  49  85 104 145 202 251 298 328
#     4  12  22  38  55  61 116 154 196 245 301 328
#     4   9  18  38  58  75 108 157 190 235 310 343
#     4   7  16  38  60  72 102 150 185 228 306 349
#     4  11  22  34  58  76 110 158 189 244 308 347
#     4  12  22  38  54  79 110 150 199 253 292 346
#     4  12  22  37  57  82 107 146 208 254 286 350
#
# _framework density 20.323843
#
# number of rings (size 3 to 8) (size 9 to 14) (size 15 to 20)
#    1.059    0.353    3.529    4.235    0.000    1.412 
#    0.000    2.647    0.000    0.000    0.000    0.000 
#    0.000    0.000    0.000   48.176    0.000    1.147 
#
# Total GULP energy -378781.799975 kJ/mol
# GULP energy per Si atom -5570.320588 kJ/mol
# Density = 2.027759 g / cm^3
# Si number density = 20.323843 Si / 1000 Ang^3
#
#
#
# Elastic Constant Matrix: (Units=GPa)
#
#
# Indices 1 2 3 4 5 6 
#
# 1 53.8252 16.4073 10.5529 -0.9745 0.0000 0.0000
# 2 16.4073 53.8260 10.5530 0.9747 0.0000 0.0000
# 3 10.5529 10.5530 90.1077 0.0002 0.0000 0.0000
# 4 -0.9745 0.9747 0.0002 24.4181 0.0000 0.0000
# 5 0.0000 0.0000 0.0000 0.0000 24.4177 -0.9743
# 6 0.0000 0.0000 0.0000 0.0000 -0.9743 18.7092
#
#
#
# Elastic Compliance Matrix: (Units=1/GPa)
#
#
# Indices 1 2 3 4 5 6 
#
# 1 0.020769 -0.006011 -0.001728 0.001069 0.000000 0.000000
# 2 -0.006011 0.020769 -0.001728 -0.001069 0.000000 0.000000
# 3 -0.001728 -0.001728 0.011503 0.000000 0.000000 0.000000
# 4 0.001069 -0.001069 0.000000 0.041039 0.000000 0.000000
# 5 0.000000 0.000000 0.000000 0.000000 0.041039 0.002137
# 6 0.000000 0.000000 0.000000 0.000000 0.002137 0.053561
#
#
# Mechanical properties :
#
#
# Convention : Reuss Voigt Hill
#
# Bulk Modulus (GPa) = 29.32143 30.30946 29.81544
# Shear Modulus (GPa) = 22.83269 24.19203 23.51236
#
# Velocity S-wave (km/s) = 3.35542 3.45386 3.40499
# Velocity P-wave (km/s) = 5.42865 5.55438 5.49187
#
# Compressibility (1/GPa) = 0.03410475
#
# Stress axis : x y z
#
# Youngs Moduli (GPa) = 48.14793 48.14868 86.93638
#
# Poissons Ratio (x) = 0.28944 0.15026
# Poissons Ratio (y) = 0.28944 0.15026
# Poissons Ratio (z) = 0.08322 0.08322
#
# Static dielectric constant tensor:
#      x y z
#    x 1.775070 0.000000 0.000000 
#    y 0.000000 1.775070 0.000000 
#    z 0.000000 0.000000 1.836510 
# 
# From -- ./inp_files/1813.got.cif
#   From: 2010.05.17/outbox.cif.g08.bks.cpg/sg165_1_cif.got.tgz:1813.got - 2010.05.20 11:02:39.
