data_PCOD9578984
_publ_section_title
;
Structure prediction by ZEFSAII (Michael W. Deem and Ramdas Pophale) SiO2 
 PCOD9578984
Probable space group: P -3 C 1
;
_chemical_formula_sum "Si O2"
_cell_formula_units_Z 48
_cell_length_a 11.450953
_cell_length_b 11.450953
_cell_length_c 15.802318
_cell_angle_alpha 90.000000
_cell_angle_beta 90.000000
_cell_angle_gamma 120.000000
_cell_volume 1794.463765
_symmetry_space_group_name_H-M "P -3 C 1"
_symmetry_group_IT_number 165
_symmetry_cell_setting 'hexagonal'
loop_
_space_group_symop_operation_xyz
x,y,z
-y,x-y,z
-x+y,-x,z
x-y,-y,1/2-z
-x,-x+y,1/2-z
y,x,1/2-z
-x,-y,-z
y,-x+y,-z
x-y,x,-z
-x+y,y,1/2+z
x,x-y,1/2+z
-y,-x,1/2+z
loop_
_atom_site_type_symbol
_atom_site_label
_atom_site_fract_x
_atom_site_fract_y
_atom_site_fract_z
Si Si1 0.122529 0.732025 0.803170
Si Si2 0.000000 0.000000 0.397937
Si Si3 0.265325 0.266981 0.114418
Si Si4 0.333335 0.666668 0.788111
Si Si5 0.333334 0.666668 0.494788
Si Si6 0.403982 0.299783 0.935464
O O1 0.247639 0.879337 0.825862
O O2 0.194806 0.658035 0.760269
O O3 0.000000 0.724450 0.750000
O O4 0.033991 0.645296 0.883929
O O5 0.127596 0.132330 0.367549
O O6 0.000000 0.000000 0.500000
O O7 0.210899 0.371907 0.112780
O O8 0.314131 0.260157 0.020080
O O9 0.333334 0.666667 0.892231
O O10 0.188442 0.632498 0.531387
#
# Coordination Sequence:
#
# PCOD9578984 Si02
#       6
#    12   4  12   4   4  12
#     4  12  29  48  74 111 151 206 252 307 390 457
#     4  12  15  33  64 101 136 183 241 314 379 402
#     4  12  20  41  73 106 148 192 253 318 368 438
#     4  12  27  55  77 103 159 202 248 313 387 469
#     4  12  27  43  80 118 147 202 266 310 375 463
#     4  12  24  43  75 113 152 196 255 315 373 452
#
# _framework density 26.748939
#
# number of rings (size 3 to 8) (size 9 to 14) (size 15 to 20)
#    0.000    0.000   10.000    0.000    3.500    5.000 
#    0.000    0.000    0.000    0.000    0.000    0.000 
#    0.000    0.000    0.000    0.000    0.000    0.000 
#
# Total GULP energy -268655.422600 kJ/mol
# GULP energy per Si atom -5596.987971 kJ/mol
# Density = 2.668806 g / cm^3
# Si number density = 26.748939 Si / 1000 Ang^3
#
#
#
# Elastic Constant Matrix: (Units=GPa)
#
#
# Indices 1 2 3 4 5 6 
#
# 1 104.7290 32.6712 13.3052 1.5954 0.0000 0.0000
# 2 32.6712 104.7306 13.3054 -1.5955 0.0000 0.0000
# 3 13.3052 13.3054 58.9647 0.0002 0.0000 0.0000
# 4 1.5954 -1.5955 0.0002 32.4493 0.0000 0.0000
# 5 0.0000 0.0000 0.0000 0.0000 32.4488 1.5958
# 6 0.0000 0.0000 0.0000 0.0000 1.5958 36.0308
#
#
#
# Elastic Compliance Matrix: (Units=1/GPa)
#
#
# Indices 1 2 3 4 5 6 
#
# 1 0.010759 -0.003149 -0.001717 -0.000684 0.000000 0.000000
# 2 -0.003149 0.010759 -0.001717 0.000684 0.000000 0.000000
# 3 -0.001717 -0.001717 0.017734 0.000000 0.000000 0.000000
# 4 -0.000684 0.000684 0.000000 0.030885 0.000000 0.000000
# 5 0.000000 0.000000 0.000000 0.000000 0.030885 -0.001368
# 6 0.000000 0.000000 0.000000 0.000000 -0.001368 0.027815
#
#
# Mechanical properties :
#
#
# Convention : Reuss Voigt Hill
#
# Bulk Modulus (GPa) = 38.33446 42.99867 40.66656
# Shear Modulus (GPa) = 33.17873 34.12860 33.65366
#
# Velocity S-wave (km/s) = 3.52572 3.57583 3.55086
# Velocity P-wave (km/s) = 5.56206 5.75835 5.66106
#
# Compressibility (1/GPa) = 0.02608619
#
# Stress axis : x y z
#
# Youngs Moduli (GPa) = 92.94285 92.94428 56.38781
#
# Poissons Ratio (x) = 0.29265 0.09684
# Poissons Ratio (y) = 0.29265 0.09684
# Poissons Ratio (z) = 0.15961 0.15962
#
# Static dielectric constant tensor:
#      x y z
#    x 2.054130 0.000000 0.000000 
#    y 0.000000 2.054120 0.000000 
#    z 0.000000 0.000000 2.220910 
# 
# From -- ./inp_files/2570.got.cif
#   From: 2010.05.17/outbox.cif.g08.bks.cpg/sg165_2_cif.got.tgz:2570.got - 2010.05.20 11:02:39.
