data_PCOD9578993
_publ_section_title
;
Structure prediction by ZEFSAII (Michael W. Deem and Ramdas Pophale) SiO2 
 PCOD9578993
Probable space group: P -3 C 1
;
_chemical_formula_sum "Si O2"
_cell_formula_units_Z 30
_cell_length_a 16.443937
_cell_length_b 16.443937
_cell_length_c 6.974843
_cell_angle_alpha 90.000000
_cell_angle_beta 90.000000
_cell_angle_gamma 120.000000
_cell_volume 1633.340295
_symmetry_space_group_name_H-M "P -3 C 1"
_symmetry_group_IT_number 165
_symmetry_cell_setting 'hexagonal'
loop_
_space_group_symop_operation_xyz
x,y,z
-y,x-y,z
-x+y,-x,z
x-y,-y,1/2-z
-x,-x+y,1/2-z
y,x,1/2-z
-x,-y,-z
y,-x+y,-z
x-y,x,-z
-x+y,y,1/2+z
x,x-y,1/2+z
-y,-x,1/2+z
loop_
_atom_site_type_symbol
_atom_site_label
_atom_site_fract_x
_atom_site_fract_y
_atom_site_fract_z
Si Si1 0.503347 0.639110 0.431450
Si Si2 0.157397 0.463547 0.004098
Si Si3 0.371499 0.371499 0.250000
O O1 0.545877 0.664308 0.218723
O O2 0.554574 0.604677 0.578665
O O3 0.517068 0.737260 0.510138
O O4 0.395191 0.558027 0.419865
O O5 0.087410 0.376895 0.867180
#
# Coordination Sequence:
#
# PCOD9578993 Si02
#       3
#    12  12   6
#     4  12  23  38  56  79 110 147 191 231 274 321
#     4  12  23  38  56  79 110 147 191 231 274 321
#     4  12  24  36  58  76 108 148 182 242 270 320
#
# _framework density 18.367267999999999
#
# number of rings (size 3 to 8) (size 9 to 14) (size 15 to 20)
#    0.000    0.000    8.000    3.200    0.000    0.000 
#    0.000    0.000    0.000    0.000    0.000    0.000 
#    0.000    0.000    0.000   12.000    0.000    0.000 
#
# Total GULP energy -167353.391598 kJ/mol
# GULP energy per Si atom -5578.446387 kJ/mol
# Density = 1.832546 g / cm^3
# Si number density = 18.367268 Si / 1000 Ang^3
#
#
#
# Elastic Constant Matrix: (Units=GPa)
#
#
# Indices 1 2 3 4 5 6 
#
# 1 60.1890 27.2164 20.4276 -0.8555 0.0000 0.0000
# 2 27.2164 60.1890 20.4276 0.8555 0.0000 0.0000
# 3 20.4276 20.4276 138.8074 0.0000 0.0000 0.0000
# 4 -0.8555 0.8555 0.0000 34.1389 0.0000 0.0000
# 5 0.0000 0.0000 0.0000 0.0000 34.1389 -0.8555
# 6 0.0000 0.0000 0.0000 0.0000 -0.8555 16.4863
#
#
#
# Elastic Compliance Matrix: (Units=1/GPa)
#
#
# Indices 1 2 3 4 5 6 
#
# 1 0.021327 -0.009041 -0.001808 0.000761 0.000000 0.000000
# 2 -0.009041 0.021327 -0.001808 -0.000761 0.000000 0.000000
# 3 -0.001808 -0.001808 0.007736 0.000000 0.000000 0.000000
# 4 0.000761 -0.000761 0.000000 0.029330 0.000000 0.000000
# 5 0.000000 0.000000 0.000000 0.000000 0.029330 0.001522
# 6 0.000000 0.000000 0.000000 0.000000 0.001522 0.060735
#
#
# Mechanical properties :
#
#
# Convention : Reuss Voigt Hill
#
# Bulk Modulus (GPa) = 39.87842 43.92542 41.90192
# Shear Modulus (GPa) = 24.57499 29.69372 27.13435
#
# Velocity S-wave (km/s) = 3.66181 4.02514 3.84776
# Velocity P-wave (km/s) = 6.29581 6.75050 6.52712
#
# Compressibility (1/GPa) = 0.02507622
#
# Stress axis : x y z
#
# Youngs Moduli (GPa) = 46.88914 46.88914 129.25903
#
# Poissons Ratio (x) = 0.42392 0.23371
# Poissons Ratio (y) = 0.42392 0.23371
# Poissons Ratio (z) = 0.08478 0.08478
#
# Static dielectric constant tensor:
#      x y z
#    x 1.645760 0.000000 0.000000 
#    y 0.000000 1.645760 0.000000 
#    z 0.000000 0.000000 1.728530 
# 
# From -- ./inp_files/360.got.cif
#   From: 2010.05.17/outbox.cif.g08.bks.cpg/sg165_1_cif.got.tgz:360.got - 2010.05.20 11:02:39.
