data_PCOD9578778
_publ_section_title
;
Structure prediction by ZEFSAII (Michael W. Deem and Ramdas Pophale) SiO2 
 PCOD9578778
Probable space group: P -3 C 1
;
_chemical_formula_sum "Si O2"
_cell_formula_units_Z 66
_cell_length_a 19.683390
_cell_length_b 19.683390
_cell_length_c 9.636909
_cell_angle_alpha 90.000000
_cell_angle_beta 90.000000
_cell_angle_gamma 120.000000
_cell_volume 3233.465152
_symmetry_space_group_name_H-M "P -3 C 1"
_symmetry_group_IT_number 165
_symmetry_cell_setting 'hexagonal'
loop_
_space_group_symop_operation_xyz
x,y,z
-y,x-y,z
-x+y,-x,z
x-y,-y,1/2-z
-x,-x+y,1/2-z
y,x,1/2-z
-x,-y,-z
y,-x+y,-z
x-y,x,-z
-x+y,y,1/2+z
x,x-y,1/2+z
-y,-x,1/2+z
loop_
_atom_site_type_symbol
_atom_site_label
_atom_site_fract_x
_atom_site_fract_y
_atom_site_fract_z
Si Si1 0.400023 0.518983 0.178685
Si Si2 0.190742 0.340677 0.546794
Si Si3 0.000000 0.657631 0.250000
Si Si4 0.976102 0.705932 0.543999
Si Si5 0.633035 0.528582 0.131378
Si Si6 0.454120 0.203907 0.702361
O O1 0.360216 0.430588 0.237298
O O2 0.483345 0.573139 0.246174
O O3 0.329090 0.529207 0.237993
O O4 0.404653 0.513110 0.014569
O O5 0.225861 0.286110 0.599251
O O6 0.106079 0.293906 0.468307
O O7 0.183496 0.389557 0.674807
O O8 0.249107 0.407474 0.437911
O O9 0.997364 0.702179 0.384158
O O10 0.953062 0.621539 0.610373
O O11 0.707145 0.518382 0.161166
#
# Coordination Sequence:
#
# PCOD9578778 Si02
#       6
#    12  12   6  12  12  12
#     4  11  22  39  58  87 118 158 201 255 306 360
#     4  11  21  37  66  85 128 154 209 249 313 377
#     4  10  18  36  60  82 122 154 198 238 320 354
#     4  10  20  38  59  96 116 167 197 259 308 376
#     4  10  25  37  60  90 119 158 207 248 314 358
#     4  11  21  41  59  86 120 165 200 262 302 368
#
# _framework density 20.411538
#
# number of rings (size 3 to 8) (size 9 to 14) (size 15 to 20)
#    0.000    1.455    7.273    0.000    2.545    7.273 
#    1.091    0.000    0.000    0.364    0.000    0.000 
#    0.000    5.818    0.000    0.000    0.000    1.273 
#
# Total GULP energy -367801.974465 kJ/mol
# GULP energy per Si atom -5572.757189 kJ/mol
# Density = 2.036508 g / cm^3
# Si number density = 20.411538 Si / 1000 Ang^3
#
#
#
# Elastic Constant Matrix: (Units=GPa)
#
#
# Indices 1 2 3 4 5 6 
#
# 1 60.2288 48.3456 15.5849 -1.3346 0.0000 0.0000
# 2 48.3456 60.2288 15.5849 1.3346 0.0000 0.0000
# 3 15.5849 15.5849 69.6013 0.0000 0.0000 0.0000
# 4 -1.3346 1.3346 0.0000 25.1938 0.0000 0.0000
# 5 0.0000 0.0000 0.0000 0.0000 25.1938 -1.3346
# 6 0.0000 0.0000 0.0000 0.0000 -1.3346 5.9416
#
#
#
# Elastic Compliance Matrix: (Units=1/GPa)
#
#
# Indices 1 2 3 4 5 6 
#
# 1 0.047504 -0.037661 -0.002204 0.004512 0.000000 0.000000
# 2 -0.037661 0.047504 -0.002204 -0.004512 0.000000 0.000000
# 3 -0.002204 -0.002204 0.015355 0.000000 0.000000 0.000000
# 4 0.004512 -0.004512 0.000000 0.040170 0.000000 0.000000
# 5 0.000000 0.000000 0.000000 0.000000 0.040170 0.009023
# 6 0.000000 0.000000 0.000000 0.000000 0.009023 0.170331
#
#
# Mechanical properties :
#
#
# Convention : Reuss Voigt Hill
#
# Bulk Modulus (GPa) = 38.13222 38.78774 38.45998
# Shear Modulus (GPa) = 11.01529 18.63541 14.82535
#
# Velocity S-wave (km/s) = 2.32558 3.02484 2.69796
# Velocity P-wave (km/s) = 5.09248 5.58960 5.34682
#
# Compressibility (1/GPa) = 0.02622454
#
# Stress axis : x y z
#
# Youngs Moduli (GPa) = 21.05075 21.05075 65.12718
#
# Poissons Ratio (x) = 0.79280 0.14354
# Poissons Ratio (y) = 0.79280 0.14354
# Poissons Ratio (z) = 0.04640 0.04640
#
# Static dielectric constant tensor:
#      x y z
#    x 2.697190 0.000000 0.000000 
#    y 0.000000 2.697190 0.000000 
#    z 0.000000 0.000000 1.855830 
# 
# From -- ./inp_files/703.got.cif
#   From: 2010.05.17/outbox.cif.g08.bks.cpg/sg165_1_cif.got.tgz:703.got - 2010.05.20 11:02:39.
