data_PCOD9578511
_publ_section_title
;
Structure prediction by ZEFSAII (Michael W. Deem and Ramdas Pophale) SiO2 
 PCOD9578511
Probable space group: P -3 M 1
;
_chemical_formula_sum "Si O2"
_cell_formula_units_Z 84
_cell_length_a 17.944665
_cell_length_b 17.944665
_cell_length_c 13.972348
_cell_angle_alpha 90.000000
_cell_angle_beta 90.000000
_cell_angle_gamma 120.000000
_cell_volume 3896.464607
_symmetry_space_group_name_H-M "P -3 M 1"
_symmetry_group_IT_number 164
_symmetry_cell_setting 'hexagonal'
loop_
_space_group_symop_operation_xyz
x,y,z
-y,x-y,z
-x+y,-x,z
x-y,-y,-z
-x,-x+y,-z
y,x,-z
-x,-y,-z
y,-x+y,-z
x-y,x,-z
-x+y,y,z
x,x-y,z
-y,-x,z
loop_
_atom_site_type_symbol
_atom_site_label
_atom_site_fract_x
_atom_site_fract_y
_atom_site_fract_z
Si Si1 0.335612 0.493819 0.744364
Si Si2 0.493003 0.333278 0.946780
Si Si3 0.227118 0.030286 0.603647
Si Si4 0.610187 0.618195 0.607699
Si Si5 0.828214 0.828440 0.178109
Si Si6 0.733516 0.646760 0.094199
Si Si7 0.834074 0.500805 0.719202
O O1 0.247866 0.495732 0.731334
O O2 0.413196 0.586805 0.772320
O O3 0.362408 0.460035 0.652030
O O4 0.318991 0.422269 0.823522
O O5 0.511718 0.255859 0.973335
O O6 0.574539 0.425462 0.972924
O O7 0.482622 0.330450 0.832723
O O8 0.404820 0.312151 0.998077
O O9 0.266561 0.133281 0.604711
O O10 0.294786 0.997310 0.606541
O O11 0.180414 0.000000 0.500000
O O12 0.178356 0.999129 0.705423
O O13 0.587411 0.587411 0.500000
O O14 0.627381 0.552647 0.668085
O O15 0.921592 0.843184 0.151082
O O16 0.755704 0.741266 0.127553
O O17 0.817552 0.908776 0.150338
O O18 0.827708 0.655416 0.091851
O O19 0.761882 0.523764 0.687368
O O20 0.799724 0.399862 0.705032
#
# Coordination Sequence:
#
# PCOD9578511 Si02
#       7
#    12  12  12  12  12  12  12
#     4  11  23  40  63  90 123 162 209 263 319 383
#     4   9  17  32  59  94 130 166 207 261 323 385
#     4  10  20  34  57  86 119 161 212 268 324 379
#     4  11  24  41  62  88 124 167 215 261 315 378
#     4  10  19  33  55  87 127 169 213 262 319 381
#     4   9  18  34  57  87 124 164 205 254 312 375
#     4  10  21  39  64  96 131 167 211 264 325 389
#
# _framework density 21.558005000000001
#
# number of rings (size 3 to 8) (size 9 to 14) (size 15 to 20)
#    0.000    2.000    1.429    2.286    0.000    5.143 
#    0.000    2.143    0.000    7.429    0.000    0.000 
#    0.000    0.000    0.000   11.571    0.000    4.429 
#
# Total GULP energy -469259.117892 kJ/mol
# GULP energy per Si atom -5586.418070 kJ/mol
# Density = 2.150894 g / cm^3
# Si number density = 21.558005 Si / 1000 Ang^3
#
#
#
# Elastic Constant Matrix: (Units=GPa)
#
#
# Indices 1 2 3 4 5 6 
#
# 1 131.0444 60.6900 45.4813 -5.9267 0.0000 0.0000
# 2 60.6900 131.0444 45.4813 5.9267 0.0000 0.0000
# 3 45.4813 45.4813 54.0222 0.0000 0.0000 0.0000
# 4 -5.9267 5.9267 0.0000 15.5192 0.0000 0.0000
# 5 0.0000 0.0000 0.0000 0.0000 15.5192 -5.9267
# 6 0.0000 0.0000 0.0000 0.0000 -5.9267 35.1772
#
#
#
# Elastic Compliance Matrix: (Units=1/GPa)
#
#
# Indices 1 2 3 4 5 6 
#
# 1 0.011938 -0.003254 -0.007311 0.005801 0.000000 0.000000
# 2 -0.003254 0.011938 -0.007311 -0.005801 0.000000 0.000000
# 3 -0.007311 -0.007311 0.030821 0.000000 0.000000 0.000000
# 4 0.005801 -0.005801 0.000000 0.068867 0.000000 0.000000
# 5 0.000000 0.000000 0.000000 0.000000 0.068867 0.011603
# 6 0.000000 0.000000 0.000000 0.000000 0.011603 0.030382
#
#
# Mechanical properties :
#
#
# Convention : Reuss Voigt Hill
#
# Bulk Modulus (GPa) = 52.78428 68.82405 60.80417
# Shear Modulus (GPa) = 18.87643 24.20701 21.54172
#
# Velocity S-wave (km/s) = 2.96228 3.35457 3.16451
# Velocity P-wave (km/s) = 6.01981 6.85555 6.45123
#
# Compressibility (1/GPa) = 0.01894503
#
# Stress axis : x y z
#
# Youngs Moduli (GPa) = 83.76865 83.76865 32.44494
#
# Poissons Ratio (x) = 0.27254 0.23721
# Poissons Ratio (y) = 0.27254 0.23721
# Poissons Ratio (z) = 0.61245 0.61245
#
# Static dielectric constant tensor:
#      x y z
#    x 1.782420 0.000000 0.000000 
#    y 0.000000 1.782420 0.000000 
#    z 0.000000 0.000000 1.809010 
# 
# From -- ./inp_files/3587.got.cif
#   From: 2010.05.17/outbox.cif.g08.bks.cpg/sg164_2_cif.got.tgz:3587.got - 2010.05.20 10:58:56.
