data_PCOD9578715
_publ_section_title
;
Structure prediction by ZEFSAII (Michael W. Deem and Ramdas Pophale) SiO2 
 PCOD9578715
Probable space group: P -3 M 1
;
_chemical_formula_sum "Si O2"
_cell_formula_units_Z 84
_cell_length_a 17.309855
_cell_length_b 17.309855
_cell_length_c 16.525338
_cell_angle_alpha 90.000000
_cell_angle_beta 90.000000
_cell_angle_gamma 120.000000
_cell_volume 4288.129008
_symmetry_space_group_name_H-M "P -3 M 1"
_symmetry_group_IT_number 164
_symmetry_cell_setting 'hexagonal'
loop_
_space_group_symop_operation_xyz
x,y,z
-y,x-y,z
-x+y,-x,z
x-y,-y,-z
-x,-x+y,-z
y,x,-z
-x,-y,-z
y,-x+y,-z
x-y,x,-z
-x+y,y,z
x,x-y,z
-y,-x,z
loop_
_atom_site_type_symbol
_atom_site_label
_atom_site_fract_x
_atom_site_fract_y
_atom_site_fract_z
Si Si1 0.185264 0.185650 0.587251
Si Si2 0.668035 0.151733 0.467305
Si Si3 0.151528 0.667244 0.839118
Si Si4 0.514977 0.668240 0.341674
Si Si5 0.940383 0.244284 0.079094
Si Si6 0.574083 0.960356 0.682709
Si Si7 0.185480 0.185516 0.234741
O O1 0.227844 0.227844 0.500000
O O2 0.180740 0.090370 0.589613
O O3 0.221711 0.226893 0.675628
O O4 0.086037 0.172073 0.584446
O O5 0.582525 0.165050 0.457167
O O6 0.757707 0.242294 0.446768
O O7 0.671350 0.134730 0.562395
O O8 0.656140 0.076043 0.405029
O O9 0.145605 0.572803 0.849189
O O10 0.252612 0.747389 0.842496
O O11 0.094477 0.686954 0.903573
O O12 0.109769 0.668792 0.752035
O O13 0.521740 0.760870 0.319014
O O14 0.414138 0.585863 0.331005
O O15 0.583531 0.645710 0.298204
O O16 0.852420 0.147581 0.069568
O O17 0.989757 0.237531 0.159419
O O18 0.000000 0.268785 0.000000
O O19 0.481619 0.963237 0.678942
O O20 0.091985 0.183970 0.229146
O O21 0.169565 0.084783 0.230970
#
# Coordination Sequence:
#
# PCOD9578715 Si02
#       7
#    12  12  12  12  12  12  12
#     4   8  12  18  32  58  94 137 184 231 274 313
#     4   9  15  23  39  65  99 139 182 229 281 338
#     4  10  21  38  61  86 109 133 164 207 263 328
#     4   9  16  26  41  64  98 143 192 235 274 322
#     4  10  21  37  57  82 112 146 183 223 268 317
#     4   9  17  29  46  71 102 134 172 222 279 332
#     4   9  16  27  46  74 110 151 193 234 273 315
#
# _framework density 19.588963
#
# number of rings (size 3 to 8) (size 9 to 14) (size 15 to 20)
#    0.000    2.857    0.000    2.000    0.000    4.857 
#    0.000    2.857    0.000    4.000    0.000    4.000 
#    0.000    5.714    0.000    3.429    0.000   27.429 
#
# Total GULP energy -468719.487362 kJ/mol
# GULP energy per Si atom -5579.993897 kJ/mol
# Density = 1.954438 g / cm^3
# Si number density = 19.588963 Si / 1000 Ang^3
#
#
#
# Elastic Constant Matrix: (Units=GPa)
#
#
# Indices 1 2 3 4 5 6 
#
# 1 70.9340 30.9585 46.5099 2.0398 0.0000 0.0000
# 2 30.9585 70.9340 46.5099 -2.0398 0.0000 0.0000
# 3 46.5099 46.5099 119.3264 0.0000 0.0000 0.0000
# 4 2.0398 -2.0398 0.0000 19.9612 0.0000 0.0000
# 5 0.0000 0.0000 0.0000 0.0000 19.9612 2.0398
# 6 0.0000 0.0000 0.0000 0.0000 2.0398 19.9877
#
#
#
# Elastic Compliance Matrix: (Units=1/GPa)
#
#
# Indices 1 2 3 4 5 6 
#
# 1 0.020257 -0.005022 -0.005938 -0.002583 0.000000 0.000000
# 2 -0.005022 0.020257 -0.005938 0.002583 0.000000 0.000000
# 3 -0.005938 -0.005938 0.013010 0.000000 0.000000 0.000000
# 4 -0.002583 0.002583 0.000000 0.050625 0.000000 0.000000
# 5 0.000000 0.000000 0.000000 0.000000 0.050625 -0.005166
# 6 0.000000 0.000000 0.000000 0.000000 -0.005166 0.050558
#
#
# Mechanical properties :
#
#
# Convention : Reuss Voigt Hill
#
# Bulk Modulus (GPa) = 50.69152 56.57234 53.63193
# Shear Modulus (GPa) = 20.34964 21.12979 20.73972
#
# Velocity S-wave (km/s) = 3.22659 3.28786 3.25737
# Velocity P-wave (km/s) = 6.30991 6.58451 6.44867
#
# Compressibility (1/GPa) = 0.01972717
#
# Stress axis : x y z
#
# Youngs Moduli (GPa) = 49.36512 49.36512 76.86664
#
# Poissons Ratio (x) = 0.24790 0.45646
# Poissons Ratio (y) = 0.24790 0.45646
# Poissons Ratio (z) = 0.29315 0.29315
#
# Static dielectric constant tensor:
#      x y z
#    x 1.686790 0.000000 0.000000 
#    y 0.000000 1.686790 0.000000 
#    z 0.000000 0.000000 1.680570 
# 
# From -- ./inp_files/3620.got.cif
#   From: 2010.05.17/outbox.cif.g08.bks.cpg/sg164_2_cif.got.tgz:3620.got - 2010.05.20 10:58:56.
