data_PCOD9578936
_publ_section_title
;
Structure prediction by ZEFSAII (Michael W. Deem and Ramdas Pophale) SiO2 
 PCOD9578936
Probable space group: P -3 C 1
;
_chemical_formula_sum "Si O2"
_cell_formula_units_Z 28
_cell_length_a 8.441299
_cell_length_b 8.441299
_cell_length_c 17.422533
_cell_angle_alpha 90.000000
_cell_angle_beta 90.000000
_cell_angle_gamma 120.000000
_cell_volume 1075.128798
_symmetry_space_group_name_H-M "P -3 C 1"
_symmetry_group_IT_number 165
_symmetry_cell_setting 'hexagonal'
loop_
_space_group_symop_operation_xyz
x,y,z
-y,x-y,z
-x+y,-x,z
x-y,-y,1/2-z
-x,-x+y,1/2-z
y,x,1/2-z
-x,-y,-z
y,-x+y,-z
x-y,x,-z
-x+y,y,1/2+z
x,x-y,1/2+z
-y,-x,1/2+z
loop_
_atom_site_type_symbol
_atom_site_label
_atom_site_fract_x
_atom_site_fract_y
_atom_site_fract_z
Si Si1 0.000000 0.000000 0.841567
Si Si2 0.953708 0.681357 0.947026
Si Si3 0.905206 0.457913 0.668472
O O1 0.869014 0.066734 0.879554
O O2 0.000000 0.000000 0.750000
O O3 0.960415 0.518329 0.902341
O O4 0.801272 0.654521 0.008457
O O5 0.758580 0.529378 0.664898
O O6 0.000000 0.505165 0.750000
#
# Coordination Sequence:
#
# PCOD9578936 Si02
#       3
#     4  12  12
#     4   9  16  29  58  93 124 170 214 261 310 383
#     4   9  19  36  61  97 134 168 216 266 329 395
#     4  10  24  43  64  96 129 174 221 268 328 386
#
# _framework density 26.043392999999998
#
# number of rings (size 3 to 8) (size 9 to 14) (size 15 to 20)
#    0.857    1.714    0.000    3.000    0.000   10.286 
#    0.000    0.000    0.000    0.857    0.000    0.000 
#    0.000    0.000    0.000    0.000    0.000    0.000 
#
# Total GULP energy -156635.577677 kJ/mol
# GULP energy per Si atom -5594.127774 kJ/mol
# Density = 2.598412 g / cm^3
# Si number density = 26.043393 Si / 1000 Ang^3
#
#
#
# Elastic Constant Matrix: (Units=GPa)
#
#
# Indices 1 2 3 4 5 6 
#
# 1 48.0382 3.5066 41.7492 14.9316 0.0000 0.0000
# 2 3.5066 48.0382 41.7492 -14.9316 0.0000 0.0000
# 3 41.7492 41.7492 227.4249 0.0000 0.0000 0.0000
# 4 14.9316 -14.9316 0.0000 41.3494 0.0000 0.0000
# 5 0.0000 0.0000 0.0000 0.0000 41.3494 14.9316
# 6 0.0000 0.0000 0.0000 0.0000 14.9316 22.2658
#
#
#
# Elastic Compliance Matrix: (Units=1/GPa)
#
#
# Indices 1 2 3 4 5 6 
#
# 1 0.028622 -0.001010 -0.005069 -0.010700 0.000000 0.000000
# 2 -0.001010 0.028622 -0.005069 0.010700 0.000000 0.000000
# 3 -0.005069 -0.005069 0.006258 0.000000 0.000000 0.000000
# 4 -0.010700 0.010700 0.000000 0.031912 0.000000 0.000000
# 5 0.000000 0.000000 0.000000 0.000000 0.031912 -0.021401
# 6 0.000000 0.000000 0.000000 0.000000 -0.021401 0.059263
#
#
# Mechanical properties :
#
#
# Convention : Reuss Voigt Hill
#
# Bulk Modulus (GPa) = 24.26820 55.27903 39.77362
# Shear Modulus (GPa) = 22.45985 36.75933 29.60959
#
# Velocity S-wave (km/s) = 2.93985 3.76102 3.37550
# Velocity P-wave (km/s) = 4.56752 6.33500 5.52243
#
# Compressibility (1/GPa) = 0.04120618
#
# Stress axis : x y z
#
# Youngs Moduli (GPa) = 34.93858 34.93858 159.79448
#
# Poissons Ratio (x) = 0.03529 0.80996
# Poissons Ratio (y) = 0.03529 0.80996
# Poissons Ratio (z) = 0.17710 0.17710
#
# Static dielectric constant tensor:
#      x y z
#    x 2.068880 0.000000 0.000000 
#    y 0.000000 2.068880 0.000000 
#    z 0.000000 0.000000 1.946490 
# 
# From -- ./inp_files/1300.got.cif
#   From: 2010.05.17/outbox.cif.g08.bks.cpg/sg165_1_cif.got.tgz:1300.got - 2010.05.20 11:02:39.
