data_PCOD9578104
_publ_section_title
;
Structure prediction by ZEFSAII (Michael W. Deem and Ramdas Pophale) SiO2 
 PCOD9578104
Probable space group: P -3 1 C
;
_chemical_formula_sum "Si O2"
_cell_formula_units_Z 72
_cell_length_a 14.945557
_cell_length_b 14.945557
_cell_length_c 17.338303
_cell_angle_alpha 90.000000
_cell_angle_beta 90.000000
_cell_angle_gamma 120.000000
_cell_volume 3353.987429
_symmetry_space_group_name_H-M "P -3 1 C"
_symmetry_group_IT_number 163
_symmetry_cell_setting 'hexagonal'
loop_
_space_group_symop_operation_xyz
x,y,z
-y,x-y,z
-x+y,-x,z
-y,-x,1/2-z
-x+y,y,1/2-z
x,x-y,1/2-z
-x,-y,-z
y,-x+y,-z
x-y,x,-z
y,x,1/2+z
x-y,-y,1/2+z
-x,-x+y,1/2+z
loop_
_atom_site_type_symbol
_atom_site_label
_atom_site_fract_x
_atom_site_fract_y
_atom_site_fract_z
Si Si1 0.044453 0.216844 0.978445
Si Si2 0.628973 0.725066 0.109370
Si Si3 0.932046 0.277296 0.854252
Si Si4 0.790408 0.431267 0.379929
Si Si5 0.892343 0.462234 0.542495
Si Si6 0.292051 0.912082 0.718420
O O1 0.095350 0.323382 0.025935
O O2 0.997733 0.235458 0.901027
O O3 0.129075 0.181834 0.973939
O O4 0.640761 0.819668 0.160539
O O5 0.510721 0.635889 0.093620
O O6 0.703035 0.686360 0.146020
O O7 0.905869 0.349343 0.906756
O O8 0.003596 0.345654 0.785238
O O9 0.688385 0.440404 0.365589
O O10 0.817736 0.446255 0.470253
O O11 0.870073 0.507097 0.318399
O O12 0.000000 0.500000 0.500000
O O13 0.182970 0.817031 0.750000
#
# Coordination Sequence:
#
# PCOD9578104 Si02
#       6
#    12  12  12  12  12  12
#     4  10  20  38  63  93 127 169 227 287 348 407
#     4  11  24  44  65  94 134 179 230 281 341 416
#     4  11  25  40  65  98 134 179 229 284 342 419
#     4  10  25  44  68 103 139 173 224 285 348 411
#     4  12  22  42  70  99 132 178 228 286 343 412
#     4  12  26  43  66  96 137 178 222 277 346 414
#
# _framework density 21.466985000000001
#
# number of rings (size 3 to 8) (size 9 to 14) (size 15 to 20)
#    0.333    0.667    3.333    2.667    2.333    5.333 
#    1.000    0.000    0.000    4.667    0.000    0.000 
#    0.000    0.000    0.000    0.000    0.000    0.000 
#
# Total GULP energy -401811.944783 kJ/mol
# GULP energy per Si atom -5580.721455 kJ/mol
# Density = 2.141812 g / cm^3
# Si number density = 21.466985 Si / 1000 Ang^3
#
#
#
# Elastic Constant Matrix: (Units=GPa)
#
#
# Indices 1 2 3 4 5 6 
#
# 1 96.7343 35.6311 33.8277 0.0000 5.4062 0.0000
# 2 35.6311 96.7343 33.8277 0.0000 -5.4062 0.0000
# 3 33.8277 33.8277 80.4011 0.0000 0.0000 0.0000
# 4 0.0000 0.0000 0.0000 37.8022 0.0000 -5.4062
# 5 5.4062 -5.4062 0.0000 0.0000 37.8022 0.0000
# 6 0.0000 0.0000 0.0000 -5.4062 0.0000 30.5516
#
#
#
# Elastic Compliance Matrix: (Units=1/GPa)
#
#
# Indices 1 2 3 4 5 6 
#
# 1 0.013208 -0.003583 -0.004049 0.000000 -0.002401 0.000000
# 2 -0.003583 0.013208 -0.004049 0.000000 0.002401 0.000000
# 3 -0.004049 -0.004049 0.015845 0.000000 0.000000 0.000000
# 4 0.000000 0.000000 0.000000 0.027140 0.000000 0.004803
# 5 -0.002401 0.002401 0.000000 0.000000 0.027140 0.000000
# 6 0.000000 0.000000 0.000000 0.004803 0.000000 0.033581
#
#
# Mechanical properties :
#
#
# Convention : Reuss Voigt Hill
#
# Bulk Modulus (GPa) = 52.91949 53.38254 53.15101
# Shear Modulus (GPa) = 31.29203 32.60340 31.94772
#
# Velocity S-wave (km/s) = 3.82210 3.90137 3.86194
# Velocity P-wave (km/s) = 6.64703 6.72425 6.68575
#
# Compressibility (1/GPa) = 0.01889663
#
# Stress axis : x y z
#
# Youngs Moduli (GPa) = 75.71369 75.71369 63.11086
#
# Poissons Ratio (x) = 0.27128 0.25556
# Poissons Ratio (y) = 0.27128 0.25556
# Poissons Ratio (z) = 0.30660 0.30660
#
# Static dielectric constant tensor:
#      x y z
#    x 1.811000 0.000000 0.000000 
#    y 0.000000 1.811000 0.000000 
#    z 0.000000 0.000000 1.829190 
# 
# From -- ./inp_files/3125.got.cif
#   From: 2010.05.17/outbox.cif.g08.bks.cpg/sg163_2_cif.got.tgz:3125.got - 2010.05.20 10:56:03.
