data_PCOD9578828
_publ_section_title
;
Structure prediction by ZEFSAII (Michael W. Deem and Ramdas Pophale) SiO2 
 PCOD9578828
Probable space group: P -3 C 1
;
_chemical_formula_sum "Si O2"
_cell_formula_units_Z 70
_cell_length_a 14.492727
_cell_length_b 14.492727
_cell_length_c 21.167088
_cell_angle_alpha 90.000000
_cell_angle_beta 90.000000
_cell_angle_gamma 120.000000
_cell_volume 3850.276955
_symmetry_space_group_name_H-M "P -3 C 1"
_symmetry_group_IT_number 165
_symmetry_cell_setting 'hexagonal'
loop_
_space_group_symop_operation_xyz
x,y,z
-y,x-y,z
-x+y,-x,z
x-y,-y,1/2-z
-x,-x+y,1/2-z
y,x,1/2-z
-x,-y,-z
y,-x+y,-z
x-y,x,-z
-x+y,y,1/2+z
x,x-y,1/2+z
-y,-x,1/2+z
loop_
_atom_site_type_symbol
_atom_site_label
_atom_site_fract_x
_atom_site_fract_y
_atom_site_fract_z
Si Si1 0.093633 0.329206 0.941938
Si Si2 0.119975 0.216165 0.125868
Si Si3 0.153020 0.445030 0.817651
Si Si4 0.000000 0.000000 0.426227
Si Si5 0.533612 0.913803 0.805035
Si Si6 0.992638 0.310650 0.075085
Si Si7 0.000000 0.775919 0.250000
O O1 0.130862 0.424770 0.892339
O O2 0.197543 0.312953 0.942645
O O3 0.990706 0.223242 0.912991
O O4 0.053220 0.351944 0.007921
O O5 0.082871 0.300745 0.114882
O O6 0.135672 0.198194 0.198103
O O7 0.020553 0.110602 0.099069
O O8 0.114175 0.526090 0.797927
O O9 0.271853 0.472353 0.800456
O O10 0.080745 0.330665 0.786095
O O11 0.000000 0.000000 0.500000
O O12 0.601836 0.000000 0.750000
O O13 0.584365 0.956841 0.875374
#
# Coordination Sequence:
#
# PCOD9578828 Si02
#       7
#    12  12  12   4  12  12   6
#     4  10  20  33  55  84 116 155 198 243 293 352
#     4  11  20  32  52  81 120 159 194 238 284 357
#     4  10  22  41  61  85 114 151 197 257 307 370
#     4  12  21  31  50  79 126 171 196 221 280 357
#     4  11  23  41  65  88 116 159 205 253 317 373
#     4  11  20  34  58  86 118 162 208 241 298 370
#     4  10  22  38  54  82 116 146 196 250 304 348
#
# _framework density 18.180510999999999
#
# number of rings (size 3 to 8) (size 9 to 14) (size 15 to 20)
#    0.000    1.371    4.286    2.400    0.000    1.371 
#    0.000    0.000    0.000    0.000    0.000    2.400 
#    0.000    0.000    0.000    0.000    0.000    0.000 
#
# Total GULP energy -389735.482354 kJ/mol
# GULP energy per Si atom -5567.649748 kJ/mol
# Density = 1.813913 g / cm^3
# Si number density = 18.180511 Si / 1000 Ang^3
#
#
#
# Elastic Constant Matrix: (Units=GPa)
#
#
# Indices 1 2 3 4 5 6 
#
# 1 46.6112 27.2966 27.4799 -9.0175 0.0000 0.0000
# 2 27.2966 46.6112 27.4799 9.0175 0.0000 0.0000
# 3 27.4799 27.4799 129.8658 0.0000 0.0000 0.0000
# 4 -9.0175 9.0175 0.0000 16.2948 0.0000 0.0000
# 5 0.0000 0.0000 0.0000 0.0000 16.2948 -9.0175
# 6 0.0000 0.0000 0.0000 0.0000 -9.0175 9.6573
#
#
#
# Elastic Compliance Matrix: (Units=1/GPa)
#
#
# Indices 1 2 3 4 5 6 
#
# 1 0.061595 -0.045538 -0.003398 0.059287 0.000000 0.000000
# 2 -0.045538 0.061595 -0.003398 -0.059287 0.000000 0.000000
# 3 -0.003398 -0.003398 0.009138 0.000000 0.000000 0.000000
# 4 0.059287 -0.059287 0.000000 0.126988 0.000000 0.000000
# 5 0.000000 0.000000 0.000000 0.000000 0.126988 0.118575
# 6 0.000000 0.000000 0.000000 0.000000 0.118575 0.214267
#
#
# Mechanical properties :
#
#
# Convention : Reuss Voigt Hill
#
# Bulk Modulus (GPa) = 36.15151 43.06679 39.60915
# Shear Modulus (GPa) = 6.99829 17.83817 12.41823
#
# Velocity S-wave (km/s) = 1.96410 3.13576 2.61636
# Velocity P-wave (km/s) = 5.00715 6.07046 5.56426
#
# Compressibility (1/GPa) = 0.02766136
#
# Stress axis : x y z
#
# Youngs Moduli (GPa) = 16.23500 16.23500 109.43096
#
# Poissons Ratio (x) = 0.73931 0.37181
# Poissons Ratio (y) = 0.73931 0.37181
# Poissons Ratio (z) = 0.05516 0.05516
#
# Static dielectric constant tensor:
#      x y z
#    x 1.625590 0.000000 0.000000 
#    y 0.000000 1.625590 0.000000 
#    z 0.000000 0.000000 1.689870 
# 
# From -- ./inp_files/2310.got.cif
#   From: 2010.05.17/outbox.cif.g08.bks.cpg/sg165_2_cif.got.tgz:2310.got - 2010.05.20 11:02:39.
