data_PCOD9578618
_publ_section_title
;
Structure prediction by ZEFSAII (Michael W. Deem and Ramdas Pophale) SiO2 
 PCOD9578618
Probable space group: P -3 M 1
;
_chemical_formula_sum "Si O2"
_cell_formula_units_Z 72
_cell_length_a 12.860528
_cell_length_b 12.860528
_cell_length_c 31.085323
_cell_angle_alpha 90.000000
_cell_angle_beta 90.000000
_cell_angle_gamma 120.000000
_cell_volume 4452.496786
_symmetry_space_group_name_H-M "P -3 M 1"
_symmetry_group_IT_number 164
_symmetry_cell_setting 'hexagonal'
loop_
_space_group_symop_operation_xyz
x,y,z
-y,x-y,z
-x+y,-x,z
x-y,-y,-z
-x,-x+y,-z
y,x,-z
-x,-y,-z
y,-x+y,-z
x-y,x,-z
-x+y,y,z
x,x-y,z
-y,-x,z
loop_
_atom_site_type_symbol
_atom_site_label
_atom_site_fract_x
_atom_site_fract_y
_atom_site_fract_z
Si Si1 0.753776 0.999894 0.659045
Si Si2 0.333140 0.913600 0.918109
Si Si3 0.666673 0.579552 0.581332
Si Si4 0.000000 0.246982 0.000000
Si Si5 0.753440 0.753440 0.500000
Si Si6 0.000037 0.754953 0.241735
Si Si7 0.333893 0.420451 0.163244
O O1 0.749016 0.874508 0.650979
O O2 0.718372 0.001329 0.708720
O O3 0.676183 0.024956 0.624965
O O4 0.890441 0.109560 0.654019
O O5 0.452385 0.904770 0.925519
O O6 0.217622 0.782379 0.911804
O O7 0.305613 0.973218 0.958818
O O8 0.356630 0.995779 0.876211
O O9 0.775028 0.550056 0.582568
O O10 0.540090 0.459911 0.576878
O O11 0.694655 0.669138 0.541351
O O12 0.117260 0.234520 0.007271
O O13 0.883118 0.766235 0.492977
O O14 0.873084 0.746168 0.233363
O O15 0.028915 0.681483 0.207050
O O16 0.106920 0.893081 0.238066
O O17 0.210823 0.421645 0.155929
O O18 0.445514 0.554487 0.166499
#
# Coordination Sequence:
#
# PCOD9578618 Si02
#       7
#    12  12  12   6   6  12  12
#     4   9  17  30  50  74  98 124 156 198 245 288
#     4  10  20  34  52  73  97 126 161 200 240 283
#     4  10  20  33  49  70  98 132 166 197 231 277
#     4  10  20  34  52  74 100 128 158 194 238 288
#     4  10  20  34  54  78 100 122 152 196 246 290
#     4   9  17  30  49  73  98 124 156 196 243 290
#     4  10  20  33  49  70  97 129 163 198 237 282
#
# _framework density 16.170701999999999
#
# number of rings (size 3 to 8) (size 9 to 14) (size 15 to 20)
#    0.000    2.333    0.000    3.000    0.000    2.000 
#    0.000    1.667    0.000   16.667    0.000    0.000 
#    0.000    0.000    0.000    0.000    0.000    0.000 
#
# Total GULP energy -401655.048374 kJ/mol
# GULP energy per Si atom -5578.542339 kJ/mol
# Density = 1.613390 g / cm^3
# Si number density = 16.170702 Si / 1000 Ang^3
#
#
#
# Elastic Constant Matrix: (Units=GPa)
#
#
# Indices 1 2 3 4 5 6 
#
# 1 123.1055 84.5238 84.5150 -2.5658 0.0000 0.0000
# 2 84.5238 123.1055 84.5150 2.5658 0.0000 0.0000
# 3 84.5150 84.5150 111.5517 0.0000 0.0000 0.0000
# 4 -2.5658 2.5658 0.0000 22.9745 0.0000 0.0000
# 5 0.0000 0.0000 0.0000 0.0000 22.9745 -2.5658
# 6 0.0000 0.0000 0.0000 0.0000 -2.5658 19.2909
#
#
#
# Elastic Compliance Matrix: (Units=1/GPa)
#
#
# Indices 1 2 3 4 5 6 
#
# 1 0.019439 -0.006871 -0.009522 0.002938 0.000000 0.000000
# 2 -0.006871 0.019439 -0.009522 -0.002938 0.000000 0.000000
# 3 -0.009522 -0.009522 0.023393 0.000000 0.000000 0.000000
# 4 0.002938 -0.002938 0.000000 0.044183 0.000000 0.000000
# 5 0.000000 0.000000 0.000000 0.000000 0.044183 0.005877
# 6 0.000000 0.000000 0.000000 0.000000 0.005877 0.052620
#
#
# Mechanical properties :
#
#
# Convention : Reuss Voigt Hill
#
# Bulk Modulus (GPa) = 95.77612 96.09671 95.93641
# Shear Modulus (GPa) = 19.33746 19.99525 19.66636
#
# Velocity S-wave (km/s) = 3.46183 3.52022 3.49115
# Velocity P-wave (km/s) = 8.67962 8.72227 8.70097
#
# Compressibility (1/GPa) = 0.01044102
#
# Stress axis : x y z
#
# Youngs Moduli (GPa) = 51.44317 51.44317 42.74849
#
# Poissons Ratio (x) = 0.35346 0.40705
# Poissons Ratio (y) = 0.35346 0.40705
# Poissons Ratio (z) = 0.48984 0.48984
#
# Static dielectric constant tensor:
#      x y z
#    x 1.511190 0.000000 0.000000 
#    y 0.000000 1.511190 0.000000 
#    z 0.000000 0.000000 1.534040 
# 
# From -- ./inp_files/5552.got.cif
#   From: 2010.05.17/outbox.cif.g08.bks.cpg/sg164_3_cif.got.tgz:5552.got - 2010.05.20 10:58:56.
