data_PCOD9578872
_publ_section_title
;
Structure prediction by ZEFSAII (Michael W. Deem and Ramdas Pophale) SiO2 
 PCOD9578872
Probable space group: P -3 C 1
;
_chemical_formula_sum "Si O2"
_cell_formula_units_Z 80
_cell_length_a 16.811862
_cell_length_b 16.811862
_cell_length_c 17.895124
_cell_angle_alpha 90.000000
_cell_angle_beta 90.000000
_cell_angle_gamma 120.000000
_cell_volume 4380.230619
_symmetry_space_group_name_H-M "P -3 C 1"
_symmetry_group_IT_number 165
_symmetry_cell_setting 'hexagonal'
loop_
_space_group_symop_operation_xyz
x,y,z
-y,x-y,z
-x+y,-x,z
x-y,-y,1/2-z
-x,-x+y,1/2-z
y,x,1/2-z
-x,-y,-z
y,-x+y,-z
x-y,x,-z
-x+y,y,1/2+z
x,x-y,1/2+z
-y,-x,1/2+z
loop_
_atom_site_type_symbol
_atom_site_label
_atom_site_fract_x
_atom_site_fract_y
_atom_site_fract_z
Si Si1 0.718675 0.120263 0.675909
Si Si2 0.547948 0.452258 0.958556
Si Si3 0.606295 0.688517 0.149148
Si Si4 0.850182 0.444345 0.115341
Si Si5 0.333334 0.666667 0.814621
Si Si6 0.333335 0.666668 0.638343
Si Si7 0.813496 0.538196 0.376045
Si Si8 0.700580 0.098049 0.216754
O O1 0.690245 0.106400 0.763522
O O2 0.641332 0.135195 0.634704
O O3 0.825623 0.202391 0.677811
O O4 0.694428 0.019458 0.645905
O O5 0.481334 0.394876 0.891145
O O6 0.648150 0.529808 0.932614
O O7 0.500000 0.500000 0.000000
O O8 0.551191 0.391332 0.026694
O O9 0.612335 0.780570 0.115315
O O10 0.755353 0.420387 0.154107
O O11 0.919323 0.538867 0.158153
O O12 0.333334 0.666667 0.727140
O O13 0.275922 0.562055 0.614454
O O14 0.851784 0.547004 0.292225
O O15 0.682894 0.000000 0.250000
#
# Coordination Sequence:
#
# PCOD9578872 Si02
#       8
#    12  12  12  12   4   4  12  12
#     4  10  21  39  57  76 105 150 192 246 305 352
#     4  12  24  35  48  79 115 155 194 242 282 343
#     4  10  21  38  56  73 106 153 196 238 294 351
#     4  12  22  32  52  77 113 152 196 244 300 348
#     4  12  21  34  50  82 105 151 203 256 294 343
#     4  12  18  37  59  76 111 151 215 244 267 340
#     4  11  22  36  56  78 107 152 198 236 282 339
#     4  11  23  37  59  83 108 146 201 256 293 353
#
# _framework density 18.263877999999998
#
# number of rings (size 3 to 8) (size 9 to 14) (size 15 to 20)
#    0.000    0.900    6.000    2.700    4.200    0.000 
#    0.000    0.000    0.000    0.000    0.000    0.000 
#   48.000    0.000    0.000    5.400    0.000    0.000 
#
# Total GULP energy -445629.181520 kJ/mol
# GULP energy per Si atom -5570.364769 kJ/mol
# Density = 1.822231 g / cm^3
# Si number density = 18.263878 Si / 1000 Ang^3
#
#
#
# Elastic Constant Matrix: (Units=GPa)
#
#
# Indices 1 2 3 4 5 6 
#
# 1 90.7783 42.7253 29.7913 -3.9372 0.0000 0.0000
# 2 42.7253 90.7777 29.7908 3.9371 0.0000 0.0000
# 3 29.7913 29.7908 49.6826 0.0003 0.0000 0.0000
# 4 -3.9372 3.9371 0.0003 21.0162 0.0000 0.0000
# 5 0.0000 0.0000 0.0000 0.0000 21.0174 -3.9364
# 6 0.0000 0.0000 0.0000 0.0000 -3.9364 24.0264
#
#
#
# Elastic Compliance Matrix: (Units=1/GPa)
#
#
# Indices 1 2 3 4 5 6 
#
# 1 0.015849 -0.005621 -0.006133 0.004022 0.000000 0.000000
# 2 -0.005621 0.015848 -0.006132 -0.004022 0.000000 0.000000
# 3 -0.006133 -0.006132 0.027482 0.000000 0.000000 0.000000
# 4 0.004022 -0.004022 0.000000 0.049089 0.000000 0.000000
# 5 0.000000 0.000000 0.000000 0.000000 0.049086 0.008042
# 6 0.000000 0.000000 0.000000 0.000000 0.008042 0.042938
#
#
# Mechanical properties :
#
#
# Convention : Reuss Voigt Hill
#
# Bulk Modulus (GPa) = 42.72290 48.42815 45.57553
# Shear Modulus (GPa) = 20.50292 21.80743 21.15517
#
# Velocity S-wave (km/s) = 3.35415 3.45921 3.40708
# Velocity P-wave (km/s) = 6.20026 6.52136 6.36284
#
# Compressibility (1/GPa) = 0.02340665
#
# Stress axis : x y z
#
# Youngs Moduli (GPa) = 63.09739 63.09755 36.38699
#
# Poissons Ratio (x) = 0.35468 0.22315
# Poissons Ratio (y) = 0.35467 0.22314
# Poissons Ratio (z) = 0.38696 0.38694
#
# Static dielectric constant tensor:
#      x y z
#    x 1.710950 0.000000 0.000000 
#    y 0.000000 1.710960 0.000000 
#    z 0.000000 0.000000 1.786590 
# 
# From -- ./inp_files/2384.got.cif
#   From: 2010.05.17/outbox.cif.g08.bks.cpg/sg165_2_cif.got.tgz:2384.got - 2010.05.20 11:02:39.
