data_PCOD9578398
_publ_section_title
;
Structure prediction by ZEFSAII (Michael W. Deem and Ramdas Pophale) SiO2 
 PCOD9578398
Probable space group: P -3 M 1
;
_chemical_formula_sum "Si O2"
_cell_formula_units_Z 60
_cell_length_a 20.346943
_cell_length_b 20.346943
_cell_length_c 10.266464
_cell_angle_alpha 90.000000
_cell_angle_beta 90.000000
_cell_angle_gamma 120.000000
_cell_volume 3680.864726
_symmetry_space_group_name_H-M "P -3 M 1"
_symmetry_group_IT_number 164
_symmetry_cell_setting 'hexagonal'
loop_
_space_group_symop_operation_xyz
x,y,z
-y,x-y,z
-x+y,-x,z
x-y,-y,-z
-x,-x+y,-z
y,x,-z
-x,-y,-z
y,-x+y,-z
x-y,x,-z
-x+y,y,z
x,x-y,z
-y,-x,z
loop_
_atom_site_type_symbol
_atom_site_label
_atom_site_fract_x
_atom_site_fract_y
_atom_site_fract_z
Si Si1 0.453781 0.907561 0.156955
Si Si2 0.916073 0.234309 0.974622
Si Si3 0.711087 0.137175 0.223510
Si Si4 0.545183 0.454818 0.151939
Si Si5 0.572017 0.863143 0.265251
Si Si6 0.672113 0.758926 0.518696
O O1 0.503538 0.876473 0.226656
O O2 0.499551 0.999101 0.163045
O O3 0.444420 0.888840 0.002279
O O4 0.853535 0.146466 0.975066
O O5 0.894297 0.273847 0.089582
O O6 0.908393 0.270006 0.840399
O O7 0.000000 0.251792 0.000000
O O8 0.774248 0.225753 0.231932
O O9 0.626453 0.121714 0.218295
O O10 0.727701 0.096865 0.343210
O O11 0.550464 0.775232 0.254678
O O12 0.609133 0.892799 0.406170
O O13 0.738018 0.738018 0.500000
O O14 0.695762 0.847881 0.510280
#
# Coordination Sequence:
#
# PCOD9578398 Si02
#       6
#     6  12  12   6  12  12
#     4  11  20  31  53  77 101 131 173 219 261 301
#     4  10  18  31  51  72  99 129 165 209 255 307
#     4  10  21  35  51  75 104 134 171 213 260 309
#     4  11  20  31  53  77 101 131 173 219 261 301
#     4  10  21  35  51  75 104 134 171 213 260 309
#     4  10  20  35  55  78 107 137 171 213 259 309
#
# _framework density 16.300518
#
# number of rings (size 3 to 8) (size 9 to 14) (size 15 to 20)
#    0.000    1.800    2.000    3.600    0.000    0.800 
#    1.200    2.000    0.000    0.400    0.000    0.000 
#    0.000    9.600    0.000    0.000    0.000    1.600 
#
# Total GULP energy -334874.729246 kJ/mol
# GULP energy per Si atom -5581.245487 kJ/mol
# Density = 1.626342 g / cm^3
# Si number density = 16.300518 Si / 1000 Ang^3
#
#
#
# Elastic Constant Matrix: (Units=GPa)
#
#
# Indices 1 2 3 4 5 6 
#
# 1 71.7710 47.4243 -9.3305 2.8268 0.0000 0.0000
# 2 47.4243 71.7710 -9.3305 -2.8268 0.0000 0.0000
# 3 -9.3305 -9.3305 49.3203 0.0000 0.0000 0.0000
# 4 2.8268 -2.8268 0.0000 16.9026 0.0000 0.0000
# 5 0.0000 0.0000 0.0000 0.0000 16.9026 2.8268
# 6 0.0000 0.0000 0.0000 0.0000 2.8268 12.1733
#
#
#
# Elastic Compliance Matrix: (Units=1/GPa)
#
#
# Indices 1 2 3 4 5 6 
#
# 1 0.025689 -0.017044 0.001636 -0.007147 0.000000 0.000000
# 2 -0.017044 0.025689 0.001636 0.007147 0.000000 0.000000
# 3 0.001636 0.001636 0.020894 0.000000 0.000000 0.000000
# 4 -0.007147 0.007147 0.000000 0.061553 0.000000 0.000000
# 5 0.000000 0.000000 0.000000 0.000000 0.061553 -0.014293
# 6 0.000000 0.000000 0.000000 0.000000 -0.014293 0.085466
#
#
# Mechanical properties :
#
#
# Convention : Reuss Voigt Hill
#
# Bulk Modulus (GPa) = 22.35726 27.82099 25.08912
# Shear Modulus (GPa) = 15.46556 20.13563 17.80060
#
# Velocity S-wave (km/s) = 3.08356 3.51846 3.30817
# Velocity P-wave (km/s) = 5.14036 5.79747 5.47878
#
# Compressibility (1/GPa) = 0.04472821
#
# Stress axis : x y z
#
# Youngs Moduli (GPa) = 38.92671 38.92671 47.85950
#
# Poissons Ratio (x) = 0.66345 -0.07828
# Poissons Ratio (y) = 0.66345 -0.07828
# Poissons Ratio (z) = -0.06367 -0.06367
#
# Static dielectric constant tensor:
#      x y z
#    x 1.534310 0.000000 0.000000 
#    y 0.000000 1.534310 0.000000 
#    z 0.000000 0.000000 1.550800 
# 
# From -- ./inp_files/1624.got.cif
#   From: 2010.05.17/outbox.cif.g08.bks.cpg/sg164_1_cif.got.tgz:1624.got - 2010.05.20 10:58:56.
