data_PCOD9578996
_publ_section_title
;
Structure prediction by ZEFSAII (Michael W. Deem and Ramdas Pophale) SiO2 
 PCOD9578996
Probable space group: P -3 C 1
;
_chemical_formula_sum "Si O2"
_cell_formula_units_Z 78
_cell_length_a 22.906293
_cell_length_b 22.906293
_cell_length_c 9.037970
_cell_angle_alpha 90.000000
_cell_angle_beta 90.000000
_cell_angle_gamma 120.000000
_cell_volume 4106.871839
_symmetry_space_group_name_H-M "P -3 C 1"
_symmetry_group_IT_number 165
_symmetry_cell_setting 'hexagonal'
loop_
_space_group_symop_operation_xyz
x,y,z
-y,x-y,z
-x+y,-x,z
x-y,-y,1/2-z
-x,-x+y,1/2-z
y,x,1/2-z
-x,-y,-z
y,-x+y,-z
x-y,x,-z
-x+y,y,1/2+z
x,x-y,1/2+z
-y,-x,1/2+z
loop_
_atom_site_type_symbol
_atom_site_label
_atom_site_fract_x
_atom_site_fract_y
_atom_site_fract_z
Si Si1 0.756915 0.445865 0.707271
Si Si2 0.733598 0.118417 0.026376
Si Si3 0.785365 0.368447 0.899495
Si Si4 0.349007 0.373529 0.973419
Si Si5 0.600142 0.839120 0.811765
Si Si6 0.377210 0.908737 0.739097
Si Si7 0.533874 0.533874 0.250000
O O1 0.802426 0.440279 0.836076
O O2 0.686860 0.417159 0.790758
O O3 0.759633 0.406446 0.564299
O O4 0.787339 0.521695 0.653211
O O5 0.799576 0.162263 0.128216
O O6 0.671157 0.116282 0.118460
O O7 0.753609 0.152464 0.865115
O O8 0.701461 0.038877 0.990331
O O9 0.848753 0.359785 0.874617
O O10 0.289106 0.378085 0.888978
O O11 0.419902 0.420702 0.886013
O O12 0.360928 0.405273 0.135824
O O13 0.456662 0.939945 0.772720
#
# Coordination Sequence:
#
# PCOD9578996 Si02
#       7
#    12  12  12  12  12  12   6
#     4  12  25  42  59  78 116 149 211 259 331 392
#     4  12  25  43  67  90 123 160 206 259 314 393
#     4  12  26  40  59  81 107 157 202 271 321 397
#     4  12  24  45  63 100 127 163 207 264 325 394
#     4  12  24  44  66  90 124 164 204 259 328 389
#     4  12  25  38  62  89 123 157 204 258 327 384
#     4  12  24  40  68  94 130 160 210 272 330 388
#
# _framework density 18.992557999999999
#
# number of rings (size 3 to 8) (size 9 to 14) (size 15 to 20)
#    0.000    0.000    6.154    4.462    2.154    0.000 
#    0.000    0.000    0.000    0.000    0.000    0.000 
#    0.000    0.000    0.000    0.462    0.000    7.692 
#
# Total GULP energy -435522.827111 kJ/mol
# GULP energy per Si atom -5583.625989 kJ/mol
# Density = 1.894933 g / cm^3
# Si number density = 18.992558 Si / 1000 Ang^3
#
#
#
# Elastic Constant Matrix: (Units=GPa)
#
#
# Indices 1 2 3 4 5 6 
#
# 1 72.4271 33.3732 37.8609 -1.5269 0.0000 0.0000
# 2 33.3732 72.4271 37.8609 1.5269 0.0000 0.0000
# 3 37.8609 37.8609 131.8098 0.0000 0.0000 0.0000
# 4 -1.5269 1.5269 0.0000 25.7040 0.0000 0.0000
# 5 0.0000 0.0000 0.0000 0.0000 25.7040 -1.5269
# 6 0.0000 0.0000 0.0000 0.0000 -1.5269 19.5269
#
#
#
# Elastic Compliance Matrix: (Units=1/GPa)
#
#
# Indices 1 2 3 4 5 6 
#
# 1 0.018811 -0.006914 -0.003417 0.001528 0.000000 0.000000
# 2 -0.006914 0.018811 -0.003417 -0.001528 0.000000 0.000000
# 3 -0.003417 -0.003417 0.009550 0.000000 0.000000 0.000000
# 4 0.001528 -0.001528 0.000000 0.039086 0.000000 0.000000
# 5 0.000000 0.000000 0.000000 0.000000 0.039086 0.003056
# 6 0.000000 0.000000 0.000000 0.000000 0.003056 0.051450
#
#
# Mechanical properties :
#
#
# Convention : Reuss Voigt Hill
#
# Bulk Modulus (GPa) = 50.82490 54.98379 52.90434
# Shear Modulus (GPa) = 23.71344 25.35826 24.53585
#
# Velocity S-wave (km/s) = 3.53734 3.65796 3.59815
# Velocity P-wave (km/s) = 6.59562 6.84499 6.72146
#
# Compressibility (1/GPa) = 0.01967540
#
# Stress axis : x y z
#
# Youngs Moduli (GPa) = 53.15921 53.15921 104.71261
#
# Poissons Ratio (x) = 0.36753 0.35785
# Poissons Ratio (y) = 0.36753 0.35785
# Poissons Ratio (z) = 0.18167 0.18167
#
# Static dielectric constant tensor:
#      x y z
#    x 1.742860 0.000000 0.000000 
#    y 0.000000 1.742860 0.000000 
#    z 0.000000 0.000000 1.697840 
# 
# From -- ./inp_files/800.got.cif
#   From: 2010.05.17/outbox.cif.g08.bks.cpg/sg165_1_cif.got.tgz:800.got - 2010.05.20 11:02:39.
