data_PCOD9578649
_publ_section_title
;
Structure prediction by ZEFSAII (Michael W. Deem and Ramdas Pophale) SiO2 
 PCOD9578649
Probable space group: P -3 M 1
;
_chemical_formula_sum "Si O2"
_cell_formula_units_Z 66
_cell_length_a 23.549673
_cell_length_b 23.549673
_cell_length_c 7.341405
_cell_angle_alpha 90.000000
_cell_angle_beta 90.000000
_cell_angle_gamma 120.000000
_cell_volume 3525.977829
_symmetry_space_group_name_H-M "P -3 M 1"
_symmetry_group_IT_number 164
_symmetry_cell_setting 'hexagonal'
loop_
_space_group_symop_operation_xyz
x,y,z
-y,x-y,z
-x+y,-x,z
x-y,-y,-z
-x,-x+y,-z
y,x,-z
-x,-y,-z
y,-x+y,-z
x-y,x,-z
-x+y,y,z
x,x-y,z
-y,-x,z
loop_
_atom_site_type_symbol
_atom_site_label
_atom_site_fract_x
_atom_site_fract_y
_atom_site_fract_z
Si Si1 0.332643 0.535450 0.498798
Si Si2 0.218874 0.046647 0.156995
Si Si3 0.150917 0.431478 0.794309
Si Si4 0.140875 0.411875 0.231616
Si Si5 0.126177 0.000000 0.500000
Si Si6 0.991000 0.321723 0.202076
O O1 0.279576 0.559151 0.478363
O O2 0.405437 0.594564 0.474576
O O3 0.320555 0.501734 0.697844
O O4 0.311188 0.476922 0.352437
O O5 0.244018 0.122009 0.110774
O O6 0.179262 0.028387 0.342542
O O7 0.276208 0.030209 0.177193
O O8 0.171686 0.000000 0.000000
O O9 0.203871 0.407741 0.746086
O O10 0.076382 0.389691 0.719000
O O11 0.146311 0.428411 0.014593
O O12 0.193575 0.387150 0.264804
O O13 0.064817 0.360575 0.279868
O O14 0.116187 0.058094 0.573975
O O15 0.000000 0.352096 0.000000
#
# Coordination Sequence:
#
# PCOD9578649 Si02
#       6
#    12  12  12  12   6  12
#     4  10  21  37  58  82 107 136 172 214 259 310
#     4  10  20  33  51  75 101 131 172 222 270 316
#     4   9  18  34  54  77 107 141 176 215 260 309
#     4   9  19  35  54  78 109 143 177 217 264 311
#     4  10  21  34  46  62  88 124 165 210 262 318
#     4   9  18  33  54  77 106 140 176 217 263 311
#
# _framework density 18.718212000000001
#
# number of rings (size 3 to 8) (size 9 to 14) (size 15 to 20)
#    0.000    2.545    0.000    1.364    0.000    8.000 
#    0.000    5.455    0.000    8.364    0.000    0.000 
#    0.000    0.000    0.000    0.000    0.000    0.000 
#
# Total GULP energy -367453.412509 kJ/mol
# GULP energy per Si atom -5567.475947 kJ/mol
# Density = 1.867561 g / cm^3
# Si number density = 18.718212 Si / 1000 Ang^3
#
#
#
# Elastic Constant Matrix: (Units=GPa)
#
#
# Indices 1 2 3 4 5 6 
#
# 1 102.7460 53.3393 12.7439 3.1851 0.0000 0.0000
# 2 53.3393 102.7460 12.7439 -3.1851 0.0000 0.0000
# 3 12.7439 12.7439 52.0983 0.0000 0.0000 0.0000
# 4 3.1851 -3.1851 0.0000 18.4365 0.0000 0.0000
# 5 0.0000 0.0000 0.0000 0.0000 18.4365 3.1851
# 6 0.0000 0.0000 0.0000 0.0000 3.1851 24.7033
#
#
#
# Elastic Compliance Matrix: (Units=1/GPa)
#
#
# Indices 1 2 3 4 5 6 
#
# 1 0.013687 -0.007014 -0.001632 -0.003576 0.000000 0.000000
# 2 -0.007014 0.013687 -0.001632 0.003576 0.000000 0.000000
# 3 -0.001632 -0.001632 0.019993 0.000000 0.000000 0.000000
# 4 -0.003576 0.003576 0.000000 0.055476 0.000000 0.000000
# 5 0.000000 0.000000 0.000000 0.000000 0.055476 -0.007153
# 6 0.000000 0.000000 0.000000 0.000000 -0.007153 0.041403
#
#
# Mechanical properties :
#
#
# Convention : Reuss Voigt Hill
#
# Bulk Modulus (GPa) = 37.29922 46.13828 41.71875
# Shear Modulus (GPa) = 21.81348 24.23283 23.02315
#
# Velocity S-wave (km/s) = 3.41744 3.60198 3.51092
# Velocity P-wave (km/s) = 5.96170 6.48085 6.22668
#
# Compressibility (1/GPa) = 0.02681021
#
# Stress axis : x y z
#
# Youngs Moduli (GPa) = 73.06048 73.06048 50.01728
#
# Poissons Ratio (x) = 0.51245 0.08165
# Poissons Ratio (y) = 0.51245 0.08165
# Poissons Ratio (z) = 0.11926 0.11926
#
# Static dielectric constant tensor:
#      x y z
#    x 1.671530 0.000000 0.000000 
#    y 0.000000 1.671530 0.000000 
#    z 0.000000 0.000000 1.644450 
# 
# From -- ./inp_files/1748.got.cif
#   From: 2010.05.17/outbox.cif.g08.bks.cpg/sg164_1_cif.got.tgz:1748.got - 2010.05.20 10:58:56.
