data_PCOD9578397
_publ_section_title
;
Structure prediction by ZEFSAII (Michael W. Deem and Ramdas Pophale) SiO2 
 PCOD9578397
Probable space group: P -3 M 1
;
_chemical_formula_sum "Si O2"
_cell_formula_units_Z 84
_cell_length_a 17.879825
_cell_length_b 17.879825
_cell_length_c 15.177231
_cell_angle_alpha 90.000000
_cell_angle_beta 90.000000
_cell_angle_gamma 120.000000
_cell_volume 4201.938614
_symmetry_space_group_name_H-M "P -3 M 1"
_symmetry_group_IT_number 164
_symmetry_cell_setting 'hexagonal'
loop_
_space_group_symop_operation_xyz
x,y,z
-y,x-y,z
-x+y,-x,z
x-y,-y,-z
-x,-x+y,-z
y,x,-z
-x,-y,-z
y,-x+y,-z
x-y,x,-z
-x+y,y,z
x,x-y,z
-y,-x,z
loop_
_atom_site_type_symbol
_atom_site_label
_atom_site_fract_x
_atom_site_fract_y
_atom_site_fract_z
Si Si1 0.488124 0.332937 0.642571
Si Si2 0.248047 0.041062 0.097842
Si Si3 0.097238 0.728558 0.524772
Si Si4 0.088461 0.733541 0.207552
Si Si5 0.496993 0.157983 0.928477
Si Si6 0.452327 0.310189 0.118518
Si Si7 0.664150 0.155515 0.314846
O O1 0.506992 0.253496 0.658954
O O2 0.574983 0.425018 0.651928
O O3 0.446729 0.318090 0.545611
O O4 0.410537 0.319426 0.708129
O O5 0.211930 0.105965 0.113007
O O6 0.351444 0.098082 0.099137
O O7 0.234803 0.977711 0.179207
O O8 0.220039 0.000000 0.000000
O O9 0.169785 0.830216 0.521214
O O10 0.103267 0.691658 0.619554
O O11 0.000000 0.703092 0.500000
O O12 0.179388 0.820613 0.213140
O O13 0.092117 0.679457 0.124491
O O14 0.583029 0.166057 0.888108
O O15 0.501725 0.250863 0.926285
O O16 0.488585 0.127983 0.028907
O O17 0.490123 0.245062 0.123785
O O18 0.468484 0.350019 0.215236
O O19 0.577772 0.155543 0.342890
O O20 0.746751 0.253249 0.315682
#
# Coordination Sequence:
#
# PCOD9578397 Si02
#       7
#    12  12  12  12  12  12  12
#     4  10  21  38  61  90 127 170 214 253 295 352
#     4  11  21  38  61  82 108 149 199 249 310 373
#     4  10  23  42  62  87 120 158 205 263 325 379
#     4  10  21  37  56  82 116 153 194 242 302 364
#     4  10  18  31  50  76 112 153 197 238 279 335
#     4   9  19  33  50  76 112 150 191 237 289 350
#     4  10  20  35  56  83 119 163 208 252 301 360
#
# _framework density 19.990773000000001
#
# number of rings (size 3 to 8) (size 9 to 14) (size 15 to 20)
#    0.000    2.000    1.429    2.143    2.000    1.143 
#    0.000    7.143    0.000    2.714    0.000    0.000 
#    0.000    0.000    0.000    0.571    0.000    0.000 
#
# Total GULP energy -468179.356801 kJ/mol
# GULP energy per Si atom -5573.563771 kJ/mol
# Density = 1.994527 g / cm^3
# Si number density = 19.990773 Si / 1000 Ang^3
#
#
#
# Elastic Constant Matrix: (Units=GPa)
#
#
# Indices 1 2 3 4 5 6 
#
# 1 72.9233 47.4496 29.3881 23.0107 0.0000 0.0000
# 2 47.4496 72.9233 29.3881 -23.0107 0.0000 0.0000
# 3 29.3881 29.3881 80.0856 0.0000 0.0000 0.0000
# 4 23.0107 -23.0107 0.0000 -194.6276 0.0000 0.0000
# 5 0.0000 0.0000 0.0000 0.0000 -194.6276 23.0107
# 6 0.0000 0.0000 0.0000 0.0000 23.0107 12.7369
#
#
#
# Elastic Compliance Matrix: (Units=1/GPa)
#
#
# Indices 1 2 3 4 5 6 
#
# 1 0.021234 -0.011113 -0.003714 0.003824 0.000000 0.000000
# 2 -0.011113 0.021234 -0.003714 -0.003824 0.000000 0.000000
# 3 -0.003714 -0.003714 0.015212 0.000000 0.000000 0.000000
# 4 0.003824 -0.003824 0.000000 -0.004234 0.000000 0.000000
# 5 0.000000 0.000000 0.000000 0.000000 -0.004234 0.007649
# 6 0.000000 0.000000 0.000000 0.000000 0.007649 0.064694
#
#
# Mechanical properties :
#
#
# Convention : Reuss Voigt Hill
#
# Bulk Modulus (GPa) = 48.54735 48.70931 48.62833
# Shear Modulus (GPa) = 31.67467 -67.32322 -17.82428
#
# Velocity S-wave (km/s) = 3.98485 -5.80950 -2.98925
# Velocity P-wave (km/s) = 6.74608 4.53669 3.53045
#
# Compressibility (1/GPa) = 0.02059845
#
# Stress axis : x y z
#
# Youngs Moduli (GPa) = 47.09435 47.09435 65.73588
#
# Poissons Ratio (x) = 0.52336 0.24414
# Poissons Ratio (y) = 0.52336 0.24414
# Poissons Ratio (z) = 0.17491 0.17491
#
# Static dielectric constant tensor:
#      x y z
#    x 1.737480 0.000000 0.000000 
#    y 0.000000 1.737480 0.000000 
#    z 0.000000 0.000000 1.749800 
# 
# From -- ./inp_files/3557.got.cif
#   From: 2010.05.17/outbox.cif.g08.bks.cpg/sg164_2_cif.got.tgz:3557.got - 2010.05.20 10:58:56.
