data_PCOD9578286
_publ_section_title
;
Structure prediction by ZEFSAII (Michael W. Deem and Ramdas Pophale) SiO2 
 PCOD9578286
Probable space group: P -3 1 C
;
_chemical_formula_sum "Si O2"
_cell_formula_units_Z 52
_cell_length_a 13.327593
_cell_length_b 13.327593
_cell_length_c 15.936749
_cell_angle_alpha 90.000000
_cell_angle_beta 90.000000
_cell_angle_gamma 120.000000
_cell_volume 2451.510783
_symmetry_space_group_name_H-M "P -3 1 C"
_symmetry_group_IT_number 163
_symmetry_cell_setting 'hexagonal'
loop_
_space_group_symop_operation_xyz
x,y,z
-y,x-y,z
-x+y,-x,z
-y,-x,1/2-z
-x+y,y,1/2-z
x,x-y,1/2-z
-x,-y,-z
y,-x+y,-z
x-y,x,-z
y,x,1/2+z
x-y,-y,1/2+z
-x,-x+y,1/2+z
loop_
_atom_site_type_symbol
_atom_site_label
_atom_site_fract_x
_atom_site_fract_y
_atom_site_fract_z
Si Si1 0.462237 0.541724 0.082774
Si Si2 0.468150 0.531851 0.750000
Si Si3 0.000000 0.000000 0.399836
Si Si4 0.610752 0.803589 0.439584
Si Si5 0.054824 0.805076 0.892677
Si Si6 0.208860 0.791141 0.750000
O O1 0.522228 0.536452 0.169556
O O2 0.326021 0.451108 0.096609
O O3 0.504088 0.674506 0.057879
O O4 0.500000 0.500000 0.000000
O O5 0.338990 0.489472 0.717294
O O6 0.938748 0.865952 0.376565
O O7 0.000000 0.000000 0.500000
O O8 0.681315 0.801552 0.522382
O O9 0.710064 0.918789 0.394149
O O10 0.123365 0.784890 0.820915
#
# Coordination Sequence:
#
# PCOD9578286 Si02
#       6
#    12   6   4  12  12   6
#     4  12  26  46  74 107 147 192 246 303 370 438
#     4  12  27  48  74 108 144 193 252 302 372 440
#     4  12  24  40  68 106 138 196 236 301 378 424
#     4  12  23  48  73 107 143 193 243 299 365 443
#     4  12  25  45  76 105 150 190 246 306 369 446
#     4  12  27  48  72 108 148 193 244 316 366 444
#
# _framework density 21.211409
#
# number of rings (size 3 to 8) (size 9 to 14) (size 15 to 20)
#    0.000    0.000    6.923    2.077    3.231    1.846 
#    0.000    4.615    0.000    0.000    0.000    0.000 
#    0.000    0.000    0.000    0.000    0.000    0.000 
#
# Total GULP energy -290167.262851 kJ/mol
# GULP energy per Si atom -5580.139670 kJ/mol
# Density = 2.116313 g / cm^3
# Si number density = 21.211409 Si / 1000 Ang^3
#
#
#
# Elastic Constant Matrix: (Units=GPa)
#
#
# Indices 1 2 3 4 5 6 
#
# 1 136.5671 30.0500 27.0490 0.0000 -0.3362 0.0000
# 2 30.0500 136.5671 27.0490 0.0000 0.3362 0.0000
# 3 27.0490 27.0490 54.6299 0.0000 0.0000 0.0000
# 4 0.0000 0.0000 0.0000 18.7224 0.0000 0.3362
# 5 -0.3362 0.3362 0.0000 0.0000 18.7224 0.0000
# 6 0.0000 0.0000 0.0000 0.3362 0.0000 53.2585
#
#
#
# Elastic Compliance Matrix: (Units=1/GPa)
#
#
# Indices 1 2 3 4 5 6 
#
# 1 0.008270 -0.001119 -0.003541 0.000000 0.000169 0.000000
# 2 -0.001119 0.008270 -0.003541 0.000000 -0.000169 0.000000
# 3 -0.003541 -0.003541 0.021811 0.000000 0.000000 0.000000
# 4 0.000000 0.000000 0.000000 0.053418 0.000000 -0.000337
# 5 0.000169 -0.000169 0.000000 0.000000 0.053418 0.000000
# 6 0.000000 0.000000 0.000000 -0.000337 0.000000 0.018778
#
#
# Mechanical properties :
#
#
# Convention : Reuss Voigt Hill
#
# Bulk Modulus (GPa) = 45.55663 55.11780 50.33721
# Shear Modulus (GPa) = 26.64035 34.38172 30.51104
#
# Velocity S-wave (km/s) = 3.54778 4.03042 3.79677
# Velocity P-wave (km/s) = 6.18921 6.90655 6.55769
#
# Compressibility (1/GPa) = 0.02195070
#
# Stress axis : x y z
#
# Youngs Moduli (GPa) = 120.91391 120.91391 45.84747
#
# Poissons Ratio (x) = 0.13529 0.16234
# Poissons Ratio (y) = 0.13529 0.16234
# Poissons Ratio (z) = 0.42815 0.42815
#
# Static dielectric constant tensor:
#      x y z
#    x 1.826320 0.000000 0.000000 
#    y 0.000000 1.826320 0.000000 
#    z 0.000000 0.000000 1.736780 
# 
# From -- ./inp_files/2342.got.cif
#   From: 2010.05.17/outbox.cif.g08.bks.cpg/sg163_2_cif.got.tgz:2342.got - 2010.05.20 10:56:03.
