data_PCOD9578927
_publ_section_title
;
Structure prediction by ZEFSAII (Michael W. Deem and Ramdas Pophale) SiO2 
 PCOD9578927
Probable space group: P -3 C 1
;
_chemical_formula_sum "Si O2"
_cell_formula_units_Z 36
_cell_length_a 8.104543
_cell_length_b 8.104543
_cell_length_c 25.880582
_cell_angle_alpha 90.000000
_cell_angle_beta 90.000000
_cell_angle_gamma 120.000000
_cell_volume 1472.182774
_symmetry_space_group_name_H-M "P -3 C 1"
_symmetry_group_IT_number 165
_symmetry_cell_setting 'hexagonal'
loop_
_space_group_symop_operation_xyz
x,y,z
-y,x-y,z
-x+y,-x,z
x-y,-y,1/2-z
-x,-x+y,1/2-z
y,x,1/2-z
-x,-y,-z
y,-x+y,-z
x-y,x,-z
-x+y,y,1/2+z
x,x-y,1/2+z
-y,-x,1/2+z
loop_
_atom_site_type_symbol
_atom_site_label
_atom_site_fract_x
_atom_site_fract_y
_atom_site_fract_z
Si Si1 0.311074 0.998712 0.407707
Si Si2 0.375009 0.000546 0.548721
Si Si3 0.571917 0.705957 0.201960
O O1 0.466047 0.931749 0.407204
O O2 0.404622 0.201888 0.436566
O O3 0.295804 0.043564 0.348584
O O4 0.138294 0.850784 0.443546
O O5 0.500000 0.000000 0.500000
O O6 0.492160 0.855225 0.201200
O O7 0.684672 0.684672 0.250000
#
# Coordination Sequence:
#
# PCOD9578927 Si02
#       3
#    12  12  12
#     4  12  25  49  71 114 157 202 263 334 391 477
#     4  12  26  46  78 108 153 210 263 329 397 468
#     4  10  23  43  73 110 153 197 255 315 395 482
#
# _framework density 24.453486999999999
#
# number of rings (size 3 to 8) (size 9 to 14) (size 15 to 20)
#    0.667    0.000    3.333    4.000    4.667    0.000 
#    0.000    3.333    0.000    0.667    0.000    0.000 
#    0.000    0.000    0.000    0.000    0.000    0.000 
#
# Total GULP energy -200406.836364 kJ/mol
# GULP energy per Si atom -5566.856566 kJ/mol
# Density = 2.439783 g / cm^3
# Si number density = 24.453487 Si / 1000 Ang^3
#
#
#
# Elastic Constant Matrix: (Units=GPa)
#
#
# Indices 1 2 3 4 5 6 
#
# 1 103.1254 18.6029 50.0730 -5.3970 0.0000 0.0000
# 2 18.6029 103.1254 50.0730 5.3970 0.0000 0.0000
# 3 50.0730 50.0730 204.4711 0.0000 0.0000 0.0000
# 4 -5.3970 5.3970 0.0000 32.3357 0.0000 0.0000
# 5 0.0000 0.0000 0.0000 0.0000 32.3357 -5.3970
# 6 0.0000 0.0000 0.0000 0.0000 -5.3970 42.2612
#
#
#
# Elastic Compliance Matrix: (Units=1/GPa)
#
#
# Indices 1 2 3 4 5 6 
#
# 1 0.011188 -0.000901 -0.002519 0.002018 0.000000 0.000000
# 2 -0.000901 0.011188 -0.002519 -0.002018 0.000000 0.000000
# 3 -0.002519 -0.002519 0.006125 0.000000 0.000000 0.000000
# 4 0.002018 -0.002018 0.000000 0.031599 0.000000 0.000000
# 5 0.000000 0.000000 0.000000 0.000000 0.031599 0.004035
# 6 0.000000 0.000000 0.000000 0.000000 0.004035 0.024178
#
#
# Mechanical properties :
#
#
# Convention : Reuss Voigt Hill
#
# Bulk Modulus (GPa) = 60.15920 72.02442 66.09181
# Shear Modulus (GPa) = 37.51033 40.85136 39.18085
#
# Velocity S-wave (km/s) = 3.92081 4.09170 4.00717
# Velocity P-wave (km/s) = 6.71952 7.20002 6.96391
#
# Compressibility (1/GPa) = 0.01662256
#
# Stress axis : x y z
#
# Youngs Moduli (GPa) = 89.37928 89.37928 163.27597
#
# Poissons Ratio (x) = 0.08049 0.41135
# Poissons Ratio (y) = 0.08049 0.41135
# Poissons Ratio (z) = 0.22518 0.22518
#
# Static dielectric constant tensor:
#      x y z
#    x 2.019970 0.000000 0.000000 
#    y 0.000000 2.019970 0.000000 
#    z 0.000000 0.000000 2.008610 
# 
# From -- ./inp_files/1981.got.cif
#   From: 2010.05.17/outbox.cif.g08.bks.cpg/sg165_1_cif.got.tgz:1981.got - 2010.05.20 11:02:39.
