data_PCOD9578075
_publ_section_title
;
Structure prediction by ZEFSAII (Michael W. Deem and Ramdas Pophale) SiO2 
 PCOD9578075
Probable space group: P -3 1 C
;
_chemical_formula_sum "Si O2"
_cell_formula_units_Z 36
_cell_length_a 18.342671
_cell_length_b 18.342671
_cell_length_c 7.626417
_cell_angle_alpha 90.000000
_cell_angle_beta 90.000000
_cell_angle_gamma 120.000000
_cell_volume 2222.165152
_symmetry_space_group_name_H-M "P -3 1 C"
_symmetry_group_IT_number 163
_symmetry_cell_setting 'hexagonal'
loop_
_space_group_symop_operation_xyz
x,y,z
-y,x-y,z
-x+y,-x,z
-y,-x,1/2-z
-x+y,y,1/2-z
x,x-y,1/2-z
-x,-y,-z
y,-x+y,-z
x-y,x,-z
y,x,1/2+z
x-y,-y,1/2+z
-x,-x+y,1/2+z
loop_
_atom_site_type_symbol
_atom_site_label
_atom_site_fract_x
_atom_site_fract_y
_atom_site_fract_z
Si Si1 0.839033 0.333122 0.250000
Si Si2 0.737628 0.094091 0.545059
Si Si3 0.737628 0.643537 0.545059
O O1 0.741995 0.258006 0.250000
O O2 0.845974 0.422987 0.250000
O O3 0.882384 0.317912 0.419374
O O4 0.882384 0.317912 0.080626
O O5 0.834201 0.165799 0.511910
O O6 0.719777 0.098172 0.750000
O O7 0.715417 1.000000 0.500000
#
# Coordination Sequence:
#
# PCOD9578075 Si02
#       3
#    12  12  12
#     4  10  21  36  53  74 104 138 174 212 255 302
#     4  10  20  35  54  78 104 134 171 210 255 303
#     4  10  20  35  54  78 104 134 171 210 255 303
#
# _framework density 16.200417000000002
#
# number of rings (size 3 to 8) (size 9 to 14) (size 15 to 20)
#    0.000    2.000    3.333    0.333    0.000    2.667 
#    0.000    0.000    0.000    4.667    0.000    0.000 
#    0.000    0.000    0.000    0.000    0.000    0.000 
#
# Total GULP energy -200759.807412 kJ/mol
# GULP energy per Si atom -5576.661317 kJ/mol
# Density = 1.616354 g / cm^3
# Si number density = 16.200417 Si / 1000 Ang^3
#
#
#
# Elastic Constant Matrix: (Units=GPa)
#
#
# Indices 1 2 3 4 5 6 
#
# 1 110.1570 94.7750 61.9483 0.0000 0.0000 0.0000
# 2 94.7750 110.1570 61.9483 0.0000 0.0000 0.0000
# 3 61.9483 61.9483 125.6439 0.0000 0.0000 0.0000
# 4 0.0000 0.0000 0.0000 12.6817 0.0000 0.0000
# 5 0.0000 0.0000 0.0000 0.0000 12.6817 0.0000
# 6 0.0000 0.0000 0.0000 0.0000 0.0000 7.6910
#
#
#
# Elastic Compliance Matrix: (Units=1/GPa)
#
#
# Indices 1 2 3 4 5 6 
#
# 1 0.035981 -0.029029 -0.003428 0.000000 0.000000 0.000000
# 2 -0.029029 0.035981 -0.003428 0.000000 0.000000 0.000000
# 3 -0.003428 -0.003428 0.011339 0.000000 0.000000 0.000000
# 4 0.000000 0.000000 0.000000 0.078854 0.000000 0.000000
# 5 0.000000 0.000000 0.000000 0.000000 0.078854 0.000000
# 6 0.000000 0.000000 0.000000 0.000000 0.000000 0.130022
#
#
# Mechanical properties :
#
#
# Convention : Reuss Voigt Hill
#
# Bulk Modulus (GPa) = 86.71291 87.03348 86.87319
# Shear Modulus (GPa) = 11.19458 15.09664 13.14561
#
# Velocity S-wave (km/s) = 2.63155 3.05596 2.85166
# Velocity P-wave (km/s) = 7.92936 8.14196 8.03636
#
# Compressibility (1/GPa) = 0.01153231
#
# Stress axis : x y z
#
# Youngs Moduli (GPa) = 27.79213 27.79213 88.19159
#
# Poissons Ratio (x) = 0.80679 0.30229
# Poissons Ratio (y) = 0.80679 0.30229
# Poissons Ratio (z) = 0.09526 0.09526
#
# Static dielectric constant tensor:
#      x y z
#    x 1.523960 0.000000 0.000000 
#    y 0.000000 1.523960 0.000000 
#    z 0.000000 0.000000 1.560100 
# 
# From -- ./inp_files/728.got.cif
#   From: 2010.05.17/outbox.cif.g08.bks.cpg/sg163_1_cif.got.tgz:728.got - 2010.05.20 10:56:03.
