data_PCOD9578379
_publ_section_title
;
Structure prediction by ZEFSAII (Michael W. Deem and Ramdas Pophale) SiO2 
 PCOD9578379
Probable space group: P -3 M 1
;
_chemical_formula_sum "Si O2"
_cell_formula_units_Z 78
_cell_length_a 18.142957
_cell_length_b 18.142957
_cell_length_c 17.636523
_cell_angle_alpha 90.000000
_cell_angle_beta 90.000000
_cell_angle_gamma 120.000000
_cell_volume 5027.588721
_symmetry_space_group_name_H-M "P -3 M 1"
_symmetry_group_IT_number 164
_symmetry_cell_setting 'hexagonal'
loop_
_space_group_symop_operation_xyz
x,y,z
-y,x-y,z
-x+y,-x,z
x-y,-y,-z
-x,-x+y,-z
y,x,-z
-x,-y,-z
y,-x+y,-z
x-y,x,-z
-x+y,y,z
x,x-y,z
-y,-x,z
loop_
_atom_site_type_symbol
_atom_site_label
_atom_site_fract_x
_atom_site_fract_y
_atom_site_fract_z
Si Si1 0.335870 0.495481 0.964448
Si Si2 0.241540 0.931722 0.566617
Si Si3 0.740300 0.958853 0.846234
Si Si4 0.556327 0.690381 0.793876
Si Si5 0.310676 0.000000 0.000000
Si Si6 0.168984 0.170996 0.306650
Si Si7 0.502233 0.662944 0.627662
O O1 0.250807 0.501614 0.978340
O O2 0.421535 0.578466 0.993124
O O3 0.344958 0.491482 0.873069
O O4 0.321734 0.405082 0.994651
O O5 0.150602 0.849399 0.546790
O O6 0.224500 0.972467 0.641504
O O7 0.304929 0.896408 0.585614
O O8 0.275796 0.000000 0.500000
O O9 0.735203 0.867602 0.860569
O O10 0.651833 0.940395 0.807939
O O11 0.810155 0.005723 0.781767
O O12 0.741923 0.001422 0.925867
O O13 0.563866 0.781933 0.784409
O O14 0.516775 0.645930 0.715190
O O15 0.146903 0.073452 0.313666
O O16 0.090936 0.181872 0.332236
O O17 0.484787 0.742394 0.626567
O O18 0.421568 0.578433 0.596654
#
# Coordination Sequence:
#
# PCOD9578379 Si02
#       7
#    12  12  12  12   6  12  12
#     4  10  19  30  45  66  95 127 161 199 242 286
#     4  10  20  34  51  71  97 127 158 193 235 282
#     4   9  17  31  48  68  94 124 158 195 238 281
#     4   8  14  27  45  66  92 121 152 187 228 280
#     4  10  19  30  48  70  93 124 162 202 233 278
#     4  10  19  32  51  73  97 124 158 198 240 285
#     4  10  18  29  47  71  99 127 157 193 235 283
#
# _framework density 15.514396
#
# number of rings (size 3 to 8) (size 9 to 14) (size 15 to 20)
#    0.000    2.462    1.538    3.000    0.000    1.538 
#    0.000    1.538    0.000    2.462    0.000    2.692 
#    0.000    0.000    0.000    0.615    0.000    0.000 
#
# Total GULP energy -434236.082341 kJ/mol
# GULP energy per Si atom -5567.129261 kJ/mol
# Density = 1.547908 g / cm^3
# Si number density = 15.514396 Si / 1000 Ang^3
#
#
#
# Elastic Constant Matrix: (Units=GPa)
#
#
# Indices 1 2 3 4 5 6 
#
# 1 74.9021 48.1436 39.4745 2.9765 0.0000 0.0000
# 2 48.1436 74.9021 39.4745 -2.9765 0.0000 0.0000
# 3 39.4745 39.4745 80.6058 0.0000 0.0000 0.0000
# 4 2.9765 -2.9765 0.0000 11.0315 0.0000 0.0000
# 5 0.0000 0.0000 0.0000 0.0000 11.0315 2.9765
# 6 0.0000 0.0000 0.0000 0.0000 2.9765 13.3793
#
#
#
# Elastic Compliance Matrix: (Units=1/GPa)
#
#
# Indices 1 2 3 4 5 6 
#
# 1 0.025804 -0.013954 -0.005804 -0.010727 0.000000 0.000000
# 2 -0.013954 0.025804 -0.005804 0.010727 0.000000 0.000000
# 3 -0.005804 -0.005804 0.018090 0.000000 0.000000 0.000000
# 4 -0.010727 0.010727 0.000000 0.096438 0.000000 0.000000
# 5 0.000000 0.000000 0.000000 0.000000 0.096438 -0.021455
# 6 0.000000 0.000000 0.000000 0.000000 -0.021455 0.079516
#
#
# Mechanical properties :
#
#
# Convention : Reuss Voigt Hill
#
# Bulk Modulus (GPa) = 53.82844 53.84391 53.83617
# Shear Modulus (GPa) = 12.51861 13.97629 13.24745
#
# Velocity S-wave (km/s) = 2.84369 3.00469 2.92529
# Velocity P-wave (km/s) = 6.74931 6.84242 6.79602
#
# Compressibility (1/GPa) = 0.01857754
#
# Stress axis : x y z
#
# Youngs Moduli (GPa) = 38.75324 38.75324 55.27810
#
# Poissons Ratio (x) = 0.54074 0.32081
# Poissons Ratio (y) = 0.54074 0.32081
# Poissons Ratio (z) = 0.22491 0.22491
#
# Static dielectric constant tensor:
#      x y z
#    x 1.522800 0.000000 0.000000 
#    y 0.000000 1.522800 0.000000 
#    z 0.000000 0.000000 1.521250 
# 
# From -- ./inp_files/4145.got.cif
#   From: 2010.05.17/outbox.cif.g08.bks.cpg/sg164_3_cif.got.tgz:4145.got - 2010.05.20 10:58:56.
