data_PCOD9578620
_publ_section_title
;
Structure prediction by ZEFSAII (Michael W. Deem and Ramdas Pophale) SiO2 
 PCOD9578620
Probable space group: P -3 M 1
;
_chemical_formula_sum "Si O2"
_cell_formula_units_Z 66
_cell_length_a 12.773792
_cell_length_b 12.773792
_cell_length_c 28.902521
_cell_angle_alpha 90.000000
_cell_angle_beta 90.000000
_cell_angle_gamma 120.000000
_cell_volume 4084.190938
_symmetry_space_group_name_H-M "P -3 M 1"
_symmetry_group_IT_number 164
_symmetry_cell_setting 'hexagonal'
loop_
_space_group_symop_operation_xyz
x,y,z
-y,x-y,z
-x+y,-x,z
x-y,-y,-z
-x,-x+y,-z
y,x,-z
-x,-y,-z
y,-x+y,-z
x-y,x,-z
-x+y,y,z
x,x-y,z
-y,-x,z
loop_
_atom_site_type_symbol
_atom_site_label
_atom_site_fract_x
_atom_site_fract_y
_atom_site_fract_z
Si Si1 0.915617 0.582039 0.354061
Si Si2 0.667469 0.085266 0.089276
Si Si3 0.249216 0.999818 0.178062
Si Si4 0.000000 0.750591 0.000000
Si Si5 0.582195 0.914894 0.267088
Si Si6 0.084606 0.417375 0.541857
O O1 0.793347 0.586694 0.347358
O O2 0.886668 0.443334 0.351847
O O3 0.963145 0.626939 0.406117
O O4 0.011440 0.652772 0.314070
O O5 0.537797 0.075594 0.088325
O O6 0.774870 0.225131 0.089535
O O7 0.686530 0.024305 0.134834
O O8 0.690529 0.024434 0.044547
O O9 0.233886 0.116943 0.182864
O O10 0.306415 0.978523 0.224182
O O11 0.120028 0.879973 0.170215
O O12 0.881725 0.763449 0.993153
O O13 0.456739 0.913477 0.259820
O O14 0.559916 0.779958 0.270601
O O15 0.213439 0.426878 0.538548
O O16 0.099944 0.549972 0.537529
O O17 0.000000 0.339454 0.500000
#
# Coordination Sequence:
#
# PCOD9578620 Si02
#       6
#    12  12  12   6  12  12
#     4   9  17  30  48  69  92 119 154 196 240 283
#     4  10  20  34  52  74 101 132 165 202 245 293
#     4  10  20  34  53  75  99 128 163 204 245 285
#     4  10  20  34  54  78 104 134 168 208 250 292
#     4  10  20  33  49  70  98 130 161 194 235 285
#     4   9  17  29  46  68  93 121 153 191 235 282
#
# _framework density 16.159872
#
# number of rings (size 3 to 8) (size 9 to 14) (size 15 to 20)
#    0.000    2.364    0.000    2.909    0.000    2.182 
#    0.000    1.818    0.000   13.636    0.000    0.000 
#    0.000    0.000    0.000    0.000    0.000    0.000 
#
# Total GULP energy -368074.948512 kJ/mol
# GULP energy per Si atom -5576.893159 kJ/mol
# Density = 1.612309 g / cm^3
# Si number density = 16.159872 Si / 1000 Ang^3
#
#
#
# Elastic Constant Matrix: (Units=GPa)
#
#
# Indices 1 2 3 4 5 6 
#
# 1 108.7416 69.1704 83.4894 2.0877 0.0000 0.0000
# 2 69.1704 108.7416 83.4894 -2.0877 0.0000 0.0000
# 3 83.4894 83.4894 151.3844 0.0000 0.0000 0.0000
# 4 2.0877 -2.0877 0.0000 25.8940 0.0000 0.0000
# 5 0.0000 0.0000 0.0000 0.0000 25.8940 2.0877
# 6 0.0000 0.0000 0.0000 0.0000 2.0877 19.7856
#
#
#
# Elastic Compliance Matrix: (Units=1/GPa)
#
#
# Indices 1 2 3 4 5 6 
#
# 1 0.018570 -0.006918 -0.006426 -0.002055 0.000000 0.000000
# 2 -0.006918 0.018570 -0.006426 0.002055 0.000000 0.000000
# 3 -0.006426 -0.006426 0.013694 0.000000 0.000000 0.000000
# 4 -0.002055 0.002055 0.000000 0.038950 0.000000 0.000000
# 5 0.000000 0.000000 0.000000 0.000000 0.038950 -0.004110
# 6 0.000000 0.000000 0.000000 0.000000 -0.004110 0.050975
#
#
# Mechanical properties :
#
#
# Convention : Reuss Voigt Hill
#
# Bulk Modulus (GPa) = 88.54866 93.46290 91.00578
# Shear Modulus (GPa) = 22.42006 23.16260 22.79133
#
# Velocity S-wave (km/s) = 3.72881 3.79006 3.75956
# Velocity P-wave (km/s) = 8.57048 8.78150 8.67663
#
# Compressibility (1/GPa) = 0.01129323
#
# Stress axis : x y z
#
# Youngs Moduli (GPa) = 53.85066 53.85066 73.02562
#
# Poissons Ratio (x) = 0.37253 0.46927
# Poissons Ratio (y) = 0.37253 0.46927
# Poissons Ratio (z) = 0.34605 0.34605
#
# Static dielectric constant tensor:
#      x y z
#    x 1.509020 0.000000 0.000000 
#    y 0.000000 1.509020 0.000000 
#    z 0.000000 0.000000 1.542910 
# 
# From -- ./inp_files/5508.got.cif
#   From: 2010.05.17/outbox.cif.g08.bks.cpg/sg164_3_cif.got.tgz:5508.got - 2010.05.20 10:58:56.
