data_PCOD9578071
_publ_section_title
;
Structure prediction by ZEFSAII (Michael W. Deem and Ramdas Pophale) SiO2 
 PCOD9578071
Probable space group: P -3 1 C
;
_chemical_formula_sum "Si O2"
_cell_formula_units_Z 78
_cell_length_a 26.367882
_cell_length_b 26.367882
_cell_length_c 8.463014
_cell_angle_alpha 90.000000
_cell_angle_beta 90.000000
_cell_angle_gamma 120.000000
_cell_volume 5095.727364
_symmetry_space_group_name_H-M "P -3 1 C"
_symmetry_group_IT_number 163
_symmetry_cell_setting 'hexagonal'
loop_
_space_group_symop_operation_xyz
x,y,z
-y,x-y,z
-x+y,-x,z
-y,-x,1/2-z
-x+y,y,1/2-z
x,x-y,1/2-z
-x,-y,-z
y,-x+y,-z
x-y,x,-z
y,x,1/2+z
x-y,-y,1/2+z
-x,-x+y,1/2+z
loop_
_atom_site_type_symbol
_atom_site_label
_atom_site_fract_x
_atom_site_fract_y
_atom_site_fract_z
Si Si1 0.338675 0.464210 0.643052
Si Si2 0.071745 0.732226 0.469273
Si Si3 0.224103 0.775898 0.750000
Si Si4 0.194277 0.825285 0.432673
Si Si5 0.087366 0.522358 0.089537
Si Si6 0.406416 0.440734 0.917864
Si Si7 0.659186 0.704459 0.390202
O O1 0.300344 0.402368 0.554608
O O2 0.293700 0.480300 0.724475
O O3 0.381844 0.512171 0.520154
O O4 0.377825 0.451567 0.764248
O O5 0.124484 0.798787 0.453267
O O6 0.050301 0.703511 0.297724
O O7 0.013940 0.718121 0.564325
O O8 0.213524 0.801813 0.585772
O O9 0.196511 0.803490 0.250000
O O10 0.237863 0.894723 0.439297
O O11 0.113605 0.556803 0.250000
O O12 0.031793 0.457149 0.121117
O O13 0.061991 0.558738 0.002553
O O14 0.353553 0.392876 0.025773
#
# Coordination Sequence:
#
# PCOD9578071 Si02
#       7
#    12  12   6  12  12  12  12
#     4  11  20  34  48  69  97 132 169 203 256 297
#     4  10  21  30  48  71  95 134 176 206 253 300
#     4  10  20  34  54  70  98 128 170 214 246 306
#     4   9  20  34  48  70  98 131 175 215 247 296
#     4  11  22  32  45  69 103 134 165 203 247 314
#     4  11  20  30  47  69  98 137 165 199 247 303
#     4  11  19  33  49  70 101 135 171 214 251 303
#
# _framework density 15.306941
#
# number of rings (size 3 to 8) (size 9 to 14) (size 15 to 20)
#    0.000    1.538    3.077    4.154    2.154    0.000 
#    0.000    0.000    0.000    0.000    0.000    0.000 
#    6.154    0.000    0.000    0.462    0.000    5.538 
#
# Total GULP energy -434538.663330 kJ/mol
# GULP energy per Si atom -5571.008504 kJ/mol
# Density = 1.527210 g / cm^3
# Si number density = 15.306941 Si / 1000 Ang^3
#
#
#
# Elastic Constant Matrix: (Units=GPa)
#
#
# Indices 1 2 3 4 5 6 
#
# 1 68.2657 46.6816 31.0187 0.0003 0.8490 0.0000
# 2 46.6816 68.2657 31.0187 -0.0003 -0.8490 0.0000
# 3 31.0187 31.0187 83.2470 0.0000 0.0000 0.0000
# 4 0.0003 -0.0003 0.0000 23.9053 0.0000 -0.8490
# 5 0.8490 -0.8490 0.0000 0.0000 23.9053 0.0003
# 6 0.0000 0.0000 0.0000 -0.8490 0.0003 10.7921
#
#
#
# Elastic Compliance Matrix: (Units=1/GPa)
#
#
# Indices 1 2 3 4 5 6 
#
# 1 0.028675 -0.017785 -0.004058 -0.000001 -0.001650 0.000000
# 2 -0.017785 0.028675 -0.004058 0.000001 0.001650 0.000000
# 3 -0.004058 -0.004058 0.015036 0.000000 0.000000 0.000000
# 4 -0.000001 0.000001 0.000000 0.041949 0.000000 0.003300
# 5 -0.001650 0.001650 0.000000 0.000000 0.041949 -0.000001
# 6 0.000000 0.000000 0.000000 0.003300 -0.000001 0.092920
#
#
# Mechanical properties :
#
#
# Convention : Reuss Voigt Hill
#
# Bulk Modulus (GPa) = 48.57895 48.57961 48.57928
# Shear Modulus (GPa) = 16.24079 19.12447 17.68263
#
# Velocity S-wave (km/s) = 3.26085 3.53852 3.40252
# Velocity P-wave (km/s) = 6.78107 6.96424 6.87327
#
# Compressibility (1/GPa) = 0.02058505
#
# Stress axis : x y z
#
# Youngs Moduli (GPa) = 34.87378 34.87378 66.50609
#
# Poissons Ratio (x) = 0.62024 0.26985
# Poissons Ratio (y) = 0.62024 0.26985
# Poissons Ratio (z) = 0.14150 0.14150
#
# Static dielectric constant tensor:
#      x y z
#    x 1.517150 0.000000 0.000000 
#    y 0.000000 1.517150 0.000000 
#    z 0.000000 0.000000 1.580510 
# 
# From -- ./inp_files/1312.got.cif
#   From: 2010.05.17/outbox.cif.g08.bks.cpg/sg163_1_cif.got.tgz:1312.got - 2010.05.20 10:56:03.
