data_PCOD9578010
_publ_section_title
;
Structure prediction by ZEFSAII (Michael W. Deem and Ramdas Pophale) SiO2 
 PCOD9578010
Probable space group: P -3 1 C
;
_chemical_formula_sum "Si O2"
_cell_formula_units_Z 84
_cell_length_a 17.317839
_cell_length_b 17.317839
_cell_length_c 23.269665
_cell_angle_alpha 90.000000
_cell_angle_beta 90.000000
_cell_angle_gamma 120.000000
_cell_volume 6043.773197
_symmetry_space_group_name_H-M "P -3 1 C"
_symmetry_group_IT_number 163
_symmetry_cell_setting 'hexagonal'
loop_
_space_group_symop_operation_xyz
x,y,z
-y,x-y,z
-x+y,-x,z
-y,-x,1/2-z
-x+y,y,1/2-z
x,x-y,1/2-z
-x,-y,-z
y,-x+y,-z
x-y,x,-z
y,x,1/2+z
x-y,-y,1/2+z
-x,-x+y,1/2+z
loop_
_atom_site_type_symbol
_atom_site_label
_atom_site_fract_x
_atom_site_fract_y
_atom_site_fract_z
Si Si1 0.847235 0.332431 0.595530
Si Si2 0.570944 0.957770 0.866228
Si Si3 0.518363 0.666782 0.750000
Si Si4 0.847235 0.514805 0.595530
Si Si5 0.372624 0.275290 0.018861
Si Si6 0.613175 0.570945 0.366228
Si Si7 0.627376 0.902666 0.981139
O O1 0.828794 0.414397 0.599046
O O2 0.760352 0.239649 0.611703
O O3 0.873205 0.322024 0.530090
O O4 0.936203 0.358998 0.632205
O O5 0.565313 0.909228 0.806755
O O6 0.474898 0.949797 0.875943
O O7 0.592215 0.913067 0.919615
O O8 0.417204 0.582797 0.750000
O O9 0.518107 0.759054 0.750000
O O10 0.565314 0.656086 0.806755
O O11 0.873205 0.551182 0.530090
O O12 0.936203 0.577206 0.632205
O O13 0.407785 0.320852 0.080385
O O14 0.345532 0.172766 0.020210
O O15 0.294864 0.294864 1.000000
#
# Coordination Sequence:
#
# PCOD9578010 Si02
#       7
#    12  12  12  12  12  12  12
#     4   9  16  26  41  61  84 109 136 165 197 233
#     4   9  17  28  41  58  81 108 135 164 199 237
#     4  10  19  30  43  58  78 104 134 166 199 236
#     4   9  16  26  41  61  84 109 136 165 197 233
#     4   9  16  26  41  60  81 105 133 166 203 243
#     4   9  17  28  41  58  81 108 135 164 199 237
#     4   9  16  26  41  60  81 105 133 166 203 243
#
# _framework density 13.898602
#
# number of rings (size 3 to 8) (size 9 to 14) (size 15 to 20)
#    0.000    2.857    0.000    2.143    0.000    3.429 
#    0.000    0.714    0.000    9.429    0.000    2.000 
#    0.000    0.000    0.000    2.857    0.000    2.286 
#
# Total GULP energy -467768.724432 kJ/mol
# GULP energy per Si atom -5568.675291 kJ/mol
# Density = 1.386697 g / cm^3
# Si number density = 13.898602 Si / 1000 Ang^3
#
#
#
# Elastic Constant Matrix: (Units=GPa)
#
#
# Indices 1 2 3 4 5 6 
#
# 1 98.8316 56.6552 56.7304 0.0000 0.0000 0.0000
# 2 56.6552 98.8316 56.7304 0.0000 0.0000 0.0000
# 3 56.7304 56.7304 101.8799 0.0000 0.0000 0.0000
# 4 0.0000 0.0000 0.0000 15.1905 0.0000 0.0000
# 5 0.0000 0.0000 0.0000 0.0000 15.1905 0.0000
# 6 0.0000 0.0000 0.0000 0.0000 0.0000 21.0882
#
#
#
# Elastic Compliance Matrix: (Units=1/GPa)
#
#
# Indices 1 2 3 4 5 6 
#
# 1 0.017272 -0.006438 -0.006032 0.000000 0.000000 0.000000
# 2 -0.006438 0.017272 -0.006032 0.000000 0.000000 0.000000
# 3 -0.006032 -0.006032 0.016534 0.000000 0.000000 0.000000
# 4 0.000000 0.000000 0.000000 0.065831 0.000000 0.000000
# 5 0.000000 0.000000 0.000000 0.000000 0.065831 0.000000
# 6 0.000000 0.000000 0.000000 0.000000 0.000000 0.047420
#
#
# Mechanical properties :
#
#
# Convention : Reuss Voigt Hill
#
# Bulk Modulus (GPa) = 71.06973 71.08611 71.07792
# Shear Modulus (GPa) = 18.39221 18.92232 18.65726
#
# Velocity S-wave (km/s) = 3.64168 3.69379 3.66783
# Velocity P-wave (km/s) = 8.30229 8.33363 8.31797
#
# Compressibility (1/GPa) = 0.01407069
#
# Stress axis : x y z
#
# Youngs Moduli (GPa) = 57.89839 57.89839 60.48297
#
# Poissons Ratio (x) = 0.37277 0.36486
# Poissons Ratio (y) = 0.37277 0.36486
# Poissons Ratio (z) = 0.34927 0.34927
#
# Static dielectric constant tensor:
#      x y z
#    x 1.444770 0.000000 0.000000 
#    y 0.000000 1.444770 0.000000 
#    z 0.000000 0.000000 1.448110 
# 
# From -- ./inp_files/3675.got.cif
#   From: 2010.05.17/outbox.cif.g08.bks.cpg/sg163_2_cif.got.tgz:3675.got - 2010.05.20 10:56:03.
