data_PCOD9578935
_publ_section_title
;
Structure prediction by ZEFSAII (Michael W. Deem and Ramdas Pophale) SiO2 
 PCOD9578935
Probable space group: P -3 C 1
;
_chemical_formula_sum "Si O2"
_cell_formula_units_Z 54
_cell_length_a 11.407911
_cell_length_b 11.407911
_cell_length_c 21.407248
_cell_angle_alpha 90.000000
_cell_angle_beta 90.000000
_cell_angle_gamma 120.000000
_cell_volume 2412.702203
_symmetry_space_group_name_H-M "P -3 C 1"
_symmetry_group_IT_number 165
_symmetry_cell_setting 'hexagonal'
loop_
_space_group_symop_operation_xyz
x,y,z
-y,x-y,z
-x+y,-x,z
x-y,-y,1/2-z
-x,-x+y,1/2-z
y,x,1/2-z
-x,-y,-z
y,-x+y,-z
x-y,x,-z
-x+y,y,1/2+z
x,x-y,1/2+z
-y,-x,1/2+z
loop_
_atom_site_type_symbol
_atom_site_label
_atom_site_fract_x
_atom_site_fract_y
_atom_site_fract_z
Si Si1 0.721603 0.216751 0.814727
Si Si2 0.786555 0.504741 0.552637
Si Si3 0.825113 0.141426 0.430734
Si Si4 0.106866 0.857513 0.880381
Si Si5 0.000000 0.773281 0.750000
O O1 0.809666 0.379431 0.806468
O O2 0.753388 0.184678 0.883750
O O3 0.756141 0.125986 0.770964
O O4 0.623097 0.432078 0.549897
O O5 0.845144 0.606281 0.494530
O O6 0.849557 0.592833 0.614493
O O7 0.980725 0.175288 0.428008
O O8 0.752401 0.992098 0.401697
O O9 0.052006 0.863974 0.812239
#
# Coordination Sequence:
#
# PCOD9578935 Si02
#       5
#    12  12  12  12   6
#     4   9  21  39  61  92 118 179 219 276 353 403
#     4  10  24  43  65 102 133 173 222 286 346 415
#     4  11  22  42  66  94 134 169 227 275 345 421
#     4  11  25  40  65  97 128 183 221 283 347 409
#     4  10  24  42  62  94 138 170 236 294 334 412
#
# _framework density 22.381544999999999
#
# number of rings (size 3 to 8) (size 9 to 14) (size 15 to 20)
#    0.889    0.889    0.000    3.111    0.000   14.222 
#    0.000    2.222    0.000    0.000    0.000    0.000 
#    0.000    0.000    0.000    0.000    0.000    0.000 
#
# Total GULP energy -301163.896620 kJ/mol
# GULP energy per Si atom -5577.109197 kJ/mol
# Density = 2.233060 g / cm^3
# Si number density = 22.381545 Si / 1000 Ang^3
#
#
#
# Elastic Constant Matrix: (Units=GPa)
#
#
# Indices 1 2 3 4 5 6 
#
# 1 439.7964 -333.8146 21.9530 275.0063 0.0000 0.0000
# 2 -333.8146 439.7964 21.9530 -275.0063 0.0000 0.0000
# 3 21.9530 21.9530 80.7614 0.0000 0.0000 0.0000
# 4 275.0063 -275.0063 0.0000 255.6955 0.0000 0.0000
# 5 0.0000 0.0000 0.0000 0.0000 255.6955 275.0063
# 6 0.0000 0.0000 0.0000 0.0000 275.0063 386.8055
#
#
#
# Elastic Compliance Matrix: (Units=1/GPa)
#
#
# Indices 1 2 3 4 5 6 
#
# 1 0.008063 0.002570 -0.002890 -0.005908 0.000000 0.000000
# 2 0.002570 0.008063 -0.002890 0.005908 0.000000 0.000000
# 3 -0.002890 -0.002890 0.013953 0.000000 0.000000 0.000000
# 4 -0.005908 0.005908 0.000000 0.016618 0.000000 0.000000
# 5 0.000000 0.000000 0.000000 0.000000 0.016618 -0.011815
# 6 0.000000 0.000000 0.000000 0.000000 -0.011815 0.010985
#
#
# Mechanical properties :
#
#
# Convention : Reuss Voigt Hill
#
# Bulk Modulus (GPa) = 42.26868 42.28188 42.27528
# Shear Modulus (GPa) = 56.42832 262.99018 159.70925
#
# Velocity S-wave (km/s) = 5.02660 10.85165 8.45650
# Velocity P-wave (km/s) = 7.25365 13.26437 10.69016
#
# Compressibility (1/GPa) = 0.02365818
#
# Stress axis : x y z
#
# Youngs Moduli (GPa) = 124.02593 124.02593 71.66683
#
# Poissons Ratio (x) = -0.31876 0.20714
# Poissons Ratio (y) = -0.31876 0.20714
# Poissons Ratio (z) = 0.35847 0.35847
#
# Static dielectric constant tensor:
#      x y z
#    x 1.851950 0.000000 0.000000 
#    y 0.000000 1.851950 0.000000 
#    z 0.000000 0.000000 1.846110 
# 
# From -- ./inp_files/2593.got.cif
#   From: 2010.05.17/outbox.cif.g08.bks.cpg/sg165_2_cif.got.tgz:2593.got - 2010.05.20 11:02:39.
