data_PCOD9578494
_publ_section_title
;
Structure prediction by ZEFSAII (Michael W. Deem and Ramdas Pophale) SiO2 
 PCOD9578494
Probable space group: P -3 M 1
;
_chemical_formula_sum "Si O2"
_cell_formula_units_Z 84
_cell_length_a 19.685208
_cell_length_b 19.685208
_cell_length_c 13.484271
_cell_angle_alpha 90.000000
_cell_angle_beta 90.000000
_cell_angle_gamma 120.000000
_cell_volume 4525.203558
_symmetry_space_group_name_H-M "P -3 M 1"
_symmetry_group_IT_number 164
_symmetry_cell_setting 'hexagonal'
loop_
_space_group_symop_operation_xyz
x,y,z
-y,x-y,z
-x+y,-x,z
x-y,-y,-z
-x,-x+y,-z
y,x,-z
-x,-y,-z
y,-x+y,-z
x-y,x,-z
-x+y,y,z
x,x-y,z
-y,-x,z
loop_
_atom_site_type_symbol
_atom_site_label
_atom_site_fract_x
_atom_site_fract_y
_atom_site_fract_z
Si Si1 0.090828 0.334233 0.787693
Si Si2 0.261326 0.052369 0.911203
Si Si3 0.044837 0.356894 0.593189
Si Si4 0.381668 0.918345 0.290260
Si Si5 0.699686 0.143277 0.918754
Si Si6 0.175407 0.666332 0.484660
Si Si7 0.172305 0.507798 0.866798
O O1 0.162417 0.324833 0.828162
O O2 0.088241 0.330021 0.668958
O O3 0.113942 0.423634 0.816352
O O4 0.009359 0.264693 0.829042
O O5 0.247716 0.123858 0.880710
O O6 0.351757 0.093304 0.947875
O O7 0.205585 0.000000 0.000000
O O8 0.104164 0.440484 0.545220
O O9 0.000000 0.302050 0.500000
O O10 0.982602 0.364285 0.663172
O O11 0.473389 0.946778 0.294781
O O12 0.351861 0.894610 0.178549
O O13 0.340031 0.846181 0.367765
O O14 0.770247 0.229754 0.892245
O O15 0.658168 0.151782 0.016018
O O16 0.183778 0.591889 0.510502
O O17 0.253715 0.746286 0.506234
O O18 0.260643 0.521286 0.853751
O O19 0.166578 0.583289 0.832932
#
# Coordination Sequence:
#
# PCOD9578494 Si02
#       7
#    12  12  12  12  12  12  12
#     4  11  22  40  61  87 119 153 191 237 291 346
#     4  11  21  38  61  88 118 151 188 229 287 348
#     4  10  21  37  55  79 108 142 186 236 292 337
#     4  10  19  32  51  75 108 143 187 239 289 337
#     4  10  19  33  53  80 114 149 189 234 284 339
#     4  10  20  34  51  73 103 145 192 241 290 338
#     4  10  21  36  56  83 122 167 210 247 284 332
#
# _framework density 18.562701000000001
#
# number of rings (size 3 to 8) (size 9 to 14) (size 15 to 20)
#    0.000    1.714    2.857    2.429    0.000    2.857 
#    0.000    1.429    0.000    8.857    0.000    0.000 
#    0.000    0.571    0.000    0.429    0.000    0.000 
#
# Total GULP energy -468622.438360 kJ/mol
# GULP energy per Si atom -5578.838552 kJ/mol
# Density = 1.852045 g / cm^3
# Si number density = 18.562701 Si / 1000 Ang^3
#
#
#
# Elastic Constant Matrix: (Units=GPa)
#
#
# Indices 1 2 3 4 5 6 
#
# 1 69.4824 49.7315 25.6740 0.3297 0.0000 0.0000
# 2 49.7315 69.4824 25.6740 -0.3297 0.0000 0.0000
# 3 25.6740 25.6740 85.0348 0.0000 0.0000 0.0000
# 4 0.3297 -0.3297 0.0000 18.9312 0.0000 0.0000
# 5 0.0000 0.0000 0.0000 0.0000 18.9312 0.3297
# 6 0.0000 0.0000 0.0000 0.0000 0.3297 9.8755
#
#
#
# Elastic Compliance Matrix: (Units=1/GPa)
#
#
# Indices 1 2 3 4 5 6 
#
# 1 0.030151 -0.020509 -0.002911 -0.000882 0.000000 0.000000
# 2 -0.020509 0.030151 -0.002911 0.000882 0.000000 0.000000
# 3 -0.002911 -0.002911 0.013518 0.000000 0.000000 0.000000
# 4 -0.000882 0.000882 0.000000 0.052853 0.000000 0.000000
# 5 0.000000 0.000000 0.000000 0.000000 0.052853 -0.001764
# 6 0.000000 0.000000 0.000000 0.000000 -0.001764 0.101320
#
#
# Mechanical properties :
#
#
# Convention : Reuss Voigt Hill
#
# Bulk Modulus (GPa) = 47.26481 47.35096 47.30788
# Shear Modulus (GPa) = 14.68163 17.74227 16.21195
#
# Velocity S-wave (km/s) = 2.81538 3.09496 2.95848
# Velocity P-wave (km/s) = 6.00716 6.19159 6.10007
#
# Compressibility (1/GPa) = 0.02115739
#
# Stress axis : x y z
#
# Youngs Moduli (GPa) = 33.16633 33.16633 73.97648
#
# Poissons Ratio (x) = 0.68020 0.21536
# Poissons Ratio (y) = 0.68020 0.21536
# Poissons Ratio (z) = 0.09655 0.09655
#
# Static dielectric constant tensor:
#      x y z
#    x 1.648170 0.000000 0.000000 
#    y 0.000000 1.648170 0.000000 
#    z 0.000000 0.000000 1.671800 
# 
# From -- ./inp_files/3561.got.cif
#   From: 2010.05.17/outbox.cif.g08.bks.cpg/sg164_2_cif.got.tgz:3561.got - 2010.05.20 10:58:56.
