data_PCOD9578035
_publ_section_title
;
Structure prediction by ZEFSAII (Michael W. Deem and Ramdas Pophale) SiO2 
 PCOD9578035
Probable space group: P -3 1 C
;
_chemical_formula_sum "Si O2"
_cell_formula_units_Z 66
_cell_length_a 21.046173
_cell_length_b 21.046173
_cell_length_c 8.832670
_cell_angle_alpha 90.000000
_cell_angle_beta 90.000000
_cell_angle_gamma 120.000000
_cell_volume 3388.198990
_symmetry_space_group_name_H-M "P -3 1 C"
_symmetry_group_IT_number 163
_symmetry_cell_setting 'hexagonal'
loop_
_space_group_symop_operation_xyz
x,y,z
-y,x-y,z
-x+y,-x,z
-y,-x,1/2-z
-x+y,y,1/2-z
x,x-y,1/2-z
-x,-y,-z
y,-x+y,-z
x-y,x,-z
y,x,1/2+z
x-y,-y,1/2+z
-x,-x+y,1/2+z
loop_
_atom_site_type_symbol
_atom_site_label
_atom_site_fract_x
_atom_site_fract_y
_atom_site_fract_z
Si Si1 0.385292 0.222539 0.405696
Si Si2 0.050150 0.434823 0.496882
Si Si3 0.881904 0.984536 0.386950
Si Si4 0.008143 0.504072 0.250000
Si Si5 0.232246 0.978452 0.748165
Si Si6 0.728330 0.655405 0.537792
O O1 0.417778 0.208889 0.250000
O O2 0.422598 0.304316 0.470905
O O3 0.306551 0.212077 0.349247
O O4 0.380448 0.159653 0.517005
O O5 0.056063 0.478782 0.345984
O O6 0.040370 0.479092 0.634658
O O7 0.972358 0.356891 0.488608
O O8 0.912393 0.956197 0.250000
O O9 0.867795 0.929717 0.526935
O O10 0.818303 0.989482 0.300458
O O11 0.313667 0.041816 0.702512
O O12 0.233129 0.957772 0.921334
#
# Coordination Sequence:
#
# PCOD9578035 Si02
#       6
#    12  12  12   6  12  12
#     4   9  18  33  55  82 115 147 187 235 284 346
#     4  10  20  36  58  87 122 157 193 239 289 355
#     4  12  25  40  53  66  89 131 197 256 308 348
#     4  10  20  36  58  82 122 156 190 232 290 350
#     4  10  20  34  53  75 104 145 178 234 298 358
#     4  10  19  34  55  83 117 146 185 230 286 346
#
# _framework density 19.479375000000001
#
# number of rings (size 3 to 8) (size 9 to 14) (size 15 to 20)
#    0.000    1.818    0.000    6.182    0.000    4.364 
#    0.000    4.545    0.000    0.000    0.000    0.000 
#   89.091    0.000    0.000    0.000    0.000    0.000 
#
# Total GULP energy -368014.111480 kJ/mol
# GULP energy per Si atom -5575.971386 kJ/mol
# Density = 1.943504 g / cm^3
# Si number density = 19.479375 Si / 1000 Ang^3
#
#
#
# Elastic Constant Matrix: (Units=GPa)
#
#
# Indices 1 2 3 4 5 6 
#
# 1 93.3607 42.5894 31.5461 0.0002 -2.7185 0.0000
# 2 42.5894 93.3607 31.5461 -0.0002 2.7185 0.0000
# 3 31.5461 31.5461 75.9752 0.0000 0.0000 0.0000
# 4 0.0002 -0.0002 0.0000 33.0299 0.0000 2.7185
# 5 -2.7185 2.7185 0.0000 0.0000 33.0299 0.0002
# 6 0.0000 0.0000 0.0000 2.7185 0.0002 25.3856
#
#
#
# Elastic Compliance Matrix: (Units=1/GPa)
#
#
# Indices 1 2 3 4 5 6 
#
# 1 0.014491 -0.005380 -0.003783 0.000000 0.001635 0.000000
# 2 -0.005380 0.014491 -0.003783 0.000000 -0.001635 0.000000
# 3 -0.003783 -0.003783 0.016304 0.000000 0.000000 0.000000
# 4 0.000000 0.000000 0.000000 0.030545 0.000000 -0.003271
# 5 0.001635 -0.001635 0.000000 0.000000 0.030545 0.000000
# 6 0.000000 0.000000 0.000000 -0.003271 0.000000 0.039743
#
#
# Mechanical properties :
#
#
# Convention : Reuss Voigt Hill
#
# Bulk Modulus (GPa) = 51.56275 52.67333 52.11804
# Shear Modulus (GPa) = 28.01493 28.75672 28.38583
#
# Velocity S-wave (km/s) = 3.79645 3.84639 3.82150
# Velocity P-wave (km/s) = 6.76353 6.84292 6.80334
#
# Compressibility (1/GPa) = 0.01939385
#
# Stress axis : x y z
#
# Youngs Moduli (GPa) = 69.00670 69.00670 61.33516
#
# Poissons Ratio (x) = 0.37126 0.23204
# Poissons Ratio (y) = 0.37126 0.23204
# Poissons Ratio (z) = 0.26106 0.26106
#
# Static dielectric constant tensor:
#      x y z
#    x 1.717130 0.000000 0.000000 
#    y 0.000000 1.717130 0.000000 
#    z 0.000000 0.000000 1.749500 
# 
# From -- ./inp_files/1149.got.cif
#   From: 2010.05.17/outbox.cif.g08.bks.cpg/sg163_1_cif.got.tgz:1149.got - 2010.05.20 10:56:03.
