data_PCOD9578051
_publ_section_title
;
Structure prediction by ZEFSAII (Michael W. Deem and Ramdas Pophale) SiO2 
 PCOD9578051
Probable space group: P -3 1 C
;
_chemical_formula_sum "Si O2"
_cell_formula_units_Z 72
_cell_length_a 14.963436
_cell_length_b 14.963436
_cell_length_c 16.827868
_cell_angle_alpha 90.000000
_cell_angle_beta 90.000000
_cell_angle_gamma 120.000000
_cell_volume 3263.039938
_symmetry_space_group_name_H-M "P -3 1 C"
_symmetry_group_IT_number 163
_symmetry_cell_setting 'hexagonal'
loop_
_space_group_symop_operation_xyz
x,y,z
-y,x-y,z
-x+y,-x,z
-y,-x,1/2-z
-x+y,y,1/2-z
x,x-y,1/2-z
-x,-y,-z
y,-x+y,-z
x-y,x,-z
y,x,1/2+z
x-y,-y,1/2+z
-x,-x+y,1/2+z
loop_
_atom_site_type_symbol
_atom_site_label
_atom_site_fract_x
_atom_site_fract_y
_atom_site_fract_z
Si Si1 0.898385 0.436864 0.889512
Si Si2 0.328220 0.833933 0.795102
Si Si3 0.041587 0.219208 0.968508
Si Si4 0.651277 0.542619 0.464392
Si Si5 0.069660 0.411918 0.253754
Si Si6 0.001210 0.814562 0.218643
O O1 0.910373 0.523239 0.825817
O O2 0.860577 0.338944 0.829409
O O3 0.002670 0.449815 0.930810
O O4 0.846713 0.460073 0.964433
O O5 0.221763 0.778238 0.750000
O O6 0.399694 0.799388 0.750000
O O7 0.312976 0.816190 0.888570
O O8 0.382237 0.954921 0.780127
O O9 0.079532 0.340095 0.986622
O O10 0.007023 0.200175 0.876112
O O11 0.136352 0.197515 0.983697
O O12 0.056392 0.300860 0.244317
O O13 0.070159 0.929842 0.250000
O O14 0.887630 0.775259 0.250000
#
# Coordination Sequence:
#
# PCOD9578051 Si02
#       6
#    12  12  12  12  12  12
#     4   9  18  37  63  94 123 154 215 273 335 394
#     4  11  20  37  59  93 128 163 203 258 337 405
#     4  12  27  45  63  95 136 181 227 291 344 402
#     4  10  21  38  64  94 124 167 211 271 336 407
#     4  10  19  39  67  91 126 166 214 283 336 405
#     4  12  26  44  67  96 131 185 238 288 340 404
#
# _framework density 22.065314999999998
#
# number of rings (size 3 to 8) (size 9 to 14) (size 15 to 20)
#    0.000    1.333    6.667    2.000    4.667    0.000 
#    0.000    0.000    0.000    0.000    0.000    0.000 
#    6.667    0.000    0.000    0.000    0.000    0.000 
#
# Total GULP energy -401073.367578 kJ/mol
# GULP energy per Si atom -5570.463439 kJ/mol
# Density = 2.201509 g / cm^3
# Si number density = 22.065315 Si / 1000 Ang^3
#
#
#
# Elastic Constant Matrix: (Units=GPa)
#
#
# Indices 1 2 3 4 5 6 
#
# 1 70.4361 48.3625 14.5355 -0.0030 0.1177 0.0000
# 2 48.3625 70.4361 14.5355 0.0030 -0.1177 0.0000
# 3 14.5355 14.5355 76.1189 0.0000 0.0000 0.0000
# 4 -0.0030 0.0030 0.0000 40.9483 0.0000 -0.1177
# 5 0.1177 -0.1177 0.0000 0.0000 40.9483 -0.0030
# 6 0.0000 0.0000 0.0000 -0.1177 -0.0030 11.0368
#
#
#
# Elastic Compliance Matrix: (Units=1/GPa)
#
#
# Indices 1 2 3 4 5 6 
#
# 1 0.027067 -0.018237 -0.001686 0.000003 -0.000130 0.000000
# 2 -0.018237 0.027067 -0.001686 -0.000003 0.000130 0.000000
# 3 -0.001686 -0.001686 0.013781 0.000000 0.000000 0.000000
# 4 0.000003 -0.000003 0.000000 0.024422 0.000000 0.000260
# 5 -0.000130 0.000130 0.000000 0.000000 0.024422 0.000007
# 6 0.000000 0.000000 0.000000 0.000260 0.000007 0.090609
#
#
# Mechanical properties :
#
#
# Convention : Reuss Voigt Hill
#
# Bulk Modulus (GPa) = 40.49078 41.31758 40.90418
# Shear Modulus (GPa) = 19.31844 27.89050 23.60447
#
# Velocity S-wave (km/s) = 2.96211 3.55913 3.27426
# Velocity P-wave (km/s) = 5.48535 5.97124 5.73344
#
# Compressibility (1/GPa) = 0.02469698
#
# Stress axis : x y z
#
# Youngs Moduli (GPa) = 36.94485 36.94485 72.56193
#
# Poissons Ratio (x) = 0.67377 0.12235
# Poissons Ratio (y) = 0.67377 0.12235
# Poissons Ratio (z) = 0.06230 0.06230
#
# Static dielectric constant tensor:
#      x y z
#    x 1.890340 0.000000 0.000000 
#    y 0.000000 1.890340 0.000000 
#    z 0.000000 0.000000 1.834150 
# 
# From -- ./inp_files/3129.got.cif
#   From: 2010.05.17/outbox.cif.g08.bks.cpg/sg163_2_cif.got.tgz:3129.got - 2010.05.20 10:56:03.
