data_PCOD9578680
_publ_section_title
;
Structure prediction by ZEFSAII (Michael W. Deem and Ramdas Pophale) SiO2 
 PCOD9578680
Probable space group: P -3 M 1
;
_chemical_formula_sum "Si O2"
_cell_formula_units_Z 54
_cell_length_a 17.654482
_cell_length_b 17.654482
_cell_length_c 12.864340
_cell_angle_alpha 90.000000
_cell_angle_beta 90.000000
_cell_angle_gamma 120.000000
_cell_volume 3472.386830
_symmetry_space_group_name_H-M "P -3 M 1"
_symmetry_group_IT_number 164
_symmetry_cell_setting 'hexagonal'
loop_
_space_group_symop_operation_xyz
x,y,z
-y,x-y,z
-x+y,-x,z
x-y,-y,-z
-x,-x+y,-z
y,x,-z
-x,-y,-z
y,-x+y,-z
x-y,x,-z
-x+y,y,z
x,x-y,z
-y,-x,z
loop_
_atom_site_type_symbol
_atom_site_label
_atom_site_fract_x
_atom_site_fract_y
_atom_site_fract_z
Si Si1 0.844237 0.334019 0.996187
Si Si2 0.297812 0.238375 0.296197
Si Si3 0.758716 0.061089 0.904245
Si Si4 0.333866 0.490192 0.756812
Si Si5 0.819411 0.000000 0.500000
O O1 0.853695 0.426847 0.970549
O O2 0.744666 0.255335 0.981153
O O3 0.906107 0.309930 0.930615
O O4 0.863158 0.333551 0.119560
O O5 0.291105 0.145553 0.268969
O O6 0.262049 0.270460 0.202096
O O7 0.401459 0.306224 0.305092
O O8 0.242341 0.223450 0.400035
O O9 0.852953 0.147048 0.901027
O O10 0.751887 0.000000 0.000000
O O11 0.256531 0.513061 0.742520
O O12 0.427118 0.572883 0.730963
O O13 0.914251 0.085750 0.516541
#
# Coordination Sequence:
#
# PCOD9578680 Si02
#       5
#    12  12  12  12   6
#     4   9  17  28  45  70 101 135 168 199 230 271
#     4  10  20  35  52  72  97 125 158 200 248 290
#     4  11  20  31  47  69  98 129 157 191 241 297
#     4   9  16  28  47  73 103 134 165 196 231 275
#     4  10  21  38  59  76  90 116 160 212 255 292
#
# _framework density 15.551263000000001
#
# number of rings (size 3 to 8) (size 9 to 14) (size 15 to 20)
#    0.000    2.222    2.222    1.889    0.000    3.111 
#    0.000    0.556    0.000    5.333    0.000    0.000 
#    0.000    3.556    0.000    0.000    0.000    0.000 
#
# Total GULP energy -301196.294044 kJ/mol
# GULP energy per Si atom -5577.709149 kJ/mol
# Density = 1.551587 g / cm^3
# Si number density = 15.551263 Si / 1000 Ang^3
#
#
#
# Elastic Constant Matrix: (Units=GPa)
#
#
# Indices 1 2 3 4 5 6 
#
# 1 117.7228 79.1457 66.4998 -2.7534 0.0000 0.0000
# 2 79.1457 117.7228 66.4998 2.7534 0.0000 0.0000
# 3 66.4998 66.4998 76.3637 0.0000 0.0000 0.0000
# 4 -2.7534 2.7534 0.0000 23.0613 0.0000 0.0000
# 5 0.0000 0.0000 0.0000 0.0000 23.0613 -2.7534
# 6 0.0000 0.0000 0.0000 0.0000 -2.7534 19.2886
#
#
#
# Elastic Compliance Matrix: (Units=1/GPa)
#
#
# Indices 1 2 3 4 5 6 
#
# 1 0.019355 -0.007017 -0.010745 0.003149 0.000000 0.000000
# 2 -0.007017 0.019355 -0.010745 -0.003149 0.000000 0.000000
# 3 -0.010745 -0.010745 0.031809 0.000000 0.000000 0.000000
# 4 0.003149 -0.003149 0.000000 0.044114 0.000000 0.000000
# 5 0.000000 0.000000 0.000000 0.000000 0.044114 0.006297
# 6 0.000000 0.000000 0.000000 0.000000 0.006297 0.052743
#
#
# Mechanical properties :
#
#
# Convention : Reuss Voigt Hill
#
# Bulk Modulus (GPa) = 74.03598 81.78890 77.91244
# Shear Modulus (GPa) = 18.31473 19.72652 19.02063
#
# Velocity S-wave (km/s) = 3.43549 3.56544 3.50107
# Velocity P-wave (km/s) = 7.96541 8.34608 8.15797
#
# Compressibility (1/GPa) = 0.01350695
#
# Stress axis : x y z
#
# Youngs Moduli (GPa) = 51.66644 51.66644 31.43803
#
# Poissons Ratio (x) = 0.36252 0.33779
# Poissons Ratio (y) = 0.36252 0.33779
# Poissons Ratio (z) = 0.55513 0.55513
#
# Static dielectric constant tensor:
#      x y z
#    x 1.520680 0.000000 0.000000 
#    y 0.000000 1.520680 0.000000 
#    z 0.000000 0.000000 1.485650 
# 
# From -- ./inp_files/2581.got.cif
#   From: 2010.05.17/outbox.cif.g08.bks.cpg/sg164_2_cif.got.tgz:2581.got - 2010.05.20 10:58:56.
