data_PCOD9578348
_publ_section_title
;
Structure prediction by ZEFSAII (Michael W. Deem and Ramdas Pophale) SiO2 
 PCOD9578348
Probable space group: P -3 M 1
;
_chemical_formula_sum "Si O2"
_cell_formula_units_Z 96
_cell_length_a 21.426888
_cell_length_b 21.426888
_cell_length_c 17.855490
_cell_angle_alpha 90.000000
_cell_angle_beta 90.000000
_cell_angle_gamma 120.000000
_cell_volume 7099.382956
_symmetry_space_group_name_H-M "P -3 M 1"
_symmetry_group_IT_number 164
_symmetry_cell_setting 'hexagonal'
loop_
_space_group_symop_operation_xyz
x,y,z
-y,x-y,z
-x+y,-x,z
x-y,-y,-z
-x,-x+y,-z
y,x,-z
-x,-y,-z
y,-x+y,-z
x-y,x,-z
-x+y,y,z
x,x-y,z
-y,-x,z
loop_
_atom_site_type_symbol
_atom_site_label
_atom_site_fract_x
_atom_site_fract_y
_atom_site_fract_z
Si Si1 0.999717 0.146296 0.589215
Si Si2 0.188386 0.521305 0.028271
Si Si3 0.932296 0.725207 0.046119
Si Si4 0.140613 0.001268 0.153048
Si Si5 0.522538 0.189061 0.149534
Si Si6 0.696035 0.067782 0.178781
Si Si7 0.946502 0.200734 0.285372
Si Si8 0.410359 0.967836 0.083730
O O1 0.923527 0.076474 0.609723
O O2 0.000000 0.157186 0.500000
O O3 0.065530 0.131060 0.605755
O O4 0.018315 0.217757 0.635786
O O5 0.255661 0.511321 0.045909
O O6 0.207486 0.603743 0.039466
O O7 0.171757 0.506778 0.939416
O O8 0.116841 0.471218 0.074621
O O9 0.856491 0.712981 0.011651
O O10 0.970341 0.803456 0.085042
O O11 0.912872 0.667943 0.112764
O O12 0.000000 0.731037 0.000000
O O13 0.107928 0.053964 0.158853
O O14 0.188739 0.014618 0.226290
O O15 0.079833 0.920168 0.143569
O O16 0.589219 0.178438 0.169195
O O17 0.542676 0.271338 0.158837
O O18 0.449828 0.136222 0.192405
O O19 0.727370 0.047276 0.250571
O O20 0.621159 0.006397 0.143307
O O21 0.862505 0.137496 0.286190
O O22 0.488914 0.977827 0.102621
O O23 0.418639 0.000000 0.000000
#
# Coordination Sequence:
#
# PCOD9578348 Si02
#       8
#    12  12  12  12  12  12  12  12
#     4   9  16  27  45  67  88 110 139 177 217 252
#     4   9  17  28  42  58  76  97 127 169 217 258
#     4  10  20  30  38  48  64  90 128 168 201 233
#     4   9  16  26  38  50  65  89 123 164 205 237
#     4  10  18  28  43  60  77  96 125 165 208 249
#     4  11  19  30  41  56  77 109 133 157 198 249
#     4   9  18  29  39  55  81 107 133 161 195 246
#     4  10  18  30  43  59  80 103 137 180 217 249
#
# _framework density 13.522302
#
# number of rings (size 3 to 8) (size 9 to 14) (size 15 to 20)
#    0.000    2.375    1.250    3.875    0.000    1.500 
#    0.000    4.375    0.000    2.000    0.000    0.000 
#    0.000    2.000    0.000    0.000    0.000    0.000 
#
# Total GULP energy -534902.061873 kJ/mol
# GULP energy per Si atom -5571.896478 kJ/mol
# Density = 1.349152 g / cm^3
# Si number density = 13.522302 Si / 1000 Ang^3
#
#
#
# Elastic Constant Matrix: (Units=GPa)
#
#
# Indices 1 2 3 4 5 6 
#
# 1 75.4103 42.5414 22.0277 -0.1398 0.0000 0.0000
# 2 42.5414 75.4103 22.0277 0.1398 0.0000 0.0000
# 3 22.0277 22.0277 35.1048 0.0000 0.0000 0.0000
# 4 -0.1398 0.1398 0.0000 15.6535 0.0000 0.0000
# 5 0.0000 0.0000 0.0000 0.0000 15.6535 -0.1398
# 6 0.0000 0.0000 0.0000 0.0000 -0.1398 16.4345
#
#
#
# Elastic Compliance Matrix: (Units=1/GPa)
#
#
# Indices 1 2 3 4 5 6 
#
# 1 0.020750 -0.009676 -0.006948 0.000272 0.000000 0.000000
# 2 -0.009676 0.020750 -0.006948 -0.000272 0.000000 0.000000
# 3 -0.006948 -0.006948 0.037206 0.000000 0.000000 0.000000
# 4 0.000272 -0.000272 0.000000 0.063888 0.000000 0.000000
# 5 0.000000 0.000000 0.000000 0.000000 0.063888 0.000543
# 6 0.000000 0.000000 0.000000 0.000000 0.000543 0.060852
#
#
# Mechanical properties :
#
#
# Convention : Reuss Voigt Hill
#
# Bulk Modulus (GPa) = 31.68630 39.90211 35.79421
# Shear Modulus (GPa) = 15.38461 16.17022 15.77741
#
# Velocity S-wave (km/s) = 3.37667 3.46181 3.41951
# Velocity P-wave (km/s) = 6.21981 6.74917 6.48989
#
# Compressibility (1/GPa) = 0.03155938
#
# Stress axis : x y z
#
# Youngs Moduli (GPa) = 48.19345 48.19345 26.87731
#
# Poissons Ratio (x) = 0.46634 0.18675
# Poissons Ratio (y) = 0.46634 0.18675
# Poissons Ratio (z) = 0.33486 0.33486
#
# Static dielectric constant tensor:
#      x y z
#    x 1.466310 0.000000 0.000000 
#    y 0.000000 1.466310 0.000000 
#    z 0.000000 0.000000 1.436430 
# 
# From -- ./inp_files/4299.got.cif
#   From: 2010.05.17/outbox.cif.g08.bks.cpg/sg164_3_cif.got.tgz:4299.got - 2010.05.20 10:58:56.
