data_PCOD9578546
_publ_section_title
;
Structure prediction by ZEFSAII (Michael W. Deem and Ramdas Pophale) SiO2 
 PCOD9578546
Probable space group: P -3 M 1
;
_chemical_formula_sum "Si O2"
_cell_formula_units_Z 66
_cell_length_a 13.019911
_cell_length_b 13.019911
_cell_length_c 28.481113
_cell_angle_alpha 90.000000
_cell_angle_beta 90.000000
_cell_angle_gamma 120.000000
_cell_volume 4181.225782
_symmetry_space_group_name_H-M "P -3 M 1"
_symmetry_group_IT_number 164
_symmetry_cell_setting 'hexagonal'
loop_
_space_group_symop_operation_xyz
x,y,z
-y,x-y,z
-x+y,-x,z
x-y,-y,-z
-x,-x+y,-z
y,x,-z
-x,-y,-z
y,-x+y,-z
x-y,x,-z
-x+y,y,z
x,x-y,z
-y,-x,z
loop_
_atom_site_type_symbol
_atom_site_label
_atom_site_fract_x
_atom_site_fract_y
_atom_site_fract_z
Si Si1 0.000000 0.244307 0.000000
Si Si2 0.577737 0.666837 0.637676
Si Si3 0.333377 0.424823 0.170772
Si Si4 0.000331 0.757275 0.446234
Si Si5 0.422644 0.332817 0.087108
Si Si6 0.909191 0.333061 0.720821
O O1 0.028257 0.330816 0.955552
O O2 0.116056 0.232111 0.008255
O O3 0.564699 0.782350 0.641685
O O4 0.450637 0.549364 0.633572
O O5 0.657475 0.683822 0.592012
O O6 0.641509 0.652137 0.683533
O O7 0.207297 0.414594 0.160816
O O8 0.438144 0.561857 0.166942
O O9 0.365636 0.352751 0.133989
O O10 0.333370 0.388345 0.224913
O O11 0.892879 0.785757 0.443223
O O12 0.000000 0.717992 0.500000
O O13 0.124718 0.875283 0.437215
O O14 0.443899 0.221950 0.092250
O O15 0.546220 0.453781 0.078181
O O16 0.882148 0.441074 0.716211
O O17 0.790931 0.209070 0.711674
#
# Coordination Sequence:
#
# PCOD9578546 Si02
#       6
#     6  12  12  12  12  12
#     4  10  20  34  52  72  94 122 158 200 244 288
#     4  10  20  32  46  65  92 126 159 189 223 269
#     4   9  17  30  49  72  95 119 149 187 231 275
#     4   9  17  30  49  71  92 115 147 190 238 283
#     4  10  20  33  49  70  97 128 160 193 230 274
#     4   9  17  30  49  71  93 117 148 189 233 273
#
# _framework density 15.784845000000001
#
# number of rings (size 3 to 8) (size 9 to 14) (size 15 to 20)
#    0.000    2.545    0.000    2.364    0.000    3.273 
#    0.000    0.000    0.000    9.091    0.000    0.000 
#    0.000    0.000    0.000    0.000    0.000    0.000 
#
# Total GULP energy -367947.354134 kJ/mol
# GULP energy per Si atom -5574.959911 kJ/mol
# Density = 1.574892 g / cm^3
# Si number density = 15.784845 Si / 1000 Ang^3
#
#
#
# Elastic Constant Matrix: (Units=GPa)
#
#
# Indices 1 2 3 4 5 6 
#
# 1 107.5998 70.1733 84.2998 0.2563 0.0000 0.0000
# 2 70.1733 107.5998 84.2998 -0.2563 0.0000 0.0000
# 3 84.2998 84.2998 119.6940 0.0000 0.0000 0.0000
# 4 0.2563 -0.2563 0.0000 26.0316 0.0000 0.0000
# 5 0.0000 0.0000 0.0000 0.0000 26.0316 0.2563
# 6 0.0000 0.0000 0.0000 0.0000 0.2563 18.7133
#
#
#
# Elastic Compliance Matrix: (Units=1/GPa)
#
#
# Indices 1 2 3 4 5 6 
#
# 1 0.021832 -0.004891 -0.011931 -0.000263 0.000000 0.000000
# 2 -0.004891 0.021832 -0.011931 0.000263 0.000000 0.000000
# 3 -0.011931 -0.011931 0.025161 0.000000 0.000000 0.000000
# 4 -0.000263 0.000263 0.000000 0.038420 0.000000 0.000000
# 5 0.000000 0.000000 0.000000 0.000000 0.038420 -0.000526
# 6 0.000000 0.000000 0.000000 0.000000 -0.000526 0.053445
#
#
# Mechanical properties :
#
#
# Convention : Reuss Voigt Hill
#
# Bulk Modulus (GPa) = 88.36033 90.27102 89.31567
# Shear Modulus (GPa) = 19.20206 20.56335 19.88270
#
# Velocity S-wave (km/s) = 3.49160 3.61325 3.55294
# Velocity P-wave (km/s) = 8.50615 8.64407 8.57539
#
# Compressibility (1/GPa) = 0.01131730
#
# Stress axis : x y z
#
# Youngs Moduli (GPa) = 45.80502 45.80502 39.74430
#
# Poissons Ratio (x) = 0.22403 0.47420
# Poissons Ratio (y) = 0.22403 0.47420
# Poissons Ratio (z) = 0.54651 0.54651
#
# Static dielectric constant tensor:
#      x y z
#    x 1.498490 0.000000 0.000000 
#    y 0.000000 1.498490 0.000000 
#    z 0.000000 0.000000 1.521420 
# 
# From -- ./inp_files/5524.got.cif
#   From: 2010.05.17/outbox.cif.g08.bks.cpg/sg164_3_cif.got.tgz:5524.got - 2010.05.20 10:58:56.
