data_PCOD9578430
_publ_section_title
;
Structure prediction by ZEFSAII (Michael W. Deem and Ramdas Pophale) SiO2 
 PCOD9578430
Probable space group: P -3 M 1
;
_chemical_formula_sum "Si O2"
_cell_formula_units_Z 54
_cell_length_a 17.689679
_cell_length_b 17.689679
_cell_length_c 12.659866
_cell_angle_alpha 90.000000
_cell_angle_beta 90.000000
_cell_angle_gamma 120.000000
_cell_volume 3430.833523
_symmetry_space_group_name_H-M "P -3 M 1"
_symmetry_group_IT_number 164
_symmetry_cell_setting 'hexagonal'
loop_
_space_group_symop_operation_xyz
x,y,z
-y,x-y,z
-x+y,-x,z
x-y,-y,-z
-x,-x+y,-z
y,x,-z
-x,-y,-z
y,-x+y,-z
x-y,x,-z
-x+y,y,z
x,x-y,z
-y,-x,z
loop_
_atom_site_type_symbol
_atom_site_label
_atom_site_fract_x
_atom_site_fract_y
_atom_site_fract_z
Si Si1 0.687273 0.932533 0.404068
Si Si2 0.000000 0.823556 0.000000
Si Si3 0.292250 0.057944 0.209800
Si Si4 0.997339 0.412010 0.125382
Si Si5 0.844533 0.510849 0.719243
O O1 0.702644 0.851322 0.425689
O O2 0.585842 0.890790 0.369698
O O3 0.714701 0.000000 0.500000
O O4 0.742631 0.988581 0.303097
O O5 0.022086 0.784994 0.897720
O O6 0.916527 0.833053 0.976589
O O7 0.300953 0.150477 0.235439
O O8 0.383635 0.062605 0.183986
O O9 0.969995 0.484998 0.143145
O O10 0.093196 0.450794 0.177833
O O11 0.000000 0.399986 0.000000
O O12 0.749387 0.498774 0.738401
O O13 0.839470 0.419735 0.691940
#
# Coordination Sequence:
#
# PCOD9578430 Si02
#       5
#    12   6  12  12  12
#     4  10  20  34  51  71  97 129 165 205 245 290
#     4  10  19  30  45  68  96 124 156 198 247 294
#     4  10  19  31  50  72  94 126 164 201 242 292
#     4   9  17  30  46  69  99 128 158 196 239 286
#     4   9  18  31  50  74 100 129 161 202 249 295
#
# _framework density 15.739617000000001
#
# number of rings (size 3 to 8) (size 9 to 14) (size 15 to 20)
#    0.000    2.444    1.111    1.667    0.000    2.222 
#    0.000    0.000    0.000    5.778    0.000    0.000 
#    0.000    0.000    0.000    0.000    0.000    0.000 
#
# Total GULP energy -300871.197681 kJ/mol
# GULP energy per Si atom -5571.688846 kJ/mol
# Density = 1.570379 g / cm^3
# Si number density = 15.739617 Si / 1000 Ang^3
#
#
#
# Elastic Constant Matrix: (Units=GPa)
#
#
# Indices 1 2 3 4 5 6 
#
# 1 110.4595 70.4805 42.9384 -7.6749 0.0000 0.0000
# 2 70.4805 110.4595 42.9384 7.6749 0.0000 0.0000
# 3 42.9384 42.9384 69.6989 0.0000 0.0000 0.0000
# 4 -7.6749 7.6749 0.0000 20.2856 0.0000 0.0000
# 5 0.0000 0.0000 0.0000 0.0000 20.2856 -7.6749
# 6 0.0000 0.0000 0.0000 0.0000 -7.6749 19.9895
#
#
#
# Elastic Compliance Matrix: (Units=1/GPa)
#
#
# Indices 1 2 3 4 5 6 
#
# 1 0.018537 -0.010727 -0.004812 0.011072 0.000000 0.000000
# 2 -0.010727 0.018537 -0.004812 -0.011072 0.000000 0.000000
# 3 -0.004812 -0.004812 0.020276 0.000000 0.000000 0.000000
# 4 0.011072 -0.011072 0.000000 0.057674 0.000000 0.000000
# 5 0.000000 0.000000 0.000000 0.000000 0.057674 0.022144
# 6 0.000000 0.000000 0.000000 0.000000 0.022144 0.058528
#
#
# Mechanical properties :
#
#
# Convention : Reuss Voigt Hill
#
# Bulk Modulus (GPa) = 60.05958 67.03694 63.54826
# Shear Modulus (GPa) = 18.01950 21.06285 19.54118
#
# Velocity S-wave (km/s) = 3.38723 3.66212 3.52736
# Velocity P-wave (km/s) = 7.31703 7.78236 7.55328
#
# Compressibility (1/GPa) = 0.01665013
#
# Stress axis : x y z
#
# Youngs Moduli (GPa) = 53.94538 53.94538 49.31971
#
# Poissons Ratio (x) = 0.57867 0.23731
# Poissons Ratio (y) = 0.57867 0.23731
# Poissons Ratio (z) = 0.25956 0.25956
#
# Static dielectric constant tensor:
#      x y z
#    x 1.519320 0.000000 0.000000 
#    y 0.000000 1.519320 0.000000 
#    z 0.000000 0.000000 1.514680 
# 
# From -- ./inp_files/2554.got.cif
#   From: 2010.05.17/outbox.cif.g08.bks.cpg/sg164_2_cif.got.tgz:2554.got - 2010.05.20 10:58:56.
