data_PCOD9578204
_publ_section_title
;
Structure prediction by ZEFSAII (Michael W. Deem and Ramdas Pophale) SiO2 
 PCOD9578204
Probable space group: P -3 1 C
;
_chemical_formula_sum "Si O2"
_cell_formula_units_Z 60
_cell_length_a 11.098941
_cell_length_b 11.098941
_cell_length_c 24.956741
_cell_angle_alpha 90.000000
_cell_angle_beta 90.000000
_cell_angle_gamma 120.000000
_cell_volume 2662.450788
_symmetry_space_group_name_H-M "P -3 1 C"
_symmetry_group_IT_number 163
_symmetry_cell_setting 'hexagonal'
loop_
_space_group_symop_operation_xyz
x,y,z
-y,x-y,z
-x+y,-x,z
-y,-x,1/2-z
-x+y,y,1/2-z
x,x-y,1/2-z
-x,-y,-z
y,-x+y,-z
x-y,x,-z
y,x,1/2+z
x-y,-y,1/2+z
-x,-x+y,1/2+z
loop_
_atom_site_type_symbol
_atom_site_label
_atom_site_fract_x
_atom_site_fract_y
_atom_site_fract_z
Si Si1 0.694973 0.607840 0.402770
Si Si2 0.630565 0.598503 0.123767
Si Si3 0.047269 0.379957 0.742426
Si Si4 0.247912 0.305603 0.486340
Si Si5 0.025578 0.853483 0.171357
O O1 0.547085 0.511404 0.376990
O O2 0.809997 0.568464 0.384319
O O3 0.669714 0.586199 0.466218
O O4 0.762228 0.768552 0.383447
O O5 0.642639 0.658921 0.182658
O O6 0.642700 0.693919 0.073004
O O7 0.207905 0.415810 0.750000
O O8 0.043587 0.521794 0.750000
O O9 0.276373 0.250499 0.716151
O O10 0.265220 0.173838 0.500166
O O11 0.885561 0.867176 0.175114
#
# Coordination Sequence:
#
# PCOD9578204 Si02
#       5
#    12  12  12  12  12
#     4  11  22  42  69  97 139 180 241 303 355 428
#     4  11  22  41  64  99 132 183 237 298 361 411
#     4  12  22  41  65 103 144 184 242 303 359 421
#     4  10  24  40  63  98 143 191 238 291 365 441
#     4  10  25  42  64 103 149 190 237 294 370 427
#
# _framework density 22.535627999999999
#
# number of rings (size 3 to 8) (size 9 to 14) (size 15 to 20)
#    0.400    0.800    4.000    1.400    5.600    0.800 
#    7.200    0.000    0.000    0.800    0.000    0.000 
#   26.000    0.000    0.000    0.000    0.000    0.000 
#
# Total GULP energy -334504.916409 kJ/mol
# GULP energy per Si atom -5575.081940 kJ/mol
# Density = 2.248434 g / cm^3
# Si number density = 22.535628 Si / 1000 Ang^3
#
#
#
# Elastic Constant Matrix: (Units=GPa)
#
#
# Indices 1 2 3 4 5 6 
#
# 1 90.1518 13.0502 17.6528 -0.0002 -1.1454 0.0000
# 2 13.0502 90.1518 17.6528 0.0002 1.1454 0.0000
# 3 17.6528 17.6528 167.7288 0.0000 0.0000 0.0000
# 4 -0.0002 0.0002 0.0000 36.9463 0.0000 1.1454
# 5 -1.1454 1.1454 0.0000 0.0000 36.9463 -0.0002
# 6 0.0000 0.0000 0.0000 1.1454 -0.0002 38.5508
#
#
#
# Elastic Compliance Matrix: (Units=1/GPa)
#
#
# Indices 1 2 3 4 5 6 
#
# 1 0.011517 -0.001465 -0.001058 0.000000 0.000402 0.000000
# 2 -0.001465 0.011517 -0.001058 0.000000 -0.000402 0.000000
# 3 -0.001058 -0.001058 0.006185 0.000000 0.000000 0.000000
# 4 0.000000 0.000000 0.000000 0.027091 0.000000 -0.000805
# 5 0.000402 -0.000402 0.000000 0.000000 0.027091 0.000000
# 6 0.000000 0.000000 0.000000 -0.000805 0.000000 0.025964
#
#
# Mechanical properties :
#
#
# Convention : Reuss Voigt Hill
#
# Bulk Modulus (GPa) = 45.33835 49.41601 47.37718
# Shear Modulus (GPa) = 40.36216 42.46710 41.41463
#
# Velocity S-wave (km/s) = 4.23666 4.34573 4.29154
# Velocity P-wave (km/s) = 6.64037 6.86702 6.75465
#
# Compressibility (1/GPa) = 0.02205638
#
# Stress axis : x y z
#
# Youngs Moduli (GPa) = 86.83002 86.83002 161.68973
#
# Poissons Ratio (x) = 0.12722 0.17105
# Poissons Ratio (y) = 0.12722 0.17105
# Poissons Ratio (z) = 0.09186 0.09186
#
# Static dielectric constant tensor:
#      x y z
#    x 1.841360 0.000000 0.000000 
#    y 0.000000 1.841360 0.000000 
#    z 0.000000 0.000000 1.977180 
# 
# From -- ./inp_files/4107.got.cif
#   From: 2010.05.17/outbox.cif.g08.bks.cpg/sg163_3_cif.got.tgz:4107.got - 2010.05.20 10:56:03.
