data_PCOD9578859
_publ_section_title
;
Structure prediction by ZEFSAII (Michael W. Deem and Ramdas Pophale) SiO2 
 PCOD9578859
Probable space group: P -3 C 1
;
_chemical_formula_sum "Si O2"
_cell_formula_units_Z 72
_cell_length_a 14.872222
_cell_length_b 14.872222
_cell_length_c 17.831616
_cell_angle_alpha 90.000000
_cell_angle_beta 90.000000
_cell_angle_gamma 120.000000
_cell_volume 3415.647575
_symmetry_space_group_name_H-M "P -3 C 1"
_symmetry_group_IT_number 165
_symmetry_cell_setting 'hexagonal'
loop_
_space_group_symop_operation_xyz
x,y,z
-y,x-y,z
-x+y,-x,z
x-y,-y,1/2-z
-x,-x+y,1/2-z
y,x,1/2-z
-x,-y,-z
y,-x+y,-z
x-y,x,-z
-x+y,y,1/2+z
x,x-y,1/2+z
-y,-x,1/2+z
loop_
_atom_site_type_symbol
_atom_site_label
_atom_site_fract_x
_atom_site_fract_y
_atom_site_fract_z
Si Si1 0.771481 0.932442 0.017168
Si Si2 0.548367 0.067316 0.320061
Si Si3 0.771668 0.206360 0.580405
Si Si4 0.927783 0.679321 0.325419
Si Si5 0.875797 0.283501 0.250167
Si Si6 0.091680 0.549667 0.440460
O O1 0.748114 0.962904 0.099452
O O2 0.816117 0.854116 0.023446
O O3 0.667255 0.870161 0.967214
O O4 0.660291 0.096908 0.351129
O O5 0.516023 0.149143 0.291299
O O6 0.544755 0.000000 0.250000
O O7 0.460740 0.977399 0.370308
O O8 0.756488 0.178825 0.669347
O O9 0.858192 0.327098 0.570099
O O10 0.659491 0.182749 0.550294
O O11 0.816110 0.658035 0.300667
O O12 0.000000 0.725367 0.250000
O O13 0.000000 0.345019 0.250000
O O14 0.000000 0.500000 0.500000
#
# Coordination Sequence:
#
# PCOD9578859 Si02
#       6
#    12  12  12  12  12  12
#     4  12  26  47  73 103 142 189 245 308 375 437
#     4  10  20  42  63  96 136 177 226 294 349 422
#     4  12  24  43  69 106 141 196 241 297 377 440
#     4  11  24  43  70 102 139 186 240 293 363 439
#     4  11  22  40  70  99 141 184 240 294 362 433
#     4  12  25  43  69 100 148 189 242 301 364 454
#
# _framework density 21.079457999999999
#
# number of rings (size 3 to 8) (size 9 to 14) (size 15 to 20)
#    0.000    0.667    3.333    7.500    2.333    0.000 
#    1.000    0.000    0.000    0.333    0.000    0.000 
#    0.000    0.000    0.000    0.000    0.000    0.000 
#
# Total GULP energy -401274.810019 kJ/mol
# GULP energy per Si atom -5573.261250 kJ/mol
# Density = 2.103148 g / cm^3
# Si number density = 21.079458 Si / 1000 Ang^3
#
#
#
# Elastic Constant Matrix: (Units=GPa)
#
#
# Indices 1 2 3 4 5 6 
#
# 1 -25.3770 163.1477 38.6602 -18.5996 0.0000 0.0000
# 2 163.1477 -25.3770 38.6602 18.5996 0.0000 0.0000
# 3 38.6602 38.6602 92.4254 0.0000 0.0000 0.0000
# 4 -18.5996 18.5996 0.0000 29.2881 0.0000 0.0000
# 5 0.0000 0.0000 0.0000 0.0000 29.2881 -18.5996
# 6 0.0000 0.0000 0.0000 0.0000 -18.5996 -94.2624
#
#
#
# Elastic Compliance Matrix: (Units=1/GPa)
#
#
# Indices 1 2 3 4 5 6 
#
# 1 0.002386 0.007099 -0.003967 -0.002993 0.000000 0.000000
# 2 0.007099 0.002386 -0.003967 0.002993 0.000000 0.000000
# 3 -0.003967 -0.003967 0.014139 0.000000 0.000000 0.000000
# 4 -0.002993 0.002993 0.000000 0.030342 0.000000 0.000000
# 5 0.000000 0.000000 0.000000 0.000000 0.030342 -0.005987
# 6 0.000000 0.000000 0.000000 0.000000 -0.005987 -0.009427
#
#
# Mechanical properties :
#
#
# Convention : Reuss Voigt Hill
#
# Bulk Modulus (GPa) = 58.00841 58.06754 58.03798
# Shear Modulus (GPa) = 64.44708 -20.39032 22.02838
#
# Velocity S-wave (km/s) = 5.53532 -3.11353 3.23618
# Velocity P-wave (km/s) = 8.27235 3.83162 6.44644
#
# Compressibility (1/GPa) = 0.01723888
#
# Stress axis : x y z
#
# Youngs Moduli (GPa) = 419.16500 419.16500 70.72836
#
# Poissons Ratio (x) = -2.97581 0.28061
# Poissons Ratio (y) = -2.97581 0.28061
# Poissons Ratio (z) = 1.66302 1.66302
#
# Static dielectric constant tensor:
#      x y z
#    x 1.796650 0.000000 0.000000 
#    y 0.000000 1.796650 0.000000 
#    z 0.000000 0.000000 1.754350 
# 
# From -- ./inp_files/2268.got.cif
#   From: 2010.05.17/outbox.cif.g08.bks.cpg/sg165_2_cif.got.tgz:2268.got - 2010.05.20 11:02:39.
