data_PCOD9578749
_publ_section_title
;
Structure prediction by ZEFSAII (Michael W. Deem and Ramdas Pophale) SiO2 
 PCOD9578749
Probable space group: P -3 M 1
;
_chemical_formula_sum "Si O2"
_cell_formula_units_Z 84
_cell_length_a 21.000000
_cell_length_b 21.000000
_cell_length_c 12.000000
_cell_angle_alpha 90.000000
_cell_angle_beta 90.000000
_cell_angle_gamma 120.000000
_cell_volume 4583.006437
_symmetry_space_group_name_H-M "P -3 M 1"
_symmetry_group_IT_number 164
_symmetry_cell_setting 'hexagonal'
loop_
_space_group_symop_operation_xyz
x,y,z
-y,x-y,z
-x+y,-x,z
x-y,-y,-z
-x,-x+y,-z
y,x,-z
-x,-y,-z
y,-x+y,-z
x-y,x,-z
-x+y,y,z
x,x-y,z
-y,-x,z
loop_
_atom_site_type_symbol
_atom_site_label
_atom_site_fract_x
_atom_site_fract_y
_atom_site_fract_z
Si Si1 0.927188 0.222813 0.236252
Si Si2 0.184979 0.667470 0.423228
Si Si3 0.624078 0.735743 0.533006
Si Si4 0.667338 0.483275 0.051308
Si Si5 0.365203 0.482076 0.189436
Si Si6 0.638773 0.605384 0.120448
Si Si7 0.233062 0.190429 0.607337
O O1 0.852951 0.147050 0.215874
O O2 0.914333 0.263424 0.342347
O O3 0.950857 0.278742 0.135085
O O4 0.990953 0.210768 0.286050
O O5 0.183988 0.591994 0.431935
O O6 0.265461 0.734540 0.449273
O O7 0.124534 0.669928 0.501631
O O8 0.163978 0.676066 0.296982
O O9 0.617907 0.808954 0.527024
O O10 0.685346 0.751761 0.439520
O O11 0.744408 0.488816 0.081875
O O12 0.600721 0.399280 0.051069
O O13 0.673089 0.515872 0.926159
O O14 0.644393 0.531920 0.127967
O O15 0.444823 0.555178 0.185566
O O16 0.379400 0.413809 0.199020
O O17 0.605442 0.605442 0.000000
O O18 0.183625 0.183625 0.500000
O O19 0.230866 0.115433 0.629928
#
# Coordination Sequence:
#
# PCOD9578749 Si02
#       7
#    12  12  12  12  12  12  12
#     4  10  19  33  52  73 100 130 161 197 238 287
#     4  10  18  29  45  68  98 130 166 205 249 298
#     4   8  16  29  46  67  93 127 160 192 232 282
#     4  10  19  32  50  72  98 127 163 206 257 310
#     4   9  18  31  47  67  93 125 161 205 254 302
#     4  10  20  34  51  71  95 128 168 213 257 294
#     4   9  16  29  51  77 102 128 160 199 245 296
#
# _framework density 18.328579999999999
#
# number of rings (size 3 to 8) (size 9 to 14) (size 15 to 20)
#    0.000    2.571    0.000    3.714    0.000    1.714 
#    0.000    6.429    0.000    8.143    0.000    2.000 
#    0.000    0.571    0.000    0.000    0.000    0.000 
#
# Total GULP energy -467692.255056 kJ/mol
# GULP energy per Si atom -5567.764941 kJ/mol
# Density = 1.828686 g / cm^3
# Si number density = 18.328580 Si / 1000 Ang^3
#
#
#
# Elastic Constant Matrix: (Units=GPa)
#
#
# Indices 1 2 3 4 5 6 
#
# 1 72.5541 36.2006 2.0656 11.6777 0.0000 0.0000
# 2 36.2006 72.5541 2.0656 -11.6777 0.0000 0.0000
# 3 2.0656 2.0656 -10.0043 0.0000 0.0000 0.0000
# 4 11.6777 -11.6777 0.0000 -0.2995 0.0000 0.0000
# 5 0.0000 0.0000 0.0000 0.0000 -0.2995 11.6777
# 6 0.0000 0.0000 0.0000 0.0000 11.6777 18.1767
#
#
#
# Elastic Compliance Matrix: (Units=1/GPa)
#
#
# Indices 1 2 3 4 5 6 
#
# 1 0.005090 0.004034 0.001884 0.041173 0.000000 0.000000
# 2 0.004034 0.005090 0.001884 -0.041173 0.000000 0.000000
# 3 0.001884 0.001884 -0.099179 0.000000 0.000000 0.000000
# 4 0.041173 -0.041173 0.000000 -0.128174 0.000000 0.000000
# 5 0.000000 0.000000 0.000000 0.000000 -0.128174 0.082346
# 6 0.000000 0.000000 0.000000 0.000000 0.082346 0.002112
#
#
# Mechanical properties :
#
#
# Convention : Reuss Voigt Hill
#
# Bulk Modulus (GPa) = -13.62444 23.97417 5.17487
# Shear Modulus (GPa) = -13.04444 9.83369 -1.60537
#
# Velocity S-wave (km/s) = -2.67066 2.31881 -0.93690
# Velocity P-wave (km/s) = 4.11819 4.50308 1.28807
#
# Compressibility (1/GPa) = -0.07339751
#
# Stress axis : x y z
#
# Youngs Moduli (GPa) = 196.47611 196.47611 -10.08274
#
# Poissons Ratio (x) = -0.79254 0.01899
# Poissons Ratio (y) = -0.79254 0.01899
# Poissons Ratio (z) = -0.37011 -0.37011
#
# Static dielectric constant tensor:
#      x y z
#    x 1.644260 0.000000 0.000000 
#    y 0.000000 1.644260 0.000000 
#    z 0.000000 0.000000 1.687400 
# 
# From -- ./inp_files/2892.got.cif
#   From: 2010.05.17/outbox.ucp.g08.bks.cvg/sg164_2_cif.got.tgz:2892.got - 2010.06.11 15:16:10.
