data_PCOD9578739
_publ_section_title
;
Structure prediction by ZEFSAII (Michael W. Deem and Ramdas Pophale) SiO2 
 PCOD9578739
Probable space group: P -3 M 1
;
_chemical_formula_sum "Si O2"
_cell_formula_units_Z 60
_cell_length_a 18.181388
_cell_length_b 18.181388
_cell_length_c 11.910621
_cell_angle_alpha 90.000000
_cell_angle_beta 90.000000
_cell_angle_gamma 120.000000
_cell_volume 3409.723063
_symmetry_space_group_name_H-M "P -3 M 1"
_symmetry_group_IT_number 164
_symmetry_cell_setting 'hexagonal'
loop_
_space_group_symop_operation_xyz
x,y,z
-y,x-y,z
-x+y,-x,z
x-y,-y,-z
-x,-x+y,-z
y,x,-z
-x,-y,-z
y,-x+y,-z
x-y,x,-z
-x+y,y,z
x,x-y,z
-y,-x,z
loop_
_atom_site_type_symbol
_atom_site_label
_atom_site_fract_x
_atom_site_fract_y
_atom_site_fract_z
Si Si1 0.903037 0.540461 0.500000
Si Si2 1.000000 0.658424 0.865435
Si Si3 0.161664 0.492523 0.745785
Si Si4 0.000000 0.829910 0.136629
Si Si5 0.161664 0.492523 0.254215
O O1 0.907356 0.453678 0.500000
O O2 0.857306 0.537139 0.384347
O O3 0.857306 0.537139 0.615653
O O4 0.000000 0.616691 0.500000
O O5 0.083092 0.660217 0.817149
O O6 0.999999 0.744370 0.830596
O O7 0.916908 0.577125 0.817150
O O8 0.000000 0.655220 0.000000
O O9 0.249513 0.499025 0.780952
O O10 0.166357 0.583179 0.754200
O O11 0.085266 0.914734 0.173497
O O12 0.914734 0.829467 0.173497
O O13 0.000000 0.831302 0.000000
O O14 0.249513 0.499025 0.219048
O O15 0.166357 0.583179 0.245801
#
# Coordination Sequence:
#
# PCOD9578739 Si02
#       5
#    12  12  12  12  12
#     4   9  17  34  58  83 108 138 176 223 282 341
#     4  11  23  38  55  77 111 155 194 230 278 336
#     4  11  22  37  58  83 112 145 186 235 286 339
#     4   9  17  31  52  77 103 132 172 223 276 327
#     4  11  22  37  58  83 112 145 186 235 286 339
#
# _framework density 17.596737000000001
#
# number of rings (size 3 to 8) (size 9 to 14) (size 15 to 20)
#    0.000    1.800    2.000    3.000    0.000    4.800 
#    0.000    2.000    0.000    2.400    0.000    0.000 
#    0.000    0.000    0.000    8.600    0.000    3.800 
#
# Total GULP energy -334864.773975 kJ/mol
# GULP energy per Si atom -5581.079566 kJ/mol
# Density = 1.755669 g / cm^3
# Si number density = 17.596737 Si / 1000 Ang^3
#
#
#
# Elastic Constant Matrix: (Units=GPa)
#
#
# Indices 1 2 3 4 5 6 
#
# 1 160.8231 93.5173 45.6798 0.0000 0.0000 0.0000
# 2 93.5173 160.8231 45.6798 0.0000 0.0000 0.0000
# 3 45.6798 45.6798 72.0029 0.0000 0.0000 0.0000
# 4 0.0000 0.0000 0.0000 16.5160 0.0000 0.0000
# 5 0.0000 0.0000 0.0000 0.0000 16.5160 0.0000
# 6 0.0000 0.0000 0.0000 0.0000 0.0000 33.6529
#
#
#
# Elastic Compliance Matrix: (Units=1/GPa)
#
#
# Indices 1 2 3 4 5 6 
#
# 1 0.009975 -0.004883 -0.003231 0.000000 0.000000 0.000000
# 2 -0.004883 0.009975 -0.003231 0.000000 0.000000 0.000000
# 3 -0.003231 -0.003231 0.017987 0.000000 0.000000 0.000000
# 4 0.000000 0.000000 0.000000 0.060547 0.000000 0.000000
# 5 0.000000 0.000000 0.000000 0.000000 0.060547 0.000000
# 6 0.000000 0.000000 0.000000 0.000000 0.000000 0.029715
#
#
# Mechanical properties :
#
#
# Convention : Reuss Voigt Hill
#
# Bulk Modulus (GPa) = 65.57598 84.82253 75.19926
# Shear Modulus (GPa) = 23.09280 27.25512 25.17396
#
# Velocity S-wave (km/s) = 3.62655 3.93984 3.78644
# Velocity P-wave (km/s) = 7.40828 8.30691 7.87043
#
# Compressibility (1/GPa) = 0.01524949
#
# Stress axis : x y z
#
# Youngs Moduli (GPa) = 100.25199 100.25199 55.59461
#
# Poissons Ratio (x) = 0.48950 0.17960
# Poissons Ratio (y) = 0.48950 0.17960
# Poissons Ratio (z) = 0.32387 0.32387
#
# Static dielectric constant tensor:
#      x y z
#    x 1.585380 0.000000 0.000000 
#    y 0.000000 1.585380 0.000000 
#    z 0.000000 0.000000 1.596160 
# 
# From -- ./inp_files/2719.got.cif
#   From: 2010.05.17/outbox.cif.g08.bks.cpg/sg164_2_cif.got.tgz:2719.got - 2010.05.20 10:58:56.
