data_PCOD9578884
_publ_section_title
;
Structure prediction by ZEFSAII (Michael W. Deem and Ramdas Pophale) SiO2 
 PCOD9578884
Probable space group: P -3 C 1
;
_chemical_formula_sum "Si O2"
_cell_formula_units_Z 74
_cell_length_a 14.375932
_cell_length_b 14.375932
_cell_length_c 17.653619
_cell_angle_alpha 90.000000
_cell_angle_beta 90.000000
_cell_angle_gamma 120.000000
_cell_volume 3159.631252
_symmetry_space_group_name_H-M "P -3 C 1"
_symmetry_group_IT_number 165
_symmetry_cell_setting 'hexagonal'
loop_
_space_group_symop_operation_xyz
x,y,z
-y,x-y,z
-x+y,-x,z
x-y,-y,1/2-z
-x,-x+y,1/2-z
y,x,1/2-z
-x,-y,-z
y,-x+y,-z
x-y,x,-z
-x+y,y,1/2+z
x,x-y,1/2+z
-y,-x,1/2+z
loop_
_atom_site_type_symbol
_atom_site_label
_atom_site_fract_x
_atom_site_fract_y
_atom_site_fract_z
Si Si1 0.666667 0.333333 0.073095
Si Si2 0.214043 0.322004 0.642441
Si Si3 0.835750 0.759840 0.512664
Si Si4 0.876750 0.000000 0.750000
Si Si5 0.667205 0.122223 0.405540
Si Si6 0.451369 0.997732 0.167192
Si Si7 0.333334 0.666668 0.608825
Si Si8 0.255762 0.820394 0.419022
O O1 0.666668 0.333334 0.982528
O O2 0.543937 0.292021 0.095479
O O3 0.241032 0.312442 0.554951
O O4 0.176743 0.208724 0.682331
O O5 0.124354 0.357681 0.637870
O O6 0.324947 0.416593 0.674538
O O7 0.811193 0.855494 0.521861
O O8 0.819925 0.676788 0.579026
O O9 0.000000 0.098832 0.750000
O O10 0.663926 0.224516 0.371176
O O11 0.698572 0.142597 0.494580
O O12 0.547662 0.027093 0.392119
O O13 0.442226 0.099143 0.139804
O O14 0.496802 0.000000 0.250000
#
# Coordination Sequence:
#
# PCOD9578884 Si02
#       8
#     4  12  12   6  12  12   4  12
#     4   9  21  39  67  98 127 171 220 287 337 408
#     4  11  23  42  65  99 130 182 228 285 346 419
#     4  11  24  39  68 103 137 174 234 300 347 408
#     4  10  26  44  66  84 130 188 230 276 336 412
#     4  10  21  39  70  97 130 175 231 275 341 417
#     4  12  24  43  65  98 141 179 215 286 355 414
#     4   9  15  33  64  95 121 159 217 269 331 393
#     4  10  23  43  68  99 135 174 231 286 349 410
#
# _framework density 23.420453999999999
#
# number of rings (size 3 to 8) (size 9 to 14) (size 15 to 20)
#    0.162    1.297    4.054    0.649    4.541    3.243 
#    2.919    0.000    0.000    0.000    0.000    0.000 
#    0.000    0.000    0.000    0.000    0.000    0.000 
#
# Total GULP energy -412761.691727 kJ/mol
# GULP energy per Si atom -5577.860699 kJ/mol
# Density = 2.336715 g / cm^3
# Si number density = 23.420454 Si / 1000 Ang^3
#
#
#
# Elastic Constant Matrix: (Units=GPa)
#
#
# Indices 1 2 3 4 5 6 
#
# 1 104.3851 29.9138 2.8779 4.4256 0.0000 0.0000
# 2 29.9138 104.3854 2.8782 -4.4257 0.0000 0.0000
# 3 2.8779 2.8782 43.5970 0.0000 0.0000 0.0000
# 4 4.4256 -4.4257 0.0000 21.3065 0.0000 0.0000
# 5 0.0000 0.0000 0.0000 0.0000 21.3063 4.4256
# 6 0.0000 0.0000 0.0000 0.0000 4.4256 37.2356
#
#
#
# Elastic Compliance Matrix: (Units=1/GPa)
#
#
# Indices 1 2 3 4 5 6 
#
# 1 0.010618 -0.003150 -0.000493 -0.002860 0.000000 0.000000
# 2 -0.003150 0.010618 -0.000493 0.002860 0.000000 0.000000
# 3 -0.000493 -0.000493 0.023002 0.000000 0.000000 0.000000
# 4 -0.002860 0.002860 0.000000 0.048122 0.000000 0.000000
# 5 0.000000 0.000000 0.000000 0.000000 0.048122 -0.005720
# 6 0.000000 0.000000 0.000000 0.000000 -0.005720 0.027536
#
#
# Mechanical properties :
#
#
# Convention : Reuss Voigt Hill
#
# Bulk Modulus (GPa) = 27.80476 35.96748 31.88612
# Shear Modulus (GPa) = 26.55640 30.41620 28.48630
#
# Velocity S-wave (km/s) = 3.37099 3.60766 3.49133
# Velocity P-wave (km/s) = 5.20089 5.72226 5.46779
#
# Compressibility (1/GPa) = 0.03596506
#
# Stress axis : x y z
#
# Youngs Moduli (GPa) = 94.18372 94.18400 43.47363
#
# Poissons Ratio (x) = 0.29671 0.02143
# Poissons Ratio (y) = 0.29671 0.02143
# Poissons Ratio (z) = 0.04642 0.04643
#
# Static dielectric constant tensor:
#      x y z
#    x 1.940280 0.000000 0.000000 
#    y 0.000000 1.940280 0.000000 
#    z 0.000000 0.000000 1.885200 
# 
# From -- ./inp_files/2704.got.cif
#   From: 2010.05.17/outbox.cif.g08.bks.cpg/sg165_2_cif.got.tgz:2704.got - 2010.05.20 11:02:39.
