data_PCOD9578440
_publ_section_title
;
Structure prediction by ZEFSAII (Michael W. Deem and Ramdas Pophale) SiO2 
 PCOD9578440
Probable space group: P -3 M 1
;
_chemical_formula_sum "Si O2"
_cell_formula_units_Z 72
_cell_length_a 21.050490
_cell_length_b 21.050490
_cell_length_c 12.353447
_cell_angle_alpha 90.000000
_cell_angle_beta 90.000000
_cell_angle_gamma 120.000000
_cell_volume 4740.708010
_symmetry_space_group_name_H-M "P -3 M 1"
_symmetry_group_IT_number 164
_symmetry_cell_setting 'hexagonal'
loop_
_space_group_symop_operation_xyz
x,y,z
-y,x-y,z
-x+y,-x,z
x-y,-y,-z
-x,-x+y,-z
y,x,-z
-x,-y,-z
y,-x+y,-z
x-y,x,-z
-x+y,y,z
x,x-y,z
-y,-x,z
loop_
_atom_site_type_symbol
_atom_site_label
_atom_site_fract_x
_atom_site_fract_y
_atom_site_fract_z
Si Si1 0.437727 0.562274 0.015960
Si Si2 0.519382 0.332348 0.347394
Si Si3 0.613647 0.081578 0.550317
Si Si4 0.289059 0.430060 0.048404
Si Si5 0.983871 0.491936 0.175512
Si Si6 0.117454 0.379089 0.804774
Si Si7 0.030920 0.649971 0.248192
O O1 0.351516 0.515508 0.036092
O O2 0.472779 0.527222 0.096361
O O3 0.456109 0.543892 0.898163
O O4 0.542666 0.271333 0.366619
O O5 0.589623 0.410378 0.320046
O O6 0.483709 0.344333 0.455527
O O7 0.457790 0.300422 0.254837
O O8 0.547740 0.095480 0.589598
O O9 0.664808 0.080595 0.646067
O O10 0.573988 0.000000 0.500000
O O11 0.211253 0.422506 0.072852
O O12 0.315263 0.395847 0.142427
O O13 0.283018 0.392663 0.931743
O O14 0.991479 0.560828 0.240213
O O15 0.174595 0.349190 0.794781
O O16 0.036485 0.334470 0.752949
#
# Coordination Sequence:
#
# PCOD9578440 Si02
#       7
#     6  12  12  12   6  12  12
#     4   9  16  28  44  60  88 118 148 190 230 274
#     4  10  21  34  48  65  89 118 150 192 241 286
#     4  10  19  30  47  67  83 106 148 192 223 265
#     4  10  21  32  45  67  90 119 156 191 233 284
#     4   9  16  24  45  70  80 110 153 185 228 270
#     4  10  20  31  46  70  93 113 146 188 234 284
#     4  11  18  31  51  67  89 117 149 195 236 274
#
# _framework density 15.187605
#
# number of rings (size 3 to 8) (size 9 to 14) (size 15 to 20)
#    0.000    2.000    4.167    0.667    2.333    0.667 
#    0.500    0.000    0.000    0.000    0.000    0.000 
#    0.000    0.000    0.000    0.500    0.000    7.500 
#
# Total GULP energy -401298.211624 kJ/mol
# GULP energy per Si atom -5573.586273 kJ/mol
# Density = 1.515304 g / cm^3
# Si number density = 15.187605 Si / 1000 Ang^3
#
#
#
# Elastic Constant Matrix: (Units=GPa)
#
#
# Indices 1 2 3 4 5 6 
#
# 1 49.2795 10.1963 20.9589 0.0662 0.0000 0.0000
# 2 10.1963 49.2795 20.9589 -0.0662 0.0000 0.0000
# 3 20.9589 20.9589 76.5834 0.0000 0.0000 0.0000
# 4 0.0662 -0.0662 0.0000 18.0952 0.0000 0.0000
# 5 0.0000 0.0000 0.0000 0.0000 18.0952 0.0662
# 6 0.0000 0.0000 0.0000 0.0000 0.0662 19.5416
#
#
#
# Elastic Compliance Matrix: (Units=1/GPa)
#
#
# Indices 1 2 3 4 5 6 
#
# 1 0.023209 -0.002378 -0.005701 -0.000094 0.000000 0.000000
# 2 -0.002378 0.023209 -0.005701 0.000094 0.000000 0.000000
# 3 -0.005701 -0.005701 0.016178 0.000000 0.000000 0.000000
# 4 -0.000094 0.000094 0.000000 0.055264 0.000000 0.000000
# 5 0.000000 0.000000 0.000000 0.000000 0.055264 -0.000187
# 6 0.000000 0.000000 0.000000 0.000000 -0.000187 0.051173
#
#
# Mechanical properties :
#
#
# Convention : Reuss Voigt Hill
#
# Bulk Modulus (GPa) = 28.54120 31.04118 29.79119
# Shear Modulus (GPa) = 18.97272 19.34829 19.16051
#
# Velocity S-wave (km/s) = 3.53827 3.57312 3.55574
# Velocity P-wave (km/s) = 5.96034 6.12420 6.04283
#
# Compressibility (1/GPa) = 0.03503707
#
# Stress axis : x y z
#
# Youngs Moduli (GPa) = 43.08639 43.08639 61.81177
#
# Poissons Ratio (x) = 0.10244 0.35239
# Poissons Ratio (y) = 0.10244 0.35239
# Poissons Ratio (z) = 0.24564 0.24564
#
# Static dielectric constant tensor:
#      x y z
#    x 1.505250 0.000000 0.000000 
#    y 0.000000 1.505250 0.000000 
#    z 0.000000 0.000000 1.552590 
# 
# From -- ./inp_files/2839.got.cif
#   From: 2010.05.17/outbox.cif.g08.bks.cpg/sg164_2_cif.got.tgz:2839.got - 2010.05.20 10:58:56.
