data_PCOD9578664
_publ_section_title
;
Structure prediction by ZEFSAII (Michael W. Deem and Ramdas Pophale) SiO2 
 PCOD9578664
Probable space group: P -3 M 1
;
_chemical_formula_sum "Si O2"
_cell_formula_units_Z 54
_cell_length_a 12.651193
_cell_length_b 12.651193
_cell_length_c 23.529247
_cell_angle_alpha 90.000000
_cell_angle_beta 90.000000
_cell_angle_gamma 120.000000
_cell_volume 3261.381646
_symmetry_space_group_name_H-M "P -3 M 1"
_symmetry_group_IT_number 164
_symmetry_cell_setting 'hexagonal'
loop_
_space_group_symop_operation_xyz
x,y,z
-y,x-y,z
-x+y,-x,z
x-y,-y,-z
-x,-x+y,-z
y,x,-z
-x,-y,-z
y,-x+y,-z
x-y,x,-z
-x+y,y,z
x,x-y,z
-y,-x,z
loop_
_atom_site_type_symbol
_atom_site_label
_atom_site_fract_x
_atom_site_fract_y
_atom_site_fract_z
Si Si1 0.415688 0.333705 0.055142
Si Si2 0.082013 0.415203 0.166373
Si Si3 0.000277 0.748591 0.277996
Si Si4 0.748251 0.748251 0.500000
Si Si5 0.584487 0.917347 0.611085
O O1 0.409609 0.204805 0.055190
O O2 0.555841 0.444160 0.053340
O O3 0.356471 0.353531 0.111696
O O4 0.350722 0.350722 0.000000
O O5 0.213577 0.427154 0.157671
O O6 0.095319 0.547660 0.173633
O O7 0.022748 0.333434 0.222181
O O8 0.119222 0.880779 0.286242
O O9 0.880228 0.760456 0.271089
O O10 0.978851 0.664538 0.332827
O O11 0.880510 0.761020 0.507007
O O12 0.686749 0.666046 0.444570
O O13 0.462481 0.924961 0.610725
O O14 0.553872 0.776936 0.611084
#
# Coordination Sequence:
#
# PCOD9578664 Si02
#       5
#    12  12  12   6  12
#     4  10  20  34  53  76 102 132 167 208 253 301
#     4  10  20  34  53  76 103 135 170 209 252 299
#     4  10  20  34  53  76 103 135 170 209 252 299
#     4  10  20  34  54  78 104 134 168 208 252 300
#     4  10  20  34  52  74 101 133 169 209 253 300
#
# _framework density 16.557400000000001
#
# number of rings (size 3 to 8) (size 9 to 14) (size 15 to 20)
#    0.000    2.000    0.000    4.000    0.000    0.000 
#    0.000    4.444    0.000   18.667    0.000    0.000 
#    0.000    0.000    0.000    0.000    0.000    0.000 
#
# Total GULP energy -301522.159429 kJ/mol
# GULP energy per Si atom -5583.743693 kJ/mol
# Density = 1.651971 g / cm^3
# Si number density = 16.557400 Si / 1000 Ang^3
#
#
#
# Elastic Constant Matrix: (Units=GPa)
#
#
# Indices 1 2 3 4 5 6 
#
# 1 149.3043 110.6108 107.0121 -2.2692 0.0000 0.0000
# 2 110.6108 149.3043 107.0121 2.2692 0.0000 0.0000
# 3 107.0121 107.0121 165.7966 0.0000 0.0000 0.0000
# 4 -2.2692 2.2692 0.0000 23.9600 0.0000 0.0000
# 5 0.0000 0.0000 0.0000 0.0000 23.9600 -2.2692
# 6 0.0000 0.0000 0.0000 0.0000 -2.2692 19.3467
#
#
#
# Elastic Compliance Matrix: (Units=1/GPa)
#
#
# Indices 1 2 3 4 5 6 
#
# 1 0.017173 -0.008961 -0.005300 0.002475 0.000000 0.000000
# 2 -0.008961 0.017173 -0.005300 -0.002475 0.000000 0.000000
# 3 -0.005300 -0.005300 0.012874 0.000000 0.000000 0.000000
# 4 0.002475 -0.002475 0.000000 0.042205 0.000000 0.000000
# 5 0.000000 0.000000 0.000000 0.000000 0.042205 0.004950
# 6 0.000000 0.000000 0.000000 0.000000 0.004950 0.052269
#
#
# Mechanical properties :
#
#
# Convention : Reuss Voigt Hill
#
# Bulk Modulus (GPa) = 123.51569 123.74170 123.62869
# Shear Modulus (GPa) = 22.15120 22.77135 22.46128
#
# Velocity S-wave (km/s) = 3.66162 3.71252 3.68716
# Velocity P-wave (km/s) = 9.62481 9.65786 9.64135
#
# Compressibility (1/GPa) = 0.00809614
#
# Stress axis : x y z
#
# Youngs Moduli (GPa) = 58.23034 58.23034 77.67856
#
# Poissons Ratio (x) = 0.52182 0.41172
# Poissons Ratio (y) = 0.52182 0.41172
# Poissons Ratio (z) = 0.30864 0.30864
#
# Static dielectric constant tensor:
#      x y z
#    x 1.523490 0.000000 0.000000 
#    y 0.000000 1.523490 0.000000 
#    z 0.000000 0.000000 1.537520 
# 
# From -- ./inp_files/4452.got.cif
#   From: 2010.05.17/outbox.cif.g08.bks.cpg/sg164_3_cif.got.tgz:4452.got - 2010.05.20 10:58:56.
