data_PCOD9578536
_publ_section_title
;
Structure prediction by ZEFSAII (Michael W. Deem and Ramdas Pophale) SiO2 
 PCOD9578536
Probable space group: P -3 M 1
;
_chemical_formula_sum "Si O2"
_cell_formula_units_Z 66
_cell_length_a 13.227537
_cell_length_b 13.227537
_cell_length_c 28.827456
_cell_angle_alpha 90.000000
_cell_angle_beta 90.000000
_cell_angle_gamma 120.000000
_cell_volume 4368.123610
_symmetry_space_group_name_H-M "P -3 M 1"
_symmetry_group_IT_number 164
_symmetry_cell_setting 'hexagonal'
loop_
_space_group_symop_operation_xyz
x,y,z
-y,x-y,z
-x+y,-x,z
x-y,-y,-z
-x,-x+y,-z
y,x,-z
-x,-y,-z
y,-x+y,-z
x-y,x,-z
-x+y,y,z
x,x-y,z
-y,-x,z
loop_
_atom_site_type_symbol
_atom_site_label
_atom_site_fract_x
_atom_site_fract_y
_atom_site_fract_z
Si Si1 0.237363 0.999780 0.946075
Si Si2 0.905875 0.572203 0.319841
Si Si3 0.666678 0.092650 0.866923
Si Si4 0.758226 0.757933 0.601593
Si Si5 0.759144 0.000000 0.500000
Si Si6 0.427830 0.332921 0.212935
O O1 0.124738 0.875263 0.935369
O O2 0.205400 0.102700 0.941611
O O3 0.343508 0.032460 0.911383
O O4 0.270020 0.000000 0.000000
O O5 0.773390 0.546779 0.324560
O O6 0.910467 0.455234 0.327899
O O7 0.982048 0.670588 0.357043
O O8 0.940502 0.609682 0.266359
O O9 0.552127 0.104253 0.872851
O O10 0.781488 0.218513 0.860649
O O11 0.644207 0.008952 0.822869
O O12 0.779765 0.889883 0.603234
O O13 0.705192 0.707756 0.550290
O O14 0.879758 0.759515 0.606322
O O15 0.772360 0.886180 0.498535
O O16 0.419181 0.209591 0.202476
O O17 0.562473 0.437527 0.209996
#
# Coordination Sequence:
#
# PCOD9578536 Si02
#       6
#    12  12  12  12   6  12
#     4   9  17  30  49  71  92 114 142 178 218 256
#     4   9  17  29  45  64  85 110 140 174 212 253
#     4  10  20  32  46  64  89 120 149 176 207 249
#     4   9  16  26  42  63  86 110 137 172 212 253
#     4   8  13  22  37  58  82 108 138 170 206 246
#     4   9  17  30  48  67  85 107 139 180 220 254
#
# _framework density 15.109462000000001
#
# number of rings (size 3 to 8) (size 9 to 14) (size 15 to 20)
#    0.000    2.909    0.000    1.545    0.000    4.727 
#    0.000    0.455    0.000    1.091    0.000    0.000 
#    0.000    0.000    0.000    0.000    0.000    0.000 
#
# Total GULP energy -367419.810475 kJ/mol
# GULP energy per Si atom -5566.966825 kJ/mol
# Density = 1.507507 g / cm^3
# Si number density = 15.109462 Si / 1000 Ang^3
#
#
#
# Elastic Constant Matrix: (Units=GPa)
#
#
# Indices 1 2 3 4 5 6 
#
# 1 113.9684 23.6125 78.0645 -20.6298 0.0000 0.0000
# 2 23.6125 113.9684 78.0645 20.6298 0.0000 0.0000
# 3 78.0645 78.0645 131.6936 0.0000 0.0000 0.0000
# 4 -20.6298 20.6298 0.0000 37.3571 0.0000 0.0000
# 5 0.0000 0.0000 0.0000 0.0000 37.3571 -20.6298
# 6 0.0000 0.0000 0.0000 0.0000 -20.6298 45.1780
#
#
#
# Elastic Compliance Matrix: (Units=1/GPa)
#
#
# Indices 1 2 3 4 5 6 
#
# 1 0.018503 0.003704 -0.013163 0.008173 0.000000 0.000000
# 2 0.003704 0.018503 -0.013163 -0.008173 0.000000 0.000000
# 3 -0.013163 -0.013163 0.023199 0.000000 0.000000 0.000000
# 4 0.008173 -0.008173 0.000000 0.035795 0.000000 0.000000
# 5 0.000000 0.000000 0.000000 0.000000 0.035795 0.016345
# 6 0.000000 0.000000 0.000000 0.000000 0.016345 0.029598
#
#
# Mechanical properties :
#
#
# Convention : Reuss Voigt Hill
#
# Bulk Modulus (GPa) = 66.85136 79.90148 73.37642
# Shear Modulus (GPa) = 23.62655 35.97103 29.79879
#
# Velocity S-wave (km/s) = 3.95865 4.88453 4.44576
# Velocity P-wave (km/s) = 8.07683 9.20913 8.66150
#
# Compressibility (1/GPa) = 0.01495856
#
# Stress axis : x y z
#
# Youngs Moduli (GPa) = 54.04562 54.04562 43.10480
#
# Poissons Ratio (x) = -0.20017 0.56741
# Poissons Ratio (y) = -0.20017 0.56741
# Poissons Ratio (z) = 0.71143 0.71143
#
# Static dielectric constant tensor:
#      x y z
#    x 1.473980 0.000000 0.000000 
#    y 0.000000 1.473980 0.000000 
#    z 0.000000 0.000000 1.523680 
# 
# From -- ./inp_files/5537.got.cif
#   From: 2010.05.17/outbox.cif.g08.bks.cpg/sg164_3_cif.got.tgz:5537.got - 2010.05.20 10:58:56.
