data_PCOD9578702
_publ_section_title
;
Structure prediction by ZEFSAII (Michael W. Deem and Ramdas Pophale) SiO2 
 PCOD9578702
Probable space group: P -3 M 1
;
_chemical_formula_sum "Si O2"
_cell_formula_units_Z 54
_cell_length_a 23.561945
_cell_length_b 23.561945
_cell_length_c 5.032571
_cell_angle_alpha 90.000000
_cell_angle_beta 90.000000
_cell_angle_gamma 120.000000
_cell_volume 2419.595779
_symmetry_space_group_name_H-M "P -3 M 1"
_symmetry_group_IT_number 164
_symmetry_cell_setting 'hexagonal'
loop_
_space_group_symop_operation_xyz
x,y,z
-y,x-y,z
-x+y,-x,z
x-y,-y,-z
-x,-x+y,-z
y,x,-z
-x,-y,-z
y,-x+y,-z
x-y,x,-z
-x+y,y,z
x,x-y,z
-y,-x,z
loop_
_atom_site_type_symbol
_atom_site_label
_atom_site_fract_x
_atom_site_fract_y
_atom_site_fract_z
Si Si1 0.354547 0.177273 0.676044
Si Si2 0.941667 0.311943 0.691409
Si Si3 0.134123 0.865878 0.814720
Si Si4 0.885038 0.378627 0.036152
Si Si5 0.763053 0.763053 0.000000
Si Si6 0.797125 0.463108 0.532771
O O1 0.387674 0.132861 0.610160
O O2 0.291650 0.145825 0.485985
O O3 0.332317 0.166159 0.986093
O O4 0.930042 0.351139 0.925924
O O5 0.000000 0.362945 0.500000
O O6 0.970033 0.266018 0.789660
O O7 0.058226 0.828050 0.879678
O O8 0.913023 0.456512 0.013811
O O9 0.823154 0.345574 0.834291
O O10 0.858347 0.356943 0.332341
O O11 0.738446 0.476892 0.485703
O O12 0.773633 0.386817 0.481181
#
# Coordination Sequence:
#
# PCOD9578702 Si02
#       6
#     6  12   6  12   6  12
#     4  10  22  36  58  88 116 151 196 242 294 348
#     4  11  23  39  62  86 121 158 202 245 298 355
#     4  10  20  38  60  87 126 152 192 236 290 344
#     4  10  24  40  56  86 121 156 201 250 305 361
#     4  10  22  40  61  93 122 158 198 242 294 344
#     4  10  21  39  61  86 116 154 201 254 310 364
#
# _framework density 22.317779999999999
#
# number of rings (size 3 to 8) (size 9 to 14) (size 15 to 20)
#    0.000    1.778    2.222    0.889    6.222    0.444 
#    0.000    2.778    0.000    0.222    0.000    0.000 
#    0.000    4.000    0.000    0.000    0.000    0.444 
#
# Total GULP energy -301602.838172 kJ/mol
# GULP energy per Si atom -5585.237744 kJ/mol
# Density = 2.226698 g / cm^3
# Si number density = 22.317780 Si / 1000 Ang^3
#
#
#
# Elastic Constant Matrix: (Units=GPa)
#
#
# Indices 1 2 3 4 5 6 
#
# 1 100.3039 53.1336 -0.6206 -1.4288 0.0000 0.0000
# 2 53.1336 100.3039 -0.6206 1.4288 0.0000 0.0000
# 3 -0.6206 -0.6206 49.5972 0.0000 0.0000 0.0000
# 4 -1.4288 1.4288 0.0000 30.1722 0.0000 0.0000
# 5 0.0000 0.0000 0.0000 0.0000 30.1722 -1.4288
# 6 0.0000 0.0000 0.0000 0.0000 -1.4288 23.5852
#
#
#
# Elastic Compliance Matrix: (Units=1/GPa)
#
#
# Indices 1 2 3 4 5 6 
#
# 1 0.013889 -0.007371 0.000082 0.001007 0.000000 0.000000
# 2 -0.007371 0.013889 0.000082 -0.001007 0.000000 0.000000
# 3 0.000082 0.000082 0.020164 0.000000 0.000000 0.000000
# 4 0.001007 -0.001007 0.000000 0.033238 0.000000 0.000000
# 5 0.000000 0.000000 0.000000 0.000000 0.033238 0.002014
# 6 0.000000 0.000000 0.000000 0.000000 0.002014 0.042522
#
#
# Mechanical properties :
#
#
# Convention : Reuss Voigt Hill
#
# Bulk Modulus (GPa) = 29.82702 39.33219 34.57960
# Shear Modulus (GPa) = 27.39220 30.00676 28.69948
#
# Velocity S-wave (km/s) = 3.50719 3.67075 3.58990
# Velocity P-wave (km/s) = 5.45840 5.96891 5.71935
#
# Compressibility (1/GPa) = 0.03352665
#
# Stress axis : x y z
#
# Youngs Moduli (GPa) = 71.99750 71.99750 49.59218
#
# Poissons Ratio (x) = 0.53072 -0.00404
# Poissons Ratio (y) = 0.53072 -0.00404
# Poissons Ratio (z) = -0.00587 -0.00587
#
# Static dielectric constant tensor:
#      x y z
#    x 1.855830 0.000000 0.000000 
#    y 0.000000 1.855830 0.000000 
#    z 0.000000 0.000000 1.824220 
# 
# From -- ./inp_files/594.got.cif
#   From: 2010.05.17/outbox.cif.g08.bks.cpg/sg164_1_cif.got.tgz:594.got - 2010.05.20 10:58:56.
