data_PCOD9578855
_publ_section_title
;
Structure prediction by ZEFSAII (Michael W. Deem and Ramdas Pophale) SiO2 
 PCOD9578855
Probable space group: P -3 C 1
;
_chemical_formula_sum "Si O2"
_cell_formula_units_Z 96
_cell_length_a 15.655053
_cell_length_b 15.655053
_cell_length_c 23.231807
_cell_angle_alpha 90.000000
_cell_angle_beta 90.000000
_cell_angle_gamma 120.000000
_cell_volume 4930.860401
_symmetry_space_group_name_H-M "P -3 C 1"
_symmetry_group_IT_number 165
_symmetry_cell_setting 'hexagonal'
loop_
_space_group_symop_operation_xyz
x,y,z
-y,x-y,z
-x+y,-x,z
x-y,-y,1/2-z
-x,-x+y,1/2-z
y,x,1/2-z
-x,-y,-z
y,-x+y,-z
x-y,x,-z
-x+y,y,1/2+z
x,x-y,1/2+z
-y,-x,1/2+z
loop_
_atom_site_type_symbol
_atom_site_label
_atom_site_fract_x
_atom_site_fract_y
_atom_site_fract_z
Si Si1 0.160885 0.485777 0.659346
Si Si2 0.763171 0.649956 0.747176
Si Si3 0.152815 0.294742 0.875451
Si Si4 0.697959 0.021987 0.426790
Si Si5 0.158478 0.440507 0.472378
Si Si6 0.124599 0.502997 0.989331
Si Si7 0.480286 0.139473 0.378373
Si Si8 0.771398 0.047004 0.810905
O O1 0.175651 0.455774 0.722784
O O2 0.077575 0.386671 0.628981
O O3 0.129314 0.567042 0.656670
O O4 0.259306 0.515225 0.623125
O O5 0.682192 0.682192 0.750000
O O6 0.796953 0.653771 0.682231
O O7 0.856820 0.725078 0.786781
O O8 0.240685 0.374569 0.915273
O O9 0.185813 0.219315 0.849637
O O10 0.050609 0.259680 0.910598
O O11 0.746261 0.106344 0.475967
O O12 0.588389 0.951792 0.451135
O O13 0.276555 0.502817 0.479263
O O14 0.124739 0.521835 0.474877
O O15 0.104067 0.479628 0.057061
O O16 0.373875 0.084690 0.348640
O O17 0.717802 0.000000 0.750000
#
# Coordination Sequence:
#
# PCOD9578855 Si02
#       8
#    12  12  12  12  12  12  12  12
#     4  11  22  35  57  91 118 162 208 255 305 350
#     4  10  20  40  65  91 119 155 210 256 308 378
#     4  10  22  40  60  88 122 158 200 258 312 369
#     4  11  21  34  56  88 113 159 206 251 302 366
#     4  11  22  37  54  87 124 157 209 250 314 364
#     4  11  21  33  55  82 118 161 202 246 304 368
#     4  11  20  36  57  84 126 161 205 256 296 368
#     4   9  21  38  58  87 115 158 199 254 315 361
#
# _framework density 19.46922
#
# number of rings (size 3 to 8) (size 9 to 14) (size 15 to 20)
#    0.000    1.500    3.750    1.625    1.750    0.500 
#    0.000    3.750    0.000    6.750    0.000    0.875 
#    0.000    0.000    0.000    0.000    0.000    0.000 
#
# Total GULP energy -535207.792939 kJ/mol
# GULP energy per Si atom -5575.081176 kJ/mol
# Density = 1.942491 g / cm^3
# Si number density = 19.469220 Si / 1000 Ang^3
#
#
#
# Elastic Constant Matrix: (Units=GPa)
#
#
# Indices 1 2 3 4 5 6 
#
# 1 49.6059 6.9378 14.5849 0.6002 0.0000 0.0000
# 2 6.9378 49.6059 14.5849 -0.6002 0.0000 0.0000
# 3 14.5849 14.5849 86.5131 0.0000 0.0000 0.0000
# 4 0.6002 -0.6002 0.0000 25.5794 0.0000 0.0000
# 5 0.0000 0.0000 0.0000 0.0000 25.5794 0.6002
# 6 0.0000 0.0000 0.0000 0.0000 0.6002 21.3341
#
#
#
# Elastic Compliance Matrix: (Units=1/GPa)
#
#
# Indices 1 2 3 4 5 6 
#
# 1 0.021411 -0.002041 -0.003266 -0.000550 0.000000 0.000000
# 2 -0.002041 0.021411 -0.003266 0.000550 0.000000 0.000000
# 3 -0.003266 -0.003266 0.012660 0.000000 0.000000 0.000000
# 4 -0.000550 0.000550 0.000000 0.039120 0.000000 0.000000
# 5 0.000000 0.000000 0.000000 0.000000 0.039120 -0.001101
# 6 0.000000 0.000000 0.000000 0.000000 -0.001101 0.046904
#
#
# Mechanical properties :
#
#
# Convention : Reuss Voigt Hill
#
# Bulk Modulus (GPa) = 26.08378 28.66002 27.37190
# Shear Modulus (GPa) = 23.74738 24.47308 24.11023
#
# Velocity S-wave (km/s) = 3.49627 3.54929 3.52288
# Velocity P-wave (km/s) = 5.45207 5.61687 5.53508
#
# Compressibility (1/GPa) = 0.03833801
#
# Stress axis : x y z
#
# Youngs Moduli (GPa) = 46.70471 46.70471 78.98904
#
# Poissons Ratio (x) = 0.09533 0.25794
# Poissons Ratio (y) = 0.09533 0.25794
# Poissons Ratio (z) = 0.15252 0.15252
#
# Static dielectric constant tensor:
#      x y z
#    x 1.705690 0.000000 0.000000 
#    y 0.000000 1.705690 0.000000 
#    z 0.000000 0.000000 1.701080 
# 
# From -- ./inp_files/3190.got.cif
#   From: 2010.05.17/outbox.cif.g08.bks.cpg/sg165_2_cif.got.tgz:3190.got - 2010.05.20 11:02:39.
