data_PCOD9578478
_publ_section_title
;
Structure prediction by ZEFSAII (Michael W. Deem and Ramdas Pophale) SiO2 
 PCOD9578478
Probable space group: P -3 M 1
;
_chemical_formula_sum "Si O2"
_cell_formula_units_Z 96
_cell_length_a 17.580873
_cell_length_b 17.580873
_cell_length_c 20.776275
_cell_angle_alpha 90.000000
_cell_angle_beta 90.000000
_cell_angle_gamma 120.000000
_cell_volume 5561.336711
_symmetry_space_group_name_H-M "P -3 M 1"
_symmetry_group_IT_number 164
_symmetry_cell_setting 'hexagonal'
loop_
_space_group_symop_operation_xyz
x,y,z
-y,x-y,z
-x+y,-x,z
x-y,-y,-z
-x,-x+y,-z
y,x,-z
-x,-y,-z
y,-x+y,-z
x-y,x,-z
-x+y,y,z
x,x-y,z
-y,-x,z
loop_
_atom_site_type_symbol
_atom_site_label
_atom_site_fract_x
_atom_site_fract_y
_atom_site_fract_z
Si Si1 0.510807 0.844490 0.229608
Si Si2 0.395635 0.967972 0.354325
Si Si3 0.001354 0.178344 0.309281
Si Si4 0.763547 0.704577 0.563157
Si Si5 0.626164 0.724330 0.728865
Si Si6 0.101522 0.382213 0.873761
Si Si7 0.091305 0.737791 0.111890
Si Si8 0.157002 0.665562 0.996777
O O1 0.422490 0.844980 0.211229
O O2 0.491994 0.745997 0.238631
O O3 0.546116 0.898560 0.295653
O O4 0.582767 0.887112 0.173504
O O5 0.485494 0.970987 0.373419
O O6 0.323191 0.942908 0.409432
O O7 0.412108 0.059270 0.323042
O O8 0.921933 0.078068 0.310320
O O9 0.966842 0.234368 0.269745
O O10 0.092857 0.185714 0.287527
O O11 0.018916 0.222042 0.380249
O O12 0.740235 0.740235 0.500000
O O13 0.842652 0.685303 0.551302
O O14 0.612313 0.806157 0.712591
O O15 0.590077 0.690749 0.800160
O O16 0.183208 0.366415 0.879907
O O17 0.115804 0.453854 0.927029
O O18 0.010523 0.294878 0.887405
O O19 0.158775 0.841226 0.113561
O O20 0.113353 0.698995 0.048965
O O21 0.146148 0.573074 0.015261
O O22 0.259408 0.740593 0.994172
#
# Coordination Sequence:
#
# PCOD9578478 Si02
#       8
#    12  12  12  12  12  12  12  12
#     4  10  19  31  49  75 107 138 168 204 252 310
#     4  10  20  34  54  78 103 133 173 216 257 306
#     4   9  17  29  49  77 108 139 169 201 244 296
#     4  10  20  34  53  77 107 141 173 206 246 296
#     4   9  18  33  50  71  99 133 171 215 262 302
#     4  10  20  34  50  71 100 135 174 217 261 302
#     4  10  20  33  51  75 102 135 172 211 259 313
#     4  10  21  35  52  74 102 135 170 212 264 320
#
# _framework density 17.262035999999998
#
# number of rings (size 3 to 8) (size 9 to 14) (size 15 to 20)
#    0.000    2.250    1.250    1.875    0.000    3.750 
#    0.000    1.250    0.000    2.750    0.000    0.875 
#    0.000    3.000    0.000    0.000    0.000    0.000 
#
# Total GULP energy -535535.721334 kJ/mol
# GULP energy per Si atom -5578.497097 kJ/mol
# Density = 1.722275 g / cm^3
# Si number density = 17.262036 Si / 1000 Ang^3
#
#
#
# Elastic Constant Matrix: (Units=GPa)
#
#
# Indices 1 2 3 4 5 6 
#
# 1 41.8714 16.1390 6.8309 3.8282 0.0000 0.0000
# 2 16.1390 41.8714 6.8309 -3.8282 0.0000 0.0000
# 3 6.8309 6.8309 51.9569 0.0000 0.0000 0.0000
# 4 3.8282 -3.8282 0.0000 19.6657 0.0000 0.0000
# 5 0.0000 0.0000 0.0000 0.0000 19.6657 3.8282
# 6 0.0000 0.0000 0.0000 0.0000 3.8282 12.8662
#
#
#
# Elastic Compliance Matrix: (Units=1/GPa)
#
#
# Indices 1 2 3 4 5 6 
#
# 1 0.029520 -0.011731 -0.002339 -0.008030 0.000000 0.000000
# 2 -0.011731 0.029520 -0.002339 0.008030 0.000000 0.000000
# 3 -0.002339 -0.002339 0.019862 0.000000 0.000000 0.000000
# 4 -0.008030 0.008030 0.000000 0.053976 0.000000 0.000000
# 5 0.000000 0.000000 0.000000 0.000000 0.053976 -0.016060
# 6 0.000000 0.000000 0.000000 0.000000 -0.016060 0.082502
#
#
# Mechanical properties :
#
#
# Convention : Reuss Voigt Hill
#
# Bulk Modulus (GPa) = 21.69914 21.70014 21.69964
# Shear Modulus (GPa) = 15.74633 17.49943 16.62288
#
# Velocity S-wave (km/s) = 3.02353 3.18740 3.10655
# Velocity P-wave (km/s) = 4.97863 5.11315 5.04634
#
# Compressibility (1/GPa) = 0.04608477
#
# Stress axis : x y z
#
# Youngs Moduli (GPa) = 33.87537 33.87537 50.34823
#
# Poissons Ratio (x) = 0.39739 0.11775
# Poissons Ratio (y) = 0.39739 0.11775
# Poissons Ratio (z) = 0.07923 0.07923
#
# Static dielectric constant tensor:
#      x y z
#    x 1.581580 0.000000 0.000000 
#    y 0.000000 1.581580 0.000000 
#    z 0.000000 0.000000 1.594460 
# 
# From -- ./inp_files/4723.got.cif
#   From: 2010.05.17/outbox.cif.g08.bks.cpg/sg164_3_cif.got.tgz:4723.got - 2010.05.20 10:58:56.
