data_PCOD9578007
_publ_section_title
;
Structure prediction by ZEFSAII (Michael W. Deem and Ramdas Pophale) SiO2 
 PCOD9578007
Probable space group: P -3 1 C
;
_chemical_formula_sum "Si O2"
_cell_formula_units_Z 42
_cell_length_a 11.775345
_cell_length_b 11.775345
_cell_length_c 15.165889
_cell_angle_alpha 90.000000
_cell_angle_beta 90.000000
_cell_angle_gamma 120.000000
_cell_volume 1821.150281
_symmetry_space_group_name_H-M "P -3 1 C"
_symmetry_group_IT_number 163
_symmetry_cell_setting 'hexagonal'
loop_
_space_group_symop_operation_xyz
x,y,z
-y,x-y,z
-x+y,-x,z
-y,-x,1/2-z
-x+y,y,1/2-z
x,x-y,1/2-z
-x,-y,-z
y,-x+y,-z
x-y,x,-z
y,x,1/2+z
x-y,-y,1/2+z
-x,-x+y,1/2+z
loop_
_atom_site_type_symbol
_atom_site_label
_atom_site_fract_x
_atom_site_fract_y
_atom_site_fract_z
Si Si1 0.997545 0.259788 0.272372
Si Si2 0.458805 0.633643 0.444332
Si Si3 0.982450 0.249217 0.976941
Si Si4 0.466209 0.533792 0.250000
O O1 0.884187 0.115813 0.250000
O O2 0.979659 0.264948 0.376060
O O3 0.139123 0.278246 0.250000
O O4 0.988111 0.379336 0.228144
O O5 0.466129 0.773326 0.463735
O O6 0.581031 0.647971 0.500142
O O7 0.464750 0.611095 0.338467
O O8 0.102600 0.246767 0.023016
#
# Coordination Sequence:
#
# PCOD9578007 Si02
#       4
#    12  12  12   6
#     4  11  23  41  67  98 126 170 219 272 318 385
#     4   9  19  35  60  92 116 157 202 258 305 375
#     4  11  23  39  60  89 128 167 206 256 320 381
#     4  10  18  36  66  96 126 154 212 266 322 368
#
# _framework density 23.062346999999999
#
# number of rings (size 3 to 8) (size 9 to 14) (size 15 to 20)
#    0.571    1.143    0.000    6.571    0.000    1.143 
#    1.714    2.857    0.000    0.000    0.000    0.000 
#    0.000    0.000    0.000    0.000    0.000    0.000 
#
# Total GULP energy -234000.429936 kJ/mol
# GULP energy per Si atom -5571.438808 kJ/mol
# Density = 2.300986 g / cm^3
# Si number density = 23.062347 Si / 1000 Ang^3
#
#
#
# Elastic Constant Matrix: (Units=GPa)
#
#
# Indices 1 2 3 4 5 6 
#
# 1 99.3428 30.7738 -2.2969 0.0001 2.3226 0.0000
# 2 30.7738 99.3428 -2.2969 -0.0001 -2.3226 0.0000
# 3 -2.2969 -2.2969 36.4455 0.0000 0.0000 0.0000
# 4 0.0001 -0.0001 0.0000 6.6684 0.0000 -2.3226
# 5 2.3226 -2.3226 0.0000 0.0000 6.6684 0.0001
# 6 0.0000 0.0000 0.0000 -2.3226 0.0001 34.2845
#
#
#
# Elastic Compliance Matrix: (Units=1/GPa)
#
#
# Indices 1 2 3 4 5 6 
#
# 1 0.011319 -0.003617 0.000485 0.000000 -0.005202 0.000000
# 2 -0.003617 0.011319 0.000485 0.000000 0.005202 0.000000
# 3 0.000485 0.000485 0.027499 0.000000 0.000000 0.000000
# 4 0.000000 0.000000 0.000000 0.153585 0.000000 0.010405
# 5 -0.005202 0.005202 0.000000 0.000000 0.153585 -0.000001
# 6 0.000000 0.000000 0.000000 0.010405 -0.000001 0.029873
#
#
# Mechanical properties :
#
#
# Convention : Reuss Voigt Hill
#
# Bulk Modulus (GPa) = 22.29842 31.94345 27.12094
# Shear Modulus (GPa) = 12.27232 23.45434 17.86333
#
# Velocity S-wave (km/s) = 2.30931 3.19250 2.78612
# Velocity P-wave (km/s) = 4.09882 5.24122 4.70482
#
# Compressibility (1/GPa) = 0.04484623
#
# Stress axis : x y z
#
# Youngs Moduli (GPa) = 88.34375 88.34375 36.36445
#
# Poissons Ratio (x) = 0.31953 -0.01765
# Poissons Ratio (y) = 0.31953 -0.01765
# Poissons Ratio (z) = -0.04289 -0.04289
#
# Static dielectric constant tensor:
#      x y z
#    x 2.056470 0.000000 0.000000 
#    y 0.000000 2.056470 0.000000 
#    z 0.000000 0.000000 1.827190 
# 
# From -- ./inp_files/2903.got.cif
#   From: 2010.05.17/outbox.cif.g08.bks.cpg/sg163_2_cif.got.tgz:2903.got - 2010.05.20 10:56:03.
