data_PCOD9578932
_publ_section_title
;
Structure prediction by ZEFSAII (Michael W. Deem and Ramdas Pophale) SiO2 
 PCOD9578932
Probable space group: P -3 C 1
;
_chemical_formula_sum "Si O2"
_cell_formula_units_Z 60
_cell_length_a 13.980156
_cell_length_b 13.980156
_cell_length_c 14.400227
_cell_angle_alpha 90.000000
_cell_angle_beta 90.000000
_cell_angle_gamma 120.000000
_cell_volume 2437.384276
_symmetry_space_group_name_H-M "P -3 C 1"
_symmetry_group_IT_number 165
_symmetry_cell_setting 'hexagonal'
loop_
_space_group_symop_operation_xyz
x,y,z
-y,x-y,z
-x+y,-x,z
x-y,-y,1/2-z
-x,-x+y,1/2-z
y,x,1/2-z
-x,-y,-z
y,-x+y,-z
x-y,x,-z
-x+y,y,1/2+z
x,x-y,1/2+z
-y,-x,1/2+z
loop_
_atom_site_type_symbol
_atom_site_label
_atom_site_fract_x
_atom_site_fract_y
_atom_site_fract_z
Si Si1 0.163685 0.698297 0.310935
Si Si2 0.127834 0.874979 0.221792
Si Si3 0.086730 0.848388 0.015612
Si Si4 0.562250 0.505118 0.870228
Si Si5 0.334148 0.871511 0.433415
O O1 0.180876 0.810525 0.268896
O O2 0.135896 0.616824 0.220182
O O3 0.269065 0.751992 0.381166
O O4 0.044065 0.634149 0.363419
O O5 0.145012 0.867556 0.113371
O O6 0.000000 0.812120 0.250000
O O7 0.181888 0.000000 0.250000
O O8 0.098721 0.758148 0.960222
O O9 0.962915 0.816690 0.037330
O O10 0.429746 0.454031 0.876226
O O11 0.607234 0.484293 0.966894
#
# Coordination Sequence:
#
# PCOD9578932 Si02
#       5
#    12  12  12  12  12
#     4  11  22  47  71 104 155 193 253 335 386 466
#     4  12  22  38  63 102 151 199 237 292 361 457
#     4  12  24  41  67 110 158 203 244 295 374 473
#     4  10  23  46  74 108 151 203 261 334 405 478
#     4  11  22  43  77 105 142 214 264 316 402 476
#
# _framework density 24.616553
#
# number of rings (size 3 to 8) (size 9 to 14) (size 15 to 20)
#    0.000    0.800    4.000    5.200    0.000    0.000 
#   12.000    4.000    0.000    0.000    0.000    0.000 
#    0.000    0.000    0.000    0.000    0.000    0.000 
#
# Total GULP energy -335155.558169 kJ/mol
# GULP energy per Si atom -5585.925969 kJ/mol
# Density = 2.456052 g / cm^3
# Si number density = 24.616553 Si / 1000 Ang^3
#
#
#
# Elastic Constant Matrix: (Units=GPa)
#
#
# Indices 1 2 3 4 5 6 
#
# 1 92.2720 44.1279 51.0146 -0.8647 0.0000 0.0000
# 2 44.1279 92.2720 51.0146 0.8647 0.0000 0.0000
# 3 51.0146 51.0146 167.1152 0.0000 0.0000 0.0000
# 4 -0.8647 0.8647 0.0000 42.0697 0.0000 0.0000
# 5 0.0000 0.0000 0.0000 0.0000 42.0697 -0.8647
# 6 0.0000 0.0000 0.0000 0.0000 -0.8647 24.0720
#
#
#
# Elastic Compliance Matrix: (Units=1/GPa)
#
#
# Indices 1 2 3 4 5 6 
#
# 1 0.015144 -0.005643 -0.002900 0.000427 0.000000 0.000000
# 2 -0.005643 0.015144 -0.002900 -0.000427 0.000000 0.000000
# 3 -0.002900 -0.002900 0.007755 0.000000 0.000000 0.000000
# 4 0.000427 -0.000427 0.000000 0.023788 0.000000 0.000000
# 5 0.000000 0.000000 0.000000 0.000000 0.023788 0.000855
# 6 0.000000 0.000000 0.000000 0.000000 0.000855 0.041573
#
#
# Mechanical properties :
#
#
# Convention : Reuss Voigt Hill
#
# Bulk Modulus (GPa) = 65.98413 71.55259 68.76836
# Shear Modulus (GPa) = 32.23143 35.34242 33.78693
#
# Velocity S-wave (km/s) = 3.62241 3.79320 3.70878
# Velocity P-wave (km/s) = 6.66024 6.95086 6.80710
#
# Compressibility (1/GPa) = 0.01515516
#
# Stress axis : x y z
#
# Youngs Moduli (GPa) = 66.03456 66.03456 128.95551
#
# Poissons Ratio (x) = 0.37262 0.37401
# Poissons Ratio (y) = 0.37262 0.37401
# Poissons Ratio (z) = 0.19152 0.19152
#
# Static dielectric constant tensor:
#      x y z
#    x 1.890600 0.000000 0.000000 
#    y 0.000000 1.890600 0.000000 
#    z 0.000000 0.000000 2.155270 
# 
# From -- ./inp_files/1692.got.cif
#   From: 2010.05.17/outbox.cif.g08.bks.cpg/sg165_1_cif.got.tgz:1692.got - 2010.05.20 11:02:39.
