data_PCOD9578001
_publ_section_title
;
Structure prediction by ZEFSAII (Michael W. Deem and Ramdas Pophale) SiO2 
 PCOD9578001
Probable space group: P -3 1 C
;
_chemical_formula_sum "Si O2"
_cell_formula_units_Z 84
_cell_length_a 16.917661
_cell_length_b 16.917661
_cell_length_c 14.615882
_cell_angle_alpha 90.000000
_cell_angle_beta 90.000000
_cell_angle_gamma 120.000000
_cell_volume 3622.732742
_symmetry_space_group_name_H-M "P -3 1 C"
_symmetry_group_IT_number 163
_symmetry_cell_setting 'hexagonal'
loop_
_space_group_symop_operation_xyz
x,y,z
-y,x-y,z
-x+y,-x,z
-y,-x,1/2-z
-x+y,y,1/2-z
x,x-y,1/2-z
-x,-y,-z
y,-x+y,-z
x-y,x,-z
y,x,1/2+z
x-y,-y,1/2+z
-x,-x+y,1/2+z
loop_
_atom_site_type_symbol
_atom_site_label
_atom_site_fract_x
_atom_site_fract_y
_atom_site_fract_z
Si Si1 0.779315 0.603599 0.385749
Si Si2 0.560452 0.423251 0.652524
Si Si3 0.926183 0.797311 0.889645
Si Si4 0.638643 0.515494 0.033949
Si Si5 0.806884 0.877971 0.887460
Si Si6 0.931245 0.623206 0.927920
Si Si7 0.586415 0.065269 0.167743
O O1 0.812175 0.531163 0.397927
O O2 0.852365 0.705529 0.359715
O O3 0.742561 0.609042 0.486508
O O4 0.693181 0.575150 0.322999
O O5 0.593715 0.406286 0.750000
O O6 0.530701 0.359670 0.562377
O O7 0.633352 0.527320 0.623913
O O8 0.464671 0.421017 0.671913
O O9 0.840819 0.808053 0.858710
O O10 0.929964 0.705036 0.871409
O O11 0.017905 0.887321 0.858050
O O12 0.928767 0.804235 0.001089
O O13 0.649145 0.617109 0.032886
O O14 0.539434 0.448692 0.076130
O O15 0.547864 0.095728 0.250000
#
# Coordination Sequence:
#
# PCOD9578001 Si02
#       7
#    12  12  12  12  12  12  12
#     4  11  20  33  58  88 126 166 213 252 325 391
#     4  10  20  38  63  86 114 154 207 269 328 376
#     4   9  16  27  47  83 132 171 213 257 311 371
#     4  11  20  38  60  86 125 160 201 264 321 386
#     4   9  17  27  47  85 131 177 209 261 309 375
#     4  10  18  34  56  87 118 160 210 259 315 373
#     4  10  21  38  61  88 119 153 200 261 321 383
#
# _framework density 23.186916
#
# number of rings (size 3 to 8) (size 9 to 14) (size 15 to 20)
#    0.000    2.000    4.286    1.143    2.000    1.714 
#    0.857    0.714    0.000    1.714    0.000    0.000 
#    4.286    0.000    0.000    0.286    0.000    0.000 
#
# Total GULP energy -468580.658521 kJ/mol
# GULP energy per Si atom -5578.341173 kJ/mol
# Density = 2.313414 g / cm^3
# Si number density = 23.186916 Si / 1000 Ang^3
#
#
#
# Elastic Constant Matrix: (Units=GPa)
#
#
# Indices 1 2 3 4 5 6 
#
# 1 56.4084 13.9572 -2.8050 0.0001 0.5319 0.0000
# 2 13.9572 56.4084 -2.8050 -0.0001 -0.5319 0.0000
# 3 -2.8050 -2.8050 69.7133 0.0000 0.0000 0.0000
# 4 0.0001 -0.0001 0.0000 1.8766 0.0000 -0.5319
# 5 0.5319 -0.5319 0.0000 0.0000 1.8766 0.0001
# 6 0.0000 0.0000 0.0000 -0.5319 0.0001 21.2256
#
#
#
# Elastic Compliance Matrix: (Units=1/GPa)
#
#
# Indices 1 2 3 4 5 6 
#
# 1 0.018991 -0.004734 0.000574 -0.000001 -0.006724 0.000000
# 2 -0.004734 0.018991 0.000574 0.000001 0.006724 0.000000
# 3 0.000574 0.000574 0.014391 0.000000 0.000000 0.000000
# 4 -0.000001 0.000001 0.000000 0.536691 0.000000 0.013449
# 5 -0.006724 0.006724 0.000000 0.000000 0.536691 -0.000001
# 6 0.000000 0.000000 0.000000 0.013449 -0.000001 0.047450
#
#
# Mechanical properties :
#
#
# Convention : Reuss Voigt Hill
#
# Bulk Modulus (GPa) = 22.12406 22.13608 22.13007
# Shear Modulus (GPa) = 4.18255 16.60796 10.39525
#
# Velocity S-wave (km/s) = 1.34453 2.67921 2.11966
# Velocity P-wave (km/s) = 3.46015 4.37475 3.94405
#
# Compressibility (1/GPa) = 0.04519966
#
# Stress axis : x y z
#
# Youngs Moduli (GPa) = 52.65629 52.65629 69.48971
#
# Poissons Ratio (x) = 0.24927 -0.03986
# Poissons Ratio (y) = 0.24927 -0.03986
# Poissons Ratio (z) = -0.03021 -0.03021
#
# Static dielectric constant tensor:
#      x y z
#    x 1.862820 0.000000 0.000000 
#    y 0.000000 1.862820 0.000000 
#    z 0.000000 0.000000 1.993900 
# 
# From -- ./inp_files/2683.got.cif
#   From: 2010.05.17/outbox.cif.g08.bks.cpg/sg163_2_cif.got.tgz:2683.got - 2010.05.20 10:56:03.
