data_PCOD9578421
_publ_section_title
;
Structure prediction by ZEFSAII (Michael W. Deem and Ramdas Pophale) SiO2 
 PCOD9578421
Probable space group: P -3 M 1
;
_chemical_formula_sum "Si O2"
_cell_formula_units_Z 60
_cell_length_a 18.975465
_cell_length_b 18.975465
_cell_length_c 12.714708
_cell_angle_alpha 90.000000
_cell_angle_beta 90.000000
_cell_angle_gamma 120.000000
_cell_volume 3964.805407
_symmetry_space_group_name_H-M "P -3 M 1"
_symmetry_group_IT_number 164
_symmetry_cell_setting 'hexagonal'
loop_
_space_group_symop_operation_xyz
x,y,z
-y,x-y,z
-x+y,-x,z
x-y,-y,-z
-x,-x+y,-z
y,x,-z
-x,-y,-z
y,-x+y,-z
x-y,x,-z
-x+y,y,z
x,x-y,z
-y,-x,z
loop_
_atom_site_type_symbol
_atom_site_label
_atom_site_fract_x
_atom_site_fract_y
_atom_site_fract_z
Si Si1 0.285719 0.414303 0.203965
Si Si2 0.332119 0.823914 0.998681
Si Si3 0.332835 0.829090 0.420255
Si Si4 0.564978 0.599798 0.838333
Si Si5 0.333312 0.501884 0.656784
O O1 0.187760 0.375520 0.190421
O O2 0.322699 0.490273 0.122791
O O3 0.306112 0.441482 0.324483
O O4 0.341353 0.375803 0.172942
O O5 0.399424 0.798848 0.976887
O O6 0.244931 0.755069 0.957916
O O7 0.363764 0.909756 0.941659
O O8 0.422078 0.844155 0.399375
O O9 0.267109 0.732892 0.423135
O O10 0.330975 0.859860 0.537521
O O11 0.498051 0.501950 0.838436
O O12 0.540460 0.637398 0.740742
O O13 0.246238 0.492475 0.681612
O O14 0.402853 0.597148 0.655846
#
# Coordination Sequence:
#
# PCOD9578421 Si02
#       5
#    12  12  12  12  12
#     4  10  20  31  42  57  78 107 143 181 218 251
#     4  10  19  30  45  64  86 111 139 172 209 250
#     4   9  16  26  40  58  80 106 138 175 212 247
#     4  10  19  30  44  61  82 109 140 174 212 251
#     4   9  17  28  43  63  87 114 142 173 208 246
#
# _framework density 15.133152000000001
#
# number of rings (size 3 to 8) (size 9 to 14) (size 15 to 20)
#    0.000    2.400    0.000    3.600    0.000    4.000 
#    0.000    7.000    0.000    0.400    0.000    0.000 
#    0.000    0.000    0.000    4.800    0.000   36.000 
#
# Total GULP energy -334034.563814 kJ/mol
# GULP energy per Si atom -5567.242730 kJ/mol
# Density = 1.509871 g / cm^3
# Si number density = 15.133152 Si / 1000 Ang^3
#
#
#
# Elastic Constant Matrix: (Units=GPa)
#
#
# Indices 1 2 3 4 5 6 
#
# 1 53.9726 23.2204 13.1701 1.0429 0.0000 0.0000
# 2 23.2204 53.9726 13.1701 -1.0429 0.0000 0.0000
# 3 13.1701 13.1701 68.4959 0.0000 0.0000 0.0000
# 4 1.0429 -1.0429 0.0000 14.4298 0.0000 0.0000
# 5 0.0000 0.0000 0.0000 0.0000 14.4298 1.0429
# 6 0.0000 0.0000 0.0000 0.0000 1.0429 15.3761
#
#
#
# Elastic Compliance Matrix: (Units=1/GPa)
#
#
# Indices 1 2 3 4 5 6 
#
# 1 0.023271 -0.009407 -0.002666 -0.002362 0.000000 0.000000
# 2 -0.009407 0.023271 -0.002666 0.002362 0.000000 0.000000
# 3 -0.002666 -0.002666 0.015625 0.000000 0.000000 0.000000
# 4 -0.002362 0.002362 0.000000 0.069642 0.000000 0.000000
# 5 0.000000 0.000000 0.000000 0.000000 0.069642 -0.004723
# 6 0.000000 0.000000 0.000000 0.000000 -0.004723 0.065356
#
#
# Mechanical properties :
#
#
# Convention : Reuss Voigt Hill
#
# Bulk Modulus (GPa) = 30.59051 30.61804 30.60428
# Shear Modulus (GPa) = 16.27702 17.30584 16.79143
#
# Velocity S-wave (km/s) = 3.28317 3.38534 3.33465
# Velocity P-wave (km/s) = 5.88476 5.96298 5.92400
#
# Compressibility (1/GPa) = 0.03268987
#
# Stress axis : x y z
#
# Youngs Moduli (GPa) = 42.97161 42.97161 64.00188
#
# Poissons Ratio (x) = 0.40423 0.17061
# Poissons Ratio (y) = 0.40423 0.17061
# Poissons Ratio (z) = 0.11455 0.11455
#
# Static dielectric constant tensor:
#      x y z
#    x 1.503990 0.000000 0.000000 
#    y 0.000000 1.503990 0.000000 
#    z 0.000000 0.000000 1.551510 
# 
# From -- ./inp_files/2685.got.cif
#   From: 2010.05.17/outbox.cif.g08.bks.cpg/sg164_2_cif.got.tgz:2685.got - 2010.05.20 10:58:56.
