data_PCOD9578772
_publ_section_title
;
Structure prediction by ZEFSAII (Michael W. Deem and Ramdas Pophale) SiO2 
 PCOD9578772
Probable space group: P -3 C 1
;
_chemical_formula_sum "Si O2"
_cell_formula_units_Z 66
_cell_length_a 29.490236
_cell_length_b 29.490236
_cell_length_c 5.563113
_cell_angle_alpha 90.000000
_cell_angle_beta 90.000000
_cell_angle_gamma 120.000000
_cell_volume 4189.913040
_symmetry_space_group_name_H-M "P -3 C 1"
_symmetry_group_IT_number 165
_symmetry_cell_setting 'hexagonal'
loop_
_space_group_symop_operation_xyz
x,y,z
-y,x-y,z
-x+y,-x,z
x-y,-y,1/2-z
-x,-x+y,1/2-z
y,x,1/2-z
-x,-y,-z
y,-x+y,-z
x-y,x,-z
-x+y,y,1/2+z
x,x-y,1/2+z
-y,-x,1/2+z
loop_
_atom_site_type_symbol
_atom_site_label
_atom_site_fract_x
_atom_site_fract_y
_atom_site_fract_z
Si Si1 0.904054 0.563573 0.537192
Si Si2 0.716338 0.051385 0.860942
Si Si3 0.195977 0.759375 0.105077
Si Si4 0.062477 0.505113 0.234677
Si Si5 0.375223 0.375223 0.250000
Si Si6 0.683059 0.828488 0.068636
O O1 0.921869 0.619240 0.663345
O O2 0.850961 0.550634 0.404954
O O3 0.903458 0.523469 0.731516
O O4 0.952542 0.573768 0.366587
O O5 0.770857 0.095917 0.960051
O O6 0.714318 0.000000 0.750000
O O7 0.671044 0.028404 0.058739
O O8 0.227643 0.772045 0.354511
O O9 0.174428 0.800884 0.096883
O O10 0.073069 0.540584 0.474072
O O11 0.000000 0.463280 0.250000
O O12 0.709255 0.849217 0.327521
#
# Coordination Sequence:
#
# PCOD9578772 Si02
#       6
#    12  12  12  12   6  12
#     4  11  21  32  49  67  90 124 161 197 231 282
#     4  10  20  29  44  68  90 119 158 198 233 277
#     4  10  19  31  49  68  91 116 149 189 240 281
#     4  10  23  37  49  65  91 126 164 196 231 279
#     4  10  20  28  44  66  88 118 160 198 228 266
#     4  10  18  31  45  62  89 119 149 187 239 279
#
# _framework density 15.752117999999999
#
# number of rings (size 3 to 8) (size 9 to 14) (size 15 to 20)
#    0.000    1.818    3.636    3.818    8.909    0.000 
#    0.000    0.000    0.000    0.000    0.000    0.000 
#    0.000    0.000    0.000   10.909    0.000    0.000 
#
# Total GULP energy -367782.509222 kJ/mol
# GULP energy per Si atom -5572.462261 kJ/mol
# Density = 1.571627 g / cm^3
# Si number density = 15.752118 Si / 1000 Ang^3
#
#
#
# Elastic Constant Matrix: (Units=GPa)
#
#
# Indices 1 2 3 4 5 6 
#
# 1 42.9896 28.3329 13.3563 -7.3053 0.0000 0.0000
# 2 28.3329 42.9896 13.3563 7.3053 0.0000 0.0000
# 3 13.3563 13.3563 95.5712 0.0000 0.0000 0.0000
# 4 -7.3053 7.3053 0.0000 20.4398 0.0000 0.0000
# 5 0.0000 0.0000 0.0000 0.0000 20.4398 -7.3053
# 6 0.0000 0.0000 0.0000 0.0000 -7.3053 7.3284
#
#
#
# Elastic Compliance Matrix: (Units=1/GPa)
#
#
# Indices 1 2 3 4 5 6 
#
# 1 0.060393 -0.045598 -0.002068 0.037882 0.000000 0.000000
# 2 -0.045598 0.060393 -0.002068 -0.037882 0.000000 0.000000
# 3 -0.002068 -0.002068 0.011041 0.000000 0.000000 0.000000
# 4 0.037882 -0.037882 0.000000 0.076003 0.000000 0.000000
# 5 0.000000 0.000000 0.000000 0.000000 0.076003 0.075764
# 6 0.000000 0.000000 0.000000 0.000000 0.075764 0.211981
#
#
# Mechanical properties :
#
#
# Convention : Reuss Voigt Hill
#
# Bulk Modulus (GPa) = 30.90129 32.40461 31.65295
# Shear Modulus (GPa) = 8.24992 18.07525 13.16259
#
# Velocity S-wave (km/s) = 2.29101 3.39112 2.89382
# Velocity P-wave (km/s) = 5.16315 5.99577 5.59497
#
# Compressibility (1/GPa) = 0.03236111
#
# Stress axis : x y z
#
# Youngs Moduli (GPa) = 16.55824 16.55824 90.56887
#
# Poissons Ratio (x) = 0.75502 0.18727
# Poissons Ratio (y) = 0.75502 0.18727
# Poissons Ratio (z) = 0.03424 0.03424
#
# Static dielectric constant tensor:
#      x y z
#    x 1.522040 0.000000 0.000000 
#    y 0.000000 1.522040 0.000000 
#    z 0.000000 0.000000 1.641240 
# 
# From -- ./inp_files/216.got.cif
#   From: 2010.05.17/outbox.cif.g08.bks.cpg/sg165_1_cif.got.tgz:216.got - 2010.05.20 11:02:39.
