data_PCOD9578675
_publ_section_title
;
Structure prediction by ZEFSAII (Michael W. Deem and Ramdas Pophale) SiO2 
 PCOD9578675
Probable space group: P -3 M 1
;
_chemical_formula_sum "Si O2"
_cell_formula_units_Z 48
_cell_length_a 12.027228
_cell_length_b 12.027228
_cell_length_c 21.745795
_cell_angle_alpha 90.000000
_cell_angle_beta 90.000000
_cell_angle_gamma 120.000000
_cell_volume 2724.187584
_symmetry_space_group_name_H-M "P -3 M 1"
_symmetry_group_IT_number 164
_symmetry_cell_setting 'hexagonal'
loop_
_space_group_symop_operation_xyz
x,y,z
-y,x-y,z
-x+y,-x,z
x-y,-y,-z
-x,-x+y,-z
y,x,-z
-x,-y,-z
y,-x+y,-z
x-y,x,-z
-x+y,y,z
x,x-y,z
-y,-x,z
loop_
_atom_site_type_symbol
_atom_site_label
_atom_site_fract_x
_atom_site_fract_y
_atom_site_fract_z
Si Si1 0.734905 0.734500 0.684149
Si Si2 0.593945 0.925619 0.809605
Si Si3 0.508931 0.491070 0.612685
Si Si4 0.587060 0.174120 0.501401
Si Si5 0.667360 0.069474 0.936400
O O1 0.740797 0.870399 0.669972
O O2 0.699189 0.705573 0.756387
O O3 0.614824 0.614417 0.649850
O O4 0.869981 0.739961 0.670944
O O5 0.470869 0.941738 0.797213
O O6 0.552943 0.776472 0.808106
O O7 0.646478 0.982551 0.876768
O O8 0.574266 0.425735 0.574045
O O9 0.463702 0.536299 0.552647
O O10 0.737817 0.262184 0.489279
O O11 0.546671 0.093341 0.938294
O O12 0.797942 0.202059 0.930707
O O13 0.663357 0.000000 0.000000
#
# Coordination Sequence:
#
# PCOD9578675 Si02
#       5
#    12  12   6   6  12
#     4  11  23  39  59  88 124 167 204 249 302 368
#     4  10  20  36  56  83 115 150 195 248 301 355
#     4  11  20  38  62  90 119 160 204 246 301 352
#     4   9  20  36  58  88 120 151 190 252 294 349
#     4  10  20  34  54  78 107 145 189 241 298 360
#
# _framework density 17.619931000000001
#
# number of rings (size 3 to 8) (size 9 to 14) (size 15 to 20)
#    0.250    1.500    1.250    3.750    0.000    0.000 
#    1.500    2.500    0.000    6.000    0.000    8.750 
#    0.000    0.000    0.000    0.000    0.000    0.000 
#
# Total GULP energy -267281.781049 kJ/mol
# GULP energy per Si atom -5568.370439 kJ/mol
# Density = 1.757983 g / cm^3
# Si number density = 17.619931 Si / 1000 Ang^3
#
#
#
# Elastic Constant Matrix: (Units=GPa)
#
#
# Indices 1 2 3 4 5 6 
#
# 1 74.8987 67.7221 41.0428 8.5998 0.0000 0.0000
# 2 67.7221 74.8987 41.0428 -8.5998 0.0000 0.0000
# 3 41.0428 41.0428 102.8527 0.0000 0.0000 0.0000
# 4 8.5998 -8.5998 0.0000 20.8530 0.0000 0.0000
# 5 0.0000 0.0000 0.0000 0.0000 20.8530 8.5998
# 6 0.0000 0.0000 0.0000 0.0000 8.5998 3.5883
#
#
#
# Elastic Compliance Matrix: (Units=1/GPa)
#
#
# Indices 1 2 3 4 5 6 
#
# 1 5.991771 -5.982669 -0.003632 -4.938274 -0.000014 0.000034
# 2 -5.982669 5.991771 -0.003632 4.938274 0.000014 -0.000034
# 3 -0.003632 -0.003632 0.012621 0.000000 0.000000 0.000000
# 4 -4.938274 4.938274 0.000000 4.121056 0.000012 -0.000028
# 5 -0.000014 0.000014 0.000000 0.000012 4.121042 -9.876516
# 6 0.000034 -0.000034 0.000000 -0.000028 -9.876516 23.948802
#
#
# Mechanical properties :
#
#
# Convention : Reuss Voigt Hill
#
# Bulk Modulus (GPa) = 61.36087 61.36283 61.36185
# Shear Modulus (GPa) = 0.08901 15.91505 8.00203
#
# Velocity S-wave (km/s) = 0.22501 3.00866 2.13338
# Velocity P-wave (km/s) = 5.91336 6.85352 6.40073
#
# Compressibility (1/GPa) = 0.01629703
#
# Stress axis : x y z
#
# Youngs Moduli (GPa) = 0.16690 0.16690 79.23051
#
# Poissons Ratio (x) = 0.99848 0.28778
# Poissons Ratio (y) = 0.99848 0.28778
# Poissons Ratio (z) = 0.00061 0.00061
#
# Static dielectric constant tensor:
#      x y z
#    x 1.657510 0.000000 0.000000 
#    y 0.000000 1.657510 0.000000 
#    z 0.000000 0.000000 1.595820 
# 
# From -- ./inp_files/4391.got.cif
#   From: 2010.05.17/outbox.cif.g08.bks.cpg/sg164_3_cif.got.tgz:4391.got - 2010.05.20 10:58:56.
