data_PCOD9578602
_publ_section_title
;
Structure prediction by ZEFSAII (Michael W. Deem and Ramdas Pophale) SiO2 
 PCOD9578602
Probable space group: P -3 M 1
;
_chemical_formula_sum "Si O2"
_cell_formula_units_Z 60
_cell_length_a 12.791538
_cell_length_b 12.791538
_cell_length_c 25.968246
_cell_angle_alpha 90.000000
_cell_angle_beta 90.000000
_cell_angle_gamma 120.000000
_cell_volume 3679.753940
_symmetry_space_group_name_H-M "P -3 M 1"
_symmetry_group_IT_number 164
_symmetry_cell_setting 'hexagonal'
loop_
_space_group_symop_operation_xyz
x,y,z
-y,x-y,z
-x+y,-x,z
x-y,-y,-z
-x,-x+y,-z
y,x,-z
-x,-y,-z
y,-x+y,-z
x-y,x,-z
-x+y,y,z
x,x-y,z
-y,-x,z
loop_
_atom_site_type_symbol
_atom_site_label
_atom_site_fract_x
_atom_site_fract_y
_atom_site_fract_z
Si Si1 0.752664 0.999800 0.441433
Si Si2 0.248307 0.248393 0.851518
Si Si3 0.333747 0.418907 0.654409
Si Si4 0.581598 0.666648 0.950504
Si Si5 0.666877 0.084986 0.752639
O O1 0.746041 0.873021 0.431853
O O2 0.710616 0.000000 0.500000
O O3 0.681377 0.027535 0.398166
O O4 0.891472 0.108529 0.439173
O O5 0.117302 0.234603 0.843576
O O6 0.307624 0.333721 0.900910
O O7 0.331892 0.307626 0.801663
O O8 0.237242 0.118621 0.859885
O O9 0.210697 0.421394 0.662735
O O10 0.446910 0.553091 0.650853
O O11 0.358603 0.354068 0.702018
O O12 0.569386 0.784693 0.958973
O O13 0.451073 0.548928 0.942125
O O14 0.640553 0.640553 0.000000
O O15 0.546635 0.093270 0.760791
O O16 0.782917 0.217084 0.745992
#
# Coordination Sequence:
#
# PCOD9578602 Si02
#       5
#    12  12  12  12  12
#     4   9  17  30  49  72  96 122 154 194 239 284
#     4  10  20  34  52  74 100 129 161 197 238 284
#     4  10  20  33  49  69  95 127 161 196 234 279
#     4  10  20  34  52  74 100 130 164 201 241 284
#     4  10  20  34  52  73  97 125 158 197 240 285
#
# _framework density 16.305437000000001
#
# number of rings (size 3 to 8) (size 9 to 14) (size 15 to 20)
#    0.000    2.200    0.000    3.400    0.000    1.200 
#    0.000    0.000    0.000   22.800    0.000    0.000 
#    0.000    0.000    0.000    0.000    0.000    0.000 
#
# Total GULP energy -334812.285936 kJ/mol
# GULP energy per Si atom -5580.204766 kJ/mol
# Density = 1.626832 g / cm^3
# Si number density = 16.305437 Si / 1000 Ang^3
#
#
#
# Elastic Constant Matrix: (Units=GPa)
#
#
# Indices 1 2 3 4 5 6 
#
# 1 131.8350 90.3221 97.0319 5.7286 0.0000 0.0000
# 2 90.3221 131.8350 97.0319 -5.7286 0.0000 0.0000
# 3 97.0319 97.0319 133.8458 0.0000 0.0000 0.0000
# 4 5.7286 -5.7286 0.0000 27.3159 0.0000 0.0000
# 5 0.0000 0.0000 0.0000 0.0000 27.3159 5.7286
# 6 0.0000 0.0000 0.0000 0.0000 5.7286 20.7564
#
#
#
# Elastic Compliance Matrix: (Units=1/GPa)
#
#
# Indices 1 2 3 4 5 6 
#
# 1 0.018922 -0.006647 -0.008898 -0.005362 0.000000 0.000000
# 2 -0.006647 0.018922 -0.008898 0.005362 0.000000 0.000000
# 3 -0.008898 -0.008898 0.020373 0.000000 0.000000 0.000000
# 4 -0.005362 0.005362 0.000000 0.038858 0.000000 0.000000
# 5 0.000000 0.000000 0.000000 0.000000 0.038858 -0.010724
# 6 0.000000 0.000000 0.000000 0.000000 -0.010724 0.051138
#
#
# Mechanical properties :
#
#
# Convention : Reuss Voigt Hill
#
# Bulk Modulus (GPa) = 107.19914 107.36528 107.28221
# Shear Modulus (GPa) = 20.91466 22.61966 21.76716
#
# Velocity S-wave (km/s) = 3.58534 3.72862 3.65768
# Velocity P-wave (km/s) = 9.11190 9.19380 9.15294
#
# Compressibility (1/GPa) = 0.00932843
#
# Stress axis : x y z
#
# Youngs Moduli (GPa) = 52.84958 52.84958 49.08433
#
# Poissons Ratio (x) = 0.35130 0.43677
# Poissons Ratio (y) = 0.35130 0.43677
# Poissons Ratio (z) = 0.47028 0.47028
#
# Static dielectric constant tensor:
#      x y z
#    x 1.517310 0.000000 0.000000 
#    y 0.000000 1.517310 0.000000 
#    z 0.000000 0.000000 1.526840 
# 
# From -- ./inp_files/5170.got.cif
#   From: 2010.05.17/outbox.cif.g08.bks.cpg/sg164_3_cif.got.tgz:5170.got - 2010.05.20 10:58:56.
