data_PCOD9578521
_publ_section_title
;
Structure prediction by ZEFSAII (Michael W. Deem and Ramdas Pophale) SiO2 
 PCOD9578521
Probable space group: P -3 M 1
;
_chemical_formula_sum "Si O2"
_cell_formula_units_Z 54
_cell_length_a 25.302054
_cell_length_b 25.302054
_cell_length_c 5.277955
_cell_angle_alpha 90.000000
_cell_angle_beta 90.000000
_cell_angle_gamma 120.000000
_cell_volume 2926.226044
_symmetry_space_group_name_H-M "P -3 M 1"
_symmetry_group_IT_number 164
_symmetry_cell_setting 'hexagonal'
loop_
_space_group_symop_operation_xyz
x,y,z
-y,x-y,z
-x+y,-x,z
x-y,-y,-z
-x,-x+y,-z
y,x,-z
-x,-y,-z
y,-x+y,-z
x-y,x,-z
-x+y,y,z
x,x-y,z
-y,-x,z
loop_
_atom_site_type_symbol
_atom_site_label
_atom_site_fract_x
_atom_site_fract_y
_atom_site_fract_z
Si Si1 0.539845 0.707738 0.078655
Si Si2 0.834560 0.793489 0.745319
Si Si3 0.000000 0.393384 0.500000
Si Si4 0.273282 0.333333 0.166666
Si Si5 0.498774 0.873179 0.588017
O O1 0.528747 0.764374 0.099165
O O2 0.508087 0.666667 0.833336
O O3 0.613093 0.734508 0.043901
O O4 0.516346 0.666667 0.333336
O O5 0.825246 0.825246 0.500000
O O6 0.902294 0.804587 0.765828
O O7 0.788082 0.720241 0.710568
O O8 0.816988 0.816988 0.000000
O O9 0.961821 0.333333 0.666665
O O10 0.946426 0.401174 0.377231
O O11 0.295154 0.295154 0.000000
O O12 0.431041 0.862082 0.567508
#
# Coordination Sequence:
#
# PCOD9578521 Si02
#       5
#    12  12   6  12  12
#     4  11  23  39  62  88 122 160 203 248 298 353
#     4  11  23  39  62  88 122 160 203 248 298 353
#     4  10  19  36  56  92 128 158 189 232 302 374
#     4  10  19  36  56  92 128 158 189 232 302 374
#     4  11  23  39  62  88 122 160 203 248 298 353
#
# _framework density 18.453802
#
# number of rings (size 3 to 8) (size 9 to 14) (size 15 to 20)
#    0.000    1.333    3.333    3.000    0.000    0.000 
#    0.000   10.000    0.000   13.333    0.000    0.000 
#    0.000    0.000    0.000    0.000    0.000    0.000 
#
# Total GULP energy -300932.439520 kJ/mol
# GULP energy per Si atom -5572.822954 kJ/mol
# Density = 1.841180 g / cm^3
# Si number density = 18.453802 Si / 1000 Ang^3
#
#
#
# Elastic Constant Matrix: (Units=GPa)
#
#
# Indices 1 2 3 4 5 6 
#
# 1 110.4185 100.0845 54.4575 9.4447 0.0000 0.0000
# 2 100.0845 110.4185 54.4575 -9.4447 0.0000 0.0000
# 3 54.4575 54.4575 116.8549 0.0000 0.0000 0.0000
# 4 9.4447 -9.4447 0.0000 19.8867 0.0000 0.0000
# 5 0.0000 0.0000 0.0000 0.0000 19.8867 9.4447
# 6 0.0000 0.0000 0.0000 0.0000 9.4447 5.1670
#
#
#
# Elastic Compliance Matrix: (Units=1/GPa)
#
#
# Indices 1 2 3 4 5 6 
#
# 1 0.369964 -0.363704 -0.002917 -0.348437 0.000000 0.000000
# 2 -0.363704 0.369964 -0.002917 0.348437 0.000000 0.000000
# 3 -0.002917 -0.002917 0.011277 0.000000 0.000000 0.000000
# 4 -0.348437 0.348437 0.000000 0.381248 0.000000 0.000000
# 5 0.000000 0.000000 0.000000 0.000000 0.381248 -0.696874
# 6 0.000000 0.000000 0.000000 0.000000 -0.696874 1.467336
#
#
# Mechanical properties :
#
#
# Convention : Reuss Voigt Hill
#
# Bulk Modulus (GPa) = 82.45800 83.96567 83.21183
# Shear Modulus (GPa) = 1.34259 17.56760 9.45509
#
# Velocity S-wave (km/s) = 0.85388 3.08876 2.26600
# Velocity P-wave (km/s) = 6.76407 7.63674 7.21361
#
# Compressibility (1/GPa) = 0.01212739
#
# Stress axis : x y z
#
# Youngs Moduli (GPa) = 2.70297 2.70297 88.67833
#
# Poissons Ratio (x) = 0.98308 0.25870
# Poissons Ratio (y) = 0.98308 0.25870
# Poissons Ratio (z) = 0.00789 0.00789
#
# Static dielectric constant tensor:
#      x y z
#    x 1.664550 0.000000 0.000000 
#    y 0.000000 1.664550 0.000000 
#    z 0.000000 0.000000 1.650780 
# 
# From -- ./inp_files/555.got.cif
#   From: 2010.05.17/outbox.cif.g08.bks.cpg/sg164_1_cif.got.tgz:555.got - 2010.05.20 10:58:56.
