data_PCOD9578843
_publ_section_title
;
Structure prediction by ZEFSAII (Michael W. Deem and Ramdas Pophale) SiO2 
 PCOD9578843
Probable space group: P -3 C 1
;
_chemical_formula_sum "Si O2"
_cell_formula_units_Z 68
_cell_length_a 11.675623
_cell_length_b 11.675623
_cell_length_c 28.704963
_cell_angle_alpha 90.000000
_cell_angle_beta 90.000000
_cell_angle_gamma 120.000000
_cell_volume 3388.814135
_symmetry_space_group_name_H-M "P -3 C 1"
_symmetry_group_IT_number 165
_symmetry_cell_setting 'hexagonal'
loop_
_space_group_symop_operation_xyz
x,y,z
-y,x-y,z
-x+y,-x,z
x-y,-y,1/2-z
-x,-x+y,1/2-z
y,x,1/2-z
-x,-y,-z
y,-x+y,-z
x-y,x,-z
-x+y,y,1/2+z
x,x-y,1/2+z
-y,-x,1/2+z
loop_
_atom_site_type_symbol
_atom_site_label
_atom_site_fract_x
_atom_site_fract_y
_atom_site_fract_z
Si Si1 0.685919 0.560754 0.021113
Si Si2 0.666667 0.333334 0.849733
Si Si3 0.658866 0.599023 0.557404
Si Si4 0.638164 0.042313 0.161754
Si Si5 0.603639 0.779829 0.201891
Si Si6 0.698695 0.589529 0.191572
Si Si7 0.666668 0.333334 0.959275
O O1 0.682002 0.670110 0.989004
O O2 0.703087 0.472414 0.981502
O O3 0.801595 0.596630 0.057378
O O4 0.546319 0.465775 0.045905
O O5 0.526152 0.299923 0.829438
O O6 0.666668 0.333334 0.904712
O O7 0.627559 0.633141 0.608140
O O8 0.520396 0.070509 0.176459
O O9 0.770562 0.184052 0.164492
O O10 0.644489 0.932391 0.194253
O O11 0.705881 0.731213 0.187712
O O12 0.567745 0.727965 0.254876
#
# Coordination Sequence:
#
# PCOD9578843 Si02
#       7
#    12   4  12  12  12  12   4
#     4   9  19  36  57  83 128 154 203 252 323 370
#     4  12  18  36  63  94 128 166 216 270 312 393
#     4  10  20  37  59  91 116 166 199 261 312 377
#     4  12  23  43  67  97 130 169 223 268 316 396
#     4  11  24  40  63  96 133 170 214 266 328 379
#     4  11  25  41  65  97 128 176 211 271 324 381
#     4   9  18  30  54  91 116 160 201 252 315 369
#
# _framework density 20.066016999999999
#
# number of rings (size 3 to 8) (size 9 to 14) (size 15 to 20)
#    0.000    1.412    1.765    4.412    2.471    0.000 
#   10.588    0.000    0.000    0.353    0.000    0.000 
#    0.000    0.000    0.000    0.000    0.000    0.000 
#
# Total GULP energy -379324.991310 kJ/mol
# GULP energy per Si atom -5578.308696 kJ/mol
# Density = 2.002035 g / cm^3
# Si number density = 20.066017 Si / 1000 Ang^3
#
#
#
# Elastic Constant Matrix: (Units=GPa)
#
#
# Indices 1 2 3 4 5 6 
#
# 1 77.8264 32.7580 23.1104 -0.6238 0.0000 0.0000
# 2 32.7580 77.8267 23.1100 0.6239 0.0000 0.0000
# 3 23.1104 23.1100 110.0770 -0.0002 0.0000 0.0000
# 4 -0.6238 0.6239 -0.0002 12.5959 0.0000 0.0000
# 5 0.0000 0.0000 0.0000 0.0000 12.5954 -0.6239
# 6 0.0000 0.0000 0.0000 0.0000 -0.6239 22.5339
#
#
#
# Elastic Compliance Matrix: (Units=1/GPa)
#
#
# Indices 1 2 3 4 5 6 
#
# 1 0.016066 -0.006153 -0.002081 0.001100 0.000000 0.000000
# 2 -0.006153 0.016066 -0.002081 -0.001100 0.000000 0.000000
# 3 -0.002081 -0.002081 0.009958 0.000000 0.000000 0.000000
# 4 0.001100 -0.001100 0.000000 0.079500 0.000000 0.000000
# 5 0.000000 0.000000 0.000000 0.000000 0.079503 0.002201
# 6 0.000000 0.000000 0.000000 0.000000 0.002201 0.044439
#
#
# Mechanical properties :
#
#
# Convention : Reuss Voigt Hill
#
# Bulk Modulus (GPa) = 46.59991 47.07632 46.83812
# Shear Modulus (GPa) = 18.29390 21.99516 20.14453
#
# Velocity S-wave (km/s) = 3.02269 3.31439 3.17190
# Velocity P-wave (km/s) = 5.95449 6.17726 6.06690
#
# Compressibility (1/GPa) = 0.02145927
#
# Stress axis : x y z
#
# Youngs Moduli (GPa) = 62.24389 62.24426 100.41775
#
# Poissons Ratio (x) = 0.38299 0.20899
# Poissons Ratio (y) = 0.38299 0.20898
# Poissons Ratio (z) = 0.12954 0.12953
#
# Static dielectric constant tensor:
#      x y z
#    x 1.775720 0.000000 0.000000 
#    y 0.000000 1.775720 0.000000 
#    z 0.000000 0.000000 1.731280 
# 
# From -- ./inp_files/3323.got.cif
#   From: 2010.05.17/outbox.cif.g08.bks.cpg/sg165_2_cif.got.tgz:3323.got - 2010.05.20 11:02:39.
