data_PCOD9578232
_publ_section_title
;
Structure prediction by ZEFSAII (Michael W. Deem and Ramdas Pophale) SiO2 
 PCOD9578232
Probable space group: P -3 1 C
;
_chemical_formula_sum "Si O2"
_cell_formula_units_Z 80
_cell_length_a 19.337442
_cell_length_b 19.337442
_cell_length_c 18.195505
_cell_angle_alpha 90.000000
_cell_angle_beta 90.000000
_cell_angle_gamma 120.000000
_cell_volume 5892.407769
_symmetry_space_group_name_H-M "P -3 1 C"
_symmetry_group_IT_number 163
_symmetry_cell_setting 'hexagonal'
loop_
_space_group_symop_operation_xyz
x,y,z
-y,x-y,z
-x+y,-x,z
-y,-x,1/2-z
-x+y,y,1/2-z
x,x-y,1/2-z
-x,-y,-z
y,-x+y,-z
x-y,x,-z
y,x,1/2+z
x-y,-y,1/2+z
-x,-x+y,1/2+z
loop_
_atom_site_type_symbol
_atom_site_label
_atom_site_fract_x
_atom_site_fract_y
_atom_site_fract_z
Si Si1 0.241380 0.037297 0.919196
Si Si2 0.592053 0.714615 0.336889
Si Si3 0.425083 0.850166 0.160848
Si Si4 0.091355 0.908645 0.662288
Si Si5 0.592052 0.877438 0.336889
Si Si6 0.795917 0.758620 0.580804
Si Si7 0.000000 0.000000 0.160842
Si Si8 0.333333 0.666667 0.339628
O O1 0.329609 0.073144 0.885647
O O2 0.224429 0.112214 0.918983
O O3 0.179355 0.964029 0.868800
O O4 0.229693 1.000000 1.000000
O O5 0.517400 0.629814 0.360181
O O6 0.568146 0.784073 0.342363
O O7 0.609611 0.711605 0.250000
O O8 0.424561 0.849122 0.250000
O O9 0.370186 0.887586 0.139819
O O10 0.379066 0.758133 0.136276
O O11 0.093160 0.906841 0.750000
O O12 0.179356 0.964029 0.631200
O O13 0.045287 0.954713 0.636714
O O14 0.670391 0.926856 0.385647
O O15 0.000000 0.000000 0.250000
O O16 0.333334 0.666667 0.250000
#
# Coordination Sequence:
#
# PCOD9578232 Si02
#       8
#    12  12  12  12  12  12   4   4
#     4  11  21  32  44  61  86 116 152 188 225 262
#     4   9  17  28  44  66  90 114 141 174 216 263
#     4   9  14  24  43  67  92 113 135 168 205 256
#     4  11  20  31  46  63  85 113 152 196 229 260
#     4   9  17  28  44  66  90 114 141 174 216 263
#     4  11  21  32  44  61  86 116 152 188 225 262
#     4   9  18  27  40  62  79 102 142 188 229 255
#     4   9  12  18  36  66  93 108 129 153 193 251
#
# _framework density 13.576793
#
# number of rings (size 3 to 8) (size 9 to 14) (size 15 to 20)
#    0.000    2.100    4.500    0.900    0.000    1.200 
#    0.000    2.250    0.000    0.000    0.000    0.000 
#    0.000    0.000    0.000    0.900    0.000   12.150 
#
# Total GULP energy -445439.284063 kJ/mol
# GULP energy per Si atom -5567.991051 kJ/mol
# Density = 1.354589 g / cm^3
# Si number density = 13.576793 Si / 1000 Ang^3
#
#
#
# Elastic Constant Matrix: (Units=GPa)
#
#
# Indices 1 2 3 4 5 6 
#
# 1 87.8231 46.7195 38.2322 0.0000 0.0000 0.0000
# 2 46.7195 87.8231 38.2322 0.0000 0.0000 0.0000
# 3 38.2322 38.2322 66.6645 0.0000 0.0000 0.0000
# 4 0.0000 0.0000 0.0000 12.3919 0.0000 0.0000
# 5 0.0000 0.0000 0.0000 0.0000 12.3919 0.0000
# 6 0.0000 0.0000 0.0000 0.0000 0.0000 20.5518
#
#
#
# Elastic Compliance Matrix: (Units=1/GPa)
#
#
# Indices 1 2 3 4 5 6 
#
# 1 0.017678 -0.006651 -0.006324 0.000000 0.000000 0.000000
# 2 -0.006651 0.017678 -0.006324 0.000000 0.000000 0.000000
# 3 -0.006324 -0.006324 0.022254 0.000000 0.000000 0.000000
# 4 0.000000 0.000000 0.000000 0.080698 0.000000 0.000000
# 5 0.000000 0.000000 0.000000 0.000000 0.080698 0.000000
# 6 0.000000 0.000000 0.000000 0.000000 0.000000 0.048658
#
#
# Mechanical properties :
#
#
# Convention : Reuss Voigt Hill
#
# Bulk Modulus (GPa) = 52.59847 54.29763 53.44805
# Shear Modulus (GPa) = 15.99506 17.00891 16.50198
#
# Velocity S-wave (km/s) = 3.43610 3.54332 3.49012
# Velocity P-wave (km/s) = 7.38701 7.53790 7.46284
#
# Compressibility (1/GPa) = 0.01901196
#
# Stress axis : x y z
#
# Youngs Moduli (GPa) = 56.56853 56.56850 44.93609
#
# Poissons Ratio (x) = 0.37624 0.28416
# Poissons Ratio (y) = 0.37624 0.28416
# Poissons Ratio (z) = 0.35772 0.35772
#
# Static dielectric constant tensor:
#      x y z
#    x 1.449310 0.000000 0.000000 
#    y 0.000000 1.449310 0.000000 
#    z 0.000000 0.000000 1.427110 
# 
# From -- ./inp_files/3280.got.cif
#   From: 2010.05.17/outbox.cif.g08.bks.cpg/sg163_2_cif.got.tgz:3280.got - 2010.05.20 10:56:03.
