data_PCOD9578754
_publ_section_title
;
Structure prediction by ZEFSAII (Michael W. Deem and Ramdas Pophale) SiO2 
 PCOD9578754
Probable space group: P -3 M 1
;
_chemical_formula_sum "Si O2"
_cell_formula_units_Z 84
_cell_length_a 18.000000
_cell_length_b 18.000000
_cell_length_c 15.000000
_cell_angle_alpha 90.000000
_cell_angle_beta 90.000000
_cell_angle_gamma 120.000000
_cell_volume 4208.883462
_symmetry_space_group_name_H-M "P -3 M 1"
_symmetry_group_IT_number 164
_symmetry_cell_setting 'hexagonal'
loop_
_space_group_symop_operation_xyz
x,y,z
-y,x-y,z
-x+y,-x,z
x-y,-y,-z
-x,-x+y,-z
y,x,-z
-x,-y,-z
y,-x+y,-z
x-y,x,-z
-x+y,y,z
x,x-y,z
-y,-x,z
loop_
_atom_site_type_symbol
_atom_site_label
_atom_site_fract_x
_atom_site_fract_y
_atom_site_fract_z
Si Si1 0.503811 0.667511 0.796118
Si Si2 0.090093 0.351025 0.147481
Si Si3 0.815197 0.816878 0.739706
Si Si4 0.360264 0.296857 0.355344
Si Si5 0.668915 0.169942 0.492203
Si Si6 0.533633 0.637720 0.314086
Si Si7 0.488367 0.154349 0.995440
O O1 0.469801 0.734901 0.793837
O O2 0.427382 0.572619 0.771585
O O3 0.583989 0.703606 0.729332
O O4 0.529682 0.665093 0.898881
O O5 0.169072 0.338143 0.123086
O O6 0.116476 0.415654 0.232484
O O7 0.087691 0.408728 0.066089
O O8 0.018916 0.255081 0.181595
O O9 0.827223 0.913612 0.752804
O O10 0.741406 0.770866 0.661142
O O11 0.909974 0.819948 0.727823
O O12 0.409058 0.293199 0.443617
O O13 0.378590 0.393393 0.354083
O O14 0.570819 0.141637 0.467950
O O15 0.732295 0.267706 0.464202
O O16 0.671905 0.164197 0.599350
O O17 0.449115 0.550886 0.283208
O O18 0.577180 0.154360 0.975826
O O19 0.501086 0.250543 0.980887
#
# Coordination Sequence:
#
# PCOD9578754 Si02
#       7
#    12  12  12  12  12  12  12
#     4  10  19  32  53  83 121 161 197 230 266 315
#     4   9  18  33  54  81 111 145 186 230 279 333
#     4  10  21  39  63  87 109 136 177 233 297 360
#     4  11  22  37  57  83 113 146 187 232 284 339
#     4  11  22  36  56  84 120 160 199 234 268 313
#     4  10  20  34  52  76 110 151 194 237 276 319
#     4   9  17  30  51  82 120 161 198 229 263 310
#
# _framework density 19.957787
#
# number of rings (size 3 to 8) (size 9 to 14) (size 15 to 20)
#    0.000    2.000    0.000    4.429    0.000    2.857 
#    0.000    4.286    0.000   15.714    0.000    0.000 
#    0.000   32.000    0.000    0.429    0.000    2.429 
#
# Total GULP energy -467912.789604 kJ/mol
# GULP energy per Si atom -5570.390352 kJ/mol
# Density = 1.991236 g / cm^3
# Si number density = 19.957787 Si / 1000 Ang^3
#
#
#
# Elastic Constant Matrix: (Units=GPa)
#
#
# Indices 1 2 3 4 5 6 
#
# 1 103.0327 33.2848 18.4110 4.2018 0.0000 0.0000
# 2 33.2848 103.0327 18.4110 -4.2018 0.0000 0.0000
# 3 18.4110 18.4110 68.4492 0.0000 0.0000 0.0000
# 4 4.2018 -4.2018 0.0000 23.6731 0.0000 0.0000
# 5 0.0000 0.0000 0.0000 0.0000 23.6731 4.2018
# 6 0.0000 0.0000 0.0000 0.0000 4.2018 34.8740
#
#
#
# Elastic Compliance Matrix: (Units=1/GPa)
#
#
# Indices 1 2 3 4 5 6 
#
# 1 0.011281 -0.003370 -0.002128 -0.002600 0.000000 0.000000
# 2 -0.003370 0.011281 -0.002128 0.002600 0.000000 0.000000
# 3 -0.002128 -0.002128 0.015754 0.000000 0.000000 0.000000
# 4 -0.002600 0.002600 0.000000 0.043165 0.000000 0.000000
# 5 0.000000 0.000000 0.000000 0.000000 0.043165 -0.005201
# 6 0.000000 0.000000 0.000000 0.000000 -0.005201 0.029301
#
#
# Mechanical properties :
#
#
# Convention : Reuss Voigt Hill
#
# Bulk Modulus (GPa) = 43.35724 46.08088 44.71906
# Shear Modulus (GPa) = 28.26684 30.07124 29.16904
#
# Velocity S-wave (km/s) = 3.76750 3.88589 3.82715
# Velocity P-wave (km/s) = 6.37942 6.57821 6.47958
#
# Compressibility (1/GPa) = 0.02306420
#
# Stress axis : x y z
#
# Youngs Moduli (GPa) = 88.64782 88.64782 63.47601
#
# Poissons Ratio (x) = 0.29875 0.13506
# Poissons Ratio (y) = 0.29875 0.13506
# Poissons Ratio (z) = 0.18862 0.18862
#
# Static dielectric constant tensor:
#      x y z
#    x 1.740640 0.000000 0.000000 
#    y 0.000000 1.740640 0.000000 
#    z 0.000000 0.000000 1.748880 
# 
# From -- ./inp_files/3627.got.cif
#   From: 2010.05.17/outbox.ucp.g08.bks.cvg/sg164_2_cif.got.tgz:3627.got - 2010.06.11 15:16:10.
