data_PCOD9578246
_publ_section_title
;
Structure prediction by ZEFSAII (Michael W. Deem and Ramdas Pophale) SiO2 
 PCOD9578246
Probable space group: P -3 1 C
;
_chemical_formula_sum "Si O2"
_cell_formula_units_Z 24
_cell_length_a 12.795857
_cell_length_b 12.795857
_cell_length_c 7.988727
_cell_angle_alpha 90.000000
_cell_angle_beta 90.000000
_cell_angle_gamma 120.000000
_cell_volume 1132.783639
_symmetry_space_group_name_H-M "P -3 1 C"
_symmetry_group_IT_number 163
_symmetry_cell_setting 'hexagonal'
loop_
_space_group_symop_operation_xyz
x,y,z
-y,x-y,z
-x+y,-x,z
-y,-x,1/2-z
-x+y,y,1/2-z
x,x-y,1/2-z
-x,-y,-z
y,-x+y,-z
x-y,x,-z
y,x,1/2+z
x-y,-y,1/2+z
-x,-x+y,1/2+z
loop_
_atom_site_type_symbol
_atom_site_label
_atom_site_fract_x
_atom_site_fract_y
_atom_site_fract_z
Si Si1 0.853046 0.306418 0.403390
Si Si2 0.131720 0.482496 0.400189
O O1 0.782547 0.217454 0.250000
O O2 0.842699 0.426057 0.440975
O O3 0.788811 0.222818 0.565054
O O4 0.997163 0.370002 0.394379
O O5 0.146919 0.573460 0.250000
#
# Coordination Sequence:
#
# PCOD9578246 Si02
#       2
#    12  12
#     4  11  22  38  59  87 125 167 211 260 319 385
#     4  11  23  39  62  91 127 169 214 266 323 383
#
# _framework density 21.186744000000001
#
# number of rings (size 3 to 8) (size 9 to 14) (size 15 to 20)
#    0.000    1.000    0.000   10.000    0.000    2.000 
#    0.000    0.000    0.000    1.000    0.000    7.000 
#    0.000    0.000    0.000    0.000    0.000    0.000 
#
# Total GULP energy -133701.055041 kJ/mol
# GULP energy per Si atom -5570.877293 kJ/mol
# Density = 2.113852 g / cm^3
# Si number density = 21.186744 Si / 1000 Ang^3
#
#
#
# Elastic Constant Matrix: (Units=GPa)
#
#
# Indices 1 2 3 4 5 6 
#
# 1 87.2714 54.3110 57.5741 -0.0002 2.7429 0.0000
# 2 54.3110 87.2714 57.5741 0.0002 -2.7429 0.0000
# 3 57.5741 57.5741 126.7679 0.0000 0.0000 0.0000
# 4 -0.0002 0.0002 0.0000 32.4842 0.0000 -2.7429
# 5 2.7429 -2.7429 0.0000 0.0000 32.4842 -0.0002
# 6 0.0000 0.0000 0.0000 -2.7429 -0.0002 16.4802
#
#
#
# Elastic Compliance Matrix: (Units=1/GPa)
#
#
# Indices 1 2 3 4 5 6 
#
# 1 0.020986 -0.009786 -0.005087 0.000000 -0.002598 0.000000
# 2 -0.009786 0.020986 -0.005087 0.000000 0.002598 0.000000
# 3 -0.005087 -0.005087 0.012509 0.000000 0.000000 0.000000
# 4 0.000000 0.000000 0.000000 0.031223 0.000000 0.005197
# 5 -0.002598 0.002598 0.000000 0.000000 0.031223 0.000000
# 6 0.000000 0.000000 0.000000 0.005197 0.000000 0.061544
#
#
# Mechanical properties :
#
#
# Convention : Reuss Voigt Hill
#
# Bulk Modulus (GPa) = 68.67146 71.13657 69.90402
# Shear Modulus (GPa) = 22.39709 25.07982 23.73846
#
# Velocity S-wave (km/s) = 3.25488 3.44430 3.35093
# Velocity P-wave (km/s) = 6.82704 7.03324 6.93091
#
# Compressibility (1/GPa) = 0.01456209
#
# Stress axis : x y z
#
# Youngs Moduli (GPa) = 47.65095 47.65095 79.94326
#
# Poissons Ratio (x) = 0.46631 0.40665
# Poissons Ratio (y) = 0.46631 0.40665
# Poissons Ratio (z) = 0.24239 0.24239
#
# Static dielectric constant tensor:
#      x y z
#    x 1.765920 0.000000 0.000000 
#    y 0.000000 1.765920 0.000000 
#    z 0.000000 0.000000 2.102190 
# 
# From -- ./inp_files/546.got.cif
#   From: 2010.05.17/outbox.cif.g08.bks.cpg/sg163_1_cif.got.tgz:546.got - 2010.05.20 10:56:03.
