data_PCOD9578153
_publ_section_title
;
Structure prediction by ZEFSAII (Michael W. Deem and Ramdas Pophale) SiO2 
 PCOD9578153
Probable space group: P -3 1 C
;
_chemical_formula_sum "Si O2"
_cell_formula_units_Z 48
_cell_length_a 16.952515
_cell_length_b 16.952515
_cell_length_c 9.842837
_cell_angle_alpha 90.000000
_cell_angle_beta 90.000000
_cell_angle_gamma 120.000000
_cell_volume 2449.735521
_symmetry_space_group_name_H-M "P -3 1 C"
_symmetry_group_IT_number 163
_symmetry_cell_setting 'hexagonal'
loop_
_space_group_symop_operation_xyz
x,y,z
-y,x-y,z
-x+y,-x,z
-y,-x,1/2-z
-x+y,y,1/2-z
x,x-y,1/2-z
-x,-y,-z
y,-x+y,-z
x-y,x,-z
y,x,1/2+z
x-y,-y,1/2+z
-x,-x+y,1/2+z
loop_
_atom_site_type_symbol
_atom_site_label
_atom_site_fract_x
_atom_site_fract_y
_atom_site_fract_z
Si Si1 0.104177 0.208353 0.250000
Si Si2 0.779023 0.889512 0.750000
Si Si3 0.626558 0.103379 0.555512
Si Si4 0.068253 0.622703 0.370128
Si Si5 0.833007 0.654258 0.986014
O O1 0.154255 0.150944 0.279529
O O2 0.159492 0.273156 0.125099
O O3 0.710685 0.867264 0.623990
O O4 0.550764 0.133255 0.581652
O O5 0.626140 0.064636 0.707133
O O6 0.731833 0.165627 0.516218
O O7 0.586076 0.029251 0.436023
O O8 0.100985 0.720077 0.433730
#
# Coordination Sequence:
#
# PCOD9578153 Si02
#       5
#     6   6  12  12  12
#     4  12  23  44  62  90 134 166 234 270 325 388
#     4  12  27  40  66  94 130 182 218 286 327 380
#     4  10  21  39  63  91 122 157 202 257 315 383
#     4  10  21  39  63  91 122 157 202 257 315 383
#     4  12  24  40  63  96 124 170 219 263 326 399
#
# _framework density 19.593952000000002
#
# number of rings (size 3 to 8) (size 9 to 14) (size 15 to 20)
#    0.000    1.000    2.500    4.750    3.500    0.000 
#    1.500    2.500    0.000    0.000    0.000    0.000 
#    0.000    0.000    0.000    0.000    0.000    0.000 
#
# Total GULP energy -267664.601473 kJ/mol
# GULP energy per Si atom -5576.345864 kJ/mol
# Density = 1.954936 g / cm^3
# Si number density = 19.593952 Si / 1000 Ang^3
#
#
#
# Elastic Constant Matrix: (Units=GPa)
#
#
# Indices 1 2 3 4 5 6 
#
# 1 53.1883 0.7437 9.4322 -0.0002 -0.0601 0.0000
# 2 0.7437 53.1883 9.4322 0.0002 0.0601 0.0000
# 3 9.4322 9.4322 91.1425 0.0000 0.0000 0.0000
# 4 -0.0002 0.0002 0.0000 21.9819 0.0000 0.0601
# 5 -0.0601 0.0601 0.0000 0.0000 21.9819 -0.0002
# 6 0.0000 0.0000 0.0000 0.0601 -0.0002 26.2223
#
#
#
# Elastic Compliance Matrix: (Units=1/GPa)
#
#
# Indices 1 2 3 4 5 6 
#
# 1 0.019153 0.000085 -0.001991 0.000000 0.000052 0.000000
# 2 0.000085 0.019153 -0.001991 0.000000 -0.000052 0.000000
# 3 -0.001991 -0.001991 0.011384 0.000000 0.000000 0.000000
# 4 0.000000 0.000000 0.000000 0.045492 0.000000 -0.000104
# 5 0.000052 -0.000052 0.000000 0.000000 0.045492 0.000000
# 6 0.000000 0.000000 0.000000 -0.000104 0.000000 0.038136
#
#
# Mechanical properties :
#
#
# Convention : Reuss Voigt Hill
#
# Bulk Modulus (GPa) = 23.86826 26.30393 25.08609
# Shear Modulus (GPa) = 24.92904 25.89794 25.41349
#
# Velocity S-wave (km/s) = 3.57078 3.63951 3.60531
# Velocity P-wave (km/s) = 5.40449 5.57808 5.49197
#
# Compressibility (1/GPa) = 0.04189665
#
# Stress axis : x y z
#
# Youngs Moduli (GPa) = 52.21099 52.21099 87.84327
#
# Poissons Ratio (x) = -0.00445 0.17489
# Poissons Ratio (y) = -0.00445 0.17489
# Poissons Ratio (z) = 0.10395 0.10395
#
# Static dielectric constant tensor:
#      x y z
#    x 1.737230 0.000000 0.000000 
#    y 0.000000 1.737230 0.000000 
#    z 0.000000 0.000000 1.684830 
# 
# From -- ./inp_files/940.got.cif
#   From: 2010.05.17/outbox.cif.g08.bks.cpg/sg163_1_cif.got.tgz:940.got - 2010.05.20 10:56:03.
