data_PCOD9578299
_publ_section_title
;
Structure prediction by ZEFSAII (Michael W. Deem and Ramdas Pophale) SiO2 
 PCOD9578299
Probable space group: P -3 1 C
;
_chemical_formula_sum "Si O2"
_cell_formula_units_Z 84
_cell_length_a 18.000000
_cell_length_b 18.000000
_cell_length_c 15.000000
_cell_angle_alpha 90.000000
_cell_angle_beta 90.000000
_cell_angle_gamma 120.000000
_cell_volume 4208.883462
_symmetry_space_group_name_H-M "P -3 1 C"
_symmetry_group_IT_number 163
_symmetry_cell_setting 'hexagonal'
loop_
_space_group_symop_operation_xyz
x,y,z
-y,x-y,z
-x+y,-x,z
-y,-x,1/2-z
-x+y,y,1/2-z
x,x-y,1/2-z
-x,-y,-z
y,-x+y,-z
x-y,x,-z
y,x,1/2+z
x-y,-y,1/2+z
-x,-x+y,1/2+z
loop_
_atom_site_type_symbol
_atom_site_label
_atom_site_fract_x
_atom_site_fract_y
_atom_site_fract_z
Si Si1 0.775131 0.224870 0.750000
Si Si2 0.536111 0.006009 0.349434
Si Si3 0.437017 0.573160 0.498464
Si Si4 0.250942 0.490597 0.451731
Si Si5 0.781517 0.793607 0.375888
Si Si6 0.944224 0.888448 0.750000
Si Si7 0.681892 0.710267 0.203133
Si Si8 0.297100 0.183925 0.965702
O O1 0.749987 0.248780 0.656133
O O2 0.734491 0.122507 0.759089
O O3 0.498525 0.997049 0.250000
O O4 0.542127 0.083167 0.409590
O O5 0.478791 0.924248 0.413695
O O6 0.629009 0.015450 0.331759
O O7 0.341995 0.558826 0.491534
O O8 0.501693 0.673757 0.487999
O O9 0.242083 0.399257 0.477161
O O10 0.834152 0.889897 0.334083
O O11 0.744977 0.733901 0.287922
O O12 0.823452 0.757861 0.446525
O O13 0.713726 0.807199 0.433369
O O14 0.908071 0.954036 0.750000
O O15 0.723513 0.770298 0.116558
#
# Coordination Sequence:
#
# PCOD9578299 Si02
#       8
#     6  12  12  12  12   6  12  12
#     4  10  17  36  62  94 134 166 208 262 330 382
#     4  11  25  41  69  99 129 179 222 272 338 400
#     4  11  25  42  67  97 139 170 223 277 333 396
#     4  11  23  42  63 100 133 177 215 274 327 398
#     4  12  24  43  69  94 132 176 214 278 327 391
#     4  10  25  46  64  88 132 168 212 266 316 392
#     4  11  20  42  64  96 134 167 218 277 323 389
#     4  11  25  38  69  99 128 170 222 266 339 387
#
# _framework density 19.957787
#
# number of rings (size 3 to 8) (size 9 to 14) (size 15 to 20)
#    0.143    0.857    7.143    1.143    6.000    0.000 
#    0.000    1.429    0.000    0.000    0.000    0.000 
#    0.000    0.000    0.000    0.000    0.000    0.000 
#
# Total GULP energy -468086.969203 kJ/mol
# GULP energy per Si atom -5572.463919 kJ/mol
# Density = 1.991236 g / cm^3
# Si number density = 19.957787 Si / 1000 Ang^3
#
#
#
# Elastic Constant Matrix: (Units=GPa)
#
#
# Indices 1 2 3 4 5 6 
#
# 1 57.6775 7.2019 30.1173 -0.0009 0.7941 0.0000
# 2 7.2019 57.6775 30.1173 0.0009 -0.7941 0.0000
# 3 30.1173 30.1173 123.5586 0.0000 0.0000 0.0000
# 4 -0.0009 0.0009 0.0000 20.0117 0.0000 -0.7941
# 5 0.7941 -0.7941 0.0000 0.0000 20.0117 -0.0009
# 6 0.0000 0.0000 0.0000 -0.7941 -0.0009 25.2378
#
#
#
# Elastic Compliance Matrix: (Units=1/GPa)
#
#
# Indices 1 2 3 4 5 6 
#
# 1 0.019879 0.000043 -0.004856 0.000001 -0.000787 0.000000
# 2 0.000043 0.019879 -0.004856 -0.000001 0.000787 0.000000
# 3 -0.004856 -0.004856 0.010461 0.000000 0.000000 0.000000
# 4 0.000001 -0.000001 0.000000 0.050033 0.000000 0.001574
# 5 -0.000787 0.000787 0.000000 0.000000 0.050033 0.000002
# 6 0.000000 0.000000 0.000000 0.001574 0.000002 0.039673
#
#
# Mechanical properties :
#
#
# Convention : Reuss Voigt Hill
#
# Bulk Modulus (GPa) = 32.38335 41.53182 36.95759
# Shear Modulus (GPa) = 22.76983 24.48406 23.62694
#
# Velocity S-wave (km/s) = 3.38138 3.50636 3.44444
# Velocity P-wave (km/s) = 5.61304 6.10309 5.86319
#
# Compressibility (1/GPa) = 0.03088006
#
# Stress axis : x y z
#
# Youngs Moduli (GPa) = 50.30468 50.30468 95.59746
#
# Poissons Ratio (x) = -0.00214 0.46420
# Poissons Ratio (y) = -0.00214 0.46420
# Poissons Ratio (z) = 0.24427 0.24427
#
# Static dielectric constant tensor:
#      x y z
#    x 1.779050 0.000000 0.000000 
#    y 0.000000 1.779050 0.000000 
#    z 0.000000 0.000000 1.677120 
# 
# From -- ./inp_files/2689.got.cif
#   From: 2010.05.17/outbox.ucp.g08.bks.cvg/sg163_2_cif.got.tgz:2689.got - 2010.06.11 15:15:55.
