data_PCOD9578571
_publ_section_title
;
Structure prediction by ZEFSAII (Michael W. Deem and Ramdas Pophale) SiO2 
 PCOD9578571
Probable space group: P -3 M 1
;
_chemical_formula_sum "Si O2"
_cell_formula_units_Z 66
_cell_length_a 12.733895
_cell_length_b 12.733895
_cell_length_c 29.068432
_cell_angle_alpha 90.000000
_cell_angle_beta 90.000000
_cell_angle_gamma 120.000000
_cell_volume 4082.016600
_symmetry_space_group_name_H-M "P -3 M 1"
_symmetry_group_IT_number 164
_symmetry_cell_setting 'hexagonal'
loop_
_space_group_symop_operation_xyz
x,y,z
-y,x-y,z
-x+y,-x,z
x-y,-y,-z
-x,-x+y,-z
y,x,-z
-x,-y,-z
y,-x+y,-z
x-y,x,-z
-x+y,y,z
x,x-y,z
-y,-x,z
loop_
_atom_site_type_symbol
_atom_site_label
_atom_site_fract_x
_atom_site_fract_y
_atom_site_fract_z
Si Si1 0.000000 0.749765 0.000000
Si Si2 0.417064 0.083176 0.188427
Si Si3 0.249700 0.249641 0.366345
Si Si4 0.333174 0.416749 0.277270
Si Si5 0.083729 0.666657 0.544550
Si Si6 0.748594 0.000057 0.100689
O O1 0.997339 0.693720 0.049873
O O2 0.881712 0.763424 0.998365
O O3 0.551285 0.102570 0.184986
O O4 0.421357 0.210679 0.194115
O O5 0.341765 0.021193 0.142229
O O6 0.353475 0.997645 0.232235
O O7 0.119020 0.238040 0.373057
O O8 0.309993 0.332696 0.321673
O O9 0.333466 0.309695 0.410877
O O10 0.236623 0.118312 0.359758
O O11 0.215606 0.431211 0.271445
O O12 0.453299 0.546702 0.283698
O O13 0.096243 0.548122 0.551356
O O14 0.214667 0.785334 0.537721
O O15 0.000000 0.642843 0.500000
O O16 0.886803 0.113198 0.101835
O O17 0.748042 0.874021 0.105966
#
# Coordination Sequence:
#
# PCOD9578571 Si02
#       6
#     6  12  12  12  12  12
#     4   8  13  22  39  64  92 118 144 178 224 276
#     4  10  20  33  48  66  90 122 158 193 228 269
#     4  10  20  34  52  74 100 129 160 194 233 278
#     4  10  20  34  52  73  96 122 153 191 235 281
#     4  10  20  34  52  74 100 130 164 201 240 281
#     4   9  16  27  45  69  94 118 146 184 231 279
#
# _framework density 16.168478
#
# number of rings (size 3 to 8) (size 9 to 14) (size 15 to 20)
#    0.000    2.364    0.000    3.182    0.000    1.455 
#    0.000    0.455    0.000   20.727    0.000    0.000 
#    0.000    0.000    0.000    0.000    0.000    0.000 
#
# Total GULP energy -367948.800614 kJ/mol
# GULP energy per Si atom -5574.981827 kJ/mol
# Density = 1.613168 g / cm^3
# Si number density = 16.168478 Si / 1000 Ang^3
#
#
#
# Elastic Constant Matrix: (Units=GPa)
#
#
# Indices 1 2 3 4 5 6 
#
# 1 107.5222 71.5449 95.7232 -3.5537 0.0000 0.0000
# 2 71.5449 107.5222 95.7232 3.5537 0.0000 0.0000
# 3 95.7232 95.7232 166.9771 0.0000 0.0000 0.0000
# 4 -3.5537 3.5537 0.0000 25.7612 0.0000 0.0000
# 5 0.0000 0.0000 0.0000 0.0000 25.7612 -3.5537
# 6 0.0000 0.0000 0.0000 0.0000 -3.5537 17.9886
#
#
#
# Elastic Compliance Matrix: (Units=1/GPa)
#
#
# Indices 1 2 3 4 5 6 
#
# 1 0.021500 -0.007074 -0.008270 0.003942 0.000000 0.000000
# 2 -0.007074 0.021500 -0.008270 -0.003942 0.000000 0.000000
# 3 -0.008270 -0.008270 0.015471 0.000000 0.000000 0.000000
# 4 0.003942 -0.003942 0.000000 0.039906 0.000000 0.000000
# 5 0.000000 0.000000 0.000000 0.000000 0.039906 0.007883
# 6 0.000000 0.000000 0.000000 0.000000 0.007883 0.057148
#
#
# Mechanical properties :
#
#
# Convention : Reuss Voigt Hill
#
# Bulk Modulus (GPa) = 88.94472 100.88932 94.91702
# Shear Modulus (GPa) = 20.29159 21.83755 21.06457
#
# Velocity S-wave (km/s) = 3.54645 3.67907 3.61337
# Velocity P-wave (km/s) = 8.47941 8.97673 8.73161
#
# Compressibility (1/GPa) = 0.01124294
#
# Stress axis : x y z
#
# Youngs Moduli (GPa) = 46.51093 46.51093 64.63642
#
# Poissons Ratio (x) = 0.32901 0.53457
# Poissons Ratio (y) = 0.32901 0.53457
# Poissons Ratio (z) = 0.38466 0.38466
#
# Static dielectric constant tensor:
#      x y z
#    x 1.509440 0.000000 0.000000 
#    y 0.000000 1.509440 0.000000 
#    z 0.000000 0.000000 1.546870 
# 
# From -- ./inp_files/5511.got.cif
#   From: 2010.05.17/outbox.cif.g08.bks.cpg/sg164_3_cif.got.tgz:5511.got - 2010.05.20 10:58:56.
