data_PCOD9578820
_publ_section_title
;
Structure prediction by ZEFSAII (Michael W. Deem and Ramdas Pophale) SiO2 
 PCOD9578820
Probable space group: P -3 C 1
;
_chemical_formula_sum "Si O2"
_cell_formula_units_Z 42
_cell_length_a 21.100324
_cell_length_b 21.100324
_cell_length_c 5.392415
_cell_angle_alpha 90.000000
_cell_angle_beta 90.000000
_cell_angle_gamma 120.000000
_cell_volume 2079.180473
_symmetry_space_group_name_H-M "P -3 C 1"
_symmetry_group_IT_number 165
_symmetry_cell_setting 'hexagonal'
loop_
_space_group_symop_operation_xyz
x,y,z
-y,x-y,z
-x+y,-x,z
x-y,-y,1/2-z
-x,-x+y,1/2-z
y,x,1/2-z
-x,-y,-z
y,-x+y,-z
x-y,x,-z
-x+y,y,1/2+z
x,x-y,1/2+z
-y,-x,1/2+z
loop_
_atom_site_type_symbol
_atom_site_label
_atom_site_fract_x
_atom_site_fract_y
_atom_site_fract_z
Si Si1 0.781820 0.150552 0.401388
Si Si2 0.501497 0.084272 0.453079
Si Si3 0.356420 0.356420 0.250000
Si Si4 0.714936 0.466608 0.426391
O O1 0.821925 0.164047 0.665027
O O2 0.749264 0.206277 0.407854
O O3 0.717443 0.068428 0.354102
O O4 0.528765 0.075725 0.181841
O O5 0.417575 0.032548 0.533482
O O6 0.515569 0.166141 0.459281
O O7 0.723141 0.428736 0.666264
#
# Coordination Sequence:
#
# PCOD9578820 Si02
#       4
#    12  12   6  12
#     4  10  22  39  64  89 120 163 197 238 322 380
#     4  12  26  39  60  97 123 155 213 277 320 368
#     4  12  24  42  68  94 128 162 212 262 314 388
#     4  10  19  41  63  78 115 161 196 245 326 381
#
# _framework density 20.200267
#
# number of rings (size 3 to 8) (size 9 to 14) (size 15 to 20)
#    0.000    1.143    5.714    2.571    4.000    3.429 
#    0.000    0.000    0.000   11.429    0.000    0.000 
#    0.000    0.000    0.000    8.571    0.000    0.000 
#
# Total GULP energy -234966.983223 kJ/mol
# GULP energy per Si atom -5594.451981 kJ/mol
# Density = 2.015429 g / cm^3
# Si number density = 20.200267 Si / 1000 Ang^3
#
#
#
# Elastic Constant Matrix: (Units=GPa)
#
#
# Indices 1 2 3 4 5 6 
#
# 1 153.9827 12.2070 41.3552 -43.3903 0.0000 0.0000
# 2 12.2070 153.9827 41.3552 43.3903 0.0000 0.0000
# 3 41.3552 41.3552 201.5346 0.0000 0.0000 0.0000
# 4 -43.3903 43.3903 0.0000 57.6538 0.0000 0.0000
# 5 0.0000 0.0000 0.0000 0.0000 57.6538 -43.3903
# 6 0.0000 0.0000 0.0000 0.0000 -43.3903 70.8879
#
#
#
# Elastic Compliance Matrix: (Units=1/GPa)
#
#
# Indices 1 2 3 4 5 6 
#
# 1 0.009890 -0.003188 -0.001375 0.009842 0.000000 0.000000
# 2 -0.003188 0.009890 -0.001375 -0.009842 0.000000 0.000000
# 3 -0.001375 -0.001375 0.005526 0.000000 0.000000 0.000000
# 4 0.009842 -0.009842 0.000000 0.032160 0.000000 0.000000
# 5 0.000000 0.000000 0.000000 0.000000 0.032160 0.019685
# 6 0.000000 0.000000 0.000000 0.000000 0.019685 0.026156
#
#
# Mechanical properties :
#
#
# Convention : Reuss Voigt Hill
#
# Bulk Modulus (GPa) = 74.46666 77.70387 76.08527
# Shear Modulus (GPa) = 37.84014 64.87794 51.35904
#
# Velocity S-wave (km/s) = 4.33280 5.67337 5.04778
# Velocity P-wave (km/s) = 7.87243 9.02587 8.46881
#
# Compressibility (1/GPa) = 0.01342883
#
# Stress axis : x y z
#
# Youngs Moduli (GPa) = 101.11432 101.11432 180.95265
#
# Poissons Ratio (x) = 0.32237 0.24884
# Poissons Ratio (y) = 0.32237 0.24884
# Poissons Ratio (z) = 0.13905 0.13905
#
# Static dielectric constant tensor:
#      x y z
#    x 1.732160 0.000000 0.000000 
#    y 0.000000 1.732160 0.000000 
#    z 0.000000 0.000000 1.843550 
# 
# From -- ./inp_files/91.got.cif
#   From: 2010.05.17/outbox.cif.g08.bks.cpg/sg165_1_cif.got.tgz:91.got - 2010.05.20 11:02:39.
