data_PCOD9578553
_publ_section_title
;
Structure prediction by ZEFSAII (Michael W. Deem and Ramdas Pophale) SiO2 
 PCOD9578553
Probable space group: P -3 M 1
;
_chemical_formula_sum "Si O2"
_cell_formula_units_Z 66
_cell_length_a 12.802248
_cell_length_b 12.802248
_cell_length_c 28.786558
_cell_angle_alpha 90.000000
_cell_angle_beta 90.000000
_cell_angle_gamma 120.000000
_cell_volume 4085.948073
_symmetry_space_group_name_H-M "P -3 M 1"
_symmetry_group_IT_number 164
_symmetry_cell_setting 'hexagonal'
loop_
_space_group_symop_operation_xyz
x,y,z
-y,x-y,z
-x+y,-x,z
x-y,-y,-z
-x,-x+y,-z
y,x,-z
-x,-y,-z
y,-x+y,-z
x-y,x,-z
-x+y,y,z
x,x-y,z
-y,-x,z
loop_
_atom_site_type_symbol
_atom_site_label
_atom_site_fract_x
_atom_site_fract_y
_atom_site_fract_z
Si Si1 0.751966 0.999303 0.222359
Si Si2 0.580852 0.666883 0.691312
Si Si3 0.666767 0.581852 0.866570
Si Si4 0.914904 0.333472 0.414480
Si Si5 0.000000 0.248508 0.500000
Si Si6 0.581554 0.915548 0.955724
O O1 0.876399 0.123602 0.214589
O O2 0.693542 0.013920 0.269675
O O3 0.775505 0.887753 0.225893
O O4 0.660738 0.971443 0.179673
O O5 0.550863 0.775432 0.694400
O O6 0.460163 0.539838 0.698961
O O7 0.624127 0.668988 0.638477
O O8 0.786865 0.573729 0.875267
O O9 0.550855 0.449146 0.861219
O O10 0.639363 0.644780 0.909559
O O11 0.915136 0.457568 0.420902
O O12 0.779037 0.220963 0.418685
O O13 0.991648 0.315382 0.454037
O O14 0.118459 0.236918 0.498569
O O15 0.442410 0.884820 0.957543
O O16 0.589016 0.794508 0.956039
O O17 0.646945 0.000000 0.000000
#
# Coordination Sequence:
#
# PCOD9578553 Si02
#       6
#    12  12  12  12   6  12
#     4  10  20  33  49  70  98 132 167 200 235 279
#     4   9  17  30  49  72  95 119 151 194 243 289
#     4  10  20  34  53  75  99 128 163 204 248 293
#     4   9  17  30  49  71  93 118 151 194 242 288
#     4  10  20  32  46  66  94 128 162 194 230 276
#     4  10  20  34  53  76 102 131 163 201 244 290
#
# _framework density 16.152922
#
# number of rings (size 3 to 8) (size 9 to 14) (size 15 to 20)
#    0.000    2.364    0.000    2.909    0.000    2.182 
#    0.000    1.818    0.000   13.091    0.000    0.000 
#    0.000    0.000    0.000    0.000    0.000    0.000 
#
# Total GULP energy -368107.631111 kJ/mol
# GULP energy per Si atom -5577.388350 kJ/mol
# Density = 1.611616 g / cm^3
# Si number density = 16.152922 Si / 1000 Ang^3
#
#
#
# Elastic Constant Matrix: (Units=GPa)
#
#
# Indices 1 2 3 4 5 6 
#
# 1 107.7544 67.9534 80.3729 -1.9692 0.0000 0.0000
# 2 67.9534 107.7544 80.3729 1.9692 0.0000 0.0000
# 3 80.3729 80.3729 135.9909 0.0000 0.0000 0.0000
# 4 -1.9692 1.9692 0.0000 25.5056 0.0000 0.0000
# 5 0.0000 0.0000 0.0000 0.0000 25.5056 -1.9692
# 6 0.0000 0.0000 0.0000 0.0000 -1.9692 19.9005
#
#
#
# Elastic Compliance Matrix: (Units=1/GPa)
#
#
# Indices 1 2 3 4 5 6 
#
# 1 0.018855 -0.006464 -0.007323 0.001955 0.000000 0.000000
# 2 -0.006464 0.018855 -0.007323 -0.001955 0.000000 0.000000
# 3 -0.007323 -0.007323 0.016010 0.000000 0.000000 0.000000
# 4 0.001955 -0.001955 0.000000 0.039509 0.000000 0.000000
# 5 0.000000 0.000000 0.000000 0.000000 0.039509 0.003909
# 6 0.000000 0.000000 0.000000 0.000000 0.003909 0.050637
#
#
# Mechanical properties :
#
#
# Convention : Reuss Voigt Hill
#
# Bulk Modulus (GPa) = 86.96695 89.87755 88.42225
# Shear Modulus (GPa) = 21.79342 22.36903 22.08122
#
# Velocity S-wave (km/s) = 3.67712 3.72537 3.70132
# Velocity P-wave (km/s) = 8.48439 8.61783 8.55137
#
# Compressibility (1/GPa) = 0.01149862
#
# Stress axis : x y z
#
# Youngs Moduli (GPa) = 53.03732 53.03732 62.46204
#
# Poissons Ratio (x) = 0.34282 0.45742
# Poissons Ratio (y) = 0.34282 0.45742
# Poissons Ratio (z) = 0.38840 0.38840
#
# Static dielectric constant tensor:
#      x y z
#    x 1.509560 0.000000 0.000000 
#    y 0.000000 1.509560 0.000000 
#    z 0.000000 0.000000 1.538790 
# 
# From -- ./inp_files/5419.got.cif
#   From: 2010.05.17/outbox.cif.g08.bks.cpg/sg164_3_cif.got.tgz:5419.got - 2010.05.20 10:58:56.
