data_PCOD9578506
_publ_section_title
;
Structure prediction by ZEFSAII (Michael W. Deem and Ramdas Pophale) SiO2 
 PCOD9578506
Probable space group: P -3 M 1
;
_chemical_formula_sum "Si O2"
_cell_formula_units_Z 60
_cell_length_a 21.564099
_cell_length_b 21.564099
_cell_length_c 8.627518
_cell_angle_alpha 90.000000
_cell_angle_beta 90.000000
_cell_angle_gamma 120.000000
_cell_volume 3474.394587
_symmetry_space_group_name_H-M "P -3 M 1"
_symmetry_group_IT_number 164
_symmetry_cell_setting 'hexagonal'
loop_
_space_group_symop_operation_xyz
x,y,z
-y,x-y,z
-x+y,-x,z
x-y,-y,-z
-x,-x+y,-z
y,x,-z
-x,-y,-z
y,-x+y,-z
x-y,x,-z
-x+y,y,z
x,x-y,z
-y,-x,z
loop_
_atom_site_type_symbol
_atom_site_label
_atom_site_fract_x
_atom_site_fract_y
_atom_site_fract_z
Si Si1 0.540429 0.459572 0.563479
Si Si2 0.459572 0.919144 0.063482
Si Si3 0.164483 0.328965 0.935629
Si Si4 0.919103 0.324228 0.936439
Si Si5 0.919164 0.838328 0.436680
Si Si6 0.080836 0.161672 0.936680
Si Si7 0.835518 0.671036 0.435628
Si Si8 0.324228 0.919103 0.436439
O O1 0.500000 0.500000 0.500000
O O2 0.539122 0.460879 0.749999
O O3 0.622936 0.511350 0.517234
O O4 0.377065 0.888415 0.017236
O O5 0.500000 0.000000 0.000000
O O6 0.122677 0.245354 0.984067
O O7 0.165078 0.330156 0.750000
O O8 0.124544 0.369609 0.997717
O O9 0.920592 0.321459 0.750000
O O10 0.000000 0.361110 0.000000
O O11 0.877677 0.877677 0.500000
O O12 0.921002 0.842003 0.250000
O O13 0.877323 0.754646 0.484067
O O14 0.122324 0.122324 0.000000
O O15 0.754936 0.630392 0.497717
O O16 0.361110 0.000000 0.500000
#
# Coordination Sequence:
#
# PCOD9578506 Si02
#       8
#     6   6   6  12   6   6   6  12
#     4   8  16  30  50  75 100 127 160 196 241 295
#     4   8  16  30  50  75 100 127 160 196 241 295
#     4  11  23  36  52  78 108 140 178 221 268 318
#     4  10  19  33  53  77 105 136 170 211 258 311
#     4  11  24  40  57  75 101 137 180 227 276 329
#     4  11  24  40  57  75 101 137 180 227 276 329
#     4  11  23  36  52  78 108 140 178 221 268 318
#     4  10  19  33  53  77 105 136 170 211 258 311
#
# _framework density 17.269196000000001
#
# number of rings (size 3 to 8) (size 9 to 14) (size 15 to 20)
#    0.000    2.000    0.000    3.800    0.000    8.000 
#    0.000    0.000    0.000    0.800    0.000    2.800 
#    0.000    0.000    0.000    0.000    0.000    0.000 
#
# Total GULP energy -334605.708911 kJ/mol
# GULP energy per Si atom -5576.761815 kJ/mol
# Density = 1.722989 g / cm^3
# Si number density = 17.269196 Si / 1000 Ang^3
#
#
#
# Elastic Constant Matrix: (Units=GPa)
#
#
# Indices 1 2 3 4 5 6 
#
# 1 154.6720 106.5817 43.3559 0.0003 0.0000 0.0000
# 2 106.5817 154.6720 43.3559 -0.0003 0.0000 0.0000
# 3 43.3559 43.3559 47.0537 0.0000 0.0000 0.0000
# 4 0.0003 -0.0003 0.0000 24.4791 0.0000 0.0000
# 5 0.0000 0.0000 0.0000 0.0000 24.4791 0.0003
# 6 0.0000 0.0000 0.0000 0.0000 0.0003 24.0451
#
#
#
# Elastic Compliance Matrix: (Units=1/GPa)
#
#
# Indices 1 2 3 4 5 6 
#
# 1 0.013154 -0.007640 -0.005081 0.000000 0.000000 0.000000
# 2 -0.007640 0.013154 -0.005081 0.000000 0.000000 0.000000
# 3 -0.005081 -0.005081 0.030615 0.000000 0.000000 0.000000
# 4 0.000000 0.000000 0.000000 0.040851 0.000000 0.000000
# 5 0.000000 0.000000 0.000000 0.000000 0.040851 0.000000
# 6 0.000000 0.000000 0.000000 0.000000 0.000000 0.041588
#
#
# Mechanical properties :
#
#
# Convention : Reuss Voigt Hill
#
# Bulk Modulus (GPa) = 46.90334 82.55384 64.72859
# Shear Modulus (GPa) = 22.42916 25.47426 23.95171
#
# Velocity S-wave (km/s) = 3.60779 3.84490 3.72823
# Velocity P-wave (km/s) = 6.67637 8.22307 7.48976
#
# Compressibility (1/GPa) = 0.02132044
#
# Stress axis : x y z
#
# Youngs Moduli (GPa) = 76.02177 76.02177 32.66356
#
# Poissons Ratio (x) = 0.58082 0.16595
# Poissons Ratio (y) = 0.58082 0.16595
# Poissons Ratio (z) = 0.38624 0.38624
#
# Static dielectric constant tensor:
#      x y z
#    x 1.585230 0.000000 0.000000 
#    y 0.000000 1.585230 0.000000 
#    z 0.000000 0.000000 1.583920 
# 
# From -- ./inp_files/1663.got.cif
#   From: 2010.05.17/outbox.cif.g08.bks.cpg/sg164_1_cif.got.tgz:1663.got - 2010.05.20 10:58:56.
