data_PCOD9578411
_publ_section_title
;
Structure prediction by ZEFSAII (Michael W. Deem and Ramdas Pophale) SiO2 
 PCOD9578411
Probable space group: P -3 M 1
;
_chemical_formula_sum "Si O2"
_cell_formula_units_Z 72
_cell_length_a 17.352950
_cell_length_b 17.352950
_cell_length_c 18.557342
_cell_angle_alpha 90.000000
_cell_angle_beta 90.000000
_cell_angle_gamma 120.000000
_cell_volume 4839.416871
_symmetry_space_group_name_H-M "P -3 M 1"
_symmetry_group_IT_number 164
_symmetry_cell_setting 'hexagonal'
loop_
_space_group_symop_operation_xyz
x,y,z
-y,x-y,z
-x+y,-x,z
x-y,-y,-z
-x,-x+y,-z
y,x,-z
-x,-y,-z
y,-x+y,-z
x-y,x,-z
-x+y,y,z
x,x-y,z
-y,-x,z
loop_
_atom_site_type_symbol
_atom_site_label
_atom_site_fract_x
_atom_site_fract_y
_atom_site_fract_z
Si Si1 0.817739 0.000129 0.917774
Si Si2 0.715975 0.101170 0.433460
Si Si3 0.848755 0.514756 0.283065
Si Si4 0.512541 0.846039 0.420532
Si Si5 0.063116 0.303092 0.358038
Si Si6 0.057060 0.759902 0.779323
O O1 0.840047 0.920024 0.913993
O O2 0.744008 0.979118 0.857342
O O3 0.906291 0.093710 0.903716
O O4 0.787778 0.000000 0.000000
O O5 0.814083 0.185918 0.438792
O O6 0.670094 0.116022 0.363109
O O7 0.666368 0.105495 0.504839
O O8 0.725347 0.015639 0.415908
O O9 0.746876 0.493752 0.279476
O O10 0.855430 0.427715 0.269778
O O11 0.906267 0.597830 0.230155
O O12 0.428112 0.856223 0.406088
O O13 0.485732 0.742866 0.428556
O O14 0.589401 0.888494 0.360512
O O15 0.140085 0.280170 0.375812
O O16 0.016845 0.263797 0.281933
O O17 0.142996 0.857005 0.763631
#
# Coordination Sequence:
#
# PCOD9578411 Si02
#       6
#    12  12  12  12  12  12
#     4   9  16  27  46  71  95 116 139 171 212 257
#     4   9  18  31  45  62  84 110 142 184 231 269
#     4   9  16  26  42  63  86 112 143 181 224 267
#     4  10  20  32  46  64  85 109 139 179 227 270
#     4  10  19  29  42  60  84 115 145 172 204 247
#     4   9  18  31  45  63  89 118 145 174 211 254
#
# _framework density 14.877825
#
# number of rings (size 3 to 8) (size 9 to 14) (size 15 to 20)
#    0.000    2.667    0.000    3.500    0.000    4.667 
#    0.000    2.500    0.000    4.167    0.000    0.000 
#    0.000   16.000    0.000    0.667    0.000    0.000 
#
# Total GULP energy -401103.840017 kJ/mol
# GULP energy per Si atom -5570.886667 kJ/mol
# Density = 1.484396 g / cm^3
# Si number density = 14.877825 Si / 1000 Ang^3
#
#
#
# Elastic Constant Matrix: (Units=GPa)
#
#
# Indices 1 2 3 4 5 6 
#
# 1 74.1290 36.5022 36.1622 3.7394 0.0000 0.0000
# 2 36.5022 74.1290 36.1622 -3.7394 0.0000 0.0000
# 3 36.1622 36.1622 85.7038 0.0000 0.0000 0.0000
# 4 3.7394 -3.7394 0.0000 15.9865 0.0000 0.0000
# 5 0.0000 0.0000 0.0000 0.0000 15.9865 3.7394
# 6 0.0000 0.0000 0.0000 0.0000 3.7394 18.8134
#
#
#
# Elastic Compliance Matrix: (Units=1/GPa)
#
#
# Indices 1 2 3 4 5 6 
#
# 1 0.020177 -0.007695 -0.005267 -0.006520 0.000000 0.000000
# 2 -0.007695 0.020177 -0.005267 0.006520 0.000000 0.000000
# 3 -0.005267 -0.005267 0.016113 0.000000 0.000000 0.000000
# 4 -0.006520 0.006520 0.000000 0.065603 0.000000 0.000000
# 5 0.000000 0.000000 0.000000 0.000000 0.065603 -0.013039
# 6 0.000000 0.000000 0.000000 0.000000 -0.013039 0.055745
#
#
# Mechanical properties :
#
#
# Convention : Reuss Voigt Hill
#
# Bulk Modulus (GPa) = 49.97530 50.17946 50.07738
# Shear Modulus (GPa) = 17.44919 18.49962 17.97440
#
# Velocity S-wave (km/s) = 3.42838 3.53006 3.47959
# Velocity P-wave (km/s) = 7.02389 7.10043 7.06226
#
# Compressibility (1/GPa) = 0.02000988
#
# Stress axis : x y z
#
# Youngs Moduli (GPa) = 49.56040 49.56040 62.06297
#
# Poissons Ratio (x) = 0.38138 0.32687
# Poissons Ratio (y) = 0.38138 0.32687
# Poissons Ratio (z) = 0.26102 0.26102
#
# Static dielectric constant tensor:
#      x y z
#    x 1.501770 0.000000 0.000000 
#    y 0.000000 1.501770 0.000000 
#    z 0.000000 0.000000 1.493660 
# 
# From -- ./inp_files/4057.got.cif
#   From: 2010.05.17/outbox.cif.g08.bks.cpg/sg164_3_cif.got.tgz:4057.got - 2010.05.20 10:58:56.
