data_PCOD9578626
_publ_section_title
;
Structure prediction by ZEFSAII (Michael W. Deem and Ramdas Pophale) SiO2 
 PCOD9578626
Probable space group: P -3 M 1
;
_chemical_formula_sum "Si O2"
_cell_formula_units_Z 40
_cell_length_a 18.026741
_cell_length_b 18.026741
_cell_length_c 9.694868
_cell_angle_alpha 90.000000
_cell_angle_beta 90.000000
_cell_angle_gamma 120.000000
_cell_volume 2728.393273
_symmetry_space_group_name_H-M "P -3 M 1"
_symmetry_group_IT_number 164
_symmetry_cell_setting 'hexagonal'
loop_
_space_group_symop_operation_xyz
x,y,z
-y,x-y,z
-x+y,-x,z
x-y,-y,-z
-x,-x+y,-z
y,x,-z
-x,-y,-z
y,-x+y,-z
x-y,x,-z
-x+y,y,z
x,x-y,z
-y,-x,z
loop_
_atom_site_type_symbol
_atom_site_label
_atom_site_fract_x
_atom_site_fract_y
_atom_site_fract_z
Si Si1 0.755733 0.244268 0.815943
Si Si2 0.666668 0.333334 0.981336
Si Si3 0.437551 0.385763 0.858131
Si Si4 0.619065 0.549142 0.382390
Si Si5 0.245234 0.490468 0.513900
Si Si6 0.666667 0.333334 0.318437
O O1 0.714127 0.285874 0.915105
O O2 0.701768 0.142340 0.847078
O O3 0.744718 0.255283 0.650667
O O4 0.666667 0.333334 0.149948
O O5 0.535266 0.464735 0.831375
O O6 0.376926 0.394417 0.746287
O O7 0.406807 0.406807 0.000000
O O8 0.576714 0.576714 0.500000
O O9 0.550580 0.449421 0.347984
O O10 0.704999 0.558292 0.442816
O O11 0.286651 0.573301 0.612338
#
# Coordination Sequence:
#
# PCOD9578626 Si02
#       6
#     6   2  12  12   6   2
#     4  12  22  38  56  72 100 146 182 218 262 317
#     4  12  28  32  46  78 106 131 190 228 262 296
#     4  10  22  35  52  74 104 136 173 220 265 303
#     4  10  20  33  49  74 101 130 176 218 255 302
#     4  12  22  36  56  72 104 142 182 223 261 306
#     4  12  28  32  46  84 100 134 184 231 262 290
#
# _framework density 14.660643
#
# number of rings (size 3 to 8) (size 9 to 14) (size 15 to 20)
#    0.000    1.200    6.000    0.900    4.200    0.000 
#    0.000    0.000    0.000    0.000    0.000    0.000 
#    0.000    0.000    0.000   18.000    0.000    0.000 
#
# Total GULP energy -222843.223976 kJ/mol
# GULP energy per Si atom -5571.080599 kJ/mol
# Density = 1.462727 g / cm^3
# Si number density = 14.660643 Si / 1000 Ang^3
#
#
#
# Elastic Constant Matrix: (Units=GPa)
#
#
# Indices 1 2 3 4 5 6 
#
# 1 101.8255 19.4708 31.3992 -6.4930 0.0000 0.0000
# 2 19.4708 101.8258 31.3993 6.4930 0.0000 0.0000
# 3 31.3992 31.3993 111.8263 -0.0001 0.0000 0.0000
# 4 -6.4930 6.4930 -0.0001 18.8922 0.0000 0.0000
# 5 0.0000 0.0000 0.0000 0.0000 18.8921 -6.4930
# 6 0.0000 0.0000 0.0000 0.0000 -6.4930 41.1773
#
#
#
# Elastic Compliance Matrix: (Units=1/GPa)
#
#
# Indices 1 2 3 4 5 6 
#
# 1 0.011242 -0.001596 -0.002709 0.004412 0.000000 0.000000
# 2 -0.001596 0.011242 -0.002709 -0.004412 0.000000 0.000000
# 3 -0.002709 -0.002709 0.010464 0.000000 0.000000 0.000000
# 4 0.004412 -0.004412 0.000000 0.055965 0.000000 0.000000
# 5 0.000000 0.000000 0.000000 0.000000 0.055965 0.008825
# 6 0.000000 0.000000 0.000000 0.000000 0.008825 0.025677
#
#
# Mechanical properties :
#
#
# Convention : Reuss Voigt Hill
#
# Bulk Modulus (GPa) = 52.84795 53.33513 53.09154
# Shear Modulus (GPa) = 26.19324 31.33954 28.76639
#
# Velocity S-wave (km/s) = 4.23145 4.62850 4.43442
# Velocity P-wave (km/s) = 7.74592 8.06367 7.90639
#
# Compressibility (1/GPa) = 0.01892221
#
# Stress axis : x y z
#
# Youngs Moduli (GPa) = 88.94831 88.94857 95.57005
#
# Poissons Ratio (x) = 0.14195 0.25886
# Poissons Ratio (y) = 0.14195 0.25886
# Poissons Ratio (z) = 0.24093 0.24093
#
# Static dielectric constant tensor:
#      x y z
#    x 1.496210 0.000000 0.000000 
#    y 0.000000 1.496210 0.000000 
#    z 0.000000 0.000000 1.084630 
# 
# From -- ./inp_files/1201.got.cif
#   From: 2010.05.17/outbox.cif.g08.bks.cpg/sg164_1_cif.got.tgz:1201.got - 2010.05.20 10:58:56.
