data_PCOD9578605
_publ_section_title
;
Structure prediction by ZEFSAII (Michael W. Deem and Ramdas Pophale) SiO2 
 PCOD9578605
Probable space group: P -3 M 1
;
_chemical_formula_sum "Si O2"
_cell_formula_units_Z 60
_cell_length_a 12.901161
_cell_length_b 12.901161
_cell_length_c 25.829352
_cell_angle_alpha 90.000000
_cell_angle_beta 90.000000
_cell_angle_gamma 120.000000
_cell_volume 3723.074551
_symmetry_space_group_name_H-M "P -3 M 1"
_symmetry_group_IT_number 164
_symmetry_cell_setting 'hexagonal'
loop_
_space_group_symop_operation_xyz
x,y,z
-y,x-y,z
-x+y,-x,z
x-y,-y,-z
-x,-x+y,-z
y,x,-z
-x,-y,-z
y,-x+y,-z
x-y,x,-z
-x+y,y,z
x,x-y,z
-y,-x,z
loop_
_atom_site_type_symbol
_atom_site_label
_atom_site_fract_x
_atom_site_fract_y
_atom_site_fract_z
Si Si1 0.088576 0.422295 0.761095
Si Si2 0.245342 0.245138 0.146302
Si Si3 0.667026 0.577688 0.358944
Si Si4 0.087864 0.421145 0.451818
Si Si5 0.912704 0.579075 0.049007
O O1 0.225645 0.451290 0.766764
O O2 0.081079 0.540540 0.772284
O O3 0.011656 0.317048 0.801023
O O4 0.054870 0.388202 0.701043
O O5 0.214280 0.107140 0.147111
O O6 0.336176 0.307116 0.098669
O O7 0.126895 0.253790 0.140925
O O8 0.792939 0.585878 0.370239
O O9 0.559693 0.440308 0.364279
O O10 0.637918 0.653368 0.399189
O O11 0.207490 0.414979 0.455791
O O12 0.116578 0.558289 0.452349
O O13 0.000000 0.356951 0.500000
O O14 0.784485 0.568970 0.039699
O O15 0.897447 0.448724 0.058097
O O16 0.000000 0.636875 0.000000
#
# Coordination Sequence:
#
# PCOD9578605 Si02
#       5
#    12  12  12  12  12
#     4   9  17  30  50  75 100 126 158 198 242 285
#     4  10  20  33  49  69  95 128 165 203 241 282
#     4   9  17  30  50  75 100 126 157 195 238 283
#     4  10  20  33  50  71  95 124 158 197 240 285
#     4  10  20  34  53  76 101 129 161 198 241 288
#
# _framework density 16.115713
#
# number of rings (size 3 to 8) (size 9 to 14) (size 15 to 20)
#    0.000    2.400    0.000    2.800    0.000    2.400 
#    0.000    4.000    0.000   11.200    0.000    0.000 
#    0.000    0.000    0.000    0.000    0.000    0.000 
#
# Total GULP energy -334713.220080 kJ/mol
# GULP energy per Si atom -5578.553668 kJ/mol
# Density = 1.607903 g / cm^3
# Si number density = 16.115713 Si / 1000 Ang^3
#
#
#
# Elastic Constant Matrix: (Units=GPa)
#
#
# Indices 1 2 3 4 5 6 
#
# 1 125.6046 88.1162 78.9822 1.1961 0.0000 0.0000
# 2 88.1162 125.6046 78.9822 -1.1961 0.0000 0.0000
# 3 78.9822 78.9822 99.0886 0.0000 0.0000 0.0000
# 4 1.1961 -1.1961 0.0000 21.5570 0.0000 0.0000
# 5 0.0000 0.0000 0.0000 0.0000 21.5570 1.1961
# 6 0.0000 0.0000 0.0000 0.0000 1.1961 18.7442
#
#
#
# Elastic Compliance Matrix: (Units=1/GPa)
#
#
# Indices 1 2 3 4 5 6 
#
# 1 0.019079 -0.007691 -0.009077 -0.001485 0.000000 0.000000
# 2 -0.007691 0.019079 -0.009077 0.001485 0.000000 0.000000
# 3 -0.009077 -0.009077 0.024563 0.000000 0.000000 0.000000
# 4 -0.001485 0.001485 0.000000 0.046553 0.000000 0.000000
# 5 0.000000 0.000000 0.000000 0.000000 0.046553 -0.002971
# 6 0.000000 0.000000 0.000000 0.000000 -0.002971 0.053539
#
#
# Mechanical properties :
#
#
# Convention : Reuss Voigt Hill
#
# Bulk Modulus (GPa) = 90.66367 93.60656 92.13512
# Shear Modulus (GPa) = 18.88682 19.31947 19.10314
#
# Velocity S-wave (km/s) = 3.42709 3.46612 3.44666
# Velocity P-wave (km/s) = 8.48764 8.61561 8.55186
#
# Compressibility (1/GPa) = 0.01102978
#
# Stress axis : x y z
#
# Youngs Moduli (GPa) = 52.41373 52.41373 40.71165
#
# Poissons Ratio (x) = 0.40310 0.36956
# Poissons Ratio (y) = 0.40310 0.36956
# Poissons Ratio (z) = 0.47578 0.47578
#
# Static dielectric constant tensor:
#      x y z
#    x 1.508670 0.000000 0.000000 
#    y 0.000000 1.508670 0.000000 
#    z 0.000000 0.000000 1.543990 
# 
# From -- ./inp_files/5164.got.cif
#   From: 2010.05.17/outbox.cif.g08.bks.cpg/sg164_3_cif.got.tgz:5164.got - 2010.05.20 10:58:56.
