data_PCOD9578420
_publ_section_title
;
Structure prediction by ZEFSAII (Michael W. Deem and Ramdas Pophale) SiO2 
 PCOD9578420
Probable space group: P -3 M 1
;
_chemical_formula_sum "Si O2"
_cell_formula_units_Z 84
_cell_length_a 20.963836
_cell_length_b 20.963836
_cell_length_c 14.261961
_cell_angle_alpha 90.000000
_cell_angle_beta 90.000000
_cell_angle_gamma 120.000000
_cell_volume 5428.144288
_symmetry_space_group_name_H-M "P -3 M 1"
_symmetry_group_IT_number 164
_symmetry_cell_setting 'hexagonal'
loop_
_space_group_symop_operation_xyz
x,y,z
-y,x-y,z
-x+y,-x,z
x-y,-y,-z
-x,-x+y,-z
y,x,-z
-x,-y,-z
y,-x+y,-z
x-y,x,-z
-x+y,y,z
x,x-y,z
-y,-x,z
loop_
_atom_site_type_symbol
_atom_site_label
_atom_site_fract_x
_atom_site_fract_y
_atom_site_fract_z
Si Si1 0.483022 0.816155 0.576344
Si Si2 0.063316 0.457123 0.729771
Si Si3 0.299256 0.454752 0.901822
Si Si4 0.812802 0.332402 0.643888
Si Si5 0.528010 0.334866 0.908948
Si Si6 0.678030 0.084972 0.790552
Si Si7 0.688268 0.918893 0.035829
O O1 0.399132 0.798264 0.592560
O O2 0.490288 0.745144 0.599335
O O3 0.533644 0.886372 0.640188
O O4 0.497954 0.832120 0.465706
O O5 0.042140 0.521070 0.723538
O O6 0.112195 0.468509 0.821461
O O7 0.992342 0.378072 0.744950
O O8 0.225481 0.450962 0.863180
O O9 0.333258 0.517720 0.980256
O O10 0.272725 0.380095 0.962523
O O11 0.828716 0.414358 0.669581
O O12 0.726163 0.273838 0.652817
O O13 0.856249 0.302985 0.707135
O O14 0.501908 0.250954 0.880972
O O15 0.611217 0.388784 0.881821
O O16 0.475789 0.361122 0.862602
O O17 0.737427 0.080968 0.859465
O O18 0.709714 0.854857 0.033628
O O19 0.748679 0.000000 0.000000
#
# Coordination Sequence:
#
# PCOD9578420 Si02
#       7
#    12  12  12  12  12  12  12
#     4   9  19  33  50  68  88 119 163 212 256 292
#     4  11  20  30  45  66  93 125 161 199 241 287
#     4   9  18  31  46  64  91 120 155 194 231 277
#     4  10  19  33  50  68  90 121 163 210 255 293
#     4  10  19  30  43  61  85 117 154 195 237 277
#     4  11  21  32  45  69  95 124 156 192 236 287
#     4  10  19  35  54  75  98 124 156 189 227 281
#
# _framework density 15.474900999999999
#
# number of rings (size 3 to 8) (size 9 to 14) (size 15 to 20)
#    0.000    2.000    1.429    4.714    0.000    1.714 
#    0.000    5.714    0.000    4.714    0.000    0.000 
#    0.000    0.000    0.000    0.000    0.000    0.000 
#
# Total GULP energy -467875.877200 kJ/mol
# GULP energy per Si atom -5569.950919 kJ/mol
# Density = 1.543968 g / cm^3
# Si number density = 15.474901 Si / 1000 Ang^3
#
#
#
# Elastic Constant Matrix: (Units=GPa)
#
#
# Indices 1 2 3 4 5 6 
#
# 1 69.3874 35.4130 32.1623 -1.5506 0.0000 0.0000
# 2 35.4130 69.3874 32.1623 1.5506 0.0000 0.0000
# 3 32.1623 32.1623 74.7713 0.0000 0.0000 0.0000
# 4 -1.5506 1.5506 0.0000 18.8480 0.0000 0.0000
# 5 0.0000 0.0000 0.0000 0.0000 18.8480 -1.5506
# 6 0.0000 0.0000 0.0000 0.0000 -1.5506 16.9872
#
#
#
# Elastic Compliance Matrix: (Units=1/GPa)
#
#
# Indices 1 2 3 4 5 6 
#
# 1 0.021311 -0.008346 -0.005577 0.002440 0.000000 0.000000
# 2 -0.008346 0.021311 -0.005577 -0.002440 0.000000 0.000000
# 3 -0.005577 -0.005577 0.018172 0.000000 0.000000 0.000000
# 4 0.002440 -0.002440 0.000000 0.053457 0.000000 0.000000
# 5 0.000000 0.000000 0.000000 0.000000 0.053457 0.004880
# 6 0.000000 0.000000 0.000000 0.000000 0.004880 0.059313
#
#
# Mechanical properties :
#
#
# Convention : Reuss Voigt Hill
#
# Bulk Modulus (GPa) = 45.88319 45.89124 45.88722
# Shear Modulus (GPa) = 18.29595 18.52390 18.40992
#
# Velocity S-wave (km/s) = 3.44219 3.46356 3.45289
# Velocity P-wave (km/s) = 6.74631 6.76126 6.75379
#
# Compressibility (1/GPa) = 0.02179447
#
# Stress axis : x y z
#
# Youngs Moduli (GPa) = 46.92471 46.92471 55.03067
#
# Poissons Ratio (x) = 0.39163 0.30689
# Poissons Ratio (y) = 0.39163 0.30689
# Poissons Ratio (z) = 0.26169 0.26169
#
# Static dielectric constant tensor:
#      x y z
#    x 1.517310 0.000000 0.000000 
#    y 0.000000 1.517310 0.000000 
#    z 0.000000 0.000000 1.539670 
# 
# From -- ./inp_files/2915.got.cif
#   From: 2010.05.17/outbox.cif.g08.bks.cpg/sg164_2_cif.got.tgz:2915.got - 2010.05.20 10:58:56.
