data_PCOD9578263
_publ_section_title
;
Structure prediction by ZEFSAII (Michael W. Deem and Ramdas Pophale) SiO2 
 PCOD9578263
Probable space group: P -3 1 C
;
_chemical_formula_sum "Si O2"
_cell_formula_units_Z 84
_cell_length_a 16.789386
_cell_length_b 16.789386
_cell_length_c 14.965052
_cell_angle_alpha 90.000000
_cell_angle_beta 90.000000
_cell_angle_gamma 120.000000
_cell_volume 3653.242403
_symmetry_space_group_name_H-M "P -3 1 C"
_symmetry_group_IT_number 163
_symmetry_cell_setting 'hexagonal'
loop_
_space_group_symop_operation_xyz
x,y,z
-y,x-y,z
-x+y,-x,z
-y,-x,1/2-z
-x+y,y,1/2-z
x,x-y,1/2-z
-x,-y,-z
y,-x+y,-z
x-y,x,-z
y,x,1/2+z
x-y,-y,1/2+z
-x,-x+y,1/2+z
loop_
_atom_site_type_symbol
_atom_site_label
_atom_site_fract_x
_atom_site_fract_y
_atom_site_fract_z
Si Si1 0.575862 0.062671 0.653958
Si Si2 0.556416 0.668499 0.055456
Si Si3 0.256753 0.784586 0.597688
Si Si4 0.637176 0.841392 0.157335
Si Si5 0.142833 0.881709 0.645128
Si Si6 0.405417 0.859543 0.849693
Si Si7 0.243476 0.986906 0.488456
O O1 0.533746 0.067491 0.750000
O O2 0.525476 0.094629 0.582317
O O3 0.685890 0.118184 0.660349
O O4 0.542617 0.956908 0.626471
O O5 0.582699 0.732714 0.142046
O O6 0.530418 0.727284 0.987893
O O7 0.652169 0.677122 0.022456
O O8 0.217260 0.846882 0.636877
O O9 0.225537 0.695838 0.658007
O O10 0.365766 0.838635 0.592093
O O11 0.688970 0.844485 0.250000
O O12 0.694218 0.891450 0.067548
O O13 0.118876 0.881125 0.750000
O O14 0.186954 0.971599 0.580788
O O15 0.055773 0.809558 0.587275
O O16 0.438908 0.877815 0.750000
#
# Coordination Sequence:
#
# PCOD9578263 Si02
#       7
#    12  12  12  12  12  12  12
#     4  11  24  42  64  96 135 193 244 303 369 432
#     4  11  25  43  64  99 142 184 241 301 362 434
#     4  11  23  40  59  97 133 187 239 299 356 419
#     4  12  25  45  71  99 139 188 248 303 362 430
#     4  11  24  42  72 104 144 183 231 295 360 428
#     4  11  23  39  65  93 137 184 241 295 362 433
#     4  11  24  45  70 108 143 179 239 296 361 447
#
# _framework density 22.993272999999999
#
# number of rings (size 3 to 8) (size 9 to 14) (size 15 to 20)
#    0.000    0.857    4.286    4.143    4.000    3.429 
#    0.857    0.714    0.000    0.286    0.000    1.000 
#    0.000    0.000    0.000    0.000    0.000    0.000 
#
# Total GULP energy -468503.800683 kJ/mol
# GULP energy per Si atom -5577.426199 kJ/mol
# Density = 2.294094 g / cm^3
# Si number density = 22.993273 Si / 1000 Ang^3
#
#
#
# Elastic Constant Matrix: (Units=GPa)
#
#
# Indices 1 2 3 4 5 6 
#
# 1 61.2040 35.1142 42.2076 0.0000 2.5595 0.0000
# 2 35.1142 61.2040 42.2076 0.0000 -2.5595 0.0000
# 3 42.2076 42.2076 163.9878 0.0000 0.0000 0.0000
# 4 0.0000 0.0000 0.0000 29.6884 0.0000 -2.5595
# 5 2.5595 -2.5595 0.0000 0.0000 29.6884 0.0000
# 6 0.0000 0.0000 0.0000 -2.5595 0.0000 13.0449
#
#
#
# Elastic Compliance Matrix: (Units=1/GPa)
#
#
# Indices 1 2 3 4 5 6 
#
# 1 0.026198 -0.012791 -0.003451 0.000000 -0.003361 0.000000
# 2 -0.012791 0.026198 -0.003451 0.000000 0.003361 0.000000
# 3 -0.003451 -0.003451 0.007874 0.000000 0.000000 0.000000
# 4 0.000000 0.000000 0.000000 0.034263 0.000000 0.006722
# 5 -0.003361 0.003361 0.000000 0.000000 0.034263 0.000000
# 6 0.000000 0.000000 0.000000 0.006722 0.000000 0.077977
#
#
# Mechanical properties :
#
#
# Convention : Reuss Voigt Hill
#
# Bulk Modulus (GPa) = 47.88180 58.38383 53.13282
# Shear Modulus (GPa) = 19.75360 25.60876 22.68118
#
# Velocity S-wave (km/s) = 2.93423 3.34091 3.14415
# Velocity P-wave (km/s) = 5.68762 6.35052 6.02819
#
# Compressibility (1/GPa) = 0.02088476
#
# Stress axis : x y z
#
# Youngs Moduli (GPa) = 38.17150 38.17150 126.99631
#
# Poissons Ratio (x) = 0.48826 0.43821
# Poissons Ratio (y) = 0.48826 0.43821
# Poissons Ratio (z) = 0.13171 0.13171
#
# Static dielectric constant tensor:
#      x y z
#    x 1.900370 0.000000 0.000000 
#    y 0.000000 1.900370 0.000000 
#    z 0.000000 0.000000 2.108080 
# 
# From -- ./inp_files/2658.got.cif
#   From: 2010.05.17/outbox.cif.g08.bks.cpg/sg163_2_cif.got.tgz:2658.got - 2010.05.20 10:56:03.
