data_PCOD9578277
_publ_section_title
;
Structure prediction by ZEFSAII (Michael W. Deem and Ramdas Pophale) SiO2 
 PCOD9578277
Probable space group: P -3 1 C
;
_chemical_formula_sum "Si O2"
_cell_formula_units_Z 48
_cell_length_a 15.102262
_cell_length_b 15.102262
_cell_length_c 11.042616
_cell_angle_alpha 90.000000
_cell_angle_beta 90.000000
_cell_angle_gamma 120.000000
_cell_volume 2181.155368
_symmetry_space_group_name_H-M "P -3 1 C"
_symmetry_group_IT_number 163
_symmetry_cell_setting 'hexagonal'
loop_
_space_group_symop_operation_xyz
x,y,z
-y,x-y,z
-x+y,-x,z
-y,-x,1/2-z
-x+y,y,1/2-z
x,x-y,1/2-z
-x,-y,-z
y,-x+y,-z
x-y,x,-z
y,x,1/2+z
x-y,-y,1/2+z
-x,-x+y,1/2+z
loop_
_atom_site_type_symbol
_atom_site_label
_atom_site_fract_x
_atom_site_fract_y
_atom_site_fract_z
Si Si1 0.797905 0.827480 0.545855
Si Si2 0.364892 0.060263 0.688521
Si Si3 0.251052 0.826795 0.438515
Si Si4 0.330925 0.491815 0.819263
O O1 0.880043 0.824808 0.454241
O O2 0.781288 0.756438 0.664494
O O3 0.683672 0.771299 0.494064
O O4 0.418494 0.142631 0.581432
O O5 0.419214 0.123980 0.808927
O O6 0.372712 0.959510 0.689275
O O7 0.317092 0.811089 0.539133
O O8 0.406011 0.593990 0.750000
O O9 0.222350 0.444699 0.750000
#
# Coordination Sequence:
#
# PCOD9578277 Si02
#       4
#    12  12  12  12
#     4   9  17  28  49  83 127 169 216 265 323 386
#     4   9  20  37  62  88 125 174 214 272 329 406
#     4   9  20  39  59  92 128 165 223 273 330 398
#     4  11  25  41  67  95 132 170 224 279 341 397
#
# _framework density 22.006684
#
# number of rings (size 3 to 8) (size 9 to 14) (size 15 to 20)
#    0.000    2.500    0.000    0.500   14.000    1.000 
#    0.000    0.000    0.000    0.000    0.000    0.000 
#    0.000    0.000    0.000    0.000    0.000    0.000 
#
# Total GULP energy -267267.841381 kJ/mol
# GULP energy per Si atom -5568.080029 kJ/mol
# Density = 2.195660 g / cm^3
# Si number density = 22.006684 Si / 1000 Ang^3
#
#
#
# Elastic Constant Matrix: (Units=GPa)
#
#
# Indices 1 2 3 4 5 6 
#
# 1 53.4599 34.8169 39.9967 -0.0001 2.4148 0.0000
# 2 34.8169 53.4599 39.9967 0.0001 -2.4148 0.0000
# 3 39.9967 39.9967 119.0172 0.0000 0.0000 0.0000
# 4 -0.0001 0.0001 0.0000 24.2265 0.0000 -2.4148
# 5 2.4148 -2.4148 0.0000 0.0000 24.2265 -0.0001
# 6 0.0000 0.0000 0.0000 -2.4148 -0.0001 9.3215
#
#
#
# Elastic Compliance Matrix: (Units=1/GPa)
#
#
# Indices 1 2 3 4 5 6 
#
# 1 0.035675 -0.019387 -0.005474 0.000000 -0.005488 0.000000
# 2 -0.019387 0.035675 -0.005474 0.000000 0.005488 0.000000
# 3 -0.005474 -0.005474 0.012081 0.000000 0.000000 0.000000
# 4 0.000000 0.000000 0.000000 0.042371 0.000000 0.010977
# 5 -0.005488 0.005488 0.000000 0.000000 0.042371 0.000001
# 6 0.000000 0.000000 0.000000 0.010977 0.000001 0.110123
#
#
# Mechanical properties :
#
#
# Convention : Reuss Voigt Hill
#
# Bulk Modulus (GPa) = 43.93211 50.61751 47.27481
# Shear Modulus (GPa) = 14.42787 18.96335 16.69561
#
# Velocity S-wave (km/s) = 2.56327 2.93867 2.75737
# Velocity P-wave (km/s) = 5.36348 5.87923 5.62726
#
# Compressibility (1/GPa) = 0.02276239
#
# Stress axis : x y z
#
# Youngs Moduli (GPa) = 28.03102 28.03102 82.77345
#
# Poissons Ratio (x) = 0.54343 0.45308
# Poissons Ratio (y) = 0.54343 0.45308
# Poissons Ratio (z) = 0.15344 0.15344
#
# Static dielectric constant tensor:
#      x y z
#    x 1.826250 0.000000 0.000000 
#    y 0.000000 1.826250 0.000000 
#    z 0.000000 0.000000 1.883670 
# 
# From -- ./inp_files/1562.got.cif
#   From: 2010.05.17/outbox.cif.g08.bks.cpg/sg163_1_cif.got.tgz:1562.got - 2010.05.20 10:56:03.
