data_PCOD9578508
_publ_section_title
;
Structure prediction by ZEFSAII (Michael W. Deem and Ramdas Pophale) SiO2 
 PCOD9578508
Probable space group: P -3 M 1
;
_chemical_formula_sum "Si O2"
_cell_formula_units_Z 48
_cell_length_a 17.812647
_cell_length_b 17.812647
_cell_length_c 10.229181
_cell_angle_alpha 90.000000
_cell_angle_beta 90.000000
_cell_angle_gamma 120.000000
_cell_volume 2810.790117
_symmetry_space_group_name_H-M "P -3 M 1"
_symmetry_group_IT_number 164
_symmetry_cell_setting 'hexagonal'
loop_
_space_group_symop_operation_xyz
x,y,z
-y,x-y,z
-x+y,-x,z
x-y,-y,-z
-x,-x+y,-z
y,x,-z
-x,-y,-z
y,-x+y,-z
x-y,x,-z
-x+y,y,z
x,x-y,z
-y,-x,z
loop_
_atom_site_type_symbol
_atom_site_label
_atom_site_fract_x
_atom_site_fract_y
_atom_site_fract_z
Si Si1 0.101659 0.468165 0.033277
Si Si2 0.062854 0.757983 0.624235
Si Si3 0.332408 0.837797 0.737783
Si Si4 0.767092 0.708084 0.870745
O O1 0.130602 0.565301 0.081862
O O2 0.104721 0.397442 0.126219
O O3 0.146397 0.475022 0.893548
O O4 0.000000 0.423734 0.000000
O O5 0.145089 0.854912 0.608737
O O6 0.103194 0.696633 0.659134
O O7 0.000000 0.725280 0.500000
O O8 0.003697 0.748955 0.748201
O O9 0.428824 0.857648 0.709446
O O10 0.261485 0.738516 0.710287
O O11 0.865594 0.731187 0.873286
O O12 0.741725 0.741725 0.000000
#
# Coordination Sequence:
#
# PCOD9578508 Si02
#       4
#    12  12  12  12
#     4   9  16  28  50  81 114 143 174 217 264 315
#     4  11  23  39  57  79 109 145 185 229 278 334
#     4  10  19  33  54  83 116 149 184 222 267 320
#     4  11  20  34  58  84 108 140 182 229 279 329
#
# _framework density 17.077048999999999
#
# number of rings (size 3 to 8) (size 9 to 14) (size 15 to 20)
#    0.000    1.750    5.000    2.500    0.000    0.500 
#    0.000    0.000    0.000   10.500    0.000    0.000 
#    0.000    0.000    0.000    0.000    0.000    0.000 
#
# Total GULP energy -267512.946721 kJ/mol
# GULP energy per Si atom -5573.186390 kJ/mol
# Density = 1.703818 g / cm^3
# Si number density = 17.077049 Si / 1000 Ang^3
#
#
#
# Elastic Constant Matrix: (Units=GPa)
#
#
# Indices 1 2 3 4 5 6 
#
# 1 102.7570 65.1791 36.8676 5.7752 0.0000 0.0000
# 2 65.1791 102.7570 36.8676 -5.7752 0.0000 0.0000
# 3 36.8676 36.8676 67.6492 0.0000 0.0000 0.0000
# 4 5.7752 -5.7752 0.0000 34.8572 0.0000 0.0000
# 5 0.0000 0.0000 0.0000 0.0000 34.8572 5.7752
# 6 0.0000 0.0000 0.0000 0.0000 5.7752 18.7890
#
#
#
# Elastic Compliance Matrix: (Units=1/GPa)
#
#
# Indices 1 2 3 4 5 6 
#
# 1 0.017933 -0.010106 -0.004266 -0.004646 0.000000 0.000000
# 2 -0.010106 0.017933 -0.004266 0.004646 0.000000 0.000000
# 3 -0.004266 -0.004266 0.019432 0.000000 0.000000 0.000000
# 4 -0.004646 0.004646 0.000000 0.030228 0.000000 0.000000
# 5 0.000000 0.000000 0.000000 0.000000 0.030228 -0.009291
# 6 0.000000 0.000000 0.000000 0.000000 -0.009291 0.056078
#
#
# Mechanical properties :
#
#
# Convention : Reuss Voigt Hill
#
# Bulk Modulus (GPa) = 55.48328 61.22131 58.35229
# Shear Modulus (GPa) = 23.24327 26.65062 24.94695
#
# Velocity S-wave (km/s) = 3.69329 3.95474 3.82625
# Velocity P-wave (km/s) = 7.12374 7.53533 7.33242
#
# Compressibility (1/GPa) = 0.01802345
#
# Stress axis : x y z
#
# Youngs Moduli (GPa) = 55.76169 55.76169 51.46182
#
# Poissons Ratio (x) = 0.56352 0.21953
# Poissons Ratio (y) = 0.56352 0.21953
# Poissons Ratio (z) = 0.23788 0.23788
#
# Static dielectric constant tensor:
#      x y z
#    x 1.582780 0.000000 0.000000 
#    y 0.000000 1.582780 0.000000 
#    z 0.000000 0.000000 1.563120 
# 
# From -- ./inp_files/1217.got.cif
#   From: 2010.05.17/outbox.cif.g08.bks.cpg/sg164_1_cif.got.tgz:1217.got - 2010.05.20 10:58:56.
