data_PCOD9578407
_publ_section_title
;
Structure prediction by ZEFSAII (Michael W. Deem and Ramdas Pophale) SiO2 
 PCOD9578407
Probable space group: P -3 M 1
;
_chemical_formula_sum "Si O2"
_cell_formula_units_Z 84
_cell_length_a 33.076917
_cell_length_b 33.076917
_cell_length_c 5.181429
_cell_angle_alpha 90.000000
_cell_angle_beta 90.000000
_cell_angle_gamma 120.000000
_cell_volume 4909.420482
_symmetry_space_group_name_H-M "P -3 M 1"
_symmetry_group_IT_number 164
_symmetry_cell_setting 'hexagonal'
loop_
_space_group_symop_operation_xyz
x,y,z
-y,x-y,z
-x+y,-x,z
x-y,-y,-z
-x,-x+y,-z
y,x,-z
-x,-y,-z
y,-x+y,-z
x-y,x,-z
-x+y,y,z
x,x-y,z
-y,-x,z
loop_
_atom_site_type_symbol
_atom_site_label
_atom_site_fract_x
_atom_site_fract_y
_atom_site_fract_z
Si Si1 0.049732 0.572833 0.868190
Si Si2 0.239613 0.666208 0.039130
Si Si3 0.803012 0.698233 0.430726
Si Si4 0.296252 0.348056 0.373789
Si Si5 0.543699 0.630814 0.361967
Si Si6 0.730041 0.781697 0.074540
Si Si7 0.542309 0.364166 0.457336
O O1 0.055227 0.527614 0.842754
O O2 0.055131 0.595138 0.587490
O O3 0.084514 0.607519 0.084996
O O4 0.000000 0.556653 0.000000
O O5 0.255681 0.627841 0.004010
O O6 0.282505 0.717496 0.006722
O O7 0.200633 0.653816 0.821324
O O8 0.217295 0.658322 0.321971
O O9 0.841443 0.682886 0.470556
O O10 0.748300 0.658896 0.457887
O O11 0.808081 0.720977 0.153834
O O12 0.807138 0.734262 0.654865
O O13 0.322774 0.322774 0.500000
O O14 0.331385 0.402135 0.327821
O O15 0.268491 0.317156 0.125145
O O16 0.509468 0.647693 0.474891
O O17 0.769775 0.769775 0.000000
O O18 0.579863 0.420138 0.466061
#
# Coordination Sequence:
#
# PCOD9578407 Si02
#       7
#    12  12  12  12  12  12  12
#     4  11  23  38  55  79 104 132 173 226 275 319
#     4  10  20  37  61  85 107 131 169 217 268 325
#     4  10  20  34  55  80 110 145 184 230 286 339
#     4  10  22  36  57  81 109 140 190 234 284 318
#     4  12  24  37  59  78 108 143 181 213 267 334
#     4  10  18  35  55  78 108 144 182 236 283 317
#     4  10  21  37  56  78 106 139 167 202 260 331
#
# _framework density 17.109961999999999
#
# number of rings (size 3 to 8) (size 9 to 14) (size 15 to 20)
#    0.857    0.714    1.429    4.857    2.000    2.857 
#    0.000    2.857    0.000    0.000    0.000    0.000 
#    0.000    0.000    0.000    0.000    0.000    0.000 
#
# Total GULP energy -468146.052953 kJ/mol
# GULP energy per Si atom -5573.167297 kJ/mol
# Density = 1.707102 g / cm^3
# Si number density = 17.109962 Si / 1000 Ang^3
#
#
#
# Elastic Constant Matrix: (Units=GPa)
#
#
# Indices 1 2 3 4 5 6 
#
# 1 49.5817 12.3515 -11.6241 -4.0163 0.0000 0.0000
# 2 12.3515 49.5817 -11.6241 4.0163 0.0000 0.0000
# 3 -11.6241 -11.6241 63.7972 0.0000 0.0000 0.0000
# 4 -4.0163 4.0163 0.0000 11.8277 0.0000 0.0000
# 5 0.0000 0.0000 0.0000 0.0000 11.8277 -4.0163
# 6 0.0000 0.0000 0.0000 0.0000 -4.0163 18.6151
#
#
#
# Elastic Compliance Matrix: (Units=1/GPa)
#
#
# Indices 1 2 3 4 5 6 
#
# 1 0.023158 -0.005826 0.003158 0.009842 0.000000 0.000000
# 2 -0.005826 0.023158 0.003158 -0.009842 0.000000 0.000000
# 3 0.003158 0.003158 0.016825 0.000000 0.000000 0.000000
# 4 0.009842 -0.009842 0.000000 0.091231 0.000000 0.000000
# 5 0.000000 0.000000 0.000000 0.000000 0.091231 0.019684
# 6 0.000000 0.000000 0.000000 0.000000 0.019684 0.057967
#
#
# Mechanical properties :
#
#
# Convention : Reuss Voigt Hill
#
# Bulk Modulus (GPa) = 15.59556 15.68525 15.64041
# Shear Modulus (GPa) = 15.43384 20.04459 17.73922
#
# Velocity S-wave (km/s) = 3.00665 3.42645 3.22340
# Velocity P-wave (km/s) = 4.60304 4.98411 4.79736
#
# Compressibility (1/GPa) = 0.06412081
#
# Stress axis : x y z
#
# Youngs Moduli (GPa) = 43.18234 43.18234 59.43383
#
# Poissons Ratio (x) = 0.25157 -0.18769
# Poissons Ratio (y) = 0.25157 -0.18769
# Poissons Ratio (z) = -0.13637 -0.13637
#
# Static dielectric constant tensor:
#      x y z
#    x 1.582210 0.000000 0.000000 
#    y 0.000000 1.582210 0.000000 
#    z 0.000000 0.000000 1.603670 
# 
# From -- ./inp_files/859.got.cif
#   From: 2010.05.17/outbox.cif.g08.bks.cpg/sg164_1_cif.got.tgz:859.got - 2010.05.20 10:58:56.
