data_PCOD9578251
_publ_section_title
;
Structure prediction by ZEFSAII (Michael W. Deem and Ramdas Pophale) SiO2 
 PCOD9578251
Probable space group: P -3 1 C
;
_chemical_formula_sum "Si O2"
_cell_formula_units_Z 40
_cell_length_a 15.558480
_cell_length_b 15.558480
_cell_length_c 9.584380
_cell_angle_alpha 90.000000
_cell_angle_beta 90.000000
_cell_angle_gamma 120.000000
_cell_volume 2009.226918
_symmetry_space_group_name_H-M "P -3 1 C"
_symmetry_group_IT_number 163
_symmetry_cell_setting 'hexagonal'
loop_
_space_group_symop_operation_xyz
x,y,z
-y,x-y,z
-x+y,-x,z
-y,-x,1/2-z
-x+y,y,1/2-z
x,x-y,1/2-z
-x,-y,-z
y,-x+y,-z
x-y,x,-z
y,x,1/2+z
x-y,-y,1/2+z
-x,-x+y,1/2+z
loop_
_atom_site_type_symbol
_atom_site_label
_atom_site_fract_x
_atom_site_fract_y
_atom_site_fract_z
Si Si1 0.209208 0.770357 0.081839
Si Si2 0.817350 0.816236 0.199420
Si Si3 0.015834 0.716473 0.551812
Si Si4 0.333335 0.666668 0.080184
O O1 0.218628 0.781373 0.250000
O O2 0.264796 0.711822 0.035478
O O3 0.265546 0.881663 0.015731
O O4 0.091319 0.708030 0.045541
O O5 0.927889 0.855777 0.250000
O O6 0.797560 0.793166 0.037870
O O7 0.751296 0.716189 0.288064
O O8 0.783008 0.891504 0.250000
O O9 0.333334 0.666667 0.250000
#
# Coordination Sequence:
#
# PCOD9578251 Si02
#       4
#    12  12  12   4
#     4  11  22  41  64  93 122 164 207 249 310 369
#     4  12  21  34  52  89 124 172 208 241 292 371
#     4  12  20  35  63  86 126 156 206 251 300 365
#     4   9  24  45  66  88 119 154 216 271 302 373
#
# _framework density 19.908154
#
# number of rings (size 3 to 8) (size 9 to 14) (size 15 to 20)
#    0.000    0.600    9.000    0.300    0.000    1.200 
#    0.000    3.000    0.000    5.400    0.000    0.000 
#    0.000    0.000    0.000    0.000    0.000    0.000 
#
# Total GULP energy -223042.321612 kJ/mol
# GULP energy per Si atom -5576.058040 kJ/mol
# Density = 1.986284 g / cm^3
# Si number density = 19.908154 Si / 1000 Ang^3
#
#
#
# Elastic Constant Matrix: (Units=GPa)
#
#
# Indices 1 2 3 4 5 6 
#
# 1 119.5645 58.4492 7.1305 -0.0002 2.3916 0.0013
# 2 58.4492 119.5669 7.1310 -0.0003 -2.3919 0.0008
# 3 7.1305 7.1310 50.9644 -0.0001 0.0000 0.0004
# 4 -0.0002 -0.0003 -0.0001 22.3302 -0.0001 -2.3917
# 5 2.3916 -2.3919 0.0000 -0.0001 22.3303 0.0000
# 6 0.0013 0.0008 0.0004 -2.3917 0.0000 30.5582
#
#
#
# Elastic Compliance Matrix: (Units=1/GPa)
#
#
# Indices 1 2 3 4 5 6 
#
# 1 0.011091 -0.005410 -0.000795 0.000000 -0.001767 0.000000
# 2 -0.005410 0.011091 -0.000795 0.000000 0.001767 0.000000
# 3 -0.000795 -0.000795 0.019844 0.000000 0.000000 0.000000
# 4 0.000000 0.000000 0.000000 0.045161 0.000000 0.003535
# 5 -0.001767 0.001767 0.000000 0.000000 0.045161 0.000000
# 6 0.000000 0.000000 0.000000 0.003535 0.000000 0.033001
#
#
# Mechanical properties :
#
#
# Convention : Reuss Voigt Hill
#
# Bulk Modulus (GPa) = 35.68014 48.39080 42.03547
# Shear Modulus (GPa) = 26.49851 29.53606 28.01729
#
# Velocity S-wave (km/s) = 3.65230 3.85595 3.75551
# Velocity P-wave (km/s) = 5.97888 6.64713 6.32184
#
# Compressibility (1/GPa) = 0.02802679
#
# Stress axis : x y z
#
# Youngs Moduli (GPa) = 90.16349 90.16515 50.39311
#
# Poissons Ratio (x) = 0.48776 0.04005
# Poissons Ratio (y) = 0.48775 0.04006
# Poissons Ratio (z) = 0.07166 0.07168
#
# Static dielectric constant tensor:
#      x y z
#    x 1.720550 0.000000 0.000000 
#    y 0.000000 1.720550 0.000000 
#    z 0.000000 0.000000 1.682550 
# 
# From -- ./inp_files/795.got.cif
#   From: 2010.05.17/outbox.cif.g08.bks.cpg/sg163_1_cif.got.tgz:795.got - 2010.05.20 10:56:03.
