data_PCOD9578374
_publ_section_title
;
Structure prediction by ZEFSAII (Michael W. Deem and Ramdas Pophale) SiO2 
 PCOD9578374
Probable space group: P -3 M 1
;
_chemical_formula_sum "Si O2"
_cell_formula_units_Z 84
_cell_length_a 17.989343
_cell_length_b 17.989343
_cell_length_c 19.726872
_cell_angle_alpha 90.000000
_cell_angle_beta 90.000000
_cell_angle_gamma 120.000000
_cell_volume 5528.654662
_symmetry_space_group_name_H-M "P -3 M 1"
_symmetry_group_IT_number 164
_symmetry_cell_setting 'hexagonal'
loop_
_space_group_symop_operation_xyz
x,y,z
-y,x-y,z
-x+y,-x,z
x-y,-y,-z
-x,-x+y,-z
y,x,-z
-x,-y,-z
y,-x+y,-z
x-y,x,-z
-x+y,y,z
x,x-y,z
-y,-x,z
loop_
_atom_site_type_symbol
_atom_site_label
_atom_site_fract_x
_atom_site_fract_y
_atom_site_fract_z
Si Si1 0.002676 0.827413 0.683382
Si Si2 0.032192 0.312186 0.575823
Si Si3 0.241759 0.304531 0.194962
Si Si4 0.333894 0.502346 0.537069
Si Si5 0.824631 0.000513 0.080038
Si Si6 0.839740 0.335344 0.767391
Si Si7 0.862722 0.304408 0.615148
O O1 0.912770 0.825540 0.671062
O O2 0.986379 0.759281 0.742897
O O3 0.034946 0.796007 0.619110
O O4 0.077382 0.922619 0.702564
O O5 0.113956 0.406665 0.567189
O O6 0.000000 0.278747 0.500000
O O7 0.959248 0.325488 0.610959
O O8 0.155551 0.311102 0.193860
O O9 0.239713 0.255049 0.126686
O O10 0.316031 0.402338 0.206479
O O11 0.267660 0.535320 0.551468
O O12 0.429458 0.570543 0.560347
O O13 0.335971 0.492597 0.455299
O O14 0.910552 0.089449 0.096397
O O15 0.840650 0.920325 0.092416
O O16 0.806813 0.000000 0.000000
O O17 0.847543 0.423772 0.791272
O O18 0.746764 0.253237 0.784826
O O19 0.845287 0.336867 0.685176
O O20 0.798548 0.201453 0.615837
#
# Coordination Sequence:
#
# PCOD9578374 Si02
#       7
#    12  12  12  12  12  12  12
#     4  11  21  34  49  66  89 120 157 193 228 270
#     4  10  20  33  48  63  86 115 151 190 235 277
#     4   9  18  31  46  66  94 125 151 182 225 271
#     4  10  20  32  46  64  86 112 145 188 240 291
#     4   9  16  27  46  73 102 129 157 189 226 270
#     4  10  18  29  46  68  93 120 151 188 232 278
#     4   9  17  30  47  66  87 111 140 184 237 286
#
# _framework density 15.193569999999999
#
# number of rings (size 3 to 8) (size 9 to 14) (size 15 to 20)
#    0.000    2.286    1.429    2.286    0.000    5.429 
#    0.000    2.857    0.000    1.286    0.000    0.000 
#    0.000    0.000    0.000    0.571    0.000    0.286 
#
# Total GULP energy -467891.546795 kJ/mol
# GULP energy per Si atom -5570.137462 kJ/mol
# Density = 1.515899 g / cm^3
# Si number density = 15.193570 Si / 1000 Ang^3
#
#
#
# Elastic Constant Matrix: (Units=GPa)
#
#
# Indices 1 2 3 4 5 6 
#
# 1 92.3059 48.3823 34.8938 -3.9171 0.0000 0.0000
# 2 48.3823 92.3059 34.8938 3.9171 0.0000 0.0000
# 3 34.8938 34.8938 49.0699 0.0000 0.0000 0.0000
# 4 -3.9171 3.9171 0.0000 10.6650 0.0000 0.0000
# 5 0.0000 0.0000 0.0000 0.0000 10.6650 -3.9171
# 6 0.0000 0.0000 0.0000 0.0000 -3.9171 21.9618
#
#
#
# Elastic Compliance Matrix: (Units=1/GPa)
#
#
# Indices 1 2 3 4 5 6 
#
# 1 0.017672 -0.006691 -0.007809 0.008948 0.000000 0.000000
# 2 -0.006691 0.017672 -0.007809 -0.008948 0.000000 0.000000
# 3 -0.007809 -0.007809 0.031485 0.000000 0.000000 0.000000
# 4 0.008948 -0.008948 0.000000 0.100338 0.000000 0.000000
# 5 0.000000 0.000000 0.000000 0.000000 0.100338 0.017896
# 6 0.000000 0.000000 0.000000 0.000000 0.017896 0.048725
#
#
# Mechanical properties :
#
#
# Convention : Reuss Voigt Hill
#
# Bulk Modulus (GPa) = 45.02043 52.22462 48.62253
# Shear Modulus (GPa) = 13.57769 16.35916 14.96843
#
# Velocity S-wave (km/s) = 2.99264 3.28489 3.14217
# Velocity P-wave (km/s) = 6.45265 6.98819 6.72576
#
# Compressibility (1/GPa) = 0.02221214
#
# Stress axis : x y z
#
# Youngs Moduli (GPa) = 56.58631 56.58631 31.76103
#
# Poissons Ratio (x) = 0.37860 0.24802
# Poissons Ratio (y) = 0.37860 0.24802
# Poissons Ratio (z) = 0.44188 0.44188
#
# Static dielectric constant tensor:
#      x y z
#    x 1.516820 0.000000 0.000000 
#    y 0.000000 1.516820 0.000000 
#    z 0.000000 0.000000 1.512710 
# 
# From -- ./inp_files/4646.got.cif
#   From: 2010.05.17/outbox.cif.g08.bks.cpg/sg164_3_cif.got.tgz:4646.got - 2010.05.20 10:58:56.
