data_PCOD9578450
_publ_section_title
;
Structure prediction by ZEFSAII (Michael W. Deem and Ramdas Pophale) SiO2 
 PCOD9578450
Probable space group: P -3 M 1
;
_chemical_formula_sum "Si O2"
_cell_formula_units_Z 84
_cell_length_a 22.070599
_cell_length_b 22.070599
_cell_length_c 12.777696
_cell_angle_alpha 90.000000
_cell_angle_beta 90.000000
_cell_angle_gamma 120.000000
_cell_volume 5390.281217
_symmetry_space_group_name_H-M "P -3 M 1"
_symmetry_group_IT_number 164
_symmetry_cell_setting 'hexagonal'
loop_
_space_group_symop_operation_xyz
x,y,z
-y,x-y,z
-x+y,-x,z
x-y,-y,-z
-x,-x+y,-z
y,x,-z
-x,-y,-z
y,-x+y,-z
x-y,x,-z
-x+y,y,z
x,x-y,z
-y,-x,z
loop_
_atom_site_type_symbol
_atom_site_label
_atom_site_fract_x
_atom_site_fract_y
_atom_site_fract_z
Si Si1 0.281837 1.000000 0.373078
Si Si2 0.475941 0.809690 0.123147
Si Si3 0.140017 0.140017 0.372796
Si Si4 0.861737 0.282407 0.694721
Si Si5 0.579333 0.717596 0.694730
Si Si6 0.475941 0.809690 0.876858
Si Si7 0.333147 0.810081 0.500004
O O1 0.349475 0.068096 0.329151
O O2 0.285635 0.000000 0.500000
O O3 0.210745 1.000000 0.343964
O O4 0.281378 0.931902 0.329154
O O5 0.406616 0.813232 0.149051
O O6 0.461210 0.730605 0.140166
O O7 0.540469 0.858591 0.197397
O O8 0.491094 0.825391 0.000003
O O9 0.138316 0.138316 0.500000
O O10 0.070248 0.140495 0.338006
O O11 0.140495 0.070248 0.338006
O O12 0.796712 0.203289 0.694858
O O13 0.846111 0.321904 0.601603
O O14 0.593430 0.796715 0.694877
O O15 0.540470 0.681877 0.802609
O O16 0.524209 0.678105 0.601611
O O17 0.406616 0.813231 0.850955
O O18 0.461212 0.730606 0.859838
O O19 0.407165 0.814329 0.500009
O O20 0.270315 0.729686 0.499997
#
# Coordination Sequence:
#
# PCOD9578450 Si02
#       7
#    12  12  12  12  12  12  12
#     4  11  20  33  49  67  94 136 174 197 229 289
#     4   9  17  31  52  75  97 123 159 206 257 301
#     4   9  17  28  47  73 100 126 157 199 244 285
#     4  10  20  33  49  70  97 126 161 202 241 287
#     4  10  20  33  49  70  97 126 161 202 241 287
#     4   9  17  31  52  75  97 123 159 206 257 301
#     4  10  19  31  47  67  92 122 158 203 249 285
#
# _framework density 15.583603
#
# number of rings (size 3 to 8) (size 9 to 14) (size 15 to 20)
#    0.000    2.286    1.429    2.286    0.000    2.857 
#    0.000    7.143    0.000    1.714    0.000    0.000 
#    0.000    0.000    0.000    0.857    0.000   26.429 
#
# Total GULP energy -468477.066794 kJ/mol
# GULP energy per Si atom -5577.107938 kJ/mol
# Density = 1.554813 g / cm^3
# Si number density = 15.583603 Si / 1000 Ang^3
#
#
#
# Elastic Constant Matrix: (Units=GPa)
#
#
# Indices 1 2 3 4 5 6 
#
# 1 136.5399 96.5881 54.2511 0.0006 0.0000 0.0000
# 2 96.5881 136.5399 54.2511 -0.0006 0.0000 0.0000
# 3 54.2511 54.2511 62.9116 0.0000 0.0000 0.0000
# 4 0.0006 -0.0006 0.0000 20.2882 0.0000 0.0000
# 5 0.0000 0.0000 0.0000 0.0000 20.2882 0.0006
# 6 0.0000 0.0000 0.0000 0.0000 0.0006 19.9759
#
#
#
# Elastic Compliance Matrix: (Units=1/GPa)
#
#
# Indices 1 2 3 4 5 6 
#
# 1 0.016098 -0.008932 -0.006179 -0.000001 0.000000 0.000000
# 2 -0.008932 0.016098 -0.006179 0.000001 0.000000 0.000000
# 3 -0.006179 -0.006179 0.026552 0.000000 0.000000 0.000000
# 4 -0.000001 0.000001 0.000000 0.049290 0.000000 0.000000
# 5 0.000000 0.000000 0.000000 0.000000 0.049290 -0.000001
# 6 0.000000 0.000000 0.000000 0.000000 -0.000001 0.050060
#
#
# Mechanical properties :
#
#
# Convention : Reuss Voigt Hill
#
# Bulk Modulus (GPa) = 61.85477 82.90800 72.38139
# Shear Modulus (GPa) = 19.58047 20.83720 20.20884
#
# Velocity S-wave (km/s) = 3.54853 3.66064 3.60502
# Velocity P-wave (km/s) = 7.52116 8.43710 7.99226
#
# Compressibility (1/GPa) = 0.01616690
#
# Stress axis : x y z
#
# Youngs Moduli (GPa) = 62.12071 62.12071 37.66205
#
# Poissons Ratio (x) = 0.55489 0.23271
# Poissons Ratio (y) = 0.55489 0.23271
# Poissons Ratio (z) = 0.38384 0.38384
#
# Static dielectric constant tensor:
#      x y z
#    x 1.501280 0.000000 0.000000 
#    y 0.000000 1.501280 0.000000 
#    z 0.000000 0.000000 1.517080 
# 
# From -- ./inp_files/2910.got.cif
#   From: 2010.05.17/outbox.cif.g08.bks.cpg/sg164_2_cif.got.tgz:2910.got - 2010.05.20 10:58:56.
