data_PCOD9578352
_publ_section_title
;
Structure prediction by ZEFSAII (Michael W. Deem and Ramdas Pophale) SiO2 
 PCOD9578352
Probable space group: P -3 M 1
;
_chemical_formula_sum "Si O2"
_cell_formula_units_Z 84
_cell_length_a 22.616030
_cell_length_b 22.616030
_cell_length_c 12.693609
_cell_angle_alpha 90.000000
_cell_angle_beta 90.000000
_cell_angle_gamma 120.000000
_cell_volume 5622.746339
_symmetry_space_group_name_H-M "P -3 M 1"
_symmetry_group_IT_number 164
_symmetry_cell_setting 'hexagonal'
loop_
_space_group_symop_operation_xyz
x,y,z
-y,x-y,z
-x+y,-x,z
x-y,-y,-z
-x,-x+y,-z
y,x,-z
-x,-y,-z
y,-x+y,-z
x-y,x,-z
-x+y,y,z
x,x-y,z
-y,-x,z
loop_
_atom_site_type_symbol
_atom_site_label
_atom_site_fract_x
_atom_site_fract_y
_atom_site_fract_z
Si Si1 0.333676 0.528289 0.626935
Si Si2 0.289695 0.212140 0.124589
Si Si3 0.616613 0.920816 0.303880
Si Si4 0.215059 0.921117 0.500007
Si Si5 0.695791 0.079180 0.303872
Si Si6 0.194613 0.666324 0.373065
Si Si7 0.787865 0.077552 0.875403
O O1 0.265687 0.531374 0.653001
O O2 0.401553 0.598448 0.655073
O O3 0.330179 0.462339 0.679242
O O4 0.334005 0.520157 0.500000
O O5 0.269979 0.134990 0.149145
O O6 0.353570 0.263060 0.195708
O O7 0.231066 0.231063 0.147842
O O8 0.304947 0.223317 0.999995
O O9 0.659122 0.910891 0.398129
O O10 0.537663 0.867836 0.320756
O O11 0.646439 0.909486 0.195724
O O12 0.636653 0.999998 0.308655
O O13 0.136005 0.863996 0.500007
O O14 0.251768 0.910894 0.601889
O O15 0.234066 0.000000 0.500000
O O16 0.196891 0.598446 0.344927
O O17 0.265690 0.734311 0.346999
O O18 0.865020 0.134981 0.850853
#
# Coordination Sequence:
#
# PCOD9578352 Si02
#       7
#    12  12  12  12  12  12  12
#     4  10  19  30  45  65  92 123 152 181 217 266
#     4   9  17  29  46  67  90 117 150 187 225 266
#     4  10  19  30  46  68  91 116 146 183 225 265
#     4  10  18  28  43  64  89 115 143 177 218 262
#     4  10  19  30  46  68  91 116 146 183 225 265
#     4  10  19  30  45  65  92 123 152 181 217 266
#     4   9  17  29  46  67  90 117 150 187 225 266
#
# _framework density 14.939318999999999
#
# number of rings (size 3 to 8) (size 9 to 14) (size 15 to 20)
#    0.000    2.286    1.429    2.857    0.000    1.714 
#    0.000    1.429    0.000    1.286    0.000    6.000 
#    0.000    9.143    0.000    0.286    0.000    0.571 
#
# Total GULP energy -468265.957468 kJ/mol
# GULP energy per Si atom -5574.594732 kJ/mol
# Density = 1.490532 g / cm^3
# Si number density = 14.939319 Si / 1000 Ang^3
#
#
#
# Elastic Constant Matrix: (Units=GPa)
#
#
# Indices 1 2 3 4 5 6 
#
# 1 127.1431 103.4092 36.3312 0.0008 0.0000 0.0000
# 2 103.4092 127.1431 36.3312 -0.0008 0.0000 0.0000
# 3 36.3312 36.3312 33.8886 0.0000 0.0000 0.0000
# 4 0.0008 -0.0008 0.0000 18.8278 0.0000 0.0000
# 5 0.0000 0.0000 0.0000 0.0000 18.8278 0.0008
# 6 0.0000 0.0000 0.0000 0.0000 0.0008 11.8670
#
#
#
# Elastic Compliance Matrix: (Units=1/GPa)
#
#
# Indices 1 2 3 4 5 6 
#
# 1 0.024342 -0.017791 -0.007023 -0.000002 0.000000 0.000000
# 2 -0.017791 0.024342 -0.007023 0.000002 0.000000 0.000000
# 3 -0.007023 -0.007023 0.044567 0.000000 0.000000 0.000000
# 4 -0.000002 0.000002 0.000000 0.053113 0.000000 0.000000
# 5 0.000000 0.000000 0.000000 0.000000 0.053113 -0.000003
# 6 0.000000 0.000000 0.000000 0.000000 -0.000003 0.084267
#
#
# Mechanical properties :
#
#
# Convention : Reuss Voigt Hill
#
# Bulk Modulus (GPa) = 33.81056 71.14645 52.47851
# Shear Modulus (GPa) = 13.99468 17.37806 15.68637
#
# Velocity S-wave (km/s) = 3.06399 3.41433 3.24389
# Velocity P-wave (km/s) = 5.93283 7.95428 7.01673
#
# Compressibility (1/GPa) = 0.02957655
#
# Stress axis : x y z
#
# Youngs Moduli (GPa) = 41.08083 41.08083 22.43817
#
# Poissons Ratio (x) = 0.73089 0.15758
# Poissons Ratio (y) = 0.73089 0.15758
# Poissons Ratio (z) = 0.28851 0.28851
#
# Static dielectric constant tensor:
#      x y z
#    x 1.484250 0.000000 0.000000 
#    y 0.000000 1.484250 0.000000 
#    z 0.000000 0.000000 1.498090 
# 
# From -- ./inp_files/2871.got.cif
#   From: 2010.05.17/outbox.cif.g08.bks.cpg/sg164_2_cif.got.tgz:2871.got - 2010.05.20 10:58:56.
