data_PCOD9578833
_publ_section_title
;
Structure prediction by ZEFSAII (Michael W. Deem and Ramdas Pophale) SiO2 
 PCOD9578833
Probable space group: P -3 C 1
;
_chemical_formula_sum "Si O2"
_cell_formula_units_Z 28
_cell_length_a 6.933639
_cell_length_b 6.933639
_cell_length_c 30.193055
_cell_angle_alpha 90.000000
_cell_angle_beta 90.000000
_cell_angle_gamma 120.000000
_cell_volume 1257.071970
_symmetry_space_group_name_H-M "P -3 C 1"
_symmetry_group_IT_number 165
_symmetry_cell_setting 'hexagonal'
loop_
_space_group_symop_operation_xyz
x,y,z
-y,x-y,z
-x+y,-x,z
x-y,-y,1/2-z
-x,-x+y,1/2-z
y,x,1/2-z
-x,-y,-z
y,-x+y,-z
x-y,x,-z
-x+y,y,1/2+z
x,x-y,1/2+z
-y,-x,1/2+z
loop_
_atom_site_type_symbol
_atom_site_label
_atom_site_fract_x
_atom_site_fract_y
_atom_site_fract_z
Si Si1 0.275245 0.388854 0.204581
Si Si2 0.000000 0.000000 0.552389
Si Si3 0.387893 0.121544 0.614169
O O1 0.514378 0.621843 0.204091
O O2 0.267689 0.267689 0.250000
O O3 0.271829 0.259521 0.160603
O O4 0.219427 0.014437 0.573987
O O5 0.000000 0.000000 0.500000
O O6 0.611258 0.103842 0.612050
#
# Coordination Sequence:
#
# PCOD9578833 Si02
#       3
#    12   4  12
#     4  10  20  34  64 100 147 186 228 277 329 403
#     4  12  27  48  73 104 133 177 237 297 367 425
#     4  10  23  44  68  99 141 180 228 282 352 408
#
# _framework density 22.273980000000002
#
# number of rings (size 3 to 8) (size 9 to 14) (size 15 to 20)
#    1.714    0.000    0.000    5.143    0.000    1.714 
#    2.571    0.000    0.000    3.429    0.000    0.000 
#    0.000    0.000    0.000    0.000    0.000    0.000 
#
# Total GULP energy -156319.948790 kJ/mol
# GULP energy per Si atom -5582.855314 kJ/mol
# Density = 2.222328 g / cm^3
# Si number density = 22.273980 Si / 1000 Ang^3
#
#
#
# Elastic Constant Matrix: (Units=GPa)
#
#
# Indices 1 2 3 4 5 6 
#
# 1 97.4502 23.2967 62.4251 5.6754 0.0000 0.0000
# 2 23.2967 97.4502 62.4251 -5.6754 0.0000 0.0000
# 3 62.4251 62.4251 252.1860 0.0000 0.0000 0.0000
# 4 5.6754 -5.6754 0.0000 27.1325 0.0000 0.0000
# 5 0.0000 0.0000 0.0000 0.0000 27.1325 5.6754
# 6 0.0000 0.0000 0.0000 0.0000 5.6754 37.0767
#
#
#
# Elastic Compliance Matrix: (Units=1/GPa)
#
#
# Indices 1 2 3 4 5 6 
#
# 1 0.012531 -0.001400 -0.002755 -0.002914 0.000000 0.000000
# 2 -0.001400 0.012531 -0.002755 0.002914 0.000000 0.000000
# 3 -0.002755 -0.002755 0.005329 0.000000 0.000000 0.000000
# 4 -0.002914 0.002914 0.000000 0.038075 0.000000 0.000000
# 5 0.000000 0.000000 0.000000 0.000000 0.038075 -0.005828
# 6 0.000000 0.000000 0.000000 0.000000 -0.005828 0.027863
#
#
# Mechanical properties :
#
#
# Convention : Reuss Voigt Hill
#
# Bulk Modulus (GPa) = 60.35102 82.59781 71.47442
# Shear Modulus (GPa) = 32.52021 38.19764 35.35892
#
# Velocity S-wave (km/s) = 3.82515 4.14563 3.98861
# Velocity P-wave (km/s) = 6.83101 7.75101 7.30551
#
# Compressibility (1/GPa) = 0.01656973
#
# Stress axis : x y z
#
# Youngs Moduli (GPa) = 79.80126 79.80127 187.63953
#
# Poissons Ratio (x) = 0.11176 0.51699
# Poissons Ratio (y) = 0.11176 0.51699
# Poissons Ratio (z) = 0.21987 0.21987
#
# Static dielectric constant tensor:
#      x y z
#    x 1.874010 0.000000 0.000000 
#    y 0.000000 1.874010 0.000000 
#    z 0.000000 0.000000 1.719560 
# 
# From -- ./inp_files/2787.got.cif
#   From: 2010.05.17/outbox.cif.g08.bks.cpg/sg165_2_cif.got.tgz:2787.got - 2010.05.20 11:02:39.
