data_PCOD9578052
_publ_section_title
;
Structure prediction by ZEFSAII (Michael W. Deem and Ramdas Pophale) SiO2 
 PCOD9578052
Probable space group: P -3 1 C
;
_chemical_formula_sum "Si O2"
_cell_formula_units_Z 84
_cell_length_a 17.813651
_cell_length_b 17.813651
_cell_length_c 14.459836
_cell_angle_alpha 90.000000
_cell_angle_beta 90.000000
_cell_angle_gamma 120.000000
_cell_volume 3973.743934
_symmetry_space_group_name_H-M "P -3 1 C"
_symmetry_group_IT_number 163
_symmetry_cell_setting 'hexagonal'
loop_
_space_group_symop_operation_xyz
x,y,z
-y,x-y,z
-x+y,-x,z
-y,-x,1/2-z
-x+y,y,1/2-z
x,x-y,1/2-z
-x,-y,-z
y,-x+y,-z
x-y,x,-z
y,x,1/2+z
x-y,-y,1/2+z
-x,-x+y,1/2+z
loop_
_atom_site_type_symbol
_atom_site_label
_atom_site_fract_x
_atom_site_fract_y
_atom_site_fract_z
Si Si1 0.044985 0.602724 0.255236
Si Si2 0.312458 0.088016 0.820778
Si Si3 0.819212 0.924751 0.046737
Si Si4 0.072054 0.448310 0.910140
Si Si5 0.032388 0.197873 0.693588
Si Si6 0.447684 0.062892 0.063271
Si Si7 0.380424 0.181625 0.139364
O O1 0.089993 0.544997 0.250000
O O2 0.096065 0.692418 0.201962
O O3 0.956903 0.553824 0.195383
O O4 0.013163 0.600215 0.359148
O O5 0.311746 0.155873 0.750000
O O6 0.276499 0.092310 0.921977
O O7 0.240884 0.998801 0.771284
O O8 0.849997 0.878186 0.969817
O O9 0.876572 0.044036 0.864975
O O10 0.094454 0.544174 0.943305
O O11 0.136562 0.410083 0.910054
O O12 0.986670 0.387059 0.970088
O O13 0.078023 0.156046 0.750000
O O14 0.104533 0.279107 0.634160
O O15 0.433418 0.140146 0.094732
O O16 0.396911 0.198456 0.250000
#
# Coordination Sequence:
#
# PCOD9578052 Si02
#       7
#    12  12  12  12  12  12  12
#     4  10  19  40  67  89 125 167 214 272 342 416
#     4  10  21  40  59  86 123 166 219 275 334 391
#     4  11  24  39  56  85 126 172 227 282 333 399
#     4  10  22  39  65  98 133 179 216 271 350 415
#     4  10  20  36  58  82 118 171 220 279 327 387
#     4  10  21  40  64  96 139 173 221 273 341 426
#     4  11  20  37  67  97 134 176 229 291 345 411
#
# _framework density 21.138756000000001
#
# number of rings (size 3 to 8) (size 9 to 14) (size 15 to 20)
#    0.000    1.714    2.857    1.857    0.000    2.286 
#    3.429    2.143    0.000    0.286    0.000    0.000 
#    0.000    0.000    0.000    0.000    0.000    0.000 
#
# Total GULP energy -467840.162132 kJ/mol
# GULP energy per Si atom -5569.525740 kJ/mol
# Density = 2.109064 g / cm^3
# Si number density = 21.138756 Si / 1000 Ang^3
#
#
#
# Elastic Constant Matrix: (Units=GPa)
#
#
# Indices 1 2 3 4 5 6 
#
# 1 112.0995 51.4018 29.6305 0.0001 -6.2024 0.0000
# 2 51.4018 112.0995 29.6305 -0.0001 6.2024 0.0000
# 3 29.6305 29.6305 97.2456 0.0000 0.0000 0.0000
# 4 0.0001 -0.0001 0.0000 25.3629 0.0000 6.2024
# 5 -6.2024 6.2024 0.0000 0.0000 25.3629 0.0001
# 6 0.0000 0.0000 0.0000 6.2024 0.0001 30.3488
#
#
#
# Elastic Compliance Matrix: (Units=1/GPa)
#
#
# Indices 1 2 3 4 5 6 
#
# 1 0.012109 -0.005233 -0.002095 0.000000 0.004241 0.000000
# 2 -0.005233 0.012109 -0.002095 0.000000 -0.004241 0.000000
# 3 -0.002095 -0.002095 0.011560 0.000000 0.000000 0.000000
# 4 0.000000 0.000000 0.000000 0.041502 0.000000 -0.008482
# 5 0.004241 -0.004241 0.000000 0.000000 0.041502 0.000000
# 6 0.000000 0.000000 0.000000 -0.008482 0.000000 0.034684
#
#
# Mechanical properties :
#
#
# Convention : Reuss Voigt Hill
#
# Bulk Modulus (GPa) = 59.06300 60.30780 59.68540
# Shear Modulus (GPa) = 28.09710 30.26705 29.18207
#
# Velocity S-wave (km/s) = 3.64974 3.78805 3.71954
# Velocity P-wave (km/s) = 6.76477 6.90825 6.83688
#
# Compressibility (1/GPa) = 0.01693107
#
# Stress axis : x y z
#
# Youngs Moduli (GPa) = 82.58566 82.58566 86.50602
#
# Poissons Ratio (x) = 0.43219 0.18122
# Poissons Ratio (y) = 0.43219 0.18122
# Poissons Ratio (z) = 0.17301 0.17301
#
# Static dielectric constant tensor:
#      x y z
#    x 1.833960 0.000000 0.000000 
#    y 0.000000 1.833960 0.000000 
#    z 0.000000 0.000000 1.834320 
# 
# From -- ./inp_files/2653.got.cif
#   From: 2010.05.17/outbox.cif.g08.bks.cpg/sg163_2_cif.got.tgz:2653.got - 2010.05.20 10:56:03.
