data_PCOD9578424
_publ_section_title
;
Structure prediction by ZEFSAII (Michael W. Deem and Ramdas Pophale) SiO2 
 PCOD9578424
Probable space group: P -3 M 1
;
_chemical_formula_sum "Si O2"
_cell_formula_units_Z 84
_cell_length_a 21.562006
_cell_length_b 21.562006
_cell_length_c 13.320113
_cell_angle_alpha 90.000000
_cell_angle_beta 90.000000
_cell_angle_gamma 120.000000
_cell_volume 5363.111992
_symmetry_space_group_name_H-M "P -3 M 1"
_symmetry_group_IT_number 164
_symmetry_cell_setting 'hexagonal'
loop_
_space_group_symop_operation_xyz
x,y,z
-y,x-y,z
-x+y,-x,z
x-y,-y,-z
-x,-x+y,-z
y,x,-z
-x,-y,-z
y,-x+y,-z
x-y,x,-z
-x+y,y,z
x,x-y,z
-y,-x,z
loop_
_atom_site_type_symbol
_atom_site_label
_atom_site_fract_x
_atom_site_fract_y
_atom_site_fract_z
Si Si1 0.378135 0.899490 0.200716
Si Si2 0.857036 0.291861 0.595269
Si Si3 0.959380 0.599986 0.100902
Si Si4 0.479575 0.814126 0.605898
Si Si5 0.739112 0.115987 0.271337
Si Si6 0.074763 0.293073 0.525148
Si Si7 0.185951 0.666512 0.998349
O O1 0.444338 0.888676 0.225944
O O2 0.332102 0.885078 0.300473
O O3 0.409696 0.979814 0.157346
O O4 0.334902 0.843740 0.110956
O O5 0.781717 0.218284 0.609647
O O6 0.842111 0.334449 0.507104
O O7 0.912115 0.270542 0.547293
O O8 0.935453 0.640758 0.177724
O O9 0.884422 0.529587 0.069918
O O10 0.000000 0.641413 0.000000
O O11 0.408072 0.816143 0.628471
O O12 0.467158 0.733579 0.611375
O O13 0.544993 0.861111 0.681679
O O14 0.810395 0.189606 0.243640
O O15 0.759080 0.080740 0.362189
O O16 0.140151 0.280301 0.508905
O O17 0.000000 0.226140 0.500000
O O18 0.203057 0.601528 0.991259
O O19 0.256611 0.743390 0.976245
#
# Coordination Sequence:
#
# PCOD9578424 Si02
#       7
#    12  12  12  12  12  12  12
#     4  10  19  30  45  64  87 114 144 182 227 271
#     4   9  17  29  45  66  91 118 148 180 215 259
#     4  10  20  33  48  64  84 112 147 189 233 271
#     4   9  17  28  43  64  90 120 152 186 222 260
#     4   9  18  32  48  66  90 119 150 184 221 261
#     4   9  17  30  49  71  95 122 148 174 207 253
#     4  10  20  33  47  62  81 108 145 187 231 276
#
# _framework density 15.662549
#
# number of rings (size 3 to 8) (size 9 to 14) (size 15 to 20)
#    0.000    2.571    0.000    4.571    0.000    2.857 
#    0.000    0.000    0.000   12.000    0.000    0.000 
#    0.000    0.000    0.000    0.000    0.000    5.714 
#
# Total GULP energy -468063.511953 kJ/mol
# GULP energy per Si atom -5572.184666 kJ/mol
# Density = 1.562690 g / cm^3
# Si number density = 15.662549 Si / 1000 Ang^3
#
#
#
# Elastic Constant Matrix: (Units=GPa)
#
#
# Indices 1 2 3 4 5 6 
#
# 1 52.3523 36.7144 18.0791 0.8638 0.0000 0.0000
# 2 36.7144 52.3523 18.0791 -0.8638 0.0000 0.0000
# 3 18.0791 18.0791 46.5780 0.0000 0.0000 0.0000
# 4 0.8638 -0.8638 0.0000 15.7299 0.0000 0.0000
# 5 0.0000 0.0000 0.0000 0.0000 15.7299 0.8638
# 6 0.0000 0.0000 0.0000 0.0000 0.8638 7.8189
#
#
#
# Elastic Compliance Matrix: (Units=1/GPa)
#
#
# Indices 1 2 3 4 5 6 
#
# 1 0.038833 -0.025505 -0.005173 -0.003533 0.000000 0.000000
# 2 -0.025505 0.038833 -0.005173 0.003533 0.000000 0.000000
# 3 -0.005173 -0.005173 0.025485 0.000000 0.000000 0.000000
# 4 -0.003533 0.003533 0.000000 0.063961 0.000000 0.000000
# 5 0.000000 0.000000 0.000000 0.000000 0.063961 -0.007066
# 6 0.000000 0.000000 0.000000 0.000000 -0.007066 0.128675
#
#
# Mechanical properties :
#
#
# Convention : Reuss Voigt Hill
#
# Bulk Modulus (GPa) = 31.79840 33.00312 32.40076
# Shear Modulus (GPa) = 11.31393 13.08307 12.19850
#
# Velocity S-wave (km/s) = 2.69058 2.89331 2.79378
# Velocity P-wave (km/s) = 5.47710 5.68144 5.58020
#
# Compressibility (1/GPa) = 0.03144812
#
# Stress axis : x y z
#
# Youngs Moduli (GPa) = 25.75156 25.75156 39.23843
#
# Poissons Ratio (x) = 0.65679 0.20298
# Poissons Ratio (y) = 0.65679 0.20298
# Poissons Ratio (z) = 0.13322 0.13322
#
# Static dielectric constant tensor:
#      x y z
#    x 1.513120 0.000000 0.000000 
#    y 0.000000 1.513120 0.000000 
#    z 0.000000 0.000000 1.536770 
# 
# From -- ./inp_files/2876.got.cif
#   From: 2010.05.17/outbox.cif.g08.bks.cpg/sg164_2_cif.got.tgz:2876.got - 2010.05.20 10:58:56.
