data_PCOD9578177
_publ_section_title
;
Structure prediction by ZEFSAII (Michael W. Deem and Ramdas Pophale) SiO2 
 PCOD9578177
Probable space group: P -3 1 C
;
_chemical_formula_sum "Si O2"
_cell_formula_units_Z 76
_cell_length_a 16.357487
_cell_length_b 16.357487
_cell_length_c 15.473918
_cell_angle_alpha 90.000000
_cell_angle_beta 90.000000
_cell_angle_gamma 120.000000
_cell_volume 3585.618587
_symmetry_space_group_name_H-M "P -3 1 C"
_symmetry_group_IT_number 163
_symmetry_cell_setting 'hexagonal'
loop_
_space_group_symop_operation_xyz
x,y,z
-y,x-y,z
-x+y,-x,z
-y,-x,1/2-z
-x+y,y,1/2-z
x,x-y,1/2-z
-x,-y,-z
y,-x+y,-z
x-y,x,-z
y,x,1/2+z
x-y,-y,1/2+z
-x,-x+y,1/2+z
loop_
_atom_site_type_symbol
_atom_site_label
_atom_site_fract_x
_atom_site_fract_y
_atom_site_fract_z
Si Si1 0.169039 0.471058 0.077998
Si Si2 0.233409 0.850019 0.537890
Si Si3 0.902821 0.461075 0.446996
Si Si4 0.195048 0.014557 0.976669
Si Si5 0.575827 0.579430 0.208606
Si Si6 0.333334 0.666668 0.148647
Si Si7 0.914859 0.226233 0.315719
O O1 0.079323 0.429518 0.140164
O O2 0.259231 0.560716 0.118316
O O3 0.183363 0.385578 0.050007
O O4 0.154182 0.512190 0.987037
O O5 0.332804 0.856129 0.530282
O O6 0.241418 0.951594 0.533413
O O7 0.172407 0.794290 0.620718
O O8 0.000000 0.500000 0.500000
O O9 0.925318 0.488475 0.346498
O O10 0.215491 0.985651 0.882013
O O11 0.179088 0.103642 0.983765
O O12 0.471542 0.528459 0.250000
O O13 0.671224 0.632667 0.266958
O O14 0.333334 0.666667 0.250000
O O15 0.861976 0.138025 0.250000
#
# Coordination Sequence:
#
# PCOD9578177 Si02
#       7
#    12  12  12  12  12   4  12
#     4  11  24  41  65  95 136 180 227 268 333 418
#     4  11  23  43  70  99 131 182 235 278 326 423
#     4  10  22  38  67  93 133 179 228 260 331 409
#     4  10  25  44  72  95 132 179 235 286 351 415
#     4  11  24  41  67 101 139 177 220 285 347 401
#     4  12  24  39  57  93 136 170 208 273 330 396
#     4  11  24  43  69 104 136 172 231 297 344 405
#
# _framework density 21.195785999999998
#
# number of rings (size 3 to 8) (size 9 to 14) (size 15 to 20)
#    0.000    1.263    3.158    1.579   13.263    1.263 
#    0.000    6.316    0.000    0.316    0.000    0.000 
#    0.000    0.000    0.000    0.000    0.000    0.000 
#
# Total GULP energy -423373.820955 kJ/mol
# GULP energy per Si atom -5570.708170 kJ/mol
# Density = 2.114754 g / cm^3
# Si number density = 21.195786 Si / 1000 Ang^3
#
#
#
# Elastic Constant Matrix: (Units=GPa)
#
#
# Indices 1 2 3 4 5 6 
#
# 1 101.6698 39.1377 47.2342 0.0000 -0.6042 -0.0001
# 2 39.1377 101.6698 47.2341 -0.0001 0.6042 0.0000
# 3 47.2342 47.2341 116.7950 0.0000 0.0000 -0.0001
# 4 0.0000 -0.0001 0.0000 39.6175 -0.0001 0.6042
# 5 -0.6042 0.6042 0.0000 -0.0001 39.6178 0.0000
# 6 -0.0001 0.0000 -0.0001 0.6042 0.0000 31.2660
#
#
#
# Elastic Compliance Matrix: (Units=1/GPa)
#
#
# Indices 1 2 3 4 5 6 
#
# 1 0.012871 -0.003125 -0.003942 0.000000 0.000244 0.000000
# 2 -0.003125 0.012871 -0.003942 0.000000 -0.000244 0.000000
# 3 -0.003942 -0.003942 0.011750 0.000000 0.000000 0.000000
# 4 0.000000 0.000000 0.000000 0.025249 0.000000 -0.000488
# 5 0.000244 -0.000244 0.000000 0.000000 0.025249 0.000000
# 6 0.000000 0.000000 0.000000 -0.000488 0.000000 0.031993
#
#
# Mechanical properties :
#
#
# Convention : Reuss Voigt Hill
#
# Bulk Modulus (GPa) = 64.61460 65.26073 64.93766
# Shear Modulus (GPa) = 33.97688 34.53550 34.25619
#
# Velocity S-wave (km/s) = 4.00809 4.04091 4.02453
# Velocity P-wave (km/s) = 7.20906 7.25453 7.23183
#
# Compressibility (1/GPa) = 0.01547638
#
# Stress axis : x y z
#
# Youngs Moduli (GPa) = 77.69146 77.69148 85.10544
#
# Poissons Ratio (x) = 0.24279 0.33545
# Poissons Ratio (y) = 0.24279 0.33545
# Poissons Ratio (z) = 0.30623 0.30623
#
# Static dielectric constant tensor:
#      x y z
#    x 1.825620 0.000000 0.000000 
#    y 0.000000 1.825620 0.000000 
#    z 0.000000 0.000000 1.897550 
# 
# From -- ./inp_files/2622.got.cif
#   From: 2010.05.17/outbox.cif.g08.bks.cpg/sg163_2_cif.got.tgz:2622.got - 2010.05.20 10:56:03.
