data_PCOD9578049
_publ_section_title
;
Structure prediction by ZEFSAII (Michael W. Deem and Ramdas Pophale) SiO2 
 PCOD9578049
Probable space group: P -3 1 C
;
_chemical_formula_sum "Si O2"
_cell_formula_units_Z 70
_cell_length_a 14.962176
_cell_length_b 14.962176
_cell_length_c 17.017710
_cell_angle_alpha 90.000000
_cell_angle_beta 90.000000
_cell_angle_gamma 120.000000
_cell_volume 3299.295907
_symmetry_space_group_name_H-M "P -3 1 C"
_symmetry_group_IT_number 163
_symmetry_cell_setting 'hexagonal'
loop_
_space_group_symop_operation_xyz
x,y,z
-y,x-y,z
-x+y,-x,z
-y,-x,1/2-z
-x+y,y,1/2-z
x,x-y,1/2-z
-x,-y,-z
y,-x+y,-z
x-y,x,-z
y,x,1/2+z
x-y,-y,1/2+z
-x,-x+y,1/2+z
loop_
_atom_site_type_symbol
_atom_site_label
_atom_site_fract_x
_atom_site_fract_y
_atom_site_fract_z
Si Si1 0.722293 0.861147 0.250000
Si Si2 0.877320 0.756862 0.481753
Si Si3 0.555400 0.113664 0.846780
Si Si4 0.516000 0.411582 0.161370
Si Si5 0.215770 0.297524 0.684648
Si Si6 0.575581 0.793646 0.394086
Si Si7 0.333333 0.666667 0.652988
O O1 0.779618 0.801761 0.282828
O O2 0.650589 0.856228 0.321559
O O3 0.821522 0.822387 0.502669
O O4 0.856586 0.733859 0.390341
O O5 0.823632 0.650330 0.530985
O O6 0.561245 0.122490 0.750000
O O7 0.664476 0.179331 0.888900
O O8 0.477132 0.150246 0.875198
O O9 0.512296 0.994801 0.871315
O O10 0.556819 0.443182 0.250000
O O11 0.395460 0.325327 0.163150
O O12 0.586470 0.369216 0.125749
O O13 0.168708 0.337416 0.750000
O O14 0.333334 0.666667 0.750000
#
# Coordination Sequence:
#
# PCOD9578049 Si02
#       7
#     6  12  12  12  12  12   4
#     4  12  20  44  70 100 140 182 248 290 352 434
#     4  12  27  49  71 100 148 188 237 304 375 433
#     4  11  20  37  68 103 140 180 237 289 351 418
#     4  10  19  37  60  97 135 175 229 285 341 406
#     4  12  25  43  71 103 137 190 246 297 361 439
#     4  12  23  43  71 107 145 189 235 303 363 430
#     4   9  18  30  54  84 129 174 216 268 329 400
#
# _framework density 21.216647999999999
#
# number of rings (size 3 to 8) (size 9 to 14) (size 15 to 20)
#    0.000    0.686    5.143    4.114    0.000    1.371 
#    0.514    6.857    0.000    0.000    0.000    0.000 
#    0.000    0.000    0.000    0.000    0.000    0.000 
#
# Total GULP energy -391149.714072 kJ/mol
# GULP energy per Si atom -5587.853058 kJ/mol
# Density = 2.116836 g / cm^3
# Si number density = 21.216648 Si / 1000 Ang^3
#
#
#
# Elastic Constant Matrix: (Units=GPa)
#
#
# Indices 1 2 3 4 5 6 
#
# 1 97.3114 70.2864 20.2862 -0.0013 -25.8170 0.0009
# 2 70.2864 97.3114 20.2862 0.0011 25.8171 -0.0006
# 3 20.2862 20.2862 67.1646 0.0000 0.0001 0.0000
# 4 -0.0013 0.0011 0.0000 -24.3941 -0.0012 25.8172
# 5 -25.8170 25.8171 0.0001 -0.0012 -24.3940 0.0006
# 6 0.0009 -0.0006 0.0000 25.8172 0.0006 13.5123
#
#
#
# Elastic Compliance Matrix: (Units=1/GPa)
#
#
# Indices 1 2 3 4 5 6 
#
# 1 0.009341 -0.002903 -0.001944 0.000000 -0.012958 0.000000
# 2 -0.002903 0.009341 -0.001944 0.000000 0.012958 0.000000
# 3 -0.001944 -0.001944 0.016063 0.000000 0.000000 0.000000
# 4 0.000000 0.000000 0.000000 -0.013565 0.000001 0.025917
# 5 -0.012958 0.012958 0.000000 0.000001 -0.013565 -0.000001
# 6 0.000000 0.000000 0.000000 0.025917 -0.000001 0.024488
#
#
# Mechanical properties :
#
#
# Convention : Reuss Voigt Hill
#
# Bulk Modulus (GPa) = 47.25734 53.72277 50.49005
# Shear Modulus (GPa) = 94.80171 3.00674 48.90422
#
# Velocity S-wave (km/s) = 6.69176 1.19174 4.80624
# Velocity P-wave (km/s) = 9.05695 5.22204 7.39250
#
# Compressibility (1/GPa) = 0.02116074
#
# Stress axis : x y z
#
# Youngs Moduli (GPa) = 107.05725 107.05746 62.25368
#
# Poissons Ratio (x) = 0.31083 0.12104
# Poissons Ratio (y) = 0.31083 0.12104
# Poissons Ratio (z) = 0.20815 0.20815
#
# Static dielectric constant tensor:
#      x y z
#    x 1.809520 0.000000 0.000000 
#    y 0.000000 1.809520 0.000000 
#    z 0.000000 0.000000 1.379410 
# 
# From -- ./inp_files/3160.got.cif
#   From: 2010.05.17/outbox.cif.g08.bks.cpg/sg163_2_cif.got.tgz:3160.got - 2010.05.20 10:56:03.
