data_PCOD9578528
_publ_section_title
;
Structure prediction by ZEFSAII (Michael W. Deem and Ramdas Pophale) SiO2 
 PCOD9578528
Probable space group: P -3 M 1
;
_chemical_formula_sum "Si O2"
_cell_formula_units_Z 66
_cell_length_a 12.714505
_cell_length_b 12.714505
_cell_length_c 29.657010
_cell_angle_alpha 90.000000
_cell_angle_beta 90.000000
_cell_angle_gamma 120.000000
_cell_volume 4151.995835
_symmetry_space_group_name_H-M "P -3 M 1"
_symmetry_group_IT_number 164
_symmetry_cell_setting 'hexagonal'
loop_
_space_group_symop_operation_xyz
x,y,z
-y,x-y,z
-x+y,-x,z
x-y,-y,-z
-x,-x+y,-z
y,x,-z
-x,-y,-z
y,-x+y,-z
x-y,x,-z
-x+y,y,z
x,x-y,z
-y,-x,z
loop_
_atom_site_type_symbol
_atom_site_label
_atom_site_fract_x
_atom_site_fract_y
_atom_site_fract_z
Si Si1 0.417013 0.333783 0.456421
Si Si2 0.749386 0.749386 0.000000
Si Si3 0.416027 0.333249 0.184351
Si Si4 0.333310 0.414568 0.716721
Si Si5 0.666772 0.583479 0.630662
Si Si6 0.414667 0.333465 0.085787
O O1 0.354234 0.354234 0.500000
O O2 0.410466 0.205233 0.457257
O O3 0.556897 0.443104 0.456739
O O4 0.356647 0.351797 0.411634
O O5 0.672981 0.683041 0.955378
O O6 0.880489 0.760978 0.998066
O O7 0.431312 0.215656 0.185695
O O8 0.547480 0.452521 0.182899
O O9 0.362715 0.334945 0.233337
O O10 0.359165 0.330105 0.135558
O O11 0.207329 0.414657 0.711069
O O12 0.446892 0.553109 0.715164
O O13 0.355435 0.344382 0.676589
O O14 0.793748 0.587496 0.627042
O O15 0.555356 0.444645 0.630611
O O16 0.436872 0.218436 0.084139
O O17 0.541682 0.458319 0.081462
#
# Coordination Sequence:
#
# PCOD9578528 Si02
#       6
#    12   6  12  12  12  12
#     4  10  20  34  54  78 102 126 153 189 231 274
#     4  10  20  32  44  58  80 114 154 190 220 254
#     4   8  13  22  39  65  93 116 138 169 217 274
#     4   9  16  27  46  71  96 119 144 180 226 274
#     4  10  20  33  49  68  92 124 160 196 230 265
#     4   9  16  27  45  68  91 112 137 175 225 277
#
# _framework density 15.895968999999999
#
# number of rings (size 3 to 8) (size 9 to 14) (size 15 to 20)
#    0.000    2.727    0.000    2.364    0.000    2.909 
#    0.000    4.545    0.000    7.273    0.000    0.000 
#    0.000    0.000    0.000    0.000    0.000    0.000 
#
# Total GULP energy -367436.862768 kJ/mol
# GULP energy per Si atom -5567.225193 kJ/mol
# Density = 1.585979 g / cm^3
# Si number density = 15.895969 Si / 1000 Ang^3
#
#
#
# Elastic Constant Matrix: (Units=GPa)
#
#
# Indices 1 2 3 4 5 6 
#
# 1 76.2789 46.5080 64.8226 0.6304 0.0000 0.0000
# 2 46.5080 76.2789 64.8226 -0.6304 0.0000 0.0000
# 3 64.8226 64.8226 188.3240 0.0000 0.0000 0.0000
# 4 0.6304 -0.6304 0.0000 18.7631 0.0000 0.0000
# 5 0.0000 0.0000 0.0000 0.0000 18.7631 0.6304
# 6 0.0000 0.0000 0.0000 0.0000 0.6304 14.8854
#
#
#
# Elastic Compliance Matrix: (Units=1/GPa)
#
#
# Indices 1 2 3 4 5 6 
#
# 1 0.023216 -0.010422 -0.004404 -0.001130 0.000000 0.000000
# 2 -0.010422 0.023216 -0.004404 0.001130 0.000000 0.000000
# 3 -0.004404 -0.004404 0.008342 0.000000 0.000000 0.000000
# 4 -0.001130 0.001130 0.000000 0.053372 0.000000 0.000000
# 5 0.000000 0.000000 0.000000 0.000000 0.053372 -0.002260
# 6 0.000000 0.000000 0.000000 0.000000 -0.002260 0.067275
#
#
# Mechanical properties :
#
#
# Convention : Reuss Voigt Hill
#
# Bulk Modulus (GPa) = 61.29549 77.02090 69.15820
# Shear Modulus (GPa) = 18.33583 21.46422 19.90003
#
# Velocity S-wave (km/s) = 3.39999 3.67862 3.54205
# Velocity P-wave (km/s) = 7.35237 8.16096 7.76720
#
# Compressibility (1/GPa) = 0.01631441
#
# Stress axis : x y z
#
# Youngs Moduli (GPa) = 43.07403 43.07403 119.88072
#
# Poissons Ratio (x) = 0.44891 0.52793
# Poissons Ratio (y) = 0.44891 0.52793
# Poissons Ratio (z) = 0.18969 0.18969
#
# Static dielectric constant tensor:
#      x y z
#    x 1.486990 0.000000 0.000000 
#    y 0.000000 1.486990 0.000000 
#    z 0.000000 0.000000 1.583500 
# 
# From -- ./inp_files/5502.got.cif
#   From: 2010.05.17/outbox.cif.g08.bks.cpg/sg164_3_cif.got.tgz:5502.got - 2010.05.20 10:58:56.
