data_PCOD9578213
_publ_section_title
;
Structure prediction by ZEFSAII (Michael W. Deem and Ramdas Pophale) SiO2 
 PCOD9578213
Probable space group: P -3 1 C
;
_chemical_formula_sum "Si O2"
_cell_formula_units_Z 84
_cell_length_a 17.761616
_cell_length_b 17.761616
_cell_length_c 14.831634
_cell_angle_alpha 90.000000
_cell_angle_beta 90.000000
_cell_angle_gamma 120.000000
_cell_volume 4052.141334
_symmetry_space_group_name_H-M "P -3 1 C"
_symmetry_group_IT_number 163
_symmetry_cell_setting 'hexagonal'
loop_
_space_group_symop_operation_xyz
x,y,z
-y,x-y,z
-x+y,-x,z
-y,-x,1/2-z
-x+y,y,1/2-z
x,x-y,1/2-z
-x,-y,-z
y,-x+y,-z
x-y,x,-z
y,x,1/2+z
x-y,-y,1/2+z
-x,-x+y,1/2+z
loop_
_atom_site_type_symbol
_atom_site_label
_atom_site_fract_x
_atom_site_fract_y
_atom_site_fract_z
Si Si1 0.314208 0.472784 0.228940
Si Si2 0.496298 0.234868 0.150270
Si Si3 0.159012 0.193408 0.000617
Si Si4 0.545677 0.125830 0.418323
Si Si5 0.072166 0.283508 0.308701
Si Si6 0.299242 0.214972 0.315767
Si Si7 0.491887 0.558402 0.123078
O O1 0.260835 0.521669 0.250000
O O2 0.245166 0.384882 0.179539
O O3 0.396091 0.519334 0.164415
O O4 0.353265 0.455509 0.320103
O O5 0.534975 0.267488 0.250000
O O6 0.547359 0.195459 0.096085
O O7 0.496355 0.318713 0.109325
O O8 0.398814 0.154568 0.163967
O O9 0.201595 0.241344 0.094353
O O10 0.168539 0.109177 0.994215
O O11 0.198914 0.250950 0.910918
O O12 0.515972 0.091885 0.519234
O O13 0.524318 0.036264 0.366355
O O14 0.122426 0.244852 0.250000
O O15 0.995423 0.277905 0.247254
O O16 0.262086 0.131043 0.250000
#
# Coordination Sequence:
#
# PCOD9578213 Si02
#       7
#    12  12  12  12  12  12  12
#     4  10  24  44  70  99 132 181 228 278 361 407
#     4  11  26  42  71 100 139 184 228 287 348 430
#     4  12  25  42  66  97 136 180 233 283 353 416
#     4  11  25  46  70 104 141 183 234 290 356 423
#     4  11  23  42  69  95 137 177 228 295 341 422
#     4  11  24  42  64 102 133 179 234 282 347 406
#     4  10  25  45  71 100 141 181 231 297 355 423
#
# _framework density 20.729780000000002
#
# number of rings (size 3 to 8) (size 9 to 14) (size 15 to 20)
#    0.000    1.143    2.857    1.714   12.000    1.143 
#    6.000    0.000    0.000    0.000    0.000    0.000 
#    0.000    0.000    0.000    0.000    0.000    0.000 
#
# Total GULP energy -468824.283052 kJ/mol
# GULP energy per Si atom -5581.241465 kJ/mol
# Density = 2.068260 g / cm^3
# Si number density = 20.729780 Si / 1000 Ang^3
#
#
#
# Elastic Constant Matrix: (Units=GPa)
#
#
# Indices 1 2 3 4 5 6 
#
# 1 106.3335 28.3839 34.6866 -0.0001 -20.8227 0.0000
# 2 28.3839 106.3335 34.6866 0.0001 20.8227 0.0000
# 3 34.6866 34.6866 118.4996 0.0000 0.0000 0.0000
# 4 -0.0001 0.0001 0.0000 35.7642 0.0000 20.8227
# 5 -20.8227 20.8227 0.0000 0.0000 35.7642 -0.0001
# 6 0.0000 0.0000 0.0000 20.8227 -0.0001 38.9748
#
#
#
# Elastic Compliance Matrix: (Units=1/GPa)
#
#
# Indices 1 2 3 4 5 6 
#
# 1 0.013681 -0.004940 -0.002558 0.000000 0.010842 0.000000
# 2 -0.004940 0.013681 -0.002558 0.000000 -0.010842 0.000000
# 3 -0.002558 -0.002558 0.009937 0.000000 0.000000 0.000000
# 4 0.000000 0.000000 0.000000 0.040585 0.000000 -0.021683
# 5 0.010842 -0.010842 0.000000 0.000000 0.040585 0.000000
# 6 0.000000 0.000000 0.000000 -0.021683 0.000000 0.037242
#
#
# Mechanical properties :
#
#
# Convention : Reuss Voigt Hill
#
# Bulk Modulus (GPa) = 58.19473 58.52009 58.35741
# Shear Modulus (GPa) = 27.54020 37.66129 32.60075
#
# Velocity S-wave (km/s) = 3.64886 4.26699 3.96997
# Velocity P-wave (km/s) = 6.77393 7.25034 7.01618
#
# Compressibility (1/GPa) = 0.01718369
#
# Stress axis : x y z
#
# Youngs Moduli (GPa) = 73.09561 73.09561 100.63759
#
# Poissons Ratio (x) = 0.36111 0.25748
# Poissons Ratio (y) = 0.36111 0.25748
# Poissons Ratio (z) = 0.18701 0.18701
#
# Static dielectric constant tensor:
#      x y z
#    x 1.799120 0.000000 0.000000 
#    y 0.000000 1.799120 0.000000 
#    z 0.000000 0.000000 1.747410 
# 
# From -- ./inp_files/2670.got.cif
#   From: 2010.05.17/outbox.cif.g08.bks.cpg/sg163_2_cif.got.tgz:2670.got - 2010.05.20 10:56:03.
