data_PCOD9578582
_publ_section_title
;
Structure prediction by ZEFSAII (Michael W. Deem and Ramdas Pophale) SiO2 
 PCOD9578582
Probable space group: P -3 M 1
;
_chemical_formula_sum "Si O2"
_cell_formula_units_Z 60
_cell_length_a 13.248272
_cell_length_b 13.248272
_cell_length_c 25.925769
_cell_angle_alpha 90.000000
_cell_angle_beta 90.000000
_cell_angle_gamma 120.000000
_cell_volume 3940.766938
_symmetry_space_group_name_H-M "P -3 M 1"
_symmetry_group_IT_number 164
_symmetry_cell_setting 'hexagonal'
loop_
_space_group_symop_operation_xyz
x,y,z
-y,x-y,z
-x+y,-x,z
x-y,-y,-z
-x,-x+y,-z
y,x,-z
-x,-y,-z
y,-x+y,-z
x-y,x,-z
-x+y,y,z
x,x-y,z
-y,-x,z
loop_
_atom_site_type_symbol
_atom_site_label
_atom_site_fract_x
_atom_site_fract_y
_atom_site_fract_z
Si Si1 0.000339 0.762441 0.364931
Si Si2 0.426390 0.333669 0.453709
Si Si3 0.573254 0.905976 0.043368
Si Si4 0.762148 0.000174 0.246116
Si Si5 0.333875 0.427664 0.160398
O O1 0.897560 0.795119 0.367476
O O2 0.963348 0.655893 0.403812
O O3 0.004465 0.728162 0.305547
O O4 0.124282 0.875719 0.377756
O O5 0.366454 0.366454 0.500000
O O6 0.432178 0.216089 0.464313
O O7 0.555360 0.444641 0.446213
O O8 0.441363 0.882726 0.040577
O O9 0.574146 0.787073 0.035129
O O10 0.615076 0.947921 0.101923
O O11 0.645930 0.000000 0.000000
O O12 0.877851 0.122149 0.237710
O O13 0.789082 0.894541 0.240682
O O14 0.665137 0.978160 0.204239
O O15 0.225728 0.451455 0.163229
O O16 0.453774 0.546227 0.168244
#
# Coordination Sequence:
#
# PCOD9578582 Si02
#       5
#    12  12  12  12  12
#     4   9  17  30  48  69  91 115 145 181 219 257
#     4  10  20  33  49  68  91 119 149 181 217 258
#     4   9  17  29  45  64  85 111 143 179 218 258
#     4   9  17  29  46  67  90 116 145 178 216 257
#     4   9  17  29  45  64  86 113 145 180 216 255
#
# _framework density 15.225462
#
# number of rings (size 3 to 8) (size 9 to 14) (size 15 to 20)
#    0.000    2.800    0.000    1.600    0.000    4.800 
#    0.000    0.000    0.000    4.200    0.000    0.000 
#    0.000    0.000    0.000    0.000    0.000    0.000 
#
# Total GULP energy -334241.181468 kJ/mol
# GULP energy per Si atom -5570.686358 kJ/mol
# Density = 1.519081 g / cm^3
# Si number density = 15.225462 Si / 1000 Ang^3
#
#
#
# Elastic Constant Matrix: (Units=GPa)
#
#
# Indices 1 2 3 4 5 6 
#
# 1 90.2519 56.9933 78.7137 -0.7533 0.0000 0.0000
# 2 56.9933 90.2519 78.7137 0.7533 0.0000 0.0000
# 3 78.7137 78.7137 124.8162 0.0000 0.0000 0.0000
# 4 -0.7533 0.7533 0.0000 25.0927 0.0000 0.0000
# 5 0.0000 0.0000 0.0000 0.0000 25.0927 -0.7533
# 6 0.0000 0.0000 0.0000 0.0000 -0.7533 16.6293
#
#
#
# Elastic Compliance Matrix: (Units=1/GPa)
#
#
# Indices 1 2 3 4 5 6 
#
# 1 0.025478 -0.004630 -0.013148 0.000904 0.000000 0.000000
# 2 -0.004630 0.025478 -0.013148 -0.000904 0.000000 0.000000
# 3 -0.013148 -0.013148 0.024595 0.000000 0.000000 0.000000
# 4 0.000904 -0.000904 0.000000 0.039906 0.000000 0.000000
# 5 0.000000 0.000000 0.000000 0.000000 0.039906 0.001808
# 6 0.000000 0.000000 0.000000 0.000000 0.001808 0.060217
#
#
# Mechanical properties :
#
#
# Convention : Reuss Voigt Hill
#
# Bulk Modulus (GPa) = 72.99061 81.57350 77.28206
# Shear Modulus (GPa) = 17.73061 19.42292 18.57676
#
# Velocity S-wave (km/s) = 3.41623 3.57555 3.49680
# Velocity P-wave (km/s) = 7.97526 8.41067 8.19586
#
# Compressibility (1/GPa) = 0.01370039
#
# Stress axis : x y z
#
# Youngs Moduli (GPa) = 39.24912 39.24912 40.65939
#
# Poissons Ratio (x) = 0.18173 0.53458
# Poissons Ratio (y) = 0.18173 0.53458
# Poissons Ratio (z) = 0.51603 0.51603
#
# Static dielectric constant tensor:
#      x y z
#    x 1.479650 0.000000 0.000000 
#    y 0.000000 1.479650 0.000000 
#    z 0.000000 0.000000 1.511430 
# 
# From -- ./inp_files/4458.got.cif
#   From: 2010.05.17/outbox.cif.g08.bks.cpg/sg164_3_cif.got.tgz:4458.got - 2010.05.20 10:58:56.
