data_PCOD9578601
_publ_section_title
;
Structure prediction by ZEFSAII (Michael W. Deem and Ramdas Pophale) SiO2 
 PCOD9578601
Probable space group: P -3 M 1
;
_chemical_formula_sum "Si O2"
_cell_formula_units_Z 42
_cell_length_a 12.832705
_cell_length_b 12.832705
_cell_length_c 18.176799
_cell_angle_alpha 90.000000
_cell_angle_beta 90.000000
_cell_angle_gamma 120.000000
_cell_volume 2592.295214
_symmetry_space_group_name_H-M "P -3 M 1"
_symmetry_group_IT_number 164
_symmetry_cell_setting 'hexagonal'
loop_
_space_group_symop_operation_xyz
x,y,z
-y,x-y,z
-x+y,-x,z
x-y,-y,-z
-x,-x+y,-z
y,x,-z
-x,-y,-z
y,-x+y,-z
x-y,x,-z
-x+y,y,z
x,x-y,z
-y,-x,z
loop_
_atom_site_type_symbol
_atom_site_label
_atom_site_fract_x
_atom_site_fract_y
_atom_site_fract_z
Si Si1 0.333154 0.914186 0.359459
Si Si2 0.753767 0.753941 0.083855
Si Si3 0.333738 0.913976 0.780194
Si Si4 0.000000 0.247577 0.500000
O O1 0.452676 0.905352 0.371663
O O2 0.217292 0.782709 0.349169
O O3 0.355699 0.995751 0.287564
O O4 0.306639 0.974277 0.429310
O O5 0.746071 0.873036 0.098057
O O6 0.682700 0.653892 0.144985
O O7 0.892426 0.784851 0.087282
O O8 0.712627 0.712627 0.000000
O O9 0.446438 0.892876 0.786018
O O10 0.211130 0.788871 0.767633
O O11 0.117585 0.235169 0.511911
#
# Coordination Sequence:
#
# PCOD9578601 Si02
#       4
#    12  12  12   6
#     4  10  20  34  52  73  97 125 158 196 237 280
#     4   9  17  30  49  72  96 122 154 194 239 284
#     4  10  20  33  49  69  95 127 161 196 234 278
#     4  10  20  34  52  74 100 128 158 192 232 278
#
# _framework density 16.201858000000001
#
# number of rings (size 3 to 8) (size 9 to 14) (size 15 to 20)
#    0.000    2.286    0.000    3.143    0.000    1.714 
#    0.000    0.000    0.000   18.857    0.000    0.000 
#    0.000    0.000    0.000    0.000    0.000    0.000 
#
# Total GULP energy -234315.338064 kJ/mol
# GULP energy per Si atom -5578.936621 kJ/mol
# Density = 1.616498 g / cm^3
# Si number density = 16.201858 Si / 1000 Ang^3
#
#
#
# Elastic Constant Matrix: (Units=GPa)
#
#
# Indices 1 2 3 4 5 6 
#
# 1 124.7121 84.8505 92.6919 -4.7535 0.0000 0.0000
# 2 84.8505 124.7121 92.6919 4.7535 0.0000 0.0000
# 3 92.6919 92.6919 131.1900 0.0000 0.0000 0.0000
# 4 -4.7535 4.7535 0.0000 26.8706 0.0000 0.0000
# 5 0.0000 0.0000 0.0000 0.0000 26.8706 -4.7535
# 6 0.0000 0.0000 0.0000 0.0000 -4.7535 19.9308
#
#
#
# Elastic Compliance Matrix: (Units=1/GPa)
#
#
# Indices 1 2 3 4 5 6 
#
# 1 0.019459 -0.006733 -0.008991 0.004633 0.000000 0.000000
# 2 -0.006733 0.019459 -0.008991 -0.004633 0.000000 0.000000
# 3 -0.008991 -0.008991 0.020328 0.000000 0.000000 0.000000
# 4 0.004633 -0.004633 0.000000 0.038855 0.000000 0.000000
# 5 0.000000 0.000000 0.000000 0.000000 0.038855 0.009267
# 6 0.000000 0.000000 0.000000 0.000000 0.009267 0.052384
#
#
# Mechanical properties :
#
#
# Convention : Reuss Voigt Hill
#
# Bulk Modulus (GPa) = 101.89220 102.34256 102.11738
# Shear Modulus (GPa) = 20.65754 22.09306 21.37530
#
# Velocity S-wave (km/s) = 3.57460 3.69672 3.63617
# Velocity P-wave (km/s) = 8.94778 9.02913 8.98855
#
# Compressibility (1/GPa) = 0.00981429
#
# Stress axis : x y z
#
# Youngs Moduli (GPa) = 51.39048 51.39048 49.19265
#
# Poissons Ratio (x) = 0.34601 0.44231
# Poissons Ratio (y) = 0.34601 0.44231
# Poissons Ratio (z) = 0.46207 0.46207
#
# Static dielectric constant tensor:
#      x y z
#    x 1.513810 0.000000 0.000000 
#    y 0.000000 1.513810 0.000000 
#    z 0.000000 0.000000 1.526770 
# 
# From -- ./inp_files/3831.got.cif
#   From: 2010.05.17/outbox.cif.g08.bks.cpg/sg164_2_cif.got.tgz:3831.got - 2010.05.20 10:58:56.
