data_PCOD9578208
_publ_section_title
;
Structure prediction by ZEFSAII (Michael W. Deem and Ramdas Pophale) SiO2 
 PCOD9578208
Probable space group: P -3 1 C
;
_chemical_formula_sum "Si O2"
_cell_formula_units_Z 72
_cell_length_a 14.279605
_cell_length_b 14.279605
_cell_length_c 19.221591
_cell_angle_alpha 90.000000
_cell_angle_beta 90.000000
_cell_angle_gamma 120.000000
_cell_volume 3394.316632
_symmetry_space_group_name_H-M "P -3 1 C"
_symmetry_group_IT_number 163
_symmetry_cell_setting 'hexagonal'
loop_
_space_group_symop_operation_xyz
x,y,z
-y,x-y,z
-x+y,-x,z
-y,-x,1/2-z
-x+y,y,1/2-z
x,x-y,1/2-z
-x,-y,-z
y,-x+y,-z
x-y,x,-z
y,x,1/2+z
x-y,-y,1/2+z
-x,-x+y,1/2+z
loop_
_atom_site_type_symbol
_atom_site_label
_atom_site_fract_x
_atom_site_fract_y
_atom_site_fract_z
Si Si1 0.684674 0.922269 0.301674
Si Si2 0.432659 0.394518 0.203668
Si Si3 0.754941 0.183836 0.940208
Si Si4 0.055700 0.825406 0.528498
Si Si5 0.428153 0.919717 0.439441
Si Si6 0.867946 0.718375 0.175350
O O1 0.732662 0.866331 0.250000
O O2 0.629700 0.843216 0.365721
O O3 0.608170 0.945509 0.251258
O O4 0.756562 0.039693 0.339528
O O5 0.540744 0.459257 0.250000
O O6 0.441412 0.454680 0.131267
O O7 0.388469 0.266281 0.189657
O O8 0.847703 0.303046 0.959857
O O9 0.635657 0.164261 0.929845
O O10 0.750386 0.100363 0.998567
O O11 0.052798 0.826801 0.611663
O O12 0.943033 0.798035 0.497017
O O13 0.500000 0.000000 0.500000
O O14 0.888206 0.776412 0.250000
#
# Coordination Sequence:
#
# PCOD9578208 Si02
#       6
#    12  12  12  12  12  12
#     4  11  22  42  72 108 142 190 247 307 373 452
#     4  11  22  42  70 103 143 193 245 306 382 440
#     4  12  24  44  70 102 144 189 248 308 378 438
#     4  12  25  44  68 104 147 196 244 305 371 445
#     4  12  26  43  69 108 144 191 250 310 378 454
#     4  10  24  41  68 105 143 192 250 296 372 447
#
# _framework density 21.211926999999999
#
# number of rings (size 3 to 8) (size 9 to 14) (size 15 to 20)
#    0.000    0.667    5.000    3.500    2.333    0.000 
#    0.000    0.000    0.000   18.000    0.000    0.000 
#    0.000    0.000    0.000    0.000    0.000    0.000 
#
# Total GULP energy -401692.987870 kJ/mol
# GULP energy per Si atom -5579.069276 kJ/mol
# Density = 2.116365 g / cm^3
# Si number density = 21.211927 Si / 1000 Ang^3
#
#
#
# Elastic Constant Matrix: (Units=GPa)
#
#
# Indices 1 2 3 4 5 6 
#
# 1 113.6979 37.9264 26.4596 0.0001 -5.7740 0.0000
# 2 37.9264 113.6979 26.4596 -0.0001 5.7740 0.0000
# 3 26.4596 26.4596 117.3039 0.0000 0.0000 0.0000
# 4 0.0001 -0.0001 0.0000 34.8144 0.0000 5.7740
# 5 -5.7740 5.7740 0.0000 0.0000 34.8144 0.0001
# 6 0.0000 0.0000 0.0000 5.7740 0.0001 37.8858
#
#
#
# Elastic Compliance Matrix: (Units=1/GPa)
#
#
# Indices 1 2 3 4 5 6 
#
# 1 0.010349 -0.003190 -0.001615 0.000000 0.002246 0.000000
# 2 -0.003190 0.010349 -0.001615 0.000000 -0.002246 0.000000
# 3 -0.001615 -0.001615 0.009253 0.000000 0.000000 0.000000
# 4 0.000000 0.000000 0.000000 0.029469 0.000000 -0.004491
# 5 0.002246 -0.002246 0.000000 0.000000 0.029469 0.000000
# 6 0.000000 0.000000 0.000000 -0.004491 0.000000 0.027080
#
#
# Mechanical properties :
#
#
# Convention : Reuss Voigt Hill
#
# Bulk Modulus (GPa) = 58.43889 58.48786 58.46337
# Shear Modulus (GPa) = 37.17117 38.42653 37.79885
#
# Velocity S-wave (km/s) = 4.19067 4.26085 4.22591
# Velocity P-wave (km/s) = 7.14321 7.19996 7.17164
#
# Compressibility (1/GPa) = 0.01711189
#
# Stress axis : x y z
#
# Youngs Moduli (GPa) = 96.62467 96.62467 108.06906
#
# Poissons Ratio (x) = 0.30828 0.17451
# Poissons Ratio (y) = 0.30828 0.17451
# Poissons Ratio (z) = 0.15603 0.15603
#
# Static dielectric constant tensor:
#      x y z
#    x 1.819200 0.000000 0.000000 
#    y 0.000000 1.819200 0.000000 
#    z 0.000000 0.000000 1.787260 
# 
# From -- ./inp_files/3127.got.cif
#   From: 2010.05.17/outbox.cif.g08.bks.cpg/sg163_2_cif.got.tgz:3127.got - 2010.05.20 10:56:03.
