data_PCOD9578873
_publ_section_title
;
Structure prediction by ZEFSAII (Michael W. Deem and Ramdas Pophale) SiO2 
 PCOD9578873
Probable space group: P -3 C 1
;
_chemical_formula_sum "Si O2"
_cell_formula_units_Z 36
_cell_length_a 8.911185
_cell_length_b 8.911185
_cell_length_c 29.407586
_cell_angle_alpha 90.000000
_cell_angle_beta 90.000000
_cell_angle_gamma 120.000000
_cell_volume 2022.371457
_symmetry_space_group_name_H-M "P -3 C 1"
_symmetry_group_IT_number 165
_symmetry_cell_setting 'hexagonal'
loop_
_space_group_symop_operation_xyz
x,y,z
-y,x-y,z
-x+y,-x,z
x-y,-y,1/2-z
-x,-x+y,1/2-z
y,x,1/2-z
-x,-y,-z
y,-x+y,-z
x-y,x,-z
-x+y,y,1/2+z
x,x-y,1/2+z
-y,-x,1/2+z
loop_
_atom_site_type_symbol
_atom_site_label
_atom_site_fract_x
_atom_site_fract_y
_atom_site_fract_z
Si Si1 0.192984 0.991694 0.301923
Si Si2 0.856554 0.537787 0.618832
Si Si3 0.338168 0.013116 0.018343
O O1 0.303778 0.962453 0.339333
O O2 0.992327 0.835281 0.307225
O O3 0.252982 0.000000 0.250000
O O4 0.654077 0.488123 0.620385
O O5 0.937290 0.629503 0.571322
O O6 0.329628 0.164672 0.991330
O O7 0.500000 0.000000 0.000000
#
# Coordination Sequence:
#
# PCOD9578873 Si02
#       3
#    12  12  12
#     4   8  18  37  60  83 111 155 204 250 301 363
#     4  10  21  38  57  90 121 157 197 252 305 362
#     4  12  24  42  62  92 127 166 208 260 314 373
#
# _framework density 17.800885000000001
#
# number of rings (size 3 to 8) (size 9 to 14) (size 15 to 20)
#    1.333    0.667    3.333    1.000    4.667    0.000 
#    6.000    0.000    0.000    1.333    0.000    0.000 
#    0.000    0.000    0.000    0.000    0.000    0.000 
#
# Total GULP energy -200434.511619 kJ/mol
# GULP energy per Si atom -5567.625323 kJ/mol
# Density = 1.776037 g / cm^3
# Si number density = 17.800885 Si / 1000 Ang^3
#
#
#
# Elastic Constant Matrix: (Units=GPa)
#
#
# Indices 1 2 3 4 5 6 
#
# 1 97.6486 46.0628 64.0743 -10.0612 0.0000 0.0000
# 2 46.0628 97.6486 64.0743 10.0612 0.0000 0.0000
# 3 64.0743 64.0743 187.6372 0.0000 0.0000 0.0000
# 4 -10.0612 10.0612 0.0000 31.8911 0.0000 0.0000
# 5 0.0000 0.0000 0.0000 0.0000 31.8911 -10.0612
# 6 0.0000 0.0000 0.0000 0.0000 -10.0612 25.7929
#
#
#
# Elastic Compliance Matrix: (Units=1/GPa)
#
#
# Indices 1 2 3 4 5 6 
#
# 1 0.016055 -0.006050 -0.003416 0.006974 0.000000 0.000000
# 2 -0.006050 0.016055 -0.003416 -0.006974 0.000000 0.000000
# 3 -0.003416 -0.003416 0.007663 0.000000 0.000000 0.000000
# 4 0.006974 -0.006974 0.000000 0.035757 0.000000 0.000000
# 5 0.000000 0.000000 0.000000 0.000000 0.035757 0.013948
# 6 0.000000 0.000000 0.000000 0.000000 0.013948 0.044211
#
#
# Mechanical properties :
#
#
# Convention : Reuss Voigt Hill
#
# Bulk Modulus (GPa) = 71.39471 81.26194 76.32832
# Shear Modulus (GPa) = 26.89128 31.82990 29.36059
#
# Velocity S-wave (km/s) = 3.89095 4.23319 4.06567
# Velocity P-wave (km/s) = 7.77049 8.34523 8.06298
#
# Compressibility (1/GPa) = 0.01400664
#
# Stress axis : x y z
#
# Youngs Moduli (GPa) = 62.28508 62.28508 130.50163
#
# Poissons Ratio (x) = 0.37685 0.44585
# Poissons Ratio (y) = 0.37685 0.44585
# Poissons Ratio (z) = 0.21279 0.21279
#
# Static dielectric constant tensor:
#      x y z
#    x 1.497170 0.000000 0.000000 
#    y 0.000000 1.497170 0.000000 
#    z 0.000000 0.000000 1.582600 
# 
# From -- ./inp_files/3047.got.cif
#   From: 2010.05.17/outbox.cif.g08.bks.cpg/sg165_2_cif.got.tgz:3047.got - 2010.05.20 11:02:39.
