data_PCOD9578358
_publ_section_title
;
Structure prediction by ZEFSAII (Michael W. Deem and Ramdas Pophale) SiO2 
 PCOD9578358
Probable space group: P -3 M 1
;
_chemical_formula_sum "Si O2"
_cell_formula_units_Z 96
_cell_length_a 23.384515
_cell_length_b 23.384515
_cell_length_c 12.199349
_cell_angle_alpha 90.000000
_cell_angle_beta 90.000000
_cell_angle_gamma 120.000000
_cell_volume 5777.288048
_symmetry_space_group_name_H-M "P -3 M 1"
_symmetry_group_IT_number 164
_symmetry_cell_setting 'hexagonal'
loop_
_space_group_symop_operation_xyz
x,y,z
-y,x-y,z
-x+y,-x,z
x-y,-y,-z
-x,-x+y,-z
y,x,-z
-x,-y,-z
y,-x+y,-z
x-y,x,-z
-x+y,y,z
x,x-y,z
-y,-x,z
loop_
_atom_site_type_symbol
_atom_site_label
_atom_site_fract_x
_atom_site_fract_y
_atom_site_fract_z
Si Si1 0.868260 0.270115 0.595000
Si Si2 0.664447 0.467472 0.982721
Si Si3 0.073466 0.279027 0.003313
Si Si4 0.796258 0.067125 0.454407
Si Si5 0.598665 0.868894 0.154092
Si Si6 0.897396 0.660798 0.238567
Si Si7 0.534361 0.198428 0.466956
Si Si8 0.825884 0.312494 0.225636
O O1 0.797778 0.202223 0.599084
O O2 0.914429 0.250162 0.527424
O O3 0.889450 0.290115 0.720436
O O4 0.852724 0.320728 0.530691
O O5 0.729686 0.459371 0.977230
O O6 0.599534 0.400467 0.947353
O O7 0.680733 0.531601 0.910291
O O8 0.655584 0.482539 0.109335
O O9 0.131209 0.262417 0.027565
O O10 0.087293 0.311412 0.883108
O O11 0.081042 0.335407 0.088315
O O12 0.000000 0.218160 0.000000
O O13 0.870405 0.129596 0.458749
O O14 0.767264 0.056802 0.331359
O O15 0.788889 0.000000 0.500000
O O16 0.599784 0.799892 0.153798
O O17 0.825940 0.651879 0.269441
O O18 0.886495 0.587677 0.238824
O O19 0.599343 0.198685 0.507376
O O20 0.541937 0.270969 0.478620
O O21 0.524703 0.181202 0.337650
O O22 0.758902 0.241099 0.218551
#
# Coordination Sequence:
#
# PCOD9578358 Si02
#       8
#    12  12  12  12  12  12  12  12
#     4   9  18  32  48  68  96 131 169 208 251 294
#     4  10  18  28  44  68  98 131 168 212 262 312
#     4  10  20  34  55  81 107 131 160 199 241 286
#     4  10  20  34  55  81 107 131 160 199 241 286
#     4   9  18  32  48  68  96 131 169 208 251 294
#     4   9  16  31  52  76 102 130 165 204 245 286
#     4  10  18  28  44  68  98 131 168 212 262 312
#     4   9  15  27  45  66  95 128 164 210 261 302
#
# _framework density 16.616793000000001
#
# number of rings (size 3 to 8) (size 9 to 14) (size 15 to 20)
#    0.000    2.500    2.500    0.625    1.750    0.500 
#    0.000    1.250    0.000    2.500    0.000    0.000 
#    0.000    0.000    0.000    0.000    0.000    0.000 
#
# Total GULP energy -534650.358592 kJ/mol
# GULP energy per Si atom -5569.274569 kJ/mol
# Density = 1.657897 g / cm^3
# Si number density = 16.616793 Si / 1000 Ang^3
#
#
#
# Elastic Constant Matrix: (Units=GPa)
#
#
# Indices 1 2 3 4 5 6 
#
# 1 50.6717 23.1119 4.9313 2.4054 0.0000 0.0000
# 2 23.1119 50.6717 4.9313 -2.4054 0.0000 0.0000
# 3 4.9313 4.9313 72.9208 0.0000 0.0000 0.0000
# 4 2.4054 -2.4054 0.0000 10.0234 0.0000 0.0000
# 5 0.0000 0.0000 0.0000 0.0000 10.0234 2.4054
# 6 0.0000 0.0000 0.0000 0.0000 2.4054 13.7799
#
#
#
# Elastic Compliance Matrix: (Units=1/GPa)
#
#
# Indices 1 2 3 4 5 6 
#
# 1 0.025774 -0.012097 -0.000925 -0.009088 0.000000 0.000000
# 2 -0.012097 0.025774 -0.000925 0.009088 0.000000 0.000000
# 3 -0.000925 -0.000925 0.013839 0.000000 0.000000 0.000000
# 4 -0.009088 0.009088 0.000000 0.104128 0.000000 0.000000
# 5 0.000000 0.000000 0.000000 0.000000 0.104128 -0.018176
# 6 0.000000 0.000000 0.000000 0.000000 -0.018176 0.075742
#
#
# Mechanical properties :
#
#
# Convention : Reuss Voigt Hill
#
# Bulk Modulus (GPa) = 26.67196 26.69036 26.68116
# Shear Modulus (GPa) = 12.82786 16.18466 14.50626
#
# Velocity S-wave (km/s) = 2.78147 3.12427 2.95784
# Velocity P-wave (km/s) = 5.13824 5.39555 5.26846
#
# Compressibility (1/GPa) = 0.03749256
#
# Stress axis : x y z
#
# Youngs Moduli (GPa) = 38.79888 38.79888 72.26169
#
# Poissons Ratio (x) = 0.46936 0.06683
# Poissons Ratio (y) = 0.46936 0.06683
# Poissons Ratio (z) = 0.03588 0.03588
#
# Static dielectric constant tensor:
#      x y z
#    x 1.559010 0.000000 0.000000 
#    y 0.000000 1.559010 0.000000 
#    z 0.000000 0.000000 1.580710 
# 
# From -- ./inp_files/3150.got.cif
#   From: 2010.05.17/outbox.cif.g08.bks.cpg/sg164_2_cif.got.tgz:3150.got - 2010.05.20 10:58:56.
