data_PCOD9578100
_publ_section_title
;
Structure prediction by ZEFSAII (Michael W. Deem and Ramdas Pophale) SiO2 
 PCOD9578100
Probable space group: P -3 1 C
;
_chemical_formula_sum "Si O2"
_cell_formula_units_Z 74
_cell_length_a 14.916240
_cell_length_b 14.916240
_cell_length_c 20.170141
_cell_angle_alpha 90.000000
_cell_angle_beta 90.000000
_cell_angle_gamma 120.000000
_cell_volume 3886.496588
_symmetry_space_group_name_H-M "P -3 1 C"
_symmetry_group_IT_number 163
_symmetry_cell_setting 'hexagonal'
loop_
_space_group_symop_operation_xyz
x,y,z
-y,x-y,z
-x+y,-x,z
-y,-x,1/2-z
-x+y,y,1/2-z
x,x-y,1/2-z
-x,-y,-z
y,-x+y,-z
x-y,x,-z
y,x,1/2+z
x-y,-y,1/2+z
-x,-x+y,1/2+z
loop_
_atom_site_type_symbol
_atom_site_label
_atom_site_fract_x
_atom_site_fract_y
_atom_site_fract_z
Si Si1 0.175989 0.824012 0.750000
Si Si2 0.333334 0.666668 0.171057
Si Si3 0.706781 0.753535 0.421307
Si Si4 0.920102 0.788848 0.379969
Si Si5 0.273646 0.337091 0.455837
Si Si6 0.000000 0.000000 0.327864
Si Si7 0.371896 0.988975 0.290022
Si Si8 0.509014 0.901059 0.340951
O O1 0.158641 0.875598 0.684630
O O2 0.105700 0.701724 0.732797
O O3 0.333334 0.666667 0.250000
O O4 0.216267 0.584314 0.151368
O O5 0.830299 0.799419 0.416614
O O6 0.668851 0.830990 0.447989
O O7 0.679831 0.658183 0.471410
O O8 0.665661 0.715445 0.346946
O O9 0.002438 0.900580 0.353154
O O10 0.974362 0.746987 0.428017
O O11 0.353140 0.423823 0.406566
O O12 0.000000 0.000000 0.250000
O O13 0.461778 0.974505 0.323461
O O14 0.337268 0.916980 0.224219
#
# Coordination Sequence:
#
# PCOD9578100 Si02
#       8
#     6   4  12  12  12   4  12  12
#     4  10  20  38  58  88 126 150 202 248 304 384
#     4  12  21  39  66 105 132 150 213 282 346 402
#     4  11  24  37  58  86 125 167 215 251 313 373
#     4  11  21  34  53  85 122 165 202 245 298 373
#     4  12  23  38  58  86 124 173 213 259 313 383
#     4  12  21  30  49  89 133 162 199 248 301 354
#     4  10  22  40  63  94 117 161 198 270 319 388
#     4  11  24  41  68  94 126 158 211 274 341 386
#
# _framework density 19.040284
#
# number of rings (size 3 to 8) (size 9 to 14) (size 15 to 20)
#    0.000    0.973    7.297    0.973    0.000    0.649 
#    0.000    1.622    0.000    2.595    0.000    4.541 
#    0.000    0.000    0.000    0.000    0.000    0.000 
#
# Total GULP energy -412553.963817 kJ/mol
# GULP energy per Si atom -5575.053565 kJ/mol
# Density = 1.899695 g / cm^3
# Si number density = 19.040284 Si / 1000 Ang^3
#
#
#
# Elastic Constant Matrix: (Units=GPa)
#
#
# Indices 1 2 3 4 5 6 
#
# 1 81.4584 39.6861 20.0912 -0.0002 5.0799 0.0000
# 2 39.6861 81.4584 20.0915 0.0000 -5.0800 0.0000
# 3 20.0912 20.0915 68.7287 0.0004 0.0000 0.0000
# 4 -0.0002 0.0000 0.0004 32.9984 -0.0003 -5.0803
# 5 5.0799 -5.0800 0.0000 -0.0003 32.9975 0.0000
# 6 0.0000 0.0000 0.0000 -5.0803 0.0000 20.8863
#
#
#
# Elastic Compliance Matrix: (Units=1/GPa)
#
#
# Indices 1 2 3 4 5 6 
#
# 1 0.017006 -0.007865 -0.002672 0.000000 -0.003829 0.000000
# 2 -0.007865 0.017006 -0.002672 0.000000 0.003829 0.000000
# 3 -0.002672 -0.002672 0.016112 0.000000 0.000000 0.000000
# 4 0.000000 0.000000 0.000000 0.031484 0.000000 0.007658
# 5 -0.003829 0.003829 0.000000 0.000000 0.031484 0.000000
# 6 0.000000 0.000000 0.000000 0.007658 0.000000 0.049741
#
#
# Mechanical properties :
#
#
# Convention : Reuss Voigt Hill
#
# Bulk Modulus (GPa) = 42.18428 43.48700 42.83564
# Shear Modulus (GPa) = 25.36107 27.49488 26.42797
#
# Velocity S-wave (km/s) = 3.65357 3.80417 3.72963
# Velocity P-wave (km/s) = 6.32468 6.49497 6.41039
#
# Compressibility (1/GPa) = 0.02370551
#
# Stress axis : x y z
#
# Youngs Moduli (GPa) = 58.80372 58.80360 62.06456
#
# Poissons Ratio (x) = 0.46248 0.16584
# Poissons Ratio (y) = 0.46248 0.16585
# Poissons Ratio (z) = 0.15713 0.15714
#
# Static dielectric constant tensor:
#      x y z
#    x 1.687760 0.000000 0.000000 
#    y 0.000000 1.687760 -0.000010 
#    z 0.000000 -0.000010 1.726400 
# 
# From -- ./inp_files/3644.got.cif
#   From: 2010.05.17/outbox.cif.g08.bks.cpg/sg163_2_cif.got.tgz:3644.got - 2010.05.20 10:56:03.
