data_PCOD9578168
_publ_section_title
;
Structure prediction by ZEFSAII (Michael W. Deem and Ramdas Pophale) SiO2 
 PCOD9578168
Probable space group: P -3 1 C
;
_chemical_formula_sum "Si O2"
_cell_formula_units_Z 76
_cell_length_a 18.083637
_cell_length_b 18.083637
_cell_length_c 14.261486
_cell_angle_alpha 90.000000
_cell_angle_beta 90.000000
_cell_angle_gamma 120.000000
_cell_volume 4038.936014
_symmetry_space_group_name_H-M "P -3 1 C"
_symmetry_group_IT_number 163
_symmetry_cell_setting 'hexagonal'
loop_
_space_group_symop_operation_xyz
x,y,z
-y,x-y,z
-x+y,-x,z
-y,-x,1/2-z
-x+y,y,1/2-z
x,x-y,1/2-z
-x,-y,-z
y,-x+y,-z
x-y,x,-z
y,x,1/2+z
x-y,-y,1/2+z
-x,-x+y,1/2+z
loop_
_atom_site_type_symbol
_atom_site_label
_atom_site_fract_x
_atom_site_fract_y
_atom_site_fract_z
Si Si1 0.000000 0.000000 0.387015
Si Si2 0.750606 0.669065 0.244811
Si Si3 0.622608 0.659566 0.087832
Si Si4 0.727413 0.868109 0.461392
Si Si5 0.631988 0.962022 0.101026
Si Si6 0.173507 0.034887 0.139992
Si Si7 0.664325 0.160305 0.754517
O O1 0.095693 0.045071 0.351201
O O2 0.000000 0.000000 0.500000
O O3 0.817440 0.634880 0.250000
O O4 0.686271 0.645597 0.156768
O O5 0.694841 0.650868 0.336992
O O6 0.809541 0.771167 0.228606
O O7 0.665631 0.757758 0.050824
O O8 0.544883 0.647358 0.152507
O O9 0.615083 0.607951 0.993840
O O10 0.683057 0.771499 0.423544
O O11 0.760160 0.863998 0.565286
O O12 0.809154 0.940440 0.405720
O O13 0.553501 0.900574 0.166776
O O14 0.759887 0.240114 0.750000
O O15 0.595045 0.190089 0.750000
#
# Coordination Sequence:
#
# PCOD9578168 Si02
#       7
#     4  12  12  12  12  12  12
#     4  12  21  30  40  65 106 169 215 265 310 326
#     4  10  22  32  49  76 106 149 204 252 282 333
#     4  10  22  37  60  84 114 155 196 239 296 356
#     4  11  17  31  53  71 103 146 197 237 284 339
#     4  11  22  37  60  81 117 154 196 246 293 361
#     4  11  21  30  45  68 106 156 212 259 295 326
#     4  11  24  43  66  95 122 154 193 247 316 379
#
# _framework density 18.816837
#
# number of rings (size 3 to 8) (size 9 to 14) (size 15 to 20)
#    0.000    1.263    6.316    1.105    2.211    0.632 
#    0.000    0.000    0.000    0.000    0.000    0.000 
#    0.000    0.000    0.000   17.211    0.000    0.000 
#
# Total GULP energy -424144.791042 kJ/mol
# GULP energy per Si atom -5580.852514 kJ/mol
# Density = 1.877401 g / cm^3
# Si number density = 18.816837 Si / 1000 Ang^3
#
#
#
# Elastic Constant Matrix: (Units=GPa)
#
#
# Indices 1 2 3 4 5 6 
#
# 1 51.1181 1.6327 22.8142 -0.0001 0.7548 0.0000
# 2 1.6327 51.1181 22.8142 0.0001 -0.7548 0.0000
# 3 22.8142 22.8142 121.5055 0.0000 0.0000 0.0000
# 4 -0.0001 0.0001 0.0000 12.4632 0.0000 -0.7548
# 5 0.7548 -0.7548 0.0000 0.0000 12.4632 -0.0001
# 6 0.0000 0.0000 0.0000 -0.7548 -0.0001 24.7427
#
#
#
# Elastic Compliance Matrix: (Units=1/GPa)
#
#
# Indices 1 2 3 4 5 6 
#
# 1 0.021439 0.001194 -0.004250 0.000000 -0.001226 0.000000
# 2 0.001194 0.021439 -0.004250 0.000000 0.001226 0.000000
# 3 -0.004250 -0.004250 0.009826 0.000000 0.000000 0.000000
# 4 0.000000 0.000000 0.000000 0.080385 0.000000 0.002452
# 5 -0.001226 0.001226 0.000000 0.000000 0.080385 0.000000
# 6 0.000000 0.000000 0.000000 0.002452 0.000000 0.040491
#
#
# Mechanical properties :
#
#
# Convention : Reuss Voigt Hill
#
# Bulk Modulus (GPa) = 26.25137 35.36266 30.80701
# Shear Modulus (GPa) = 17.77631 21.69920 19.73776
#
# Velocity S-wave (km/s) = 3.07694 3.39953 3.24225
# Velocity P-wave (km/s) = 5.15797 5.85175 5.51578
#
# Compressibility (1/GPa) = 0.03809325
#
# Stress axis : x y z
#
# Youngs Moduli (GPa) = 46.64370 46.64370 101.77170
#
# Poissons Ratio (x) = -0.05568 0.43249
# Poissons Ratio (y) = -0.05568 0.43249
# Poissons Ratio (z) = 0.19822 0.19822
#
# Static dielectric constant tensor:
#      x y z
#    x 1.651480 0.000000 0.000000 
#    y 0.000000 1.651480 0.000000 
#    z 0.000000 0.000000 1.726920 
# 
# From -- ./inp_files/2589.got.cif
#   From: 2010.05.17/outbox.cif.g08.bks.cpg/sg163_2_cif.got.tgz:2589.got - 2010.05.20 10:56:03.
