data_PCOD9578331
_publ_section_title
;
Structure prediction by ZEFSAII (Michael W. Deem and Ramdas Pophale) SiO2 
 PCOD9578331
Probable space group: P -3 M 1
;
_chemical_formula_sum "Si O2"
_cell_formula_units_Z 66
_cell_length_a 28.582585
_cell_length_b 28.582585
_cell_length_c 5.294472
_cell_angle_alpha 90.000000
_cell_angle_beta 90.000000
_cell_angle_gamma 120.000000
_cell_volume 3745.900997
_symmetry_space_group_name_H-M "P -3 M 1"
_symmetry_group_IT_number 164
_symmetry_cell_setting 'hexagonal'
loop_
_space_group_symop_operation_xyz
x,y,z
-y,x-y,z
-x+y,-x,z
x-y,-y,-z
-x,-x+y,-z
y,x,-z
-x,-y,-z
y,-x+y,-z
x-y,x,-z
-x+y,y,z
x,x-y,z
-y,-x,z
loop_
_atom_site_type_symbol
_atom_site_label
_atom_site_fract_x
_atom_site_fract_y
_atom_site_fract_z
Si Si1 0.206146 0.156115 0.666322
Si Si2 0.689821 0.789039 0.008014
Si Si3 0.240929 0.873621 0.510069
Si Si4 0.898119 0.000000 0.000000
Si Si5 0.301374 0.811943 0.620228
Si Si6 0.665971 0.445128 0.882156
O O1 0.199517 0.199517 0.500000
O O2 0.218944 0.109472 0.554329
O O3 0.250044 0.186523 0.885520
O O4 0.147805 0.122908 0.791490
O O5 0.681176 0.840588 0.993902
O O6 0.651161 0.752020 0.233525
O O7 0.673900 0.763935 0.730426
O O8 0.183319 0.816682 0.500561
O O9 0.285903 0.858228 0.583673
O O10 0.906243 0.953122 0.887252
O O11 0.243769 0.756232 0.624709
O O12 0.332368 0.806864 0.379035
O O13 0.329535 0.812054 0.881226
O O14 0.719582 0.439163 0.887443
O O15 0.612941 0.387060 0.900658
#
# Coordination Sequence:
#
# PCOD9578331 Si02
#       6
#    12  12  12   6  12  12
#     4  10  21  34  50  71  96 127 159 199 239 278
#     4   9  18  29  47  68  90 114 147 189 235 284
#     4   9  16  29  45  65  86 111 148 194 237 286
#     4  10  21  36  54  72  96 130 172 214 245 270
#     4   9  17  27  41  57  80 113 155 201 244 283
#     4  10  18  27  38  56  83 121 165 208 243 274
#
# _framework density 17.619259
#
# number of rings (size 3 to 8) (size 9 to 14) (size 15 to 20)
#    0.000    2.545    0.000    2.455    2.545    4.364 
#    0.000    1.818    0.000    2.909    0.000    0.000 
#    0.000    0.000    0.000    0.000    0.000   63.636 
#
# Total GULP energy -367853.638580 kJ/mol
# GULP energy per Si atom -5573.539978 kJ/mol
# Density = 1.757916 g / cm^3
# Si number density = 17.619259 Si / 1000 Ang^3
#
#
#
# Elastic Constant Matrix: (Units=GPa)
#
#
# Indices 1 2 3 4 5 6 
#
# 1 25.0843 32.3872 0.1966 -4.4898 0.0000 0.0000
# 2 32.3872 25.0843 0.1966 4.4898 0.0000 0.0000
# 3 0.1966 0.1966 57.0599 0.0000 0.0000 0.0000
# 4 -4.4898 4.4898 0.0000 20.9887 0.0000 0.0000
# 5 0.0000 0.0000 0.0000 0.0000 20.9887 -4.4898
# 6 0.0000 0.0000 0.0000 0.0000 -4.4898 -3.6515
#
#
#
# Elastic Compliance Matrix: (Units=1/GPa)
#
#
# Indices 1 2 3 4 5 6 
#
# 1 -0.045507 0.062908 -0.000060 -0.023192 0.000000 0.000000
# 2 0.062908 -0.045507 -0.000060 0.023192 0.000000 0.000000
# 3 -0.000060 -0.000060 0.017526 0.000000 0.000000 0.000000
# 4 -0.023192 0.023192 0.000000 0.037723 0.000000 0.000000
# 5 0.000000 0.000000 0.000000 0.000000 0.037723 -0.046383
# 6 0.000000 0.000000 0.000000 0.000000 -0.046383 -0.216830
#
#
# Mechanical properties :
#
#
# Convention : Reuss Voigt Hill
#
# Bulk Modulus (GPa) = 19.19878 19.19884 19.19881
# Shear Modulus (GPa) = -15.47570 12.62839 -1.42366
#
# Velocity S-wave (km/s) = -2.96690 2.68010 -0.89987
# Velocity P-wave (km/s) = 0.90360 4.52741 3.13695
#
# Compressibility (1/GPa) = 0.05208664
#
# Stress axis : x y z
#
# Youngs Moduli (GPa) = -21.97447 -21.97447 57.05854
#
# Poissons Ratio (x) = 1.38236 0.00342
# Poissons Ratio (y) = 1.38236 0.00342
# Poissons Ratio (z) = -0.00132 -0.00132
#
# Static dielectric constant tensor:
#      x y z
#    x 1.595450 0.000000 0.000000 
#    y 0.000000 1.595450 0.000000 
#    z 0.000000 0.000000 1.661610 
# 
# From -- ./inp_files/747.got.cif
#   From: 2010.05.17/outbox.cif.g08.bks.cpg/sg164_1_cif.got.tgz:747.got - 2010.05.20 10:58:56.
