data_PCOD9578565
_publ_section_title
;
Structure prediction by ZEFSAII (Michael W. Deem and Ramdas Pophale) SiO2 
 PCOD9578565
Probable space group: P -3 M 1
;
_chemical_formula_sum "Si O2"
_cell_formula_units_Z 66
_cell_length_a 12.768770
_cell_length_b 12.768770
_cell_length_c 29.549729
_cell_angle_alpha 90.000000
_cell_angle_beta 90.000000
_cell_angle_gamma 120.000000
_cell_volume 4172.364700
_symmetry_space_group_name_H-M "P -3 M 1"
_symmetry_group_IT_number 164
_symmetry_cell_setting 'hexagonal'
loop_
_space_group_symop_operation_xyz
x,y,z
-y,x-y,z
-x+y,-x,z
x-y,-y,-z
-x,-x+y,-z
y,x,-z
-x,-y,-z
y,-x+y,-z
x-y,x,-z
-x+y,y,z
x,x-y,z
-y,-x,z
loop_
_atom_site_type_symbol
_atom_site_label
_atom_site_fract_x
_atom_site_fract_y
_atom_site_fract_z
Si Si1 0.083595 0.666209 0.956597
Si Si2 0.915376 0.582066 0.412975
Si Si3 0.250856 0.999327 0.327667
Si Si4 0.749314 0.748722 0.870864
Si Si5 0.751145 0.000444 0.771709
Si Si6 0.000000 0.751180 0.500000
O O1 0.101174 0.550587 0.953505
O O2 0.211563 0.788438 0.961386
O O3 0.020588 0.678790 0.911346
O O4 0.000000 0.646980 0.000000
O O5 0.777072 0.554143 0.411568
O O6 0.920496 0.460248 0.416259
O O7 0.976659 0.667998 0.456163
O O8 0.979299 0.656629 0.367626
O O9 0.123724 0.876277 0.334214
O O10 0.229829 0.114915 0.328750
O O11 0.300374 0.994829 0.277436
O O12 0.876130 0.752260 0.877146
O O13 0.698860 0.693941 0.820752
O O14 0.770437 0.885219 0.871353
O O15 0.754250 0.877125 0.771623
O O16 0.887136 0.112864 0.771827
O O17 0.882015 0.764029 0.506613
#
# Coordination Sequence:
#
# PCOD9578565 Si02
#       6
#    12  12  12  12  12   6
#     4  10  20  33  48  65  87 116 150 187 225 266
#     4  10  20  33  48  66  92 127 163 193 220 258
#     4   9  16  27  46  71  96 120 148 187 233 275
#     4   9  16  27  45  69  95 119 144 178 223 274
#     4   8  13  22  39  65  94 120 145 176 220 272
#     4  10  20  34  54  78 100 118 140 180 234 284
#
# _framework density 15.818367
#
# number of rings (size 3 to 8) (size 9 to 14) (size 15 to 20)
#    0.000    2.727    0.000    2.364    0.000    2.909 
#    0.000    2.727    0.000    7.273    0.000    2.545 
#    0.000    0.000    0.000    0.000    0.000    0.000 
#
# Total GULP energy -367422.074705 kJ/mol
# GULP energy per Si atom -5567.001132 kJ/mol
# Density = 1.578236 g / cm^3
# Si number density = 15.818367 Si / 1000 Ang^3
#
#
#
# Elastic Constant Matrix: (Units=GPa)
#
#
# Indices 1 2 3 4 5 6 
#
# 1 76.4582 42.4259 73.1959 -4.5499 0.0000 0.0000
# 2 42.4259 76.4582 73.1959 4.5499 0.0000 0.0000
# 3 73.1959 73.1959 174.1351 0.0000 0.0000 0.0000
# 4 -4.5499 4.5499 0.0000 21.4133 0.0000 0.0000
# 5 0.0000 0.0000 0.0000 0.0000 21.4133 -4.5499
# 6 0.0000 0.0000 0.0000 0.0000 -4.5499 17.0161
#
#
#
# Elastic Compliance Matrix: (Units=1/GPa)
#
#
# Indices 1 2 3 4 5 6 
#
# 1 0.024295 -0.006859 -0.007329 0.006620 0.000000 0.000000
# 2 -0.006859 0.024295 -0.007329 -0.006620 0.000000 0.000000
# 3 -0.007329 -0.007329 0.011904 0.000000 0.000000 0.000000
# 4 0.006620 -0.006620 0.000000 0.049513 0.000000 0.000000
# 5 0.000000 0.000000 0.000000 0.000000 0.049513 0.013239
# 6 0.000000 0.000000 0.000000 0.000000 0.013239 0.062308
#
#
# Mechanical properties :
#
#
# Convention : Reuss Voigt Hill
#
# Bulk Modulus (GPa) = 57.27230 78.29854 67.78542
# Shear Modulus (GPa) = 18.47172 21.18412 19.82792
#
# Velocity S-wave (km/s) = 3.42093 3.66349 3.54429
# Velocity P-wave (km/s) = 7.20336 8.21589 7.72623
#
# Compressibility (1/GPa) = 0.01746045
#
# Stress axis : x y z
#
# Youngs Moduli (GPa) = 41.16006 41.16006 84.00286
#
# Poissons Ratio (x) = 0.28230 0.61569
# Poissons Ratio (y) = 0.28230 0.61569
# Poissons Ratio (z) = 0.30168 0.30168
#
# Static dielectric constant tensor:
#      x y z
#    x 1.491000 0.000000 0.000000 
#    y 0.000000 1.491000 0.000000 
#    z 0.000000 0.000000 1.572860 
# 
# From -- ./inp_files/5411.got.cif
#   From: 2010.05.17/outbox.cif.g08.bks.cpg/sg164_3_cif.got.tgz:5411.got - 2010.05.20 10:58:56.
