data_PCOD9578503
_publ_section_title
;
Structure prediction by ZEFSAII (Michael W. Deem and Ramdas Pophale) SiO2 
 PCOD9578503
Probable space group: P -3 M 1
;
_chemical_formula_sum "Si O2"
_cell_formula_units_Z 84
_cell_length_a 20.935687
_cell_length_b 20.935687
_cell_length_c 12.396154
_cell_angle_alpha 90.000000
_cell_angle_beta 90.000000
_cell_angle_gamma 120.000000
_cell_volume 4705.351027
_symmetry_space_group_name_H-M "P -3 M 1"
_symmetry_group_IT_number 164
_symmetry_cell_setting 'hexagonal'
loop_
_space_group_symop_operation_xyz
x,y,z
-y,x-y,z
-x+y,-x,z
x-y,-y,-z
-x,-x+y,-z
y,x,-z
-x,-y,-z
y,-x+y,-z
x-y,x,-z
-x+y,y,z
x,x-y,z
-y,-x,z
loop_
_atom_site_type_symbol
_atom_site_label
_atom_site_fract_x
_atom_site_fract_y
_atom_site_fract_z
Si Si1 0.870938 0.596621 0.622864
Si Si2 0.811192 0.763264 0.672202
Si Si3 0.243967 0.909105 0.605424
Si Si4 0.485298 0.818271 0.980495
Si Si5 0.779645 0.814822 0.886996
Si Si6 0.083790 0.617035 0.189431
Si Si7 0.381091 0.315417 0.163553
O O1 0.784070 0.568139 0.614381
O O2 0.025760 0.776545 0.610488
O O3 0.906156 0.622173 0.503922
O O4 0.889832 0.545269 0.694058
O O5 0.891171 0.782342 0.625626
O O6 0.819459 0.799475 0.788263
O O7 0.767265 0.674753 0.685652
O O8 0.167884 0.832117 0.610475
O O9 0.081839 0.707798 0.710718
O O10 0.392764 0.009628 0.843532
O O11 0.409513 0.819025 0.960593
O O12 0.472792 0.736396 0.977119
O O13 0.514894 0.854661 0.098209
O O14 0.548116 0.869437 0.894849
O O15 0.779753 0.889877 0.866682
O O16 0.694671 0.748805 0.887590
O O17 0.815626 0.815626 0.000000
O O18 0.069110 0.534555 0.192032
#
# Coordination Sequence:
#
# PCOD9578503 Si02
#       7
#    12  12  12  12  12  12  12
#     4  10  20  36  58  82 112 149 190 234 277 335
#     4  10  19  32  54  80 109 143 188 237 280 332
#     4  10  20  36  58  83 117 149 186 238 288 338
#     4  11  23  39  58  81 111 149 188 225 272 334
#     4  11  21  34  53  79 116 152 192 241 287 343
#     4  11  22  37  57  84 119 148 180 230 284 336
#     4  11  21  35  57  84 114 145 186 233 286 337
#
# _framework density 17.852015999999999
#
# number of rings (size 3 to 8) (size 9 to 14) (size 15 to 20)
#    0.000    1.429    2.857    5.714    0.000    1.143 
#    0.000    2.857    0.000    5.714    0.000    0.000 
#    0.000   13.714    0.000    0.000    0.000    0.000 
#
# Total GULP energy -468787.771341 kJ/mol
# GULP energy per Si atom -5580.806802 kJ/mol
# Density = 1.781138 g / cm^3
# Si number density = 17.852016 Si / 1000 Ang^3
#
#
#
# Elastic Constant Matrix: (Units=GPa)
#
#
# Indices 1 2 3 4 5 6 
#
# 1 78.6041 37.7258 26.1386 1.0255 0.0000 0.0000
# 2 37.7258 78.6041 26.1386 -1.0255 0.0000 0.0000
# 3 26.1386 26.1386 94.3227 0.0000 0.0000 0.0000
# 4 1.0255 -1.0255 0.0000 20.9489 0.0000 0.0000
# 5 0.0000 0.0000 0.0000 0.0000 20.9489 1.0255
# 6 0.0000 0.0000 0.0000 0.0000 1.0255 20.4391
#
#
#
# Elastic Compliance Matrix: (Units=1/GPa)
#
#
# Indices 1 2 3 4 5 6 
#
# 1 0.017171 -0.007352 -0.002721 -0.001200 0.000000 0.000000
# 2 -0.007352 0.017171 -0.002721 0.001200 0.000000 0.000000
# 3 -0.002721 -0.002721 0.012110 0.000000 0.000000 0.000000
# 4 -0.001200 0.001200 0.000000 0.047853 0.000000 0.000000
# 5 0.000000 0.000000 0.000000 0.000000 0.047853 -0.002401
# 6 0.000000 0.000000 0.000000 0.000000 -0.002401 0.049046
#
#
# Mechanical properties :
#
#
# Convention : Reuss Voigt Hill
#
# Bulk Modulus (GPa) = 47.92964 47.94857 47.93911
# Shear Modulus (GPa) = 22.34671 23.23592 22.79131
#
# Velocity S-wave (km/s) = 3.54188 3.61166 3.57694
# Velocity P-wave (km/s) = 6.60554 6.65653 6.63108
#
# Compressibility (1/GPa) = 0.02086391
#
# Stress axis : x y z
#
# Youngs Moduli (GPa) = 58.23748 58.23748 82.57627
#
# Poissons Ratio (x) = 0.42816 0.22469
# Poissons Ratio (y) = 0.42816 0.22469
# Poissons Ratio (z) = 0.15847 0.15847
#
# Static dielectric constant tensor:
#      x y z
#    x 1.600080 0.000000 0.000000 
#    y 0.000000 1.600080 0.000000 
#    z 0.000000 0.000000 1.644400 
# 
# From -- ./inp_files/2944.got.cif
#   From: 2010.05.17/outbox.cif.g08.bks.cpg/sg164_2_cif.got.tgz:2944.got - 2010.05.20 10:58:56.
