data_PCOD9578911
_publ_section_title
;
Structure prediction by ZEFSAII (Michael W. Deem and Ramdas Pophale) SiO2 
 PCOD9578911
Probable space group: P -3 C 1
;
_chemical_formula_sum "Si O2"
_cell_formula_units_Z 56
_cell_length_a 13.630072
_cell_length_b 13.630072
_cell_length_c 17.747271
_cell_angle_alpha 90.000000
_cell_angle_beta 90.000000
_cell_angle_gamma 120.000000
_cell_volume 2855.344493
_symmetry_space_group_name_H-M "P -3 C 1"
_symmetry_group_IT_number 165
_symmetry_cell_setting 'hexagonal'
loop_
_space_group_symop_operation_xyz
x,y,z
-y,x-y,z
-x+y,-x,z
x-y,-y,1/2-z
-x,-x+y,1/2-z
y,x,1/2-z
-x,-y,-z
y,-x+y,-z
x-y,x,-z
-x+y,y,1/2+z
x,x-y,1/2+z
-y,-x,1/2+z
loop_
_atom_site_type_symbol
_atom_site_label
_atom_site_fract_x
_atom_site_fract_y
_atom_site_fract_z
Si Si1 0.801123 0.051497 0.519484
Si Si2 0.447947 0.264157 0.420423
Si Si3 0.462112 0.897949 0.212719
Si Si4 0.333334 0.666667 0.304679
Si Si5 0.318130 0.287707 0.832340
Si Si6 0.333334 0.666668 0.987307
O O1 0.718610 0.078998 0.470611
O O2 0.929407 0.147027 0.502759
O O3 0.767958 0.052633 0.606028
O O4 0.516263 0.358325 0.358966
O O5 0.367824 0.153896 0.369859
O O6 0.539591 0.262107 0.477365
O O7 0.387735 0.794207 0.269865
O O8 0.402975 0.966423 0.179835
O O9 0.575238 0.000000 0.250000
O O10 0.333334 0.666667 0.395997
O O11 0.261356 0.261356 0.750000
#
# Coordination Sequence:
#
# PCOD9578911 Si02
#       6
#    12  12  12   4  12   4
#     4  10  24  44  67  94 126 168 216 271 328 384
#     4  11  22  42  64  94 133 171 212 268 319 388
#     4  11  23  40  63  89 129 171 213 266 320 383
#     4  12  25  44  64  93 133 179 214 267 340 377
#     4  10  22  40  65  92 130 168 216 268 317 387
#     4  12  25  38  64  96 139 173 217 261 322 401
#
# _framework density 19.612345000000001
#
# number of rings (size 3 to 8) (size 9 to 14) (size 15 to 20)
#    0.000    1.286    4.286    0.214    6.000    6.000 
#    0.000    3.214    0.000    0.000    0.000    0.000 
#    0.000    0.000    0.000    0.000    0.000    0.000 
#
# Total GULP energy -311821.000663 kJ/mol
# GULP energy per Si atom -5568.232155 kJ/mol
# Density = 1.956771 g / cm^3
# Si number density = 19.612345 Si / 1000 Ang^3
#
#
#
# Elastic Constant Matrix: (Units=GPa)
#
#
# Indices 1 2 3 4 5 6 
#
# 1 60.2473 26.3736 51.7750 -12.2314 0.0000 0.0000
# 2 26.3736 60.2473 51.7748 12.2314 0.0000 0.0000
# 3 51.7750 51.7748 197.1393 -0.0002 0.0000 0.0000
# 4 -12.2314 12.2314 -0.0002 16.9722 0.0000 0.0000
# 5 0.0000 0.0000 0.0000 0.0000 16.9723 -12.2312
# 6 0.0000 0.0000 0.0000 0.0000 -12.2312 16.9370
#
#
#
# Elastic Compliance Matrix: (Units=1/GPa)
#
#
# Indices 1 2 3 4 5 6 
#
# 1 0.039194 -0.022366 -0.004419 0.044365 0.000000 0.000000
# 2 -0.022366 0.039194 -0.004420 -0.044365 0.000000 0.000000
# 3 -0.004419 -0.004420 0.007394 0.000000 0.000000 0.000000
# 4 0.044365 -0.044365 0.000000 0.122865 0.000000 0.000000
# 5 0.000000 0.000000 0.000000 0.000000 0.122858 0.088723
# 6 0.000000 0.000000 0.000000 0.000000 0.088723 0.123114
#
#
# Mechanical properties :
#
#
# Convention : Reuss Voigt Hill
#
# Bulk Modulus (GPa) = 42.78709 64.16450 53.47580
# Shear Modulus (GPa) = 9.52705 22.69034 16.10870
#
# Velocity S-wave (km/s) = 2.20641 3.40507 2.86904
# Velocity P-wave (km/s) = 5.32492 6.94599 6.18876
#
# Compressibility (1/GPa) = 0.02337154
#
# Stress axis : x y z
#
# Youngs Moduli (GPa) = 25.51399 25.51394 135.24572
#
# Poissons Ratio (x) = 0.57066 0.59772
# Poissons Ratio (y) = 0.57066 0.59772
# Poissons Ratio (z) = 0.11276 0.11276
#
# Static dielectric constant tensor:
#      x y z
#    x 1.750950 0.000000 0.000000 
#    y 0.000000 1.750950 0.000000 
#    z 0.000000 0.000000 1.788100 
# 
# From -- ./inp_files/1698.got.cif
#   From: 2010.05.17/outbox.cif.g08.bks.cpg/sg165_1_cif.got.tgz:1698.got - 2010.05.20 11:02:39.
