data_PCOD9578894
_publ_section_title
;
Structure prediction by ZEFSAII (Michael W. Deem and Ramdas Pophale) SiO2 
 PCOD9578894
Probable space group: P -3 C 1
;
_chemical_formula_sum "Si O2"
_cell_formula_units_Z 42
_cell_length_a 21.049561
_cell_length_b 21.049561
_cell_length_c 5.201415
_cell_angle_alpha 90.000000
_cell_angle_beta 90.000000
_cell_angle_gamma 120.000000
_cell_volume 1995.897449
_symmetry_space_group_name_H-M "P -3 C 1"
_symmetry_group_IT_number 165
_symmetry_cell_setting 'hexagonal'
loop_
_space_group_symop_operation_xyz
x,y,z
-y,x-y,z
-x+y,-x,z
x-y,-y,1/2-z
-x,-x+y,1/2-z
y,x,1/2-z
-x,-y,-z
y,-x+y,-z
x-y,x,-z
-x+y,y,1/2+z
x,x-y,1/2+z
-y,-x,1/2+z
loop_
_atom_site_type_symbol
_atom_site_label
_atom_site_fract_x
_atom_site_fract_y
_atom_site_fract_z
Si Si1 0.237061 0.526403 0.656942
Si Si2 0.353456 0.145808 0.727650
Si Si3 0.583350 0.497470 0.045002
Si Si4 0.353535 0.353535 0.250000
O O1 0.301392 0.558981 0.444356
O O2 0.204467 0.440321 0.732338
O O3 0.169444 0.524695 0.510709
O O4 0.322149 0.174854 0.505900
O O5 0.345488 0.068114 0.654897
O O6 0.522423 0.448184 0.831125
O O7 0.618845 0.581875 0.961302
#
# Coordination Sequence:
#
# PCOD9578894 Si02
#       4
#    12  12  12   6
#     4   9  17  32  51  66  89 126 167 210 259 319
#     4   9  19  33  51  76 100 132 172 203 246 313
#     4  11  22  34  51  78 106 135 177 229 284 337
#     4  10  22  36  56  78 112 146 174 220 274 328
#
# _framework density 21.043165999999999
#
# number of rings (size 3 to 8) (size 9 to 14) (size 15 to 20)
#    0.000    2.286    0.000    2.571    0.000   10.286 
#    0.000    0.000    0.000   11.429    0.000    0.000 
#    0.000    0.000    0.000    8.571    0.000    0.000 
#
# Total GULP energy -234457.541246 kJ/mol
# GULP energy per Si atom -5582.322411 kJ/mol
# Density = 2.099527 g / cm^3
# Si number density = 21.043166 Si / 1000 Ang^3
#
#
#
# Elastic Constant Matrix: (Units=GPa)
#
#
# Indices 1 2 3 4 5 6 
#
# 1 68.9661 11.0144 22.6426 -12.2853 0.0000 0.0000
# 2 11.0144 68.9661 22.6426 12.2853 0.0000 0.0000
# 3 22.6426 22.6426 96.2255 0.0000 0.0000 0.0000
# 4 -12.2853 12.2853 0.0000 -11.6387 0.0000 0.0000
# 5 0.0000 0.0000 0.0000 0.0000 -11.6387 -12.2853
# 6 0.0000 0.0000 0.0000 0.0000 -12.2853 28.9759
#
#
#
# Elastic Compliance Matrix: (Units=1/GPa)
#
#
# Indices 1 2 3 4 5 6 
#
# 1 0.013173 0.001252 -0.003394 -0.012583 0.000000 0.000000
# 2 0.001252 0.013173 -0.003394 0.012583 0.000000 0.000000
# 3 -0.003394 -0.003394 0.011990 0.000000 0.000000 0.000000
# 4 -0.012583 0.012583 0.000000 -0.059356 0.000000 0.000000
# 5 0.000000 0.000000 0.000000 0.000000 -0.059356 -0.025166
# 6 0.000000 0.000000 0.000000 0.000000 -0.025166 0.023841
#
#
# Mechanical properties :
#
#
# Convention : Reuss Voigt Hill
#
# Bulk Modulus (GPa) = 36.68068 38.52855 37.60461
# Shear Modulus (GPa) = -137.45624 12.99693 -62.22966
#
# Velocity S-wave (km/s) = -8.09091 2.48792 -5.44395
# Velocity P-wave (km/s) = 8.35553 5.15771 4.64827
#
# Compressibility (1/GPa) = 0.02726231
#
# Stress axis : x y z
#
# Youngs Moduli (GPa) = 75.91395 75.91395 83.40518
#
# Poissons Ratio (x) = -0.09505 0.28310
# Poissons Ratio (y) = -0.09505 0.28310
# Poissons Ratio (z) = 0.25767 0.25767
#
# Static dielectric constant tensor:
#      x y z
#    x 1.813300 0.000000 0.000000 
#    y 0.000000 1.813300 0.000000 
#    z 0.000000 0.000000 1.836850 
# 
# From -- ./inp_files/86.got.cif
#   From: 2010.05.17/outbox.cif.g08.bks.cpg/sg165_1_cif.got.tgz:86.got - 2010.05.20 11:02:39.
