data_PCOD9578108
_publ_section_title
;
Structure prediction by ZEFSAII (Michael W. Deem and Ramdas Pophale) SiO2 
 PCOD9578108
Probable space group: P -3 1 C
;
_chemical_formula_sum "Si O2"
_cell_formula_units_Z 66
_cell_length_a 19.258563
_cell_length_b 19.258563
_cell_length_c 9.237661
_cell_angle_alpha 90.000000
_cell_angle_beta 90.000000
_cell_angle_gamma 120.000000
_cell_volume 2967.156201
_symmetry_space_group_name_H-M "P -3 1 C"
_symmetry_group_IT_number 163
_symmetry_cell_setting 'hexagonal'
loop_
_space_group_symop_operation_xyz
x,y,z
-y,x-y,z
-x+y,-x,z
-y,-x,1/2-z
-x+y,y,1/2-z
x,x-y,1/2-z
-x,-y,-z
y,-x+y,-z
x-y,x,-z
y,x,1/2+z
x-y,-y,1/2+z
-x,-x+y,1/2+z
loop_
_atom_site_type_symbol
_atom_site_label
_atom_site_fract_x
_atom_site_fract_y
_atom_site_fract_z
Si Si1 0.579916 0.619700 0.592805
Si Si2 0.123940 0.247879 0.250000
Si Si3 0.681167 0.926745 0.477676
Si Si4 0.830319 0.304831 0.345643
Si Si5 0.124125 0.979985 0.948023
Si Si6 0.427655 0.875917 0.091892
O O1 0.669594 0.677501 0.536452
O O2 0.552489 0.646627 0.736639
O O3 0.515733 0.608088 0.471692
O O4 0.578189 0.535183 0.614348
O O5 0.210261 0.305775 0.317194
O O6 0.127278 0.185839 0.140475
O O7 0.604285 0.857344 0.556963
O O8 0.760201 0.937865 0.553183
O O9 0.752133 0.247868 0.250000
O O10 0.826650 0.365574 0.462384
O O11 0.118847 0.032720 0.084219
O O12 0.418884 0.837768 0.250000
#
# Coordination Sequence:
#
# PCOD9578108 Si02
#       6
#    12   6  12  12  12  12
#     4  10  20  38  70  98 133 169 215 272 341 407
#     4  10  22  38  56  84 126 166 216 282 336 390
#     4  10  22  38  60  89 129 175 213 274 338 396
#     4  11  24  40  62  98 139 177 212 267 347 408
#     4  10  22  38  56  80 118 174 232 283 338 394
#     4  10  20  40  69 102 131 166 219 275 328 405
#
# _framework density 22.243518999999999
#
# number of rings (size 3 to 8) (size 9 to 14) (size 15 to 20)
#    0.000    1.818    0.000    5.091    5.091    4.364 
#    0.000    0.000    0.000    2.909    0.000    0.000 
#    2.727    0.000    0.000    0.000    0.000    0.000 
#
# Total GULP energy -367728.455101 kJ/mol
# GULP energy per Si atom -5571.643259 kJ/mol
# Density = 2.219289 g / cm^3
# Si number density = 22.243519 Si / 1000 Ang^3
#
#
#
# Elastic Constant Matrix: (Units=GPa)
#
#
# Indices 1 2 3 4 5 6 
#
# 1 67.8390 41.7001 30.4451 -0.0001 -10.5221 0.0000
# 2 41.7001 67.8390 30.4451 0.0001 10.5221 0.0000
# 3 30.4451 30.4451 84.3954 0.0000 0.0000 0.0000
# 4 -0.0001 0.0001 0.0000 25.0177 0.0000 10.5221
# 5 -10.5221 10.5221 0.0000 0.0000 25.0177 -0.0001
# 6 0.0000 0.0000 0.0000 10.5221 -0.0001 13.0695
#
#
#
# Elastic Compliance Matrix: (Units=1/GPa)
#
#
# Indices 1 2 3 4 5 6 
#
# 1 0.034631 -0.023212 -0.004119 0.000000 0.024328 0.000000
# 2 -0.023212 0.034631 -0.004119 0.000000 -0.024328 0.000000
# 3 -0.004119 -0.004119 0.014821 0.000000 0.000000 0.000000
# 4 0.000000 0.000000 0.000000 0.060436 0.000000 -0.048656
# 5 0.024328 -0.024328 0.000000 0.000000 0.060436 0.000000
# 6 0.000000 0.000000 0.000000 -0.048656 0.000000 0.115687
#
#
# Mechanical properties :
#
#
# Convention : Reuss Voigt Hill
#
# Bulk Modulus (GPa) = 47.21054 47.25043 47.23048
# Shear Modulus (GPa) = 12.80071 20.45322 16.62696
#
# Velocity S-wave (km/s) = 2.40152 3.03564 2.73701
# Velocity P-wave (km/s) = 5.38147 5.79442 5.59176
#
# Compressibility (1/GPa) = 0.02118171
#
# Stress axis : x y z
#
# Youngs Moduli (GPa) = 28.87576 28.87576 67.47176
#
# Poissons Ratio (x) = 0.67027 0.27794
# Poissons Ratio (y) = 0.67027 0.27794
# Poissons Ratio (z) = 0.11895 0.11895
#
# Static dielectric constant tensor:
#      x y z
#    x 1.887240 0.000000 0.000000 
#    y 0.000000 1.887240 0.000000 
#    z 0.000000 0.000000 2.310550 
# 
# From -- ./inp_files/1139.got.cif
#   From: 2010.05.17/outbox.cif.g08.bks.cpg/sg163_1_cif.got.tgz:1139.got - 2010.05.20 10:56:03.
