data_PCOD9578057
_publ_section_title
;
Structure prediction by ZEFSAII (Michael W. Deem and Ramdas Pophale) SiO2 
 PCOD9578057
Probable space group: P -3 1 C
;
_chemical_formula_sum "Si O2"
_cell_formula_units_Z 60
_cell_length_a 13.322377
_cell_length_b 13.322377
_cell_length_c 25.634931
_cell_angle_alpha 90.000000
_cell_angle_beta 90.000000
_cell_angle_gamma 120.000000
_cell_volume 3940.272186
_symmetry_space_group_name_H-M "P -3 1 C"
_symmetry_group_IT_number 163
_symmetry_cell_setting 'hexagonal'
loop_
_space_group_symop_operation_xyz
x,y,z
-y,x-y,z
-x+y,-x,z
-y,-x,1/2-z
-x+y,y,1/2-z
x,x-y,1/2-z
-x,-y,-z
y,-x+y,-z
x-y,x,-z
y,x,1/2+z
x-y,-y,1/2+z
-x,-x+y,1/2+z
loop_
_atom_site_type_symbol
_atom_site_label
_atom_site_fract_x
_atom_site_fract_y
_atom_site_fract_z
Si Si1 0.429548 0.096987 0.041203
Si Si2 0.096072 0.429335 0.662541
Si Si3 0.903013 0.570452 0.041203
Si Si4 0.093466 0.666508 0.250000
Si Si5 0.333263 0.903928 0.837459
O O1 0.397496 0.064076 0.101831
O O2 0.429745 0.214873 0.031658
O O3 0.558621 0.117243 0.034635
O O4 0.350062 1.000000 0.000000
O O5 0.124699 0.562349 0.669115
O O6 0.210532 0.421065 0.674277
O O7 0.988734 0.353181 0.700223
O O8 0.935924 0.602504 0.101831
O O9 0.211028 0.788973 0.250000
O O10 0.119798 0.559899 0.250000
O O11 0.011266 0.646819 0.200223
#
# Coordination Sequence:
#
# PCOD9578057 Si02
#       5
#    12  12  12  12  12
#     4   9  17  29  46  69  95 121 149 183 224 267
#     4   9  17  30  49  71  92 115 147 189 231 266
#     4   9  17  29  46  69  95 121 149 183 224 267
#     4  10  20  32  46  66  94 124 150 178 218 272
#     4   9  17  30  49  71  92 115 147 189 231 266
#
# _framework density 15.227375
#
# number of rings (size 3 to 8) (size 9 to 14) (size 15 to 20)
#    0.000    2.800    0.000    1.600    0.000    4.800 
#    0.000    2.000    0.000    8.400    0.000    0.000 
#    0.000    0.000    0.000    0.000    0.000    0.000 
#
# Total GULP energy -334324.422994 kJ/mol
# GULP energy per Si atom -5572.073717 kJ/mol
# Density = 1.519272 g / cm^3
# Si number density = 15.227375 Si / 1000 Ang^3
#
#
#
# Elastic Constant Matrix: (Units=GPa)
#
#
# Indices 1 2 3 4 5 6 
#
# 1 102.9722 61.5857 79.9131 0.0000 0.0000 0.0000
# 2 61.5857 102.9722 79.9131 0.0000 0.0000 0.0000
# 3 79.9131 79.9131 106.4724 0.0000 0.0000 0.0000
# 4 0.0000 0.0000 0.0000 18.9109 0.0000 0.0000
# 5 0.0000 0.0000 0.0000 0.0000 18.9109 0.0000
# 6 0.0000 0.0000 0.0000 0.0000 0.0000 20.6932
#
#
#
# Elastic Compliance Matrix: (Units=1/GPa)
#
#
# Indices 1 2 3 4 5 6 
#
# 1 0.023292 -0.000870 -0.016829 0.000000 0.000000 0.000000
# 2 -0.000870 0.023292 -0.016829 0.000000 0.000000 0.000000
# 3 -0.016829 -0.016829 0.034654 0.000000 0.000000 0.000000
# 4 0.000000 0.000000 0.000000 0.052880 0.000000 0.000000
# 5 0.000000 0.000000 0.000000 0.000000 0.052880 0.000000
# 6 0.000000 0.000000 0.000000 0.000000 0.000000 0.048325
#
#
# Mechanical properties :
#
#
# Convention : Reuss Voigt Hill
#
# Bulk Modulus (GPa) = 82.08542 83.91560 83.00051
# Shear Modulus (GPa) = 16.21072 17.76998 16.99035
#
# Velocity S-wave (km/s) = 3.26633 3.41981 3.34395
# Velocity P-wave (km/s) = 8.26128 8.41555 8.33877
#
# Compressibility (1/GPa) = 0.01218243
#
# Stress axis : x y z
#
# Youngs Moduli (GPa) = 42.93315 42.93315 28.85706
#
# Poissons Ratio (x) = 0.03737 0.48562
# Poissons Ratio (y) = 0.03737 0.48562
# Poissons Ratio (z) = 0.72250 0.72250
#
# Static dielectric constant tensor:
#      x y z
#    x 1.475990 0.000000 0.000000 
#    y 0.000000 1.475990 0.000000 
#    z 0.000000 0.000000 1.527900 
# 
# From -- ./inp_files/4088.got.cif
#   From: 2010.05.17/outbox.cif.g08.bks.cpg/sg163_3_cif.got.tgz:4088.got - 2010.05.20 10:56:03.
