data_PCOD9578670
_publ_section_title
;
Structure prediction by ZEFSAII (Michael W. Deem and Ramdas Pophale) SiO2 
 PCOD9578670
Probable space group: P -3 M 1
;
_chemical_formula_sum "Si O2"
_cell_formula_units_Z 84
_cell_length_a 21.744718
_cell_length_b 21.744718
_cell_length_c 12.184630
_cell_angle_alpha 90.000000
_cell_angle_beta 90.000000
_cell_angle_gamma 120.000000
_cell_volume 4989.425441
_symmetry_space_group_name_H-M "P -3 M 1"
_symmetry_group_IT_number 164
_symmetry_cell_setting 'hexagonal'
loop_
_space_group_symop_operation_xyz
x,y,z
-y,x-y,z
-x+y,-x,z
x-y,-y,-z
-x,-x+y,-z
y,x,-z
-x,-y,-z
y,-x+y,-z
x-y,x,-z
-x+y,y,z
x,x-y,z
-y,-x,z
loop_
_atom_site_type_symbol
_atom_site_label
_atom_site_fract_x
_atom_site_fract_y
_atom_site_fract_z
Si Si1 0.862059 0.581101 0.837767
Si Si2 0.000076 0.858886 0.133564
Si Si3 0.993706 0.280169 0.132387
Si Si4 0.189021 0.521847 0.961336
Si Si5 0.465628 0.391185 0.441325
Si Si6 0.666537 0.475606 0.632437
Si Si7 0.862518 0.282157 0.242168
O O1 0.802225 0.604450 0.849859
O O2 0.939482 0.648065 0.823732
O O3 0.839970 0.528442 0.735133
O O4 0.856186 0.536402 0.946409
O O5 0.929224 0.858447 0.170106
O O6 0.999843 0.787735 0.165974
O O7 0.070639 0.929362 0.170284
O O8 0.000000 0.859992 0.000000
O O9 0.919968 0.270252 0.176263
O O10 0.000000 0.286228 0.000000
O O11 0.270274 0.540548 0.978884
O O12 0.181953 0.590977 0.970761
O O13 0.165024 0.485086 0.842895
O O14 0.411880 0.411880 0.500000
O O15 0.533968 0.466033 0.403621
O O16 0.493900 0.358194 0.533003
O O17 0.432982 0.334591 0.343505
O O18 0.734388 0.468775 0.601081
O O19 0.600746 0.399255 0.663304
O O20 0.793482 0.206519 0.273063
#
# Coordination Sequence:
#
# PCOD9578670 Si02
#       7
#    12  12  12  12  12  12  12
#     4  10  20  34  52  76 107 141 179 220 266 323
#     4   9  17  28  46  70  99 133 171 211 251 295
#     4  11  20  33  50  73 105 144 179 213 256 315
#     4  10  20  34  52  75 105 141 181 226 276 329
#     4  10  21  38  58  78 105 139 178 227 281 333
#     4  10  20  35  56  79 103 133 175 225 277 326
#     4  11  22  36  55  79 109 142 182 225 271 326
#
# _framework density 16.835605000000001
#
# number of rings (size 3 to 8) (size 9 to 14) (size 15 to 20)
#    0.000    1.857    1.429    3.429    0.000    1.714 
#    0.000    4.286    0.000    4.571    0.000    0.000 
#    0.000    0.000    0.000    0.000    0.000   26.286 
#
# Total GULP energy -468823.086284 kJ/mol
# GULP energy per Si atom -5581.227218 kJ/mol
# Density = 1.679729 g / cm^3
# Si number density = 16.835605 Si / 1000 Ang^3
#
#
#
# Elastic Constant Matrix: (Units=GPa)
#
#
# Indices 1 2 3 4 5 6 
#
# 1 116.5119 60.5100 25.5335 -1.1838 0.0000 0.0000
# 2 60.5100 116.5119 25.5335 1.1838 0.0000 0.0000
# 3 25.5335 25.5335 54.3547 0.0000 0.0000 0.0000
# 4 -1.1838 1.1838 0.0000 19.6702 0.0000 0.0000
# 5 0.0000 0.0000 0.0000 0.0000 19.6702 -1.1838
# 6 0.0000 0.0000 0.0000 0.0000 -1.1838 28.0010
#
#
#
# Elastic Compliance Matrix: (Units=1/GPa)
#
#
# Indices 1 2 3 4 5 6 
#
# 1 0.012218 -0.005684 -0.003070 0.001077 0.000000 0.000000
# 2 -0.005684 0.012218 -0.003070 -0.001077 0.000000 0.000000
# 3 -0.003070 -0.003070 0.021282 0.000000 0.000000 0.000000
# 4 0.001077 -0.001077 0.000000 0.050968 0.000000 0.000000
# 5 0.000000 0.000000 0.000000 0.000000 0.050968 0.002155
# 6 0.000000 0.000000 0.000000 0.000000 0.002155 0.035804
#
#
# Mechanical properties :
#
#
# Convention : Reuss Voigt Hill
#
# Bulk Modulus (GPa) = 45.30596 56.72583 51.01590
# Shear Modulus (GPa) = 23.31418 25.18840 24.25129
#
# Velocity S-wave (km/s) = 3.72535 3.87219 3.79948
# Velocity P-wave (km/s) = 6.74340 7.33205 7.04388
#
# Compressibility (1/GPa) = 0.02207215
#
# Stress axis : x y z
#
# Youngs Moduli (GPa) = 81.84443 81.84443 46.98883
#
# Poissons Ratio (x) = 0.46518 0.14424
# Poissons Ratio (y) = 0.46518 0.14424
# Poissons Ratio (z) = 0.25123 0.25123
#
# Static dielectric constant tensor:
#      x y z
#    x 1.555690 0.000000 0.000000 
#    y 0.000000 1.555690 0.000000 
#    z 0.000000 0.000000 1.548280 
# 
# From -- ./inp_files/2923.got.cif
#   From: 2010.05.17/outbox.cif.g08.bks.cpg/sg164_2_cif.got.tgz:2923.got - 2010.05.20 10:58:56.
