data_PCOD9578230
_publ_section_title
;
Structure prediction by ZEFSAII (Michael W. Deem and Ramdas Pophale) SiO2 
 PCOD9578230
Probable space group: P -3 1 C
;
_chemical_formula_sum "Si O2"
_cell_formula_units_Z 84
_cell_length_a 20.867731
_cell_length_b 20.867731
_cell_length_c 10.946440
_cell_angle_alpha 90.000000
_cell_angle_beta 90.000000
_cell_angle_gamma 120.000000
_cell_volume 4128.135958
_symmetry_space_group_name_H-M "P -3 1 C"
_symmetry_group_IT_number 163
_symmetry_cell_setting 'hexagonal'
loop_
_space_group_symop_operation_xyz
x,y,z
-y,x-y,z
-x+y,-x,z
-y,-x,1/2-z
-x+y,y,1/2-z
x,x-y,1/2-z
-x,-y,-z
y,-x+y,-z
x-y,x,-z
y,x,1/2+z
x-y,-y,1/2+z
-x,-x+y,1/2+z
loop_
_atom_site_type_symbol
_atom_site_label
_atom_site_fract_x
_atom_site_fract_y
_atom_site_fract_z
Si Si1 0.152142 0.741557 0.506976
Si Si2 0.854172 0.842348 0.492992
Si Si3 0.067926 0.794567 0.687162
Si Si4 0.490481 0.128091 0.278528
Si Si5 0.550525 0.520207 0.874388
Si Si6 0.718338 0.701311 0.606233
Si Si7 0.880250 0.303042 0.011844
O O1 0.111784 0.776904 0.585587
O O2 0.164267 0.689935 0.603174
O O3 0.088363 0.707728 0.403450
O O4 0.230057 0.808287 0.465833
O O5 0.853777 0.917768 0.510128
O O6 0.818186 0.806697 0.363878
O O7 0.798994 0.774602 0.581693
O O8 0.133996 0.866005 0.750000
O O9 0.022214 0.721226 0.763881
O O10 0.575632 0.151263 0.250000
O O11 0.455317 0.135359 0.151267
O O12 0.451760 0.042815 0.321355
O O13 0.528314 0.471687 0.750000
O O14 0.500000 0.500000 0.000000
O O15 0.626762 0.531928 0.926741
O O16 0.659210 0.707030 0.518681
#
# Coordination Sequence:
#
# PCOD9578230 Si02
#       7
#    12  12  12  12  12  12  12
#     4  11  22  35  64  98 133 174 221 278 343 408
#     4  11  23  38  55  76 107 160 220 278 332 398
#     4  11  19  38  57  79 118 164 213 272 346 397
#     4  11  21  36  64  98 136 173 219 280 340 414
#     4  11  22  40  66 100 135 178 225 287 354 413
#     4  11  21  36  59  88 125 164 212 277 350 399
#     4  12  21  39  64  99 133 177 224 277 348 420
#
# _framework density 20.348165999999999
#
# number of rings (size 3 to 8) (size 9 to 14) (size 15 to 20)
#    0.000    0.857    8.571    1.429    0.000    0.571 
#    0.000    1.429    0.000    4.857    0.000    0.000 
#    0.000    0.000    0.000    0.000    0.000    0.000 
#
# Total GULP energy -467952.359969 kJ/mol
# GULP energy per Si atom -5570.861428 kJ/mol
# Density = 2.030185 g / cm^3
# Si number density = 20.348166 Si / 1000 Ang^3
#
#
#
# Elastic Constant Matrix: (Units=GPa)
#
#
# Indices 1 2 3 4 5 6 
#
# 1 91.8763 41.0829 24.5537 -0.0001 5.3637 0.0000
# 2 41.0829 91.8763 24.5537 0.0001 -5.3637 0.0000
# 3 24.5537 24.5537 70.6336 0.0000 0.0000 0.0000
# 4 -0.0001 0.0001 0.0000 26.6122 0.0000 -5.3637
# 5 5.3637 -5.3637 0.0000 0.0000 26.6122 -0.0001
# 6 0.0000 0.0000 0.0000 -5.3637 -0.0001 25.3967
#
#
#
# Elastic Compliance Matrix: (Units=1/GPa)
#
#
# Indices 1 2 3 4 5 6 
#
# 1 0.014596 -0.005967 -0.003000 0.000000 -0.004144 0.000000
# 2 -0.005967 0.014596 -0.003000 0.000000 0.004144 0.000000
# 3 -0.003000 -0.003000 0.016243 0.000000 0.000000 0.000000
# 4 0.000000 0.000000 0.000000 0.039247 0.000000 0.008289
# 5 -0.004144 0.004144 0.000000 0.000000 0.039247 0.000000
# 6 0.000000 0.000000 0.000000 0.008289 0.000000 0.041126
#
#
# Mechanical properties :
#
#
# Convention : Reuss Voigt Hill
#
# Bulk Modulus (GPa) = 46.50611 48.30741 47.40676
# Shear Modulus (GPa) = 25.49001 26.67063 26.08032
#
# Velocity S-wave (km/s) = 3.54318 3.62431 3.58397
# Velocity P-wave (km/s) = 6.29632 6.42698 6.36199
#
# Compressibility (1/GPa) = 0.02150255
#
# Stress axis : x y z
#
# Youngs Moduli (GPa) = 68.51222 68.51222 61.56493
#
# Poissons Ratio (x) = 0.40881 0.18467
# Poissons Ratio (y) = 0.40881 0.18467
# Poissons Ratio (z) = 0.20551 0.20551
#
# Static dielectric constant tensor:
#      x y z
#    x 3.029930 0.000000 0.000000 
#    y 0.000000 3.029930 0.000000 
#    z 0.000000 0.000000 2.016980 
# 
# From -- ./inp_files/1841.got.cif
#   From: 2010.05.17/outbox.cif.g08.bks.cpg/sg163_1_cif.got.tgz:1841.got - 2010.05.20 10:56:03.
