data_PCOD9578943
_publ_section_title
;
Structure prediction by ZEFSAII (Michael W. Deem and Ramdas Pophale) SiO2 
 PCOD9578943
Probable space group: P -3 C 1
;
_chemical_formula_sum "Si O2"
_cell_formula_units_Z 54
_cell_length_a 10.421137
_cell_length_b 10.421137
_cell_length_c 24.868708
_cell_angle_alpha 90.000000
_cell_angle_beta 90.000000
_cell_angle_gamma 120.000000
_cell_volume 2338.912987
_symmetry_space_group_name_H-M "P -3 C 1"
_symmetry_group_IT_number 165
_symmetry_cell_setting 'hexagonal'
loop_
_space_group_symop_operation_xyz
x,y,z
-y,x-y,z
-x+y,-x,z
x-y,-y,1/2-z
-x,-x+y,1/2-z
y,x,1/2-z
-x,-y,-z
y,-x+y,-z
x-y,x,-z
-x+y,y,1/2+z
x,x-y,1/2+z
-y,-x,1/2+z
loop_
_atom_site_type_symbol
_atom_site_label
_atom_site_fract_x
_atom_site_fract_y
_atom_site_fract_z
Si Si1 0.502460 0.015818 0.435704
Si Si2 0.501937 0.000000 0.250000
Si Si3 0.333334 0.666668 0.233482
Si Si4 0.757391 0.735687 0.126852
Si Si5 0.709331 0.022696 0.346396
Si Si6 0.333334 0.666668 0.103189
Si Si7 0.000000 0.000000 0.061654
O O1 0.348831 0.928684 0.402407
O O2 0.630664 0.001182 0.404793
O O3 0.541240 0.181802 0.421647
O O4 0.500000 0.000000 0.500000
O O5 0.533318 0.170561 0.246709
O O6 0.595351 0.017222 0.303213
O O7 0.333334 0.666667 0.167736
O O8 0.685272 0.821834 0.156880
O O9 0.853816 0.857010 0.082227
O O10 0.883196 0.731908 0.162520
O O11 0.000000 0.000000 0.000000
#
# Coordination Sequence:
#
# PCOD9578943 Si02
#       7
#    12   6   4  12  12   4   4
#     4  12  26  42  70  98 144 189 242 295 371 448
#     4  12  28  48  82 112 154 202 254 310 392 458
#     4  12  27  51  82 116 160 213 258 325 398 472
#     4  10  24  45  66 100 142 177 245 296 367 444
#     4  11  26  46  72 106 138 194 240 316 370 454
#     4  12  24  51  70 101 148 204 237 298 395 448
#     4   9  21  36  72  91 128 187 228 288 360 424
#
# _framework density 23.087647
#
# number of rings (size 3 to 8) (size 9 to 14) (size 15 to 20)
#    0.000    0.889    4.444    0.444   12.444    0.889 
#    1.333    0.000    0.000    0.444    0.000    0.000 
#    0.000    0.000    0.000    0.000    0.000    0.000 
#
# Total GULP energy -301242.882872 kJ/mol
# GULP energy per Si atom -5578.571905 kJ/mol
# Density = 2.303510 g / cm^3
# Si number density = 23.087647 Si / 1000 Ang^3
#
#
#
# Elastic Constant Matrix: (Units=GPa)
#
#
# Indices 1 2 3 4 5 6 
#
# 1 89.5757 16.9823 7.1830 1.1638 0.0000 0.0000
# 2 16.9823 89.5752 7.1829 -1.1635 0.0000 0.0000
# 3 7.1830 7.1829 85.3813 -0.0001 0.0000 0.0000
# 4 1.1638 -1.1635 -0.0001 -4.0788 0.0000 0.0000
# 5 0.0000 0.0000 0.0000 0.0000 -4.0788 1.1637
# 6 0.0000 0.0000 0.0000 0.0000 1.1637 36.2963
#
#
#
# Elastic Compliance Matrix: (Units=1/GPa)
#
#
# Indices 1 2 3 4 5 6 
#
# 1 0.011571 -0.002079 -0.000799 0.003895 0.000000 0.000000
# 2 -0.002079 0.011571 -0.000799 -0.003894 0.000000 0.000000
# 3 -0.000799 -0.000799 0.011847 0.000000 0.000000 0.000000
# 4 0.003895 -0.003894 0.000000 -0.242948 0.000000 0.000000
# 5 0.000000 0.000000 0.000000 0.000000 -0.242948 0.007789
# 6 0.000000 0.000000 0.000000 0.000000 0.007789 0.027301
#
#
# Mechanical properties :
#
#
# Convention : Reuss Voigt Hill
#
# Bulk Modulus (GPa) = 36.18369 36.35874 36.27121
# Shear Modulus (GPa) = -12.28381 21.17334 4.44476
#
# Velocity S-wave (km/s) = -2.30913 3.03163 1.38901
# Velocity P-wave (km/s) = 2.93205 5.29497 4.27981
#
# Compressibility (1/GPa) = 0.02763676
#
# Stress axis : x y z
#
# Youngs Moduli (GPa) = 86.42032 86.41973 84.41287
#
# Poissons Ratio (x) = 0.17968 0.06741
# Poissons Ratio (y) = 0.17968 0.06741
# Poissons Ratio (z) = 0.06901 0.06901
#
# Static dielectric constant tensor:
#      x y z
#    x 1.951780 0.000000 0.000000 
#    y 0.000000 1.951780 0.000000 
#    z 0.000000 0.000000 1.808770 
# 
# From -- ./inp_files/2917.got.cif
#   From: 2010.05.17/outbox.cif.g08.bks.cpg/sg165_2_cif.got.tgz:2917.got - 2010.05.20 11:02:39.
