data_PCOD9578221
_publ_section_title
;
Structure prediction by ZEFSAII (Michael W. Deem and Ramdas Pophale) SiO2 
 PCOD9578221
Probable space group: P -3 1 C
;
_chemical_formula_sum "Si O2"
_cell_formula_units_Z 60
_cell_length_a 19.861775
_cell_length_b 19.861775
_cell_length_c 9.141841
_cell_angle_alpha 90.000000
_cell_angle_beta 90.000000
_cell_angle_gamma 120.000000
_cell_volume 3123.204421
_symmetry_space_group_name_H-M "P -3 1 C"
_symmetry_group_IT_number 163
_symmetry_cell_setting 'hexagonal'
loop_
_space_group_symop_operation_xyz
x,y,z
-y,x-y,z
-x+y,-x,z
-y,-x,1/2-z
-x+y,y,1/2-z
x,x-y,1/2-z
-x,-y,-z
y,-x+y,-z
x-y,x,-z
y,x,1/2+z
x-y,-y,1/2+z
-x,-x+y,1/2+z
loop_
_atom_site_type_symbol
_atom_site_label
_atom_site_fract_x
_atom_site_fract_y
_atom_site_fract_z
Si Si1 0.799694 0.200307 0.250000
Si Si2 0.924034 0.438324 0.415257
Si Si3 0.684934 0.508515 0.990197
Si Si4 0.252828 0.345787 0.217709
Si Si5 0.567349 0.283675 0.750000
Si Si6 0.345773 0.286404 0.053067
O O1 0.726919 0.179805 0.357323
O O2 0.782622 0.131768 0.137454
O O3 0.930559 0.465280 0.250000
O O4 0.853190 0.447793 0.480318
O O5 0.926431 0.358904 0.417548
O O6 0.000000 0.500000 0.500000
O O7 0.696178 0.572921 0.869251
O O8 0.733285 0.475574 0.903904
O O9 0.166664 0.333327 0.250000
O O10 0.273211 0.291957 0.117170
O O11 0.281873 0.342392 0.378880
O O12 0.624266 0.248532 0.750000
#
# Coordination Sequence:
#
# PCOD9578221 Si02
#       6
#     6  12  12  12   6  12
#     4  12  24  44  64  90 132 170 214 282 334 392
#     4  12  25  39  62  93 123 167 226 277 334 390
#     4  12  24  42  62  89 123 173 225 284 342 393
#     4  12  25  43  69  97 130 172 216 273 339 398
#     4  10  26  40  56  80 118 170 222 278 346 398
#     4  12  25  42  65  97 132 172 220 276 334 399
#
# _framework density 19.211040000000001
#
# number of rings (size 3 to 8) (size 9 to 14) (size 15 to 20)
#    0.200    0.000    7.000    2.400    5.600    0.000 
#    0.000    0.000    0.000    0.000    0.000    0.000 
#    1.000    1.600    0.000    0.000    0.000    0.000 
#
# Total GULP energy -334494.084170 kJ/mol
# GULP energy per Si atom -5574.901403 kJ/mol
# Density = 1.916731 g / cm^3
# Si number density = 19.211040 Si / 1000 Ang^3
#
#
#
# Elastic Constant Matrix: (Units=GPa)
#
#
# Indices 1 2 3 4 5 6 
#
# 1 59.2983 15.8271 24.8288 0.0001 -6.4808 0.0000
# 2 15.8271 59.2983 24.8288 -0.0001 6.4808 0.0000
# 3 24.8288 24.8288 163.0894 0.0000 0.0000 0.0000
# 4 0.0001 -0.0001 0.0000 31.9516 0.0000 6.4808
# 5 -6.4808 6.4808 0.0000 0.0000 31.9516 0.0001
# 6 0.0000 0.0000 0.0000 6.4808 0.0001 21.7356
#
#
#
# Elastic Compliance Matrix: (Units=1/GPa)
#
#
# Indices 1 2 3 4 5 6 
#
# 1 0.019642 -0.004842 -0.002253 0.000000 0.004966 0.000000
# 2 -0.004842 0.019642 -0.002253 0.000000 -0.004966 0.000000
# 3 -0.002253 -0.002253 0.006818 0.000000 0.000000 0.000000
# 4 0.000000 0.000000 0.000000 0.033312 0.000000 -0.009932
# 5 0.004966 -0.004966 0.000000 0.000000 0.033312 0.000000
# 6 0.000000 0.000000 0.000000 -0.009932 0.000000 0.048969
#
#
# Mechanical properties :
#
#
# Convention : Reuss Voigt Hill
#
# Bulk Modulus (GPa) = 36.48883 45.85062 41.16972
# Shear Modulus (GPa) = 26.38137 31.54118 28.96127
#
# Velocity S-wave (km/s) = 3.70975 4.05634 3.88691
# Velocity P-wave (km/s) = 6.11429 6.77179 6.45142
#
# Compressibility (1/GPa) = 0.02740565
#
# Stress axis : x y z
#
# Youngs Moduli (GPa) = 50.91009 50.91009 146.67766
#
# Poissons Ratio (x) = 0.24651 0.33050
# Poissons Ratio (y) = 0.24651 0.33050
# Poissons Ratio (z) = 0.11471 0.11471
#
# Static dielectric constant tensor:
#      x y z
#    x 1.784890 0.000000 0.000000 
#    y 0.000000 1.784890 0.000000 
#    z 0.000000 0.000000 1.685860 
# 
# From -- ./inp_files/1110.got.cif
#   From: 2010.05.17/outbox.cif.g08.bks.cpg/sg163_1_cif.got.tgz:1110.got - 2010.05.20 10:56:03.
