data_PCOD9578823
_publ_section_title
;
Structure prediction by ZEFSAII (Michael W. Deem and Ramdas Pophale) SiO2 
 PCOD9578823
Probable space group: P -3 C 1
;
_chemical_formula_sum "Si O2"
_cell_formula_units_Z 36
_cell_length_a 21.026650
_cell_length_b 21.026650
_cell_length_c 5.374475
_cell_angle_alpha 90.000000
_cell_angle_beta 90.000000
_cell_angle_gamma 120.000000
_cell_volume 2057.817471
_symmetry_space_group_name_H-M "P -3 C 1"
_symmetry_group_IT_number 165
_symmetry_cell_setting 'hexagonal'
loop_
_space_group_symop_operation_xyz
x,y,z
-y,x-y,z
-x+y,-x,z
x-y,-y,1/2-z
-x,-x+y,1/2-z
y,x,1/2-z
-x,-y,-z
y,-x+y,-z
x-y,x,-z
-x+y,y,1/2+z
x,x-y,1/2+z
-y,-x,1/2+z
loop_
_atom_site_type_symbol
_atom_site_label
_atom_site_fract_x
_atom_site_fract_y
_atom_site_fract_z
Si Si1 0.409181 0.238484 1.000000
Si Si2 0.362085 0.568687 0.500000
Si Si3 0.047065 0.603978 0.500000
O O1 0.383237 0.191619 0.750000
O O2 0.499017 0.280282 1.000000
O O3 0.395276 0.306907 1.000000
O O4 0.384068 0.615932 0.250000
O O5 0.408485 0.525295 0.500000
O O6 0.000000 0.573964 0.750000
O O7 0.000000 0.573964 0.250000
#
# Coordination Sequence:
#
# PCOD9578823 Si02
#       3
#    12  12  12
#     4  10  20  34  49  62  88 119 142 170 224 274
#     4  10  20  31  48  68  89 111 141 180 225 276
#     4  10  20  31  48  72  90 108 141 180 225 269
#
# _framework density 17.494264999999999
#
# number of rings (size 3 to 8) (size 9 to 14) (size 15 to 20)
#    2.000    0.000    0.000    6.000    0.000    4.000 
#    0.000    0.000    0.000   13.333    0.000    0.000 
#    0.000    0.000    0.000    0.000    0.000    0.000 
#
# Total GULP energy -200739.849053 kJ/mol
# GULP energy per Si atom -5576.106918 kJ/mol
# Density = 1.745445 g / cm^3
# Si number density = 17.494265 Si / 1000 Ang^3
#
#
#
# Elastic Constant Matrix: (Units=GPa)
#
#
# Indices 1 2 3 4 5 6 
#
# 1 56.4233 8.1111 33.3075 0.0000 0.0000 0.0000
# 2 8.1111 56.4233 33.3075 0.0000 0.0000 0.0000
# 3 33.3075 33.3075 188.0149 0.0000 0.0000 0.0000
# 4 0.0000 0.0000 0.0000 5.4715 0.0000 0.0000
# 5 0.0000 0.0000 0.0000 0.0000 5.4715 0.0000
# 6 0.0000 0.0000 0.0000 0.0000 0.0000 24.1561
#
#
#
# Elastic Compliance Matrix: (Units=1/GPa)
#
#
# Indices 1 2 3 4 5 6 
#
# 1 0.019831 -0.000868 -0.003359 0.000000 0.000000 0.000000
# 2 -0.000868 0.019831 -0.003359 0.000000 0.000000 0.000000
# 3 -0.003359 -0.003359 0.006509 0.000000 0.000000 0.000000
# 4 0.000000 0.000000 0.000000 0.182765 0.000000 0.000000
# 5 0.000000 0.000000 0.000000 0.000000 0.182765 0.000000
# 6 0.000000 0.000000 0.000000 0.000000 0.000000 0.041397
#
#
# Mechanical properties :
#
#
# Convention : Reuss Voigt Hill
#
# Bulk Modulus (GPa) = 32.26018 50.03484 41.14751
# Shear Modulus (GPa) = 10.44703 22.09552 16.27128
#
# Velocity S-wave (km/s) = 2.44636 3.55775 3.05305
# Velocity P-wave (km/s) = 5.14393 6.74830 5.99998
#
# Compressibility (1/GPa) = 0.03099796
#
# Stress axis : x y z
#
# Youngs Moduli (GPa) = 50.42609 50.42609 153.63365
#
# Poissons Ratio (x) = 0.04375 0.51612
# Poissons Ratio (y) = 0.04375 0.51612
# Poissons Ratio (z) = 0.16940 0.16940
#
# Static dielectric constant tensor:
#      x y z
#    x 1.612440 0.000000 0.000000 
#    y 0.000000 1.612440 0.000000 
#    z 0.000000 0.000000 1.596840 
# 
# From -- ./inp_files/14.got.cif
#   From: 2010.05.17/outbox.cif.g08.bks.cpg/sg165_1_cif.got.tgz:14.got - 2010.05.20 11:02:39.
