data_PCOD9578435
_publ_section_title
;
Structure prediction by ZEFSAII (Michael W. Deem and Ramdas Pophale) SiO2 
 PCOD9578435
Probable space group: P -3 M 1
;
_chemical_formula_sum "Si O2"
_cell_formula_units_Z 96
_cell_length_a 17.469349
_cell_length_b 17.469349
_cell_length_c 23.474938
_cell_angle_alpha 90.000000
_cell_angle_beta 90.000000
_cell_angle_gamma 120.000000
_cell_volume 6204.239123
_symmetry_space_group_name_H-M "P -3 M 1"
_symmetry_group_IT_number 164
_symmetry_cell_setting 'hexagonal'
loop_
_space_group_symop_operation_xyz
x,y,z
-y,x-y,z
-x+y,-x,z
x-y,-y,-z
-x,-x+y,-z
y,x,-z
-x,-y,-z
y,-x+y,-z
x-y,x,-z
-x+y,y,z
x,x-y,z
-y,-x,z
loop_
_atom_site_type_symbol
_atom_site_label
_atom_site_fract_x
_atom_site_fract_y
_atom_site_fract_z
Si Si1 0.960987 0.571043 0.239804
Si Si2 0.845887 0.333281 0.019124
Si Si3 0.156527 0.668095 0.198069
Si Si4 0.727245 0.630480 0.478523
Si Si5 0.632365 0.903828 0.087769
Si Si6 0.332149 0.843917 0.411111
Si Si7 0.903914 0.273824 0.128668
Si Si8 0.610245 0.038914 0.368138
O O1 0.944139 0.472070 0.230348
O O2 0.916159 0.597800 0.190315
O O3 0.933543 0.577214 0.303961
O O4 0.067135 0.634331 0.234032
O O5 0.856982 0.428491 0.010315
O O6 0.744171 0.255830 0.011300
O O7 0.874749 0.322628 0.082222
O O8 0.900521 0.312362 0.972656
O O9 0.178258 0.589129 0.197123
O O10 0.240822 0.759179 0.217571
O O11 0.130434 0.684767 0.134981
O O12 0.704542 0.704542 0.500000
O O13 0.829820 0.659639 0.477226
O O14 0.681612 0.551572 0.524960
O O15 0.681950 0.596578 0.417327
O O16 0.663934 0.831967 0.086499
O O17 0.706323 0.000522 0.107085
O O18 0.411136 0.822272 0.409844
O O19 0.240122 0.759878 0.392694
O O20 0.364232 0.933139 0.375147
O O21 0.827807 0.172194 0.129095
O O22 0.527181 0.054362 0.377375
#
# Coordination Sequence:
#
# PCOD9578435 Si02
#       8
#    12  12  12  12  12  12  12  12
#     4   9  18  31  44  60  86 119 152 185 218 251
#     4  10  19  30  46  69  96 123 149 178 214 258
#     4   9  16  26  41  62  89 120 151 180 212 254
#     4   9  17  29  46  67  89 113 143 180 222 266
#     4   9  18  31  46  65  89 115 143 182 232 278
#     4   9  16  26  42  66  95 123 148 175 209 250
#     4  10  20  32  47  66  86 113 151 191 229 269
#     4   9  17  29  44  62  87 119 152 183 213 248
#
# _framework density 15.473291
#
# number of rings (size 3 to 8) (size 9 to 14) (size 15 to 20)
#    0.000    2.750    0.000    1.875    0.000    4.500 
#    0.000    1.250    0.000    2.375    0.000    0.000 
#    0.000    3.000    0.000    0.750    0.000    0.000 
#
# Total GULP energy -535004.892196 kJ/mol
# GULP energy per Si atom -5572.967627 kJ/mol
# Density = 1.543807 g / cm^3
# Si number density = 15.473291 Si / 1000 Ang^3
#
#
#
# Elastic Constant Matrix: (Units=GPa)
#
#
# Indices 1 2 3 4 5 6 
#
# 1 67.7370 39.3857 33.0471 -1.2898 0.0000 0.0000
# 2 39.3857 67.7370 33.0471 1.2898 0.0000 0.0000
# 3 33.0471 33.0471 100.3982 0.0000 0.0000 0.0000
# 4 -1.2898 1.2898 0.0000 11.8615 0.0000 0.0000
# 5 0.0000 0.0000 0.0000 0.0000 11.8615 -1.2898
# 6 0.0000 0.0000 0.0000 0.0000 -1.2898 14.1756
#
#
#
# Elastic Compliance Matrix: (Units=1/GPa)
#
#
# Indices 1 2 3 4 5 6 
#
# 1 0.023669 -0.011955 -0.003856 0.003874 0.000000 0.000000
# 2 -0.011955 0.023669 -0.003856 -0.003874 0.000000 0.000000
# 3 -0.003856 -0.003856 0.012499 0.000000 0.000000 0.000000
# 4 0.003874 -0.003874 0.000000 0.085149 0.000000 0.000000
# 5 0.000000 0.000000 0.000000 0.000000 0.085149 0.007748
# 6 0.000000 0.000000 0.000000 0.000000 0.007748 0.071249
#
#
# Mechanical properties :
#
#
# Convention : Reuss Voigt Hill
#
# Bulk Modulus (GPa) = 48.77182 49.64801 49.20992
# Shear Modulus (GPa) = 14.38635 16.27253 15.32944
#
# Velocity S-wave (km/s) = 3.05249 3.24644 3.15096
# Velocity P-wave (km/s) = 6.63416 6.79768 6.71642
#
# Compressibility (1/GPa) = 0.02050364
#
# Stress axis : x y z
#
# Youngs Moduli (GPa) = 42.24901 42.24901 80.00827
#
# Poissons Ratio (x) = 0.50509 0.30850
# Poissons Ratio (y) = 0.50509 0.30850
# Poissons Ratio (z) = 0.16290 0.16290
#
# Static dielectric constant tensor:
#      x y z
#    x 1.500630 0.000000 0.000000 
#    y 0.000000 1.500630 0.000000 
#    z 0.000000 0.000000 1.529130 
# 
# From -- ./inp_files/4720.got.cif
#   From: 2010.05.17/outbox.cif.g08.bks.cpg/sg164_3_cif.got.tgz:4720.got - 2010.05.20 10:58:56.
