data_PCOD9578313
_publ_section_title
;
Structure prediction by ZEFSAII (Michael W. Deem and Ramdas Pophale) SiO2 
 PCOD9578313
Probable space group: P -3 M 1
;
_chemical_formula_sum "Si O2"
_cell_formula_units_Z 48
_cell_length_a 27.058563
_cell_length_b 27.058563
_cell_length_c 5.279577
_cell_angle_alpha 90.000000
_cell_angle_beta 90.000000
_cell_angle_gamma 120.000000
_cell_volume 3347.643615
_symmetry_space_group_name_H-M "P -3 M 1"
_symmetry_group_IT_number 164
_symmetry_cell_setting 'hexagonal'
loop_
_space_group_symop_operation_xyz
x,y,z
-y,x-y,z
-x+y,-x,z
x-y,-y,-z
-x,-x+y,-z
y,x,-z
-x,-y,-z
y,-x+y,-z
x-y,x,-z
-x+y,y,z
x,x-y,z
-y,-x,z
loop_
_atom_site_type_symbol
_atom_site_label
_atom_site_fract_x
_atom_site_fract_y
_atom_site_fract_z
Si Si1 0.651521 0.069205 0.000023
Si Si2 0.820097 0.755331 0.498508
Si Si3 0.408529 0.930650 0.499979
Si Si4 0.321207 0.102891 0.998562
O O1 0.629543 0.086312 0.751044
O O2 0.718789 0.093784 0.999545
O O3 0.629658 0.086317 0.249342
O O4 0.621130 0.000000 0.000000
O O5 0.806277 0.806277 0.500000
O O6 0.886526 0.773051 0.498715
O O7 0.792031 0.716605 0.747282
O O8 0.792195 0.717067 0.248438
O O9 0.455487 0.910974 0.500274
O O10 0.444661 0.000000 0.500000
O O11 0.338096 0.169048 0.999171
#
# Coordination Sequence:
#
# PCOD9578313 Si02
#       4
#    12  12  12  12
#     4  10  17  26  42  59  80 112 143 169 199 240
#     4  10  19  31  46  63  85 111 143 183 223 267
#     4   9  17  27  39  58  82 108 138 168 195 226
#     4  10  20  31  44  64  88 114 144 179 216 255
#
# _framework density 14.338444000000001
#
# number of rings (size 3 to 8) (size 9 to 14) (size 15 to 20)
#    0.000    2.250    0.000    4.500    0.000    5.000 
#    0.000    0.000    0.000    0.250    0.000    0.000 
#    0.000    6.000    0.000   15.000    0.000    1.000 
#
# Total GULP energy -267695.816963 kJ/mol
# GULP energy per Si atom -5576.996187 kJ/mol
# Density = 1.430581 g / cm^3
# Si number density = 14.338444 Si / 1000 Ang^3
#
#
#
# Elastic Constant Matrix: (Units=GPa)
#
#
# Indices 1 2 3 4 5 6 
#
# 1 101.1530 49.0829 51.4991 0.3996 0.0000 0.0000
# 2 49.0829 101.1530 51.4991 -0.3996 0.0000 0.0000
# 3 51.4991 51.4991 144.6920 0.0000 0.0000 0.0000
# 4 0.3996 -0.3996 0.0000 -10.2328 0.0000 0.0000
# 5 0.0000 0.0000 0.0000 0.0000 -10.2328 0.3996
# 6 0.0000 0.0000 0.0000 0.0000 0.3996 26.0351
#
#
#
# Elastic Compliance Matrix: (Units=1/GPa)
#
#
# Indices 1 2 3 4 5 6 
#
# 1 0.013999 -0.005194 -0.003134 0.000749 0.000000 0.000000
# 2 -0.005194 0.013999 -0.003134 -0.000749 0.000000 0.000000
# 3 -0.003134 -0.003134 0.009142 0.000000 0.000000 0.000000
# 4 0.000749 -0.000749 0.000000 -0.097667 0.000000 0.000000
# 5 0.000000 0.000000 0.000000 0.000000 -0.097667 0.001499
# 6 0.000000 0.000000 0.000000 0.000000 0.001499 0.038387
#
#
# Mechanical properties :
#
#
# Convention : Reuss Voigt Hill
#
# Bulk Modulus (GPa) = 70.34233 72.35115 71.34674
# Shear Modulus (GPa) = -54.26280 14.10836 -20.07722
#
# Velocity S-wave (km/s) = -6.15844 3.14021 -3.74603
# Velocity P-wave (km/s) = 1.18470 7.98229 5.58182
#
# Compressibility (1/GPa) = 0.01421619
#
# Stress axis : x y z
#
# Youngs Moduli (GPa) = 71.43364 71.43364 109.38532
#
# Poissons Ratio (x) = 0.37105 0.34279
# Poissons Ratio (y) = 0.37105 0.34279
# Poissons Ratio (z) = 0.22386 0.22386
#
# Static dielectric constant tensor:
#      x y z
#    x 1.449550 0.000000 0.000000 
#    y 0.000000 1.449550 0.000000 
#    z 0.000000 0.000000 1.485920 
# 
# From -- ./inp_files/479.got.cif
#   From: 2010.05.17/outbox.cif.g08.bks.cpg/sg164_1_cif.got.tgz:479.got - 2010.05.20 10:58:56.
