data_PCOD9578173
_publ_section_title
;
Structure prediction by ZEFSAII (Michael W. Deem and Ramdas Pophale) SiO2 
 PCOD9578173
Probable space group: P -3 1 C
;
_chemical_formula_sum "Si O2"
_cell_formula_units_Z 54
_cell_length_a 16.881161
_cell_length_b 16.881161
_cell_length_c 8.675092
_cell_angle_alpha 90.000000
_cell_angle_beta 90.000000
_cell_angle_gamma 120.000000
_cell_volume 2140.963901
_symmetry_space_group_name_H-M "P -3 1 C"
_symmetry_group_IT_number 163
_symmetry_cell_setting 'hexagonal'
loop_
_space_group_symop_operation_xyz
x,y,z
-y,x-y,z
-x+y,-x,z
-y,-x,1/2-z
-x+y,y,1/2-z
x,x-y,1/2-z
-x,-y,-z
y,-x+y,-z
x-y,x,-z
y,x,1/2+z
x-y,-y,1/2+z
-x,-x+y,1/2+z
loop_
_atom_site_type_symbol
_atom_site_label
_atom_site_fract_x
_atom_site_fract_y
_atom_site_fract_z
Si Si1 0.784190 0.392095 0.750000
Si Si2 0.481794 0.131355 0.997169
Si Si3 0.629741 0.855303 0.535940
Si Si4 0.643715 0.644366 0.225630
Si Si5 0.115746 0.195043 0.069833
O O1 0.716754 0.433508 0.750000
O O2 0.832700 0.412021 0.915412
O O3 0.420518 0.068238 0.856067
O O4 0.459049 0.212254 0.039945
O O5 0.451448 0.061097 0.137890
O O6 0.654748 0.920554 0.686302
O O7 0.703769 0.824694 0.493808
O O8 0.644422 0.927260 0.397990
O O9 0.096802 0.193603 0.250000
O O10 0.157542 0.133129 0.028188
#
# Coordination Sequence:
#
# PCOD9578173 Si02
#       5
#     6  12  12  12  12
#     4  10  24  44  72 100 128 182 220 272 364 444
#     4  11  22  41  66 101 138 177 232 283 348 428
#     4  11  21  38  64  95 135 175 231 286 346 405
#     4  10  22  37  65 103 134 181 225 293 349 392
#     4  12  24  37  53  79 123 179 239 295 349 408
#
# _framework density 25.222283999999998
#
# number of rings (size 3 to 8) (size 9 to 14) (size 15 to 20)
#    0.222    0.889    0.000    8.889    0.000    2.667 
#    0.000    0.000    0.000    9.333    0.000    0.000 
#    0.000    0.000    0.000    0.000    0.000    0.000 
#
# Total GULP energy -301499.216856 kJ/mol
# GULP energy per Si atom -5583.318831 kJ/mol
# Density = 2.516488 g / cm^3
# Si number density = 25.222284 Si / 1000 Ang^3
#
#
#
# Elastic Constant Matrix: (Units=GPa)
#
#
# Indices 1 2 3 4 5 6 
#
# 1 76.1508 31.9603 28.5562 -0.0001 9.6864 0.0000
# 2 31.9603 76.1508 28.5562 0.0001 -9.6864 0.0000
# 3 28.5562 28.5562 155.2775 0.0000 0.0000 0.0000
# 4 -0.0001 0.0001 0.0000 42.6049 0.0000 -9.6864
# 5 9.6864 -9.6864 0.0000 0.0000 42.6049 -0.0001
# 6 0.0000 0.0000 0.0000 -9.6864 -0.0001 22.0953
#
#
#
# Elastic Compliance Matrix: (Units=1/GPa)
#
#
# Indices 1 2 3 4 5 6 
#
# 1 0.017690 -0.007445 -0.001884 0.000000 -0.005714 0.000000
# 2 -0.007445 0.017690 -0.001884 0.000000 0.005714 0.000000
# 3 -0.001884 -0.001884 0.007133 0.000000 0.000000 0.000000
# 4 0.000000 0.000000 0.000000 0.026070 0.000000 0.011429
# 5 -0.005714 0.005714 0.000000 0.000000 0.026070 0.000000
# 6 0.000000 0.000000 0.000000 0.011429 0.000000 0.050269
#
#
# Mechanical properties :
#
#
# Convention : Reuss Voigt Hill
#
# Bulk Modulus (GPa) = 49.78401 53.96938 51.87669
# Shear Modulus (GPa) = 28.72859 36.02813 32.37836
#
# Velocity S-wave (km/s) = 3.37859 3.78355 3.58679
# Velocity P-wave (km/s) = 5.91615 6.36639 6.14540
#
# Compressibility (1/GPa) = 0.02008677
#
# Stress axis : x y z
#
# Youngs Moduli (GPa) = 56.52988 56.52988 140.19201
#
# Poissons Ratio (x) = 0.42085 0.26414
# Poissons Ratio (y) = 0.42085 0.26414
# Poissons Ratio (z) = 0.10651 0.10651
#
# Static dielectric constant tensor:
#      x y z
#    x 2.039530 0.000000 0.000000 
#    y 0.000000 2.039530 0.000000 
#    z 0.000000 0.000000 1.998200 
# 
# From -- ./inp_files/1075.got.cif
#   From: 2010.05.17/outbox.cif.g08.bks.cpg/sg163_1_cif.got.tgz:1075.got - 2010.05.20 10:56:03.
