data_PCOD9578234
_publ_section_title
;
Structure prediction by ZEFSAII (Michael W. Deem and Ramdas Pophale) SiO2 
 PCOD9578234
Probable space group: P -3 1 C
;
_chemical_formula_sum "Si O2"
_cell_formula_units_Z 74
_cell_length_a 14.997965
_cell_length_b 14.997965
_cell_length_c 18.855058
_cell_angle_alpha 90.000000
_cell_angle_beta 90.000000
_cell_angle_gamma 120.000000
_cell_volume 3673.019009
_symmetry_space_group_name_H-M "P -3 1 C"
_symmetry_group_IT_number 163
_symmetry_cell_setting 'hexagonal'
loop_
_space_group_symop_operation_xyz
x,y,z
-y,x-y,z
-x+y,-x,z
-y,-x,1/2-z
-x+y,y,1/2-z
x,x-y,1/2-z
-x,-y,-z
y,-x+y,-z
x-y,x,-z
y,x,1/2+z
x-y,-y,1/2+z
-x,-x+y,1/2+z
loop_
_atom_site_type_symbol
_atom_site_label
_atom_site_fract_x
_atom_site_fract_y
_atom_site_fract_z
Si Si1 0.639179 0.955393 0.368493
Si Si2 0.472512 0.582027 0.333348
Si Si3 0.002798 0.713309 0.642555
Si Si4 0.432939 0.238931 0.332370
Si Si5 0.333335 0.666667 0.837138
Si Si6 0.295710 0.147855 0.750000
Si Si7 0.333333 0.666667 0.335123
Si Si8 0.206596 0.203390 0.997465
O O1 0.520974 0.924268 0.378329
O O2 0.643628 0.879864 0.308787
O O3 0.692531 0.072268 0.340337
O O4 0.707909 0.961201 0.435841
O O5 0.446624 0.553377 0.250000
O O6 0.593918 0.634181 0.340488
O O7 0.432520 0.659459 0.355739
O O8 0.955855 0.757595 0.701860
O O9 0.965852 0.722945 0.565375
O O10 0.125626 0.769276 0.638654
O O11 0.442179 0.221090 0.250000
O O12 0.549446 0.292621 0.361257
O O13 0.333334 0.666667 0.750000
O O14 0.333334 0.666667 0.250000
O O15 0.190821 0.093786 0.022819
#
# Coordination Sequence:
#
# PCOD9578234 Si02
#       8
#    12  12  12  12   4   6   4  12
#     4  12  24  40  70  98 136 178 229 282 346 407
#     4  11  21  38  65 102 135 174 222 284 342 408
#     4  12  24  40  70  98 136 178 229 282 346 407
#     4  11  20  38  62  98 129 173 212 272 326 399
#     4   9  21  36  63  97 143 169 216 256 332 409
#     4  12  22  40  68 100 128 176 236 290 326 396
#     4   9  21  33  60  97 137 169 216 277 344 394
#     4  12  27  47  70  92 134 184 228 285 357 424
#
# _framework density 20.146915
#
# number of rings (size 3 to 8) (size 9 to 14) (size 15 to 20)
#    0.000    0.649    6.486    2.108    2.270    1.946 
#    0.000    0.000    0.000    1.946    0.000    0.000 
#    0.000    0.000    0.000    0.000    0.000    0.000 
#
# Total GULP energy -412983.235434 kJ/mol
# GULP energy per Si atom -5580.854533 kJ/mol
# Density = 2.010106 g / cm^3
# Si number density = 20.146915 Si / 1000 Ang^3
#
#
#
# Elastic Constant Matrix: (Units=GPa)
#
#
# Indices 1 2 3 4 5 6 
#
# 1 98.8191 43.9798 13.3856 -0.0001 -2.5079 0.0002
# 2 43.9798 98.8187 13.3854 0.0004 2.5082 0.0001
# 3 13.3856 13.3854 69.7332 0.0001 0.0000 0.0001
# 4 -0.0001 0.0004 0.0001 20.5164 -0.0002 2.5062
# 5 -2.5079 2.5082 0.0000 -0.0002 20.5151 0.0002
# 6 0.0002 0.0001 0.0001 2.5062 0.0002 27.4219
#
#
#
# Elastic Compliance Matrix: (Units=1/GPa)
#
#
# Indices 1 2 3 4 5 6 
#
# 1 0.012853 -0.005589 -0.001394 0.000000 0.002254 0.000000
# 2 -0.005589 0.012853 -0.001394 0.000000 -0.002255 0.000000
# 3 -0.001394 -0.001394 0.014876 0.000000 0.000000 0.000000
# 4 0.000000 0.000000 0.000000 0.049292 0.000001 -0.004505
# 5 0.002254 -0.002255 0.000000 0.000001 0.049296 0.000000
# 6 0.000000 0.000000 0.000000 -0.004505 0.000000 0.036879
#
#
# Mechanical properties :
#
#
# Convention : Reuss Voigt Hill
#
# Bulk Modulus (GPa) = 41.96982 45.43029 43.70006
# Shear Modulus (GPa) = 24.90726 26.79871 25.85299
#
# Velocity S-wave (km/s) = 3.51989 3.65110 3.58610
# Velocity P-wave (km/s) = 6.11528 6.35393 6.23575
#
# Compressibility (1/GPa) = 0.02382664
#
# Stress axis : x y z
#
# Youngs Moduli (GPa) = 77.80402 77.80365 67.22381
#
# Poissons Ratio (x) = 0.43481 0.09374
# Poissons Ratio (y) = 0.43481 0.09374
# Poissons Ratio (z) = 0.10849 0.10849
#
# Static dielectric constant tensor:
#      x y z
#    x 1.760960 0.000000 0.000000 
#    y 0.000000 1.760980 0.000000 
#    z 0.000000 0.000000 1.770280 
# 
# From -- ./inp_files/3657.got.cif
#   From: 2010.05.17/outbox.cif.g08.bks.cpg/sg163_2_cif.got.tgz:3657.got - 2010.05.20 10:56:03.
