data_PCOD9578585
_publ_section_title
;
Structure prediction by ZEFSAII (Michael W. Deem and Ramdas Pophale) SiO2 
 PCOD9578585
Probable space group: P -3 M 1
;
_chemical_formula_sum "Si O2"
_cell_formula_units_Z 66
_cell_length_a 12.787298
_cell_length_b 12.787298
_cell_length_c 29.166894
_cell_angle_alpha 90.000000
_cell_angle_beta 90.000000
_cell_angle_gamma 120.000000
_cell_volume 4130.269474
_symmetry_space_group_name_H-M "P -3 M 1"
_symmetry_group_IT_number 164
_symmetry_cell_setting 'hexagonal'
loop_
_space_group_symop_operation_xyz
x,y,z
-y,x-y,z
-x+y,-x,z
x-y,-y,-z
-x,-x+y,-z
y,x,-z
-x,-y,-z
y,-x+y,-z
x-y,x,-z
-x+y,y,z
x,x-y,z
-y,-x,z
loop_
_atom_site_type_symbol
_atom_site_label
_atom_site_fract_x
_atom_site_fract_y
_atom_site_fract_z
Si Si1 0.666391 0.084600 0.775178
Si Si2 0.666349 0.582299 0.312531
Si Si3 0.752957 0.752794 0.947778
Si Si4 0.333475 0.418320 0.862324
Si Si5 0.749604 0.749778 0.600436
Si Si6 0.000000 0.750953 0.500000
O O1 0.556671 0.113342 0.775159
O O2 0.794038 0.205963 0.774458
O O3 0.646893 0.002423 0.730700
O O4 0.649287 0.005812 0.820461
O O5 0.788219 0.576438 0.306378
O O6 0.551130 0.448871 0.315732
O O7 0.681233 0.657771 0.358598
O O8 0.783807 0.891903 0.945700
O O9 0.652813 0.681620 0.909553
O O10 0.872566 0.745131 0.939028
O O11 0.711244 0.711244 0.000000
O O12 0.211199 0.422397 0.854764
O O13 0.447749 0.552252 0.864414
O O14 0.873867 0.747733 0.606049
O O15 0.695264 0.698026 0.549731
O O16 0.775911 0.887956 0.601479
O O17 0.882273 0.764546 0.501743
#
# Coordination Sequence:
#
# PCOD9578585 Si02
#       6
#    12  12  12  12  12   6
#     4  10  20  34  52  72  93 117 147 186 231 277
#     4  10  20  33  49  68  92 124 159 192 225 267
#     4   9  17  30  49  72  97 126 161 202 247 291
#     4  10  20  33  50  71  97 129 162 195 229 271
#     4   9  16  27  45  69  95 121 151 191 239 286
#     4   8  13  22  39  64  92 120 150 186 232 284
#
# _framework density 15.979588
#
# number of rings (size 3 to 8) (size 9 to 14) (size 15 to 20)
#    0.000    2.545    0.000    2.636    0.000    2.545 
#    0.000    2.273    0.000    5.818    0.000    0.000 
#    0.000    0.000    0.000    0.000    0.000    0.000 
#
# Total GULP energy -367778.614251 kJ/mol
# GULP energy per Si atom -5572.403246 kJ/mol
# Density = 1.594322 g / cm^3
# Si number density = 15.979588 Si / 1000 Ang^3
#
#
#
# Elastic Constant Matrix: (Units=GPa)
#
#
# Indices 1 2 3 4 5 6 
#
# 1 95.3457 59.6240 79.4281 -1.4844 0.0000 0.0000
# 2 59.6240 95.3457 79.4281 1.4844 0.0000 0.0000
# 3 79.4281 79.4281 162.4895 0.0000 0.0000 0.0000
# 4 -1.4844 1.4844 0.0000 22.4773 0.0000 0.0000
# 5 0.0000 0.0000 0.0000 0.0000 22.4773 -1.4844
# 6 0.0000 0.0000 0.0000 0.0000 -1.4844 17.8608
#
#
#
# Elastic Compliance Matrix: (Units=1/GPa)
#
#
# Indices 1 2 3 4 5 6 
#
# 1 0.020541 -0.007608 -0.006322 0.001859 0.000000 0.000000
# 2 -0.007608 0.020541 -0.006322 -0.001859 0.000000 0.000000
# 3 -0.006322 -0.006322 0.012335 0.000000 0.000000 0.000000
# 4 0.001859 -0.001859 0.000000 0.044735 0.000000 0.000000
# 5 0.000000 0.000000 0.000000 0.000000 0.044735 0.003718
# 6 0.000000 0.000000 0.000000 0.000000 0.003718 0.056297
#
#
# Mechanical properties :
#
#
# Convention : Reuss Voigt Hill
#
# Bulk Modulus (GPa) = 77.43833 87.79348 82.61590
# Shear Modulus (GPa) = 20.49241 21.54315 21.01778
#
# Velocity S-wave (km/s) = 3.58496 3.67572 3.63063
# Velocity P-wave (km/s) = 8.10567 8.54838 8.32997
#
# Compressibility (1/GPa) = 0.01291350
#
# Stress axis : x y z
#
# Youngs Moduli (GPa) = 48.68273 48.68273 81.06954
#
# Poissons Ratio (x) = 0.37036 0.51254
# Poissons Ratio (y) = 0.37036 0.51254
# Poissons Ratio (z) = 0.30778 0.30778
#
# Static dielectric constant tensor:
#      x y z
#    x 1.501210 0.000000 0.000000 
#    y 0.000000 1.501210 0.000000 
#    z 0.000000 0.000000 1.553840 
# 
# From -- ./inp_files/5430.got.cif
#   From: 2010.05.17/outbox.cif.g08.bks.cpg/sg164_3_cif.got.tgz:5430.got - 2010.05.20 10:58:56.
