data_PCOD9578545
_publ_section_title
;
Structure prediction by ZEFSAII (Michael W. Deem and Ramdas Pophale) SiO2 
 PCOD9578545
Probable space group: P -3 M 1
;
_chemical_formula_sum "Si O2"
_cell_formula_units_Z 66
_cell_length_a 13.258144
_cell_length_b 13.258144
_cell_length_c 28.098999
_cell_angle_alpha 90.000000
_cell_angle_beta 90.000000
_cell_angle_gamma 120.000000
_cell_volume 4277.469721
_symmetry_space_group_name_H-M "P -3 M 1"
_symmetry_group_IT_number 164
_symmetry_cell_setting 'hexagonal'
loop_
_space_group_symop_operation_xyz
x,y,z
-y,x-y,z
-x+y,-x,z
x-y,-y,-z
-x,-x+y,-z
y,x,-z
-x,-y,-z
y,-x+y,-z
x-y,x,-z
-x+y,y,z
x,x-y,z
-y,-x,z
loop_
_atom_site_type_symbol
_atom_site_label
_atom_site_fract_x
_atom_site_fract_y
_atom_site_fract_z
Si Si1 0.759749 0.759772 0.770182
Si Si2 0.428464 0.333983 0.148716
Si Si3 0.430154 0.333882 0.308784
Si Si4 0.333908 0.431004 0.579290
Si Si5 0.904128 0.333076 0.039019
Si Si6 0.000000 0.760135 0.500000
O O1 0.877369 0.754738 0.771002
O O2 0.676579 0.697347 0.815396
O O3 0.679953 0.697528 0.724104
O O4 0.786171 0.893086 0.769988
O O5 0.456566 0.228283 0.152419
O O6 0.543947 0.456054 0.159881
O O7 0.394564 0.337163 0.093798
O O8 0.458332 0.229166 0.301468
O O9 0.543290 0.456711 0.296575
O O10 0.404375 0.335134 0.364774
O O11 0.230854 0.461707 0.573188
O O12 0.457607 0.542394 0.567118
O O13 0.301064 0.322009 0.545506
O O14 0.877514 0.438757 0.034259
O O15 0.788354 0.211647 0.031341
O O16 0.000000 0.354554 0.000000
O O17 0.885728 0.771455 0.505863
#
# Coordination Sequence:
#
# PCOD9578545 Si02
#       6
#    12  12  12  12  12   6
#     4  10  20  32  46  65  91 123 155 185 219 264
#     4   9  17  30  49  71  91 113 146 191 237 272
#     4   9  17  30  50  74  95 115 144 187 235 275
#     4   9  17  30  49  72  95 118 147 187 234 277
#     4   9  17  29  46  68  93 120 150 185 225 268
#     4  10  20  32  46  66  94 128 162 192 222 260
#
# _framework density 15.429683000000001
#
# number of rings (size 3 to 8) (size 9 to 14) (size 15 to 20)
#    0.000    2.727    0.000    1.818    0.000    4.364 
#    0.000    1.818    0.000    5.636    0.000    0.000 
#    0.000    0.000    0.000    0.000    0.000    0.000 
#
# Total GULP energy -367857.051241 kJ/mol
# GULP energy per Si atom -5573.591685 kJ/mol
# Density = 1.539456 g / cm^3
# Si number density = 15.429683 Si / 1000 Ang^3
#
#
#
# Elastic Constant Matrix: (Units=GPa)
#
#
# Indices 1 2 3 4 5 6 
#
# 1 112.1455 75.8430 78.0240 1.4639 0.0000 0.0000
# 2 75.8430 112.1455 78.0240 -1.4639 0.0000 0.0000
# 3 78.0240 78.0240 95.8153 0.0000 0.0000 0.0000
# 4 1.4639 -1.4639 0.0000 21.8524 0.0000 0.0000
# 5 0.0000 0.0000 0.0000 0.0000 21.8524 1.4639
# 6 0.0000 0.0000 0.0000 0.0000 1.4639 18.1512
#
#
#
# Elastic Compliance Matrix: (Units=1/GPa)
#
#
# Indices 1 2 3 4 5 6 
#
# 1 0.022056 -0.005640 -0.013368 -0.001855 0.000000 0.000000
# 2 -0.005640 0.022056 -0.013368 0.001855 0.000000 0.000000
# 3 -0.013368 -0.013368 0.032208 0.000000 0.000000 0.000000
# 4 -0.001855 0.001855 0.000000 0.046010 0.000000 0.000000
# 5 0.000000 0.000000 0.000000 0.000000 0.046010 -0.003711
# 6 0.000000 0.000000 0.000000 0.000000 -0.003711 0.055392
#
#
# Mechanical properties :
#
#
# Convention : Reuss Voigt Hill
#
# Bulk Modulus (GPa) = 86.43981 87.09868 86.76925
# Shear Modulus (GPa) = 17.10337 18.25222 17.67779
#
# Velocity S-wave (km/s) = 3.33298 3.44310 3.38849
# Velocity P-wave (km/s) = 8.42348 8.50752 8.46561
#
# Compressibility (1/GPa) = 0.01156874
#
# Stress axis : x y z
#
# Youngs Moduli (GPa) = 45.33911 45.33911 31.04804
#
# Poissons Ratio (x) = 0.25571 0.41505
# Poissons Ratio (y) = 0.25571 0.41505
# Poissons Ratio (z) = 0.60609 0.60609
#
# Static dielectric constant tensor:
#      x y z
#    x 1.485280 0.000000 0.000000 
#    y 0.000000 1.485280 0.000000 
#    z 0.000000 0.000000 1.525480 
# 
# From -- ./inp_files/5490.got.cif
#   From: 2010.05.17/outbox.cif.g08.bks.cpg/sg164_3_cif.got.tgz:5490.got - 2010.05.20 10:58:56.
