data_PCOD9578004
_publ_section_title
;
Structure prediction by ZEFSAII (Michael W. Deem and Ramdas Pophale) SiO2 
 PCOD9578004
Probable space group: P -3 1 C
;
_chemical_formula_sum "Si O2"
_cell_formula_units_Z 60
_cell_length_a 11.285988
_cell_length_b 11.285988
_cell_length_c 25.228463
_cell_angle_alpha 90.000000
_cell_angle_beta 90.000000
_cell_angle_gamma 120.000000
_cell_volume 2782.919172
_symmetry_space_group_name_H-M "P -3 1 C"
_symmetry_group_IT_number 163
_symmetry_cell_setting 'hexagonal'
loop_
_space_group_symop_operation_xyz
x,y,z
-y,x-y,z
-x+y,-x,z
-y,-x,1/2-z
-x+y,y,1/2-z
x,x-y,1/2-z
-x,-y,-z
y,-x+y,-z
x-y,x,-z
y,x,1/2+z
x-y,-y,1/2+z
-x,-x+y,1/2+z
loop_
_atom_site_type_symbol
_atom_site_label
_atom_site_fract_x
_atom_site_fract_y
_atom_site_fract_z
Si Si1 0.480017 0.477960 0.635126
Si Si2 0.042754 0.779977 0.474915
Si Si3 0.830053 0.660105 0.750000
Si Si4 0.835167 0.365951 0.471091
Si Si5 0.809796 0.655700 0.635518
Si Si6 0.502730 0.497271 0.750000
O O1 0.398530 0.500054 0.587707
O O2 0.644688 0.565222 0.632209
O O3 0.436583 0.318297 0.632869
O O4 0.450201 0.518755 0.693471
O O5 0.064416 0.650866 0.488417
O O6 0.100102 0.842455 0.417521
O O7 0.892454 0.754017 0.482314
O O8 0.858881 0.731431 0.692499
O O9 0.666389 0.564892 0.748389
O O10 0.776749 0.468591 0.479025
#
# Coordination Sequence:
#
# PCOD9578004 Si02
#       6
#    12  12   6  12  12   6
#     4  10  18  36  55  92 119 161 200 253 301 359
#     4  12  25  42  63  90 120 159 202 253 305 365
#     4   8  15  30  48  86 114 156 195 250 294 346
#     4  10  24  40  57  83 127 158 197 243 301 371
#     4  10  20  32  61  85 124 154 201 251 302 351
#     4   8  15  26  54  80 122 152 201 246 302 344
#
# _framework density 21.560095
#
# number of rings (size 3 to 8) (size 9 to 14) (size 15 to 20)
#    0.400    1.600    2.000    2.000    2.800    4.800 
#    0.000    1.000    0.000    1.200    0.000    0.000 
#    0.000    0.000    0.000    0.000    0.000    0.000 
#
# Total GULP energy -334072.967649 kJ/mol
# GULP energy per Si atom -5567.882794 kJ/mol
# Density = 2.151102 g / cm^3
# Si number density = 21.560095 Si / 1000 Ang^3
#
#
#
# Elastic Constant Matrix: (Units=GPa)
#
#
# Indices 1 2 3 4 5 6 
#
# 1 33.6331 24.8631 7.0631 0.0001 -0.7062 0.0000
# 2 24.8631 33.6331 7.0631 -0.0001 0.7062 0.0000
# 3 7.0631 7.0631 144.8140 0.0000 0.0000 0.0000
# 4 0.0001 -0.0001 0.0000 24.7770 0.0000 0.7062
# 5 -0.7062 0.7062 0.0000 0.0000 24.7770 0.0001
# 6 0.0000 0.0000 0.0000 0.7062 0.0001 4.3850
#
#
#
# Elastic Compliance Matrix: (Units=1/GPa)
#
#
# Indices 1 2 3 4 5 6 
#
# 1 0.065925 -0.048626 -0.000844 0.000000 0.003265 0.000000
# 2 -0.048626 0.065925 -0.000844 0.000000 -0.003265 0.000000
# 3 -0.000844 -0.000844 0.006988 0.000000 0.000000 0.000000
# 4 0.000000 0.000000 0.000000 0.040546 0.000000 -0.006530
# 5 0.003265 -0.003265 0.000000 0.000000 0.040546 -0.000001
# 6 0.000000 0.000000 0.000000 -0.006530 -0.000001 0.229104
#
#
# Mechanical properties :
#
#
# Convention : Reuss Voigt Hill
#
# Bulk Modulus (GPa) = 26.17077 32.22874 29.19976
# Shear Modulus (GPa) = 8.89048 22.32717 15.60883
#
# Velocity S-wave (km/s) = 2.03286 3.22153 2.69359
# Velocity P-wave (km/s) = 4.20416 5.36828 4.82148
#
# Compressibility (1/GPa) = 0.03821056
#
# Stress axis : x y z
#
# Youngs Moduli (GPa) = 15.16867 15.16867 143.10839
#
# Poissons Ratio (x) = 0.73760 0.12074
# Poissons Ratio (y) = 0.73760 0.12074
# Poissons Ratio (z) = 0.01280 0.01280
#
# Static dielectric constant tensor:
#      x y z
#    x 1.809680 0.000000 0.000000 
#    y 0.000000 1.809680 0.000000 
#    z 0.000000 0.000000 1.877600 
# 
# From -- ./inp_files/4119.got.cif
#   From: 2010.05.17/outbox.cif.g08.bks.cpg/sg163_3_cif.got.tgz:4119.got - 2010.05.20 10:56:03.
