data_PCOD9578678
_publ_section_title
;
Structure prediction by ZEFSAII (Michael W. Deem and Ramdas Pophale) SiO2 
 PCOD9578678
Probable space group: P -3 M 1
;
_chemical_formula_sum "Si O2"
_cell_formula_units_Z 78
_cell_length_a 22.944047
_cell_length_b 22.944047
_cell_length_c 10.065483
_cell_angle_alpha 90.000000
_cell_angle_beta 90.000000
_cell_angle_gamma 120.000000
_cell_volume 4588.865182
_symmetry_space_group_name_H-M "P -3 M 1"
_symmetry_group_IT_number 164
_symmetry_cell_setting 'hexagonal'
loop_
_space_group_symop_operation_xyz
x,y,z
-y,x-y,z
-x+y,-x,z
x-y,-y,-z
-x,-x+y,-z
y,x,-z
-x,-y,-z
y,-x+y,-z
x-y,x,-z
-x+y,y,z
x,x-y,z
-y,-x,z
loop_
_atom_site_type_symbol
_atom_site_label
_atom_site_fract_x
_atom_site_fract_y
_atom_site_fract_z
Si Si1 0.967518 0.415441 0.855551
Si Si2 0.738054 0.125463 0.512945
Si Si3 0.869530 0.604074 0.826998
Si Si4 0.794217 0.069948 0.037226
Si Si5 0.596388 0.059375 0.391581
Si Si6 0.000000 0.140128 0.500000
Si Si7 0.797642 0.061668 0.333610
O O1 0.954200 0.477100 0.831368
O O2 0.899039 0.344440 0.848703
O O3 0.022484 0.424847 0.744282
O O4 0.000000 0.424515 0.000000
O O5 0.799989 0.200012 0.483544
O O6 0.738451 0.115926 0.671289
O O7 0.668327 0.113313 0.450832
O O8 0.752808 0.071837 0.441325
O O9 0.790605 0.581210 0.847546
O O10 0.910223 0.665110 0.930640
O O11 0.869387 0.130614 0.037041
O O12 0.767857 0.058402 0.188322
O O13 0.788134 0.000000 0.000000
O O14 0.542093 0.084186 0.374352
O O15 0.565578 0.000000 0.500000
O O16 0.993491 0.181957 0.375649
O O17 0.067177 0.134353 0.492105
O O18 0.868869 0.131132 0.336769
#
# Coordination Sequence:
#
# PCOD9578678 Si02
#       7
#    12  12  12  12  12   6  12
#     4  10  21  36  54  80 112 144 180 221 266 318
#     4  10  21  35  53  79 109 140 175 220 268 316
#     4  10  21  35  53  79 107 139 175 215 266 317
#     4  10  22  36  51  73 101 135 173 215 267 320
#     4  10  20  34  55  80 107 144 180 217 266 318
#     4  10  21  36  56  78 103 134 176 226 274 324
#     4   9  21  36  50  73 101 133 172 213 261 315
#
# _framework density 16.997665999999999
#
# number of rings (size 3 to 8) (size 9 to 14) (size 15 to 20)
#    0.000    2.154    1.538    0.538    7.538    0.615 
#    0.000    0.000    0.000    0.769    0.000    0.000 
#    0.000    0.000    0.000    0.000    0.000    0.000 
#
# Total GULP energy -434553.201956 kJ/mol
# GULP energy per Si atom -5571.194897 kJ/mol
# Density = 1.695898 g / cm^3
# Si number density = 16.997666 Si / 1000 Ang^3
#
#
#
# Elastic Constant Matrix: (Units=GPa)
#
#
# Indices 1 2 3 4 5 6 
#
# 1 84.2123 57.1232 41.1519 5.1150 0.0000 0.0000
# 2 57.1232 84.2123 41.1519 -5.1150 0.0000 0.0000
# 3 41.1519 41.1519 103.1820 0.0000 0.0000 0.0000
# 4 5.1150 -5.1150 0.0000 19.5435 0.0000 0.0000
# 5 0.0000 0.0000 0.0000 0.0000 19.5435 5.1150
# 6 0.0000 0.0000 0.0000 0.0000 5.1150 13.5445
#
#
#
# Elastic Compliance Matrix: (Units=1/GPa)
#
#
# Indices 1 2 3 4 5 6 
#
# 1 0.025090 -0.015874 -0.003675 -0.010721 0.000000 0.000000
# 2 -0.015874 0.025090 -0.003675 0.010721 0.000000 0.000000
# 3 -0.003675 -0.003675 0.012623 0.000000 0.000000 0.000000
# 4 -0.010721 0.010721 0.000000 0.056780 0.000000 0.000000
# 5 0.000000 0.000000 0.000000 0.000000 0.056780 -0.021443
# 6 0.000000 0.000000 0.000000 0.000000 -0.021443 0.081928
#
#
# Mechanical properties :
#
#
# Convention : Reuss Voigt Hill
#
# Bulk Modulus (GPa) = 61.15136 61.16227 61.15682
# Shear Modulus (GPa) = 16.11898 19.33825 17.72862
#
# Velocity S-wave (km/s) = 3.08280 3.37664 3.23306
# Velocity P-wave (km/s) = 6.98040 7.15983 7.07068
#
# Compressibility (1/GPa) = 0.01635287
#
# Stress axis : x y z
#
# Youngs Moduli (GPa) = 39.85663 39.85663 79.21801
#
# Poissons Ratio (x) = 0.63269 0.29116
# Poissons Ratio (y) = 0.63269 0.29116
# Poissons Ratio (z) = 0.14649 0.14649
#
# Static dielectric constant tensor:
#      x y z
#    x 1.579880 0.000000 0.000000 
#    y 0.000000 1.579880 0.000000 
#    z 0.000000 0.000000 1.632450 
# 
# From -- ./inp_files/2026.got.cif
#   From: 2010.05.17/outbox.cif.g08.bks.cpg/sg164_2_cif.got.tgz:2026.got - 2010.05.20 10:58:56.
