data_PCOD9578178
_publ_section_title
;
Structure prediction by ZEFSAII (Michael W. Deem and Ramdas Pophale) SiO2 
 PCOD9578178
Probable space group: P -3 1 C
;
_chemical_formula_sum "Si O2"
_cell_formula_units_Z 84
_cell_length_a 18.258704
_cell_length_b 18.258704
_cell_length_c 14.635646
_cell_angle_alpha 90.000000
_cell_angle_beta 90.000000
_cell_angle_gamma 120.000000
_cell_volume 4225.542016
_symmetry_space_group_name_H-M "P -3 1 C"
_symmetry_group_IT_number 163
_symmetry_cell_setting 'hexagonal'
loop_
_space_group_symop_operation_xyz
x,y,z
-y,x-y,z
-x+y,-x,z
-y,-x,1/2-z
-x+y,y,1/2-z
x,x-y,1/2-z
-x,-y,-z
y,-x+y,-z
x-y,x,-z
y,x,1/2+z
x-y,-y,1/2+z
-x,-x+y,1/2+z
loop_
_atom_site_type_symbol
_atom_site_label
_atom_site_fract_x
_atom_site_fract_y
_atom_site_fract_z
Si Si1 0.689553 0.895444 0.175242
Si Si2 0.064722 0.359819 0.792338
Si Si3 0.043938 0.504553 0.858358
Si Si4 0.763349 0.229007 0.559143
Si Si5 0.808345 0.958743 0.001364
Si Si6 0.347291 0.210278 0.385088
Si Si7 0.864563 0.433058 0.956484
O O1 0.731927 0.865964 0.250000
O O2 0.604148 0.814691 0.138921
O O3 0.752004 0.939372 0.091433
O O4 0.674408 0.966885 0.218169
O O5 0.066341 0.429905 0.857841
O O6 0.105729 0.387801 0.692262
O O7 0.121433 0.326111 0.839733
O O8 0.053108 0.526554 0.750000
O O9 0.948544 0.471505 0.893154
O O10 0.103907 0.565354 0.938789
O O11 0.773566 0.184474 0.467842
O O12 0.664315 0.198238 0.569019
O O13 0.819240 0.330185 0.553363
O O14 0.835972 0.887864 0.997730
O O15 0.740800 0.940534 0.920773
#
# Coordination Sequence:
#
# PCOD9578178 Si02
#       7
#    12  12  12  12  12  12  12
#     4  11  24  40  63  93 124 164 216 265 319 381
#     4  11  20  42  64  91 125 155 219 260 316 383
#     4  11  24  42  65  95 126 167 216 270 325 389
#     4  11  23  42  63  93 128 167 211 262 327 391
#     4  11  22  40  60  90 127 168 211 259 324 384
#     4  10  22  38  68  91 122 168 208 272 319 377
#     4  11  24  42  65  93 131 169 215 265 330 393
#
# _framework density 19.879104999999999
#
# number of rings (size 3 to 8) (size 9 to 14) (size 15 to 20)
#    0.000    1.143    4.286    2.143    2.000    0.000 
#    2.571    0.000    0.000    1.714    0.000    0.000 
#    0.000    0.000    0.000    0.000    0.000    0.000 
#
# Total GULP energy -468784.886220 kJ/mol
# GULP energy per Si atom -5580.772455 kJ/mol
# Density = 1.983386 g / cm^3
# Si number density = 19.879105 Si / 1000 Ang^3
#
#
#
# Elastic Constant Matrix: (Units=GPa)
#
#
# Indices 1 2 3 4 5 6 
#
# 1 80.7644 26.2898 10.2890 0.0001 6.1247 0.0000
# 2 26.2898 80.7644 10.2890 -0.0001 -6.1247 0.0000
# 3 10.2890 10.2890 47.8066 0.0000 0.0000 0.0000
# 4 0.0001 -0.0001 0.0000 7.6167 0.0000 -6.1247
# 5 6.1247 -6.1247 0.0000 0.0000 7.6167 0.0001
# 6 0.0000 0.0000 0.0000 -6.1247 0.0001 27.2373
#
#
#
# Elastic Compliance Matrix: (Units=1/GPa)
#
#
# Indices 1 2 3 4 5 6 
#
# 1 0.016077 -0.006332 -0.002097 0.000000 -0.018020 0.000000
# 2 -0.006332 0.016077 -0.002097 0.000000 0.018020 0.000000
# 3 -0.002097 -0.002097 0.021820 0.000000 0.000000 0.000000
# 4 0.000000 0.000000 0.000000 0.160271 0.000000 0.036039
# 5 -0.018020 0.018020 0.000000 0.000000 0.160271 -0.000001
# 6 0.000000 0.000000 0.000000 0.036039 -0.000001 0.044818
#
#
# Mechanical properties :
#
#
# Convention : Reuss Voigt Hill
#
# Bulk Modulus (GPa) = 30.37658 33.67451 32.02555
# Shear Modulus (GPa) = 11.07762 19.32530 15.20146
#
# Velocity S-wave (km/s) = 2.36317 3.12130 2.76831
# Velocity P-wave (km/s) = 4.77074 5.47416 5.13451
#
# Compressibility (1/GPa) = 0.03292010
#
# Stress axis : x y z
#
# Youngs Moduli (GPa) = 62.20195 62.20195 45.82882
#
# Poissons Ratio (x) = 0.39389 0.09611
# Poissons Ratio (y) = 0.39389 0.09611
# Poissons Ratio (z) = 0.13045 0.13045
#
# Static dielectric constant tensor:
#      x y z
#    x 1.708220 0.000000 0.000000 
#    y 0.000000 1.708220 0.000000 
#    z 0.000000 0.000000 1.740150 
# 
# From -- ./inp_files/2668.got.cif
#   From: 2010.05.17/outbox.cif.g08.bks.cpg/sg163_2_cif.got.tgz:2668.got - 2010.05.20 10:56:03.
