data_PCOD9578904
_publ_section_title
;
Structure prediction by ZEFSAII (Michael W. Deem and Ramdas Pophale) SiO2 
 PCOD9578904
Probable space group: P -3 C 1
;
_chemical_formula_sum "Si O2"
_cell_formula_units_Z 84
_cell_length_a 17.754150
_cell_length_b 17.754150
_cell_length_c 15.329897
_cell_angle_alpha 90.000000
_cell_angle_beta 90.000000
_cell_angle_gamma 120.000000
_cell_volume 4184.751158
_symmetry_space_group_name_H-M "P -3 C 1"
_symmetry_group_IT_number 165
_symmetry_cell_setting 'hexagonal'
loop_
_space_group_symop_operation_xyz
x,y,z
-y,x-y,z
-x+y,-x,z
x-y,-y,1/2-z
-x,-x+y,1/2-z
y,x,1/2-z
-x,-y,-z
y,-x+y,-z
x-y,x,-z
-x+y,y,1/2+z
x,x-y,1/2+z
-y,-x,1/2+z
loop_
_atom_site_type_symbol
_atom_site_label
_atom_site_fract_x
_atom_site_fract_y
_atom_site_fract_z
Si Si1 0.996871 0.260578 0.344228
Si Si2 0.775651 0.860921 0.878242
Si Si3 0.128346 0.444114 0.412581
Si Si4 0.748925 0.848684 0.578763
Si Si5 0.415644 0.159040 0.702067
Si Si6 0.426184 0.117105 0.898952
Si Si7 0.489775 0.035067 0.653754
O O1 0.901039 0.190529 0.371107
O O2 0.000000 0.298845 0.250000
O O3 0.047427 0.206042 0.340476
O O4 0.051204 0.343156 0.405301
O O5 0.847994 0.831968 0.879913
O O6 0.687132 0.794418 0.825623
O O7 0.761536 0.873807 0.981376
O O8 0.199614 0.452456 0.342614
O O9 0.167809 0.462404 0.510180
O O10 0.082689 0.499585 0.390709
O O11 0.677399 0.747685 0.586275
O O12 0.436854 0.162505 0.805201
O O13 0.456583 0.103895 0.663108
O O14 0.459591 0.048339 0.893078
O O15 0.493669 0.000000 0.750000
#
# Coordination Sequence:
#
# PCOD9578904 Si02
#       7
#    12  12  12  12  12  12  12
#     4  11  24  38  59  91 122 164 216 258 314 369
#     4  11  21  38  59  86 122 163 208 257 311 367
#     4  11  22  42  63  95 132 166 209 271 325 376
#     4  12  20  38  62  84 125 165 206 260 306 374
#     4  10  22  39  62  95 121 166 210 258 320 378
#     4  11  21  37  65  93 124 165 217 256 313 389
#     4  10  22  40  64  95 130 166 214 263 322 392
#
# _framework density 20.072877999999999
#
# number of rings (size 3 to 8) (size 9 to 14) (size 15 to 20)
#    0.000    1.143    5.714    2.571    0.000    1.714 
#    1.714    3.571    0.000    0.000    0.000    0.000 
#    1.429    0.000    0.000    0.000    0.000    0.000 
#
# Total GULP energy -467989.765788 kJ/mol
# GULP energy per Si atom -5571.306736 kJ/mol
# Density = 2.002719 g / cm^3
# Si number density = 20.072878 Si / 1000 Ang^3
#
#
#
# Elastic Constant Matrix: (Units=GPa)
#
#
# Indices 1 2 3 4 5 6 
#
# 1 70.7606 16.1575 37.1016 -3.1971 0.0000 0.0000
# 2 16.1575 70.7606 37.1016 3.1971 0.0000 0.0000
# 3 37.1016 37.1016 129.9008 0.0000 0.0000 0.0000
# 4 -3.1971 3.1971 0.0000 19.4934 0.0000 0.0000
# 5 0.0000 0.0000 0.0000 0.0000 19.4934 -3.1971
# 6 0.0000 0.0000 0.0000 0.0000 -3.1971 27.3016
#
#
#
# Elastic Compliance Matrix: (Units=1/GPa)
#
#
# Indices 1 2 3 4 5 6 
#
# 1 0.016944 -0.001729 -0.004346 0.003063 0.000000 0.000000
# 2 -0.001729 0.016944 -0.004346 -0.003063 0.000000 0.000000
# 3 -0.004346 -0.004346 0.010181 0.000000 0.000000 0.000000
# 4 0.003063 -0.003063 0.000000 0.052304 0.000000 0.000000
# 5 0.000000 0.000000 0.000000 0.000000 0.052304 0.006125
# 6 0.000000 0.000000 0.000000 0.000000 0.006125 0.037345
#
#
# Mechanical properties :
#
#
# Convention : Reuss Voigt Hill
#
# Bulk Modulus (GPa) = 43.05146 50.23818 46.64482
# Shear Modulus (GPa) = 23.29871 25.32842 24.31357
#
# Velocity S-wave (km/s) = 3.41061 3.55607 3.48410
# Velocity P-wave (km/s) = 6.08308 6.47635 6.28279
#
# Compressibility (1/GPa) = 0.02322801
#
# Stress axis : x y z
#
# Youngs Moduli (GPa) = 59.01861 59.01861 98.22658
#
# Poissons Ratio (x) = 0.10203 0.42686
# Poissons Ratio (y) = 0.10203 0.42686
# Poissons Ratio (z) = 0.25647 0.25647
#
# Static dielectric constant tensor:
#      x y z
#    x 1.706990 0.000000 0.000000 
#    y 0.000000 1.706990 0.000000 
#    z 0.000000 0.000000 1.804140 
# 
# From -- ./inp_files/1873.got.cif
#   From: 2010.05.17/outbox.cif.g08.bks.cpg/sg165_1_cif.got.tgz:1873.got - 2010.05.20 11:02:39.
