data_PCOD9578734
_publ_section_title
;
Structure prediction by ZEFSAII (Michael W. Deem and Ramdas Pophale) SiO2 
 PCOD9578734
Probable space group: P -3 M 1
;
_chemical_formula_sum "Si O2"
_cell_formula_units_Z 54
_cell_length_a 20.872328
_cell_length_b 20.872328
_cell_length_c 7.552926
_cell_angle_alpha 90.000000
_cell_angle_beta 90.000000
_cell_angle_gamma 120.000000
_cell_volume 2849.624547
_symmetry_space_group_name_H-M "P -3 M 1"
_symmetry_group_IT_number 164
_symmetry_cell_setting 'hexagonal'
loop_
_space_group_symop_operation_xyz
x,y,z
-y,x-y,z
-x+y,-x,z
x-y,-y,-z
-x,-x+y,-z
y,x,-z
-x,-y,-z
y,-x+y,-z
x-y,x,-z
-x+y,y,z
x,x-y,z
-y,-x,z
loop_
_atom_site_type_symbol
_atom_site_label
_atom_site_fract_x
_atom_site_fract_y
_atom_site_fract_z
Si Si1 0.883507 0.260545 0.694484
Si Si2 0.730412 0.604114 0.266595
Si Si3 0.986889 0.219461 0.188174
Si Si4 0.001730 0.573590 0.284615
Si Si5 0.137154 0.137154 0.500000
O O1 0.799752 0.200249 0.751504
O O2 0.881710 0.264023 0.479805
O O3 0.938438 0.231270 0.750686
O O4 0.927928 0.345819 0.761623
O O5 0.786808 0.573616 0.225556
O O6 0.761448 0.683070 0.172016
O O7 0.642557 0.565532 0.227349
O O8 0.967828 0.164680 0.347837
O O9 0.000000 0.194175 0.000000
O O10 0.009986 0.504993 0.222771
O O11 0.000000 0.572044 0.500000
O O12 0.062731 0.125461 0.415967
#
# Coordination Sequence:
#
# PCOD9578734 Si02
#       5
#    12  12  12  12   6
#     4   9  16  29  49  72  97 128 166 207 253 305
#     4   9  16  29  49  72  97 128 166 207 253 305
#     4  11  21  34  54  77  98 123 159 209 262 301
#     4   8  14  25  43  68  97 129 165 204 250 302
#     4  12  25  40  52  66  93 128 164 198 238 296
#
# _framework density 18.949864999999999
#
# number of rings (size 3 to 8) (size 9 to 14) (size 15 to 20)
#    0.000    2.444    2.222    2.778    0.000    3.556 
#    0.000    0.000    0.000   12.889    0.000    6.222 
#    0.000    0.000    0.000    1.333    0.000    7.111 
#
# Total GULP energy -300761.045278 kJ/mol
# GULP energy per Si atom -5569.648987 kJ/mol
# Density = 1.890673 g / cm^3
# Si number density = 18.949865 Si / 1000 Ang^3
#
#
#
# Elastic Constant Matrix: (Units=GPa)
#
#
# Indices 1 2 3 4 5 6 
#
# 1 126.0629 55.7756 7.2585 -1.7224 0.0000 0.0000
# 2 55.7756 126.0629 7.2585 1.7224 0.0000 0.0000
# 3 7.2585 7.2585 51.1362 0.0000 0.0000 0.0000
# 4 -1.7224 1.7224 0.0000 -3.5074 0.0000 0.0000
# 5 0.0000 0.0000 0.0000 0.0000 -3.5074 -1.7224
# 6 0.0000 0.0000 0.0000 0.0000 -1.7224 35.1437
#
#
#
# Elastic Compliance Matrix: (Units=1/GPa)
#
#
# Indices 1 2 3 4 5 6 
#
# 1 0.009728 -0.004165 -0.000790 -0.006822 0.000000 0.000000
# 2 -0.004165 0.009728 -0.000790 0.006822 0.000000 0.000000
# 3 -0.000790 -0.000790 0.019780 0.000000 0.000000 0.000000
# 4 -0.006822 0.006822 0.000000 -0.278409 0.000000 0.000000
# 5 0.000000 0.000000 0.000000 0.000000 -0.278409 -0.013645
# 6 0.000000 0.000000 0.000000 0.000000 -0.013645 0.027786
#
#
# Mechanical properties :
#
#
# Convention : Reuss Voigt Hill
#
# Bulk Modulus (GPa) = 36.04075 49.31636 42.67855
# Shear Modulus (GPa) = -10.65961 21.15706 5.24873
#
# Velocity S-wave (km/s) = -2.37432 3.34500 1.66608
# Velocity P-wave (km/s) = 3.39762 6.40311 5.12560
#
# Compressibility (1/GPa) = 0.02774637
#
# Stress axis : x y z
#
# Youngs Moduli (GPa) = 102.79938 102.79938 50.55676
#
# Poissons Ratio (x) = 0.42819 0.03992
# Poissons Ratio (y) = 0.42819 0.03992
# Poissons Ratio (z) = 0.08117 0.08117
#
# Static dielectric constant tensor:
#      x y z
#    x 1.667840 0.000000 0.000000 
#    y 0.000000 1.667840 0.000000 
#    z 0.000000 0.000000 1.675040 
# 
# From -- ./inp_files/1542.got.cif
#   From: 2010.05.17/outbox.cif.g08.bks.cpg/sg164_1_cif.got.tgz:1542.got - 2010.05.20 10:58:56.
