data_PCOD9578179
_publ_section_title
;
Structure prediction by ZEFSAII (Michael W. Deem and Ramdas Pophale) SiO2 
 PCOD9578179
Probable space group: P -3 1 C
;
_chemical_formula_sum "Si O2"
_cell_formula_units_Z 42
_cell_length_a 11.263294
_cell_length_b 11.263294
_cell_length_c 16.830465
_cell_angle_alpha 90.000000
_cell_angle_beta 90.000000
_cell_angle_gamma 120.000000
_cell_volume 1849.088032
_symmetry_space_group_name_H-M "P -3 1 C"
_symmetry_group_IT_number 163
_symmetry_cell_setting 'hexagonal'
loop_
_space_group_symop_operation_xyz
x,y,z
-y,x-y,z
-x+y,-x,z
-y,-x,1/2-z
-x+y,y,1/2-z
x,x-y,1/2-z
-x,-y,-z
y,-x+y,-z
x-y,x,-z
y,x,1/2+z
x-y,-y,1/2+z
-x,-x+y,1/2+z
loop_
_atom_site_type_symbol
_atom_site_label
_atom_site_fract_x
_atom_site_fract_y
_atom_site_fract_z
Si Si1 0.930622 0.456948 0.156664
Si Si2 0.400413 0.198491 0.434069
Si Si3 0.090551 0.909450 0.250000
Si Si4 0.101604 0.748880 0.106241
O O1 0.899282 0.449641 0.250000
O O2 0.824463 0.483369 0.106127
O O3 0.917311 0.322772 0.115544
O O4 0.068711 0.601840 0.142101
O O5 0.413465 0.224829 0.527354
O O6 0.271926 0.046416 0.422592
O O7 0.139830 0.858043 0.175229
O O8 0.925983 0.851965 0.250000
#
# Coordination Sequence:
#
# PCOD9578179 Si02
#       4
#    12  12   6  12
#     4  10  22  38  68  93 130 173 228 284 333 409
#     4  10  23  42  65 102 130 175 228 290 346 411
#     4  10  26  42  66  98 142 188 230 278 350 430
#     4  10  25  39  69  95 141 173 232 283 354 410
#
# _framework density 22.713899999999999
#
# number of rings (size 3 to 8) (size 9 to 14) (size 15 to 20)
#    2.000    0.000    0.000    2.286    8.000    0.000 
#    0.000    1.429    0.000    0.000    0.000    0.000 
#    0.000    0.000    0.000    0.000    0.000    0.000 
#
# Total GULP energy -233890.791763 kJ/mol
# GULP energy per Si atom -5568.828375 kJ/mol
# Density = 2.266220 g / cm^3
# Si number density = 22.713900 Si / 1000 Ang^3
#
#
#
# Elastic Constant Matrix: (Units=GPa)
#
#
# Indices 1 2 3 4 5 6 
#
# 1 43.8987 17.5319 54.5698 0.0001 5.2673 0.0000
# 2 17.5319 43.8987 54.5698 -0.0001 -5.2673 0.0000
# 3 54.5698 54.5698 230.5545 0.0000 0.0000 0.0000
# 4 0.0001 -0.0001 0.0000 59.9384 0.0000 -5.2673
# 5 5.2673 -5.2673 0.0000 0.0000 59.9384 0.0001
# 6 0.0000 0.0000 0.0000 -5.2673 0.0001 13.1834
#
#
#
# Elastic Compliance Matrix: (Units=1/GPa)
#
#
# Indices 1 2 3 4 5 6 
#
# 1 0.033699 -0.005608 -0.006649 0.000000 -0.003454 0.000000
# 2 -0.005608 0.033699 -0.006649 0.000000 0.003454 0.000000
# 3 -0.006649 -0.006649 0.007485 0.000000 0.000000 0.000000
# 4 0.000000 0.000000 0.000000 0.017291 0.000000 0.006908
# 5 -0.003454 0.003454 0.000000 0.000000 0.017291 0.000000
# 6 0.000000 0.000000 0.000000 0.006908 0.000000 0.078613
#
#
# Mechanical properties :
#
#
# Convention : Reuss Voigt Hill
#
# Bulk Modulus (GPa) = 26.97486 63.52164 45.24825
# Shear Modulus (GPa) = 20.98678 39.39073 30.18876
#
# Velocity S-wave (km/s) = 3.04297 4.16891 3.64962
# Velocity P-wave (km/s) = 4.92422 7.15540 6.14197
#
# Compressibility (1/GPa) = 0.03707156
#
# Stress axis : x y z
#
# Youngs Moduli (GPa) = 29.67465 29.67465 133.60418
#
# Poissons Ratio (x) = 0.16641 0.88832
# Poissons Ratio (y) = 0.16641 0.88832
# Poissons Ratio (z) = 0.19730 0.19730
#
# Static dielectric constant tensor:
#      x y z
#    x 1.981000 0.000000 0.000000 
#    y 0.000000 1.981000 0.000000 
#    z 0.000000 0.000000 1.862260 
# 
# From -- ./inp_files/2890.got.cif
#   From: 2010.05.17/outbox.cif.g08.bks.cpg/sg163_2_cif.got.tgz:2890.got - 2010.05.20 10:56:03.
