data_PCOD9578209
_publ_section_title
;
Structure prediction by ZEFSAII (Michael W. Deem and Ramdas Pophale) SiO2 
 PCOD9578209
Probable space group: P -3 1 C
;
_chemical_formula_sum "Si O2"
_cell_formula_units_Z 72
_cell_length_a 15.131532
_cell_length_b 15.131532
_cell_length_c 15.479246
_cell_angle_alpha 90.000000
_cell_angle_beta 90.000000
_cell_angle_gamma 120.000000
_cell_volume 3069.348735
_symmetry_space_group_name_H-M "P -3 1 C"
_symmetry_group_IT_number 163
_symmetry_cell_setting 'hexagonal'
loop_
_space_group_symop_operation_xyz
x,y,z
-y,x-y,z
-x+y,-x,z
-y,-x,1/2-z
-x+y,y,1/2-z
x,x-y,1/2-z
-x,-y,-z
y,-x+y,-z
x-y,x,-z
y,x,1/2+z
x-y,-y,1/2+z
-x,-x+y,1/2+z
loop_
_atom_site_type_symbol
_atom_site_label
_atom_site_fract_x
_atom_site_fract_y
_atom_site_fract_z
Si Si1 0.799062 0.039260 0.796426
Si Si2 0.145712 0.228218 0.969839
Si Si3 0.858967 0.428861 0.932730
Si Si4 0.694699 0.102396 0.225978
Si Si5 0.913698 0.440324 0.110662
Si Si6 0.582024 0.802411 0.094603
O O1 0.908712 0.091289 0.750000
O O2 0.794747 0.134115 0.840329
O O3 0.776751 0.957463 0.872226
O O4 0.709023 0.985538 0.727576
O O5 0.181177 0.157244 0.021221
O O6 0.200237 0.341598 0.012766
O O7 0.858004 0.338750 0.876694
O O8 0.794839 0.483992 0.916245
O O9 0.973525 0.521093 0.924099
O O10 0.839765 0.386620 0.030556
O O11 0.794522 0.205479 0.250000
O O12 0.635806 0.102898 0.140654
O O13 0.623052 0.091868 0.306256
#
# Coordination Sequence:
#
# PCOD9578209 Si02
#       6
#    12  12  12  12  12  12
#     4  11  24  45  70 106 142 190 240 291 365 436
#     4  10  24  44  72 101 145 187 241 302 365 426
#     4  11  23  42  71 100 138 179 238 288 350 419
#     4  11  24  44  67  99 145 188 230 284 361 425
#     4  10  24  42  66 100 137 184 230 287 347 418
#     4  11  24  43  72 108 142 181 242 299 355 434
#
# _framework density 23.457744999999999
#
# number of rings (size 3 to 8) (size 9 to 14) (size 15 to 20)
#    0.000    1.333    1.667    2.500   11.667    2.667 
#    4.000    0.000    0.000    0.333    0.000    0.000 
#    0.000    0.000    0.000    0.000    0.000    0.000 
#
# Total GULP energy -402053.990054 kJ/mol
# GULP energy per Si atom -5584.083195 kJ/mol
# Density = 2.340435 g / cm^3
# Si number density = 23.457745 Si / 1000 Ang^3
#
#
#
# Elastic Constant Matrix: (Units=GPa)
#
#
# Indices 1 2 3 4 5 6 
#
# 1 80.7413 11.3459 4.4016 -0.0006 -7.0642 0.0000
# 2 11.3459 80.7413 4.4016 0.0006 7.0642 0.0000
# 3 4.4016 4.4016 40.8834 0.0000 0.0000 0.0000
# 4 -0.0006 0.0006 0.0000 21.3430 0.0000 7.0642
# 5 -7.0642 7.0642 0.0000 0.0000 21.3430 -0.0006
# 6 0.0000 0.0000 0.0000 7.0642 -0.0006 34.6977
#
#
#
# Elastic Compliance Matrix: (Units=1/GPa)
#
#
# Indices 1 2 3 4 5 6 
#
# 1 0.013212 -0.002240 -0.001181 0.000000 0.005114 0.000000
# 2 -0.002240 0.013212 -0.001181 0.000000 -0.005114 0.000000
# 3 -0.001181 -0.001181 0.024714 0.000000 0.000000 0.000000
# 4 0.000000 0.000000 0.000000 0.050239 0.000000 -0.010228
# 5 0.005114 -0.005114 0.000000 0.000000 0.050239 0.000001
# 6 0.000000 0.000000 0.000000 -0.010228 0.000001 0.030903
#
#
# Mechanical properties :
#
#
# Convention : Reuss Voigt Hill
#
# Bulk Modulus (GPa) = 23.84731 26.96267 25.40499
# Shear Modulus (GPa) = 24.30708 27.62452 25.96580
#
# Velocity S-wave (km/s) = 3.22251 3.43538 3.33065
# Velocity P-wave (km/s) = 4.90247 5.22062 5.06405
#
# Compressibility (1/GPa) = 0.04193345
#
# Stress axis : x y z
#
# Youngs Moduli (GPa) = 75.68995 75.68995 40.46260
#
# Poissons Ratio (x) = 0.16952 0.04780
# Poissons Ratio (y) = 0.16952 0.04780
# Poissons Ratio (z) = 0.08941 0.08941
#
# Static dielectric constant tensor:
#      x y z
#    x 1.928600 0.000000 0.000000 
#    y 0.000000 1.928600 0.000000 
#    z 0.000000 0.000000 1.596060 
# 
# From -- ./inp_files/3121.got.cif
#   From: 2010.05.17/outbox.cif.g08.bks.cpg/sg163_2_cif.got.tgz:3121.got - 2010.05.20 10:56:03.
