data_PCOD9578323
_publ_section_title
;
Structure prediction by ZEFSAII (Michael W. Deem and Ramdas Pophale) SiO2 
 PCOD9578323
Probable space group: P -3 M 1
;
_chemical_formula_sum "Si O2"
_cell_formula_units_Z 84
_cell_length_a 30.549812
_cell_length_b 30.549812
_cell_length_c 5.077665
_cell_angle_alpha 90.000000
_cell_angle_beta 90.000000
_cell_angle_gamma 120.000000
_cell_volume 4104.041659
_symmetry_space_group_name_H-M "P -3 M 1"
_symmetry_group_IT_number 164
_symmetry_cell_setting 'hexagonal'
loop_
_space_group_symop_operation_xyz
x,y,z
-y,x-y,z
-x+y,-x,z
x-y,-y,-z
-x,-x+y,-z
y,x,-z
-x,-y,-z
y,-x+y,-z
x-y,x,-z
-x+y,y,z
x,x-y,z
-y,-x,z
loop_
_atom_site_type_symbol
_atom_site_label
_atom_site_fract_x
_atom_site_fract_y
_atom_site_fract_z
Si Si1 0.203105 0.501621 0.459413
Si Si2 0.811054 0.622107 0.024628
Si Si3 0.457118 0.056686 0.912294
Si Si4 0.304990 0.246939 0.425883
Si Si5 0.283139 0.376158 0.076542
Si Si6 0.111962 0.507772 0.582938
Si Si7 0.332387 0.569434 0.962358
Si Si8 0.845724 0.691449 0.522309
O O1 0.237803 0.475606 0.491298
O O2 0.145058 0.480492 0.527608
O O3 0.210659 0.523683 0.166903
O O4 0.226673 0.547855 0.668353
O O5 0.846038 0.597288 0.971038
O O6 0.821939 0.643877 0.319375
O O7 0.834738 0.669475 0.818479
O O8 0.479013 0.066346 0.620107
O O9 0.412593 0.070109 0.938544
O O10 0.498398 0.094489 0.118010
O O11 0.436680 0.000000 0.000000
O O12 0.267986 0.267986 0.500000
O O13 0.331626 0.264607 0.141747
O O14 0.281573 0.186640 0.459841
O O15 0.350251 0.270161 0.638758
O O16 0.135417 0.567709 0.527730
O O17 0.296475 0.592949 0.012973
O O18 0.389889 0.610112 0.002398
#
# Coordination Sequence:
#
# PCOD9578323 Si02
#       8
#    12   6  12  12  12  12  12   6
#     4  10  22  40  61  86 114 143 177 221 273 338
#     4   8  16  32  52  76 112 140 170 210 269 322
#     4  12  26  43  64  91 116 148 194 235 274 324
#     4  10  17  29  51  74 106 149 180 221 276 320
#     4  10  20  36  55  84 112 141 178 225 268 328
#     4  12  26  45  66  88 116 150 186 231 284 332
#     4  10  18  30  52  81 113 143 173 210 255 316
#     4   8  16  26  42  70 104 138 183 222 254 320
#
# _framework density 20.467627
#
# number of rings (size 3 to 8) (size 9 to 14) (size 15 to 20)
#    0.000    1.714    0.000    5.286    0.000    1.714 
#    2.571    1.429    0.000    0.286    0.000    0.000 
#    0.000    0.000    0.000    0.214    0.000    0.000 
#
# Total GULP energy -469291.493378 kJ/mol
# GULP energy per Si atom -5586.803493 kJ/mol
# Density = 2.042104 g / cm^3
# Si number density = 20.467627 Si / 1000 Ang^3
#
#
#
# Elastic Constant Matrix: (Units=GPa)
#
#
# Indices 1 2 3 4 5 6 
#
# 1 55.1823 32.5005 0.2042 1.4241 0.0000 0.0000
# 2 32.5005 55.1823 0.2042 -1.4241 0.0000 0.0000
# 3 0.2042 0.2042 56.0306 0.0000 0.0000 0.0000
# 4 1.4241 -1.4241 0.0000 23.9137 0.0000 0.0000
# 5 0.0000 0.0000 0.0000 0.0000 23.9137 1.4241
# 6 0.0000 0.0000 0.0000 0.0000 1.4241 11.3409
#
#
#
# Elastic Compliance Matrix: (Units=1/GPa)
#
#
# Indices 1 2 3 4 5 6 
#
# 1 0.027913 -0.016508 -0.000042 -0.002645 0.000000 0.000000
# 2 -0.016508 0.027913 -0.000042 0.002645 0.000000 0.000000
# 3 -0.000042 -0.000042 0.017848 0.000000 0.000000 0.000000
# 4 -0.002645 0.002645 0.000000 0.042132 0.000000 0.000000
# 5 0.000000 0.000000 0.000000 0.000000 0.042132 -0.005291
# 6 0.000000 0.000000 0.000000 0.000000 -0.005291 0.088841
#
#
# Mechanical properties :
#
#
# Convention : Reuss Voigt Hill
#
# Bulk Modulus (GPa) = 24.69668 25.80147 25.24907
# Shear Modulus (GPa) = 17.03823 20.73271 18.88547
#
# Velocity S-wave (km/s) = 2.88835 3.18614 3.04089
# Velocity P-wave (km/s) = 4.81828 5.11553 4.96913
#
# Compressibility (1/GPa) = 0.04049127
#
# Stress axis : x y z
#
# Youngs Moduli (GPa) = 35.82593 35.82593 56.02967
#
# Poissons Ratio (x) = 0.59141 0.00233
# Poissons Ratio (y) = 0.59141 0.00233
# Poissons Ratio (z) = 0.00149 0.00149
#
# Static dielectric constant tensor:
#      x y z
#    x 1.793990 0.000000 0.000000 
#    y 0.000000 1.793990 0.000000 
#    z 0.000000 0.000000 1.729470 
# 
# From -- ./inp_files/870.got.cif
#   From: 2010.05.17/outbox.cif.g08.bks.cpg/sg164_1_cif.got.tgz:870.got - 2010.05.20 10:58:56.
