data_PCOD9578799
_publ_section_title
;
Structure prediction by ZEFSAII (Michael W. Deem and Ramdas Pophale) SiO2 
 PCOD9578799
Probable space group: P -3 C 1
;
_chemical_formula_sum "Si O2"
_cell_formula_units_Z 84
_cell_length_a 30.908091
_cell_length_b 30.908091
_cell_length_c 4.986431
_cell_angle_alpha 90.000000
_cell_angle_beta 90.000000
_cell_angle_gamma 120.000000
_cell_volume 4125.388086
_symmetry_space_group_name_H-M "P -3 C 1"
_symmetry_group_IT_number 165
_symmetry_cell_setting 'hexagonal'
loop_
_space_group_symop_operation_xyz
x,y,z
-y,x-y,z
-x+y,-x,z
x-y,-y,1/2-z
-x,-x+y,1/2-z
y,x,1/2-z
-x,-y,-z
y,-x+y,-z
x-y,x,-z
-x+y,y,1/2+z
x,x-y,1/2+z
-y,-x,1/2+z
loop_
_atom_site_type_symbol
_atom_site_label
_atom_site_fract_x
_atom_site_fract_y
_atom_site_fract_z
Si Si1 0.943010 0.647840 0.694671
Si Si2 0.627228 0.214251 0.053730
Si Si3 0.284559 0.861821 0.892137
Si Si4 0.502491 0.109739 0.631073
Si Si5 0.052312 0.601716 0.894886
Si Si6 0.342230 0.141424 0.912151
Si Si7 0.499680 0.776278 0.732632
O O1 0.946493 0.601307 0.559694
O O2 0.912588 0.669272 0.529158
O O3 0.000000 0.689373 0.750000
O O4 0.911374 0.622058 0.966913
O O5 0.633325 0.236301 0.348948
O O6 0.596612 0.154949 0.126915
O O7 0.672664 0.218302 0.882640
O O8 0.335691 0.869424 0.770489
O O9 0.240022 0.840827 0.680356
O O10 0.274023 0.824321 0.136988
O O11 0.483636 0.091944 0.331665
O O12 0.484722 0.064446 0.840807
O O13 0.000000 0.566859 0.750000
O O14 0.327114 0.158540 0.638353
O O15 0.496679 0.764306 0.043464
#
# Coordination Sequence:
#
# PCOD9578799 Si02
#       7
#    12  12  12  12  12  12  12
#     4  10  22  37  55  80 117 160 198 236 290 359
#     4  11  23  41  63  82 109 144 177 213 259 335
#     4  10  21  35  55  83 116 146 182 227 286 349
#     4  10  20  34  55  79 105 137 177 214 267 320
#     4  10  19  33  54  79 108 141 181 228 273 330
#     4  12  22  34  51  76 111 151 187 239 295 342
#     4  11  24  38  63  92 118 142 176 231 293 350
#
# _framework density 20.361719999999998
#
# number of rings (size 3 to 8) (size 9 to 14) (size 15 to 20)
#    0.000    1.429    2.857    3.000    2.000    2.857 
#    0.000    0.000    0.000   14.286    0.000    0.000 
#    0.000    0.000    0.000    0.000    0.000    0.000 
#
# Total GULP energy -468487.562511 kJ/mol
# GULP energy per Si atom -5577.232887 kJ/mol
# Density = 2.031538 g / cm^3
# Si number density = 20.361720 Si / 1000 Ang^3
#
#
#
# Elastic Constant Matrix: (Units=GPa)
#
#
# Indices 1 2 3 4 5 6 
#
# 1 39.1350 1.1530 13.0585 0.0613 0.0000 0.0000
# 2 1.1530 39.1350 13.0585 -0.0613 0.0000 0.0000
# 3 13.0585 13.0585 81.5657 0.0000 0.0000 0.0000
# 4 0.0613 -0.0613 0.0000 24.5547 0.0000 0.0000
# 5 0.0000 0.0000 0.0000 0.0000 24.5547 0.0613
# 6 0.0000 0.0000 0.0000 0.0000 0.0613 18.9910
#
#
#
# Elastic Compliance Matrix: (Units=1/GPa)
#
#
# Indices 1 2 3 4 5 6 
#
# 1 0.027012 0.000684 -0.004434 -0.000066 0.000000 0.000000
# 2 0.000684 0.027012 -0.004434 0.000066 0.000000 0.000000
# 3 -0.004434 -0.004434 0.013680 0.000000 0.000000 0.000000
# 4 -0.000066 0.000066 0.000000 0.040726 0.000000 0.000000
# 5 0.000000 0.000000 0.000000 0.000000 0.040726 -0.000131
# 6 0.000000 0.000000 0.000000 0.000000 -0.000131 0.052657
#
#
# Mechanical properties :
#
#
# Convention : Reuss Voigt Hill
#
# Bulk Modulus (GPa) = 19.47986 23.81954 21.64970
# Shear Modulus (GPa) = 21.25011 22.45780 21.85395
#
# Velocity S-wave (km/s) = 3.23403 3.32466 3.27966
# Velocity P-wave (km/s) = 4.85108 5.14407 4.99972
#
# Compressibility (1/GPa) = 0.05133507
#
# Stress axis : x y z
#
# Youngs Moduli (GPa) = 37.02045 37.02045 73.10041
#
# Poissons Ratio (x) = -0.02531 0.32413
# Poissons Ratio (y) = -0.02531 0.32413
# Poissons Ratio (z) = 0.16415 0.16415
#
# Static dielectric constant tensor:
#      x y z
#    x 1.809500 0.000000 0.000000 
#    y 0.000000 1.809500 0.000000 
#    z 0.000000 0.000000 1.844000 
# 
# From -- ./inp_files/251.got.cif
#   From: 2010.05.17/outbox.cif.g08.bks.cpg/sg165_1_cif.got.tgz:251.got - 2010.05.20 11:02:39.
