data_PCOD9578417
_publ_section_title
;
Structure prediction by ZEFSAII (Michael W. Deem and Ramdas Pophale) SiO2 
 PCOD9578417
Probable space group: P -3 M 1
;
_chemical_formula_sum "Si O2"
_cell_formula_units_Z 72
_cell_length_a 23.267646
_cell_length_b 23.267646
_cell_length_c 10.079710
_cell_angle_alpha 90.000000
_cell_angle_beta 90.000000
_cell_angle_gamma 120.000000
_cell_volume 4725.889518
_symmetry_space_group_name_H-M "P -3 M 1"
_symmetry_group_IT_number 164
_symmetry_cell_setting 'hexagonal'
loop_
_space_group_symop_operation_xyz
x,y,z
-y,x-y,z
-x+y,-x,z
x-y,-y,-z
-x,-x+y,-z
y,x,-z
-x,-y,-z
y,-x+y,-z
x-y,x,-z
-x+y,y,z
x,x-y,z
-y,-x,z
loop_
_atom_site_type_symbol
_atom_site_label
_atom_site_fract_x
_atom_site_fract_y
_atom_site_fract_z
Si Si1 0.246232 0.492463 0.026074
Si Si2 0.325334 0.401338 0.721164
Si Si3 0.122230 0.494957 0.971432
Si Si4 0.505043 0.627273 0.471433
Si Si5 0.404022 0.202011 0.224375
Si Si6 0.753768 0.246233 0.473923
Si Si7 0.325334 0.923995 0.221165
Si Si8 0.797988 0.595976 0.724374
O O1 0.201339 0.524853 0.993374
O O2 0.213981 0.427962 0.927872
O O3 0.234370 0.468740 0.178338
O O4 0.359509 0.461136 0.827976
O O5 0.349025 0.436042 0.578581
O O6 0.246473 0.371320 0.740776
O O7 0.350243 0.350243 0.750000
O O8 0.104085 0.552043 0.988949
O O9 0.087018 0.436043 0.078582
O O10 0.447958 0.552043 0.488949
O O11 0.475146 0.676485 0.493378
O O12 0.538863 0.640492 0.327976
O O13 0.468739 0.234370 0.321661
O O14 0.786018 0.213983 0.572128
O O15 0.246473 0.875151 0.240777
#
# Coordination Sequence:
#
# PCOD9578417 Si02
#       8
#     6  12  12  12   6   6  12   6
#     4   8  16  30  42  54  74 106 132 158 204 242
#     4  10  19  30  45  62  81 107 133 161 206 250
#     4  10  19  30  43  60  83 105 135 176 208 242
#     4  10  19  30  43  60  83 105 135 176 208 242
#     4   8  16  30  44  56  78 102 127 158 190 238
#     4   8  16  30  42  54  74 106 132 158 204 242
#     4  10  19  30  45  62  81 107 133 161 206 250
#     4   8  16  30  44  56  78 102 127 158 190 238
#
# _framework density 15.235227
#
# number of rings (size 3 to 8) (size 9 to 14) (size 15 to 20)
#    0.000    2.667    0.000    2.000    0.000    4.000 
#    1.000    0.000    0.000    0.000    0.000    0.000 
#    0.000    0.000    0.000    0.500    0.000    0.000 
#
# Total GULP energy -400900.560517 kJ/mol
# GULP energy per Si atom -5568.063341 kJ/mol
# Density = 1.520055 g / cm^3
# Si number density = 15.235227 Si / 1000 Ang^3
#
#
#
# Elastic Constant Matrix: (Units=GPa)
#
#
# Indices 1 2 3 4 5 6 
#
# 1 53.6635 38.9049 -7.4430 0.0738 0.0000 0.0000
# 2 38.9049 53.6635 -7.4430 -0.0738 0.0000 0.0000
# 3 -7.4430 -7.4430 61.2610 0.0000 0.0000 0.0000
# 4 0.0738 -0.0738 0.0000 13.6571 0.0000 0.0000
# 5 0.0000 0.0000 0.0000 0.0000 13.6571 0.0738
# 6 0.0000 0.0000 0.0000 0.0000 0.0738 7.3793
#
#
#
# Elastic Compliance Matrix: (Units=1/GPa)
#
#
# Indices 1 2 3 4 5 6 
#
# 1 0.039390 -0.028371 0.001339 -0.000366 0.000000 0.000000
# 2 -0.028371 0.039390 0.001339 0.000366 0.000000 0.000000
# 3 0.001339 0.001339 0.016649 0.000000 0.000000 0.000000
# 4 -0.000366 0.000366 0.000000 0.073226 0.000000 0.000000
# 5 0.000000 0.000000 0.000000 0.000000 0.073226 -0.000733
# 6 0.000000 0.000000 0.000000 0.000000 -0.000733 0.135522
#
#
# Mechanical properties :
#
#
# Convention : Reuss Voigt Hill
#
# Bulk Modulus (GPa) = 22.70678 24.06953 23.38815
# Shear Modulus (GPa) = 11.27472 16.57661 13.92566
#
# Velocity S-wave (km/s) = 2.72332 3.30213 3.02660
# Velocity P-wave (km/s) = 4.98248 5.51105 5.25342
#
# Compressibility (1/GPa) = 0.04403972
#
# Stress axis : x y z
#
# Youngs Moduli (GPa) = 25.38747 25.38747 60.06408
#
# Poissons Ratio (x) = 0.72028 -0.08041
# Poissons Ratio (y) = 0.72028 -0.08041
# Poissons Ratio (z) = -0.03399 -0.03399
#
# Static dielectric constant tensor:
#      x y z
#    x 1.513920 0.000000 0.000000 
#    y 0.000000 1.513920 0.000000 
#    z 0.000000 0.000000 1.518420 
# 
# From -- ./inp_files/2011.got.cif
#   From: 2010.05.17/outbox.cif.g08.bks.cpg/sg164_2_cif.got.tgz:2011.got - 2010.05.20 10:58:56.
