data_PCOD9578279
_publ_section_title
;
Structure prediction by ZEFSAII (Michael W. Deem and Ramdas Pophale) SiO2 
 PCOD9578279
Probable space group: P -3 1 C
;
_chemical_formula_sum "Si O2"
_cell_formula_units_Z 48
_cell_length_a 11.828617
_cell_length_b 11.828617
_cell_length_c 17.991538
_cell_angle_alpha 90.000000
_cell_angle_beta 90.000000
_cell_angle_gamma 120.000000
_cell_volume 2180.052046
_symmetry_space_group_name_H-M "P -3 1 C"
_symmetry_group_IT_number 163
_symmetry_cell_setting 'hexagonal'
loop_
_space_group_symop_operation_xyz
x,y,z
-y,x-y,z
-x+y,-x,z
-y,-x,1/2-z
-x+y,y,1/2-z
x,x-y,1/2-z
-x,-y,-z
y,-x+y,-z
x-y,x,-z
y,x,1/2+z
x-y,-y,1/2+z
-x,-x+y,1/2+z
loop_
_atom_site_type_symbol
_atom_site_label
_atom_site_fract_x
_atom_site_fract_y
_atom_site_fract_z
Si Si1 0.666668 0.333335 0.639059
Si Si2 0.242590 0.970877 0.076562
Si Si3 0.876535 0.263185 0.414386
Si Si4 0.000000 0.000000 0.088476
Si Si5 0.263741 0.862072 0.325463
Si Si6 0.666668 0.333335 0.460757
O O1 0.638859 0.194613 0.670900
O O2 0.666668 0.333334 0.549989
O O3 0.112602 0.969096 0.106947
O O4 0.227185 0.841957 0.112200
O O5 0.352482 0.114577 0.099616
O O6 0.252218 0.951868 0.988132
O O7 0.800297 0.340106 0.433119
O O8 0.987137 0.324250 0.350938
O O9 0.000000 0.000000 0.000000
O O10 0.180162 0.819839 0.250000
#
# Coordination Sequence:
#
# PCOD9578279 Si02
#       6
#     4  12  12   4  12   4
#     4  12  25  49  72 102 142 194 251 295 361 442
#     4  12  20  39  70 100 141 182 242 306 363 424
#     4  12  24  43  71 107 145 188 243 308 362 434
#     4  12  15  33  61  98 130 174 229 299 364 396
#     4  12  27  44  70 103 146 195 240 301 370 440
#     4  12  27  43  76 112 139 193 251 301 360 442
#
# _framework density 22.017823
#
# number of rings (size 3 to 8) (size 9 to 14) (size 15 to 20)
#    0.000    0.000   10.000    0.750    3.500    3.000 
#    0.000    0.000    0.000    0.000    0.000    0.000 
#    0.000    0.000    0.000    0.000    0.000    0.000 
#
# Total GULP energy -267880.536061 kJ/mol
# GULP energy per Si atom -5580.844501 kJ/mol
# Density = 2.196771 g / cm^3
# Si number density = 22.017823 Si / 1000 Ang^3
#
#
#
# Elastic Constant Matrix: (Units=GPa)
#
#
# Indices 1 2 3 4 5 6 
#
# 1 117.5422 35.9914 24.9277 -0.0002 -2.3434 -0.0001
# 2 35.9914 117.5415 24.9277 0.0001 2.3434 -0.0005
# 3 24.9277 24.9277 85.4050 0.0000 0.0000 0.0000
# 4 -0.0002 0.0001 0.0000 28.5327 0.0001 2.3435
# 5 -2.3434 2.3434 0.0000 0.0001 28.5325 0.0000
# 6 -0.0001 -0.0005 0.0000 2.3435 0.0000 40.7750
#
#
#
# Elastic Compliance Matrix: (Units=1/GPa)
#
#
# Indices 1 2 3 4 5 6 
#
# 1 0.009758 -0.002563 -0.002100 0.000000 0.001012 0.000000
# 2 -0.002563 0.009758 -0.002100 0.000000 -0.001012 0.000000
# 3 -0.002100 -0.002100 0.012935 0.000000 0.000000 0.000000
# 4 0.000000 0.000000 0.000000 0.035214 0.000000 -0.002024
# 5 0.001012 -0.001012 0.000000 0.000000 0.035214 0.000000
# 6 0.000000 0.000000 0.000000 -0.002024 0.000000 0.024641
#
#
# Mechanical properties :
#
#
# Convention : Reuss Voigt Hill
#
# Bulk Modulus (GPa) = 52.84068 54.68694 53.76381
# Shear Modulus (GPa) = 33.93203 35.21084 34.57143
#
# Velocity S-wave (km/s) = 3.92996 4.00333 3.96682
# Velocity P-wave (km/s) = 6.68161 6.80150 6.74182
#
# Compressibility (1/GPa) = 0.01892481
#
# Stress axis : x y z
#
# Youngs Moduli (GPa) = 102.48188 102.48124 77.31049
#
# Poissons Ratio (x) = 0.26262 0.16236
# Poissons Ratio (y) = 0.26263 0.16236
# Poissons Ratio (z) = 0.21522 0.21522
#
# Static dielectric constant tensor:
#      x y z
#    x 1.933250 0.000000 0.000000 
#    y 0.000000 1.933250 0.000000 
#    z 0.000000 0.000000 1.833450 
# 
# From -- ./inp_files/3483.got.cif
#   From: 2010.05.17/outbox.cif.g08.bks.cpg/sg163_2_cif.got.tgz:3483.got - 2010.05.20 10:56:03.
