data_PCOD9578237
_publ_section_title
;
Structure prediction by ZEFSAII (Michael W. Deem and Ramdas Pophale) SiO2 
 PCOD9578237
Probable space group: P -3 1 C
;
_chemical_formula_sum "Si O2"
_cell_formula_units_Z 80
_cell_length_a 19.320255
_cell_length_b 19.320255
_cell_length_c 17.948766
_cell_angle_alpha 90.000000
_cell_angle_beta 90.000000
_cell_angle_gamma 120.000000
_cell_volume 5802.176500
_symmetry_space_group_name_H-M "P -3 1 C"
_symmetry_group_IT_number 163
_symmetry_cell_setting 'hexagonal'
loop_
_space_group_symop_operation_xyz
x,y,z
-y,x-y,z
-x+y,-x,z
-y,-x,1/2-z
-x+y,y,1/2-z
x,x-y,1/2-z
-x,-y,-z
y,-x+y,-z
x-y,x,-z
y,x,1/2+z
x-y,-y,1/2+z
-x,-x+y,1/2+z
loop_
_atom_site_type_symbol
_atom_site_label
_atom_site_fract_x
_atom_site_fract_y
_atom_site_fract_z
Si Si1 0.000000 0.000000 0.588489
Si Si2 0.666668 0.333335 0.659173
Si Si3 0.425216 0.574783 0.340424
Si Si4 0.036329 0.797103 0.082605
Si Si5 0.913532 0.827062 0.162084
Si Si6 0.877716 0.285422 0.661761
Si Si7 0.202896 0.963671 0.082606
Si Si8 0.714579 0.122285 0.661760
O O1 0.044412 0.088819 0.619552
O O2 0.000000 0.000000 0.500000
O O3 0.666668 0.333334 0.750000
O O4 0.620883 0.379122 0.634869
O O5 0.424809 0.575192 0.250000
O O6 0.370201 0.482457 0.361980
O O7 0.517541 0.629800 0.361981
O O8 0.111254 0.888745 0.083757
O O9 0.071729 0.743174 0.113527
O O10 0.964735 0.787166 0.135525
O O11 1.000000 0.774748 1.000000
O O12 0.919516 0.839031 0.250000
O O13 0.822434 0.787168 0.135525
O O14 0.928273 0.256826 0.613529
O O15 0.784494 0.215508 0.655359
O O16 0.897385 0.288423 0.750001
#
# Coordination Sequence:
#
# PCOD9578237 Si02
#       8
#     4   4  12  12  12  12  12  12
#     4  12  22  32  43  63  88 116 151 189 232 272
#     4   9  12  18  36  66  93 111 135 153 193 257
#     4   9  14  24  43  67  94 117 136 170 209 258
#     4  11  21  33  46  61  86 118 153 190 230 268
#     4  12  22  32  47  64  85 114 154 199 230 259
#     4   9  17  28  44  67  92 115 144 178 217 266
#     4  11  21  33  46  61  86 118 153 190 230 268
#     4   9  17  28  44  67  92 115 144 178 217 266
#
# _framework density 13.787929999999999
#
# number of rings (size 3 to 8) (size 9 to 14) (size 15 to 20)
#    0.000    1.800    4.500    2.250    0.000    1.200 
#    0.000    0.750    0.000    0.000    0.000    0.000 
#    0.000    0.000    0.000    0.900    0.000   12.150 
#
# Total GULP energy -445842.164571 kJ/mol
# GULP energy per Si atom -5573.027057 kJ/mol
# Density = 1.375655 g / cm^3
# Si number density = 13.787930 Si / 1000 Ang^3
#
#
#
# Elastic Constant Matrix: (Units=GPa)
#
#
# Indices 1 2 3 4 5 6 
#
# 1 85.7757 45.1198 33.1062 0.0000 0.0002 0.0000
# 2 45.1198 85.7758 33.1062 0.0001 -0.0002 0.0000
# 3 33.1062 33.1062 85.4915 -0.0001 0.0000 0.0000
# 4 0.0000 0.0001 -0.0001 19.6358 0.0000 -0.0002
# 5 0.0002 -0.0002 0.0000 0.0000 19.6358 0.0000
# 6 0.0000 0.0000 0.0000 -0.0002 0.0000 20.3280
#
#
#
# Elastic Compliance Matrix: (Units=1/GPa)
#
#
# Indices 1 2 3 4 5 6 
#
# 1 0.017049 -0.007548 -0.003679 0.000000 0.000000 0.000000
# 2 -0.007548 0.017049 -0.003679 0.000000 0.000000 0.000000
# 3 -0.003679 -0.003679 0.014547 0.000000 0.000000 0.000000
# 4 0.000000 0.000000 0.000000 0.050927 0.000000 0.000000
# 5 0.000000 0.000000 0.000000 0.000000 0.050927 0.000000
# 6 0.000000 0.000000 0.000000 0.000000 0.000000 0.049193
#
#
# Mechanical properties :
#
#
# Convention : Reuss Voigt Hill
#
# Bulk Modulus (GPa) = 53.10247 53.30080 53.20164
# Shear Modulus (GPa) = 21.20611 21.63400 21.42005
#
# Velocity S-wave (km/s) = 3.92601 3.96543 3.94577
# Velocity P-wave (km/s) = 7.69083 7.72707 7.70897
#
# Compressibility (1/GPa) = 0.01883152
#
# Stress axis : x y z
#
# Youngs Moduli (GPa) = 58.65558 58.65558 68.74501
#
# Poissons Ratio (x) = 0.44273 0.25292
# Poissons Ratio (y) = 0.44273 0.25292
# Poissons Ratio (z) = 0.21580 0.21580
#
# Static dielectric constant tensor:
#      x y z
#    x 1.447050 0.000000 0.000000 
#    y 0.000000 1.447050 0.000000 
#    z 0.000000 0.000000 1.429830 
# 
# From -- ./inp_files/3284.got.cif
#   From: 2010.05.17/outbox.cif.g08.bks.cpg/sg163_2_cif.got.tgz:3284.got - 2010.05.20 10:56:03.
