data_PCOD9578793
_publ_section_title
;
Structure prediction by ZEFSAII (Michael W. Deem and Ramdas Pophale) SiO2 
 PCOD9578793
Probable space group: P -3 C 1
;
_chemical_formula_sum "Si O2"
_cell_formula_units_Z 96
_cell_length_a 17.721099
_cell_length_b 17.721099
_cell_length_c 22.028850
_cell_angle_alpha 90.000000
_cell_angle_beta 90.000000
_cell_angle_gamma 120.000000
_cell_volume 5991.061269
_symmetry_space_group_name_H-M "P -3 C 1"
_symmetry_group_IT_number 165
_symmetry_cell_setting 'hexagonal'
loop_
_space_group_symop_operation_xyz
x,y,z
-y,x-y,z
-x+y,-x,z
x-y,-y,1/2-z
-x,-x+y,1/2-z
y,x,1/2-z
-x,-y,-z
y,-x+y,-z
x-y,x,-z
-x+y,y,1/2+z
x,x-y,1/2+z
-y,-x,1/2+z
loop_
_atom_site_type_symbol
_atom_site_label
_atom_site_fract_x
_atom_site_fract_y
_atom_site_fract_z
Si Si1 0.314483 0.823705 0.130981
Si Si2 0.095513 0.620732 0.762016
Si Si3 0.496729 0.156133 0.586766
Si Si4 0.734732 0.632942 0.475521
Si Si5 0.094452 0.729098 0.998525
Si Si6 0.169813 0.677478 0.889558
Si Si7 0.574465 0.972447 0.310753
Si Si8 0.641540 0.142629 0.394190
O O1 0.343831 0.851651 0.200087
O O2 0.296038 0.889845 0.091848
O O3 0.397203 0.825472 0.098772
O O4 0.226539 0.730582 0.128314
O O5 0.144629 0.677822 0.819940
O O6 0.074864 0.523905 0.782850
O O7 0.000000 0.606967 0.750000
O O8 0.447381 0.131603 0.522800
O O9 0.527850 0.256181 0.600720
O O10 0.579931 0.143265 0.590208
O O11 0.429710 0.095439 0.639393
O O12 0.836206 0.663240 0.482129
O O13 0.708566 0.703378 0.494763
O O14 0.109095 0.666931 0.045419
O O15 0.121248 0.711549 0.932885
O O16 0.633330 0.000000 0.250000
O O17 0.600251 0.060646 0.348005
#
# Coordination Sequence:
#
# PCOD9578793 Si02
#       8
#    12  12  12  12  12  12  12  12
#     4  11  22  32  51  75 104 139 175 220 255 310
#     4  10  19  33  47  68  94 134 177 206 259 305
#     4  10  20  34  50  73 100 133 174 212 259 301
#     4  10  21  36  55  77 100 133 172 214 261 313
#     4  10  21  36  55  77  99 133 172 214 262 312
#     4  10  21  31  50  73 100 134 169 216 253 305
#     4  10  19  33  51  66  96 139 171 211 256 313
#     4  11  21  35  51  74 104 137 179 217 261 302
#
# _framework density 16.023872000000001
#
# number of rings (size 3 to 8) (size 9 to 14) (size 15 to 20)
#    0.000    1.750    3.750    2.000    3.500    1.000 
#    0.000    2.500    0.000    0.250    0.000    0.000 
#    0.000    0.000    0.000    0.000    0.000   17.750 
#
# Total GULP energy -534905.247603 kJ/mol
# GULP energy per Si atom -5571.929663 kJ/mol
# Density = 1.598740 g / cm^3
# Si number density = 16.023872 Si / 1000 Ang^3
#
#
#
# Elastic Constant Matrix: (Units=GPa)
#
#
# Indices 1 2 3 4 5 6 
#
# 1 53.8614 35.7271 22.3713 -0.8585 0.0000 0.0000
# 2 35.7271 53.8614 22.3713 0.8585 0.0000 0.0000
# 3 22.3713 22.3713 100.0446 0.0000 0.0000 0.0000
# 4 -0.8585 0.8585 0.0000 18.8138 0.0000 0.0000
# 5 0.0000 0.0000 0.0000 0.0000 18.8138 -0.8585
# 6 0.0000 0.0000 0.0000 0.0000 -0.8585 9.0671
#
#
#
# Elastic Compliance Matrix: (Units=1/GPa)
#
#
# Indices 1 2 3 4 5 6 
#
# 1 0.033974 -0.021409 -0.002810 0.002527 0.000000 0.000000
# 2 -0.021409 0.033974 -0.002810 -0.002527 0.000000 0.000000
# 3 -0.002810 -0.002810 0.011252 0.000000 0.000000 0.000000
# 4 0.002527 -0.002527 0.000000 0.053383 0.000000 0.000000
# 5 0.000000 0.000000 0.000000 0.000000 0.053383 0.005055
# 6 0.000000 0.000000 0.000000 0.000000 0.005055 0.110767
#
#
# Mechanical properties :
#
#
# Convention : Reuss Voigt Hill
#
# Bulk Modulus (GPa) = 39.77119 40.96741 40.36930
# Shear Modulus (GPa) = 13.92088 17.82547 15.87317
#
# Velocity S-wave (km/s) = 2.95067 3.33893 3.15079
# Velocity P-wave (km/s) = 6.04007 6.36291 6.20359
#
# Compressibility (1/GPa) = 0.02514383
#
# Stress axis : x y z
#
# Youngs Moduli (GPa) = 29.43385 29.43385 88.87181
#
# Poissons Ratio (x) = 0.63015 0.24971
# Poissons Ratio (y) = 0.63015 0.24971
# Poissons Ratio (z) = 0.08270 0.08270
#
# Static dielectric constant tensor:
#      x y z
#    x 1.539920 0.000000 0.000000 
#    y 0.000000 1.539920 0.000000 
#    z 0.000000 0.000000 1.574950 
# 
# From -- ./inp_files/2745.got.cif
#   From: 2010.05.17/outbox.cif.g08.bks.cpg/sg165_2_cif.got.tgz:2745.got - 2010.05.20 11:02:39.
