data_PCOD9578019
_publ_section_title
;
Structure prediction by ZEFSAII (Michael W. Deem and Ramdas Pophale) SiO2 
 PCOD9578019
Probable space group: P -3 1 C
;
_chemical_formula_sum "Si O2"
_cell_formula_units_Z 84
_cell_length_a 32.649158
_cell_length_b 32.649158
_cell_length_c 5.136881
_cell_angle_alpha 90.000000
_cell_angle_beta 90.000000
_cell_angle_gamma 120.000000
_cell_volume 4742.137124
_symmetry_space_group_name_H-M "P -3 1 C"
_symmetry_group_IT_number 163
_symmetry_cell_setting 'hexagonal'
loop_
_space_group_symop_operation_xyz
x,y,z
-y,x-y,z
-x+y,-x,z
-y,-x,1/2-z
-x+y,y,1/2-z
x,x-y,1/2-z
-x,-y,-z
y,-x+y,-z
x-y,x,-z
y,x,1/2+z
x-y,-y,1/2+z
-x,-x+y,1/2+z
loop_
_atom_site_type_symbol
_atom_site_label
_atom_site_fract_x
_atom_site_fract_y
_atom_site_fract_z
Si Si1 0.968750 0.746555 0.805366
Si Si2 0.176677 0.545137 0.328811
Si Si3 0.123267 0.690660 0.157692
Si Si4 0.682063 0.452884 0.330705
Si Si5 0.740100 0.566983 0.343893
Si Si6 0.836510 0.966386 0.225329
Si Si7 0.341975 0.309771 0.699765
O O1 0.946721 0.779887 0.749094
O O2 0.943793 0.691003 0.741406
O O3 0.013319 0.768120 0.603265
O O4 0.153951 0.576976 0.250000
O O5 0.141409 0.488523 0.321080
O O6 0.201153 0.557677 0.609602
O O7 0.218057 0.558432 0.115752
O O8 0.154435 0.731953 0.363900
O O9 0.069566 0.672740 0.229717
O O10 0.132501 0.711913 0.867879
O O11 0.716679 0.433357 0.250000
O O12 0.714364 0.509939 0.330703
O O13 0.793305 0.586609 0.250000
O O14 0.846220 0.923110 0.250000
O O15 0.860206 0.004660 0.457241
O O16 0.331701 0.323673 0.418918
#
# Coordination Sequence:
#
# PCOD9578019 Si02
#       7
#    12  12  12  12  12  12  12
#     4   8  16  30  49  70  92 121 157 199 242 285
#     4  10  19  31  49  72  97 128 164 203 245 292
#     4  10  19  31  50  73  98 130 166 203 246 300
#     4   9  17  30  49  68  89 120 156 193 237 290
#     4   9  17  30  47  70  96 121 151 190 241 298
#     4  10  19  33  53  75 100 132 169 204 241 285
#     4  10  19  33  52  72  97 130 169 210 252 300
#
# _framework density 17.713533000000002
#
# number of rings (size 3 to 8) (size 9 to 14) (size 15 to 20)
#    0.000    2.571    0.000    2.571    0.000    3.429 
#    0.000    1.429    0.000    9.429    0.000    0.000 
#    0.000    0.000    0.000    0.000    0.000    0.000 
#
# Total GULP energy -467708.573778 kJ/mol
# GULP energy per Si atom -5567.959212 kJ/mol
# Density = 1.767322 g / cm^3
# Si number density = 17.713533 Si / 1000 Ang^3
#
#
#
# Elastic Constant Matrix: (Units=GPa)
#
#
# Indices 1 2 3 4 5 6 
#
# 1 54.2814 27.1762 -0.3599 0.0001 -2.2203 0.0000
# 2 27.1762 54.2814 -0.3599 -0.0001 2.2203 0.0000
# 3 -0.3599 -0.3599 72.5847 0.0000 0.0000 0.0000
# 4 0.0001 -0.0001 0.0000 14.9045 0.0000 2.2203
# 5 -2.2203 2.2203 0.0000 0.0000 14.9045 0.0001
# 6 0.0000 0.0000 0.0000 2.2203 0.0001 13.5526
#
#
#
# Elastic Compliance Matrix: (Units=1/GPa)
#
#
# Indices 1 2 3 4 5 6 
#
# 1 0.025047 -0.012770 0.000061 0.000000 0.005634 0.000000
# 2 -0.012770 0.025047 0.000061 0.000000 -0.005634 0.000000
# 3 0.000061 0.000061 0.013778 0.000000 0.000000 0.000000
# 4 0.000000 0.000000 0.000000 0.068772 0.000000 -0.011267
# 5 0.005634 -0.005634 0.000000 0.000000 0.068772 0.000000
# 6 0.000000 0.000000 0.000000 -0.011267 0.000000 0.075632
#
#
# Mechanical properties :
#
#
# Convention : Reuss Voigt Hill
#
# Bulk Modulus (GPa) = 25.92364 26.00670 25.96517
# Shear Modulus (GPa) = 15.86284 18.98506 17.42395
#
# Velocity S-wave (km/s) = 2.99577 3.27736 3.13972
# Velocity P-wave (km/s) = 5.16071 5.38843 5.27580
#
# Compressibility (1/GPa) = 0.03857483
#
# Stress axis : x y z
#
# Youngs Moduli (GPa) = 39.92570 39.92570 72.58154
#
# Poissons Ratio (x) = 0.50984 -0.00442
# Poissons Ratio (y) = 0.50984 -0.00442
# Poissons Ratio (z) = -0.00243 -0.00243
#
# Static dielectric constant tensor:
#      x y z
#    x 1.617070 0.000000 0.000000 
#    y 0.000000 1.617070 0.000000 
#    z 0.000000 0.000000 1.613480 
# 
# From -- ./inp_files/452.got.cif
#   From: 2010.05.17/outbox.cif.g08.bks.cpg/sg163_1_cif.got.tgz:452.got - 2010.05.20 10:56:03.
