data_PCOD9578042
_publ_section_title
;
Structure prediction by ZEFSAII (Michael W. Deem and Ramdas Pophale) SiO2 
 PCOD9578042
Probable space group: P -3 1 C
;
_chemical_formula_sum "Si O2"
_cell_formula_units_Z 76
_cell_length_a 17.572678
_cell_length_b 17.572678
_cell_length_c 13.291416
_cell_angle_alpha 90.000000
_cell_angle_beta 90.000000
_cell_angle_gamma 120.000000
_cell_volume 3554.493995
_symmetry_space_group_name_H-M "P -3 1 C"
_symmetry_group_IT_number 163
_symmetry_cell_setting 'hexagonal'
loop_
_space_group_symop_operation_xyz
x,y,z
-y,x-y,z
-x+y,-x,z
-y,-x,1/2-z
-x+y,y,1/2-z
x,x-y,1/2-z
-x,-y,-z
y,-x+y,-z
x-y,x,-z
y,x,1/2+z
x-y,-y,1/2+z
-x,-x+y,1/2+z
loop_
_atom_site_type_symbol
_atom_site_label
_atom_site_fract_x
_atom_site_fract_y
_atom_site_fract_z
Si Si1 0.666668 0.333334 0.130592
Si Si2 0.051346 0.321063 0.668234
Si Si3 0.531497 0.397913 0.565474
Si Si4 0.112283 0.347038 0.896554
Si Si5 0.450613 0.488582 0.853544
Si Si6 0.815990 0.831032 0.026233
Si Si7 0.773255 0.491456 0.986655
O O1 0.666668 0.333334 0.250000
O O2 0.719361 0.430069 0.081548
O O3 0.079018 0.341038 0.784247
O O4 0.142710 0.347506 0.610974
O O5 0.014613 0.386805 0.646473
O O6 0.995510 0.218770 0.633152
O O7 0.501037 0.453403 0.631957
O O8 0.525057 0.425970 0.451051
O O9 0.483500 0.292753 0.568551
O O10 0.634543 0.433816 0.583111
O O11 0.138995 0.429543 0.967102
O O12 0.036542 0.262939 0.951050
O O13 0.459472 0.540528 0.750000
O O14 0.902838 0.831144 0.988927
#
# Coordination Sequence:
#
# PCOD9578042 Si02
#       7
#     4  12  12  12  12  12  12
#     4   9  21  27  51  87 118 155 208 240 303 342
#     4  10  21  36  58  89 121 159 196 242 305 363
#     4  10  22  37  61  86 121 160 207 250 299 352
#     4  10  20  35  59  86 124 154 195 246 303 363
#     4  11  22  39  59  90 125 164 206 249 299 360
#     4  10  22  41  64  90 117 152 197 253 315 377
#     4  10  19  36  55  84 120 163 197 253 295 349
#
# _framework density 21.381383
#
# number of rings (size 3 to 8) (size 9 to 14) (size 15 to 20)
#    0.000    1.895    1.579    2.368    2.211    4.421 
#    0.000    0.789    3.474    1.895    0.000    0.000 
#    0.000    0.000    0.000    0.000    0.000    0.000 
#
# Total GULP energy -423786.145872 kJ/mol
# GULP energy per Si atom -5576.133498 kJ/mol
# Density = 2.133272 g / cm^3
# Si number density = 21.381383 Si / 1000 Ang^3
#
#
#
# Elastic Constant Matrix: (Units=GPa)
#
#
# Indices 1 2 3 4 5 6 
#
# 1 90.4100 30.3404 8.9768 0.0000 5.1914 0.0001
# 2 30.3404 90.4101 8.9769 -0.0001 -5.1914 0.0000
# 3 8.9768 8.9769 22.0306 -0.0001 -0.0001 0.0000
# 4 0.0000 -0.0001 -0.0001 15.8831 0.0000 -5.1914
# 5 5.1914 -5.1914 -0.0001 0.0000 15.8830 0.0000
# 6 0.0001 0.0000 0.0000 -5.1914 0.0000 30.0349
#
#
#
# Elastic Compliance Matrix: (Units=1/GPa)
#
#
# Indices 1 2 3 4 5 6 
#
# 1 0.013230 -0.004414 -0.003592 0.000000 -0.005767 0.000000
# 2 -0.004414 0.013230 -0.003592 0.000000 0.005767 0.000000
# 3 -0.003592 -0.003592 0.048319 0.000000 0.000000 0.000000
# 4 0.000000 0.000000 0.000000 0.066730 0.000000 0.011534
# 5 -0.005767 0.005767 0.000000 0.000000 0.066730 0.000000
# 6 0.000000 0.000000 0.000000 0.011534 0.000000 0.035288
#
#
# Mechanical properties :
#
#
# Convention : Reuss Voigt Hill
#
# Bulk Modulus (GPa) = 19.38677 33.27099 26.32888
# Shear Modulus (GPa) = 17.61073 22.66398 20.13735
#
# Velocity S-wave (km/s) = 2.87304 3.25928 3.07223
# Velocity P-wave (km/s) = 4.48248 5.45512 4.99254
#
# Compressibility (1/GPa) = 0.05158156
#
# Stress axis : x y z
#
# Youngs Moduli (GPa) = 75.58642 75.58643 20.69587
#
# Poissons Ratio (x) = 0.33366 0.07434
# Poissons Ratio (y) = 0.33366 0.07434
# Poissons Ratio (z) = 0.27151 0.27152
#
# Static dielectric constant tensor:
#      x y z
#    x 1.826940 0.000000 0.000000 
#    y 0.000000 1.826950 0.000000 
#    z 0.000000 0.000000 1.760540 
# 
# From -- ./inp_files/2608.got.cif
#   From: 2010.05.17/outbox.cif.g08.bks.cpg/sg163_2_cif.got.tgz:2608.got - 2010.05.20 10:56:03.
