data_PCOD9578089
_publ_section_title
;
Structure prediction by ZEFSAII (Michael W. Deem and Ramdas Pophale) SiO2 
 PCOD9578089
Probable space group: P -3 1 C
;
_chemical_formula_sum "Si O2"
_cell_formula_units_Z 76
_cell_length_a 16.922292
_cell_length_b 16.922292
_cell_length_c 14.071197
_cell_angle_alpha 90.000000
_cell_angle_beta 90.000000
_cell_angle_gamma 120.000000
_cell_volume 3489.635323
_symmetry_space_group_name_H-M "P -3 1 C"
_symmetry_group_IT_number 163
_symmetry_cell_setting 'hexagonal'
loop_
_space_group_symop_operation_xyz
x,y,z
-y,x-y,z
-x+y,-x,z
-y,-x,1/2-z
-x+y,y,1/2-z
x,x-y,1/2-z
-x,-y,-z
y,-x+y,-z
x-y,x,-z
y,x,1/2+z
x-y,-y,1/2+z
-x,-x+y,1/2+z
loop_
_atom_site_type_symbol
_atom_site_label
_atom_site_fract_x
_atom_site_fract_y
_atom_site_fract_z
Si Si1 0.691697 0.190979 0.483058
Si Si2 0.333335 0.666668 0.860946
Si Si3 0.134007 0.641044 0.485696
Si Si4 0.122132 0.717411 0.690094
Si Si5 0.663622 0.025343 0.370673
Si Si6 0.843268 0.037512 0.885741
Si Si7 0.962293 0.802116 0.115658
O O1 0.679412 0.252301 0.402369
O O2 0.774813 0.265523 0.545290
O O3 0.591904 0.145023 0.528115
O O4 0.711523 0.115651 0.437896
O O5 0.333334 0.666667 0.750000
O O6 0.126716 0.664996 0.596656
O O7 0.047390 0.624981 0.427833
O O8 0.213784 0.786217 0.750000
O O9 0.057812 0.646864 0.769907
O O10 0.080350 0.780655 0.656004
O O11 0.727258 0.981955 0.351860
O O12 0.933438 0.129374 0.855688
O O13 0.846109 0.946460 0.859337
O O14 0.837252 0.040371 0.000776
#
# Coordination Sequence:
#
# PCOD9578089 Si02
#       7
#    12   4  12  12  12  12  12
#     4  10  23  40  66  96 131 179 217 273 349 405
#     4   9  21  36  66 108 135 169 209 289 357 411
#     4  11  24  44  68 100 140 170 227 282 344 425
#     4  12  23  40  64  98 130 176 222 283 351 399
#     4  12  24  39  62  97 137 180 213 283 354 403
#     4  10  20  36  61  85 128 181 224 275 336 387
#     4  10  20  37  58  90 126 176 228 274 325 405
#
# _framework density 21.778780000000001
#
# number of rings (size 3 to 8) (size 9 to 14) (size 15 to 20)
#    0.000    1.263    4.737    1.105    6.632    1.895 
#    0.000    0.000    0.000    0.000    0.000    0.000 
#    0.000    7.895    0.000    0.000    0.000    0.000 
#
# Total GULP energy -424788.519105 kJ/mol
# GULP energy per Si atom -5589.322620 kJ/mol
# Density = 2.172921 g / cm^3
# Si number density = 21.778780 Si / 1000 Ang^3
#
#
#
# Elastic Constant Matrix: (Units=GPa)
#
#
# Indices 1 2 3 4 5 6 
#
# 1 70.9088 8.9718 12.7383 -0.0002 5.3662 -0.0003
# 2 8.9718 70.9084 12.7381 0.0003 -5.3661 0.0008
# 3 12.7383 12.7381 69.3678 0.0001 0.0000 0.0001
# 4 -0.0002 0.0003 0.0001 11.9888 0.0001 -5.3658
# 5 5.3662 -5.3661 0.0000 0.0001 11.9887 0.0002
# 6 -0.0003 0.0008 0.0001 -5.3658 0.0002 30.9690
#
#
#
# Elastic Compliance Matrix: (Units=1/GPa)
#
#
# Indices 1 2 3 4 5 6 
#
# 1 0.015400 -0.002103 -0.002442 0.000001 -0.007834 0.000000
# 2 -0.002103 0.015400 -0.002442 -0.000001 0.007834 -0.000001
# 3 -0.002442 -0.002442 0.015313 0.000000 0.000000 0.000000
# 4 0.000001 -0.000001 0.000000 0.090423 -0.000002 0.015667
# 5 -0.007834 0.007834 0.000000 -0.000002 0.090425 -0.000001
# 6 0.000000 -0.000001 0.000000 0.015667 -0.000001 0.035005
#
#
# Mechanical properties :
#
#
# Convention : Reuss Voigt Hill
#
# Bulk Modulus (GPa) = 31.11357 31.12014 31.11686
# Shear Modulus (GPa) = 17.44271 22.77176 20.10724
#
# Velocity S-wave (km/s) = 2.83310 3.23707 3.04180
# Velocity P-wave (km/s) = 5.00191 5.31900 5.16289
#
# Compressibility (1/GPa) = 0.03214031
#
# Stress axis : x y z
#
# Youngs Moduli (GPa) = 64.93413 64.93389 65.30518
#
# Poissons Ratio (x) = 0.13654 0.15947
# Poissons Ratio (y) = 0.13654 0.15946
# Poissons Ratio (z) = 0.15856 0.15856
#
# Static dielectric constant tensor:
#      x y z
#    x 1.819530 0.000000 0.000000 
#    y 0.000000 1.819530 0.000000 
#    z 0.000000 0.000000 1.811260 
# 
# From -- ./inp_files/2617.got.cif
#   From: 2010.05.17/outbox.cif.g08.bks.cpg/sg163_2_cif.got.tgz:2617.got - 2010.05.20 10:56:03.
