data_PCOD9578794
_publ_section_title
;
Structure prediction by ZEFSAII (Michael W. Deem and Ramdas Pophale) SiO2 
 PCOD9578794
Probable space group: P -3 C 1
;
_chemical_formula_sum "Si O2"
_cell_formula_units_Z 52
_cell_length_a 12.489499
_cell_length_b 12.489499
_cell_length_c 22.484699
_cell_angle_alpha 90.000000
_cell_angle_beta 90.000000
_cell_angle_gamma 120.000000
_cell_volume 3037.440259
_symmetry_space_group_name_H-M "P -3 C 1"
_symmetry_group_IT_number 165
_symmetry_cell_setting 'hexagonal'
loop_
_space_group_symop_operation_xyz
x,y,z
-y,x-y,z
-x+y,-x,z
x-y,-y,1/2-z
-x,-x+y,1/2-z
y,x,1/2-z
-x,-y,-z
y,-x+y,-z
x-y,x,-z
-x+y,y,1/2+z
x,x-y,1/2+z
-y,-x,1/2+z
loop_
_atom_site_type_symbol
_atom_site_label
_atom_site_fract_x
_atom_site_fract_y
_atom_site_fract_z
Si Si1 0.000000 0.000000 0.431106
Si Si2 0.002770 0.210440 0.354979
Si Si3 0.589715 0.919328 0.554524
Si Si4 0.337641 0.412706 0.063689
Si Si5 0.264692 0.005561 0.814944
O O1 0.993178 0.115752 0.406265
O O2 0.000000 0.000000 0.500000
O O3 0.131527 0.249289 0.323359
O O4 0.993444 0.317452 0.389362
O O5 0.880465 0.124510 0.316416
O O6 0.457083 0.908543 0.561758
O O7 0.580254 0.786416 0.555484
O O8 0.647797 0.987535 0.492119
O O9 0.325744 0.346433 0.127011
O O10 0.315104 0.000000 0.750000
#
# Coordination Sequence:
#
# PCOD9578794 Si02
#       5
#     4  12  12  12  12
#     4   9  18  24  46  83 109 126 153 211 251 304
#     4   9  19  30  51  76 104 133 161 206 259 303
#     4  10  20  35  53  76 100 130 172 210 258 298
#     4  10  21  34  53  74 100 133 166 214 251 299
#     4  10  19  33  50  76 105 133 165 204 254 310
#
# _framework density 17.119678
#
# number of rings (size 3 to 8) (size 9 to 14) (size 15 to 20)
#    0.000    2.308    0.000    3.000    9.692    0.000 
#    0.000    4.615    0.000    0.923    0.000    0.000 
#    0.000    0.000    0.000    0.000    0.000    0.000 
#
# Total GULP energy -289988.472516 kJ/mol
# GULP energy per Si atom -5576.701395 kJ/mol
# Density = 1.708071 g / cm^3
# Si number density = 17.119678 Si / 1000 Ang^3
#
#
#
# Elastic Constant Matrix: (Units=GPa)
#
#
# Indices 1 2 3 4 5 6 
#
# 1 63.0805 28.8016 43.2200 -0.1250 0.0000 0.0000
# 2 28.8016 63.0805 43.2200 0.1250 0.0000 0.0000
# 3 43.2200 43.2200 137.2167 0.0000 0.0000 0.0000
# 4 -0.1250 0.1250 0.0000 7.6652 0.0000 0.0000
# 5 0.0000 0.0000 0.0000 0.0000 7.6652 -0.1250
# 6 0.0000 0.0000 0.0000 0.0000 -0.1250 17.1395
#
#
#
# Elastic Compliance Matrix: (Units=1/GPa)
#
#
# Indices 1 2 3 4 5 6 
#
# 1 0.022321 -0.006855 -0.004872 0.000476 0.000000 0.000000
# 2 -0.006855 0.022321 -0.004872 -0.000476 0.000000 0.000000
# 3 -0.004872 -0.004872 0.010357 0.000000 0.000000 0.000000
# 4 0.000476 -0.000476 0.000000 0.130476 0.000000 0.000000
# 5 0.000000 0.000000 0.000000 0.000000 0.130476 0.000952
# 6 0.000000 0.000000 0.000000 0.000000 0.000952 0.058352
#
#
# Mechanical properties :
#
#
# Convention : Reuss Voigt Hill
#
# Bulk Modulus (GPa) = 45.86450 54.87343 50.36896
# Shear Modulus (GPa) = 12.05498 16.36971 14.21235
#
# Velocity S-wave (km/s) = 2.65648 3.09559 2.88440
# Velocity P-wave (km/s) = 6.02145 6.70070 6.37013
#
# Compressibility (1/GPa) = 0.02180335
#
# Stress axis : x y z
#
# Youngs Moduli (GPa) = 44.80041 44.80041 96.55658
#
# Poissons Ratio (x) = 0.30709 0.47039
# Poissons Ratio (y) = 0.30709 0.47039
# Poissons Ratio (z) = 0.21825 0.21825
#
# Static dielectric constant tensor:
#      x y z
#    x 1.608160 0.000000 0.000000 
#    y 0.000000 1.608160 0.000000 
#    z 0.000000 0.000000 1.579780 
# 
# From -- ./inp_files/2585.got.cif
#   From: 2010.05.17/outbox.cif.g08.bks.cpg/sg165_2_cif.got.tgz:2585.got - 2010.05.20 11:02:39.
