data_PCOD9578532
_publ_section_title
;
Structure prediction by ZEFSAII (Michael W. Deem and Ramdas Pophale) SiO2 
 PCOD9578532
Probable space group: P -3 M 1
;
_chemical_formula_sum "Si O2"
_cell_formula_units_Z 66
_cell_length_a 13.496918
_cell_length_b 13.496918
_cell_length_c 28.106309
_cell_angle_alpha 90.000000
_cell_angle_beta 90.000000
_cell_angle_gamma 120.000000
_cell_volume 4434.081455
_symmetry_space_group_name_H-M "P -3 M 1"
_symmetry_group_IT_number 164
_symmetry_cell_setting 'hexagonal'
loop_
_space_group_symop_operation_xyz
x,y,z
-y,x-y,z
-x+y,-x,z
x-y,-y,-z
-x,-x+y,-z
y,x,-z
-x,-y,-z
y,-x+y,-z
x-y,x,-z
-x+y,y,z
x,x-y,z
-y,-x,z
loop_
_atom_site_type_symbol
_atom_site_label
_atom_site_fract_x
_atom_site_fract_y
_atom_site_fract_z
Si Si1 0.000000 0.237033 0.000000
Si Si2 0.666072 0.098723 0.629132
Si Si3 0.433985 0.333160 0.188189
Si Si4 0.999444 0.765588 0.445089
Si Si5 0.433952 0.333776 0.077031
Si Si6 0.900468 0.332782 0.738699
O O1 0.027391 0.323867 0.955874
O O2 0.112867 0.225733 0.007491
O O3 0.547009 0.094018 0.619918
O O4 0.771046 0.228955 0.625257
O O5 0.666275 0.062762 0.683940
O O6 0.691224 0.024729 0.591900
O O7 0.424725 0.212363 0.197574
O O8 0.564245 0.435756 0.194834
O O9 0.406029 0.337290 0.132625
O O10 0.357186 0.358520 0.223734
O O11 0.880167 0.760334 0.435790
O O12 0.000000 0.730568 0.500000
O O13 0.104150 0.895851 0.440896
O O14 0.465531 0.232766 0.072475
O O15 0.543908 0.456093 0.064406
O O16 0.875043 0.437522 0.742691
O O17 0.786244 0.213757 0.747626
#
# Coordination Sequence:
#
# PCOD9578532 Si02
#       6
#     6  12  12  12  12  12
#     4  10  20  32  46  64  88 118 148 176 208 250
#     4   9  17  29  45  64  85 111 143 177 212 249
#     4   9  17  29  46  67  89 113 141 174 213 255
#     4   9  17  29  45  64  85 110 140 174 212 253
#     4   9  17  30  48  68  88 111 141 178 217 254
#     4   9  17  29  45  64  86 113 144 177 211 248
#
# _framework density 14.884706
#
# number of rings (size 3 to 8) (size 9 to 14) (size 15 to 20)
#    0.000    2.909    0.000    1.273    0.000    5.455 
#    0.000    0.000    0.000    1.091    0.000    0.000 
#    0.000    0.000    0.000    0.000    0.000    0.000 
#
# Total GULP energy -367630.942802 kJ/mol
# GULP energy per Si atom -5570.165800 kJ/mol
# Density = 1.485083 g / cm^3
# Si number density = 14.884706 Si / 1000 Ang^3
#
#
#
# Elastic Constant Matrix: (Units=GPa)
#
#
# Indices 1 2 3 4 5 6 
#
# 1 100.4874 66.0960 83.3892 0.8242 0.0000 0.0000
# 2 66.0960 100.4874 83.3892 -0.8242 0.0000 0.0000
# 3 83.3892 83.3892 109.8557 0.0000 0.0000 0.0000
# 4 0.8242 -0.8242 0.0000 24.6071 0.0000 0.0000
# 5 0.0000 0.0000 0.0000 0.0000 24.6071 0.8242
# 6 0.0000 0.0000 0.0000 0.0000 0.8242 17.1957
#
#
#
# Elastic Compliance Matrix: (Units=1/GPa)
#
#
# Indices 1 2 3 4 5 6 
#
# 1 0.027066 -0.002057 -0.018984 -0.000975 0.000000 0.000000
# 2 -0.002057 0.027066 -0.018984 0.000975 0.000000 0.000000
# 3 -0.018984 -0.018984 0.037923 0.000000 0.000000 0.000000
# 4 -0.000975 0.000975 0.000000 0.040704 0.000000 0.000000
# 5 0.000000 0.000000 0.000000 0.000000 0.040704 -0.001951
# 6 0.000000 0.000000 0.000000 0.000000 -0.001951 0.058247
#
#
# Mechanical properties :
#
#
# Convention : Reuss Voigt Hill
#
# Bulk Modulus (GPa) = 83.29134 86.28659 84.78896
# Shear Modulus (GPa) = 15.83460 18.47907 17.15684
#
# Velocity S-wave (km/s) = 3.26516 3.52729 3.39875
# Velocity P-wave (km/s) = 8.38416 8.64204 8.51408
#
# Compressibility (1/GPa) = 0.01200605
#
# Stress axis : x y z
#
# Youngs Moduli (GPa) = 36.94612 36.94612 26.36889
#
# Poissons Ratio (x) = 0.07601 0.50059
# Poissons Ratio (y) = 0.07601 0.50059
# Poissons Ratio (z) = 0.70138 0.70138
#
# Static dielectric constant tensor:
#      x y z
#    x 1.469340 0.000000 0.000000 
#    y 0.000000 1.469340 0.000000 
#    z 0.000000 0.000000 1.492650 
# 
# From -- ./inp_files/4009.got.cif
#   From: 2010.05.17/outbox.cif.g08.bks.cpg/sg164_3_cif.got.tgz:4009.got - 2010.05.20 10:58:56.
