data_PCOD9578599
_publ_section_title
;
Structure prediction by ZEFSAII (Michael W. Deem and Ramdas Pophale) SiO2 
 PCOD9578599
Probable space group: P -3 M 1
;
_chemical_formula_sum "Si O2"
_cell_formula_units_Z 60
_cell_length_a 12.784911
_cell_length_b 12.784911
_cell_length_c 26.275181
_cell_angle_alpha 90.000000
_cell_angle_beta 90.000000
_cell_angle_gamma 120.000000
_cell_volume 3719.390404
_symmetry_space_group_name_H-M "P -3 M 1"
_symmetry_group_IT_number 164
_symmetry_cell_setting 'hexagonal'
loop_
_space_group_symop_operation_xyz
x,y,z
-y,x-y,z
-x+y,-x,z
x-y,-y,-z
-x,-x+y,-z
y,x,-z
-x,-y,-z
y,-x+y,-z
x-y,x,-z
-x+y,y,z
x,x-y,z
-y,-x,z
loop_
_atom_site_type_symbol
_atom_site_label
_atom_site_fract_x
_atom_site_fract_y
_atom_site_fract_z
Si Si1 0.247873 0.000172 0.755702
Si Si2 0.914682 0.582215 0.546175
Si Si3 0.418229 0.334033 0.048563
Si Si4 0.915197 0.333269 0.853445
Si Si5 0.083935 0.666390 0.339043
O O1 0.217528 0.108764 0.754416
O O2 0.337744 0.028456 0.803147
O O3 0.320122 0.010585 0.704037
O O4 0.127686 0.872315 0.760771
O O5 0.787185 0.574370 0.540987
O O6 0.898036 0.449018 0.542995
O O7 0.961007 0.627102 0.603467
O O8 0.000000 0.657790 0.500000
O O9 0.410485 0.205243 0.048529
O O10 0.557577 0.442424 0.046250
O O11 0.360943 0.356240 0.099115
O O12 0.352426 0.352426 0.000000
O O13 0.898816 0.449408 0.846669
O O14 0.786234 0.213767 0.862932
O O15 0.082435 0.541218 0.330689
O O16 0.221692 0.778309 0.336201
#
# Coordination Sequence:
#
# PCOD9578599 Si02
#       5
#    12  12  12  12  12
#     4  10  20  33  49  69  95 127 160 193 232 281
#     4   9  17  29  46  68  93 122 156 194 237 283
#     4  10  20  34  53  76 103 135 169 205 245 290
#     4  10  20  34  54  78 102 128 160 201 245 287
#     4   9  17  30  49  71  93 119 154 198 243 284
#
# _framework density 16.131677
#
# number of rings (size 3 to 8) (size 9 to 14) (size 15 to 20)
#    0.000    2.400    0.000    2.800    0.000    2.400 
#    0.000    4.000    0.000    9.400    0.000    0.000 
#    0.000    0.000    0.000    0.000    0.000    0.000 
#
# Total GULP energy -334612.128304 kJ/mol
# GULP energy per Si atom -5576.868805 kJ/mol
# Density = 1.609496 g / cm^3
# Si number density = 16.131677 Si / 1000 Ang^3
#
#
#
# Elastic Constant Matrix: (Units=GPa)
#
#
# Indices 1 2 3 4 5 6 
#
# 1 164.7146 11.7646 75.2525 -21.6038 0.0000 0.0000
# 2 11.7646 164.7146 75.2525 21.6038 0.0000 0.0000
# 3 75.2525 75.2525 140.2028 0.0000 0.0000 0.0000
# 4 -21.6038 21.6038 0.0000 28.5166 0.0000 0.0000
# 5 0.0000 0.0000 0.0000 0.0000 28.5166 -21.6038
# 6 0.0000 0.0000 0.0000 0.0000 -21.6038 76.4750
#
#
#
# Elastic Compliance Matrix: (Units=1/GPa)
#
#
# Indices 1 2 3 4 5 6 
#
# 1 0.009384 0.001066 -0.005609 0.006302 0.000000 0.000000
# 2 0.001066 0.009384 -0.005609 -0.006302 0.000000 0.000000
# 3 -0.005609 -0.005609 0.013153 0.000000 0.000000 0.000000
# 4 0.006302 -0.006302 0.000000 0.044616 0.000000 0.000000
# 5 0.000000 0.000000 0.000000 0.000000 0.044616 0.012604
# 6 0.000000 0.000000 0.000000 0.000000 0.012604 0.016637
#
#
# Mechanical properties :
#
#
# Convention : Reuss Voigt Hill
#
# Bulk Modulus (GPa) = 86.07553 88.24127 87.15840
# Shear Modulus (GPa) = 30.87075 47.19246 39.03161
#
# Velocity S-wave (km/s) = 4.37930 5.41461 4.92424
# Velocity P-wave (km/s) = 8.89072 9.69072 9.29933
#
# Compressibility (1/GPa) = 0.01161770
#
# Stress axis : x y z
#
# Youngs Moduli (GPa) = 106.56456 106.56456 76.02589
#
# Poissons Ratio (x) = -0.11356 0.42641
# Poissons Ratio (y) = -0.11356 0.42641
# Poissons Ratio (z) = 0.59769 0.59769
#
# Static dielectric constant tensor:
#      x y z
#    x 1.507630 0.000000 0.000000 
#    y 0.000000 1.507630 0.000000 
#    z 0.000000 0.000000 1.550500 
# 
# From -- ./inp_files/5156.got.cif
#   From: 2010.05.17/outbox.cif.g08.bks.cpg/sg164_3_cif.got.tgz:5156.got - 2010.05.20 10:58:56.
