data_PCOD9578142
_publ_section_title
;
Structure prediction by ZEFSAII (Michael W. Deem and Ramdas Pophale) SiO2 
 PCOD9578142
Probable space group: P -3 1 C
;
_chemical_formula_sum "Si O2"
_cell_formula_units_Z 64
_cell_length_a 15.132940
_cell_length_b 15.132940
_cell_length_c 17.387245
_cell_angle_alpha 90.000000
_cell_angle_beta 90.000000
_cell_angle_gamma 120.000000
_cell_volume 3448.323690
_symmetry_space_group_name_H-M "P -3 1 C"
_symmetry_group_IT_number 163
_symmetry_cell_setting 'hexagonal'
loop_
_space_group_symop_operation_xyz
x,y,z
-y,x-y,z
-x+y,-x,z
-y,-x,1/2-z
-x+y,y,1/2-z
x,x-y,1/2-z
-x,-y,-z
y,-x+y,-z
x-y,x,-z
y,x,1/2+z
x-y,-y,1/2+z
-x,-x+y,1/2+z
loop_
_atom_site_type_symbol
_atom_site_label
_atom_site_fract_x
_atom_site_fract_y
_atom_site_fract_z
Si Si1 0.227426 0.080776 0.884055
Si Si2 0.723307 0.032795 0.983965
Si Si3 0.140025 0.472869 0.894085
Si Si4 0.000000 0.000000 0.841621
Si Si5 0.950327 0.253669 0.263870
Si Si6 0.548875 0.879720 0.881236
O O1 0.291210 0.194637 0.917940
O O2 0.114658 0.060969 0.871517
O O3 0.259762 0.049796 0.803537
O O4 0.226598 0.004759 0.950508
O O5 0.624288 0.931906 0.952857
O O6 0.684733 0.102673 0.024077
O O7 0.084511 0.386651 0.830443
O O8 0.109864 0.558929 0.882624
O O9 0.255820 0.498282 0.881798
O O10 0.000000 0.000000 0.750000
O O11 0.865890 0.134111 0.250000
O O12 0.936819 0.308689 0.188876
#
# Coordination Sequence:
#
# PCOD9578142 Si02
#       6
#    12  12  12   4  12  12
#     4  11  23  39  55  88 127 167 208 240 301 363
#     4  11  22  38  59  84 124 162 203 249 305 368
#     4  10  21  38  59  88 115 155 198 256 312 366
#     4  12  27  34  62  88 126 178 212 247 279 373
#     4   9  21  37  58  86 121 155 201 249 295 363
#     4  11  21  38  61  87 117 155 203 259 313 368
#
# _framework density 18.559743000000001
#
# number of rings (size 3 to 8) (size 9 to 14) (size 15 to 20)
#    0.000    1.500    1.875    3.188    7.875    0.750 
#    0.000    1.875    0.000    0.000    0.000    0.000 
#    0.000    0.000    0.000    0.000    0.000    0.000 
#
# Total GULP energy -356740.039678 kJ/mol
# GULP energy per Si atom -5574.063120 kJ/mol
# Density = 1.851750 g / cm^3
# Si number density = 18.559743 Si / 1000 Ang^3
#
#
#
# Elastic Constant Matrix: (Units=GPa)
#
#
# Indices 1 2 3 4 5 6 
#
# 1 -33.5397 140.0847 42.5509 -0.0115 240.9508 0.0000
# 2 140.0847 -33.5397 42.5509 0.0115 -240.9508 0.0000
# 3 42.5509 42.5509 86.2264 0.0000 0.0000 0.0000
# 4 -0.0115 0.0115 0.0000 -531.7413 0.0000 -240.9508
# 5 240.9508 -240.9508 0.0000 0.0000 -531.7413 -0.0115
# 6 0.0000 0.0000 0.0000 -240.9508 -0.0115 -86.8122
#
#
#
# Elastic Compliance Matrix: (Units=1/GPa)
#
#
# Indices 1 2 3 4 5 6 
#
# 1 0.018921 -0.003429 -0.007645 0.000000 0.010128 0.000000
# 2 -0.003429 0.018921 -0.007645 0.000000 -0.010128 0.000000
# 3 -0.007645 -0.007645 0.019143 0.000000 0.000000 0.000000
# 4 0.000000 0.000000 0.000000 0.007298 0.000000 -0.020255
# 5 0.010128 -0.010128 0.000000 0.000000 0.007298 -0.000001
# 6 0.000000 0.000000 0.000000 -0.020255 -0.000001 0.044700
#
#
# Mechanical properties :
#
#
# Convention : Reuss Voigt Hill
#
# Bulk Modulus (GPa) = 51.15929 52.16889 51.66409
# Shear Modulus (GPa) = 31.20420 -243.79492 -106.29536
#
# Velocity S-wave (km/s) = 4.10479 -11.47353 -7.57604
# Velocity P-wave (km/s) = 7.07745 12.13891 6.97362
#
# Compressibility (1/GPa) = 0.01954679
#
# Stress axis : x y z
#
# Youngs Moduli (GPa) = 52.85090 52.85090 52.23927
#
# Poissons Ratio (x) = 0.18123 0.39937
# Poissons Ratio (y) = 0.18123 0.39937
# Poissons Ratio (z) = 0.40405 0.40405
#
# Static dielectric constant tensor:
#      x y z
#    x 1.703660 0.000000 0.000000 
#    y 0.000000 1.703660 0.000000 
#    z 0.000000 0.000000 1.699150 
# 
# From -- ./inp_files/3077.got.cif
#   From: 2010.05.17/outbox.cif.g08.bks.cpg/sg163_2_cif.got.tgz:3077.got - 2010.05.20 10:56:03.
