data_PCOD9578907
_publ_section_title
;
Structure prediction by ZEFSAII (Michael W. Deem and Ramdas Pophale) SiO2 
 PCOD9578907
Probable space group: P -3 C 1
;
_chemical_formula_sum "Si O2"
_cell_formula_units_Z 78
_cell_length_a 22.410578
_cell_length_b 22.410578
_cell_length_c 9.239926
_cell_angle_alpha 90.000000
_cell_angle_beta 90.000000
_cell_angle_gamma 120.000000
_cell_volume 4018.881865
_symmetry_space_group_name_H-M "P -3 C 1"
_symmetry_group_IT_number 165
_symmetry_cell_setting 'hexagonal'
loop_
_space_group_symop_operation_xyz
x,y,z
-y,x-y,z
-x+y,-x,z
x-y,-y,1/2-z
-x,-x+y,1/2-z
y,x,1/2-z
-x,-y,-z
y,-x+y,-z
x-y,x,-z
-x+y,y,1/2+z
x,x-y,1/2+z
-y,-x,1/2+z
loop_
_atom_site_type_symbol
_atom_site_label
_atom_site_fract_x
_atom_site_fract_y
_atom_site_fract_z
Si Si1 0.514011 0.733821 0.602629
Si Si2 0.640181 0.758984 0.041369
Si Si3 0.124562 0.099684 0.404144
Si Si4 0.276405 0.696980 0.846430
Si Si5 0.687801 0.611020 0.771281
Si Si6 0.729157 0.729157 0.250000
Si Si7 0.806273 0.080074 0.471595
O O1 0.576144 0.812044 0.604529
O O2 0.449146 0.729363 0.686090
O O3 0.486605 0.714758 0.440648
O O4 0.541915 0.685454 0.668194
O O5 0.666325 0.722201 0.153045
O O6 0.698314 0.838649 0.018307
O O7 0.623188 0.722888 0.885969
O O8 0.087881 0.087881 0.250000
O O9 0.088727 0.122502 0.525102
O O10 0.203166 0.157654 0.385451
O O11 0.260257 0.619430 0.873180
O O12 0.622230 0.622230 0.750000
O O13 0.739170 0.669839 0.884815
O O14 0.741198 0.786553 0.369779
#
# Coordination Sequence:
#
# PCOD9578907 Si02
#       7
#    12  12  12  12  12   6  12
#     4  11  21  40  65 100 138 176 220 283 335 389
#     4  11  24  39  63  94 128 168 217 276 341 394
#     4  12  28  44  61  77 105 147 201 267 338 412
#     4  10  22  39  69 107 136 176 224 277 327 370
#     4  11  22  40  60  92 134 176 212 271 332 404
#     4  12  24  38  62  90 122 166 226 274 330 428
#     4  11  24  39  62  85 117 155 213 276 339 391
#
# _framework density 19.408383000000001
#
# number of rings (size 3 to 8) (size 9 to 14) (size 15 to 20)
#    0.308    0.615    3.077    4.769    8.615    0.000 
#    0.000    0.000    0.000    0.923    4.000    0.000 
#    0.000    0.000    0.000    0.000    0.000    0.000 
#
# Total GULP energy -435167.483387 kJ/mol
# GULP energy per Si atom -5579.070300 kJ/mol
# Density = 1.936421 g / cm^3
# Si number density = 19.408383 Si / 1000 Ang^3
#
#
#
# Elastic Constant Matrix: (Units=GPa)
#
#
# Indices 1 2 3 4 5 6 
#
# 1 55.8513 25.8155 13.3210 -5.4352 0.0000 0.0000
# 2 25.8155 55.8513 13.3210 5.4352 0.0000 0.0000
# 3 13.3210 13.3210 46.2408 0.0000 0.0000 0.0000
# 4 -5.4352 5.4352 0.0000 30.6911 0.0000 0.0000
# 5 0.0000 0.0000 0.0000 0.0000 30.6911 -5.4352
# 6 0.0000 0.0000 0.0000 0.0000 -5.4352 15.0179
#
#
#
# Elastic Compliance Matrix: (Units=1/GPa)
#
#
# Indices 1 2 3 4 5 6 
#
# 1 0.024544 -0.011029 -0.003893 0.006300 0.000000 0.000000
# 2 -0.011029 0.024544 -0.003893 -0.006300 0.000000 0.000000
# 3 -0.003893 -0.003893 0.023869 0.000000 0.000000 0.000000
# 4 0.006300 -0.006300 0.000000 0.034814 0.000000 0.000000
# 5 0.000000 0.000000 0.000000 0.000000 0.034814 0.012600
# 6 0.000000 0.000000 0.000000 0.000000 0.012600 0.071147
#
#
# Mechanical properties :
#
#
# Convention : Reuss Voigt Hill
#
# Bulk Modulus (GPa) = 28.30809 29.20650 28.75730
# Shear Modulus (GPa) = 19.00123 22.31239 20.65681
#
# Velocity S-wave (km/s) = 3.13233 3.39429 3.26594
# Velocity P-wave (km/s) = 5.26300 5.51749 5.39174
#
# Compressibility (1/GPa) = 0.03532559
#
# Stress axis : x y z
#
# Youngs Moduli (GPa) = 40.74259 40.74259 41.89511
#
# Poissons Ratio (x) = 0.44936 0.16311
# Poissons Ratio (y) = 0.44936 0.16311
# Poissons Ratio (z) = 0.15863 0.15863
#
# Static dielectric constant tensor:
#      x y z
#    x 1.692070 0.000000 0.000000 
#    y 0.000000 1.692070 0.000000 
#    z 0.000000 0.000000 1.669530 
# 
# From -- ./inp_files/811.got.cif
#   From: 2010.05.17/outbox.cif.g08.bks.cpg/sg165_1_cif.got.tgz:811.got - 2010.05.20 11:02:39.
