data_PCOD9578533
_publ_section_title
;
Structure prediction by ZEFSAII (Michael W. Deem and Ramdas Pophale) SiO2 
 PCOD9578533
Probable space group: P -3 M 1
;
_chemical_formula_sum "Si O2"
_cell_formula_units_Z 54
_cell_length_a 13.463692
_cell_length_b 13.463692
_cell_length_c 23.007902
_cell_angle_alpha 90.000000
_cell_angle_beta 90.000000
_cell_angle_gamma 120.000000
_cell_volume 3611.902235
_symmetry_space_group_name_H-M "P -3 M 1"
_symmetry_group_IT_number 164
_symmetry_cell_setting 'hexagonal'
loop_
_space_group_symop_operation_xyz
x,y,z
-y,x-y,z
-x+y,-x,z
x-y,-y,-z
-x,-x+y,-z
y,x,-z
-x,-y,-z
y,-x+y,-z
x-y,x,-z
-x+y,y,z
x,x-y,z
-y,-x,z
loop_
_atom_site_type_symbol
_atom_site_label
_atom_site_fract_x
_atom_site_fract_y
_atom_site_fract_z
Si Si1 0.099479 0.666205 0.905119
Si Si2 0.762552 0.762552 0.000000
Si Si3 0.431665 0.333085 0.679568
Si Si4 0.567062 0.666889 0.769543
Si Si5 0.333107 0.431254 0.454427
O O1 0.087604 0.543802 0.920343
O O2 0.232364 0.767637 0.910335
O O3 0.067108 0.662644 0.837332
O O4 0.026883 0.702999 0.945911
O O5 0.886926 0.773852 0.990974
O O6 0.428077 0.214038 0.689188
O O7 0.561458 0.438543 0.685872
O O8 0.356229 0.355015 0.725653
O O9 0.397078 0.335921 0.612614
O O10 0.574320 0.787160 0.758495
O O11 0.437043 0.562958 0.761290
O O12 0.354605 0.354605 0.500000
O O13 0.214173 0.428346 0.464089
O O14 0.439135 0.560866 0.461117
#
# Coordination Sequence:
#
# PCOD9578533 Si02
#       5
#    12   6  12  12  12
#     4   9  17  30  48  68  89 114 144 179 219 262
#     4  10  20  32  46  64  88 118 150 184 220 258
#     4   9  17  29  45  64  87 116 147 178 212 253
#     4   9  17  29  46  68  92 116 142 175 217 262
#     4   9  17  29  45  65  88 114 144 178 217 259
#
# _framework density 14.950570000000001
#
# number of rings (size 3 to 8) (size 9 to 14) (size 15 to 20)
#    0.000    2.889    0.000    1.333    0.000    5.333 
#    0.000    0.000    0.000    3.778    0.000    0.000 
#    0.000    0.000    0.000    0.000    0.000    0.000 
#
# Total GULP energy -300794.638454 kJ/mol
# GULP energy per Si atom -5570.271082 kJ/mol
# Density = 1.491654 g / cm^3
# Si number density = 14.950570 Si / 1000 Ang^3
#
#
#
# Elastic Constant Matrix: (Units=GPa)
#
#
# Indices 1 2 3 4 5 6 
#
# 1 97.7961 60.5772 80.1903 0.7636 0.0000 0.0000
# 2 60.5772 97.7961 80.1903 -0.7636 0.0000 0.0000
# 3 80.1903 80.1903 106.7559 0.0000 0.0000 0.0000
# 4 0.7636 -0.7636 0.0000 26.1543 0.0000 0.0000
# 5 0.0000 0.0000 0.0000 0.0000 26.1543 0.7636
# 6 0.0000 0.0000 0.0000 0.0000 0.7636 18.6094
#
#
#
# Elastic Compliance Matrix: (Units=1/GPa)
#
#
# Indices 1 2 3 4 5 6 
#
# 1 0.026642 -0.000258 -0.019818 -0.000785 0.000000 0.000000
# 2 -0.000258 0.026642 -0.019818 0.000785 0.000000 0.000000
# 3 -0.019818 -0.019818 0.039140 0.000000 0.000000 0.000000
# 4 -0.000785 0.000785 0.000000 0.038280 0.000000 0.000000
# 5 0.000000 0.000000 0.000000 0.000000 0.038280 -0.001571
# 6 0.000000 0.000000 0.000000 0.000000 -0.001571 0.053801
#
#
# Mechanical properties :
#
#
# Convention : Reuss Voigt Hill
#
# Bulk Modulus (GPa) = 79.14719 82.69596 80.92158
# Shear Modulus (GPa) = 16.29795 19.60963 17.95379
#
# Velocity S-wave (km/s) = 3.30528 3.62557 3.46913
# Velocity P-wave (km/s) = 8.22318 8.54163 8.38392
#
# Compressibility (1/GPa) = 0.01263469
#
# Stress axis : x y z
#
# Youngs Moduli (GPa) = 37.53476 37.53476 25.54908
#
# Poissons Ratio (x) = 0.00970 0.50634
# Poissons Ratio (y) = 0.00970 0.50634
# Poissons Ratio (z) = 0.74387 0.74387
#
# Static dielectric constant tensor:
#      x y z
#    x 1.470950 0.000000 0.000000 
#    y 0.000000 1.470950 0.000000 
#    z 0.000000 0.000000 1.498290 
# 
# From -- ./inp_files/4854.got.cif
#   From: 2010.05.17/outbox.cif.g08.bks.cpg/sg164_3_cif.got.tgz:4854.got - 2010.05.20 10:58:56.
