data_PCOD9578550
_publ_section_title
;
Structure prediction by ZEFSAII (Michael W. Deem and Ramdas Pophale) SiO2 
 PCOD9578550
Probable space group: P -3 M 1
;
_chemical_formula_sum "Si O2"
_cell_formula_units_Z 72
_cell_length_a 12.848661
_cell_length_b 12.848661
_cell_length_c 31.205095
_cell_angle_alpha 90.000000
_cell_angle_beta 90.000000
_cell_angle_gamma 120.000000
_cell_volume 4461.407391
_symmetry_space_group_name_H-M "P -3 M 1"
_symmetry_group_IT_number 164
_symmetry_cell_setting 'hexagonal'
loop_
_space_group_symop_operation_xyz
x,y,z
-y,x-y,z
-x+y,-x,z
x-y,-y,-z
-x,-x+y,-z
y,x,-z
-x,-y,-z
y,-x+y,-z
x-y,x,-z
-x+y,y,z
x,x-y,z
-y,-x,z
loop_
_atom_site_type_symbol
_atom_site_label
_atom_site_fract_x
_atom_site_fract_y
_atom_site_fract_z
Si Si1 0.913808 0.580346 0.078360
Si Si2 0.000000 0.752335 0.000000
Si Si3 0.912940 0.333155 0.176181
Si Si4 0.914016 0.580481 0.663484
Si Si5 0.247003 0.000000 0.500000
Si Si6 0.666741 0.086299 0.418238
Si Si7 0.246685 0.247289 0.255184
O O1 0.778075 0.556150 0.074447
O O2 0.915191 0.457596 0.072022
O O3 0.953229 0.621972 0.127323
O O4 0.990307 0.676407 0.042289
O O5 0.881927 0.763855 0.998258
O O6 0.919603 0.459802 0.183471
O O7 0.774901 0.225100 0.179199
O O8 0.985307 0.306136 0.211826
O O9 0.785734 0.571468 0.656114
O O10 0.898408 0.449204 0.669902
O O11 0.972882 0.663055 0.705143
O O12 0.001015 0.639785 0.622852
O O13 0.305011 0.971870 0.540917
O O14 0.117172 0.882829 0.492345
O O15 0.548937 0.097874 0.425844
O O16 0.783419 0.216582 0.410854
O O17 0.112698 0.225396 0.251688
O O18 0.244854 0.122427 0.262099
#
# Coordination Sequence:
#
# PCOD9578550 Si02
#       7
#    12   6  12  12   6  12  12
#     4   9  17  30  49  71  93 118 151 193 239 283
#     4  10  20  32  46  66  94 128 162 194 230 276
#     4   9  17  30  49  72  95 119 150 191 238 284
#     4  10  20  34  52  73  97 126 161 201 244 289
#     4  10  20  34  52  74 100 130 164 200 238 282
#     4  10  20  34  52  74 100 129 161 198 241 288
#     4  10  20  33  49  70  97 129 163 197 233 276
#
# _framework density 16.138404000000001
#
# number of rings (size 3 to 8) (size 9 to 14) (size 15 to 20)
#    0.000    2.333    0.000    3.000    0.000    2.000 
#    0.000    0.000    0.000   18.667    0.000    0.000 
#    0.000    0.000    0.000    0.000    0.000    0.000 
#
# Total GULP energy -401604.650164 kJ/mol
# GULP energy per Si atom -5577.842363 kJ/mol
# Density = 1.610167 g / cm^3
# Si number density = 16.138404 Si / 1000 Ang^3
#
#
#
# Elastic Constant Matrix: (Units=GPa)
#
#
# Indices 1 2 3 4 5 6 
#
# 1 116.9135 76.0238 88.1277 3.1685 0.0000 0.0000
# 2 76.0238 116.9135 88.1277 -3.1685 0.0000 0.0000
# 3 88.1277 88.1277 127.8972 0.0000 0.0000 0.0000
# 4 3.1685 -3.1685 0.0000 27.5256 0.0000 0.0000
# 5 0.0000 0.0000 0.0000 0.0000 27.5256 3.1685
# 6 0.0000 0.0000 0.0000 0.0000 3.1685 20.4449
#
#
#
# Elastic Compliance Matrix: (Units=1/GPa)
#
#
# Indices 1 2 3 4 5 6 
#
# 1 0.019444 -0.005456 -0.009639 -0.002866 0.000000 0.000000
# 2 -0.005456 0.019444 -0.009639 0.002866 0.000000 0.000000
# 3 -0.009639 -0.009639 0.021102 0.000000 0.000000 0.000000
# 4 -0.002866 0.002866 0.000000 0.036990 0.000000 0.000000
# 5 0.000000 0.000000 0.000000 0.000000 0.036990 -0.005733
# 6 0.000000 0.000000 0.000000 0.000000 -0.005733 0.049800
#
#
# Mechanical properties :
#
#
# Convention : Reuss Voigt Hill
#
# Bulk Modulus (GPa) = 95.02258 96.25363 95.63811
# Shear Modulus (GPa) = 21.11979 22.39554 21.75767
#
# Velocity S-wave (km/s) = 3.62147 3.72925 3.67576
# Velocity P-wave (km/s) = 8.74611 8.84958 8.79800
#
# Compressibility (1/GPa) = 0.01052381
#
# Stress axis : x y z
#
# Youngs Moduli (GPa) = 51.42905 51.42905 47.38930
#
# Poissons Ratio (x) = 0.28060 0.45677
# Poissons Ratio (y) = 0.28060 0.45677
# Poissons Ratio (z) = 0.49571 0.49571
#
# Static dielectric constant tensor:
#      x y z
#    x 1.510730 0.000000 0.000000 
#    y 0.000000 1.510730 0.000000 
#    z 0.000000 0.000000 1.528710 
# 
# From -- ./inp_files/5570.got.cif
#   From: 2010.05.17/outbox.cif.g08.bks.cpg/sg164_3_cif.got.tgz:5570.got - 2010.05.20 10:58:56.
