data_PCOD9578283
_publ_section_title
;
Structure prediction by ZEFSAII (Michael W. Deem and Ramdas Pophale) SiO2 
 PCOD9578283
Probable space group: P -3 1 C
;
_chemical_formula_sum "Si O2"
_cell_formula_units_Z 32
_cell_length_a 11.566517
_cell_length_b 11.566517
_cell_length_c 13.788377
_cell_angle_alpha 90.000000
_cell_angle_beta 90.000000
_cell_angle_gamma 120.000000
_cell_volume 1597.529851
_symmetry_space_group_name_H-M "P -3 1 C"
_symmetry_group_IT_number 163
_symmetry_cell_setting 'hexagonal'
loop_
_space_group_symop_operation_xyz
x,y,z
-y,x-y,z
-x+y,-x,z
-y,-x,1/2-z
-x+y,y,1/2-z
x,x-y,1/2-z
-x,-y,-z
y,-x+y,-z
x-y,x,-z
y,x,1/2+z
x-y,-y,1/2+z
-x,-x+y,1/2+z
loop_
_atom_site_type_symbol
_atom_site_label
_atom_site_fract_x
_atom_site_fract_y
_atom_site_fract_z
Si Si1 0.306754 0.165952 0.641694
Si Si2 0.426866 0.079793 0.465806
Si Si3 0.000000 0.000000 0.384516
Si Si4 0.333335 0.666668 0.865815
O O1 0.363912 0.181956 0.750000
O O2 0.377193 0.121780 0.561521
O O3 0.315667 0.300668 0.601216
O O4 0.151228 0.052775 0.646354
O O5 0.530745 0.210621 0.407414
O O6 0.500000 0.000000 0.500000
O O7 0.000000 0.000000 0.500000
O O8 0.333334 0.666667 0.750000
#
# Coordination Sequence:
#
# PCOD9578283 Si02
#       4
#    12  12   4   4
#     4  12  26  44  78 105 142 187 231 294 364 426
#     4  12  26  49  68 105 149 182 241 293 342 429
#     4  12  22  44  70 109 140 172 229 302 358 409
#     4  12  30  48  73 101 142 195 240 294 361 419
#
# _framework density 20.030925
#
# number of rings (size 3 to 8) (size 9 to 14) (size 15 to 20)
#    0.000    0.000    7.500    1.125    5.250    0.000 
#    0.000    0.000    0.000    0.000    0.000    0.000 
#    0.000    0.000    0.000    0.000    0.000    0.000 
#
# Total GULP energy -179145.490107 kJ/mol
# GULP energy per Si atom -5598.296566 kJ/mol
# Density = 1.998533 g / cm^3
# Si number density = 20.030925 Si / 1000 Ang^3
#
#
#
# Elastic Constant Matrix: (Units=GPa)
#
#
# Indices 1 2 3 4 5 6 
#
# 1 127.2080 48.5827 74.2718 0.0003 1.0431 0.0001
# 2 48.5827 127.2072 74.2711 0.0001 -1.0431 -0.0005
# 3 74.2718 74.2711 235.0783 0.0005 0.0002 -0.0003
# 4 0.0003 0.0001 0.0005 -0.8678 -0.0001 -1.0432
# 5 1.0431 -1.0431 0.0002 -0.0001 -0.8676 -0.0001
# 6 0.0001 -0.0005 -0.0003 -1.0432 -0.0001 39.3122
#
#
#
# Elastic Compliance Matrix: (Units=1/GPa)
#
#
# Indices 1 2 3 4 5 6 
#
# 1 0.010043 -0.002283 -0.002452 -0.000001 0.014817 0.000000
# 2 -0.002283 0.010043 -0.002452 0.000001 -0.014818 0.000000
# 3 -0.002452 -0.002452 0.005803 0.000002 0.000001 0.000000
# 4 -0.000001 0.000001 0.000002 -1.116686 0.000167 -0.029632
# 5 0.014817 -0.014818 0.000001 0.000167 -1.116936 0.000002
# 6 0.000000 0.000000 0.000000 -0.029632 0.000002 0.024651
#
#
# Mechanical properties :
#
#
# Convention : Reuss Voigt Hill
#
# Bulk Modulus (GPa) = 86.83108 98.19384 92.51246
# Shear Modulus (GPa) = -2.30961 27.00655 12.34847
#
# Velocity S-wave (km/s) = -1.07495 3.67583 2.48558
# Velocity P-wave (km/s) = 6.47317 8.19409 7.38394
#
# Compressibility (1/GPa) = 0.01151661
#
# Stress axis : x y z
#
# Youngs Moduli (GPa) = 99.57254 99.57241 172.31891
#
# Poissons Ratio (x) = 0.22728 0.42251
# Poissons Ratio (y) = 0.22728 0.42250
# Poissons Ratio (z) = 0.24414 0.24413
#
# Static dielectric constant tensor:
#      x y z
#    x 1.689130 0.000000 0.000000 
#    y 0.000000 1.689130 0.000000 
#    z 0.000000 0.000000 1.707230 
# 
# From -- ./inp_files/2038.got.cif
#   From: 2010.05.17/outbox.cif.g08.bks.cpg/sg163_2_cif.got.tgz:2038.got - 2010.05.20 10:56:03.
