data_PCOD9578544
_publ_section_title
;
Structure prediction by ZEFSAII (Michael W. Deem and Ramdas Pophale) SiO2 
 PCOD9578544
Probable space group: P -3 M 1
;
_chemical_formula_sum "Si O2"
_cell_formula_units_Z 60
_cell_length_a 12.883756
_cell_length_b 12.883756
_cell_length_c 25.971853
_cell_angle_alpha 90.000000
_cell_angle_beta 90.000000
_cell_angle_gamma 120.000000
_cell_volume 3733.520587
_symmetry_space_group_name_H-M "P -3 M 1"
_symmetry_group_IT_number 164
_symmetry_cell_setting 'hexagonal'
loop_
_space_group_symop_operation_xyz
x,y,z
-y,x-y,z
-x+y,-x,z
x-y,-y,-z
-x,-x+y,-z
y,x,-z
-x,-y,-z
y,-x+y,-z
x-y,x,-z
-x+y,y,z
x,x-y,z
-y,-x,z
loop_
_atom_site_type_symbol
_atom_site_label
_atom_site_fract_x
_atom_site_fract_y
_atom_site_fract_z
Si Si1 0.421271 0.087548 0.906434
Si Si2 0.332938 0.420459 0.211597
Si Si3 0.578981 0.912578 0.694956
Si Si4 0.000000 0.753408 0.000000
Si Si5 0.246286 0.246286 0.500000
Si Si6 0.912824 0.579770 0.597774
O O1 0.541701 0.083401 0.915518
O O2 0.447900 0.223950 0.910238
O O3 0.381503 0.048955 0.847446
O O4 0.323516 0.012476 0.949260
O O5 0.207739 0.415477 0.221851
O O6 0.442320 0.557680 0.215665
O O7 0.360115 0.345514 0.252928
O O8 0.440830 0.881660 0.695935
O O9 0.587394 0.793697 0.690073
O O10 0.640459 0.002338 0.647156
O O11 0.882379 0.764758 0.003185
O O12 0.116858 0.233715 0.509565
O O13 0.333265 0.303876 0.548915
O O14 0.782328 0.564655 0.606795
O O15 0.902325 0.451163 0.588590
#
# Coordination Sequence:
#
# PCOD9578544 Si02
#       6
#    12  12  12   6   6  12
#     4   9  17  30  49  72  95 119 150 192 241 288
#     4   9  17  30  50  74  97 121 151 191 239 287
#     4  10  20  33  49  69  95 127 160 193 230 276
#     4  10  20  32  46  64  90 126 164 198 232 276
#     4  10  20  34  52  74 102 136 170 200 234 282
#     4  10  20  34  53  76 100 126 159 202 249 291
#
# _framework density 16.070623000000001
#
# number of rings (size 3 to 8) (size 9 to 14) (size 15 to 20)
#    0.000    2.400    0.000    2.800    0.000    2.400 
#    0.000    2.000    0.000   11.200    0.000    0.000 
#    0.000    0.000    0.000    0.000    0.000    0.000 
#
# Total GULP energy -334657.796989 kJ/mol
# GULP energy per Si atom -5577.629950 kJ/mol
# Density = 1.603405 g / cm^3
# Si number density = 16.070623 Si / 1000 Ang^3
#
#
#
# Elastic Constant Matrix: (Units=GPa)
#
#
# Indices 1 2 3 4 5 6 
#
# 1 114.9895 77.6340 81.6332 -0.3669 0.0000 0.0000
# 2 77.6340 114.9895 81.6332 0.3669 0.0000 0.0000
# 3 81.6332 81.6332 119.4358 0.0000 0.0000 0.0000
# 4 -0.3669 0.3669 0.0000 23.4365 0.0000 0.0000
# 5 0.0000 0.0000 0.0000 0.0000 23.4365 -0.3669
# 6 0.0000 0.0000 0.0000 0.0000 -0.3669 18.6778
#
#
#
# Elastic Compliance Matrix: (Units=1/GPa)
#
#
# Indices 1 2 3 4 5 6 
#
# 1 0.019559 -0.007219 -0.008435 0.000419 0.000000 0.000000
# 2 -0.007219 0.019559 -0.008435 -0.000419 0.000000 0.000000
# 3 -0.008435 -0.008435 0.019903 0.000000 0.000000 0.000000
# 4 0.000419 -0.000419 0.000000 0.042682 0.000000 0.000000
# 5 0.000000 0.000000 0.000000 0.000000 0.042682 0.000838
# 6 0.000000 0.000000 0.000000 0.000000 0.000838 0.053556
#
#
# Mechanical properties :
#
#
# Convention : Reuss Voigt Hill
#
# Bulk Modulus (GPa) = 92.20627 92.35729 92.28178
# Shear Modulus (GPa) = 20.02144 20.34446 20.18295
#
# Velocity S-wave (km/s) = 3.53348 3.56187 3.54770
# Velocity P-wave (km/s) = 8.61089 8.63193 8.62142
#
# Compressibility (1/GPa) = 0.01084525
#
# Stress axis : x y z
#
# Youngs Moduli (GPa) = 51.12633 51.12633 50.24403
#
# Poissons Ratio (x) = 0.36906 0.42380
# Poissons Ratio (y) = 0.36906 0.42380
# Poissons Ratio (z) = 0.43124 0.43124
#
# Static dielectric constant tensor:
#      x y z
#    x 1.507120 0.000000 0.000000 
#    y 0.000000 1.507120 0.000000 
#    z 0.000000 0.000000 1.535480 
# 
# From -- ./inp_files/5210.got.cif
#   From: 2010.05.17/outbox.cif.g08.bks.cpg/sg164_3_cif.got.tgz:5210.got - 2010.05.20 10:58:56.
