data_PCOD9578161
_publ_section_title
;
Structure prediction by ZEFSAII (Michael W. Deem and Ramdas Pophale) SiO2 
 PCOD9578161
Probable space group: P -3 1 C
;
_chemical_formula_sum "Si O2"
_cell_formula_units_Z 84
_cell_length_a 18.052246
_cell_length_b 18.052246
_cell_length_c 15.805676
_cell_angle_alpha 90.000000
_cell_angle_beta 90.000000
_cell_angle_gamma 120.000000
_cell_volume 4460.732629
_symmetry_space_group_name_H-M "P -3 1 C"
_symmetry_group_IT_number 163
_symmetry_cell_setting 'hexagonal'
loop_
_space_group_symop_operation_xyz
x,y,z
-y,x-y,z
-x+y,-x,z
-y,-x,1/2-z
-x+y,y,1/2-z
x,x-y,1/2-z
-x,-y,-z
y,-x+y,-z
x-y,x,-z
y,x,1/2+z
x-y,-y,1/2+z
-x,-x+y,1/2+z
loop_
_atom_site_type_symbol
_atom_site_label
_atom_site_fract_x
_atom_site_fract_y
_atom_site_fract_z
Si Si1 0.460350 0.372307 0.558133
Si Si2 0.067447 0.889705 0.031257
Si Si3 0.160729 0.161590 0.213921
Si Si4 0.185040 0.376192 0.994224
Si Si5 0.888059 0.247647 0.306532
Si Si6 0.598000 0.020778 0.739927
Si Si7 0.373831 0.927308 0.069065
O O1 0.437750 0.286008 0.508670
O O2 0.430391 0.352643 0.656958
O O3 0.408241 0.406980 0.502756
O O4 0.557713 0.451548 0.564117
O O5 0.011299 0.855921 0.114882
O O6 0.121858 0.842229 0.021801
O O7 0.991628 0.861508 0.962886
O O8 0.139748 0.069874 0.250000
O O9 0.263065 0.223172 0.222508
O O10 0.094997 0.189993 0.250000
O O11 0.144508 0.363242 0.901043
O O12 0.140931 0.418733 0.046972
O O13 0.806529 0.193472 0.250000
O O14 0.929315 0.346923 0.288767
O O15 0.510883 0.021766 0.750000
O O16 0.631903 0.041829 0.835962
#
# Coordination Sequence:
#
# PCOD9578161 Si02
#       7
#    12  12  12  12  12  12  12
#     4  10  21  41  65  93 127 164 209 257 324 395
#     4  12  24  39  59  85 120 171 215 262 318 368
#     4  11  24  40  58  80 120 167 218 265 310 367
#     4  12  23  41  64  94 129 163 217 271 323 391
#     4  11  23  40  60  93 124 161 211 272 319 373
#     4  10  21  41  67  91 124 163 210 253 322 394
#     4  10  22  40  66  93 124 169 207 262 325 385
#
# _framework density 18.830985999999999
#
# number of rings (size 3 to 8) (size 9 to 14) (size 15 to 20)
#    0.000    1.143    2.857    3.714    4.000    0.571 
#    0.857    0.000    0.000    0.286    0.000    0.000 
#    0.000    0.000    0.000    0.000    0.000    0.000 
#
# Total GULP energy -468244.644805 kJ/mol
# GULP energy per Si atom -5574.341010 kJ/mol
# Density = 1.878813 g / cm^3
# Si number density = 18.830986 Si / 1000 Ang^3
#
#
#
# Elastic Constant Matrix: (Units=GPa)
#
#
# Indices 1 2 3 4 5 6 
#
# 1 30.3246 24.7811 18.6107 -0.0002 -8.9806 0.0000
# 2 24.7811 30.3246 18.6107 0.0002 8.9806 0.0000
# 3 18.6107 18.6107 82.5884 0.0000 0.0000 0.0000
# 4 -0.0002 0.0002 0.0000 23.2320 0.0000 8.9806
# 5 -8.9806 8.9806 0.0000 0.0000 23.2320 -0.0002
# 6 0.0000 0.0000 0.0000 8.9806 -0.0002 2.7718
#
#
#
# Elastic Compliance Matrix: (Units=1/GPa)
#
#
# Indices 1 2 3 4 5 6 
#
# 1 -0.346541 0.367946 -0.004823 -0.000005 -0.276193 0.000000
# 2 0.367946 -0.346541 -0.004823 0.000005 0.276193 0.000000
# 3 -0.004823 -0.004823 0.014282 0.000000 0.000000 0.000000
# 4 -0.000005 0.000005 0.000000 -0.170488 0.000000 0.552387
# 5 -0.276193 0.276193 0.000000 0.000000 -0.170488 -0.000009
# 6 0.000000 0.000000 0.000000 0.552387 -0.000009 -1.428973
#
#
# Mechanical properties :
#
#
# Convention : Reuss Voigt Hill
#
# Bulk Modulus (GPa) = 26.45626 29.69362 28.07494
# Shear Modulus (GPa) = -1.58592 15.26280 6.83844
#
# Velocity S-wave (km/s) = -0.91870 2.85004 1.90771
# Velocity P-wave (km/s) = 3.59923 5.16072 4.44902
#
# Compressibility (1/GPa) = 0.03779824
#
# Stress axis : x y z
#
# Youngs Moduli (GPa) = -2.88566 -2.88566 70.01769
#
# Poissons Ratio (x) = 1.06177 0.33773
# Poissons Ratio (y) = 1.06177 0.33773
# Poissons Ratio (z) = -0.01392 -0.01392
#
# Static dielectric constant tensor:
#      x y z
#    x 1.678360 0.000000 0.000000 
#    y 0.000000 1.678360 0.000000 
#    z 0.000000 0.000000 1.756570 
# 
# From -- ./inp_files/2665.got.cif
#   From: 2010.05.17/outbox.cif.g08.bks.cpg/sg163_2_cif.got.tgz:2665.got - 2010.05.20 10:56:03.
