data_PCOD9578658
_publ_section_title
;
Structure prediction by ZEFSAII (Michael W. Deem and Ramdas Pophale) SiO2 
 PCOD9578658
Probable space group: P -3 M 1
;
_chemical_formula_sum "Si O2"
_cell_formula_units_Z 54
_cell_length_a 12.678192
_cell_length_b 12.678192
_cell_length_c 23.462298
_cell_angle_alpha 90.000000
_cell_angle_beta 90.000000
_cell_angle_gamma 120.000000
_cell_volume 3265.997344
_symmetry_space_group_name_H-M "P -3 M 1"
_symmetry_group_IT_number 164
_symmetry_cell_setting 'hexagonal'
loop_
_space_group_symop_operation_xyz
x,y,z
-y,x-y,z
-x+y,-x,z
x-y,-y,-z
-x,-x+y,-z
y,x,-z
-x,-y,-z
y,-x+y,-z
x-y,x,-z
-x+y,y,z
x,x-y,z
-y,-x,z
loop_
_atom_site_type_symbol
_atom_site_label
_atom_site_fract_x
_atom_site_fract_y
_atom_site_fract_z
Si Si1 0.917525 0.333386 0.888793
Si Si2 0.333595 0.415809 0.555790
Si Si3 0.749148 0.000000 0.000000
Si Si4 0.749410 0.999514 0.666651
Si Si5 0.917787 0.584246 0.222568
O O1 0.903936 0.451968 0.896452
O O2 0.786556 0.213445 0.880561
O O3 0.977741 0.311512 0.944538
O O4 0.001755 0.356717 0.833705
O O5 0.356475 0.356475 0.500000
O O6 0.213795 0.427590 0.548596
O O7 0.452240 0.547761 0.564118
O O8 0.311783 0.331829 0.610789
O O9 0.761497 0.880749 0.992158
O O10 0.871097 0.128904 0.666387
O O11 0.780142 0.890071 0.666673
O O12 0.669103 0.980713 0.722772
O O13 0.785548 0.571095 0.216017
O O14 0.905874 0.452937 0.230999
#
# Coordination Sequence:
#
# PCOD9578658 Si02
#       5
#    12  12   6  12  12
#     4  10  20  34  52  74 101 133 168 206 249 298
#     4  10  20  34  53  76 103 135 170 209 252 299
#     4  10  20  34  52  74 100 130 166 208 254 302
#     4  10  20  34  52  74 100 130 165 205 249 296
#     4  10  20  34  53  76 102 132 166 205 248 295
#
# _framework density 16.533999000000001
#
# number of rings (size 3 to 8) (size 9 to 14) (size 15 to 20)
#    0.000    2.000    0.000    4.000    0.000    0.000 
#    0.000    2.222    0.000   24.000    0.000    0.000 
#    0.000    0.000    0.000    0.000    0.000    0.000 
#
# Total GULP energy -301509.724830 kJ/mol
# GULP energy per Si atom -5583.513423 kJ/mol
# Density = 1.649637 g / cm^3
# Si number density = 16.533999 Si / 1000 Ang^3
#
#
#
# Elastic Constant Matrix: (Units=GPa)
#
#
# Indices 1 2 3 4 5 6 
#
# 1 148.7274 109.4296 111.1579 2.5946 0.0000 0.0000
# 2 109.4296 148.7274 111.1579 -2.5946 0.0000 0.0000
# 3 111.1579 111.1579 159.9336 0.0000 0.0000 0.0000
# 4 2.5946 -2.5946 0.0000 26.0839 0.0000 0.0000
# 5 0.0000 0.0000 0.0000 0.0000 26.0839 2.5946
# 6 0.0000 0.0000 0.0000 0.0000 2.5946 19.6489
#
#
#
# Elastic Compliance Matrix: (Units=1/GPa)
#
#
# Indices 1 2 3 4 5 6 
#
# 1 0.017717 -0.008068 -0.006706 -0.002565 0.000000 0.000000
# 2 -0.008068 0.017717 -0.006706 0.002565 0.000000 0.000000
# 3 -0.006706 -0.006706 0.015574 0.000000 0.000000 0.000000
# 4 -0.002565 0.002565 0.000000 0.038848 0.000000 0.000000
# 5 0.000000 0.000000 0.000000 0.000000 0.038848 -0.005130
# 6 0.000000 0.000000 0.000000 0.000000 -0.005130 0.051571
#
#
# Mechanical properties :
#
#
# Convention : Reuss Voigt Hill
#
# Bulk Modulus (GPa) = 124.26343 124.54215 124.40279
# Shear Modulus (GPa) = 22.13185 22.73954 22.43569
#
# Velocity S-wave (km/s) = 3.66261 3.71255 3.68767
# Velocity P-wave (km/s) = 9.65431 9.68844 9.67139
#
# Compressibility (1/GPa) = 0.00804742
#
# Stress axis : x y z
#
# Youngs Moduli (GPa) = 56.44288 56.44288 64.20819
#
# Poissons Ratio (x) = 0.45540 0.43058
# Poissons Ratio (y) = 0.45540 0.43058
# Poissons Ratio (z) = 0.37851 0.37851
#
# Static dielectric constant tensor:
#      x y z
#    x 1.523750 0.000000 0.000000 
#    y 0.000000 1.523750 0.000000 
#    z 0.000000 0.000000 1.531150 
# 
# From -- ./inp_files/4841.got.cif
#   From: 2010.05.17/outbox.cif.g08.bks.cpg/sg164_3_cif.got.tgz:4841.got - 2010.05.20 10:58:56.
