data_PCOD9578731
_publ_section_title
;
Structure prediction by ZEFSAII (Michael W. Deem and Ramdas Pophale) SiO2 
 PCOD9578731
Probable space group: P -3 M 1
;
_chemical_formula_sum "Si O2"
_cell_formula_units_Z 72
_cell_length_a 23.048398
_cell_length_b 23.048398
_cell_length_c 9.402305
_cell_angle_alpha 90.000000
_cell_angle_beta 90.000000
_cell_angle_gamma 120.000000
_cell_volume 4325.600993
_symmetry_space_group_name_H-M "P -3 M 1"
_symmetry_group_IT_number 164
_symmetry_cell_setting 'hexagonal'
loop_
_space_group_symop_operation_xyz
x,y,z
-y,x-y,z
-x+y,-x,z
x-y,-y,-z
-x,-x+y,-z
y,x,-z
-x,-y,-z
y,-x+y,-z
x-y,x,-z
-x+y,y,z
x,x-y,z
-y,-x,z
loop_
_atom_site_type_symbol
_atom_site_label
_atom_site_fract_x
_atom_site_fract_y
_atom_site_fract_z
Si Si1 0.390806 0.478833 0.871204
Si Si2 0.295656 0.930868 0.415172
Si Si3 0.779530 0.820572 0.353703
Si Si4 0.387425 0.128893 0.284523
Si Si5 0.468873 0.071011 0.805589
Si Si6 0.247432 0.192043 0.119215
O O1 0.444114 0.555887 0.844100
O O2 0.328203 0.445636 0.770048
O O3 0.429331 0.437941 0.837692
O O4 0.370923 0.471718 0.037587
O O5 0.237712 0.939018 0.337164
O O6 0.260588 0.881009 0.546393
O O7 0.340537 0.914913 0.308943
O O8 0.343813 0.000000 0.500000
O O9 0.803670 0.803670 0.500000
O O10 0.784455 0.892228 0.354682
O O11 0.822358 0.810795 0.231830
O O12 0.404072 0.202036 0.245076
O O13 0.317363 0.080281 0.203628
O O14 0.544347 0.088693 0.762565
O O15 0.245917 0.122959 0.074137
O O16 0.234539 0.234539 0.000000
#
# Coordination Sequence:
#
# PCOD9578731 Si02
#       6
#    12  12  12  12  12  12
#     4   9  18  33  52  76 109 140 171 208 250 303
#     4  11  19  31  49  75 110 142 170 211 259 319
#     4  11  21  36  56  76 102 139 181 226 277 332
#     4  11  22  35  52  79 111 142 182 225 264 312
#     4   9  18  31  51  79 109 141 168 199 251 316
#     4  11  23  38  55  77 104 137 178 227 283 339
#
# _framework density 16.645085999999999
#
# number of rings (size 3 to 8) (size 9 to 14) (size 15 to 20)
#    0.000    1.667    5.000    2.500    4.667    1.000 
#    0.000    0.833    0.000    7.000    0.000    0.000 
#    0.000    1.333    0.000    0.000    0.000    0.000 
#
# Total GULP energy -401164.522744 kJ/mol
# GULP energy per Si atom -5571.729483 kJ/mol
# Density = 1.660720 g / cm^3
# Si number density = 16.645086 Si / 1000 Ang^3
#
#
#
# Elastic Constant Matrix: (Units=GPa)
#
#
# Indices 1 2 3 4 5 6 
#
# 1 55.8173 30.2301 19.2858 -2.8984 0.0000 0.0000
# 2 30.2301 55.8173 19.2858 2.8984 0.0000 0.0000
# 3 19.2858 19.2858 47.0241 0.0000 0.0000 0.0000
# 4 -2.8984 2.8984 0.0000 20.1056 0.0000 0.0000
# 5 0.0000 0.0000 0.0000 0.0000 20.1056 -2.8984
# 6 0.0000 0.0000 0.0000 0.0000 -2.8984 12.7936
#
#
#
# Elastic Compliance Matrix: (Units=1/GPa)
#
#
# Indices 1 2 3 4 5 6 
#
# 1 0.027320 -0.013081 -0.005840 0.005824 0.000000 0.000000
# 2 -0.013081 0.027320 -0.005840 -0.005824 0.000000 0.000000
# 3 -0.005840 -0.005840 0.026056 0.000000 0.000000 0.000000
# 4 0.005824 -0.005824 0.000000 0.051417 0.000000 0.000000
# 5 0.000000 0.000000 0.000000 0.000000 0.051417 0.011648
# 6 0.000000 0.000000 0.000000 0.000000 0.011648 0.080803
#
#
# Mechanical properties :
#
#
# Convention : Reuss Voigt Hill
#
# Bulk Modulus (GPa) = 32.07715 32.91803 32.49759
# Shear Modulus (GPa) = 15.42039 16.59143 16.00591
#
# Velocity S-wave (km/s) = 3.04702 3.16060 3.10433
# Velocity P-wave (km/s) = 5.62958 5.75661 5.69345
#
# Compressibility (1/GPa) = 0.03117484
#
# Stress axis : x y z
#
# Youngs Moduli (GPa) = 36.60271 36.60271 38.37903
#
# Poissons Ratio (x) = 0.47880 0.22413
# Poissons Ratio (y) = 0.47880 0.22413
# Poissons Ratio (z) = 0.21376 0.21376
#
# Static dielectric constant tensor:
#      x y z
#    x 1.569870 0.000000 0.000000 
#    y 0.000000 1.569870 0.000000 
#    z 0.000000 0.000000 1.613990 
# 
# From -- ./inp_files/1892.got.cif
#   From: 2010.05.17/outbox.cif.g08.bks.cpg/sg164_1_cif.got.tgz:1892.got - 2010.05.20 10:58:56.
