data_PCOD9578192
_publ_section_title
;
Structure prediction by ZEFSAII (Michael W. Deem and Ramdas Pophale) SiO2 
 PCOD9578192
Probable space group: P -3 1 C
;
_chemical_formula_sum "Si O2"
_cell_formula_units_Z 30
_cell_length_a 8.548680
_cell_length_b 8.548680
_cell_length_c 21.178224
_cell_angle_alpha 90.000000
_cell_angle_beta 90.000000
_cell_angle_gamma 120.000000
_cell_volume 1340.350221
_symmetry_space_group_name_H-M "P -3 1 C"
_symmetry_group_IT_number 163
_symmetry_cell_setting 'hexagonal'
loop_
_space_group_symop_operation_xyz
x,y,z
-y,x-y,z
-x+y,-x,z
-y,-x,1/2-z
-x+y,y,1/2-z
x,x-y,1/2-z
-x,-y,-z
y,-x+y,-z
x-y,x,-z
y,x,1/2+z
x-y,-y,1/2+z
-x,-x+y,1/2+z
loop_
_atom_site_type_symbol
_atom_site_label
_atom_site_fract_x
_atom_site_fract_y
_atom_site_fract_z
Si Si1 0.310926 0.975807 0.622952
Si Si2 0.000000 0.000000 0.926578
Si Si3 0.666668 0.333335 0.608447
Si Si4 0.429763 0.214882 0.250000
Si Si5 0.333335 0.666668 0.545083
O O1 0.199229 0.870441 0.685566
O O2 0.312069 0.829484 0.574989
O O3 0.201635 0.065914 0.595068
O O4 0.514483 0.136520 0.632153
O O5 0.000000 0.000000 0.000000
O O6 0.666668 0.333334 0.531032
O O7 0.569918 0.139835 0.250000
#
# Coordination Sequence:
#
# PCOD9578192 Si02
#       5
#    12   4   4   6   4
#     4  12  24  45  72 107 143 193 235 294 359 420
#     4  12  27  46  71 109 150 186 244 296 358 429
#     4  12  27  42  74 110 141 186 247 284 358 435
#     4  10  22  46  72  92 142 176 232 290 354 420
#     4  12  21  46  73 103 151 189 229 302 355 417
#
# _framework density 22.382207999999999
#
# number of rings (size 3 to 8) (size 9 to 14) (size 15 to 20)
#    0.400    0.000    4.000    6.000    0.000    1.600 
#    0.000    0.000    0.000    0.000    0.000    0.000 
#    0.000    0.000    0.000    0.000    0.000    0.000 
#
# Total GULP energy -167569.960090 kJ/mol
# GULP energy per Si atom -5585.665336 kJ/mol
# Density = 2.233127 g / cm^3
# Si number density = 22.382208 Si / 1000 Ang^3
#
#
#
# Elastic Constant Matrix: (Units=GPa)
#
#
# Indices 1 2 3 4 5 6 
#
# 1 78.8594 16.7225 32.9614 0.0000 15.0143 -0.0001
# 2 16.7225 78.8585 32.9619 0.0000 -15.0143 -0.0007
# 3 32.9614 32.9619 152.2253 0.0006 0.0004 0.0004
# 4 0.0000 0.0000 0.0006 18.7272 -0.0002 -15.0143
# 5 15.0143 -15.0143 0.0004 -0.0002 18.7274 0.0001
# 6 -0.0001 -0.0007 0.0004 -15.0143 0.0001 31.0678
#
#
#
# Elastic Compliance Matrix: (Units=1/GPa)
#
#
# Indices 1 2 3 4 5 6 
#
# 1 0.019286 -0.006987 -0.002663 0.000000 -0.021064 0.000000
# 2 -0.006987 0.019286 -0.002663 0.000001 0.021064 0.000001
# 3 -0.002663 -0.002663 0.007723 -0.000001 0.000000 0.000000
# 4 0.000000 0.000001 -0.000001 0.087175 0.000002 0.042129
# 5 -0.021064 0.021064 0.000000 0.000002 0.087173 0.000001
# 6 0.000000 0.000001 0.000000 0.042129 0.000001 0.052548
#
#
# Mechanical properties :
#
#
# Convention : Reuss Voigt Hill
#
# Bulk Modulus (GPa) = 46.15082 52.80389 49.47735
# Shear Modulus (GPa) = 16.39129 28.85764 22.62447
#
# Velocity S-wave (km/s) = 2.70911 3.59459 3.18279
# Velocity P-wave (km/s) = 5.51814 6.39306 5.97165
#
# Compressibility (1/GPa) = 0.02166809
#
# Stress axis : x y z
#
# Youngs Moduli (GPa) = 51.85130 51.85011 129.49137
#
# Poissons Ratio (x) = 0.36228 0.34484
# Poissons Ratio (y) = 0.36229 0.34487
# Poissons Ratio (z) = 0.13808 0.13809
#
# Static dielectric constant tensor:
#      x y z
#    x 1.829490 -0.000010 0.000010 
#    y -0.000010 1.829480 0.000020 
#    z 0.000010 0.000020 0.707830 
# 
# From -- ./inp_files/3768.got.cif
#   From: 2010.05.17/outbox.cif.g08.bks.cpg/sg163_2_cif.got.tgz:3768.got - 2010.05.20 10:56:03.
