data_PCOD9578215
_publ_section_title
;
Structure prediction by ZEFSAII (Michael W. Deem and Ramdas Pophale) SiO2 
 PCOD9578215
Probable space group: P -3 1 C
;
_chemical_formula_sum "Si O2"
_cell_formula_units_Z 28
_cell_length_a 9.541057
_cell_length_b 9.541057
_cell_length_c 13.404074
_cell_angle_alpha 90.000000
_cell_angle_beta 90.000000
_cell_angle_gamma 120.000000
_cell_volume 1056.721222
_symmetry_space_group_name_H-M "P -3 1 C"
_symmetry_group_IT_number 163
_symmetry_cell_setting 'hexagonal'
loop_
_space_group_symop_operation_xyz
x,y,z
-y,x-y,z
-x+y,-x,z
-y,-x,1/2-z
-x+y,y,1/2-z
x,x-y,1/2-z
-x,-y,-z
y,-x+y,-z
x-y,x,-z
y,x,1/2+z
x-y,-y,1/2+z
-x,-x+y,1/2+z
loop_
_atom_site_type_symbol
_atom_site_label
_atom_site_fract_x
_atom_site_fract_y
_atom_site_fract_z
Si Si1 0.809974 0.173644 0.858888
Si Si2 0.675220 0.161576 0.430624
Si Si3 0.000000 0.000000 0.381355
O O1 0.780377 0.219624 0.750000
O O2 0.959233 0.138221 0.851791
O O3 0.660648 0.996883 0.886874
O O4 0.836329 0.293276 0.950186
O O5 0.820122 0.340810 0.401653
O O6 0.000000 0.000000 0.500000
#
# Coordination Sequence:
#
# PCOD9578215 Si02
#       3
#    12  12   4
#     4  12  23  43  74 110 140 191 249 297 357 432
#     4  10  24  44  75 103 149 190 231 302 364 420
#     4  12  22  41  73  97 134 193 247 302 346 412
#
# _framework density 26.497053000000001
#
# number of rings (size 3 to 8) (size 9 to 14) (size 15 to 20)
#    0.857    0.000    4.286    2.571    0.000    1.714 
#    0.000    4.286    0.000   12.857    0.000    0.000 
#    0.000    0.000    0.000    0.000    0.000    0.000 
#
# Total GULP energy -156713.245400 kJ/mol
# GULP energy per Si atom -5596.901621 kJ/mol
# Density = 2.643674 g / cm^3
# Si number density = 26.497053 Si / 1000 Ang^3
#
#
#
# Elastic Constant Matrix: (Units=GPa)
#
#
# Indices 1 2 3 4 5 6 
#
# 1 142.6367 39.3907 12.7083 0.0000 -1.3227 0.0000
# 2 39.3907 142.6367 12.7083 0.0000 1.3227 0.0000
# 3 12.7083 12.7083 155.6146 0.0000 0.0000 0.0000
# 4 0.0000 0.0000 0.0000 -14.8167 0.0000 1.3227
# 5 -1.3227 1.3227 0.0000 0.0000 -14.8167 0.0000
# 6 0.0000 0.0000 0.0000 1.3227 0.0000 51.6230
#
#
#
# Elastic Compliance Matrix: (Units=1/GPa)
#
#
# Indices 1 2 3 4 5 6 
#
# 1 0.007610 -0.002053 -0.000454 0.000000 -0.000863 0.000000
# 2 -0.002053 0.007610 -0.000454 0.000000 0.000863 0.000000
# 3 -0.000454 -0.000454 0.006500 0.000000 0.000000 0.000000
# 4 0.000000 0.000000 0.000000 -0.067337 0.000000 0.001725
# 5 -0.000863 0.000863 0.000000 0.000000 -0.067337 0.000000
# 6 0.000000 0.000000 0.000000 0.001725 0.000000 0.019327
#
#
# Mechanical properties :
#
#
# Convention : Reuss Voigt Hill
#
# Bulk Modulus (GPa) = 63.29484 63.38918 63.34201
# Shear Modulus (GPa) = -60.65092 29.46998 -15.59047
#
# Velocity S-wave (km/s) = -4.78951 3.33858 -2.42830
# Velocity P-wave (km/s) = 2.57808 6.23190 4.01186
#
# Compressibility (1/GPa) = 0.01579908
#
# Stress axis : x y z
#
# Youngs Moduli (GPa) = 131.40134 131.40134 153.84015
#
# Poissons Ratio (x) = 0.26980 0.06982
# Poissons Ratio (y) = 0.26980 0.06982
# Poissons Ratio (z) = 0.05963 0.05963
#
# Static dielectric constant tensor:
#      x y z
#    x 2.022470 0.000000 0.000000 
#    y 0.000000 2.022470 0.000000 
#    z 0.000000 0.000000 2.080260 
# 
# From -- ./inp_files/1970.got.cif
#   From: 2010.05.17/outbox.cif.g08.bks.cpg/sg163_1_cif.got.tgz:1970.got - 2010.05.20 10:56:03.
