data_PCOD9578692
_publ_section_title
;
Structure prediction by ZEFSAII (Michael W. Deem and Ramdas Pophale) SiO2 
 PCOD9578692
Probable space group: P -3 M 1
;
_chemical_formula_sum "Si O2"
_cell_formula_units_Z 84
_cell_length_a 17.913232
_cell_length_b 17.913232
_cell_length_c 14.685968
_cell_angle_alpha 90.000000
_cell_angle_beta 90.000000
_cell_angle_gamma 120.000000
_cell_volume 4081.136404
_symmetry_space_group_name_H-M "P -3 M 1"
_symmetry_group_IT_number 164
_symmetry_cell_setting 'hexagonal'
loop_
_space_group_symop_operation_xyz
x,y,z
-y,x-y,z
-x+y,-x,z
x-y,-y,-z
-x,-x+y,-z
y,x,-z
-x,-y,-z
y,-x+y,-z
x-y,x,-z
-x+y,y,z
x,x-y,z
-y,-x,z
loop_
_atom_site_type_symbol
_atom_site_label
_atom_site_fract_x
_atom_site_fract_y
_atom_site_fract_z
Si Si1 0.506759 0.664045 0.462816
Si Si2 0.927222 0.236567 0.574644
Si Si3 0.962416 0.206648 0.273576
Si Si4 0.441992 0.135659 0.333051
Si Si5 0.664360 0.509353 0.940475
Si Si6 0.058231 0.761517 0.090586
Si Si7 0.834065 0.336005 0.144186
O O1 0.489066 0.744533 0.461484
O O2 0.423032 0.576969 0.434266
O O3 0.592170 0.692598 0.402820
O O4 0.531861 0.652977 0.567038
O O5 0.841466 0.158535 0.531837
O O6 0.000000 0.272870 0.500000
O O7 0.957671 0.202349 0.658458
O O8 0.894780 0.105221 0.273905
O O9 0.912227 0.252652 0.316059
O O10 0.997959 0.241529 0.173820
O O11 0.476766 0.238383 0.333057
O O12 0.474790 0.115724 0.239188
O O13 0.745710 0.491420 0.940142
O O14 0.575987 0.424014 0.910677
O O15 0.697713 0.600774 0.891797
O O16 0.649681 0.527469 0.046192
O O17 0.142693 0.857308 0.081615
O O18 0.000000 0.734020 0.000000
O O19 0.789803 0.394902 0.140411
O O20 0.764719 0.235282 0.146883
#
# Coordination Sequence:
#
# PCOD9578692 Si02
#       7
#    12  12  12  12  12  12  12
#     4  10  20  35  56  86 127 172 214 252 294 347
#     4  11  22  40  64  90 119 156 198 245 304 365
#     4  11  22  41  65  87 113 149 195 246 306 374
#     4   9  17  30  49  77 112 152 197 246 299 352
#     4   9  18  33  54  82 119 165 215 261 304 351
#     4  11  23  40  63  91 122 161 203 249 313 382
#     4   9  15  24  41  68 105 150 198 246 290 333
#
# _framework density 20.582502999999999
#
# number of rings (size 3 to 8) (size 9 to 14) (size 15 to 20)
#    0.000    2.000    1.429    3.000    0.000    4.000 
#    0.000    3.571    0.000    8.571    0.000    2.000 
#    0.000    0.000    0.000    0.000    0.000    0.000 
#
# Total GULP energy -468022.780262 kJ/mol
# GULP energy per Si atom -5571.699765 kJ/mol
# Density = 2.053566 g / cm^3
# Si number density = 20.582503 Si / 1000 Ang^3
#
#
#
# Elastic Constant Matrix: (Units=GPa)
#
#
# Indices 1 2 3 4 5 6 
#
# 1 100.0092 52.0509 32.3937 1.8610 0.0000 0.0000
# 2 52.0509 100.0092 32.3937 -1.8610 0.0000 0.0000
# 3 32.3937 32.3937 52.7474 0.0000 0.0000 0.0000
# 4 1.8610 -1.8610 0.0000 23.2662 0.0000 0.0000
# 5 0.0000 0.0000 0.0000 0.0000 23.2662 1.8610
# 6 0.0000 0.0000 0.0000 0.0000 1.8610 23.9792
#
#
#
# Elastic Compliance Matrix: (Units=1/GPa)
#
#
# Indices 1 2 3 4 5 6 
#
# 1 0.014944 -0.006037 -0.005470 -0.001678 0.000000 0.000000
# 2 -0.006037 0.014944 -0.005470 0.001678 0.000000 0.000000
# 3 -0.005470 -0.005470 0.025677 0.000000 0.000000 0.000000
# 4 -0.001678 0.001678 0.000000 0.043249 0.000000 0.000000
# 5 0.000000 0.000000 0.000000 0.000000 0.043249 -0.003357
# 6 0.000000 0.000000 0.000000 0.000000 -0.003357 0.041963
#
#
# Mechanical properties :
#
#
# Convention : Reuss Voigt Hill
#
# Bulk Modulus (GPa) = 46.27341 54.04917 50.16129
# Shear Modulus (GPa) = 22.20390 23.16415 22.68402
#
# Velocity S-wave (km/s) = 3.28803 3.35838 3.32339
# Velocity P-wave (km/s) = 6.07829 6.43079 6.25702
#
# Compressibility (1/GPa) = 0.02161068
#
# Stress axis : x y z
#
# Youngs Moduli (GPa) = 66.91518 66.91518 38.94561
#
# Poissons Ratio (x) = 0.40399 0.21303
# Poissons Ratio (y) = 0.40399 0.21303
# Poissons Ratio (z) = 0.36603 0.36603
#
# Static dielectric constant tensor:
#      x y z
#    x 1.810550 0.000000 0.000000 
#    y 0.000000 1.810550 0.000000 
#    z 0.000000 0.000000 1.783260 
# 
# From -- ./inp_files/3610.got.cif
#   From: 2010.05.17/outbox.cif.g08.bks.cpg/sg164_2_cif.got.tgz:3610.got - 2010.05.20 10:58:56.
