data_PCOD9578970
_publ_section_title
;
Structure prediction by ZEFSAII (Michael W. Deem and Ramdas Pophale) SiO2 
 PCOD9578970
Probable space group: P -3 C 1
;
_chemical_formula_sum "Si O2"
_cell_formula_units_Z 64
_cell_length_a 14.331796
_cell_length_b 14.331796
_cell_length_c 17.549376
_cell_angle_alpha 90.000000
_cell_angle_beta 90.000000
_cell_angle_gamma 120.000000
_cell_volume 3121.717120
_symmetry_space_group_name_H-M "P -3 C 1"
_symmetry_group_IT_number 165
_symmetry_cell_setting 'hexagonal'
loop_
_space_group_symop_operation_xyz
x,y,z
-y,x-y,z
-x+y,-x,z
x-y,-y,1/2-z
-x,-x+y,1/2-z
y,x,1/2-z
-x,-y,-z
y,-x+y,-z
x-y,x,-z
-x+y,y,1/2+z
x,x-y,1/2+z
-y,-x,1/2+z
loop_
_atom_site_type_symbol
_atom_site_label
_atom_site_fract_x
_atom_site_fract_y
_atom_site_fract_z
Si Si1 0.384582 0.179713 0.098172
Si Si2 0.995944 0.621710 0.340064
Si Si3 0.003357 0.560256 0.578630
Si Si4 0.000000 0.000000 0.087692
Si Si5 0.030528 0.181212 0.333337
Si Si6 0.341789 0.157479 0.425346
O O1 0.414117 0.300995 0.119502
O O2 0.449260 0.114460 0.089272
O O3 0.305147 0.117143 0.167784
O O4 0.327241 0.156648 0.015169
O O5 0.975505 0.502322 0.354142
O O6 0.000000 0.646819 0.250000
O O7 0.898934 0.629277 0.383165
O O8 0.000000 0.500000 0.500000
O O9 0.102090 0.684455 0.576911
O O10 0.116645 0.076525 0.121871
O O11 0.000000 0.000000 0.000000
O O12 0.000000 0.136897 0.250000
O O13 0.933952 0.171829 0.383347
#
# Coordination Sequence:
#
# PCOD9578970 Si02
#       6
#    12  12  12   4  12  12
#     4  11  22  42  70  92 130 175 233 279 358 431
#     4  12  25  43  68 104 142 181 236 308 370 432
#     4  11  23  45  71 101 135 188 242 305 365 452
#     4  12  22  35  52  81 124 164 223 255 316 398
#     4  11  22  35  56  90 127 165 207 268 342 406
#     4  11  22  42  70  92 130 175 233 279 358 431
#
# _framework density 20.501536000000002
#
# number of rings (size 3 to 8) (size 9 to 14) (size 15 to 20)
#    0.000    0.750    3.750    5.062    0.000    4.500 
#    2.250    1.875    0.000    0.000    0.000    0.000 
#    0.000    0.000    0.000    0.000    0.000    0.000 
#
# Total GULP energy -356399.005441 kJ/mol
# GULP energy per Si atom -5568.734460 kJ/mol
# Density = 2.045487 g / cm^3
# Si number density = 20.501536 Si / 1000 Ang^3
#
#
#
# Elastic Constant Matrix: (Units=GPa)
#
#
# Indices 1 2 3 4 5 6 
#
# 1 63.4406 80.5248 17.2808 -29.9134 0.0000 0.0000
# 2 80.5248 63.4406 17.2808 29.9134 0.0000 0.0000
# 3 17.2808 17.2808 125.2112 0.0000 0.0000 0.0000
# 4 -29.9134 29.9134 0.0000 9.1974 0.0000 0.0000
# 5 0.0000 0.0000 0.0000 0.0000 9.1974 -29.9134
# 6 0.0000 0.0000 0.0000 0.0000 -29.9134 -8.5421
#
#
#
# Elastic Compliance Matrix: (Units=1/GPa)
#
#
# Indices 1 2 3 4 5 6 
#
# 1 0.001230 0.005954 -0.000992 -0.015366 0.000000 0.000000
# 2 0.005954 0.001230 -0.000992 0.015366 0.000000 0.000000
# 3 -0.000992 -0.000992 0.008260 0.000000 0.000000 0.000000
# 4 -0.015366 0.015366 0.000000 0.008776 0.000000 0.000000
# 5 0.000000 0.000000 0.000000 0.000000 0.008776 -0.030732
# 6 0.000000 0.000000 0.000000 0.000000 -0.030732 -0.009449
#
#
# Mechanical properties :
#
#
# Convention : Reuss Voigt Hill
#
# Bulk Modulus (GPa) = 53.58352 53.58501 53.58426
# Shear Modulus (GPa) = 292.38736 11.10427 151.74582
#
# Velocity S-wave (km/s) = 11.95520 2.32982 8.61264
# Velocity P-wave (km/s) = 14.72285 5.78198 11.18467
#
# Compressibility (1/GPa) = 0.01866245
#
# Stress axis : x y z
#
# Youngs Moduli (GPa) = 813.12132 813.12132 121.06264
#
# Poissons Ratio (x) = -4.84158 0.12003
# Poissons Ratio (y) = -4.84158 0.12003
# Poissons Ratio (z) = 0.80621 0.80621
#
# Static dielectric constant tensor:
#      x y z
#    x 1.840810 0.000000 0.000000 
#    y 0.000000 1.840810 0.000000 
#    z 0.000000 0.000000 1.720590 
# 
# From -- ./inp_files/2215.got.cif
#   From: 2010.05.17/outbox.cif.g08.bks.cpg/sg165_2_cif.got.tgz:2215.got - 2010.05.20 11:02:39.
