data_PCOD9578527
_publ_section_title
;
Structure prediction by ZEFSAII (Michael W. Deem and Ramdas Pophale) SiO2 
 PCOD9578527
Probable space group: P -3 M 1
;
_chemical_formula_sum "Si O2"
_cell_formula_units_Z 72
_cell_length_a 24.364529
_cell_length_b 24.364529
_cell_length_c 9.063621
_cell_angle_alpha 90.000000
_cell_angle_beta 90.000000
_cell_angle_gamma 120.000000
_cell_volume 4659.597561
_symmetry_space_group_name_H-M "P -3 M 1"
_symmetry_group_IT_number 164
_symmetry_cell_setting 'hexagonal'
loop_
_space_group_symop_operation_xyz
x,y,z
-y,x-y,z
-x+y,-x,z
x-y,-y,-z
-x,-x+y,-z
y,x,-z
-x,-y,-z
y,-x+y,-z
x-y,x,-z
-x+y,y,z
x,x-y,z
-y,-x,z
loop_
_atom_site_type_symbol
_atom_site_label
_atom_site_fract_x
_atom_site_fract_y
_atom_site_fract_z
Si Si1 0.071975 0.268626 0.322798
Si Si2 0.926104 0.526679 0.322966
Si Si3 0.926104 0.526679 0.677034
Si Si4 0.405111 0.139275 0.176122
Si Si5 0.405111 0.139275 0.823878
Si Si6 0.731374 0.803350 0.677202
O O1 0.124484 0.248968 0.285748
O O2 0.094481 0.335704 0.245291
O O3 0.074150 0.278017 0.500000
O O4 0.000000 0.218656 0.282173
O O5 0.912985 0.456493 0.286066
O O6 0.920359 0.529657 0.500000
O O7 0.881260 0.547307 0.243027
O O8 0.000000 0.574793 0.285387
O O9 0.912985 0.456493 0.713934
O O10 0.881260 0.547306 0.756973
O O11 0.422210 0.211105 0.211664
O O12 0.335704 0.094481 0.245291
O O13 0.401958 0.132329 1.000000
O O14 0.422210 0.211105 0.788336
O O15 0.751033 0.875517 0.714252
#
# Coordination Sequence:
#
# PCOD9578527 Si02
#       6
#    12  12  12  12  12  12
#     4   9  17  29  45  64  87 117 151 185 222 265
#     4   9  18  32  49  69  92 117 146 181 220 262
#     4   9  18  32  49  69  92 117 146 181 220 262
#     4  10  20  31  44  66  94 120 147 181 220 261
#     4  10  20  31  44  66  94 120 147 181 220 261
#     4   9  17  29  45  64  87 117 151 185 222 265
#
# _framework density 15.451978
#
# number of rings (size 3 to 8) (size 9 to 14) (size 15 to 20)
#    0.000    2.667    0.000    3.000    0.000    8.000 
#    0.000    1.667    0.000    1.000    0.000    2.333 
#    0.000    0.000    0.000    8.333    0.000    8.667 
#
# Total GULP energy -401396.075666 kJ/mol
# GULP energy per Si atom -5574.945495 kJ/mol
# Density = 1.541681 g / cm^3
# Si number density = 15.451978 Si / 1000 Ang^3
#
#
#
# Elastic Constant Matrix: (Units=GPa)
#
#
# Indices 1 2 3 4 5 6 
#
# 1 121.6479 82.0873 45.8720 0.0000 0.0000 0.0000
# 2 82.0873 121.6479 45.8720 0.0000 0.0000 0.0000
# 3 45.8720 45.8720 27.1689 0.0000 0.0000 0.0000
# 4 0.0000 0.0000 0.0000 14.2704 0.0000 0.0000
# 5 0.0000 0.0000 0.0000 0.0000 14.2704 0.0000
# 6 0.0000 0.0000 0.0000 0.0000 0.0000 19.7803
#
#
#
# Elastic Compliance Matrix: (Units=1/GPa)
#
#
# Indices 1 2 3 4 5 6 
#
# 1 0.022877 -0.002400 -0.034574 0.000000 0.000000 0.000000
# 2 -0.002400 0.022877 -0.034574 0.000000 0.000000 0.000000
# 3 -0.034574 -0.034574 0.153556 0.000000 0.000000 0.000000
# 4 0.000000 0.000000 0.000000 0.070075 0.000000 0.000000
# 5 0.000000 0.000000 0.000000 0.000000 0.070075 0.000000
# 6 0.000000 0.000000 0.000000 0.000000 0.000000 0.050555
#
#
# Mechanical properties :
#
#
# Convention : Reuss Voigt Hill
#
# Bulk Modulus (GPa) = 17.78888 68.68083 43.23485
# Shear Modulus (GPa) = 9.06042 16.10643 12.58343
#
# Velocity S-wave (km/s) = 2.42411 3.23205 2.85679
# Velocity P-wave (km/s) = 4.40142 7.64674 6.23879
#
# Compressibility (1/GPa) = 0.05621491
#
# Stress axis : x y z
#
# Youngs Moduli (GPa) = 43.71111 43.71111 6.51230
#
# Poissons Ratio (x) = 0.10492 0.22515
# Poissons Ratio (y) = 0.10492 0.22515
# Poissons Ratio (z) = 1.51126 1.51126
#
# Static dielectric constant tensor:
#      x y z
#    x 1.503870 0.000000 0.000000 
#    y 0.000000 1.503870 0.000000 
#    z 0.000000 0.000000 1.510350 
# 
# From -- ./inp_files/1885.got.cif
#   From: 2010.05.17/outbox.cif.g08.bks.cpg/sg164_1_cif.got.tgz:1885.got - 2010.05.20 10:58:56.
