data_PCOD9578591
_publ_section_title
;
Structure prediction by ZEFSAII (Michael W. Deem and Ramdas Pophale) SiO2 
 PCOD9578591
Probable space group: P -3 M 1
;
_chemical_formula_sum "Si O2"
_cell_formula_units_Z 60
_cell_length_a 12.997098
_cell_length_b 12.997098
_cell_length_c 26.045204
_cell_angle_alpha 90.000000
_cell_angle_beta 90.000000
_cell_angle_gamma 120.000000
_cell_volume 3810.229914
_symmetry_space_group_name_H-M "P -3 M 1"
_symmetry_group_IT_number 164
_symmetry_cell_setting 'hexagonal'
loop_
_space_group_symop_operation_xyz
x,y,z
-y,x-y,z
-x+y,-x,z
x-y,-y,-z
-x,-x+y,-z
y,x,-z
-x,-y,-z
y,-x+y,-z
x-y,x,-z
-x+y,y,z
x,x-y,z
-y,-x,z
loop_
_atom_site_type_symbol
_atom_site_label
_atom_site_fract_x
_atom_site_fract_y
_atom_site_fract_z
Si Si1 0.000083 0.758177 0.059119
Si Si2 0.667195 0.577637 0.455647
Si Si3 0.666448 0.088560 0.753783
Si Si4 0.666548 0.088701 0.338418
Si Si5 0.088959 0.422352 0.848860
O O1 0.126850 0.873151 0.070367
O O2 0.895872 0.791744 0.062459
O O3 0.966526 0.653694 0.099526
O O4 0.000000 0.721168 0.000000
O O5 0.656128 0.656128 0.500000
O O6 0.786025 0.572050 0.461459
O O7 0.553669 0.446332 0.461062
O O8 0.664290 0.616715 0.397098
O O9 0.558575 0.117149 0.752740
O O10 0.792161 0.207840 0.756880
O O11 0.652662 0.012228 0.702872
O O12 0.641676 0.002330 0.802266
O O13 0.558243 0.116486 0.333603
O O14 0.791285 0.208716 0.329568
O O15 0.213829 0.427657 0.839046
O O16 0.107641 0.553821 0.853608
#
# Coordination Sequence:
#
# PCOD9578591 Si02
#       5
#    12  12  12  12  12
#     4   9  17  30  49  72  97 126 160 196 232 271
#     4   9  17  29  46  69  95 123 155 191 231 272
#     4  10  20  33  49  69  94 122 151 185 227 277
#     4   9  17  30  49  71  94 121 154 192 231 272
#     4  10  20  33  50  71  95 123 155 193 234 276
#
# _framework density 15.747082000000001
#
# number of rings (size 3 to 8) (size 9 to 14) (size 15 to 20)
#    0.000    2.600    0.000    2.200    0.000    3.600 
#    0.000    2.000    0.000    7.400    0.000    0.000 
#    0.000    0.000    0.000    0.000    0.000    0.000 
#
# Total GULP energy -334458.183429 kJ/mol
# GULP energy per Si atom -5574.303057 kJ/mol
# Density = 1.571124 g / cm^3
# Si number density = 15.747082 Si / 1000 Ang^3
#
#
#
# Elastic Constant Matrix: (Units=GPa)
#
#
# Indices 1 2 3 4 5 6 
#
# 1 103.0369 64.1657 80.2923 -1.4269 0.0000 0.0000
# 2 64.1657 103.0369 80.2923 1.4269 0.0000 0.0000
# 3 80.2923 80.2923 129.5366 0.0000 0.0000 0.0000
# 4 -1.4269 1.4269 0.0000 25.3142 0.0000 0.0000
# 5 0.0000 0.0000 0.0000 0.0000 25.3142 -1.4269
# 6 0.0000 0.0000 0.0000 0.0000 -1.4269 19.4356
#
#
#
# Elastic Compliance Matrix: (Units=1/GPa)
#
#
# Indices 1 2 3 4 5 6 
#
# 1 0.020306 -0.005527 -0.009160 0.001456 0.000000 0.000000
# 2 -0.005527 0.020306 -0.009160 -0.001456 0.000000 0.000000
# 3 -0.009160 -0.009160 0.019076 0.000000 0.000000 0.000000
# 4 0.001456 -0.001456 0.000000 0.039668 0.000000 0.000000
# 5 0.000000 0.000000 0.000000 0.000000 0.039668 0.002912
# 6 0.000000 0.000000 0.000000 0.000000 0.002912 0.051666
#
#
# Mechanical properties :
#
#
# Convention : Reuss Voigt Hill
#
# Bulk Modulus (GPa) = 83.39298 87.23456 85.31377
# Shear Modulus (GPa) = 20.62862 21.40346 21.01604
#
# Velocity S-wave (km/s) = 3.62331 3.69073 3.65718
# Velocity P-wave (km/s) = 8.40103 8.58368 8.49284
#
# Compressibility (1/GPa) = 0.01199142
#
# Stress axis : x y z
#
# Youngs Moduli (GPa) = 49.24716 49.24716 52.42240
#
# Poissons Ratio (x) = 0.27220 0.48021
# Poissons Ratio (y) = 0.27220 0.48021
# Poissons Ratio (z) = 0.45112 0.45112
#
# Static dielectric constant tensor:
#      x y z
#    x 1.495180 0.000000 0.000000 
#    y 0.000000 1.495180 0.000000 
#    z 0.000000 0.000000 1.536470 
# 
# From -- ./inp_files/5154.got.cif
#   From: 2010.05.17/outbox.cif.g08.bks.cpg/sg164_3_cif.got.tgz:5154.got - 2010.05.20 10:58:56.
