data_PCOD9578188
_publ_section_title
;
Structure prediction by ZEFSAII (Michael W. Deem and Ramdas Pophale) SiO2 
 PCOD9578188
Probable space group: P -3 1 C
;
_chemical_formula_sum "Si O2"
_cell_formula_units_Z 48
_cell_length_a 12.794388
_cell_length_b 12.794388
_cell_length_c 16.434852
_cell_angle_alpha 90.000000
_cell_angle_beta 90.000000
_cell_angle_gamma 120.000000
_cell_volume 2329.890245
_symmetry_space_group_name_H-M "P -3 1 C"
_symmetry_group_IT_number 163
_symmetry_cell_setting 'hexagonal'
loop_
_space_group_symop_operation_xyz
x,y,z
-y,x-y,z
-x+y,-x,z
-y,-x,1/2-z
-x+y,y,1/2-z
x,x-y,1/2-z
-x,-y,-z
y,-x+y,-z
x-y,x,-z
y,x,1/2+z
x-y,-y,1/2+z
-x,-x+y,1/2+z
loop_
_atom_site_type_symbol
_atom_site_label
_atom_site_fract_x
_atom_site_fract_y
_atom_site_fract_z
Si Si1 0.000382 0.216872 0.724351
Si Si2 0.252320 0.203283 0.464033
Si Si3 0.660059 0.134114 0.701800
Si Si4 0.676865 0.473712 0.985950
O O1 0.921822 0.078179 0.750000
O O2 0.944182 0.278098 0.780280
O O3 0.136561 0.273121 0.750000
O O4 0.996609 0.227318 0.627566
O O5 0.159312 0.224937 0.519884
O O6 0.396921 0.289477 0.477396
O O7 0.743245 0.256755 0.750000
O O8 0.535454 0.070907 0.750000
O O9 0.661301 0.169844 0.609419
O O10 0.558573 0.342162 0.004631
#
# Coordination Sequence:
#
# PCOD9578188 Si02
#       4
#    12  12  12  12
#     4  11  24  42  64  93 127 175 224 272 331 400
#     4  12  25  44  67 101 137 179 227 283 348 401
#     4  11  18  36  64  95 127 163 219 271 322 383
#     4  10  22  41  67 104 136 175 218 284 337 402
#
# _framework density 20.601828999999999
#
# number of rings (size 3 to 8) (size 9 to 14) (size 15 to 20)
#    0.500    0.500    2.500    6.750    0.000    1.000 
#    4.500    0.000    0.000    0.500    0.000    0.000 
#    0.000    0.000    0.000    0.000    0.000    0.000 
#
# Total GULP energy -267365.602352 kJ/mol
# GULP energy per Si atom -5570.116716 kJ/mol
# Density = 2.055494 g / cm^3
# Si number density = 20.601829 Si / 1000 Ang^3
#
#
#
# Elastic Constant Matrix: (Units=GPa)
#
#
# Indices 1 2 3 4 5 6 
#
# 1 74.7984 13.2841 0.6295 -0.0001 -2.6571 0.0000
# 2 13.2841 74.7984 0.6295 0.0001 2.6571 0.0000
# 3 0.6295 0.6295 69.8916 0.0000 0.0000 0.0000
# 4 -0.0001 0.0001 0.0000 17.3830 0.0000 2.6571
# 5 -2.6571 2.6571 0.0000 0.0000 17.3830 -0.0001
# 6 0.0000 0.0000 0.0000 2.6571 -0.0001 30.7571
#
#
#
# Elastic Compliance Matrix: (Units=1/GPa)
#
#
# Indices 1 2 3 4 5 6 
#
# 1 0.013914 -0.002560 -0.000102 0.000000 0.002518 0.000000
# 2 -0.002560 0.013914 -0.000102 0.000000 -0.002518 0.000000
# 3 -0.000102 -0.000102 0.014310 0.000000 0.000000 0.000000
# 4 0.000000 0.000000 0.000000 0.058297 0.000000 -0.005036
# 5 0.002518 -0.002518 0.000000 0.000000 0.058297 0.000000
# 6 0.000000 0.000000 0.000000 -0.005036 0.000000 0.032948
#
#
# Mechanical properties :
#
#
# Convention : Reuss Voigt Hill
#
# Bulk Modulus (GPa) = 27.31526 27.61939 27.46733
# Shear Modulus (GPa) = 23.87637 26.76766 25.32201
#
# Velocity S-wave (km/s) = 3.40802 3.60847 3.50968
# Velocity P-wave (km/s) = 5.36410 5.54949 5.45758
#
# Compressibility (1/GPa) = 0.03660957
#
# Stress axis : x y z
#
# Youngs Moduli (GPa) = 71.86906 71.86906 69.88264
#
# Poissons Ratio (x) = 0.18397 0.00715
# Poissons Ratio (y) = 0.18397 0.00715
# Poissons Ratio (z) = 0.00735 0.00735
#
# Static dielectric constant tensor:
#      x y z
#    x 1.757360 0.000000 0.000000 
#    y 0.000000 1.757360 0.000000 
#    z 0.000000 0.000000 1.741640 
# 
# From -- ./inp_files/2251.got.cif
#   From: 2010.05.17/outbox.cif.g08.bks.cpg/sg163_2_cif.got.tgz:2251.got - 2010.05.20 10:56:03.
