data_PCOD9578654
_publ_section_title
;
Structure prediction by ZEFSAII (Michael W. Deem and Ramdas Pophale) SiO2 
 PCOD9578654
Probable space group: P -3 M 1
;
_chemical_formula_sum "Si O2"
_cell_formula_units_Z 72
_cell_length_a 22.565548
_cell_length_b 22.565548
_cell_length_c 9.012211
_cell_angle_alpha 90.000000
_cell_angle_beta 90.000000
_cell_angle_gamma 120.000000
_cell_volume 3974.236909
_symmetry_space_group_name_H-M "P -3 M 1"
_symmetry_group_IT_number 164
_symmetry_cell_setting 'hexagonal'
loop_
_space_group_symop_operation_xyz
x,y,z
-y,x-y,z
-x+y,-x,z
x-y,-y,-z
-x,-x+y,-z
y,x,-z
-x,-y,-z
y,-x+y,-z
x-y,x,-z
-x+y,y,z
x,x-y,z
-y,-x,z
loop_
_atom_site_type_symbol
_atom_site_label
_atom_site_fract_x
_atom_site_fract_y
_atom_site_fract_z
Si Si1 0.456300 0.402378 0.623951
Si Si2 0.557966 0.849176 0.824157
Si Si3 0.193516 0.527799 0.542365
Si Si4 0.319202 0.383732 0.097285
Si Si5 0.298788 0.081668 0.342563
Si Si6 0.791446 0.075729 0.689602
O O1 0.408282 0.408282 0.500000
O O2 0.522996 0.477005 0.637680
O O3 0.483067 0.351840 0.569072
O O4 0.418111 0.377180 0.778556
O O5 0.552435 0.776218 0.849334
O O6 0.499560 0.836664 0.706873
O O7 0.630713 0.896048 0.741975
O O8 0.561383 0.882949 0.981349
O O9 0.259331 0.518661 0.521314
O O10 0.212418 0.606209 0.526929
O O11 0.249063 0.342995 0.189144
O O12 0.331423 0.331423 0.000000
O O13 0.279003 0.139502 0.308358
O O14 0.311440 0.084922 0.519995
O O15 0.239782 0.005822 0.299682
O O16 0.872264 0.127737 0.706947
#
# Coordination Sequence:
#
# PCOD9578654 Si02
#       6
#    12  12  12  12  12  12
#     4  10  23  40  58  80 110 147 189 234 279 331
#     4  10  20  34  52  80 113 144 177 221 277 333
#     4  10  21  39  63  86 111 147 191 237 282 338
#     4  12  22  32  53  80 112 148 180 229 279 339
#     4   9  18  34  55  77 108 147 188 228 275 337
#     4  10  20  33  53  80 110 146 185 229 280 332
#
# _framework density 18.116685
#
# number of rings (size 3 to 8) (size 9 to 14) (size 15 to 20)
#    0.000    1.833    1.667    2.667    2.333    3.667 
#    0.000    0.000    0.000    0.333    0.000    8.167 
#    0.000    0.667    0.000    0.000    0.000    0.000 
#
# Total GULP energy -401905.491187 kJ/mol
# GULP energy per Si atom -5582.020711 kJ/mol
# Density = 1.807545 g / cm^3
# Si number density = 18.116685 Si / 1000 Ang^3
#
#
#
# Elastic Constant Matrix: (Units=GPa)
#
#
# Indices 1 2 3 4 5 6 
#
# 1 62.3510 24.0473 21.8403 -0.5133 0.0000 0.0000
# 2 24.0473 62.3510 21.8403 0.5133 0.0000 0.0000
# 3 21.8403 21.8403 81.5816 0.0000 0.0000 0.0000
# 4 -0.5133 0.5133 0.0000 18.4368 0.0000 0.0000
# 5 0.0000 0.0000 0.0000 0.0000 18.4368 -0.5133
# 6 0.0000 0.0000 0.0000 0.0000 -0.5133 19.1519
#
#
#
# Elastic Compliance Matrix: (Units=1/GPa)
#
#
# Indices 1 2 3 4 5 6 
#
# 1 0.019756 -0.006370 -0.003584 0.000727 0.000000 0.000000
# 2 -0.006370 0.019756 -0.003584 -0.000727 0.000000 0.000000
# 3 -0.003584 -0.003584 0.014176 0.000000 0.000000 0.000000
# 4 0.000727 -0.000727 0.000000 0.054280 0.000000 0.000000
# 5 0.000000 0.000000 0.000000 0.000000 0.054280 0.001455
# 6 0.000000 0.000000 0.000000 0.000000 0.001455 0.052253
#
#
# Mechanical properties :
#
#
# Convention : Reuss Voigt Hill
#
# Bulk Modulus (GPa) = 37.57401 37.97105 37.77253
# Shear Modulus (GPa) = 19.96418 20.44213 20.20315
#
# Velocity S-wave (km/s) = 3.32321 3.36275 3.34304
# Velocity P-wave (km/s) = 5.95902 6.00684 5.98298
#
# Compressibility (1/GPa) = 0.02661414
#
# Stress axis : x y z
#
# Youngs Moduli (GPa) = 50.61667 50.61667 70.53968
#
# Poissons Ratio (x) = 0.32244 0.25279
# Poissons Ratio (y) = 0.32244 0.25279
# Poissons Ratio (z) = 0.18139 0.18139
#
# Static dielectric constant tensor:
#      x y z
#    x 1.624980 0.000000 0.000000 
#    y 0.000000 1.624980 0.000000 
#    z 0.000000 0.000000 1.623700 
# 
# From -- ./inp_files/1888.got.cif
#   From: 2010.05.17/outbox.cif.g08.bks.cpg/sg164_1_cif.got.tgz:1888.got - 2010.05.20 10:58:56.
