data_PCOD9578891
_publ_section_title
;
Structure prediction by ZEFSAII (Michael W. Deem and Ramdas Pophale) SiO2 
 PCOD9578891
Probable space group: P -3 C 1
;
_chemical_formula_sum "Si O2"
_cell_formula_units_Z 60
_cell_length_a 14.343133
_cell_length_b 14.343133
_cell_length_c 14.953164
_cell_angle_alpha 90.000000
_cell_angle_beta 90.000000
_cell_angle_gamma 120.000000
_cell_volume 2664.107709
_symmetry_space_group_name_H-M "P -3 C 1"
_symmetry_group_IT_number 165
_symmetry_cell_setting 'hexagonal'
loop_
_space_group_symop_operation_xyz
x,y,z
-y,x-y,z
-x+y,-x,z
x-y,-y,1/2-z
-x,-x+y,1/2-z
y,x,1/2-z
-x,-y,-z
y,-x+y,-z
x-y,x,-z
-x+y,y,1/2+z
x,x-y,1/2+z
-y,-x,1/2+z
loop_
_atom_site_type_symbol
_atom_site_label
_atom_site_fract_x
_atom_site_fract_y
_atom_site_fract_z
Si Si1 0.575472 0.760999 0.888450
Si Si2 0.115401 0.337413 0.212645
Si Si3 0.121525 0.571801 0.961422
Si Si4 0.648032 0.439683 0.350196
Si Si5 0.090235 0.848106 0.523287
O O1 0.633950 0.804375 0.794806
O O2 0.484057 0.636880 0.883163
O O3 0.531649 0.839032 0.926992
O O4 0.659373 0.767045 0.961829
O O5 0.116489 0.448665 0.187411
O O6 0.133889 0.289719 0.121631
O O7 0.000000 0.252736 0.250000
O O8 0.191292 0.567189 0.044591
O O9 0.000000 0.500000 0.000000
O O10 0.559495 0.318285 0.324236
O O11 0.964658 0.808827 0.521825
#
# Coordination Sequence:
#
# PCOD9578891 Si02
#       5
#    12  12  12  12  12
#     4  12  25  44  72 109 155 192 245 311 365 451
#     4  12  25  46  73 110 145 190 252 312 374 452
#     4  12  22  41  71 104 146 203 241 292 375 437
#     4  10  21  42  67  97 148 192 239 299 360 438
#     4  12  26  52  79 105 144 193 249 321 388 442
#
# _framework density 22.521612000000001
#
# number of rings (size 3 to 8) (size 9 to 14) (size 15 to 20)
#    0.400    0.000    6.000    3.000    2.800    0.800 
#    0.000    0.000    0.000    0.000    0.000    0.000 
#    0.000    0.000    0.000    0.000    0.000    0.000 
#
# Total GULP energy -334855.200856 kJ/mol
# GULP energy per Si atom -5580.920014 kJ/mol
# Density = 2.247035 g / cm^3
# Si number density = 22.521612 Si / 1000 Ang^3
#
#
#
# Elastic Constant Matrix: (Units=GPa)
#
#
# Indices 1 2 3 4 5 6 
#
# 1 64.9033 11.9592 5.8838 4.8782 0.0000 0.0000
# 2 11.9592 64.9033 5.8838 -4.8782 0.0000 0.0000
# 3 5.8838 5.8838 117.2505 0.0000 0.0000 0.0000
# 4 4.8782 -4.8782 0.0000 31.2801 0.0000 0.0000
# 5 0.0000 0.0000 0.0000 0.0000 31.2801 4.8782
# 6 0.0000 0.0000 0.0000 0.0000 4.8782 26.4720
#
#
#
# Elastic Compliance Matrix: (Units=1/GPa)
#
#
# Indices 1 2 3 4 5 6 
#
# 1 0.016279 -0.003168 -0.000658 -0.003033 0.000000 0.000000
# 2 -0.003168 0.016279 -0.000658 0.003033 0.000000 0.000000
# 3 -0.000658 -0.000658 0.008595 0.000000 0.000000 0.000000
# 4 -0.003033 0.003033 0.000000 0.032915 0.000000 0.000000
# 5 0.000000 0.000000 0.000000 0.000000 0.032915 -0.006066
# 6 0.000000 0.000000 0.000000 0.000000 -0.006066 0.038893
#
#
# Mechanical properties :
#
#
# Convention : Reuss Voigt Hill
#
# Bulk Modulus (GPa) = 31.07034 32.72339 31.89687
# Shear Modulus (GPa) = 30.19832 32.69511 31.44672
#
# Velocity S-wave (km/s) = 3.66575 3.81428 3.74075
# Velocity P-wave (km/s) = 5.63406 5.82749 5.73159
#
# Compressibility (1/GPa) = 0.03218503
#
# Stress axis : x y z
#
# Youngs Moduli (GPa) = 61.42937 61.42937 116.34967
#
# Poissons Ratio (x) = 0.19460 0.07655
# Poissons Ratio (y) = 0.19460 0.07655
# Poissons Ratio (z) = 0.04042 0.04042
#
# Static dielectric constant tensor:
#      x y z
#    x 1.851850 0.000000 0.000000 
#    y 0.000000 1.851850 0.000000 
#    z 0.000000 0.000000 1.836670 
# 
# From -- ./inp_files/1660.got.cif
#   From: 2010.05.17/outbox.cif.g08.bks.cpg/sg165_1_cif.got.tgz:1660.got - 2010.05.20 11:02:39.
