data_PCOD9578864
_publ_section_title
;
Structure prediction by ZEFSAII (Michael W. Deem and Ramdas Pophale) SiO2 
 PCOD9578864
Probable space group: P -3 C 1
;
_chemical_formula_sum "Si O2"
_cell_formula_units_Z 84
_cell_length_a 18.640158
_cell_length_b 18.640158
_cell_length_c 14.154217
_cell_angle_alpha 90.000000
_cell_angle_beta 90.000000
_cell_angle_gamma 120.000000
_cell_volume 4259.078647
_symmetry_space_group_name_H-M "P -3 C 1"
_symmetry_group_IT_number 165
_symmetry_cell_setting 'hexagonal'
loop_
_space_group_symop_operation_xyz
x,y,z
-y,x-y,z
-x+y,-x,z
x-y,-y,1/2-z
-x,-x+y,1/2-z
y,x,1/2-z
-x,-y,-z
y,-x+y,-z
x-y,x,-z
-x+y,y,1/2+z
x,x-y,1/2+z
-y,-x,1/2+z
loop_
_atom_site_type_symbol
_atom_site_label
_atom_site_fract_x
_atom_site_fract_y
_atom_site_fract_z
Si Si1 0.300002 0.445799 0.397967
Si Si2 0.160764 0.998670 0.640227
Si Si3 0.721639 0.717050 0.503731
Si Si4 0.130991 0.446555 0.407959
Si Si5 0.838245 0.001162 0.860038
Si Si6 0.457033 0.553768 0.755614
Si Si7 0.544813 0.445659 0.964442
O O1 0.287274 0.356980 0.429959
O O2 0.211727 0.439665 0.389478
O O3 0.356945 0.492552 0.306678
O O4 0.357967 0.500484 0.483936
O O5 0.207692 0.963819 0.577724
O O6 0.063156 0.936090 0.631455
O O7 0.182216 0.000000 0.750000
O O8 0.182533 0.091308 0.612579
O O9 0.640012 0.694846 0.444065
O O10 0.792017 0.755737 0.423513
O O11 0.111505 0.490708 0.320765
O O12 0.142707 0.505465 0.495978
O O13 0.816462 0.000000 0.750000
O O14 0.521687 0.521687 0.750000
O O15 0.433314 0.548277 0.646432
O O16 0.500000 0.500000 0.000000
#
# Coordination Sequence:
#
# PCOD9578864 Si02
#       7
#    12  12  12  12  12  12  12
#     4  11  24  41  66 102 135 169 225 283 325 407
#     4  10  21  36  54  79 116 165 215 267 323 383
#     4  12  22  39  59  90 132 166 210 266 338 390
#     4  11  24  41  66 102 135 169 225 283 325 407
#     4  10  21  36  54  79 116 165 215 267 323 383
#     4  11  21  44  73  95 130 185 229 268 353 429
#     4  11  21  46  73  99 130 185 221 270 349 425
#
# _framework density 19.722574000000002
#
# number of rings (size 3 to 8) (size 9 to 14) (size 15 to 20)
#    0.000    1.143    4.286    2.857    0.000    5.714 
#    6.857    1.429    0.000    0.000    0.000    0.000 
#    0.000    0.000    0.000    0.000    0.000    0.000 
#
# Total GULP energy -468132.818588 kJ/mol
# GULP energy per Si atom -5573.009745 kJ/mol
# Density = 1.967768 g / cm^3
# Si number density = 19.722574 Si / 1000 Ang^3
#
#
#
# Elastic Constant Matrix: (Units=GPa)
#
#
# Indices 1 2 3 4 5 6 
#
# 1 78.3114 30.3443 26.0905 10.2144 0.0000 0.0000
# 2 30.3443 78.3114 26.0905 -10.2144 0.0000 0.0000
# 3 26.0905 26.0905 117.8888 0.0000 0.0000 0.0000
# 4 10.2144 -10.2144 0.0000 -3.5439 0.0000 0.0000
# 5 0.0000 0.0000 0.0000 0.0000 -3.5439 10.2144
# 6 0.0000 0.0000 0.0000 0.0000 10.2144 23.9835
#
#
#
# Elastic Compliance Matrix: (Units=1/GPa)
#
#
# Indices 1 2 3 4 5 6 
#
# 1 0.009829 0.000469 -0.002279 0.026975 0.000000 0.000000
# 2 0.000469 0.009829 -0.002279 -0.026975 0.000000 0.000000
# 3 -0.002279 -0.002279 0.009491 0.000000 0.000000 0.000000
# 4 0.026975 -0.026975 0.000000 -0.126677 0.000000 0.000000
# 5 0.000000 0.000000 0.000000 0.000000 -0.126677 0.053950
# 6 0.000000 0.000000 0.000000 0.000000 0.053950 0.018718
#
#
# Mechanical properties :
#
#
# Convention : Reuss Voigt Hill
#
# Bulk Modulus (GPa) = 47.68526 48.84024 48.26275
# Shear Modulus (GPa) = -26.27176 16.17822 -5.04677
#
# Velocity S-wave (km/s) = -3.65371 2.86718 -1.60139
# Velocity P-wave (km/s) = 2.53595 5.98150 4.59398
#
# Compressibility (1/GPa) = 0.02097084
#
# Stress axis : x y z
#
# Youngs Moduli (GPa) = 101.74457 101.74457 105.35904
#
# Poissons Ratio (x) = -0.04775 0.24012
# Poissons Ratio (y) = -0.04775 0.24012
# Poissons Ratio (z) = 0.23188 0.23188
#
# Static dielectric constant tensor:
#      x y z
#    x 1.670130 0.000000 0.000000 
#    y 0.000000 1.670130 0.000000 
#    z 0.000000 0.000000 1.699850 
# 
# From -- ./inp_files/1875.got.cif
#   From: 2010.05.17/outbox.cif.g08.bks.cpg/sg165_1_cif.got.tgz:1875.got - 2010.05.20 11:02:39.
