data_PCOD9578018
_publ_section_title
;
Structure prediction by ZEFSAII (Michael W. Deem and Ramdas Pophale) SiO2 
 PCOD9578018
Probable space group: P -3 1 C
;
_chemical_formula_sum "Si O2"
_cell_formula_units_Z 84
_cell_length_a 31.128158
_cell_length_b 31.128158
_cell_length_c 5.331797
_cell_angle_alpha 90.000000
_cell_angle_beta 90.000000
_cell_angle_gamma 120.000000
_cell_volume 4474.155583
_symmetry_space_group_name_H-M "P -3 1 C"
_symmetry_group_IT_number 163
_symmetry_cell_setting 'hexagonal'
loop_
_space_group_symop_operation_xyz
x,y,z
-y,x-y,z
-x+y,-x,z
-y,-x,1/2-z
-x+y,y,1/2-z
x,x-y,1/2-z
-x,-y,-z
y,-x+y,-z
x-y,x,-z
y,x,1/2+z
x-y,-y,1/2+z
-x,-x+y,1/2+z
loop_
_atom_site_type_symbol
_atom_site_label
_atom_site_fract_x
_atom_site_fract_y
_atom_site_fract_z
Si Si1 0.866270 0.234795 0.748387
Si Si2 0.891682 0.518633 0.319159
Si Si3 0.621702 0.987787 0.826620
Si Si4 0.513924 0.576215 0.180271
Si Si5 0.833186 0.566098 0.251166
Si Si6 0.833454 0.967716 0.225720
Si Si7 0.764331 0.732790 0.799318
O O1 0.822702 0.177299 0.750000
O O2 0.858030 0.259981 0.500821
O O3 0.919859 0.240131 0.755330
O O4 0.856555 0.257806 0.998366
O O5 0.899169 0.502124 0.592106
O O6 0.841643 0.519199 0.265898
O O7 0.932637 0.577271 0.320140
O O8 0.909863 0.499337 0.085156
O O9 0.596667 0.023542 0.823593
O O10 0.652357 0.000384 0.577252
O O11 0.481743 0.518258 0.250000
O O12 0.776092 0.552183 0.250000
O O13 0.837503 0.918752 0.250000
O O14 0.775856 0.953706 0.223023
O O15 0.858937 0.002853 0.466540
O O16 0.738347 0.746738 0.576153
#
# Coordination Sequence:
#
# PCOD9578018 Si02
#       7
#    12  12  12  12  12  12  12
#     4  10  20  36  55  72  95 130 173 212 250 300
#     4  10  19  32  47  68  97 127 169 210 241 280
#     4   8  16  27  41  62  89 122 158 193 229 276
#     4  10  19  31  49  72 100 134 166 198 242 296
#     4  10  21  36  54  72  94 133 178 216 253 294
#     4  10  20  34  54  75  98 123 151 189 235 292
#     4  10  20  34  51  77 102 123 155 200 257 304
#
# _framework density 18.774491999999999
#
# number of rings (size 3 to 8) (size 9 to 14) (size 15 to 20)
#    0.000    2.286    0.000    3.000    0.000    5.143 
#    0.000   17.143    0.000    2.857    0.000    0.000 
#    0.000    0.000    0.000    8.571    0.000    0.000 
#
# Total GULP energy -469031.725343 kJ/mol
# GULP energy per Si atom -5583.711016 kJ/mol
# Density = 1.873176 g / cm^3
# Si number density = 18.774492 Si / 1000 Ang^3
#
#
#
# Elastic Constant Matrix: (Units=GPa)
#
#
# Indices 1 2 3 4 5 6 
#
# 1 52.0761 19.9585 8.9805 -0.0001 -3.9780 0.0000
# 2 19.9585 52.0761 8.9805 0.0001 3.9780 0.0000
# 3 8.9805 8.9805 147.5150 0.0000 0.0000 0.0000
# 4 -0.0001 0.0001 0.0000 15.8374 0.0000 3.9780
# 5 -3.9780 3.9780 0.0000 0.0000 15.8374 -0.0001
# 6 0.0000 0.0000 0.0000 3.9780 -0.0001 16.0588
#
#
#
# Elastic Compliance Matrix: (Units=1/GPa)
#
#
# Indices 1 2 3 4 5 6 
#
# 1 0.023649 -0.009553 -0.000858 0.000000 0.008340 0.000000
# 2 -0.009553 0.023649 -0.000858 0.000000 -0.008340 0.000000
# 3 -0.000858 -0.000858 0.006883 0.000000 0.000000 0.000000
# 4 0.000000 0.000000 0.000000 0.067331 0.000000 -0.016679
# 5 0.008340 -0.008340 0.000000 0.000000 0.067331 0.000000
# 6 0.000000 0.000000 0.000000 -0.016679 0.000000 0.066403
#
#
# Mechanical properties :
#
#
# Convention : Reuss Voigt Hill
#
# Bulk Modulus (GPa) = 31.60238 36.38961 33.99599
# Shear Modulus (GPa) = 17.34114 23.79657 20.56885
#
# Velocity S-wave (km/s) = 3.04247 3.56405 3.31354
# Velocity P-wave (km/s) = 5.40475 6.03002 5.72593
#
# Compressibility (1/GPa) = 0.03164319
#
# Stress axis : x y z
#
# Youngs Moduli (GPa) = 42.28542 42.28542 145.27583
#
# Poissons Ratio (x) = 0.40394 0.12467
# Poissons Ratio (y) = 0.40394 0.12467
# Poissons Ratio (z) = 0.03629 0.03629
#
# Static dielectric constant tensor:
#      x y z
#    x 1.668220 0.000000 0.000000 
#    y 0.000000 1.668220 0.000000 
#    z 0.000000 0.000000 1.712550 
# 
# From -- ./inp_files/457.got.cif
#   From: 2010.05.17/outbox.cif.g08.bks.cpg/sg163_1_cif.got.tgz:457.got - 2010.05.20 10:56:03.
