data_PCOD9578809
_publ_section_title
;
Structure prediction by ZEFSAII (Michael W. Deem and Ramdas Pophale) SiO2 
 PCOD9578809
Probable space group: P -3 C 1
;
_chemical_formula_sum "Si O2"
_cell_formula_units_Z 66
_cell_length_a 11.103740
_cell_length_b 11.103740
_cell_length_c 30.954088
_cell_angle_alpha 90.000000
_cell_angle_beta 90.000000
_cell_angle_gamma 120.000000
_cell_volume 3305.119851
_symmetry_space_group_name_H-M "P -3 C 1"
_symmetry_group_IT_number 165
_symmetry_cell_setting 'hexagonal'
loop_
_space_group_symop_operation_xyz
x,y,z
-y,x-y,z
-x+y,-x,z
x-y,-y,1/2-z
-x,-x+y,1/2-z
y,x,1/2-z
-x,-y,-z
y,-x+y,-z
x-y,x,-z
-x+y,y,1/2+z
x,x-y,1/2+z
-y,-x,1/2+z
loop_
_atom_site_type_symbol
_atom_site_label
_atom_site_fract_x
_atom_site_fract_y
_atom_site_fract_z
Si Si1 0.500000 0.500000 0.750000
Si Si2 0.058755 0.314624 0.094370
Si Si3 0.485077 0.656112 0.827194
Si Si4 0.171035 0.656113 0.672806
Si Si5 0.255870 0.314624 0.405630
Si Si6 0.058888 0.746439 0.500000
O O1 0.534353 0.628034 0.781743
O O2 0.371966 0.465646 0.718257
O O3 0.087392 0.422000 0.132629
O O4 0.178204 0.271528 0.097381
O O5 0.906676 0.178204 0.097382
O O6 0.072327 0.381745 0.046615
O O7 0.467090 0.791155 0.829074
O O8 0.578000 0.665392 0.867371
O O9 0.208845 0.532910 0.670926
O O10 0.309418 0.381745 0.453384
O O11 0.908028 0.732432 0.500000
#
# Coordination Sequence:
#
# PCOD9578809 Si02
#       6
#     6  12  12  12  12  12
#     4  12  20  40  64  82 114 140 206 244 296 352
#     4  10  19  35  58  88 121 159 200 249 294 347
#     4  10  23  38  58  88 116 150 189 241 300 356
#     4  10  23  38  58  88 116 150 189 241 300 356
#     4  10  19  35  58  88 121 159 200 249 294 347
#     4   8  15  28  52  82 116 155 202 244 290 338
#
# _framework density 19.969017999999998
#
# number of rings (size 3 to 8) (size 9 to 14) (size 15 to 20)
#    0.727    1.455    0.000    3.818    0.000    2.909 
#    0.000    1.818    0.000    7.636    0.000    2.545 
#    0.000    0.000    0.000    0.000    0.000    0.000 
#
# Total GULP energy -367633.759021 kJ/mol
# GULP energy per Si atom -5570.208470 kJ/mol
# Density = 1.992357 g / cm^3
# Si number density = 19.969018 Si / 1000 Ang^3
#
#
#
# Elastic Constant Matrix: (Units=GPa)
#
#
# Indices 1 2 3 4 5 6 
#
# 1 75.5764 33.3267 72.8776 0.0001 0.0000 0.0000
# 2 33.3267 75.5764 72.8776 -0.0001 0.0000 0.0000
# 3 72.8776 72.8776 235.6737 0.0000 0.0000 0.0000
# 4 0.0001 -0.0001 0.0000 37.5057 0.0000 0.0000
# 5 0.0000 0.0000 0.0000 0.0000 37.5057 0.0001
# 6 0.0000 0.0000 0.0000 0.0000 0.0001 21.1248
#
#
#
# Elastic Compliance Matrix: (Units=1/GPa)
#
#
# Indices 1 2 3 4 5 6 
#
# 1 0.019668 -0.004001 -0.004845 0.000000 0.000000 0.000000
# 2 -0.004001 0.019668 -0.004845 0.000000 0.000000 0.000000
# 3 -0.004845 -0.004845 0.007239 0.000000 0.000000 0.000000
# 4 0.000000 0.000000 0.000000 0.026663 0.000000 0.000000
# 5 0.000000 0.000000 0.000000 0.000000 0.026663 0.000000
# 6 0.000000 0.000000 0.000000 0.000000 0.000000 0.047338
#
#
# Mechanical properties :
#
#
# Convention : Reuss Voigt Hill
#
# Bulk Modulus (GPa) = 52.09981 82.77671 67.43826
# Shear Modulus (GPa) = 27.62186 33.07686 30.34936
#
# Velocity S-wave (km/s) = 3.72322 4.07432 3.90272
# Velocity P-wave (km/s) = 6.68058 7.97972 7.35888
#
# Compressibility (1/GPa) = 0.01919393
#
# Stress axis : x y z
#
# Youngs Moduli (GPa) = 50.84502 50.84502 138.13470
#
# Poissons Ratio (x) = 0.20344 0.66920
# Poissons Ratio (y) = 0.20344 0.66920
# Poissons Ratio (z) = 0.24632 0.24632
#
# Static dielectric constant tensor:
#      x y z
#    x 1.728600 0.000000 0.000000 
#    y 0.000000 1.728600 0.000000 
#    z 0.000000 0.000000 1.738370 
# 
# From -- ./inp_files/3305.got.cif
#   From: 2010.05.17/outbox.cif.g08.bks.cpg/sg165_2_cif.got.tgz:3305.got - 2010.05.20 11:02:39.
