data_PCOD9578812
_publ_section_title
;
Structure prediction by ZEFSAII (Michael W. Deem and Ramdas Pophale) SiO2 
 PCOD9578812
Probable space group: P -3 C 1
;
_chemical_formula_sum "Si O2"
_cell_formula_units_Z 48
_cell_length_a 23.031988
_cell_length_b 23.031988
_cell_length_c 5.401483
_cell_angle_alpha 90.000000
_cell_angle_beta 90.000000
_cell_angle_gamma 120.000000
_cell_volume 2481.455529
_symmetry_space_group_name_H-M "P -3 C 1"
_symmetry_group_IT_number 165
_symmetry_cell_setting 'hexagonal'
loop_
_space_group_symop_operation_xyz
x,y,z
-y,x-y,z
-x+y,-x,z
x-y,-y,1/2-z
-x,-x+y,1/2-z
y,x,1/2-z
-x,-y,-z
y,-x+y,-z
x-y,x,-z
-x+y,y,1/2+z
x,x-y,1/2+z
-y,-x,1/2+z
loop_
_atom_site_type_symbol
_atom_site_label
_atom_site_fract_x
_atom_site_fract_y
_atom_site_fract_z
Si Si1 0.580354 0.580354 0.750000
Si Si2 0.734234 0.250816 0.300581
Si Si3 0.000000 0.657081 0.750000
Si Si4 0.366735 0.148841 0.289681
Si Si5 0.398875 0.540123 0.314644
O O1 0.614827 0.623135 0.501097
O O2 0.571151 0.508220 0.701095
O O3 0.717567 0.273658 0.552417
O O4 0.806134 0.254957 0.292350
O O5 0.678046 0.173552 0.266476
O O6 0.069996 0.727593 0.718926
O O7 0.346211 0.172257 0.541653
O O8 0.406248 0.567006 0.593586
#
# Coordination Sequence:
#
# PCOD9578812 Si02
#       5
#     6  12   6  12  12
#     4  12  22  37  56  84 122 150 192 249 300 350
#     4  10  19  36  57  76 101 140 186 235 292 350
#     4  12  22  37  64  94 120 160 206 245 302 380
#     4  10  20  35  56  87 119 153 193 236 290 358
#     4  12  24  38  56  82 113 151 194 245 303 362
#
# _framework density 19.343487
#
# number of rings (size 3 to 8) (size 9 to 14) (size 15 to 20)
#    0.000    1.000    0.000   11.250    0.000    0.000 
#    0.000    0.000    0.000   10.000    0.000    0.000 
#    0.000    0.000    0.000    7.500    0.000    0.750 
#
# Total GULP energy -267838.808708 kJ/mol
# GULP energy per Si atom -5579.975181 kJ/mol
# Density = 1.929946 g / cm^3
# Si number density = 19.343487 Si / 1000 Ang^3
#
#
#
# Elastic Constant Matrix: (Units=GPa)
#
#
# Indices 1 2 3 4 5 6 
#
# 1 63.0538 12.8358 20.0517 -0.3802 0.0000 0.0000
# 2 12.8358 63.0538 20.0517 0.3802 0.0000 0.0000
# 3 20.0517 20.0517 205.8928 0.0000 0.0000 0.0000
# 4 -0.3802 0.3802 0.0000 25.1906 0.0000 0.0000
# 5 0.0000 0.0000 0.0000 0.0000 25.1906 -0.3802
# 6 0.0000 0.0000 0.0000 0.0000 -0.3802 25.1090
#
#
#
# Elastic Compliance Matrix: (Units=1/GPa)
#
#
# Indices 1 2 3 4 5 6 
#
# 1 0.016905 -0.003013 -0.001353 0.000301 0.000000 0.000000
# 2 -0.003013 0.016905 -0.001353 -0.000301 0.000000 0.000000
# 3 -0.001353 -0.001353 0.005120 0.000000 0.000000 0.000000
# 4 0.000301 -0.000301 0.000000 0.039706 0.000000 0.000000
# 5 0.000000 0.000000 0.000000 0.000000 0.039706 0.000601
# 6 0.000000 0.000000 0.000000 0.000000 0.000601 0.039835
#
#
# Mechanical properties :
#
#
# Convention : Reuss Voigt Hill
#
# Bulk Modulus (GPa) = 36.37331 48.65319 42.51325
# Shear Modulus (GPa) = 27.96732 33.70212 30.83472
#
# Velocity S-wave (km/s) = 3.80653 4.17861 3.99690
# Velocity P-wave (km/s) = 6.17772 6.96333 6.58226
#
# Compressibility (1/GPa) = 0.02749268
#
# Stress axis : x y z
#
# Youngs Moduli (GPa) = 59.15461 59.15461 195.29656
#
# Poissons Ratio (x) = 0.17822 0.26422
# Poissons Ratio (y) = 0.17822 0.26422
# Poissons Ratio (z) = 0.08003 0.08003
#
# Static dielectric constant tensor:
#      x y z
#    x 1.694690 0.000000 0.000000 
#    y 0.000000 1.694690 0.000000 
#    z 0.000000 0.000000 1.836590 
# 
# From -- ./inp_files/141.got.cif
#   From: 2010.05.17/outbox.cif.g08.bks.cpg/sg165_1_cif.got.tgz:141.got - 2010.05.20 11:02:39.
