data_PCOD9578765
_publ_section_title
;
Structure prediction by ZEFSAII (Michael W. Deem and Ramdas Pophale) SiO2 
 PCOD9578765
Probable space group: P -3 C 1
;
_chemical_formula_sum "Si O2"
_cell_formula_units_Z 78
_cell_length_a 23.940467
_cell_length_b 23.940467
_cell_length_c 8.977948
_cell_angle_alpha 90.000000
_cell_angle_beta 90.000000
_cell_angle_gamma 120.000000
_cell_volume 4456.284946
_symmetry_space_group_name_H-M "P -3 C 1"
_symmetry_group_IT_number 165
_symmetry_cell_setting 'hexagonal'
loop_
_space_group_symop_operation_xyz
x,y,z
-y,x-y,z
-x+y,-x,z
x-y,-y,1/2-z
-x,-x+y,1/2-z
y,x,1/2-z
-x,-y,-z
y,-x+y,-z
x-y,x,-z
-x+y,y,1/2+z
x,x-y,1/2+z
-y,-x,1/2+z
loop_
_atom_site_type_symbol
_atom_site_label
_atom_site_fract_x
_atom_site_fract_y
_atom_site_fract_z
Si Si1 0.383123 0.079242 0.032020
Si Si2 0.717510 0.803359 0.992295
Si Si3 0.138593 0.437300 0.988555
Si Si4 0.730666 0.730666 0.250000
Si Si5 0.567760 0.766990 0.287361
Si Si6 0.445997 0.012184 0.572200
Si Si7 0.696223 0.803057 0.680153
O O1 0.335828 0.050868 0.172436
O O2 0.426897 0.154147 0.073282
O O3 0.339431 0.071857 0.889631
O O4 0.418719 0.040078 0.001506
O O5 0.641679 0.745483 0.988410
O O6 0.749540 0.781322 0.117480
O O7 0.724471 0.870489 0.047107
O O8 0.738913 0.810140 0.821982
O O9 0.177710 0.458012 0.145279
O O10 0.190733 0.461868 0.853796
O O11 0.082688 0.454844 0.965217
O O12 0.639592 0.823661 0.241416
O O13 0.441215 0.000000 0.750000
O O14 0.500000 0.000000 0.500000
#
# Coordination Sequence:
#
# PCOD9578765 Si02
#       7
#    12  12  12   6  12  12  12
#     4  12  20  33  51  72 105 143 181 220 275 342
#     4  10  17  29  45  70  94 127 172 215 268 303
#     4  10  19  35  53  77 104 136 183 226 270 327
#     4  12  20  28  48  70  98 142 166 210 282 316
#     4  10  17  31  56  74  94 130 183 230 258 299
#     4  12  28  40  53  78 122 160 182 223 307 393
#     4  10  17  30  47  72  94 125 173 227 253 304
#
# _framework density 17.503368999999999
#
# number of rings (size 3 to 8) (size 9 to 14) (size 15 to 20)
#    0.000    1.231    9.231    1.846    3.231    0.000 
#    0.000    0.000    0.000    0.000    0.000    0.000 
#    1.538    2.769    0.000    0.000    0.000    0.000 
#
# Total GULP energy -434731.933052 kJ/mol
# GULP energy per Si atom -5573.486321 kJ/mol
# Density = 1.746353 g / cm^3
# Si number density = 17.503369 Si / 1000 Ang^3
#
#
#
# Elastic Constant Matrix: (Units=GPa)
#
#
# Indices 1 2 3 4 5 6 
#
# 1 69.3109 38.9613 29.6995 -1.5078 0.0000 0.0000
# 2 38.9613 69.3109 29.6995 1.5078 0.0000 0.0000
# 3 29.6995 29.6995 115.6971 0.0000 0.0000 0.0000
# 4 -1.5078 1.5078 0.0000 25.7084 0.0000 0.0000
# 5 0.0000 0.0000 0.0000 0.0000 25.7084 -1.5078
# 6 0.0000 0.0000 0.0000 0.0000 -1.5078 15.1748
#
#
#
# Elastic Compliance Matrix: (Units=1/GPa)
#
#
# Indices 1 2 3 4 5 6 
#
# 1 0.021946 -0.011196 -0.002759 0.001944 0.000000 0.000000
# 2 -0.011196 0.021946 -0.002759 -0.001944 0.000000 0.000000
# 3 -0.002759 -0.002759 0.010060 0.000000 0.000000 0.000000
# 4 0.001944 -0.001944 0.000000 0.039126 0.000000 0.000000
# 5 0.000000 0.000000 0.000000 0.000000 0.039126 0.003888
# 6 0.000000 0.000000 0.000000 0.000000 0.003888 0.066285
#
#
# Mechanical properties :
#
#
# Convention : Reuss Voigt Hill
#
# Bulk Modulus (GPa) = 48.72884 50.11551 49.42217
# Shear Modulus (GPa) = 20.94154 23.71557 22.32856
#
# Velocity S-wave (km/s) = 3.46270 3.68491 3.57553
# Velocity P-wave (km/s) = 6.62474 6.84097 6.73372
#
# Compressibility (1/GPa) = 0.02052173
#
# Stress axis : x y z
#
# Youngs Moduli (GPa) = 45.56607 45.56607 99.40370
#
# Poissons Ratio (x) = 0.51017 0.27430
# Poissons Ratio (y) = 0.51017 0.27430
# Poissons Ratio (z) = 0.12574 0.12574
#
# Static dielectric constant tensor:
#      x y z
#    x 1.620430 0.000000 0.000000 
#    y 0.000000 1.620430 0.000000 
#    z 0.000000 0.000000 1.695900 
# 
# From -- ./inp_files/814.got.cif
#   From: 2010.05.17/outbox.cif.g08.bks.cpg/sg165_1_cif.got.tgz:814.got - 2010.05.20 11:02:39.
