data_PCOD9578832
_publ_section_title
;
Structure prediction by ZEFSAII (Michael W. Deem and Ramdas Pophale) SiO2 
 PCOD9578832
Probable space group: P -3 C 1
;
_chemical_formula_sum "Si O2"
_cell_formula_units_Z 66
_cell_length_a 11.280257
_cell_length_b 11.280257
_cell_length_c 29.456617
_cell_angle_alpha 90.000000
_cell_angle_beta 90.000000
_cell_angle_gamma 120.000000
_cell_volume 3246.022220
_symmetry_space_group_name_H-M "P -3 C 1"
_symmetry_group_IT_number 165
_symmetry_cell_setting 'hexagonal'
loop_
_space_group_symop_operation_xyz
x,y,z
-y,x-y,z
-x+y,-x,z
x-y,-y,1/2-z
-x,-x+y,1/2-z
y,x,1/2-z
-x,-y,-z
y,-x+y,-z
x-y,x,-z
-x+y,y,1/2+z
x,x-y,1/2+z
-y,-x,1/2+z
loop_
_atom_site_type_symbol
_atom_site_label
_atom_site_fract_x
_atom_site_fract_y
_atom_site_fract_z
Si Si1 0.272891 0.285942 0.500472
Si Si2 0.496554 0.000000 0.750000
Si Si3 0.945952 0.254066 0.309090
Si Si4 0.247168 0.293827 0.307001
Si Si5 0.395524 0.320637 0.096485
Si Si6 0.961376 0.352906 0.096646
O O1 0.264251 0.141363 0.503802
O O2 0.343327 0.350616 0.452800
O O3 0.341189 0.366592 0.546774
O O4 0.629680 0.074296 0.783164
O O5 0.435553 0.071087 0.716129
O O6 0.097198 0.274674 0.299789
O O7 0.955483 0.284686 0.363294
O O8 0.831795 0.102242 0.293552
O O9 0.270955 0.294629 0.361104
O O10 0.520056 0.465172 0.110164
O O11 0.423613 0.194735 0.092386
#
# Coordination Sequence:
#
# PCOD9578832 Si02
#       6
#    12   6  12  12  12  12
#     4  10  20  34  58  86 122 158 204 254 308 370
#     4  12  24  44  62  94 128 160 212 264 324 378
#     4  11  24  45  69  97 128 168 215 266 322 382
#     4  11  24  45  69  97 128 168 215 266 322 382
#     4  10  20  37  59  89 124 163 205 252 310 377
#     4  10  20  37  59  89 124 163 205 252 310 377
#
# _framework density 20.332577000000001
#
# number of rings (size 3 to 8) (size 9 to 14) (size 15 to 20)
#    0.000    1.455    1.818    3.636    0.000    0.000 
#    8.727    5.455    0.000    2.909    0.000    0.000 
#    0.000    0.000    0.000    0.000    0.000    0.000 
#
# Total GULP energy -367568.135672 kJ/mol
# GULP energy per Si atom -5569.214177 kJ/mol
# Density = 2.028630 g / cm^3
# Si number density = 20.332577 Si / 1000 Ang^3
#
#
#
# Elastic Constant Matrix: (Units=GPa)
#
#
# Indices 1 2 3 4 5 6 
#
# 1 84.8242 48.3231 14.2506 1.3793 0.0000 0.0000
# 2 48.3231 84.8242 14.2506 -1.3793 0.0000 0.0000
# 3 14.2506 14.2506 133.7108 0.0000 0.0000 0.0000
# 4 1.3793 -1.3793 0.0000 33.2923 0.0000 0.0000
# 5 0.0000 0.0000 0.0000 0.0000 33.2923 1.3793
# 6 0.0000 0.0000 0.0000 0.0000 1.3793 18.2505
#
#
#
# Elastic Compliance Matrix: (Units=1/GPa)
#
#
# Indices 1 2 3 4 5 6 
#
# 1 0.017584 -0.009898 -0.000819 -0.001139 0.000000 0.000000
# 2 -0.009898 0.017584 -0.000819 0.001139 0.000000 0.000000
# 3 -0.000819 -0.000819 0.007653 0.000000 0.000000 0.000000
# 4 -0.001139 0.001139 0.000000 0.030131 0.000000 0.000000
# 5 0.000000 0.000000 0.000000 0.000000 0.030131 -0.002277
# 6 0.000000 0.000000 0.000000 0.000000 -0.002277 0.054965
#
#
# Mechanical properties :
#
#
# Convention : Reuss Voigt Hill
#
# Bulk Modulus (GPa) = 50.63670 50.77865 50.70767
# Shear Modulus (GPa) = 26.63750 32.06938 29.35344
#
# Velocity S-wave (km/s) = 3.62344 3.97576 3.80368
# Velocity P-wave (km/s) = 6.51645 6.78998 6.65462
#
# Compressibility (1/GPa) = 0.01974852
#
# Stress axis : x y z
#
# Youngs Moduli (GPa) = 56.86939 56.86939 130.66040
#
# Poissons Ratio (x) = 0.56291 0.10703
# Poissons Ratio (y) = 0.56291 0.10703
# Poissons Ratio (z) = 0.04658 0.04658
#
# Static dielectric constant tensor:
#      x y z
#    x 1.697260 0.000000 0.000000 
#    y 0.000000 1.697260 0.000000 
#    z 0.000000 0.000000 1.879060 
# 
# From -- ./inp_files/3314.got.cif
#   From: 2010.05.17/outbox.cif.g08.bks.cpg/sg165_2_cif.got.tgz:3314.got - 2010.05.20 11:02:39.
