data_PCOD9578895
_publ_section_title
;
Structure prediction by ZEFSAII (Michael W. Deem and Ramdas Pophale) SiO2 
 PCOD9578895
Probable space group: P -3 C 1
;
_chemical_formula_sum "Si O2"
_cell_formula_units_Z 36
_cell_length_a 9.456326
_cell_length_b 9.456326
_cell_length_c 25.966411
_cell_angle_alpha 90.000000
_cell_angle_beta 90.000000
_cell_angle_gamma 120.000000
_cell_volume 2010.885906
_symmetry_space_group_name_H-M "P -3 C 1"
_symmetry_group_IT_number 165
_symmetry_cell_setting 'hexagonal'
loop_
_space_group_symop_operation_xyz
x,y,z
-y,x-y,z
-x+y,-x,z
x-y,-y,1/2-z
-x,-x+y,1/2-z
y,x,1/2-z
-x,-y,-z
y,-x+y,-z
x-y,x,-z
-x+y,y,1/2+z
x,x-y,1/2+z
-y,-x,1/2+z
loop_
_atom_site_type_symbol
_atom_site_label
_atom_site_fract_x
_atom_site_fract_y
_atom_site_fract_z
Si Si1 0.116218 0.304986 0.868095
Si Si2 0.333333 0.666667 0.365657
Si Si3 0.802000 0.695857 0.298378
Si Si4 0.000000 0.000000 0.561000
Si Si5 0.333334 0.666668 0.741575
O O1 0.185029 0.491666 0.882473
O O2 0.265945 0.294958 0.841865
O O3 0.973330 0.233927 0.824804
O O4 0.050325 0.176349 0.914607
O O5 0.333334 0.666667 0.303288
O O6 0.804451 0.804451 0.250000
O O7 0.713189 0.511390 0.278756
O O8 0.000000 0.000000 0.500000
#
# Coordination Sequence:
#
# PCOD9578895 Si02
#       5
#    12   4  12   4   4
#     4  10  22  36  59  79 110 146 184 239 263 325
#     4  12  21  36  51  88 119 142 189 219 279 310
#     4  11  21  34  48  78 111 157 191 208 259 314
#     4   9  21  45  64  80 100 141 189 231 292 341
#     4  12  24  30  51  76 125 163 174 216 252 316
#
# _framework density 17.902555
#
# number of rings (size 3 to 8) (size 9 to 14) (size 15 to 20)
#    0.000    1.333    3.333    3.667    0.000    0.000 
#    0.000    1.667    0.000    0.000    0.000    0.000 
#    0.000    0.000    0.000    0.000    0.000    0.000 
#
# Total GULP energy -200959.904914 kJ/mol
# GULP energy per Si atom -5582.219581 kJ/mol
# Density = 1.786181 g / cm^3
# Si number density = 17.902555 Si / 1000 Ang^3
#
#
#
# Elastic Constant Matrix: (Units=GPa)
#
#
# Indices 1 2 3 4 5 6 
#
# 1 80.0186 29.1876 21.5685 -6.0972 0.0000 0.0000
# 2 29.1876 80.0194 21.5691 6.0975 0.0000 0.0000
# 3 21.5685 21.5691 93.9507 0.0001 0.0000 0.0000
# 4 -6.0972 6.0975 0.0001 10.4936 0.0000 0.0000
# 5 0.0000 0.0000 0.0000 0.0000 10.4933 -6.0975
# 6 0.0000 0.0000 0.0000 0.0000 -6.0975 25.4161
#
#
#
# Elastic Compliance Matrix: (Units=1/GPa)
#
#
# Indices 1 2 3 4 5 6 
#
# 1 0.016465 -0.006395 -0.002312 0.013283 0.000000 0.000000
# 2 -0.006395 0.016465 -0.002312 -0.013283 0.000000 0.000000
# 3 -0.002312 -0.002312 0.011705 0.000000 0.000000 0.000000
# 4 0.013283 -0.013283 0.000000 0.110732 0.000000 0.000000
# 5 0.000000 0.000000 0.000000 0.000000 0.110736 0.026567
# 6 0.000000 0.000000 0.000000 0.000000 0.026567 0.045719
#
#
# Mechanical properties :
#
#
# Convention : Reuss Voigt Hill
#
# Bulk Modulus (GPa) = 44.25123 44.29323 44.27223
# Shear Modulus (GPa) = 14.64594 21.39149 18.01871
#
# Velocity S-wave (km/s) = 2.86333 3.46046 3.17596
# Velocity P-wave (km/s) = 5.97520 6.38446 6.18322
#
# Compressibility (1/GPa) = 0.02259824
#
# Stress axis : x y z
#
# Youngs Moduli (GPa) = 60.73550 60.73579 85.43082
#
# Poissons Ratio (x) = 0.38838 0.19750
# Poissons Ratio (y) = 0.38838 0.19751
# Poissons Ratio (z) = 0.14041 0.14042
#
# Static dielectric constant tensor:
#      x y z
#    x 1.641550 0.000000 0.000000 
#    y 0.000000 1.641550 0.000000 
#    z 0.000000 0.000000 1.574910 
# 
# From -- ./inp_files/3228.got.cif
#   From: 2010.05.17/outbox.cif.g08.bks.cpg/sg165_2_cif.got.tgz:3228.got - 2010.05.20 11:02:39.
