data_PCOD9578129
_publ_section_title
;
Structure prediction by ZEFSAII (Michael W. Deem and Ramdas Pophale) SiO2 
 PCOD9578129
Probable space group: P -3 1 C
;
_chemical_formula_sum "Si O2"
_cell_formula_units_Z 44
_cell_length_a 13.246475
_cell_length_b 13.246475
_cell_length_c 14.610565
_cell_angle_alpha 90.000000
_cell_angle_beta 90.000000
_cell_angle_gamma 120.000000
_cell_volume 2220.231657
_symmetry_space_group_name_H-M "P -3 1 C"
_symmetry_group_IT_number 163
_symmetry_cell_setting 'hexagonal'
loop_
_space_group_symop_operation_xyz
x,y,z
-y,x-y,z
-x+y,-x,z
-y,-x,1/2-z
-x+y,y,1/2-z
x,x-y,1/2-z
-x,-y,-z
y,-x+y,-z
x-y,x,-z
y,x,1/2+z
x-y,-y,1/2+z
-x,-x+y,1/2+z
loop_
_atom_site_type_symbol
_atom_site_label
_atom_site_fract_x
_atom_site_fract_y
_atom_site_fract_z
Si Si1 0.574773 0.864514 0.086697
Si Si2 0.867906 0.735811 0.750000
Si Si3 0.666667 0.333334 0.391029
Si Si4 0.867907 0.735813 0.250000
Si Si5 0.864515 0.289741 0.413302
Si Si6 0.333334 0.666668 0.391032
O O1 0.658573 0.864821 0.165210
O O2 0.444568 0.791734 0.130042
O O3 0.618609 1.000000 0.062935
O O4 0.580093 0.790047 0.999999
O O5 0.814909 0.814908 0.719280
O O6 0.791734 0.347165 0.369956
O O7 0.666668 0.333334 0.499999
O O8 0.793753 0.658575 0.334790
#
# Coordination Sequence:
#
# PCOD9578129 Si02
#       6
#    12   6   4   6  12   4
#     4  10  21  37  57  81 110 144 181 222 270 322
#     4  10  21  36  56  82 111 144 182 224 268 318
#     4   9  21  37  56  82 112 143 178 226 272 316
#     4  10  21  36  56  82 111 144 182 224 268 318
#     4  10  21  37  57  81 110 144 181 222 270 322
#     4   9  21  37  56  82 112 143 178 226 272 316
#
# _framework density 19.817753
#
# number of rings (size 3 to 8) (size 9 to 14) (size 15 to 20)
#    0.000    2.182    0.000    1.909    0.000   14.182 
#    0.000    5.455    0.000    8.727    0.000    0.000 
#    0.000    0.000    0.000    0.000    0.000    0.000 
#
# Total GULP energy -245205.367675 kJ/mol
# GULP energy per Si atom -5572.849265 kJ/mol
# Density = 1.977265 g / cm^3
# Si number density = 19.817753 Si / 1000 Ang^3
#
#
#
# Elastic Constant Matrix: (Units=GPa)
#
#
# Indices 1 2 3 4 5 6 
#
# 1 133.1791 84.8847 13.7981 0.0003 -3.6659 -0.0004
# 2 84.8847 133.1780 13.7979 -0.0003 3.6660 -0.0005
# 3 13.7981 13.7979 43.1338 0.0001 0.0001 -0.0002
# 4 0.0003 -0.0003 0.0001 17.4916 0.0003 3.6658
# 5 -3.6659 3.6660 0.0001 0.0003 17.4913 0.0000
# 6 -0.0004 -0.0005 -0.0002 3.6658 0.0000 24.1468
#
#
#
# Elastic Compliance Matrix: (Units=1/GPa)
#
#
# Indices 1 2 3 4 5 6 
#
# 1 0.013083 -0.008304 -0.001529 0.000000 0.004482 0.000000
# 2 -0.008304 0.013083 -0.001529 0.000000 -0.004482 0.000000
# 3 -0.001529 -0.001529 0.024162 0.000000 0.000000 0.000000
# 4 0.000000 0.000000 0.000000 0.059049 -0.000001 -0.008964
# 5 0.004482 -0.004482 0.000000 -0.000001 0.059050 0.000000
# 6 0.000000 0.000000 0.000000 -0.008964 0.000000 0.042774
#
#
# Mechanical properties :
#
#
# Convention : Reuss Voigt Hill
#
# Bulk Modulus (GPa) = 36.22530 59.38360 47.80445
# Shear Modulus (GPa) = 20.56543 24.95995 22.76269
#
# Velocity S-wave (km/s) = 3.22487 3.55276 3.39278
# Velocity P-wave (km/s) = 5.67321 6.84539 6.28668
#
# Compressibility (1/GPa) = 0.02760502
#
# Stress axis : x y z
#
# Youngs Moduli (GPa) = 76.43423 76.43367 41.38764
#
# Poissons Ratio (x) = 0.63470 0.06328
# Poissons Ratio (y) = 0.63470 0.06327
# Poissons Ratio (z) = 0.11686 0.11685
#
# Static dielectric constant tensor:
#      x y z
#    x 1.772170 0.000000 0.000000 
#    y 0.000000 1.772170 -0.000010 
#    z 0.000000 -0.000010 1.722040 
# 
# From -- ./inp_files/2974.got.cif
#   From: 2010.05.17/outbox.cif.g08.bks.cpg/sg163_2_cif.got.tgz:2974.got - 2010.05.20 10:56:03.
