data_PCOD9578261
_publ_section_title
;
Structure prediction by ZEFSAII (Michael W. Deem and Ramdas Pophale) SiO2 
 PCOD9578261
Probable space group: P -3 1 C
;
_chemical_formula_sum "Si O2"
_cell_formula_units_Z 58
_cell_length_a 16.247117
_cell_length_b 16.247117
_cell_length_c 13.230391
_cell_angle_alpha 90.000000
_cell_angle_beta 90.000000
_cell_angle_gamma 120.000000
_cell_volume 3024.516282
_symmetry_space_group_name_H-M "P -3 1 C"
_symmetry_group_IT_number 163
_symmetry_cell_setting 'hexagonal'
loop_
_space_group_symop_operation_xyz
x,y,z
-y,x-y,z
-x+y,-x,z
-y,-x,1/2-z
-x+y,y,1/2-z
x,x-y,1/2-z
-x,-y,-z
y,-x+y,-z
x-y,x,-z
y,x,1/2+z
x-y,-y,1/2+z
-x,-x+y,1/2+z
loop_
_atom_site_type_symbol
_atom_site_label
_atom_site_fract_x
_atom_site_fract_y
_atom_site_fract_z
Si Si1 0.834831 0.669662 0.750000
Si Si2 0.732616 0.532131 0.940722
Si Si3 0.350989 0.898921 0.942117
Si Si4 0.050461 0.607546 0.903780
Si Si5 0.666667 0.333334 0.632581
Si Si6 0.691961 0.748056 0.766427
O O1 0.794047 0.602021 0.849665
O O2 0.781944 0.732055 0.749945
O O3 0.665860 0.426785 0.900792
O O4 0.792781 0.520093 0.030280
O O5 0.668662 0.565763 0.997199
O O6 0.446560 0.915619 0.886485
O O7 0.293740 0.936616 0.874953
O O8 0.388029 0.943930 0.053635
O O9 0.065758 0.677798 0.813208
O O10 0.666668 0.333334 0.750000
O O11 0.710935 0.855468 0.750000
#
# Coordination Sequence:
#
# PCOD9578261 Si02
#       6
#     6  12  12  12   4  12
#     4  12  26  42  64  94 118 162 222 270 318 376
#     4  12  22  39  62  89 130 168 204 259 311 373
#     4  11  23  39  64  92 125 167 210 253 313 386
#     4  11  23  39  64  92 125 167 210 253 313 386
#     4  12  24  36  60 100 137 178 213 252 303 373
#     4  12  25  43  66  91 125 168 218 269 325 387
#
# _framework density 19.176621000000001
#
# number of rings (size 3 to 8) (size 9 to 14) (size 15 to 20)
#    0.000    0.414    9.310    0.621    0.000    0.000 
#    4.345    0.000    0.000    0.000    0.000    4.345 
#    0.000    0.000    0.000    0.000    0.000    0.000 
#
# Total GULP energy -323424.799746 kJ/mol
# GULP energy per Si atom -5576.289651 kJ/mol
# Density = 1.913297 g / cm^3
# Si number density = 19.176621 Si / 1000 Ang^3
#
#
#
# Elastic Constant Matrix: (Units=GPa)
#
#
# Indices 1 2 3 4 5 6 
#
# 1 98.9288 40.3630 13.5802 -0.0004 1.6769 0.0001
# 2 40.3630 98.9290 13.5802 -0.0003 -1.6775 0.0002
# 3 13.5802 13.5802 42.8933 -0.0002 -0.0002 0.0001
# 4 -0.0004 -0.0003 -0.0002 34.1362 0.0001 -1.6770
# 5 1.6769 -1.6775 -0.0002 0.0001 34.1357 0.0000
# 6 0.0001 0.0002 0.0001 -1.6770 0.0000 29.2830
#
#
#
# Elastic Compliance Matrix: (Units=1/GPa)
#
#
# Indices 1 2 3 4 5 6 
#
# 1 0.012387 -0.004736 -0.002423 0.000000 -0.000841 0.000000
# 2 -0.004736 0.012387 -0.002423 0.000000 0.000841 0.000000
# 3 -0.002423 -0.002423 0.024848 0.000000 0.000000 0.000000
# 4 0.000000 0.000000 0.000000 0.029377 0.000000 0.001682
# 5 -0.000841 0.000841 0.000000 0.000000 0.029378 0.000000
# 6 0.000000 0.000000 0.000000 0.001682 0.000000 0.034246
#
#
# Mechanical properties :
#
#
# Convention : Reuss Voigt Hill
#
# Bulk Modulus (GPa) = 32.82923 41.75532 37.29227
# Shear Modulus (GPa) = 29.08032 31.05949 30.06991
#
# Velocity S-wave (km/s) = 3.89838 4.02886 3.96416
# Velocity P-wave (km/s) = 6.11717 6.59269 6.35938
#
# Compressibility (1/GPa) = 0.03046066
#
# Stress axis : x y z
#
# Youngs Moduli (GPa) = 80.72817 80.72824 40.24530
#
# Poissons Ratio (x) = 0.38231 0.09749
# Poissons Ratio (y) = 0.38231 0.09749
# Poissons Ratio (z) = 0.19556 0.19556
#
# Static dielectric constant tensor:
#      x y z
#    x 1.737170 0.000000 0.000000 
#    y 0.000000 1.737170 0.000000 
#    z 0.000000 0.000000 1.687500 
# 
# From -- ./inp_files/2416.got.cif
#   From: 2010.05.17/outbox.cif.g08.bks.cpg/sg163_2_cif.got.tgz:2416.got - 2010.05.20 10:56:03.
