data_PCOD9578447
_publ_section_title
;
Structure prediction by ZEFSAII (Michael W. Deem and Ramdas Pophale) SiO2 
 PCOD9578447
Probable space group: P -3 M 1
;
_chemical_formula_sum "Si O2"
_cell_formula_units_Z 84
_cell_length_a 17.566032
_cell_length_b 17.566032
_cell_length_c 21.126063
_cell_angle_alpha 90.000000
_cell_angle_beta 90.000000
_cell_angle_gamma 120.000000
_cell_volume 5645.423691
_symmetry_space_group_name_H-M "P -3 M 1"
_symmetry_group_IT_number 164
_symmetry_cell_setting 'hexagonal'
loop_
_space_group_symop_operation_xyz
x,y,z
-y,x-y,z
-x+y,-x,z
x-y,-y,-z
-x,-x+y,-z
y,x,-z
-x,-y,-z
y,-x+y,-z
x-y,x,-z
-x+y,y,z
x,x-y,z
-y,-x,z
loop_
_atom_site_type_symbol
_atom_site_label
_atom_site_fract_x
_atom_site_fract_y
_atom_site_fract_z
Si Si1 0.899794 0.541639 0.000000
Si Si2 0.841831 0.330218 0.140571
Si Si3 0.841831 0.511613 0.859431
Si Si4 0.819475 0.819475 0.074718
Si Si5 0.816427 0.000001 0.708505
Si Si6 0.692428 0.999999 0.181234
Si Si7 0.000000 0.181701 0.567873
O O1 0.901916 0.450958 0.000000
O O2 0.855717 0.539769 0.066286
O O3 0.855717 0.539769 0.933715
O O4 0.000000 0.618785 0.000000
O O5 0.854329 0.427165 0.146963
O O6 0.744555 0.255446 0.158977
O O7 0.914807 0.318911 0.177937
O O8 0.744554 0.489107 0.841025
O O9 0.854330 0.427165 0.853038
O O10 0.914805 0.595896 0.822063
O O11 0.912736 0.825471 0.087555
O O12 0.746392 0.746393 0.119311
O O13 0.825473 0.912737 0.087555
O O14 0.800670 0.800670 0.000000
O O15 0.912301 0.087700 0.715534
O O16 0.781174 0.000003 0.637257
O O17 0.824599 0.912300 0.715532
O O18 0.749978 0.000001 0.760087
O O19 0.914048 0.085953 0.567529
O O20 0.000000 0.224835 0.500000
O O21 0.085956 0.171911 0.567532
#
# Coordination Sequence:
#
# PCOD9578447 Si02
#       7
#    12  12  12  12  12  12  12
#     4   9  17  32  50  67  84 106 136 181 236 287
#     4  11  22  36  52  68  87 112 147 189 235 284
#     4  11  22  36  52  68  87 112 147 189 235 284
#     4  10  21  35  49  63  81 111 153 195 229 262
#     4  10  19  31  46  67  96 129 163 194 226 268
#     4  12  23  34  46  68  92 120 148 184 234 280
#     4   8  13  22  39  63  91 123 157 190 221 257
#
# _framework density 14.879307000000001
#
# number of rings (size 3 to 8) (size 9 to 14) (size 15 to 20)
#    0.000    1.857    1.429    4.143    2.000    2.286 
#    0.000    2.857    0.000    0.000    0.000    0.000 
#    0.000    2.286    0.000    0.571    0.000    7.143 
#
# Total GULP energy -468356.298309 kJ/mol
# GULP energy per Si atom -5575.670218 kJ/mol
# Density = 1.484544 g / cm^3
# Si number density = 14.879307 Si / 1000 Ang^3
#
#
#
# Elastic Constant Matrix: (Units=GPa)
#
#
# Indices 1 2 3 4 5 6 
#
# 1 94.9579 39.6592 43.8656 0.0004 0.0000 0.0000
# 2 39.6592 94.9579 43.8656 -0.0004 0.0000 0.0000
# 3 43.8656 43.8656 89.7052 0.0000 0.0000 0.0000
# 4 0.0004 -0.0004 0.0000 9.4575 0.0000 0.0000
# 5 0.0000 0.0000 0.0000 0.0000 9.4575 0.0004
# 6 0.0000 0.0000 0.0000 0.0000 0.0004 27.6493
#
#
#
# Elastic Compliance Matrix: (Units=1/GPa)
#
#
# Indices 1 2 3 4 5 6 
#
# 1 0.014493 -0.003590 -0.005332 -0.000001 0.000000 0.000000
# 2 -0.003590 0.014493 -0.005332 0.000001 0.000000 0.000000
# 3 -0.005332 -0.005332 0.016362 0.000000 0.000000 0.000000
# 4 -0.000001 0.000001 0.000000 0.105736 0.000000 0.000000
# 5 0.000000 0.000000 0.000000 0.000000 0.105736 -0.000002
# 6 0.000000 0.000000 0.000000 0.000000 -0.000002 0.036167
#
#
# Mechanical properties :
#
#
# Convention : Reuss Voigt Hill
#
# Bulk Modulus (GPa) = 59.37625 59.37800 59.37712
# Shear Modulus (GPa) = 15.28543 19.46157 17.37350
#
# Velocity S-wave (km/s) = 3.20862 3.62050 3.42076
# Velocity P-wave (km/s) = 7.32932 7.58092 7.45618
#
# Compressibility (1/GPa) = 0.01684175
#
# Stress axis : x y z
#
# Youngs Moduli (GPa) = 68.99705 68.99705 61.11754
#
# Poissons Ratio (x) = 0.24772 0.32585
# Poissons Ratio (y) = 0.24772 0.32585
# Poissons Ratio (z) = 0.36787 0.36787
#
# Static dielectric constant tensor:
#      x y z
#    x 1.490170 0.000000 0.000000 
#    y 0.000000 1.490170 0.000000 
#    z 0.000000 0.000000 1.514060 
# 
# From -- ./inp_files/4685.got.cif
#   From: 2010.05.17/outbox.cif.g08.bks.cpg/sg164_3_cif.got.tgz:4685.got - 2010.05.20 10:58:56.
