data_PCOD9578507
_publ_section_title
;
Structure prediction by ZEFSAII (Michael W. Deem and Ramdas Pophale) SiO2 
 PCOD9578507
Probable space group: P -3 M 1
;
_chemical_formula_sum "Si O2"
_cell_formula_units_Z 60
_cell_length_a 18.202053
_cell_length_b 18.202053
_cell_length_c 12.522679
_cell_angle_alpha 90.000000
_cell_angle_beta 90.000000
_cell_angle_gamma 120.000000
_cell_volume 3593.094414
_symmetry_space_group_name_H-M "P -3 M 1"
_symmetry_group_IT_number 164
_symmetry_cell_setting 'hexagonal'
loop_
_space_group_symop_operation_xyz
x,y,z
-y,x-y,z
-x+y,-x,z
x-y,-y,-z
-x,-x+y,-z
y,x,-z
-x,-y,-z
y,-x+y,-z
x-y,x,-z
-x+y,y,z
x,x-y,z
-y,-x,z
loop_
_atom_site_type_symbol
_atom_site_label
_atom_site_fract_x
_atom_site_fract_y
_atom_site_fract_z
Si Si1 0.366831 0.468239 0.519481
Si Si2 0.354024 0.261780 0.044426
Si Si3 0.907665 0.647231 0.298395
Si Si4 0.333227 0.840458 0.127704
Si Si5 0.899283 0.633438 0.677756
O O1 0.423053 0.423053 0.500000
O O2 0.431663 0.568338 0.512952
O O3 0.320215 0.436620 0.632629
O O4 0.298773 0.427332 0.425358
O O5 0.330049 0.165025 0.020141
O O6 0.365050 0.273747 0.171380
O O7 0.286618 0.286618 0.000000
O O8 0.441621 0.320179 0.981883
O O9 0.836781 0.673563 0.320882
O O10 0.004238 0.712923 0.332170
O O11 0.423524 0.847047 0.136025
O O12 0.256839 0.743162 0.135503
O O13 0.316961 0.890687 0.222362
O O14 0.832465 0.664929 0.694810
#
# Coordination Sequence:
#
# PCOD9578507 Si02
#       5
#    12  12  12  12  12
#     4   9  18  32  50  74 103 132 165 207 251 300
#     4  10  20  35  52  75 103 137 177 218 264 314
#     4  10  20  34  52  76 105 137 174 216 263 312
#     4  10  20  33  50  74 102 131 166 210 262 311
#     4  10  19  33  54  78 103 134 174 216 260 308
#
# _framework density 16.698698
#
# number of rings (size 3 to 8) (size 9 to 14) (size 15 to 20)
#    0.000    2.200    2.000    1.400    0.000    2.000 
#    0.000    0.000    0.000    5.000    0.000    0.000 
#    0.000    4.800    0.000    0.000    0.000    0.000 
#
# Total GULP energy -334371.222029 kJ/mol
# GULP energy per Si atom -5572.853700 kJ/mol
# Density = 1.666069 g / cm^3
# Si number density = 16.698698 Si / 1000 Ang^3
#
#
#
# Elastic Constant Matrix: (Units=GPa)
#
#
# Indices 1 2 3 4 5 6 
#
# 1 90.6903 67.5098 30.4057 -0.6959 0.0000 0.0000
# 2 67.5098 90.6903 30.4057 0.6959 0.0000 0.0000
# 3 30.4057 30.4057 84.4742 0.0000 0.0000 0.0000
# 4 -0.6959 0.6959 0.0000 13.4309 0.0000 0.0000
# 5 0.0000 0.0000 0.0000 0.0000 13.4309 -0.6959
# 6 0.0000 0.0000 0.0000 0.0000 -0.6959 11.5903
#
#
#
# Elastic Compliance Matrix: (Units=1/GPa)
#
#
# Indices 1 2 3 4 5 6 
#
# 1 0.025305 -0.017969 -0.002641 0.002242 0.000000 0.000000
# 2 -0.017969 0.025305 -0.002641 -0.002242 0.000000 0.000000
# 3 -0.002641 -0.002641 0.013739 0.000000 0.000000 0.000000
# 4 0.002242 -0.002242 0.000000 0.074687 0.000000 0.000000
# 5 0.000000 0.000000 0.000000 0.000000 0.074687 0.004484
# 6 0.000000 0.000000 0.000000 0.000000 0.004484 0.086548
#
#
# Mechanical properties :
#
#
# Convention : Reuss Voigt Hill
#
# Bulk Modulus (GPa) = 56.02616 58.05526 57.04071
# Shear Modulus (GPa) = 14.17546 16.85934 15.51740
#
# Velocity S-wave (km/s) = 2.91674 3.18090 3.05168
# Velocity P-wave (km/s) = 6.70576 6.95217 6.83008
#
# Compressibility (1/GPa) = 0.01784880
#
# Stress axis : x y z
#
# Youngs Moduli (GPa) = 39.51764 39.51764 72.78634
#
# Poissons Ratio (x) = 0.71009 0.19220
# Poissons Ratio (y) = 0.71009 0.19220
# Poissons Ratio (z) = 0.10435 0.10435
#
# Static dielectric constant tensor:
#      x y z
#    x 1.557730 0.000000 0.000000 
#    y 0.000000 1.557730 0.000000 
#    z 0.000000 0.000000 1.587150 
# 
# From -- ./inp_files/2668.got.cif
#   From: 2010.05.17/outbox.cif.g08.bks.cpg/sg164_2_cif.got.tgz:2668.got - 2010.05.20 10:58:56.
