data_PCOD9578087
_publ_section_title
;
Structure prediction by ZEFSAII (Michael W. Deem and Ramdas Pophale) SiO2 
 PCOD9578087
Probable space group: P -3 1 C
;
_chemical_formula_sum "Si O2"
_cell_formula_units_Z 54
_cell_length_a 24.339981
_cell_length_b 24.339981
_cell_length_c 5.019837
_cell_angle_alpha 90.000000
_cell_angle_beta 90.000000
_cell_angle_gamma 120.000000
_cell_volume 2575.495034
_symmetry_space_group_name_H-M "P -3 1 C"
_symmetry_group_IT_number 163
_symmetry_cell_setting 'hexagonal'
loop_
_space_group_symop_operation_xyz
x,y,z
-y,x-y,z
-x+y,-x,z
-y,-x,1/2-z
-x+y,y,1/2-z
x,x-y,1/2-z
-x,-y,-z
y,-x+y,-z
x-y,x,-z
y,x,1/2+z
x-y,-y,1/2+z
-x,-x+y,1/2+z
loop_
_atom_site_type_symbol
_atom_site_label
_atom_site_fract_x
_atom_site_fract_y
_atom_site_fract_z
Si Si1 0.039974 0.759538 0.483920
Si Si2 0.344944 0.172472 0.250000
Si Si3 0.536065 0.844562 0.842919
Si Si4 0.590202 0.967636 0.519093
Si Si5 0.332135 0.786817 0.162093
O O1 0.112563 0.811048 0.558861
O O2 0.035789 0.690665 0.488996
O O3 0.011388 0.763892 0.204064
O O4 0.396402 0.153651 0.143225
O O5 0.546522 0.907473 0.697366
O O6 0.482096 0.795597 0.636528
O O7 0.512828 0.829764 0.142815
O O8 0.575456 0.976264 0.218012
O O9 0.284897 0.715104 0.250000
O O10 0.401866 0.803731 0.250000
#
# Coordination Sequence:
#
# PCOD9578087 Si02
#       5
#    12   6  12  12  12
#     4   9  19  31  48  80 115 150 186 226 276 321
#     4  10  20  36  60  84 118 152 192 232 268 340
#     4  11  22  37  60  85 107 139 186 219 263 330
#     4   9  17  32  53  79 109 140 172 216 261 310
#     4  12  24  41  58  81 105 133 170 225 283 334
#
# _framework density 20.966843000000001
#
# number of rings (size 3 to 8) (size 9 to 14) (size 15 to 20)
#    0.000    1.778    2.222    2.222    0.000    8.000 
#    0.000    2.222    0.000   13.333    0.000    0.000 
#    0.000    0.000    0.000    6.667    0.000    0.000 
#
# Total GULP energy -300754.276068 kJ/mol
# GULP energy per Si atom -5569.523631 kJ/mol
# Density = 2.091912 g / cm^3
# Si number density = 20.966843 Si / 1000 Ang^3
#
#
#
# Elastic Constant Matrix: (Units=GPa)
#
#
# Indices 1 2 3 4 5 6 
#
# 1 21.2796 33.6333 -0.3970 0.0009 36.8919 0.0000
# 2 33.6333 21.2796 -0.3970 -0.0009 -36.8919 0.0000
# 3 -0.3970 -0.3970 75.6069 0.0000 0.0000 0.0000
# 4 0.0009 -0.0009 0.0000 -82.2806 0.0000 -36.8919
# 5 36.8919 -36.8919 0.0000 0.0000 -82.2806 0.0009
# 6 0.0000 0.0000 0.0000 -36.8919 0.0009 -6.1768
#
#
#
# Elastic Compliance Matrix: (Units=1/GPa)
#
#
# Indices 1 2 3 4 5 6 
#
# 1 0.033227 -0.015015 0.000096 0.000001 0.021630 0.000000
# 2 -0.015015 0.033227 0.000096 -0.000001 -0.021630 0.000000
# 3 0.000096 0.000096 0.013227 0.000000 0.000000 0.000000
# 4 0.000001 -0.000001 0.000000 0.007243 0.000000 -0.043261
# 5 0.021630 -0.021630 0.000000 0.000000 0.007243 0.000001
# 6 0.000000 0.000000 0.000000 -0.043261 0.000001 0.096485
#
#
# Mechanical properties :
#
#
# Convention : Reuss Voigt Hill
#
# Bulk Modulus (GPa) = 19.98645 20.42719 20.20682
# Shear Modulus (GPa) = 21.09893 -28.45913 -3.68010
#
# Velocity S-wave (km/s) = 3.17566 -3.68821 -1.32628
# Velocity P-wave (km/s) = 4.79579 2.89368 2.70427
#
# Compressibility (1/GPa) = 0.05003390
#
# Stress axis : x y z
#
# Youngs Moduli (GPa) = 30.09579 30.09579 75.60117
#
# Poissons Ratio (x) = 0.45189 -0.00723
# Poissons Ratio (y) = 0.45189 -0.00723
# Poissons Ratio (z) = -0.00288 -0.00288
#
# Static dielectric constant tensor:
#      x y z
#    x 1.851830 0.000000 0.000000 
#    y 0.000000 1.851830 0.000000 
#    z 0.000000 0.000000 1.740940 
# 
# From -- ./inp_files/314.got.cif
#   From: 2010.05.17/outbox.cif.g08.bks.cpg/sg163_1_cif.got.tgz:314.got - 2010.05.20 10:56:03.
