data_PCOD9578154
_publ_section_title
;
Structure prediction by ZEFSAII (Michael W. Deem and Ramdas Pophale) SiO2 
 PCOD9578154
Probable space group: P -3 1 C
;
_chemical_formula_sum "Si O2"
_cell_formula_units_Z 30
_cell_length_a 15.263586
_cell_length_b 15.263586
_cell_length_c 5.928874
_cell_angle_alpha 90.000000
_cell_angle_beta 90.000000
_cell_angle_gamma 120.000000
_cell_volume 1196.233632
_symmetry_space_group_name_H-M "P -3 1 C"
_symmetry_group_IT_number 163
_symmetry_cell_setting 'hexagonal'
loop_
_space_group_symop_operation_xyz
x,y,z
-y,x-y,z
-x+y,-x,z
-y,-x,1/2-z
-x+y,y,1/2-z
x,x-y,1/2-z
-x,-y,-z
y,-x+y,-z
x-y,x,-z
y,x,1/2+z
x-y,-y,1/2+z
-x,-x+y,1/2+z
loop_
_atom_site_type_symbol
_atom_site_label
_atom_site_fract_x
_atom_site_fract_y
_atom_site_fract_z
Si Si1 0.336933 0.853148 0.361620
Si Si2 0.016192 0.752981 0.606399
Si Si3 0.440487 0.220244 0.250000
O O1 0.250757 0.749243 0.250000
O O2 0.443292 0.886584 0.250000
O O3 0.323533 0.819369 0.620585
O O4 0.306705 0.939849 0.368573
O O5 0.127987 0.767678 0.593735
O O6 0.994056 0.786041 0.359609
#
# Coordination Sequence:
#
# PCOD9578154 Si02
#       3
#    12  12   6
#     4  11  23  41  61  91 129 170 214 261 317 378
#     4  10  21  39  64  88 122 163 209 261 315 372
#     4  10  22  40  62  94 124 160 224 264 314 378
#
# _framework density 25.078713
#
# number of rings (size 3 to 8) (size 9 to 14) (size 15 to 20)
#    0.000    1.600    4.000    0.400    0.000    8.000 
#    0.000    0.000    0.000    0.000    0.000    0.000 
#    2.000    7.200    0.000    0.000    0.000    0.000 
#
# Total GULP energy -167239.842744 kJ/mol
# GULP energy per Si atom -5574.661425 kJ/mol
# Density = 2.502163 g / cm^3
# Si number density = 25.078713 Si / 1000 Ang^3
#
#
#
# Elastic Constant Matrix: (Units=GPa)
#
#
# Indices 1 2 3 4 5 6 
#
# 1 50.4538 29.5090 18.7315 0.0001 2.4161 0.0000
# 2 29.5090 50.4538 18.7315 -0.0001 -2.4161 0.0000
# 3 18.7315 18.7315 191.6674 0.0000 0.0000 0.0000
# 4 0.0001 -0.0001 0.0000 36.7176 0.0000 -2.4161
# 5 2.4161 -2.4161 0.0000 0.0000 36.7176 0.0001
# 6 0.0000 0.0000 0.0000 -2.4161 0.0001 10.4724
#
#
#
# Elastic Compliance Matrix: (Units=1/GPa)
#
#
# Indices 1 2 3 4 5 6 
#
# 1 0.030793 -0.017687 -0.001281 0.000000 -0.003190 0.000000
# 2 -0.017687 0.030793 -0.001281 0.000000 0.003190 0.000000
# 3 -0.001281 -0.001281 0.005468 0.000000 0.000000 0.000000
# 4 0.000000 0.000000 0.000000 0.027655 0.000000 0.006380
# 5 -0.003190 0.003190 0.000000 0.000000 0.027655 0.000000
# 6 0.000000 0.000000 0.000000 0.006380 0.000000 0.096961
#
#
# Mechanical properties :
#
#
# Convention : Reuss Voigt Hill
#
# Bulk Modulus (GPa) = 37.65603 47.39101 42.52352
# Shear Modulus (GPa) = 18.60987 31.82174 25.21580
#
# Velocity S-wave (km/s) = 2.72703 3.56599 3.17435
# Velocity P-wave (km/s) = 4.99633 5.99108 5.51617
#
# Compressibility (1/GPa) = 0.02655617
#
# Stress axis : x y z
#
# Youngs Moduli (GPa) = 32.47469 32.47469 182.89166
#
# Poissons Ratio (x) = 0.57439 0.23425
# Poissons Ratio (y) = 0.57439 0.23425
# Poissons Ratio (z) = 0.04159 0.04159
#
# Static dielectric constant tensor:
#      x y z
#    x 1.965200 0.000000 0.000000 
#    y 0.000000 1.965200 0.000000 
#    z 0.000000 0.000000 2.375140 
# 
# From -- ./inp_files/94.got.cif
#   From: 2010.05.17/outbox.cif.g08.bks.cpg/sg163_1_cif.got.tgz:94.got - 2010.05.20 10:56:03.
