data_PCOD9578065
_publ_section_title
;
Structure prediction by ZEFSAII (Michael W. Deem and Ramdas Pophale) SiO2 
 PCOD9578065
Probable space group: P -3 1 C
;
_chemical_formula_sum "Si O2"
_cell_formula_units_Z 72
_cell_length_a 24.237957
_cell_length_b 24.237957
_cell_length_c 8.701260
_cell_angle_alpha 90.000000
_cell_angle_beta 90.000000
_cell_angle_gamma 120.000000
_cell_volume 4426.951856
_symmetry_space_group_name_H-M "P -3 1 C"
_symmetry_group_IT_number 163
_symmetry_cell_setting 'hexagonal'
loop_
_space_group_symop_operation_xyz
x,y,z
-y,x-y,z
-x+y,-x,z
-y,-x,1/2-z
-x+y,y,1/2-z
x,x-y,1/2-z
-x,-y,-z
y,-x+y,-z
x-y,x,-z
y,x,1/2+z
x-y,-y,1/2+z
-x,-x+y,1/2+z
loop_
_atom_site_type_symbol
_atom_site_label
_atom_site_fract_x
_atom_site_fract_y
_atom_site_fract_z
Si Si1 0.855432 0.590516 0.815564
Si Si2 0.475339 0.070578 0.815974
Si Si3 0.524662 0.929422 0.815975
Si Si4 0.260242 0.070194 0.316438
Si Si5 0.190048 0.929806 0.183562
Si Si6 0.590516 0.855432 0.684437
O O1 0.786940 0.573880 0.750000
O O2 0.882440 0.548671 0.741296
O O3 0.902698 0.665226 0.776844
O O4 0.852909 0.584268 0.000001
O O5 0.544434 0.088867 0.750000
O O6 0.427938 0.000000 0.749999
O O7 0.475884 0.067769 1.000000
O O8 0.455567 0.911134 0.750000
O O9 0.548671 0.882441 0.758705
O O10 0.242984 0.121492 0.250000
O O11 0.255131 0.068829 0.500000
O O12 0.334774 0.097302 0.276843
O O13 0.217687 0.000000 0.250000
O O14 0.121493 0.878507 0.250000
O O15 0.573879 0.786940 0.750000
#
# Coordination Sequence:
#
# PCOD9578065 Si02
#       6
#    12  12  12  12  12  12
#     4  10  20  34  52  76 104 135 169 207 251 300
#     4  11  21  34  52  75 103 135 170 210 254 302
#     4  11  21  34  52  75 103 135 170 210 254 302
#     4  10  20  33  51  74 102 133 167 205 248 295
#     4  10  20  33  51  74 102 133 167 205 248 295
#     4  10  20  34  52  76 104 135 169 207 251 300
#
# _framework density 16.264012999999998
#
# number of rings (size 3 to 8) (size 9 to 14) (size 15 to 20)
#    0.000    1.667    0.000    7.000    0.000    6.667 
#    0.000    0.000    0.000    1.000    0.000    7.000 
#    0.000    0.000    0.000    0.000    0.000    0.000 
#
# Total GULP energy -402250.895989 kJ/mol
# GULP energy per Si atom -5586.818000 kJ/mol
# Density = 1.622700 g / cm^3
# Si number density = 16.264013 Si / 1000 Ang^3
#
#
#
# Elastic Constant Matrix: (Units=GPa)
#
#
# Indices 1 2 3 4 5 6 
#
# 1 141.4988 98.0011 69.4355 -0.0003 0.0000 0.0000
# 2 98.0011 141.4988 69.4355 0.0003 0.0000 0.0000
# 3 69.4355 69.4355 113.9798 0.0000 0.0000 0.0000
# 4 -0.0003 0.0003 0.0000 29.2779 0.0000 0.0000
# 5 0.0000 0.0000 0.0000 0.0000 29.2779 -0.0003
# 6 0.0000 0.0000 0.0000 0.0000 -0.0003 21.7488
#
#
#
# Elastic Compliance Matrix: (Units=1/GPa)
#
#
# Indices 1 2 3 4 5 6 
#
# 1 0.014723 -0.008267 -0.003933 0.000000 0.000000 0.000000
# 2 -0.008267 0.014723 -0.003933 0.000000 0.000000 0.000000
# 3 -0.003933 -0.003933 0.013565 0.000000 0.000000 0.000000
# 4 0.000000 0.000000 0.000000 0.034155 0.000000 0.000000
# 5 0.000000 0.000000 0.000000 0.000000 0.034155 0.000000
# 6 0.000000 0.000000 0.000000 0.000000 0.000000 0.045979
#
#
# Mechanical properties :
#
#
# Convention : Reuss Voigt Hill
#
# Bulk Modulus (GPa) = 93.06246 96.74685 94.90466
# Shear Modulus (GPa) = 25.88691 26.73463 26.31077
#
# Velocity S-wave (km/s) = 3.99390 4.05877 4.02646
# Velocity P-wave (km/s) = 8.86636 9.03212 8.94962
#
# Compressibility (1/GPa) = 0.01074547
#
# Stress axis : x y z
#
# Youngs Moduli (GPa) = 67.92212 67.92212 73.71853
#
# Poissons Ratio (x) = 0.56151 0.28992
# Poissons Ratio (y) = 0.56151 0.28992
# Poissons Ratio (z) = 0.26712 0.26712
#
# Static dielectric constant tensor:
#      x y z
#    x 1.524290 0.000000 0.000000 
#    y 0.000000 1.524290 0.000000 
#    z 0.000000 0.000000 1.539350 
# 
# From -- ./inp_files/1235.got.cif
#   From: 2010.05.17/outbox.cif.g08.bks.cpg/sg163_1_cif.got.tgz:1235.got - 2010.05.20 10:56:03.
