data_PCOD9578294
_publ_section_title
;
Structure prediction by ZEFSAII (Michael W. Deem and Ramdas Pophale) SiO2 
 PCOD9578294
Probable space group: P -3 1 C
;
_chemical_formula_sum "Si O2"
_cell_formula_units_Z 24
_cell_length_a 8.082480
_cell_length_b 8.082480
_cell_length_c 14.555199
_cell_angle_alpha 90.000000
_cell_angle_beta 90.000000
_cell_angle_gamma 120.000000
_cell_volume 823.451560
_symmetry_space_group_name_H-M "P -3 1 C"
_symmetry_group_IT_number 163
_symmetry_cell_setting 'hexagonal'
loop_
_space_group_symop_operation_xyz
x,y,z
-y,x-y,z
-x+y,-x,z
-y,-x,1/2-z
-x+y,y,1/2-z
x,x-y,1/2-z
-x,-y,-z
y,-x+y,-z
x-y,x,-z
y,x,1/2+z
x-y,-y,1/2+z
-x,-x+y,1/2+z
loop_
_atom_site_type_symbol
_atom_site_label
_atom_site_fract_x
_atom_site_fract_y
_atom_site_fract_z
Si Si1 0.963750 0.280264 0.836468
Si Si2 0.368913 0.379969 0.913652
O O1 0.868353 0.131648 0.750000
O O2 0.931911 0.459677 0.839557
O O3 0.188259 0.378946 0.864965
O O4 0.301612 0.158012 0.921231
O O5 0.500000 0.500000 0.000000
#
# Coordination Sequence:
#
# PCOD9578294 Si02
#       2
#    12  12
#     4  12  27  52  87 132 184 248 318 397 484 583
#     4  12  27  52  87 132 183 244 316 401 488 585
#
# _framework density 29.145610999999999
#
# number of rings (size 3 to 8) (size 9 to 14) (size 15 to 20)
#    0.000    0.000    0.000    9.000    0.000    0.000 
#    0.000   10.000    0.000    0.000    0.000    0.000 
#    0.000    0.000    0.000    0.000    0.000    0.000 
#
# Total GULP energy -133692.022016 kJ/mol
# GULP energy per Si atom -5570.500917 kJ/mol
# Density = 2.907927 g / cm^3
# Si number density = 29.145611 Si / 1000 Ang^3
#
#
#
# Elastic Constant Matrix: (Units=GPa)
#
#
# Indices 1 2 3 4 5 6 
#
# 1 211.4774 43.2537 58.5539 0.0000 8.1065 0.0000
# 2 43.2537 211.4774 58.5539 0.0000 -8.1065 0.0000
# 3 58.5539 58.5539 237.2202 0.0000 0.0000 0.0000
# 4 0.0000 0.0000 0.0000 48.9886 0.0000 -8.1065
# 5 8.1065 -8.1065 0.0000 0.0000 48.9886 0.0000
# 6 0.0000 0.0000 0.0000 -8.1065 0.0000 84.1118
#
#
#
# Elastic Compliance Matrix: (Units=1/GPa)
#
#
# Indices 1 2 3 4 5 6 
#
# 1 0.005235 -0.000806 -0.001093 0.000000 -0.001000 0.000000
# 2 -0.000806 0.005235 -0.001093 0.000000 0.001000 0.000000
# 3 -0.001093 -0.001093 0.004755 0.000000 0.000000 0.000000
# 4 0.000000 0.000000 0.000000 0.020744 0.000000 0.001999
# 5 -0.001000 0.001000 0.000000 0.000000 0.020744 0.000000
# 6 0.000000 0.000000 0.000000 0.001999 0.000000 0.012082
#
#
# Mechanical properties :
#
#
# Convention : Reuss Voigt Hill
#
# Bulk Modulus (GPa) = 108.23235 108.98866 108.61050
# Shear Modulus (GPa) = 64.21972 69.73871 66.97922
#
# Velocity S-wave (km/s) = 4.69914 4.89690 4.79904
# Velocity P-wave (km/s) = 8.16445 8.33358 8.24945
#
# Compressibility (1/GPa) = 0.00923938
#
# Stress axis : x y z
#
# Youngs Moduli (GPa) = 191.03991 191.03991 210.30109
#
# Poissons Ratio (x) = 0.15404 0.22987
# Poissons Ratio (y) = 0.15404 0.22987
# Poissons Ratio (z) = 0.20881 0.20881
#
# Static dielectric constant tensor:
#      x y z
#    x 2.311900 0.000000 0.000000 
#    y 0.000000 2.311900 0.000000 
#    z 0.000000 0.000000 2.762480 
# 
# From -- ./inp_files/1414.got.cif
#   From: 2010.05.17/outbox.cif.g08.bks.cpg/sg163_1_cif.got.tgz:1414.got - 2010.05.20 10:56:03.
