data_PCOD9578882
_publ_section_title
;
Structure prediction by ZEFSAII (Michael W. Deem and Ramdas Pophale) SiO2 
 PCOD9578882
Probable space group: P -3 C 1
;
_chemical_formula_sum "Si O2"
_cell_formula_units_Z 84
_cell_length_a 18.817086
_cell_length_b 18.817086
_cell_length_c 13.674815
_cell_angle_alpha 90.000000
_cell_angle_beta 90.000000
_cell_angle_gamma 120.000000
_cell_volume 4193.308659
_symmetry_space_group_name_H-M "P -3 C 1"
_symmetry_group_IT_number 165
_symmetry_cell_setting 'hexagonal'
loop_
_space_group_symop_operation_xyz
x,y,z
-y,x-y,z
-x+y,-x,z
x-y,-y,1/2-z
-x,-x+y,1/2-z
y,x,1/2-z
-x,-y,-z
y,-x+y,-z
x-y,x,-z
-x+y,y,1/2+z
x,x-y,1/2+z
-y,-x,1/2+z
loop_
_atom_site_type_symbol
_atom_site_label
_atom_site_fract_x
_atom_site_fract_y
_atom_site_fract_z
Si Si1 0.471870 0.867476 0.546567
Si Si2 0.238800 0.953104 0.431737
Si Si3 0.835143 0.000000 0.250000
Si Si4 0.946221 0.395298 0.071289
Si Si5 0.836571 0.000000 0.750000
Si Si6 0.550162 0.390054 0.726575
Si Si7 0.281226 0.787870 0.865687
Si Si8 0.695973 0.906961 0.412623
O O1 0.400893 0.886330 0.509561
O O2 0.466214 0.841753 0.658733
O O3 0.478581 0.804355 0.472474
O O4 0.550204 0.959545 0.538744
O O5 0.304990 0.927394 0.403838
O O6 0.205571 0.980698 0.340279
O O7 0.158011 0.872300 0.468161
O O8 0.287054 0.024005 0.509281
O O9 0.847415 0.924150 0.219370
O O10 0.763764 0.956791 0.330208
O O11 0.926969 0.427851 0.170853
O O12 0.522760 0.305216 0.667251
O O13 0.644343 0.456653 0.709151
O O14 0.247023 0.851861 0.867274
#
# Coordination Sequence:
#
# PCOD9578882 Si02
#       8
#    12  12   6  12   6  12  12  12
#     4  10  23  41  64  91 131 170 216 287 340 391
#     4  11  22  39  65  92 131 168 217 266 335 389
#     4  10  23  42  64  99 136 172 224 268 331 396
#     4  10  21  39  63  94 124 169 221 272 335 408
#     4  10  23  40  68  97 134 182 216 274 331 406
#     4  11  24  42  65  93 131 178 226 273 345 411
#     4  11  24  43  63  97 130 172 230 281 334 414
#     4  11  23  42  63  98 133 172 216 280 327 398
#
# _framework density 20.031915000000001
#
# number of rings (size 3 to 8) (size 9 to 14) (size 15 to 20)
#    0.000    1.429    2.857    1.714    2.000    3.429 
#    2.571    0.000    0.000    4.571    0.000    0.000 
#    0.000    0.000    0.000    0.000    0.000    0.000 
#
# Total GULP energy -468114.062616 kJ/mol
# GULP energy per Si atom -5572.786460 kJ/mol
# Density = 1.998632 g / cm^3
# Si number density = 20.031915 Si / 1000 Ang^3
#
#
#
# Elastic Constant Matrix: (Units=GPa)
#
#
# Indices 1 2 3 4 5 6 
#
# 1 89.6862 79.8197 29.8043 1.8410 0.0000 0.0000
# 2 79.8197 89.6862 29.8043 -1.8410 0.0000 0.0000
# 3 29.8043 29.8043 84.3431 0.0000 0.0000 0.0000
# 4 1.8410 -1.8410 0.0000 21.0059 0.0000 0.0000
# 5 0.0000 0.0000 0.0000 0.0000 21.0059 1.8410
# 6 0.0000 0.0000 0.0000 0.0000 1.8410 4.9333
#
#
#
# Elastic Compliance Matrix: (Units=1/GPa)
#
#
# Indices 1 2 3 4 5 6 
#
# 1 0.055758 -0.049022 -0.002381 -0.009183 0.000000 0.000000
# 2 -0.049022 0.055758 -0.002381 0.009183 0.000000 0.000000
# 3 -0.002381 -0.002381 0.013539 0.000000 0.000000 0.000000
# 4 -0.009183 0.009183 0.000000 0.049215 0.000000 0.000000
# 5 0.000000 0.000000 0.000000 0.000000 0.049215 -0.018366
# 6 0.000000 0.000000 0.000000 0.000000 -0.018366 0.209560
#
#
# Mechanical properties :
#
#
# Convention : Reuss Voigt Hill
#
# Bulk Modulus (GPa) = 57.17576 60.28577 58.73077
# Shear Modulus (GPa) = 9.15012 17.67484 13.41248
#
# Velocity S-wave (km/s) = 2.13955 2.97363 2.59038
# Velocity P-wave (km/s) = 5.89134 6.47690 6.19104
#
# Compressibility (1/GPa) = 0.01748993
#
# Stress axis : x y z
#
# Youngs Moduli (GPa) = 17.93457 17.93457 73.86207
#
# Poissons Ratio (x) = 0.87918 0.17583
# Poissons Ratio (y) = 0.87918 0.17583
# Poissons Ratio (z) = 0.04269 0.04269
#
# Static dielectric constant tensor:
#      x y z
#    x 1.734560 0.000000 0.000000 
#    y 0.000000 1.734560 0.000000 
#    z 0.000000 0.000000 1.689520 
# 
# From -- ./inp_files/1894.got.cif
#   From: 2010.05.17/outbox.cif.g08.bks.cpg/sg165_1_cif.got.tgz:1894.got - 2010.05.20 11:02:39.
