data_PCOD9578143
_publ_section_title
;
Structure prediction by ZEFSAII (Michael W. Deem and Ramdas Pophale) SiO2 
 PCOD9578143
Probable space group: P -3 1 C
;
_chemical_formula_sum "Si O2"
_cell_formula_units_Z 52
_cell_length_a 16.498192
_cell_length_b 16.498192
_cell_length_c 13.172309
_cell_angle_alpha 90.000000
_cell_angle_beta 90.000000
_cell_angle_gamma 120.000000
_cell_volume 3105.026054
_symmetry_space_group_name_H-M "P -3 1 C"
_symmetry_group_IT_number 163
_symmetry_cell_setting 'hexagonal'
loop_
_space_group_symop_operation_xyz
x,y,z
-y,x-y,z
-x+y,-x,z
-y,-x,1/2-z
-x+y,y,1/2-z
x,x-y,1/2-z
-x,-y,-z
y,-x+y,-z
x-y,x,-z
y,x,1/2+z
x-y,-y,1/2+z
-x,-x+y,1/2+z
loop_
_atom_site_type_symbol
_atom_site_label
_atom_site_fract_x
_atom_site_fract_y
_atom_site_fract_z
Si Si1 0.857610 0.333411 0.130371
Si Si2 0.702438 0.702438 1.000000
Si Si3 0.780537 0.890269 0.372035
Si Si4 0.000000 0.000000 0.371180
Si Si5 0.333411 0.857610 0.869628
O O1 0.927452 0.316720 0.061510
O O2 0.752770 0.247230 0.115664
O O3 0.862469 0.431235 0.107352
O O4 0.880505 0.333911 0.250000
O O5 0.733602 0.787985 0.078261
O O6 0.787986 0.733601 0.921740
O O7 0.610733 0.683281 0.938490
O O8 0.771705 0.885852 0.250000
O O9 0.890947 0.945473 0.399174
O O10 0.000000 0.000000 0.250000
#
# Coordination Sequence:
#
# PCOD9578143 Si02
#       5
#    12  12  12   4  12
#     4  10  21  38  60  85 111 143 188 239 286 340
#     4  12  21  37  56  86 116 150 190 233 295 348
#     4  11  23  37  56  84 121 160 199 242 282 337
#     4   9  21  37  53  76 115 167 202 229 269 316
#     4  10  21  38  60  85 111 143 188 239 286 340
#
# _framework density 16.747040999999999
#
# number of rings (size 3 to 8) (size 9 to 14) (size 15 to 20)
#    0.000    1.385    2.308    3.923    0.000    2.769 
#    0.000    0.000    0.000    0.000    0.000    0.000 
#    0.000    0.000    0.000    0.000    0.000    0.000 
#
# Total GULP energy -290507.670761 kJ/mol
# GULP energy per Si atom -5586.685976 kJ/mol
# Density = 1.670892 g / cm^3
# Si number density = 16.747041 Si / 1000 Ang^3
#
#
#
# Elastic Constant Matrix: (Units=GPa)
#
#
# Indices 1 2 3 4 5 6 
#
# 1 161.8989 93.4552 89.9965 0.0000 0.0000 0.0000
# 2 93.4552 161.8989 89.9965 0.0000 0.0000 0.0000
# 3 89.9965 89.9965 132.7229 0.0000 0.0000 0.0000
# 4 0.0000 0.0000 0.0000 34.0334 0.0000 0.0000
# 5 0.0000 0.0000 0.0000 0.0000 34.0334 0.0000
# 6 0.0000 0.0000 0.0000 0.0000 0.0000 34.2218
#
#
#
# Elastic Compliance Matrix: (Units=1/GPa)
#
#
# Indices 1 2 3 4 5 6 
#
# 1 0.011056 -0.003554 -0.005087 0.000000 0.000000 0.000000
# 2 -0.003554 0.011056 -0.005087 0.000000 0.000000 0.000000
# 3 -0.005087 -0.005087 0.014433 0.000000 0.000000 0.000000
# 4 0.000000 0.000000 0.000000 0.029383 0.000000 0.000000
# 5 0.000000 0.000000 0.000000 0.000000 0.029383 0.000000
# 6 0.000000 0.000000 0.000000 0.000000 0.000000 0.029221
#
#
# Mechanical properties :
#
#
# Convention : Reuss Voigt Hill
#
# Bulk Modulus (GPa) = 110.01908 111.49080 110.75494
# Shear Modulus (GPa) = 32.25447 32.66257 32.45852
#
# Velocity S-wave (km/s) = 4.39336 4.42107 4.40724
# Velocity P-wave (km/s) = 9.56937 9.63219 9.60083
#
# Compressibility (1/GPa) = 0.00908933
#
# Stress axis : x y z
#
# Youngs Moduli (GPa) = 90.44802 90.44802 69.28657
#
# Poissons Ratio (x) = 0.32150 0.35244
# Poissons Ratio (y) = 0.32150 0.35244
# Poissons Ratio (z) = 0.46008 0.46008
#
# Static dielectric constant tensor:
#      x y z
#    x 1.536260 0.000000 0.000000 
#    y 0.000000 1.536260 0.000000 
#    z 0.000000 0.000000 1.556560 
# 
# From -- ./inp_files/2303.got.cif
#   From: 2010.05.17/outbox.cif.g08.bks.cpg/sg163_2_cif.got.tgz:2303.got - 2010.05.20 10:56:03.
