data_PCOD9578354
_publ_section_title
;
Structure prediction by ZEFSAII (Michael W. Deem and Ramdas Pophale) SiO2 
 PCOD9578354
Probable space group: P -3 M 1
;
_chemical_formula_sum "Si O2"
_cell_formula_units_Z 96
_cell_length_a 17.522309
_cell_length_b 17.522309
_cell_length_c 26.047012
_cell_angle_alpha 90.000000
_cell_angle_beta 90.000000
_cell_angle_gamma 120.000000
_cell_volume 6925.820176
_symmetry_space_group_name_H-M "P -3 M 1"
_symmetry_group_IT_number 164
_symmetry_cell_setting 'hexagonal'
loop_
_space_group_symop_operation_xyz
x,y,z
-y,x-y,z
-x+y,-x,z
x-y,-y,-z
-x,-x+y,-z
y,x,-z
-x,-y,-z
y,-x+y,-z
x-y,x,-z
-x+y,y,z
x,x-y,z
-y,-x,z
loop_
_atom_site_type_symbol
_atom_site_label
_atom_site_fract_x
_atom_site_fract_y
_atom_site_fract_z
Si Si1 0.999747 0.181179 0.442199
Si Si2 0.514164 0.847830 0.107587
Si Si3 0.237599 0.296551 0.759289
Si Si4 0.000742 0.821033 0.860055
Si Si5 0.067001 0.313254 0.046810
Si Si6 0.511125 0.845876 0.312975
Si Si7 0.959701 0.566880 0.789279
Si Si8 0.943555 0.705476 0.657200
O O1 0.908948 0.091053 0.434333
O O2 0.000000 0.214486 0.500000
O O3 0.081334 0.162668 0.440443
O O4 0.015174 0.248170 0.396538
O O5 0.420132 0.840263 0.098035
O O6 0.504103 0.752052 0.116218
O O7 0.585193 0.894335 0.062514
O O8 0.556033 0.908442 0.157867
O O9 0.160668 0.321335 0.756434
O O10 0.208716 0.222928 0.803827
O O11 0.334731 0.371262 0.777208
O O12 0.251380 0.262302 0.704481
O O13 0.090238 0.909763 0.873724
O O14 0.918610 0.837220 0.858849
O O15 0.978557 0.746544 0.902828
O O16 0.150640 0.301280 0.034304
O O17 0.000000 0.282880 0.000000
O O18 0.425056 0.850111 0.329178
O O19 0.492871 0.746436 0.313374
O O20 0.537057 0.886840 0.255795
O O21 0.600617 0.906029 0.344456
O O22 0.992223 0.496112 0.789583
O O23 0.857932 0.715863 0.667298
#
# Coordination Sequence:
#
# PCOD9578354 Si02
#       8
#    12  12  12  12  12  12  12  12
#     4   9  16  26  40  58  81 111 147 183 215 247
#     4  10  19  31  48  68  89 110 134 168 212 258
#     4  10  18  28  44  65  88 114 142 171 206 252
#     4  10  19  30  44  62  86 114 144 175 208 246
#     4  10  20  33  48  64  84 111 143 178 210 245
#     4   9  16  25  40  61  87 114 140 169 205 253
#     4   9  17  29  44  64  88 112 137 168 207 251
#     4   9  17  27  40  60  87 117 144 174 212 251
#
# _framework density 13.861174999999999
#
# number of rings (size 3 to 8) (size 9 to 14) (size 15 to 20)
#    0.000    2.500    1.250    2.000    0.000    1.750 
#    0.000    1.250    0.000    6.625    0.000    0.000 
#    0.000    0.000    0.000    0.000    0.000    0.000 
#
# Total GULP energy -534719.998134 kJ/mol
# GULP energy per Si atom -5569.999981 kJ/mol
# Density = 1.382963 g / cm^3
# Si number density = 13.861175 Si / 1000 Ang^3
#
#
#
# Elastic Constant Matrix: (Units=GPa)
#
#
# Indices 1 2 3 4 5 6 
#
# 1 98.9497 60.5568 53.9935 2.2994 0.0000 0.0000
# 2 60.5568 98.9497 53.9935 -2.2994 0.0000 0.0000
# 3 53.9935 53.9935 86.8161 0.0000 0.0000 0.0000
# 4 2.2994 -2.2994 0.0000 18.3321 0.0000 0.0000
# 5 0.0000 0.0000 0.0000 0.0000 18.3321 2.2994
# 6 0.0000 0.0000 0.0000 0.0000 2.2994 19.1964
#
#
#
# Elastic Compliance Matrix: (Units=1/GPa)
#
#
# Indices 1 2 3 4 5 6 
#
# 1 0.018636 -0.007807 -0.006735 -0.003317 0.000000 0.000000
# 2 -0.007807 0.018636 -0.006735 0.003317 0.000000 0.000000
# 3 -0.006735 -0.006735 0.019896 0.000000 0.000000 0.000000
# 4 -0.003317 0.003317 0.000000 0.055381 0.000000 0.000000
# 5 0.000000 0.000000 0.000000 0.000000 0.055381 -0.006634
# 6 0.000000 0.000000 0.000000 0.000000 -0.006634 0.052888
#
#
# Mechanical properties :
#
#
# Convention : Reuss Voigt Hill
#
# Bulk Modulus (GPa) = 68.42618 69.08920 68.75769
# Shear Modulus (GPa) = 18.63978 18.91693 18.77835
#
# Velocity S-wave (km/s) = 3.67106 3.69825 3.68468
# Velocity P-wave (km/s) = 8.21227 8.25760 8.23497
#
# Compressibility (1/GPa) = 0.01461429
#
# Stress axis : x y z
#
# Youngs Moduli (GPa) = 53.65870 53.65870 50.26222
#
# Poissons Ratio (x) = 0.41894 0.33850
# Poissons Ratio (y) = 0.41894 0.33850
# Poissons Ratio (z) = 0.36138 0.36138
#
# Static dielectric constant tensor:
#      x y z
#    x 1.446240 0.000000 0.000000 
#    y 0.000000 1.446240 0.000000 
#    z 0.000000 0.000000 1.443550 
# 
# From -- ./inp_files/5118.got.cif
#   From: 2010.05.17/outbox.cif.g08.bks.cpg/sg164_3_cif.got.tgz:5118.got - 2010.05.20 10:58:56.
