data_PCOD9578902
_publ_section_title
;
Structure prediction by ZEFSAII (Michael W. Deem and Ramdas Pophale) SiO2 
 PCOD9578902
Probable space group: P -3 C 1
;
_chemical_formula_sum "Si O2"
_cell_formula_units_Z 30
_cell_length_a 16.454611
_cell_length_b 16.454611
_cell_length_c 5.369966
_cell_angle_alpha 90.000000
_cell_angle_beta 90.000000
_cell_angle_gamma 120.000000
_cell_volume 1259.149818
_symmetry_space_group_name_H-M "P -3 C 1"
_symmetry_group_IT_number 165
_symmetry_cell_setting 'hexagonal'
loop_
_space_group_symop_operation_xyz
x,y,z
-y,x-y,z
-x+y,-x,z
x-y,-y,1/2-z
-x,-x+y,1/2-z
y,x,1/2-z
-x,-y,-z
y,-x+y,-z
x-y,x,-z
-x+y,y,1/2+z
x,x-y,1/2+z
-y,-x,1/2+z
loop_
_atom_site_type_symbol
_atom_site_label
_atom_site_fract_x
_atom_site_fract_y
_atom_site_fract_z
Si Si1 0.151634 0.364142 0.010730
Si Si2 0.000000 0.600117 0.250000
Si Si3 0.357492 0.811943 0.553116
O O1 0.143123 0.317819 0.277480
O O2 0.248177 0.465349 0.044072
O O3 0.065283 0.377038 0.930044
O O4 0.924711 0.516048 0.418375
O O5 0.392011 0.785275 0.303099
#
# Coordination Sequence:
#
# PCOD9578902 Si02
#       3
#    12   6  12
#     4  10  22  39  60  89 117 152 201 253 295 346
#     4  10  22  40  66  88 116 164 206 244 300 362
#     4  11  22  38  62  88 120 163 208 255 300 348
#
# _framework density 23.825600000000001
#
# number of rings (size 3 to 8) (size 9 to 14) (size 15 to 20)
#    0.000    1.600    0.000    6.000    0.000   12.800 
#    0.000    0.000    0.000  156.800    0.000    0.000 
#    0.000    0.000    0.000  768.000    0.000    0.000 
#
# Total GULP energy -167760.074535 kJ/mol
# GULP energy per Si atom -5592.002485 kJ/mol
# Density = 2.377137 g / cm^3
# Si number density = 23.825600 Si / 1000 Ang^3
#
#
#
# Elastic Constant Matrix: (Units=GPa)
#
#
# Indices 1 2 3 4 5 6 
#
# 1 95.5041 48.9128 20.6652 14.7832 0.0000 0.0000
# 2 48.9128 95.5041 20.6652 -14.7832 0.0000 0.0000
# 3 20.6652 20.6652 217.7001 0.0000 0.0000 0.0000
# 4 14.7832 -14.7832 0.0000 30.5639 0.0000 0.0000
# 5 0.0000 0.0000 0.0000 0.0000 30.5639 14.7832
# 6 0.0000 0.0000 0.0000 0.0000 14.7832 23.2956
#
#
#
# Elastic Compliance Matrix: (Units=1/GPa)
#
#
# Indices 1 2 3 4 5 6 
#
# 1 0.019043 -0.011926 -0.000676 -0.014979 0.000000 0.000000
# 2 -0.011926 0.019043 -0.000676 0.014979 0.000000 0.000000
# 3 -0.000676 -0.000676 0.004722 0.000000 0.000000 0.000000
# 4 -0.014979 0.014979 0.000000 0.047209 0.000000 0.000000
# 5 0.000000 0.000000 0.000000 0.000000 0.047209 -0.029958
# 6 0.000000 0.000000 0.000000 0.000000 -0.029958 0.061938
#
#
# Mechanical properties :
#
#
# Convention : Reuss Voigt Hill
#
# Bulk Modulus (GPa) = 61.52084 65.46608 63.49346
# Shear Modulus (GPa) = 21.63238 38.11568 29.87403
#
# Velocity S-wave (km/s) = 3.01648 4.00406 3.54483
# Velocity P-wave (km/s) = 6.16519 6.99382 6.59254
#
# Compressibility (1/GPa) = 0.01625466
#
# Stress axis : x y z
#
# Youngs Moduli (GPa) = 52.51192 52.51192 211.78599
#
# Poissons Ratio (x) = 0.62623 0.14309
# Poissons Ratio (y) = 0.62623 0.14309
# Poissons Ratio (z) = 0.03548 0.03548
#
# Static dielectric constant tensor:
#      x y z
#    x 1.931270 0.000000 0.000000 
#    y 0.000000 1.931270 0.000000 
#    z 0.000000 0.000000 2.086210 
# 
# From -- ./inp_files/44.got.cif
#   From: 2010.05.17/outbox.cif.g08.bks.cpg/sg165_1_cif.got.tgz:44.got - 2010.05.20 11:02:39.
