data_PCOD9578899
_publ_section_title
;
Structure prediction by ZEFSAII (Michael W. Deem and Ramdas Pophale) SiO2 
 PCOD9578899
Probable space group: P -3 C 1
;
_chemical_formula_sum "Si O2"
_cell_formula_units_Z 28
_cell_length_a 8.369474
_cell_length_b 8.369474
_cell_length_c 22.973353
_cell_angle_alpha 90.000000
_cell_angle_beta 90.000000
_cell_angle_gamma 120.000000
_cell_volume 1393.642387
_symmetry_space_group_name_H-M "P -3 C 1"
_symmetry_group_IT_number 165
_symmetry_cell_setting 'hexagonal'
loop_
_space_group_symop_operation_xyz
x,y,z
-y,x-y,z
-x+y,-x,z
x-y,-y,1/2-z
-x,-x+y,1/2-z
y,x,1/2-z
-x,-y,-z
y,-x+y,-z
x-y,x,-z
-x+y,y,1/2+z
x,x-y,1/2+z
-y,-x,1/2+z
loop_
_atom_site_type_symbol
_atom_site_label
_atom_site_fract_x
_atom_site_fract_y
_atom_site_fract_z
Si Si1 0.701950 0.696505 0.600138
Si Si2 0.000000 0.000000 0.681122
Si Si3 0.998495 0.383194 0.443574
O O1 0.825179 0.817547 0.653901
O O2 0.846226 0.675819 0.558332
O O3 0.530574 0.492164 0.608133
O O4 0.616264 0.812649 0.571181
O O5 0.000000 0.000000 0.750000
O O6 0.000000 0.500000 0.500000
#
# Coordination Sequence:
#
# PCOD9578899 Si02
#       3
#    12   4  12
#     4  10  22  38  61  94 126 165 217 260 315 390
#     4   9  21  45  70  92 124 165 216 279 325 368
#     4  11  21  37  60  92 131 168 207 261 322 388
#
# _framework density 20.091237
#
# number of rings (size 3 to 8) (size 9 to 14) (size 15 to 20)
#    0.000    1.714    0.000    5.143    0.000    3.429 
#    0.000   17.143    0.000    0.000    0.000    0.000 
#    0.000    0.000    0.000    0.000    0.000    0.000 
#
# Total GULP energy -156094.519561 kJ/mol
# GULP energy per Si atom -5574.804270 kJ/mol
# Density = 2.004551 g / cm^3
# Si number density = 20.091237 Si / 1000 Ang^3
#
#
#
# Elastic Constant Matrix: (Units=GPa)
#
#
# Indices 1 2 3 4 5 6 
#
# 1 114.2463 11.6420 36.7390 0.4250 0.0000 0.0000
# 2 11.6420 114.2463 36.7390 -0.4250 0.0000 0.0000
# 3 36.7390 36.7390 135.6331 0.0000 0.0000 0.0000
# 4 0.4250 -0.4250 0.0000 18.7687 0.0000 0.0000
# 5 0.0000 0.0000 0.0000 0.0000 18.7687 0.4250
# 6 0.0000 0.0000 0.0000 0.0000 0.4250 51.3022
#
#
#
# Elastic Compliance Matrix: (Units=1/GPa)
#
#
# Indices 1 2 3 4 5 6 
#
# 1 0.009592 -0.000156 -0.002556 -0.000221 0.000000 0.000000
# 2 -0.000156 0.009592 -0.002556 0.000221 0.000000 0.000000
# 3 -0.002556 -0.002556 0.008757 0.000000 0.000000 0.000000
# 4 -0.000221 0.000221 0.000000 0.053290 0.000000 0.000000
# 5 0.000000 0.000000 0.000000 0.000000 0.053290 -0.000441
# 6 0.000000 0.000000 0.000000 0.000000 -0.000441 0.019496
#
#
# Mechanical properties :
#
#
# Convention : Reuss Voigt Hill
#
# Bulk Modulus (GPa) = 57.45481 59.37395 58.41438
# Shear Modulus (GPa) = 29.35059 36.36830 32.85945
#
# Velocity S-wave (km/s) = 3.82627 4.25921 4.04853
# Velocity P-wave (km/s) = 6.94115 7.33513 7.14086
#
# Compressibility (1/GPa) = 0.01740498
#
# Stress axis : x y z
#
# Youngs Moduli (GPa) = 104.25745 104.25745 114.18942
#
# Poissons Ratio (x) = 0.01630 0.29184
# Poissons Ratio (y) = 0.01630 0.29184
# Poissons Ratio (z) = 0.26645 0.26645
#
# Static dielectric constant tensor:
#      x y z
#    x 1.776240 0.000000 0.000000 
#    y 0.000000 1.776240 0.000000 
#    z 0.000000 0.000000 1.743760 
# 
# From -- ./inp_files/2792.got.cif
#   From: 2010.05.17/outbox.cif.g08.bks.cpg/sg165_2_cif.got.tgz:2792.got - 2010.05.20 11:02:39.
