data_PCOD9578475
_publ_section_title
;
Structure prediction by ZEFSAII (Michael W. Deem and Ramdas Pophale) SiO2 
 PCOD9578475
Probable space group: P -3 M 1
;
_chemical_formula_sum "Si O2"
_cell_formula_units_Z 60
_cell_length_a 18.215731
_cell_length_b 18.215731
_cell_length_c 12.329282
_cell_angle_alpha 90.000000
_cell_angle_beta 90.000000
_cell_angle_gamma 120.000000
_cell_volume 3542.922286
_symmetry_space_group_name_H-M "P -3 M 1"
_symmetry_group_IT_number 164
_symmetry_cell_setting 'hexagonal'
loop_
_space_group_symop_operation_xyz
x,y,z
-y,x-y,z
-x+y,-x,z
x-y,-y,-z
-x,-x+y,-z
y,x,-z
-x,-y,-z
y,-x+y,-z
x-y,x,-z
-x+y,y,z
x,x-y,z
-y,-x,z
loop_
_atom_site_type_symbol
_atom_site_label
_atom_site_fract_x
_atom_site_fract_y
_atom_site_fract_z
Si Si1 0.374304 0.916938 0.574099
Si Si2 0.502574 0.332960 0.644306
Si Si3 0.631246 0.730523 0.787648
Si Si4 0.102162 0.633850 0.993549
Si Si5 0.355931 0.260342 0.811079
O O1 0.461689 0.923377 0.615317
O O2 0.333678 0.843141 0.484588
O O3 0.313103 0.905698 0.672226
O O4 0.402375 0.000000 0.500000
O O5 0.532078 0.266039 0.672847
O O6 0.572319 0.427682 0.677328
O O7 0.414024 0.300843 0.704758
O O8 0.656964 0.828482 0.786494
O O9 0.559510 0.682512 0.879609
O O10 0.706421 0.710654 0.816484
O O11 0.136681 0.568341 0.004561
O O12 0.123137 0.699960 0.090487
O O13 0.000000 0.576987 0.000000
O O14 0.319767 0.159884 0.809592
#
# Coordination Sequence:
#
# PCOD9578475 Si02
#       5
#    12  12  12  12  12
#     4  10  19  32  51  73  99 132 170 210 255 312
#     4  10  19  31  49  73 101 131 165 206 252 303
#     4  11  21  34  53  78 104 134 176 222 267 312
#     4   9  18  32  53  78 104 134 167 203 246 301
#     4  10  20  34  52  75 103 136 175 217 261 307
#
# _framework density 16.935172999999999
#
# number of rings (size 3 to 8) (size 9 to 14) (size 15 to 20)
#    0.000    2.000    2.000    2.600    0.000    1.600 
#    0.000    0.000    0.000   10.000    0.000    0.000 
#    0.000    5.600    0.000    0.000    0.000    0.000 
#
# Total GULP energy -334452.100791 kJ/mol
# GULP energy per Si atom -5574.201680 kJ/mol
# Density = 1.689663 g / cm^3
# Si number density = 16.935173 Si / 1000 Ang^3
#
#
#
# Elastic Constant Matrix: (Units=GPa)
#
#
# Indices 1 2 3 4 5 6 
#
# 1 90.5148 54.6056 25.6840 -1.6702 0.0000 0.0000
# 2 54.6056 90.5148 25.6840 1.6702 0.0000 0.0000
# 3 25.6840 25.6840 71.2519 0.0000 0.0000 0.0000
# 4 -1.6702 1.6702 0.0000 16.5155 0.0000 0.0000
# 5 0.0000 0.0000 0.0000 0.0000 16.5155 -1.6702
# 6 0.0000 0.0000 0.0000 0.0000 -1.6702 17.9546
#
#
#
# Elastic Compliance Matrix: (Units=1/GPa)
#
#
# Indices 1 2 3 4 5 6 
#
# 1 0.018006 -0.010107 -0.002847 0.002843 0.000000 0.000000
# 2 -0.010107 0.018006 -0.002847 -0.002843 0.000000 0.000000
# 3 -0.002847 -0.002847 0.016087 0.000000 0.000000 0.000000
# 4 0.002843 -0.002843 0.000000 0.061124 0.000000 0.000000
# 5 0.000000 0.000000 0.000000 0.000000 0.061124 0.005686
# 6 0.000000 0.000000 0.000000 0.000000 0.005686 0.056225
#
#
# Mechanical properties :
#
#
# Convention : Reuss Voigt Hill
#
# Bulk Modulus (GPa) = 48.79041 51.58098 50.18570
# Shear Modulus (GPa) = 18.58691 19.95097 19.26894
#
# Velocity S-wave (km/s) = 3.31650 3.43604 3.37680
# Velocity P-wave (km/s) = 6.59835 6.80190 6.70090
#
# Compressibility (1/GPa) = 0.02049583
#
# Stress axis : x y z
#
# Youngs Moduli (GPa) = 55.53833 55.53833 62.16051
#
# Poissons Ratio (x) = 0.56132 0.17698
# Poissons Ratio (y) = 0.56132 0.17698
# Poissons Ratio (z) = 0.15813 0.15813
#
# Static dielectric constant tensor:
#      x y z
#    x 1.587330 0.000000 0.000000 
#    y 0.000000 1.587330 0.000000 
#    z 0.000000 0.000000 1.594160 
# 
# From -- ./inp_files/2671.got.cif
#   From: 2010.05.17/outbox.cif.g08.bks.cpg/sg164_2_cif.got.tgz:2671.got - 2010.05.20 10:58:56.
