data_PCOD9578839
_publ_section_title
;
Structure prediction by ZEFSAII (Michael W. Deem and Ramdas Pophale) SiO2 
 PCOD9578839
Probable space group: P -3 C 1
;
_chemical_formula_sum "Si O2"
_cell_formula_units_Z 84
_cell_length_a 21.573466
_cell_length_b 21.573466
_cell_length_c 10.665480
_cell_angle_alpha 90.000000
_cell_angle_beta 90.000000
_cell_angle_gamma 120.000000
_cell_volume 4298.836093
_symmetry_space_group_name_H-M "P -3 C 1"
_symmetry_group_IT_number 165
_symmetry_cell_setting 'hexagonal'
loop_
_space_group_symop_operation_xyz
x,y,z
-y,x-y,z
-x+y,-x,z
x-y,-y,1/2-z
-x,-x+y,1/2-z
y,x,1/2-z
-x,-y,-z
y,-x+y,-z
x-y,x,-z
-x+y,y,1/2+z
x,x-y,1/2+z
-y,-x,1/2+z
loop_
_atom_site_type_symbol
_atom_site_label
_atom_site_fract_x
_atom_site_fract_y
_atom_site_fract_z
Si Si1 0.083374 0.166749 0.500000
Si Si2 0.084107 0.788564 0.116457
Si Si3 0.211436 0.295543 0.383544
Si Si4 0.467164 0.084473 0.250000
Si Si5 0.150027 0.709397 0.500867
Si Si6 0.440630 0.150027 0.000867
Si Si7 0.468618 0.383874 0.250000
O O1 0.117961 0.117961 0.533837
O O2 0.089558 0.224306 0.602346
O O3 0.134748 0.224307 0.397656
O O4 0.117331 0.786756 0.250000
O O5 0.114169 0.759820 0.008665
O O6 0.000000 0.733661 0.118950
O O7 0.240180 0.354349 0.491335
O O8 0.459977 0.122475 0.374364
O O9 0.459977 0.122475 0.125635
O O10 0.543730 0.088694 0.250000
O O11 0.407872 0.000000 0.250000
O O12 0.235064 0.764936 0.500000
O O13 0.121944 0.660213 0.376500
O O14 0.461732 0.121944 0.876500
O O15 0.408861 0.408861 0.250000
#
# Coordination Sequence:
#
# PCOD9578839 Si02
#       7
#    12  12  12  12  12  12  12
#     4  10  21  36  54  80 120 172 228 278 322 374
#     4  10  20  36  57  83 118 163 209 257 317 380
#     4  10  20  36  57  83 118 163 209 257 317 380
#     4  11  25  42  66 100 128 162 215 269 318 387
#     4  12  23  39  64  97 133 168 206 265 328 390
#     4  12  23  39  64  97 133 168 206 265 328 390
#     4  11  23  44  70  92 128 174 213 259 326 399
#
# _framework density 19.540172999999999
#
# number of rings (size 3 to 8) (size 9 to 14) (size 15 to 20)
#    0.000    1.143    2.857    4.429    0.000    2.857 
#    0.000    0.000    0.000   13.143    0.000    0.000 
#    0.000    0.000    0.000    0.000    0.000    0.000 
#
# Total GULP energy -468495.668269 kJ/mol
# GULP energy per Si atom -5577.329384 kJ/mol
# Density = 1.949570 g / cm^3
# Si number density = 19.540173 Si / 1000 Ang^3
#
#
#
# Elastic Constant Matrix: (Units=GPa)
#
#
# Indices 1 2 3 4 5 6 
#
# 1 120.3871 62.8827 67.6294 -0.0001 0.0000 0.0000
# 2 62.8827 120.3871 67.6294 0.0001 0.0000 0.0000
# 3 67.6294 67.6294 154.4071 0.0000 0.0000 0.0000
# 4 -0.0001 0.0001 0.0000 15.9685 0.0000 0.0000
# 5 0.0000 0.0000 0.0000 0.0000 15.9685 -0.0001
# 6 0.0000 0.0000 0.0000 0.0000 -0.0001 28.7522
#
#
#
# Elastic Compliance Matrix: (Units=1/GPa)
#
#
# Indices 1 2 3 4 5 6 
#
# 1 0.012726 -0.004664 -0.003531 0.000000 0.000000 0.000000
# 2 -0.004664 0.012726 -0.003531 0.000000 0.000000 0.000000
# 3 -0.003531 -0.003531 0.009570 0.000000 0.000000 0.000000
# 4 0.000000 0.000000 0.000000 0.062623 0.000000 0.000000
# 5 0.000000 0.000000 0.000000 0.000000 0.062623 0.000000
# 6 0.000000 0.000000 0.000000 0.000000 0.000000 0.034780
#
#
# Mechanical properties :
#
#
# Convention : Reuss Voigt Hill
#
# Bulk Modulus (GPa) = 86.43319 87.94049 87.18684
# Shear Modulus (GPa) = 22.48620 25.27383 23.88002
#
# Velocity S-wave (km/s) = 3.39598 3.60033 3.49965
# Velocity P-wave (km/s) = 7.72700 7.89847 7.81320
#
# Compressibility (1/GPa) = 0.01156963
#
# Stress axis : x y z
#
# Youngs Moduli (GPa) = 78.57705 78.57705 104.49448
#
# Poissons Ratio (x) = 0.36645 0.36902
# Poissons Ratio (y) = 0.36645 0.36902
# Poissons Ratio (z) = 0.27749 0.27749
#
# Static dielectric constant tensor:
#      x y z
#    x 1.703470 0.000000 0.000000 
#    y 0.000000 1.703470 0.000000 
#    z 0.000000 0.000000 1.724390 
# 
# From -- ./inp_files/1203.got.cif
#   From: 2010.05.17/outbox.cif.g08.bks.cpg/sg165_1_cif.got.tgz:1203.got - 2010.05.20 11:02:39.
