data_PCOD9578262
_publ_section_title
;
Structure prediction by ZEFSAII (Michael W. Deem and Ramdas Pophale) SiO2 
 PCOD9578262
Probable space group: P -3 1 C
;
_chemical_formula_sum "Si O2"
_cell_formula_units_Z 60
_cell_length_a 13.507538
_cell_length_b 13.507538
_cell_length_c 18.640329
_cell_angle_alpha 90.000000
_cell_angle_beta 90.000000
_cell_angle_gamma 120.000000
_cell_volume 2945.347904
_symmetry_space_group_name_H-M "P -3 1 C"
_symmetry_group_IT_number 163
_symmetry_cell_setting 'hexagonal'
loop_
_space_group_symop_operation_xyz
x,y,z
-y,x-y,z
-x+y,-x,z
-y,-x,1/2-z
-x+y,y,1/2-z
x,x-y,1/2-z
-x,-y,-z
y,-x+y,-z
x-y,x,-z
y,x,1/2+z
x-y,-y,1/2+z
-x,-x+y,1/2+z
loop_
_atom_site_type_symbol
_atom_site_label
_atom_site_fract_x
_atom_site_fract_y
_atom_site_fract_z
Si Si1 0.444161 0.330980 0.766946
Si Si2 0.451501 0.353579 0.932992
Si Si3 0.560522 0.684770 0.475787
Si Si4 0.800890 0.807046 0.790820
Si Si5 0.980845 0.174153 0.950086
O O1 0.539813 0.460188 0.750000
O O2 0.492167 0.246084 0.750000
O O3 0.416044 0.314473 0.851662
O O4 0.327929 0.284712 0.721781
O O5 0.376753 0.412198 0.957877
O O6 0.584296 0.451615 0.937057
O O7 0.447807 0.248524 0.979390
O O8 0.678984 0.727163 0.435459
O O9 0.914997 0.829993 0.750000
O O10 0.838522 0.856744 0.871306
O O11 0.749639 0.874820 0.750000
O O12 0.068955 0.199441 0.014615
#
# Coordination Sequence:
#
# PCOD9578262 Si02
#       5
#    12  12  12  12  12
#     4  11  23  40  67  94 128 166 215 266 323 378
#     4  11  23  41  62  97 126 174 208 270 318 388
#     4  11  23  39  65  90 135 161 220 256 324 379
#     4  11  24  40  63  92 129 168 212 266 319 386
#     4  12  24  40  64  93 128 170 210 264 323 390
#
# _framework density 20.371106999999999
#
# number of rings (size 3 to 8) (size 9 to 14) (size 15 to 20)
#    0.000    0.800    2.000    7.000    2.800    0.000 
#    0.000    0.000    0.000    0.400    0.000    0.000 
#    0.000    0.000    0.000    0.000    0.000    0.000 
#
# Total GULP energy -334144.275398 kJ/mol
# GULP energy per Si atom -5569.071257 kJ/mol
# Density = 2.032474 g / cm^3
# Si number density = 20.371107 Si / 1000 Ang^3
#
#
#
# Elastic Constant Matrix: (Units=GPa)
#
#
# Indices 1 2 3 4 5 6 
#
# 1 73.0395 52.1524 30.8826 0.0005 -3.9274 0.0000
# 2 52.1524 73.0395 30.8826 -0.0005 3.9274 0.0000
# 3 30.8826 30.8826 98.0643 0.0000 0.0000 0.0000
# 4 0.0005 -0.0005 0.0000 19.3537 0.0000 3.9274
# 5 -3.9274 3.9274 0.0000 0.0000 19.3537 0.0005
# 6 0.0000 0.0000 0.0000 3.9274 0.0005 10.4436
#
#
#
# Elastic Compliance Matrix: (Units=1/GPa)
#
#
# Indices 1 2 3 4 5 6 
#
# 1 0.030644 -0.021187 -0.002978 -0.000001 0.010518 0.000000
# 2 -0.021187 0.030644 -0.002978 0.000001 -0.010518 0.000000
# 3 -0.002978 -0.002978 0.012073 0.000000 0.000000 0.000000
# 4 -0.000001 0.000001 0.000000 0.055939 0.000000 -0.021036
# 5 0.010518 -0.010518 0.000000 0.000000 0.055939 -0.000003
# 6 0.000000 0.000000 0.000000 -0.021036 -0.000003 0.103664
#
#
# Mechanical properties :
#
#
# Convention : Reuss Voigt Hill
#
# Bulk Modulus (GPa) = 52.42624 52.44208 52.43416
# Shear Modulus (GPa) = 14.30413 18.51188 16.40801
#
# Velocity S-wave (km/s) = 2.65274 3.01779 2.84113
# Velocity P-wave (km/s) = 5.93078 6.15971 6.04633
#
# Compressibility (1/GPa) = 0.01907442
#
# Stress axis : x y z
#
# Youngs Moduli (GPa) = 32.63228 32.63228 82.82792
#
# Poissons Ratio (x) = 0.69139 0.24668
# Poissons Ratio (y) = 0.69139 0.24668
# Poissons Ratio (z) = 0.09719 0.09719
#
# Static dielectric constant tensor:
#      x y z
#    x 1.772780 0.000000 0.000000 
#    y 0.000000 1.772780 0.000000 
#    z 0.000000 0.000000 1.816800 
# 
# From -- ./inp_files/2387.got.cif
#   From: 2010.05.17/outbox.cif.g08.bks.cpg/sg163_2_cif.got.tgz:2387.got - 2010.05.20 10:56:03.
