data_PCOD9578634
_publ_section_title
;
Structure prediction by ZEFSAII (Michael W. Deem and Ramdas Pophale) SiO2 
 PCOD9578634
Probable space group: P -3 M 1
;
_chemical_formula_sum "Si O2"
_cell_formula_units_Z 60
_cell_length_a 12.679983
_cell_length_b 12.679983
_cell_length_c 26.243168
_cell_angle_alpha 90.000000
_cell_angle_beta 90.000000
_cell_angle_gamma 120.000000
_cell_volume 3654.132029
_symmetry_space_group_name_H-M "P -3 M 1"
_symmetry_group_IT_number 164
_symmetry_cell_setting 'hexagonal'
loop_
_space_group_symop_operation_xyz
x,y,z
-y,x-y,z
-x+y,-x,z
x-y,-y,-z
-x,-x+y,-z
y,x,-z
-x,-y,-z
y,-x+y,-z
x-y,x,-z
-x+y,y,z
x,x-y,z
-y,-x,z
loop_
_atom_site_type_symbol
_atom_site_label
_atom_site_fract_x
_atom_site_fract_y
_atom_site_fract_z
Si Si1 0.666155 0.583879 0.950397
Si Si2 0.333740 0.416137 0.851204
Si Si3 0.333633 0.917021 0.654317
Si Si4 0.416187 0.082659 0.752435
Si Si5 0.249523 0.249701 0.442209
O O1 0.795205 0.590410 0.950787
O O2 0.556481 0.443520 0.950638
O O3 0.647137 0.644941 0.900152
O O4 0.646315 0.646315 0.000000
O O5 0.204987 0.409973 0.852820
O O6 0.443679 0.556322 0.851479
O O7 0.350434 0.355611 0.800291
O O8 0.447433 0.894866 0.652936
O O9 0.209095 0.790906 0.662812
O O10 0.320836 0.972637 0.601148
O O11 0.357539 0.009493 0.700478
O O12 0.555908 0.111816 0.753620
O O13 0.410307 0.205154 0.755483
O O14 0.293094 0.293094 0.500000
O O15 0.219488 0.109744 0.440279
O O16 0.128002 0.256004 0.433018
#
# Coordination Sequence:
#
# PCOD9578634 Si02
#       5
#    12  12  12  12  12
#     4  10  20  34  54  78 104 134 168 209 253 297
#     4  10  20  34  54  78 104 134 167 205 246 291
#     4  10  20  33  50  71  97 129 163 201 243 290
#     4  10  20  34  53  75  99 127 160 201 246 292
#     4   9  17  30  49  72  97 126 161 201 244 290
#
# _framework density 16.419768000000001
#
# number of rings (size 3 to 8) (size 9 to 14) (size 15 to 20)
#    0.000    2.200    0.000    3.400    0.000    1.200 
#    0.000    6.000    0.000   13.200    0.000    0.000 
#    0.000    0.000    0.000    0.000    0.000    0.000 
#
# Total GULP energy -334846.423774 kJ/mol
# GULP energy per Si atom -5580.773730 kJ/mol
# Density = 1.638240 g / cm^3
# Si number density = 16.419768 Si / 1000 Ang^3
#
#
#
# Elastic Constant Matrix: (Units=GPa)
#
#
# Indices 1 2 3 4 5 6 
#
# 1 123.7297 86.9865 78.2093 2.5448 0.0000 0.0000
# 2 86.9865 123.7297 78.2093 -2.5448 0.0000 0.0000
# 3 78.2093 78.2093 145.1349 0.0000 0.0000 0.0000
# 4 2.5448 -2.5448 0.0000 18.6143 0.0000 0.0000
# 5 0.0000 0.0000 0.0000 0.0000 18.6143 2.5448
# 6 0.0000 0.0000 0.0000 0.0000 2.5448 18.3716
#
#
#
# Elastic Compliance Matrix: (Units=1/GPa)
#
#
# Indices 1 2 3 4 5 6 
#
# 1 0.017825 -0.009916 -0.004262 -0.003793 0.000000 0.000000
# 2 -0.009916 0.017825 -0.004262 0.003793 0.000000 0.000000
# 3 -0.004262 -0.004262 0.011484 0.000000 0.000000 0.000000
# 4 -0.003793 0.003793 0.000000 0.054759 0.000000 0.000000
# 5 0.000000 0.000000 0.000000 0.000000 0.054759 -0.007585
# 6 0.000000 0.000000 0.000000 0.000000 -0.007585 0.055483
#
#
# Mechanical properties :
#
#
# Convention : Reuss Voigt Hill
#
# Bulk Modulus (GPa) = 97.52326 97.71160 97.61743
# Shear Modulus (GPa) = 19.80711 21.06597 20.43654
#
# Velocity S-wave (km/s) = 3.47695 3.58573 3.53176
# Velocity P-wave (km/s) = 8.69722 8.76248 8.72991
#
# Compressibility (1/GPa) = 0.01025396
#
# Stress axis : x y z
#
# Youngs Moduli (GPa) = 56.09943 56.09943 87.07869
#
# Poissons Ratio (x) = 0.55627 0.37116
# Poissons Ratio (y) = 0.55627 0.37116
# Poissons Ratio (z) = 0.23912 0.23912
#
# Static dielectric constant tensor:
#      x y z
#    x 1.517640 0.000000 0.000000 
#    y 0.000000 1.517640 0.000000 
#    z 0.000000 0.000000 1.550360 
# 
# From -- ./inp_files/5196.got.cif
#   From: 2010.05.17/outbox.cif.g08.bks.cpg/sg164_3_cif.got.tgz:5196.got - 2010.05.20 10:58:56.
