data_PCOD9578401
_publ_section_title
;
Structure prediction by ZEFSAII (Michael W. Deem and Ramdas Pophale) SiO2 
 PCOD9578401
Probable space group: P -3 M 1
;
_chemical_formula_sum "Si O2"
_cell_formula_units_Z 84
_cell_length_a 17.699525
_cell_length_b 17.699525
_cell_length_c 20.207595
_cell_angle_alpha 90.000000
_cell_angle_beta 90.000000
_cell_angle_gamma 120.000000
_cell_volume 5482.371785
_symmetry_space_group_name_H-M "P -3 M 1"
_symmetry_group_IT_number 164
_symmetry_cell_setting 'hexagonal'
loop_
_space_group_symop_operation_xyz
x,y,z
-y,x-y,z
-x+y,-x,z
x-y,-y,-z
-x,-x+y,-z
y,x,-z
-x,-y,-z
y,-x+y,-z
x-y,x,-z
-x+y,y,z
x,x-y,z
-y,-x,z
loop_
_atom_site_type_symbol
_atom_site_label
_atom_site_fract_x
_atom_site_fract_y
_atom_site_fract_z
Si Si1 0.820292 0.000247 0.836373
Si Si2 0.507185 0.839889 0.840662
Si Si3 0.234518 0.290320 0.297721
Si Si4 0.468146 0.364352 0.008219
Si Si5 0.820563 0.820207 0.425014
Si Si6 0.098389 0.733016 0.113353
Si Si7 0.575588 0.598806 0.227041
O O1 0.812545 0.906273 0.845827
O O2 0.788439 0.009952 0.762942
O O3 0.760568 0.023571 0.884261
O O4 0.920694 0.079307 0.843654
O O5 0.404972 0.809944 0.838319
O O6 0.524081 0.762041 0.824503
O O7 0.555325 0.921399 0.791837
O O8 0.536353 0.871523 0.916217
O O9 0.155328 0.310655 0.299108
O O10 0.233142 0.246246 0.367085
O O11 0.326378 0.374692 0.280981
O O12 0.570530 0.429471 0.991987
O O13 0.412481 0.288602 0.956851
O O14 0.422396 0.422396 0.000000
O O15 0.789283 0.789283 0.500000
O O16 0.910529 0.821058 0.414928
O O17 0.837529 0.918765 0.420557
O O18 0.182452 0.817549 0.142567
O O19 0.071265 0.650605 0.160222
O O20 0.478903 0.521097 0.242217
#
# Coordination Sequence:
#
# PCOD9578401 Si02
#       7
#    12  12  12  12  12  12  12
#     4   9  17  28  43  63  90 121 152 182 212 247
#     4  10  20  32  48  67  86 108 136 176 224 275
#     4   9  18  31  46  66  93 121 152 188 218 252
#     4  10  18  32  48  63  82 105 137 175 223 279
#     4   9  16  26  43  70 104 137 162 183 210 246
#     4  10  19  31  46  65  87 110 141 184 224 264
#     4  10  19  32  49  65  86 117 146 179 226 272
#
# _framework density 15.321835999999999
#
# number of rings (size 3 to 8) (size 9 to 14) (size 15 to 20)
#    0.000    2.429    1.429    3.000    0.000    3.429 
#    0.000    1.429    0.000    6.429    0.000    0.000 
#    0.000    2.857    0.000    0.286    0.000    0.000 
#
# Total GULP energy -467922.803816 kJ/mol
# GULP energy per Si atom -5570.509569 kJ/mol
# Density = 1.528696 g / cm^3
# Si number density = 15.321836 Si / 1000 Ang^3
#
#
#
# Elastic Constant Matrix: (Units=GPa)
#
#
# Indices 1 2 3 4 5 6 
#
# 1 58.7830 65.0642 29.8624 -8.3571 0.0000 0.0000
# 2 65.0642 58.7830 29.8624 8.3571 0.0000 0.0000
# 3 29.8624 29.8624 58.3570 0.0000 0.0000 0.0000
# 4 -8.3571 8.3571 0.0000 19.2518 0.0000 0.0000
# 5 0.0000 0.0000 0.0000 0.0000 19.2518 -8.3571
# 6 0.0000 0.0000 0.0000 0.0000 -8.3571 -3.1406
#
#
#
# Elastic Compliance Matrix: (Units=1/GPa)
#
#
# Indices 1 2 3 4 5 6 
#
# 1 -0.031576 0.042296 -0.005486 -0.032068 0.000000 0.000000
# 2 0.042296 -0.031576 -0.005486 0.032068 0.000000 0.000000
# 3 -0.005486 -0.005486 0.022750 0.000000 0.000000 0.000000
# 4 -0.032068 0.032068 0.000000 0.024102 0.000000 0.000000
# 5 0.000000 0.000000 0.000000 0.000000 0.024102 -0.064135
# 6 0.000000 0.000000 0.000000 0.000000 -0.064135 -0.147745
#
#
# Mechanical properties :
#
#
# Convention : Reuss Voigt Hill
#
# Bulk Modulus (GPa) = 44.94885 47.27790 46.11337
# Shear Modulus (GPa) = -25.61770 10.48154 -7.56808
#
# Velocity S-wave (km/s) = -4.09341 2.61835 -2.22489
# Velocity P-wave (km/s) = 2.65684 6.32966 4.85404
#
# Compressibility (1/GPa) = 0.02224751
#
# Stress axis : x y z
#
# Youngs Moduli (GPa) = -31.66930 -31.66930 43.95600
#
# Poissons Ratio (x) = 1.33949 0.24112
# Poissons Ratio (y) = 1.33949 0.24112
# Poissons Ratio (z) = -0.17372 -0.17372
#
# Static dielectric constant tensor:
#      x y z
#    x 1.531970 0.000000 0.000000 
#    y 0.000000 1.531970 0.000000 
#    z 0.000000 0.000000 1.509150 
# 
# From -- ./inp_files/4661.got.cif
#   From: 2010.05.17/outbox.cif.g08.bks.cpg/sg164_3_cif.got.tgz:4661.got - 2010.05.20 10:58:56.
