data_PCOD9578836
_publ_section_title
;
Structure prediction by ZEFSAII (Michael W. Deem and Ramdas Pophale) SiO2 
 PCOD9578836
Probable space group: P -3 C 1
;
_chemical_formula_sum "Si O2"
_cell_formula_units_Z 42
_cell_length_a 19.117269
_cell_length_b 19.117269
_cell_length_c 5.753804
_cell_angle_alpha 90.000000
_cell_angle_beta 90.000000
_cell_angle_gamma 120.000000
_cell_volume 1821.115110
_symmetry_space_group_name_H-M "P -3 C 1"
_symmetry_group_IT_number 165
_symmetry_cell_setting 'hexagonal'
loop_
_space_group_symop_operation_xyz
x,y,z
-y,x-y,z
-x+y,-x,z
x-y,-y,1/2-z
-x,-x+y,1/2-z
y,x,1/2-z
-x,-y,-z
y,-x+y,-z
x-y,x,-z
-x+y,y,1/2+z
x,x-y,1/2+z
-y,-x,1/2+z
loop_
_atom_site_type_symbol
_atom_site_label
_atom_site_fract_x
_atom_site_fract_y
_atom_site_fract_z
Si Si1 0.332259 0.000000 0.250000
Si Si2 0.815796 0.140805 0.604548
Si Si3 0.534471 0.941455 0.429625
Si Si4 0.770813 0.486108 0.150384
O O1 0.314832 0.052768 0.074006
O O2 0.417898 0.066067 0.355408
O O3 0.864593 0.155779 0.366022
O O4 0.797534 0.215500 0.633492
O O5 0.479738 0.852418 0.333556
O O6 0.602064 0.000000 0.250000
O O7 0.500000 0.000000 0.500000
O O8 0.724174 0.454147 0.396435
#
# Coordination Sequence:
#
# PCOD9578836 Si02
#       4
#     6  12  12  12
#     4  12  22  36  58  82 126 164 204 260 318 416
#     4  10  20  35  55  79 113 159 196 230 309 393
#     4  12  24  35  56  91 133 153 214 286 342 396
#     4  10  20  39  57  76 119 166 196 235 332 422
#
# _framework density 23.062792999999999
#
# number of rings (size 3 to 8) (size 9 to 14) (size 15 to 20)
#    0.000    1.143    7.143    3.429    0.000    0.000 
#    0.000    0.000    0.000    0.000    0.000    0.000 
#  151.429    0.000    0.000    8.571    1.714    0.000 
#
# Total GULP energy -233845.395321 kJ/mol
# GULP energy per Si atom -5567.747508 kJ/mol
# Density = 2.301030 g / cm^3
# Si number density = 23.062793 Si / 1000 Ang^3
#
#
#
# Elastic Constant Matrix: (Units=GPa)
#
#
# Indices 1 2 3 4 5 6 
#
# 1 77.9973 38.0193 24.3979 6.1787 0.0000 0.0000
# 2 38.0193 77.9973 24.3979 -6.1787 0.0000 0.0000
# 3 24.3979 24.3979 178.6007 0.0000 0.0000 0.0000
# 4 6.1787 -6.1787 0.0000 25.4996 0.0000 0.0000
# 5 0.0000 0.0000 0.0000 0.0000 25.4996 6.1787
# 6 0.0000 0.0000 0.0000 0.0000 6.1787 19.9890
#
#
#
# Elastic Compliance Matrix: (Units=1/GPa)
#
#
# Indices 1 2 3 4 5 6 
#
# 1 0.018092 -0.008947 -0.001249 -0.006552 0.000000 0.000000
# 2 -0.008947 0.018092 -0.001249 0.006552 0.000000 0.000000
# 3 -0.001249 -0.001249 0.005940 0.000000 0.000000 0.000000
# 4 -0.006552 0.006552 0.000000 0.042391 0.000000 0.000000
# 5 0.000000 0.000000 0.000000 0.000000 0.042391 -0.013103
# 6 0.000000 0.000000 0.000000 0.000000 -0.013103 0.054078
#
#
# Mechanical properties :
#
#
# Convention : Reuss Voigt Hill
#
# Bulk Modulus (GPa) = 51.99352 56.46951 54.23151
# Shear Modulus (GPa) = 23.77702 30.71631 27.24666
#
# Velocity S-wave (km/s) = 3.21435 3.65342 3.44090
# Velocity P-wave (km/s) = 6.03070 6.50653 6.27313
#
# Compressibility (1/GPa) = 0.01923317
#
# Stress axis : x y z
#
# Youngs Moduli (GPa) = 55.27333 55.27333 168.33917
#
# Poissons Ratio (x) = 0.49453 0.21030
# Poissons Ratio (y) = 0.49453 0.21030
# Poissons Ratio (z) = 0.06905 0.06905
#
# Static dielectric constant tensor:
#      x y z
#    x 1.932320 0.000000 0.000000 
#    y 0.000000 1.932320 0.000000 
#    z 0.000000 0.000000 2.326840 
# 
# From -- ./inp_files/104.got.cif
#   From: 2010.05.17/outbox.cif.g08.bks.cpg/sg165_1_cif.got.tgz:104.got - 2010.05.20 11:02:39.
