data_PCOD9578607
_publ_section_title
;
Structure prediction by ZEFSAII (Michael W. Deem and Ramdas Pophale) SiO2 
 PCOD9578607
Probable space group: P -3 M 1
;
_chemical_formula_sum "Si O2"
_cell_formula_units_Z 66
_cell_length_a 12.707524
_cell_length_b 12.707524
_cell_length_c 28.781164
_cell_angle_alpha 90.000000
_cell_angle_beta 90.000000
_cell_angle_gamma 120.000000
_cell_volume 4024.953460
_symmetry_space_group_name_H-M "P -3 M 1"
_symmetry_group_IT_number 164
_symmetry_cell_setting 'hexagonal'
loop_
_space_group_symop_operation_xyz
x,y,z
-y,x-y,z
-x+y,-x,z
x-y,-y,-z
-x,-x+y,-z
y,x,-z
-x,-y,-z
y,-x+y,-z
x-y,x,-z
-x+y,y,z
x,x-y,z
-y,-x,z
loop_
_atom_site_type_symbol
_atom_site_label
_atom_site_fract_x
_atom_site_fract_y
_atom_site_fract_z
Si Si1 0.666722 0.083134 0.770099
Si Si2 0.749557 0.749940 0.319937
Si Si3 0.750870 0.750648 0.947330
Si Si4 0.333859 0.417480 0.859735
Si Si5 0.667279 0.583591 0.590545
Si Si6 0.000000 0.749738 0.500000
O O1 0.544845 0.089690 0.762332
O O2 0.782754 0.217247 0.774231
O O3 0.691636 0.018911 0.726747
O O4 0.648397 0.007168 0.816969
O O5 0.871916 0.743832 0.320900
O O6 0.664804 0.684011 0.364233
O O7 0.779043 0.889522 0.321578
O O8 0.780041 0.890020 0.945500
O O9 0.653127 0.679166 0.907664
O O10 0.872683 0.745366 0.939116
O O11 0.707202 0.707202 0.000000
O O12 0.209040 0.418080 0.852356
O O13 0.446819 0.553181 0.862185
O O14 0.776214 0.552428 0.592275
O O15 0.537992 0.462009 0.589692
O O16 0.690193 0.665108 0.544839
O O17 0.881389 0.762777 0.492790
#
# Coordination Sequence:
#
# PCOD9578607 Si02
#       6
#    12  12  12  12  12   6
#     4  10  20  34  53  75  99 127 160 200 244 290
#     4  10  20  34  53  76 102 131 163 201 244 290
#     4   9  17  30  49  72  96 122 155 198 247 294
#     4  10  20  33  49  69  96 130 165 199 236 283
#     4  10  20  34  53  76 103 135 170 208 249 294
#     4  10  20  34  54  78 104 134 168 208 252 298
#
# _framework density 16.397704999999998
#
# number of rings (size 3 to 8) (size 9 to 14) (size 15 to 20)
#    0.000    2.182    0.000    3.455    0.000    1.091 
#    0.000    3.636    0.000   14.909    0.000    0.000 
#    0.000    0.000    0.000    0.000    0.000    0.000 
#
# Total GULP energy -368329.389960 kJ/mol
# GULP energy per Si atom -5580.748333 kJ/mol
# Density = 1.636038 g / cm^3
# Si number density = 16.397705 Si / 1000 Ang^3
#
#
#
# Elastic Constant Matrix: (Units=GPa)
#
#
# Indices 1 2 3 4 5 6 
#
# 1 125.9486 86.5166 85.4307 -3.2678 0.0000 0.0000
# 2 86.5166 125.9486 85.4307 3.2678 0.0000 0.0000
# 3 85.4307 85.4307 141.3540 0.0000 0.0000 0.0000
# 4 -3.2678 3.2678 0.0000 23.4714 0.0000 0.0000
# 5 0.0000 0.0000 0.0000 0.0000 23.4714 -3.2678
# 6 0.0000 0.0000 0.0000 0.0000 -3.2678 19.7160
#
#
#
# Elastic Compliance Matrix: (Units=1/GPa)
#
#
# Indices 1 2 3 4 5 6 
#
# 1 0.017558 -0.008401 -0.005535 0.003614 0.000000 0.000000
# 2 -0.008401 0.017558 -0.005535 -0.003614 0.000000 0.000000
# 3 -0.005535 -0.005535 0.013764 0.000000 0.000000 0.000000
# 4 0.003614 -0.003614 0.000000 0.043611 0.000000 0.000000
# 5 0.000000 0.000000 0.000000 0.000000 0.043611 0.007228
# 6 0.000000 0.000000 0.000000 0.000000 0.007228 0.051918
#
#
# Mechanical properties :
#
#
# Convention : Reuss Voigt Hill
#
# Bulk Modulus (GPa) = 100.59272 100.88967 100.74120
# Shear Modulus (GPa) = 21.71314 22.38998 22.05156
#
# Velocity S-wave (km/s) = 3.64285 3.69919 3.67112
# Velocity P-wave (km/s) = 8.89790 8.93899 8.91847
#
# Compressibility (1/GPa) = 0.00994108
#
# Stress axis : x y z
#
# Youngs Moduli (GPa) = 56.95317 56.95317 72.65196
#
# Poissons Ratio (x) = 0.47846 0.40209
# Poissons Ratio (y) = 0.47846 0.40209
# Poissons Ratio (z) = 0.31521 0.31521
#
# Static dielectric constant tensor:
#      x y z
#    x 1.518020 0.000000 0.000000 
#    y 0.000000 1.518020 0.000000 
#    z 0.000000 0.000000 1.541260 
# 
# From -- ./inp_files/5460.got.cif
#   From: 2010.05.17/outbox.cif.g08.bks.cpg/sg164_3_cif.got.tgz:5460.got - 2010.05.20 10:58:56.
