data_PCOD9578516
_publ_section_title
;
Structure prediction by ZEFSAII (Michael W. Deem and Ramdas Pophale) SiO2 
 PCOD9578516
Probable space group: P -3 M 1
;
_chemical_formula_sum "Si O2"
_cell_formula_units_Z 96
_cell_length_a 23.061320
_cell_length_b 23.061320
_cell_length_c 11.792819
_cell_angle_alpha 90.000000
_cell_angle_beta 90.000000
_cell_angle_gamma 120.000000
_cell_volume 5431.460041
_symmetry_space_group_name_H-M "P -3 M 1"
_symmetry_group_IT_number 164
_symmetry_cell_setting 'hexagonal'
loop_
_space_group_symop_operation_xyz
x,y,z
-y,x-y,z
-x+y,-x,z
x-y,-y,-z
-x,-x+y,-z
y,x,-z
-x,-y,-z
y,-x+y,-z
x-y,x,-z
-x+y,y,z
x,x-y,z
-y,-x,z
loop_
_atom_site_type_symbol
_atom_site_label
_atom_site_fract_x
_atom_site_fract_y
_atom_site_fract_z
Si Si1 0.865916 0.266559 0.573364
Si Si2 0.665757 0.471892 0.971004
Si Si3 0.077012 0.283778 0.990946
Si Si4 0.795570 0.063820 0.440643
Si Si5 0.606013 0.900315 0.169510
Si Si6 0.950390 0.656314 0.227874
Si Si7 0.535463 0.200055 0.471038
Si Si8 0.825788 0.307726 0.228270
O O1 0.798102 0.201899 0.532762
O O2 0.921161 0.251456 0.524046
O O3 0.867318 0.270381 0.708090
O O4 0.860071 0.327114 0.521370
O O5 0.733182 0.466364 0.954040
O O6 0.597790 0.402211 0.943294
O O7 0.674860 0.536306 0.899553
O O8 0.663948 0.487878 0.104941
O O9 0.129371 0.258742 0.976455
O O10 0.077732 0.327394 0.884833
O O11 0.099637 0.334922 0.096381
O O12 0.000000 0.226065 0.000000
O O13 0.869341 0.130660 0.431929
O O14 0.755529 0.046596 0.321522
O O15 0.794093 0.000000 0.500000
O O16 0.640018 0.979456 0.197945
O O17 0.896529 0.581221 0.259578
O O18 0.598421 0.196841 0.514378
O O19 0.542017 0.271009 0.503087
O O20 0.531477 0.195636 0.334507
O O21 0.771158 0.228843 0.223367
#
# Coordination Sequence:
#
# PCOD9578516 Si02
#       8
#    12  12  12  12  12  12  12  12
#     4  10  20  34  54  78 108 147 186 230 282 339
#     4  11  23  39  59  81 110 149 197 248 302 360
#     4  10  20  34  56  84 114 149 188 231 278 329
#     4  11  21  37  61  90 122 152 190 237 282 340
#     4  11  22  36  57  82 116 149 189 237 291 345
#     4  11  20  35  60  86 116 146 190 237 288 341
#     4  10  20  34  54  80 109 144 191 245 299 349
#     4  10  19  34  57  82 110 148 190 237 295 355
#
# _framework density 17.674807000000001
#
# number of rings (size 3 to 8) (size 9 to 14) (size 15 to 20)
#    0.000    1.500    3.750    2.875    0.000    0.500 
#    0.000    3.125    0.000    2.875    0.000    0.000 
#    0.000    1.000    0.000    0.000    0.000    0.000 
#
# Total GULP energy -534975.118297 kJ/mol
# GULP energy per Si atom -5572.657482 kJ/mol
# Density = 1.763458 g / cm^3
# Si number density = 17.674807 Si / 1000 Ang^3
#
#
#
# Elastic Constant Matrix: (Units=GPa)
#
#
# Indices 1 2 3 4 5 6 
#
# 1 90.0419 55.1723 11.0424 -2.2450 0.0000 0.0000
# 2 55.1723 90.0419 11.0424 2.2450 0.0000 0.0000
# 3 11.0424 11.0424 70.0686 0.0000 0.0000 0.0000
# 4 -2.2450 2.2450 0.0000 16.1672 0.0000 0.0000
# 5 0.0000 0.0000 0.0000 0.0000 16.1672 -2.2450
# 6 0.0000 0.0000 0.0000 0.0000 -2.2450 17.4348
#
#
#
# Elastic Compliance Matrix: (Units=1/GPa)
#
#
# Indices 1 2 3 4 5 6 
#
# 1 0.018128 -0.011072 -0.001112 0.004055 0.000000 0.000000
# 2 -0.011072 0.018128 -0.001112 -0.004055 0.000000 0.000000
# 3 -0.001112 -0.001112 0.014622 0.000000 0.000000 0.000000
# 4 0.004055 -0.004055 0.000000 0.062980 0.000000 0.000000
# 5 0.000000 0.000000 0.000000 0.000000 0.062980 0.008109
# 6 0.000000 0.000000 0.000000 0.000000 0.008109 0.058401
#
#
# Mechanical properties :
#
#
# Convention : Reuss Voigt Hill
#
# Bulk Modulus (GPa) = 41.17677 44.96297 43.06987
# Shear Modulus (GPa) = 18.52362 21.48020 20.00191
#
# Velocity S-wave (km/s) = 3.24083 3.48990 3.36767
# Velocity P-wave (km/s) = 6.11158 6.46014 6.28828
#
# Compressibility (1/GPa) = 0.02428554
#
# Stress axis : x y z
#
# Youngs Moduli (GPa) = 55.16357 55.16357 68.38917
#
# Poissons Ratio (x) = 0.61079 0.07604
# Poissons Ratio (y) = 0.61079 0.07604
# Poissons Ratio (z) = 0.06134 0.06134
#
# Static dielectric constant tensor:
#      x y z
#    x 1.628370 0.000000 0.000000 
#    y 0.000000 1.628370 0.000000 
#    z 0.000000 0.000000 1.625590 
# 
# From -- ./inp_files/3149.got.cif
#   From: 2010.05.17/outbox.cif.g08.bks.cpg/sg164_2_cif.got.tgz:3149.got - 2010.05.20 10:58:56.
