data_PCOD9578853
_publ_section_title
;
Structure prediction by ZEFSAII (Michael W. Deem and Ramdas Pophale) SiO2 
 PCOD9578853
Probable space group: P -3 C 1
;
_chemical_formula_sum "Si O2"
_cell_formula_units_Z 48
_cell_length_a 12.640798
_cell_length_b 12.640798
_cell_length_c 14.337289
_cell_angle_alpha 90.000000
_cell_angle_beta 90.000000
_cell_angle_gamma 120.000000
_cell_volume 1984.022778
_symmetry_space_group_name_H-M "P -3 C 1"
_symmetry_group_IT_number 165
_symmetry_cell_setting 'hexagonal'
loop_
_space_group_symop_operation_xyz
x,y,z
-y,x-y,z
-x+y,-x,z
x-y,-y,1/2-z
-x,-x+y,1/2-z
y,x,1/2-z
-x,-y,-z
y,-x+y,-z
x-y,x,-z
-x+y,y,1/2+z
x,x-y,1/2+z
-y,-x,1/2+z
loop_
_atom_site_type_symbol
_atom_site_label
_atom_site_fract_x
_atom_site_fract_y
_atom_site_fract_z
Si Si1 0.666667 0.333335 0.123415
Si Si2 0.333334 0.666668 0.605960
Si Si3 0.000000 0.000000 0.133728
Si Si4 0.620800 0.083599 0.399870
Si Si5 0.087436 0.645070 0.876114
Si Si6 0.924019 0.185479 0.655026
O O1 0.798198 0.365160 0.157923
O O2 0.666668 0.333334 0.009078
O O3 0.308814 0.776259 0.634051
O O4 0.963527 0.864590 0.102258
O O5 0.000000 0.000000 0.250000
O O6 0.641167 0.095039 0.511213
O O7 0.483758 0.033802 0.360900
O O8 0.656332 0.979942 0.380298
O O9 0.111222 0.776531 0.842509
O O10 0.000000 0.214419 0.750000
#
# Coordination Sequence:
#
# PCOD9578853 Si02
#       6
#     4   4   4  12  12  12
#     4   9  15  36  61  92 124 171 205 269 343 384
#     4   9  21  36  58  95 136 156 223 287 325 399
#     4   9  24  45  61  77 130 180 208 266 328 408
#     4  10  22  39  65  98 129 176 222 280 338 410
#     4  10  20  38  67  94 131 173 222 271 339 406
#     4  11  24  44  65  95 132 175 224 278 353 407
#
# _framework density 24.193273000000001
#
# number of rings (size 3 to 8) (size 9 to 14) (size 15 to 20)
#    0.000    2.000    2.500    0.000    7.000    0.000 
#    4.500    1.250    0.000    0.000    0.000    0.000 
#    0.000    0.000    0.000    0.000    0.000    0.000 
#
# Total GULP energy -267500.507365 kJ/mol
# GULP energy per Si atom -5572.927237 kJ/mol
# Density = 2.413821 g / cm^3
# Si number density = 24.193273 Si / 1000 Ang^3
#
#
#
# Elastic Constant Matrix: (Units=GPa)
#
#
# Indices 1 2 3 4 5 6 
#
# 1 171.5619 65.2233 9.9408 5.0275 0.0000 0.0000
# 2 65.2233 171.5576 9.9399 -5.0275 0.0000 0.0000
# 3 9.9408 9.9399 68.5825 0.0000 0.0000 0.0000
# 4 5.0275 -5.0275 0.0000 16.8913 0.0000 0.0000
# 5 0.0000 0.0000 0.0000 0.0000 16.8918 5.0272
# 6 0.0000 0.0000 0.0000 0.0000 5.0272 53.1683
#
#
#
# Elastic Compliance Matrix: (Units=1/GPa)
#
#
# Indices 1 2 3 4 5 6 
#
# 1 0.006976 -0.002701 -0.000620 -0.002880 0.000000 0.000000
# 2 -0.002701 0.006976 -0.000620 0.002880 0.000000 0.000000
# 3 -0.000620 -0.000620 0.014761 0.000000 0.000000 0.000000
# 4 -0.002880 0.002880 0.000000 0.060917 0.000000 0.000000
# 5 0.000000 0.000000 0.000000 0.000000 0.060914 -0.005760
# 6 0.000000 0.000000 0.000000 0.000000 -0.005760 0.019353
#
#
# Mechanical properties :
#
#
# Convention : Reuss Voigt Hill
#
# Bulk Modulus (GPa) = 48.00178 64.65667 56.32923
# Shear Modulus (GPa) = 27.06798 39.16348 33.11573
#
# Velocity S-wave (km/s) = 3.34851 4.02777 3.70374
# Velocity P-wave (km/s) = 5.90204 6.95799 6.45165
#
# Compressibility (1/GPa) = 0.02083256
#
# Stress axis : x y z
#
# Youngs Moduli (GPa) = 143.35291 143.34943 67.74786
#
# Poissons Ratio (x) = 0.38713 0.04198
# Poissons Ratio (y) = 0.38713 0.04198
# Poissons Ratio (z) = 0.08884 0.08882
#
# Static dielectric constant tensor:
#      x y z
#    x 2.076160 0.000000 0.000000 
#    y 0.000000 2.076160 0.000000 
#    z 0.000000 0.000000 2.020580 
# 
# From -- ./inp_files/2552.got.cif
#   From: 2010.05.17/outbox.cif.g08.bks.cpg/sg165_2_cif.got.tgz:2552.got - 2010.05.20 11:02:39.
