data_PCOD9578780
_publ_section_title
;
Structure prediction by ZEFSAII (Michael W. Deem and Ramdas Pophale) SiO2 
 PCOD9578780
Probable space group: P -3 C 1
;
_chemical_formula_sum "Si O2"
_cell_formula_units_Z 66
_cell_length_a 19.372148
_cell_length_b 19.372148
_cell_length_c 10.206244
_cell_angle_alpha 90.000000
_cell_angle_beta 90.000000
_cell_angle_gamma 120.000000
_cell_volume 3317.050895
_symmetry_space_group_name_H-M "P -3 C 1"
_symmetry_group_IT_number 165
_symmetry_cell_setting 'hexagonal'
loop_
_space_group_symop_operation_xyz
x,y,z
-y,x-y,z
-x+y,-x,z
x-y,-y,1/2-z
-x,-x+y,1/2-z
y,x,1/2-z
-x,-y,-z
y,-x+y,-z
x-y,x,-z
-x+y,y,1/2+z
x,x-y,1/2+z
-y,-x,1/2+z
loop_
_atom_site_type_symbol
_atom_site_label
_atom_site_fract_x
_atom_site_fract_y
_atom_site_fract_z
Si Si1 0.744856 0.155820 0.255868
Si Si2 0.136642 0.782273 0.529174
Si Si3 0.244699 0.000000 0.750000
Si Si4 0.062332 0.883869 0.480343
Si Si5 0.927553 0.506532 0.356964
Si Si6 0.592626 0.612596 0.098804
O O1 0.808063 0.217180 0.355970
O O2 0.657260 0.141229 0.286371
O O3 0.739085 0.070975 0.288755
O O4 0.780646 0.174144 0.110152
O O5 0.115823 0.852433 0.551764
O O6 0.055509 0.698820 0.535835
O O7 0.210163 0.036011 0.644263
O O8 0.978216 0.862938 0.546275
O O9 0.918660 0.421382 0.391505
O O10 0.000000 0.544535 0.250000
O O11 0.952761 0.553465 0.496131
O O12 0.617622 0.617622 0.250000
#
# Coordination Sequence:
#
# PCOD9578780 Si02
#       6
#    12  12   6  12  12  12
#     4  11  21  39  61  84 122 160 198 249 315 364
#     4  11  24  39  59  89 120 157 211 255 312 367
#     4  10  20  38  56  80 108 158 200 256 322 350
#     4  11  23  39  55  77 113 161 214 267 317 364
#     4  10  18  38  61  85 124 158 180 244 307 361
#     4  10  22  34  61  95 116 148 200 243 298 367
#
# _framework density 19.897192
#
# number of rings (size 3 to 8) (size 9 to 14) (size 15 to 20)
#    0.000    1.455    4.545    1.273    2.545    2.182 
#    0.000    0.000    0.000    0.727    0.000    0.000 
#    0.000    0.000    0.000    0.000    0.000    0.000 
#
# Total GULP energy -367720.017741 kJ/mol
# GULP energy per Si atom -5571.515420 kJ/mol
# Density = 1.985190 g / cm^3
# Si number density = 19.897192 Si / 1000 Ang^3
#
#
#
# Elastic Constant Matrix: (Units=GPa)
#
#
# Indices 1 2 3 4 5 6 
#
# 1 37.4247 2.9774 9.1608 3.5892 0.0000 0.0000
# 2 2.9774 37.4247 9.1608 -3.5892 0.0000 0.0000
# 3 9.1608 9.1608 98.6712 0.0000 0.0000 0.0000
# 4 3.5892 -3.5892 0.0000 22.6336 0.0000 0.0000
# 5 0.0000 0.0000 0.0000 0.0000 22.6336 3.5892
# 6 0.0000 0.0000 0.0000 0.0000 3.5892 17.2237
#
#
#
# Elastic Compliance Matrix: (Units=1/GPa)
#
#
# Indices 1 2 3 4 5 6 
#
# 1 0.027930 -0.002091 -0.002399 -0.004761 0.000000 0.000000
# 2 -0.002091 0.027930 -0.002399 0.004761 0.000000 0.000000
# 3 -0.002399 -0.002399 0.010580 0.000000 0.000000 0.000000
# 4 -0.004761 0.004761 0.000000 0.045692 0.000000 0.000000
# 5 0.000000 0.000000 0.000000 0.000000 0.045692 -0.009522
# 6 0.000000 0.000000 0.000000 0.000000 -0.009522 0.060044
#
#
# Mechanical properties :
#
#
# Convention : Reuss Voigt Hill
#
# Bulk Modulus (GPa) = 18.98885 24.01318 21.50101
# Shear Modulus (GPa) = 20.06406 22.64627 21.35517
#
# Velocity S-wave (km/s) = 3.17896 3.37733 3.27964
# Velocity P-wave (km/s) = 4.79985 5.22526 5.01706
#
# Compressibility (1/GPa) = 0.05266249
#
# Stress axis : x y z
#
# Youngs Moduli (GPa) = 35.80317 35.80317 94.51690
#
# Poissons Ratio (x) = 0.07488 0.22674
# Poissons Ratio (y) = 0.07488 0.22674
# Poissons Ratio (z) = 0.08589 0.08589
#
# Static dielectric constant tensor:
#      x y z
#    x 1.738850 0.000000 0.000000 
#    y 0.000000 1.738850 0.000000 
#    z 0.000000 0.000000 1.791770 
# 
# From -- ./inp_files/692.got.cif
#   From: 2010.05.17/outbox.cif.g08.bks.cpg/sg165_1_cif.got.tgz:692.got - 2010.05.20 11:02:39.
