data_PCOD9578109
_publ_section_title
;
Structure prediction by ZEFSAII (Michael W. Deem and Ramdas Pophale) SiO2 
 PCOD9578109
Probable space group: P -3 1 C
;
_chemical_formula_sum "Si O2"
_cell_formula_units_Z 84
_cell_length_a 21.531223
_cell_length_b 21.531223
_cell_length_c 10.701537
_cell_angle_alpha 90.000000
_cell_angle_beta 90.000000
_cell_angle_gamma 120.000000
_cell_volume 4296.493776
_symmetry_space_group_name_H-M "P -3 1 C"
_symmetry_group_IT_number 163
_symmetry_cell_setting 'hexagonal'
loop_
_space_group_symop_operation_xyz
x,y,z
-y,x-y,z
-x+y,-x,z
-y,-x,1/2-z
-x+y,y,1/2-z
x,x-y,1/2-z
-x,-y,-z
y,-x+y,-z
x-y,x,-z
y,x,1/2+z
x-y,-y,1/2+z
-x,-x+y,1/2+z
loop_
_atom_site_type_symbol
_atom_site_label
_atom_site_fract_x
_atom_site_fract_y
_atom_site_fract_z
Si Si1 0.485919 0.650055 0.285646
Si Si2 0.554153 0.572998 0.428850
Si Si3 0.883909 0.295869 0.353009
Si Si4 0.615623 0.899108 0.923657
Si Si5 0.239507 0.780567 0.063904
Si Si6 0.179343 0.244711 0.591623
Si Si7 0.023715 0.799932 0.854940
O O1 0.404794 0.595207 0.250000
O O2 0.519140 0.600656 0.325151
O O3 0.534634 0.708343 0.179062
O O4 0.485303 0.699205 0.398836
O O5 0.500000 0.500000 0.500000
O O6 0.624064 0.573894 0.373747
O O7 0.579683 0.636462 0.528748
O O8 0.862566 0.280468 0.208402
O O9 0.819449 0.284350 0.442092
O O10 0.908027 0.237859 0.396125
O O11 0.696064 0.957115 0.889013
O O12 0.607866 0.840439 0.027300
O O13 0.200911 0.210150 0.707377
O O14 0.099708 0.228734 0.619697
O O15 0.177531 0.212353 0.456732
#
# Coordination Sequence:
#
# PCOD9578109 Si02
#       7
#    12  12  12  12  12  12  12
#     4  10  23  42  62  89 126 161 214 274 326 382
#     4  11  24  37  59  91 130 166 205 259 332 395
#     4  11  21  35  62  87 126 168 201 255 315 391
#     4  10  21  38  58  89 124 167 207 251 317 377
#     4  10  21  40  63  89 116 165 214 257 313 388
#     4  10  21  36  61  86 131 162 212 255 314 376
#     4  10  20  39  57  92 123 170 206 261 309 379
#
# _framework density 19.550825
#
# number of rings (size 3 to 8) (size 9 to 14) (size 15 to 20)
#    0.000    1.714    2.857    1.286    4.000    0.571 
#    6.000    0.000    0.000    2.857    0.000    0.000 
#    0.000    0.000    0.000    0.000    0.000    0.000 
#
# Total GULP energy -467615.179009 kJ/mol
# GULP energy per Si atom -5566.847369 kJ/mol
# Density = 1.950633 g / cm^3
# Si number density = 19.550825 Si / 1000 Ang^3
#
#
#
# Elastic Constant Matrix: (Units=GPa)
#
#
# Indices 1 2 3 4 5 6 
#
# 1 47.1815 28.9962 20.8078 0.0002 -10.6173 0.0000
# 2 28.9962 47.1815 20.8078 -0.0002 10.6173 0.0000
# 3 20.8078 20.8078 84.9502 0.0000 0.0000 0.0000
# 4 0.0002 -0.0002 0.0000 33.0975 0.0000 10.6173
# 5 -10.6173 10.6173 0.0000 0.0000 33.0975 0.0002
# 6 0.0000 0.0000 0.0000 10.6173 0.0002 9.0927
#
#
#
# Elastic Compliance Matrix: (Units=1/GPa)
#
#
# Indices 1 2 3 4 5 6 
#
# 1 0.051539 -0.036384 -0.003712 -0.000001 0.028205 0.000000
# 2 -0.036384 0.051539 -0.003712 0.000001 -0.028205 0.000000
# 3 -0.003712 -0.003712 0.013590 0.000000 0.000000 0.000000
# 4 -0.000001 0.000001 0.000000 0.048309 0.000000 -0.056410
# 5 0.028205 -0.028205 0.000000 0.000000 0.048309 -0.000001
# 6 0.000000 0.000000 0.000000 -0.056410 -0.000001 0.175847
#
#
# Mechanical properties :
#
#
# Convention : Reuss Voigt Hill
#
# Bulk Modulus (GPa) = 34.42117 35.61519 35.01818
# Shear Modulus (GPa) = 10.27887 22.30430 16.29158
#
# Velocity S-wave (km/s) = 2.29541 3.38129 2.88981
# Velocity P-wave (km/s) = 4.96683 5.78796 5.39305
#
# Compressibility (1/GPa) = 0.02905189
#
# Stress axis : x y z
#
# Youngs Moduli (GPa) = 19.40269 19.40269 73.58305
#
# Poissons Ratio (x) = 0.70595 0.27315
# Poissons Ratio (y) = 0.70595 0.27315
# Poissons Ratio (z) = 0.07202 0.07202
#
# Static dielectric constant tensor:
#      x y z
#    x 1.701800 0.000000 0.000000 
#    y 0.000000 1.701800 0.000000 
#    z 0.000000 0.000000 1.764810 
# 
# From -- ./inp_files/1838.got.cif
#   From: 2010.05.17/outbox.cif.g08.bks.cpg/sg163_1_cif.got.tgz:1838.got - 2010.05.20 10:56:03.
