data_PCOD9578999
_publ_section_title
;
Structure prediction by ZEFSAII (Michael W. Deem and Ramdas Pophale) SiO2 
 PCOD9578999
Probable space group: P -3 C 1
;
_chemical_formula_sum "Si O2"
_cell_formula_units_Z 42
_cell_length_a 11.523572
_cell_length_b 11.523572
_cell_length_c 13.358508
_cell_angle_alpha 90.000000
_cell_angle_beta 90.000000
_cell_angle_gamma 120.000000
_cell_volume 1536.253290
_symmetry_space_group_name_H-M "P -3 C 1"
_symmetry_group_IT_number 165
_symmetry_cell_setting 'hexagonal'
loop_
_space_group_symop_operation_xyz
x,y,z
-y,x-y,z
-x+y,-x,z
x-y,-y,1/2-z
-x,-x+y,1/2-z
y,x,1/2-z
-x,-y,-z
y,-x+y,-z
x-y,x,-z
-x+y,y,1/2+z
x,x-y,1/2+z
-y,-x,1/2+z
loop_
_atom_site_type_symbol
_atom_site_label
_atom_site_fract_x
_atom_site_fract_y
_atom_site_fract_z
Si Si1 0.785995 0.785995 0.250000
Si Si2 0.231379 0.180638 0.071965
Si Si3 0.672012 0.191037 0.070586
Si Si4 0.300099 0.793583 0.169222
O O1 0.899103 0.820061 0.165585
O O2 0.641531 0.750719 0.205886
O O3 0.376209 0.299636 0.103364
O O4 0.146791 0.238294 0.019494
O O5 0.796500 0.339544 0.098802
O O6 0.677628 0.188683 0.950237
O O7 0.196990 0.638494 0.199932
#
# Coordination Sequence:
#
# PCOD9578999 Si02
#       4
#     6  12  12  12
#     4  12  24  44  72 104 136 194 240 288 362 426
#     4  12  27  47  69 100 144 191 244 292 350 427
#     4   8  18  43  70 105 141 179 223 293 372 417
#     4   8  18  42  64 102 145 170 233 289 349 430
#
# _framework density 27.339243
#
# number of rings (size 3 to 8) (size 9 to 14) (size 15 to 20)
#    1.143    1.143    2.857    0.286    0.000    4.571 
#   10.286    0.000    0.000    0.000    0.000    0.000 
#    0.000    0.000    0.000    0.000    0.000    0.000 
#
# Total GULP energy -234667.511606 kJ/mol
# GULP energy per Si atom -5587.321705 kJ/mol
# Density = 2.727702 g / cm^3
# Si number density = 27.339243 Si / 1000 Ang^3
#
#
#
# Elastic Constant Matrix: (Units=GPa)
#
#
# Indices 1 2 3 4 5 6 
#
# 1 98.3230 22.7143 18.3384 -3.2186 0.0000 0.0000
# 2 22.7143 98.3230 18.3384 3.2186 0.0000 0.0000
# 3 18.3384 18.3384 114.7998 0.0000 0.0000 0.0000
# 4 -3.2186 3.2186 0.0000 40.8555 0.0000 0.0000
# 5 0.0000 0.0000 0.0000 0.0000 40.8555 -3.2186
# 6 0.0000 0.0000 0.0000 0.0000 -3.2186 37.8043
#
#
#
# Elastic Compliance Matrix: (Units=1/GPa)
#
#
# Indices 1 2 3 4 5 6 
#
# 1 0.010999 -0.002317 -0.001387 0.001049 0.000000 0.000000
# 2 -0.002317 0.010999 -0.001387 -0.001049 0.000000 0.000000
# 3 -0.001387 -0.001387 0.009154 0.000000 0.000000 0.000000
# 4 0.001049 -0.001049 0.000000 0.024642 0.000000 0.000000
# 5 0.000000 0.000000 0.000000 0.000000 0.024642 0.002098
# 6 0.000000 0.000000 0.000000 0.000000 0.002098 0.026631
#
#
# Mechanical properties :
#
#
# Convention : Reuss Voigt Hill
#
# Bulk Modulus (GPa) = 47.68575 47.80311 47.74443
# Shear Modulus (GPa) = 40.24582 40.70673 40.47628
#
# Velocity S-wave (km/s) = 3.84094 3.86288 3.85193
# Velocity P-wave (km/s) = 6.09513 6.11710 6.10612
#
# Compressibility (1/GPa) = 0.02097062
#
# Stress axis : x y z
#
# Youngs Moduli (GPa) = 90.91950 90.91950 109.24291
#
# Poissons Ratio (x) = 0.21062 0.15151
# Poissons Ratio (y) = 0.21062 0.15151
# Poissons Ratio (z) = 0.12610 0.12610
#
# Static dielectric constant tensor:
#      x y z
#    x 2.092280 0.000000 0.000000 
#    y 0.000000 2.092280 0.000000 
#    z 0.000000 0.000000 2.206450 
# 
# From -- ./inp_files/2051.got.cif
#   From: 2010.05.17/outbox.cif.g08.bks.cpg/sg165_2_cif.got.tgz:2051.got - 2010.05.20 11:02:39.
