data_PCOD9578555
_publ_section_title
;
Structure prediction by ZEFSAII (Michael W. Deem and Ramdas Pophale) SiO2 
 PCOD9578555
Probable space group: P -3 M 1
;
_chemical_formula_sum "Si O2"
_cell_formula_units_Z 66
_cell_length_a 13.017212
_cell_length_b 13.017212
_cell_length_c 28.399027
_cell_angle_alpha 90.000000
_cell_angle_beta 90.000000
_cell_angle_gamma 120.000000
_cell_volume 4167.446642
_symmetry_space_group_name_H-M "P -3 M 1"
_symmetry_group_IT_number 164
_symmetry_cell_setting 'hexagonal'
loop_
_space_group_symop_operation_xyz
x,y,z
-y,x-y,z
-x+y,-x,z
x-y,-y,-z
-x,-x+y,-z
y,x,-z
-x,-y,-z
y,-x+y,-z
x-y,x,-z
-x+y,y,z
x,x-y,z
-y,-x,z
loop_
_atom_site_type_symbol
_atom_site_label
_atom_site_fract_x
_atom_site_fract_y
_atom_site_fract_z
Si Si1 0.908742 0.575453 0.192140
Si Si2 0.244502 0.000000 0.000000
Si Si3 0.576032 0.909626 0.916525
Si Si4 0.000227 0.756036 0.276184
Si Si5 0.241326 0.999593 0.555074
Si Si6 0.910281 0.333185 0.637093
O O1 0.771856 0.543711 0.196008
O O2 0.918679 0.459340 0.201908
O O3 0.945313 0.612235 0.137860
O O4 0.981166 0.679505 0.229127
O O5 0.322842 0.014227 0.045971
O O6 0.233150 0.116575 0.996502
O O7 0.457519 0.915038 0.925539
O O8 0.549287 0.774644 0.921182
O O9 0.112681 0.887320 0.271770
O O10 0.026781 0.692862 0.319378
O O11 0.880537 0.761073 0.284427
O O12 0.211785 0.105893 0.561423
O O13 0.349338 0.029483 0.589652
O O14 0.271234 0.000000 0.500000
O O15 0.125599 0.874402 0.566151
O O16 0.917770 0.458885 0.640868
O O17 0.773887 0.226114 0.636778
#
# Coordination Sequence:
#
# PCOD9578555 Si02
#       6
#    12   6  12  12  12  12
#     4   9  17  30  49  72  96 122 153 190 233 280
#     4  10  20  32  46  66  94 128 162 194 232 280
#     4   9  17  30  49  71  93 119 154 196 238 278
#     4  10  20  33  50  72  97 125 157 194 235 278
#     4   9  17  30  50  75 100 126 157 194 235 278
#     4  10  20  33  49  68  92 124 161 199 238 282
#
# _framework density 15.837035
#
# number of rings (size 3 to 8) (size 9 to 14) (size 15 to 20)
#    0.000    2.545    0.000    2.364    0.000    3.273 
#    0.000    1.818    0.000    6.909    0.000    0.000 
#    0.000    0.000    0.000    0.000    0.000    0.000 
#
# Total GULP energy -367994.374855 kJ/mol
# GULP energy per Si atom -5575.672346 kJ/mol
# Density = 1.580099 g / cm^3
# Si number density = 15.837035 Si / 1000 Ang^3
#
#
#
# Elastic Constant Matrix: (Units=GPa)
#
#
# Indices 1 2 3 4 5 6 
#
# 1 112.3576 73.9292 79.3282 1.2562 0.0000 0.0000
# 2 73.9292 112.3576 79.3282 -1.2562 0.0000 0.0000
# 3 79.3282 79.3282 103.2165 0.0000 0.0000 0.0000
# 4 1.2562 -1.2562 0.0000 24.3505 0.0000 0.0000
# 5 0.0000 0.0000 0.0000 0.0000 24.3505 1.2562
# 6 0.0000 0.0000 0.0000 0.0000 1.2562 19.2142
#
#
#
# Elastic Compliance Matrix: (Units=1/GPa)
#
#
# Indices 1 2 3 4 5 6 
#
# 1 0.020825 -0.005285 -0.011944 -0.001347 0.000000 0.000000
# 2 -0.005285 0.020825 -0.011944 0.001347 0.000000 0.000000
# 3 -0.011944 -0.011944 0.028047 0.000000 0.000000 0.000000
# 4 -0.001347 0.001347 0.000000 0.041206 0.000000 0.000000
# 5 0.000000 0.000000 0.000000 0.000000 0.041206 -0.002694
# 6 0.000000 0.000000 0.000000 0.000000 -0.002694 0.052221
#
#
# Mechanical properties :
#
#
# Convention : Reuss Voigt Hill
#
# Bulk Modulus (GPa) = 88.08129 88.12256 88.10193
# Shear Modulus (GPa) = 18.76460 19.93946 19.35203
#
# Velocity S-wave (km/s) = 3.44591 3.55214 3.49943
# Velocity P-wave (km/s) = 8.45993 8.51985 8.48994
#
# Compressibility (1/GPa) = 0.01135315
#
# Stress axis : x y z
#
# Youngs Moduli (GPa) = 48.01852 48.01852 35.65431
#
# Poissons Ratio (x) = 0.25379 0.42584
# Poissons Ratio (y) = 0.25379 0.42584
# Poissons Ratio (z) = 0.57351 0.57351
#
# Static dielectric constant tensor:
#      x y z
#    x 1.499330 0.000000 0.000000 
#    y 0.000000 1.499330 0.000000 
#    z 0.000000 0.000000 1.531540 
# 
# From -- ./inp_files/5423.got.cif
#   From: 2010.05.17/outbox.cif.g08.bks.cpg/sg164_3_cif.got.tgz:5423.got - 2010.05.20 10:58:56.
