data_PCOD9578665
_publ_section_title
;
Structure prediction by ZEFSAII (Michael W. Deem and Ramdas Pophale) SiO2 
 PCOD9578665
Probable space group: P -3 M 1
;
_chemical_formula_sum "Si O2"
_cell_formula_units_Z 66
_cell_length_a 12.637899
_cell_length_b 12.637899
_cell_length_c 28.800311
_cell_angle_alpha 90.000000
_cell_angle_beta 90.000000
_cell_angle_gamma 120.000000
_cell_volume 3983.616932
_symmetry_space_group_name_H-M "P -3 M 1"
_symmetry_group_IT_number 164
_symmetry_cell_setting 'hexagonal'
loop_
_space_group_symop_operation_xyz
x,y,z
-y,x-y,z
-x+y,-x,z
x-y,-y,-z
-x,-x+y,-z
y,x,-z
-x,-y,-z
y,-x+y,-z
x-y,x,-z
-x+y,y,z
x,x-y,z
-y,-x,z
loop_
_atom_site_type_symbol
_atom_site_label
_atom_site_fract_x
_atom_site_fract_y
_atom_site_fract_z
Si Si1 0.666817 0.081678 0.226978
Si Si2 0.000275 0.748319 0.681662
Si Si3 0.666232 0.584493 0.864001
Si Si4 0.082343 0.415243 0.409119
Si Si5 0.252019 0.000000 0.500000
Si Si6 0.584732 0.918421 0.954534
O O1 0.547772 0.095543 0.232565
O O2 0.786884 0.213117 0.219806
O O3 0.688678 0.022674 0.272810
O O4 0.643551 0.996079 0.182485
O O5 0.119181 0.880819 0.675118
O O6 0.879922 0.759843 0.687336
O O7 0.979292 0.664837 0.636704
O O8 0.795556 0.591112 0.864713
O O9 0.556009 0.443992 0.865270
O O10 0.647269 0.649180 0.908752
O O11 0.222790 0.445580 0.409137
O O12 0.075036 0.537518 0.409335
O O13 0.020271 0.333972 0.454656
O O14 0.119629 0.880372 0.505586
O O15 0.444281 0.888562 0.954192
O O16 0.590385 0.795193 0.955154
O O17 0.646408 0.000000 0.000000
#
# Coordination Sequence:
#
# PCOD9578665 Si02
#       6
#    12  12  12  12   6  12
#     4  10  20  34  53  76 103 135 170 210 254 301
#     4  10  20  34  53  76 103 135 170 209 252 300
#     4  10  20  34  53  76 102 132 167 209 255 302
#     4  10  20  34  52  74 101 133 169 209 253 300
#     4  10  20  34  54  78 104 134 168 208 252 300
#     4  10  20  34  54  78 104 134 168 208 252 299
#
# _framework density 16.567858000000001
#
# number of rings (size 3 to 8) (size 9 to 14) (size 15 to 20)
#    0.000    2.000    0.000    4.000    0.000    0.000 
#    0.000    5.455    0.000   18.909    0.000    0.000 
#    0.000    0.000    0.000    0.000    0.000    0.000 
#
# Total GULP energy -368534.733624 kJ/mol
# GULP energy per Si atom -5583.859600 kJ/mol
# Density = 1.653015 g / cm^3
# Si number density = 16.567858 Si / 1000 Ang^3
#
#
#
# Elastic Constant Matrix: (Units=GPa)
#
#
# Indices 1 2 3 4 5 6 
#
# 1 148.7027 110.4382 104.9586 1.7860 0.0000 0.0000
# 2 110.4382 148.7027 104.9586 -1.7860 0.0000 0.0000
# 3 104.9586 104.9586 170.1702 0.0000 0.0000 0.0000
# 4 1.7860 -1.7860 0.0000 22.3615 0.0000 0.0000
# 5 0.0000 0.0000 0.0000 0.0000 22.3615 1.7860
# 6 0.0000 0.0000 0.0000 0.0000 1.7860 19.1322
#
#
#
# Elastic Compliance Matrix: (Units=1/GPa)
#
#
# Indices 1 2 3 4 5 6 
#
# 1 0.017021 -0.009309 -0.004757 -0.002103 0.000000 0.000000
# 2 -0.009309 0.017021 -0.004757 0.002103 0.000000 0.000000
# 3 -0.004757 -0.004757 0.011744 0.000000 0.000000 0.000000
# 4 -0.002103 0.002103 0.000000 0.045056 0.000000 0.000000
# 5 0.000000 0.000000 0.000000 0.000000 0.045056 -0.004206
# 6 0.000000 0.000000 0.000000 0.000000 -0.004206 0.052660
#
#
# Mechanical properties :
#
#
# Convention : Reuss Voigt Hill
#
# Bulk Modulus (GPa) = 122.82672 123.14291 122.98482
# Shear Modulus (GPa) = 21.84198 22.58573 22.21386
#
# Velocity S-wave (km/s) = 3.63483 3.69619 3.66564
# Velocity P-wave (km/s) = 9.58710 9.62827 9.60771
#
# Compressibility (1/GPa) = 0.00814155
#
# Stress axis : x y z
#
# Youngs Moduli (GPa) = 58.75046 58.75046 85.14849
#
# Poissons Ratio (x) = 0.54691 0.40503
# Poissons Ratio (y) = 0.54691 0.40503
# Poissons Ratio (z) = 0.27946 0.27946
#
# Static dielectric constant tensor:
#      x y z
#    x 1.523210 0.000000 0.000000 
#    y 0.000000 1.523210 0.000000 
#    z 0.000000 0.000000 1.540860 
# 
# From -- ./inp_files/5541.got.cif
#   From: 2010.05.17/outbox.cif.g08.bks.cpg/sg164_3_cif.got.tgz:5541.got - 2010.05.20 10:58:56.
