data_PCOD9578564
_publ_section_title
;
Structure prediction by ZEFSAII (Michael W. Deem and Ramdas Pophale) SiO2 
 PCOD9578564
Probable space group: P -3 M 1
;
_chemical_formula_sum "Si O2"
_cell_formula_units_Z 66
_cell_length_a 12.758286
_cell_length_b 12.758286
_cell_length_c 29.582423
_cell_angle_alpha 90.000000
_cell_angle_beta 90.000000
_cell_angle_gamma 120.000000
_cell_volume 4170.124694
_symmetry_space_group_name_H-M "P -3 M 1"
_symmetry_group_IT_number 164
_symmetry_cell_setting 'hexagonal'
loop_
_space_group_symop_operation_xyz
x,y,z
-y,x-y,z
-x+y,-x,z
x-y,-y,-z
-x,-x+y,-z
y,x,-z
-x,-y,-z
y,-x+y,-z
x-y,x,-z
-x+y,y,z
x,x-y,z
-y,-x,z
loop_
_atom_site_type_symbol
_atom_site_label
_atom_site_fract_x
_atom_site_fract_y
_atom_site_fract_z
Si Si1 0.000000 0.750948 0.000000
Si Si2 0.417715 0.333284 0.912931
Si Si3 0.000048 0.748966 0.370669
Si Si4 0.333716 0.417124 0.543395
Si Si5 0.251276 0.251223 0.827426
Si Si6 0.249599 0.249685 0.271733
O O1 0.976837 0.667855 0.956182
O O2 0.881903 0.763806 0.006553
O O3 0.445748 0.222874 0.911582
O O4 0.539571 0.460430 0.916017
O O5 0.342680 0.322088 0.867693
O O6 0.125460 0.874541 0.375951
O O7 0.998266 0.694739 0.320711
O O8 0.886618 0.773235 0.371758
O O9 0.979279 0.658734 0.411411
O O10 0.352509 0.352509 0.500000
O O11 0.211818 0.423636 0.538596
O O12 0.449895 0.550106 0.546510
O O13 0.226533 0.113267 0.829418
O O14 0.305416 0.302021 0.777349
O O15 0.125558 0.251116 0.832623
O O16 0.117248 0.234495 0.273266
O O17 0.237404 0.118702 0.270235
#
# Coordination Sequence:
#
# PCOD9578564 Si02
#       6
#     6  12  12  12  12  12
#     4  10  20  34  54  78 100 118 140 180 234 284
#     4  10  20  33  48  66  91 125 161 191 218 255
#     4   9  16  27  45  69  95 119 144 178 222 271
#     4  10  20  33  48  65  86 114 148 185 224 267
#     4   9  16  27  46  71  96 120 148 187 233 275
#     4   8  13  22  39  65  94 120 145 176 220 271
#
# _framework density 15.826865
#
# number of rings (size 3 to 8) (size 9 to 14) (size 15 to 20)
#    0.000    2.727    0.000    2.364    0.000    2.909 
#    0.000    2.727    0.000    7.273    0.000    0.000 
#    0.000    0.000    0.000    0.000    0.000    0.000 
#
# Total GULP energy -367425.631407 kJ/mol
# GULP energy per Si atom -5567.055021 kJ/mol
# Density = 1.579084 g / cm^3
# Si number density = 15.826865 Si / 1000 Ang^3
#
#
#
# Elastic Constant Matrix: (Units=GPa)
#
#
# Indices 1 2 3 4 5 6 
#
# 1 76.2985 44.2405 71.2000 2.8492 0.0000 0.0000
# 2 44.2405 76.2985 71.2000 -2.8492 0.0000 0.0000
# 3 71.2000 71.2000 184.2873 0.0000 0.0000 0.0000
# 4 2.8492 -2.8492 0.0000 16.6016 0.0000 0.0000
# 5 0.0000 0.0000 0.0000 0.0000 16.6016 2.8492
# 6 0.0000 0.0000 0.0000 0.0000 2.8492 16.0290
#
#
#
# Elastic Compliance Matrix: (Units=1/GPa)
#
#
# Indices 1 2 3 4 5 6 
#
# 1 0.023718 -0.008456 -0.005897 -0.005522 0.000000 0.000000
# 2 -0.008456 0.023718 -0.005897 0.005522 0.000000 0.000000
# 3 -0.005897 -0.005897 0.009983 0.000000 0.000000 0.000000
# 4 -0.005522 0.005522 0.000000 0.062131 0.000000 0.000000
# 5 0.000000 0.000000 0.000000 0.000000 0.062131 -0.011044
# 6 0.000000 0.000000 0.000000 0.000000 -0.011044 0.064350
#
#
# Mechanical properties :
#
#
# Convention : Reuss Voigt Hill
#
# Bulk Modulus (GPa) = 59.09995 78.90726 69.00360
# Shear Modulus (GPa) = 17.11333 19.86269 18.48801
#
# Velocity S-wave (km/s) = 3.29185 3.54644 3.42152
# Velocity P-wave (km/s) = 7.20215 8.16911 7.70083
#
# Compressibility (1/GPa) = 0.01692049
#
# Stress axis : x y z
#
# Youngs Moduli (GPa) = 42.16123 42.16123 100.17438
#
# Poissons Ratio (x) = 0.35654 0.59068
# Poissons Ratio (y) = 0.35654 0.59068
# Poissons Ratio (z) = 0.24860 0.24860
#
# Static dielectric constant tensor:
#      x y z
#    x 1.492130 0.000000 0.000000 
#    y 0.000000 1.492130 0.000000 
#    z 0.000000 0.000000 1.574340 
# 
# From -- ./inp_files/5434.got.cif
#   From: 2010.05.17/outbox.cif.g08.bks.cpg/sg164_3_cif.got.tgz:5434.got - 2010.05.20 10:58:56.
