data_PCOD9578399
_publ_section_title
;
Structure prediction by ZEFSAII (Michael W. Deem and Ramdas Pophale) SiO2 
 PCOD9578399
Probable space group: P -3 M 1
;
_chemical_formula_sum "Si O2"
_cell_formula_units_Z 84
_cell_length_a 21.227139
_cell_length_b 21.227139
_cell_length_c 12.342273
_cell_angle_alpha 90.000000
_cell_angle_beta 90.000000
_cell_angle_gamma 120.000000
_cell_volume 4816.246513
_symmetry_space_group_name_H-M "P -3 M 1"
_symmetry_group_IT_number 164
_symmetry_cell_setting 'hexagonal'
loop_
_space_group_symop_operation_xyz
x,y,z
-y,x-y,z
-x+y,-x,z
x-y,-y,-z
-x,-x+y,-z
y,x,-z
-x,-y,-z
y,-x+y,-z
x-y,x,-z
-x+y,y,z
x,x-y,z
-y,-x,z
loop_
_atom_site_type_symbol
_atom_site_label
_atom_site_fract_x
_atom_site_fract_y
_atom_site_fract_z
Si Si1 0.334562 0.811531 0.914342
Si Si2 0.064018 0.461425 0.344191
Si Si3 0.906398 0.570299 0.270472
Si Si4 0.332677 0.818066 0.521387
Si Si5 0.217765 0.296075 0.850796
Si Si6 0.307737 0.834061 0.161488
Si Si7 0.692926 0.777827 0.105953
O O1 0.392251 0.784502 0.900151
O O2 0.253063 0.746938 0.885852
O O3 0.359908 0.881806 0.838896
O O4 0.332601 0.829979 0.040299
O O5 0.041822 0.520911 0.376113
O O6 0.116598 0.462210 0.439189
O O7 0.119323 0.491232 0.243082
O O8 0.988798 0.390133 0.310806
O O9 0.849599 0.519831 0.361256
O O10 0.899889 0.639367 0.233777
O O11 0.404388 0.808776 0.513403
O O12 0.258410 0.741591 0.501303
O O13 0.132251 0.264501 0.837649
O O14 0.251814 0.244402 0.845930
O O15 0.235845 0.322038 0.976665
O O16 0.248566 0.751435 0.195082
O O17 0.265028 0.878995 0.158416
O O18 0.724855 0.862428 0.121946
#
# Coordination Sequence:
#
# PCOD9578399 Si02
#       7
#    12  12  12  12  12  12  12
#     4  11  22  35  52  76 108 144 180 220 267 318
#     4  11  23  38  55  77 104 137 178 224 272 317
#     4  12  22  36  54  81 108 139 172 217 273 325
#     4  11  24  42  61  78 100 136 181 225 269 319
#     4  10  18  31  52  79 109 142 178 216 260 315
#     4  10  19  34  53  77 107 140 180 220 262 310
#     4   9  17  31  51  76 108 143 179 215 254 308
#
# _framework density 17.440968999999999
#
# number of rings (size 3 to 8) (size 9 to 14) (size 15 to 20)
#    0.000    1.429    2.857    4.143    0.000    1.714 
#    0.000    2.857    0.000    4.857    0.000    2.000 
#    0.000    0.000    0.000    0.000    0.000    5.286 
#
# Total GULP energy -468183.607716 kJ/mol
# GULP energy per Si atom -5573.614378 kJ/mol
# Density = 1.740127 g / cm^3
# Si number density = 17.440969 Si / 1000 Ang^3
#
#
#
# Elastic Constant Matrix: (Units=GPa)
#
#
# Indices 1 2 3 4 5 6 
#
# 1 69.1894 43.0625 20.0975 10.5639 0.0000 0.0000
# 2 43.0625 69.1894 20.0975 -10.5639 0.0000 0.0000
# 3 20.0975 20.0975 55.1616 0.0000 0.0000 0.0000
# 4 10.5639 -10.5639 0.0000 8.9021 0.0000 0.0000
# 5 0.0000 0.0000 0.0000 0.0000 8.9021 10.5639
# 6 0.0000 0.0000 0.0000 0.0000 10.5639 13.0635
#
#
#
# Elastic Compliance Matrix: (Units=1/GPa)
#
#
# Indices 1 2 3 4 5 6 
#
# 1 0.479045 -0.468800 -0.003733 -1.124785 -0.000001 0.000001
# 2 -0.468800 0.479045 -0.003733 1.124785 0.000001 -0.000001
# 3 -0.003733 -0.003733 0.020848 0.000000 0.000000 0.000000
# 4 -1.124785 1.124785 0.000000 2.781846 0.000002 -0.000001
# 5 -0.000001 0.000001 0.000000 0.000002 2.781844 -2.249569
# 6 0.000001 -0.000001 0.000000 -0.000001 -2.249569 1.895688
#
#
# Mechanical properties :
#
#
# Convention : Reuss Voigt Hill
#
# Bulk Modulus (GPa) = 37.86737 40.00615 38.93676
# Shear Modulus (GPa) = 0.53193 13.52572 7.02883
#
# Velocity S-wave (km/s) = 0.55286 2.78783 2.00968
# Velocity P-wave (km/s) = 4.70812 5.77499 5.26863
#
# Compressibility (1/GPa) = 0.02640796
#
# Stress axis : x y z
#
# Youngs Moduli (GPa) = 2.08749 2.08749 47.96511
#
# Poissons Ratio (x) = 0.97861 0.17904
# Poissons Ratio (y) = 0.97861 0.17904
# Poissons Ratio (z) = 0.00779 0.00779
#
# Static dielectric constant tensor:
#      x y z
#    x 1.598880 0.000000 0.000000 
#    y 0.000000 1.598880 0.000000 
#    z 0.000000 0.000000 1.624400 
# 
# From -- ./inp_files/2943.got.cif
#   From: 2010.05.17/outbox.cif.g08.bks.cpg/sg164_2_cif.got.tgz:2943.got - 2010.05.20 10:58:56.
