data_PCOD9578957
_publ_section_title
;
Structure prediction by ZEFSAII (Michael W. Deem and Ramdas Pophale) SiO2 
 PCOD9578957
Probable space group: P -3 C 1
;
_chemical_formula_sum "Si O2"
_cell_formula_units_Z 52
_cell_length_a 12.817123
_cell_length_b 12.817123
_cell_length_c 15.090296
_cell_angle_alpha 90.000000
_cell_angle_beta 90.000000
_cell_angle_gamma 120.000000
_cell_volume 2146.888524
_symmetry_space_group_name_H-M "P -3 C 1"
_symmetry_group_IT_number 165
_symmetry_cell_setting 'hexagonal'
loop_
_space_group_symop_operation_xyz
x,y,z
-y,x-y,z
-x+y,-x,z
x-y,-y,1/2-z
-x,-x+y,1/2-z
y,x,1/2-z
-x,-y,-z
y,-x+y,-z
x-y,x,-z
-x+y,y,1/2+z
x,x-y,1/2+z
-y,-x,1/2+z
loop_
_atom_site_type_symbol
_atom_site_label
_atom_site_fract_x
_atom_site_fract_y
_atom_site_fract_z
Si Si1 0.890663 0.619933 0.588380
Si Si2 0.000000 0.000000 0.142758
Si Si3 0.173625 0.425338 0.069066
Si Si4 0.538935 0.197307 0.249391
Si Si5 0.006870 0.778974 0.144096
O O1 0.786178 0.530888 0.519393
O O2 0.892274 0.555757 0.679506
O O3 0.837414 0.707272 0.611099
O O4 0.028598 0.689329 0.552631
O O5 0.865188 0.949733 0.114615
O O6 0.000000 0.000000 0.250000
O O7 0.177514 0.512871 0.146368
O O8 0.233512 0.351453 0.112008
O O9 0.672460 0.222588 0.230634
O O10 0.000000 0.768427 0.250000
#
# Coordination Sequence:
#
# PCOD9578957 Si02
#       5
#    12   4  12  12  12
#     4  12  24  42  70 110 143 175 222 278 352 433
#     4   9  18  27  55  95 139 199 200 247 340 428
#     4  12  24  42  70 110 143 175 222 278 352 433
#     4  10  27  53  69  85 132 186 244 300 334 368
#     4  11  20  35  61  95 152 185 208 260 341 430
#
# _framework density 24.2211
#
# number of rings (size 3 to 8) (size 9 to 14) (size 15 to 20)
#    0.462    0.462    6.923    0.692    0.000    1.846 
#    8.308    4.615    0.000    0.000    0.000    0.000 
#    0.000    0.000    0.000    0.000    0.000    0.000 
#
# Total GULP energy -289801.186730 kJ/mol
# GULP energy per Si atom -5573.099745 kJ/mol
# Density = 2.416597 g / cm^3
# Si number density = 24.221100 Si / 1000 Ang^3
#
#
#
# Elastic Constant Matrix: (Units=GPa)
#
#
# Indices 1 2 3 4 5 6 
#
# 1 40.5919 -6.3144 8.9484 -7.0328 0.0000 0.0000
# 2 -6.3144 40.5919 8.9484 7.0328 0.0000 0.0000
# 3 8.9484 8.9484 100.1024 0.0000 0.0000 0.0000
# 4 -7.0328 7.0328 0.0000 27.3778 0.0000 0.0000
# 5 0.0000 0.0000 0.0000 0.0000 27.3778 -7.0328
# 6 0.0000 0.0000 0.0000 0.0000 -7.0328 23.4532
#
#
#
# Elastic Compliance Matrix: (Units=1/GPa)
#
#
# Indices 1 2 3 4 5 6 
#
# 1 0.026850 0.003752 -0.002736 0.005934 0.000000 0.000000
# 2 0.003752 0.026850 -0.002736 -0.005934 0.000000 0.000000
# 3 -0.002736 -0.002736 0.010479 0.000000 0.000000 0.000000
# 4 0.005934 -0.005934 0.000000 0.039574 0.000000 0.000000
# 5 0.000000 0.000000 0.000000 0.000000 0.039574 0.011867
# 6 0.000000 0.000000 0.000000 0.000000 0.011867 0.046197
#
#
# Mechanical properties :
#
#
# Convention : Reuss Voigt Hill
#
# Bulk Modulus (GPa) = 16.46351 22.71678 19.59015
# Shear Modulus (GPa) = 23.45107 26.95537 25.20322
#
# Velocity S-wave (km/s) = 3.11498 3.33962 3.22925
# Velocity P-wave (km/s) = 4.44403 4.92646 4.69145
#
# Compressibility (1/GPa) = 0.06074039
#
# Stress axis : x y z
#
# Youngs Moduli (GPa) = 37.24377 37.24377 95.43037
#
# Poissons Ratio (x) = -0.13973 0.26106
# Poissons Ratio (y) = -0.13973 0.26106
# Poissons Ratio (z) = 0.10188 0.10188
#
# Static dielectric constant tensor:
#      x y z
#    x 1.898620 0.000000 0.000000 
#    y 0.000000 1.898620 0.000000 
#    z 0.000000 0.000000 2.009550 
# 
# From -- ./inp_files/1594.got.cif
#   From: 2010.05.17/outbox.cif.g08.bks.cpg/sg165_1_cif.got.tgz:1594.got - 2010.05.20 11:02:39.
