data_PCOD9578931
_publ_section_title
;
Structure prediction by ZEFSAII (Michael W. Deem and Ramdas Pophale) SiO2 
 PCOD9578931
Probable space group: P -3 C 1
;
_chemical_formula_sum "Si O2"
_cell_formula_units_Z 28
_cell_length_a 8.211150
_cell_length_b 8.211150
_cell_length_c 24.604451
_cell_angle_alpha 90.000000
_cell_angle_beta 90.000000
_cell_angle_gamma 120.000000
_cell_volume 1436.654318
_symmetry_space_group_name_H-M "P -3 C 1"
_symmetry_group_IT_number 165
_symmetry_cell_setting 'hexagonal'
loop_
_space_group_symop_operation_xyz
x,y,z
-y,x-y,z
-x+y,-x,z
x-y,-y,1/2-z
-x,-x+y,1/2-z
y,x,1/2-z
-x,-y,-z
y,-x+y,-z
x-y,x,-z
-x+y,y,1/2+z
x,x-y,1/2+z
-y,-x,1/2+z
loop_
_atom_site_type_symbol
_atom_site_label
_atom_site_fract_x
_atom_site_fract_y
_atom_site_fract_z
Si Si1 0.199346 0.773438 0.359720
Si Si2 0.000000 0.000000 0.314881
Si Si3 0.047066 0.345892 0.979477
O O1 0.130082 0.552913 0.345776
O O2 0.165414 0.763026 0.424612
O O3 0.094420 0.876702 0.334963
O O4 0.000000 0.000000 0.250000
O O5 0.000000 0.500000 0.000000
O O6 0.157487 0.307119 0.026766
#
# Coordination Sequence:
#
# PCOD9578931 Si02
#       3
#    12   4  12
#     4  10  23  46  64 100 138 170 232 282 335 419
#     4  12  27  48  73  95 130 183 231 300 361 383
#     4  12  21  37  61  94 137 181 219 259 330 414
#
# _framework density 19.489723999999999
#
# number of rings (size 3 to 8) (size 9 to 14) (size 15 to 20)
#    0.857    0.000    4.286    3.857    0.000    1.714 
#    2.571    0.000    0.000    0.000    0.000    0.000 
#    0.000    0.000    0.000    0.000    0.000    0.000 
#
# Total GULP energy -155898.746654 kJ/mol
# GULP energy per Si atom -5567.812380 kJ/mol
# Density = 1.944536 g / cm^3
# Si number density = 19.489724 Si / 1000 Ang^3
#
#
#
# Elastic Constant Matrix: (Units=GPa)
#
#
# Indices 1 2 3 4 5 6 
#
# 1 169.7554 79.1197 45.9744 -9.2207 0.0000 0.0000
# 2 79.1197 169.7554 45.9744 9.2207 0.0000 0.0000
# 3 45.9744 45.9744 89.0965 0.0000 0.0000 0.0000
# 4 -9.2207 9.2207 0.0000 19.5517 0.0000 0.0000
# 5 0.0000 0.0000 0.0000 0.0000 19.5517 -9.2207
# 6 0.0000 0.0000 0.0000 0.0000 -9.2207 45.3178
#
#
#
# Elastic Compliance Matrix: (Units=1/GPa)
#
#
# Indices 1 2 3 4 5 6 
#
# 1 0.008584 -0.003620 -0.002562 0.005756 0.000000 0.000000
# 2 -0.003620 0.008584 -0.002562 -0.005756 0.000000 0.000000
# 3 -0.002562 -0.002562 0.013868 0.000000 0.000000 0.000000
# 4 0.005756 -0.005756 0.000000 0.056575 0.000000 0.000000
# 5 0.000000 0.000000 0.000000 0.000000 0.056575 0.011511
# 6 0.000000 0.000000 0.000000 0.000000 0.011511 0.024409
#
#
# Mechanical properties :
#
#
# Convention : Reuss Voigt Hill
#
# Bulk Modulus (GPa) = 73.80258 85.63827 79.72043
# Shear Modulus (GPa) = 26.23314 34.05347 30.14331
#
# Velocity S-wave (km/s) = 3.67277 4.18455 3.93698
# Velocity P-wave (km/s) = 7.47899 8.20871 7.85233
#
# Compressibility (1/GPa) = 0.01354966
#
# Stress axis : x y z
#
# Youngs Moduli (GPa) = 116.49046 116.49046 72.11084
#
# Poissons Ratio (x) = 0.42168 0.18473
# Poissons Ratio (y) = 0.42168 0.18473
# Poissons Ratio (z) = 0.29842 0.29842
#
# Static dielectric constant tensor:
#      x y z
#    x 1.794380 0.000000 0.000000 
#    y 0.000000 1.794380 0.000000 
#    z 0.000000 0.000000 1.656380 
# 
# From -- ./inp_files/2779.got.cif
#   From: 2010.05.17/outbox.cif.g08.bks.cpg/sg165_2_cif.got.tgz:2779.got - 2010.05.20 11:02:39.
