data_PCOD9578886
_publ_section_title
;
Structure prediction by ZEFSAII (Michael W. Deem and Ramdas Pophale) SiO2 
 PCOD9578886
Probable space group: P -3 C 1
;
_chemical_formula_sum "Si O2"
_cell_formula_units_Z 68
_cell_length_a 14.292638
_cell_length_b 14.292638
_cell_length_c 18.452648
_cell_angle_alpha 90.000000
_cell_angle_beta 90.000000
_cell_angle_gamma 120.000000
_cell_volume 3264.480790
_symmetry_space_group_name_H-M "P -3 C 1"
_symmetry_group_IT_number 165
_symmetry_cell_setting 'hexagonal'
loop_
_space_group_symop_operation_xyz
x,y,z
-y,x-y,z
-x+y,-x,z
x-y,-y,1/2-z
-x,-x+y,1/2-z
y,x,1/2-z
-x,-y,-z
y,-x+y,-z
x-y,x,-z
-x+y,y,1/2+z
x,x-y,1/2+z
-y,-x,1/2+z
loop_
_atom_site_type_symbol
_atom_site_label
_atom_site_fract_x
_atom_site_fract_y
_atom_site_fract_z
Si Si1 0.507502 0.837787 0.216044
Si Si2 0.204062 0.417711 0.416282
Si Si3 0.666668 0.333335 0.883883
Si Si4 0.333334 0.666668 0.944582
Si Si5 0.654341 0.109773 0.711213
Si Si6 0.890943 0.759562 0.471239
Si Si7 0.746989 0.005047 0.330681
O O1 0.424489 0.777920 0.151049
O O2 0.446805 0.872946 0.273614
O O3 0.537017 0.753249 0.252397
O O4 0.614628 0.934470 0.183928
O O5 0.295490 0.543999 0.420000
O O6 0.109836 0.423866 0.371993
O O7 0.171191 0.361008 0.494748
O O8 0.226623 0.334461 0.369839
O O9 0.666668 0.333334 0.968958
O O10 0.628923 0.000000 0.750000
O O11 0.822484 0.818382 0.485300
O O12 0.923588 0.763277 0.387927
O O13 0.788541 0.000000 0.250000
#
# Coordination Sequence:
#
# PCOD9578886 Si02
#       7
#    12  12   4   4  12  12  12
#     4  10  21  40  62  93 132 166 231 269 331 393
#     4  11  25  41  65  96 134 178 221 280 339 410
#     4   9  21  40  62  88 126 178 215 274 318 412
#     4  12  24  43  59  91 141 172 224 268 345 409
#     4  11  23  37  64  97 127 179 220 275 338 395
#     4  10  24  46  72 100 135 176 222 284 350 403
#     4  11  22  42  67  94 131 177 225 279 332 401
#
# _framework density 20.830265000000001
#
# number of rings (size 3 to 8) (size 9 to 14) (size 15 to 20)
#    0.000    1.412    1.765    3.176    4.941    0.000 
#    3.176    7.059    0.000    0.000    0.000    0.000 
#    0.000    0.000    0.000    0.000    0.000    0.000 
#
# Total GULP energy -379649.512083 kJ/mol
# GULP energy per Si atom -5583.081060 kJ/mol
# Density = 2.078285 g / cm^3
# Si number density = 20.830265 Si / 1000 Ang^3
#
#
#
# Elastic Constant Matrix: (Units=GPa)
#
#
# Indices 1 2 3 4 5 6 
#
# 1 58.2092 10.6314 8.1890 0.3764 0.0000 0.0000
# 2 10.6314 58.2084 8.1886 -0.3765 0.0000 0.0000
# 3 8.1890 8.1886 109.7244 -0.0002 0.0000 0.0000
# 4 0.3764 -0.3765 -0.0002 25.6714 0.0000 0.0000
# 5 0.0000 0.0000 0.0000 0.0000 25.6718 0.3763
# 6 0.0000 0.0000 0.0000 0.0000 0.3763 23.7888
#
#
#
# Elastic Compliance Matrix: (Units=1/GPa)
#
#
# Indices 1 2 3 4 5 6 
#
# 1 0.017906 -0.003117 -0.001104 -0.000308 0.000000 0.000000
# 2 -0.003117 0.017906 -0.001104 0.000308 0.000000 0.000000
# 3 -0.001104 -0.001104 0.009278 0.000000 0.000000 0.000000
# 4 -0.000308 0.000308 0.000000 0.038963 0.000000 0.000000
# 5 0.000000 0.000000 0.000000 0.000000 0.038962 -0.000616
# 6 0.000000 0.000000 0.000000 0.000000 -0.000616 0.042046
#
#
# Mechanical properties :
#
#
# Convention : Reuss Voigt Hill
#
# Bulk Modulus (GPa) = 29.03467 31.12890 30.08178
# Shear Modulus (GPa) = 26.71057 28.30194 27.50626
#
# Velocity S-wave (km/s) = 3.58480 3.69004 3.63780
# Velocity P-wave (km/s) = 5.57704 5.75602 5.66723
#
# Compressibility (1/GPa) = 0.03444158
#
# Stress axis : x y z
#
# Youngs Moduli (GPa) = 55.84724 55.84651 107.77621
#
# Poissons Ratio (x) = 0.17408 0.11896
# Poissons Ratio (y) = 0.17408 0.11895
# Poissons Ratio (z) = 0.06164 0.06164
#
# Static dielectric constant tensor:
#      x y z
#    x 1.755510 0.000000 0.000000 
#    y 0.000000 1.755510 0.000000 
#    z 0.000000 0.000000 1.795920 
# 
# From -- ./inp_files/2312.got.cif
#   From: 2010.05.17/outbox.cif.g08.bks.cpg/sg165_2_cif.got.tgz:2312.got - 2010.05.20 11:02:39.
