data_PCOD9578854
_publ_section_title
;
Structure prediction by ZEFSAII (Michael W. Deem and Ramdas Pophale) SiO2 
 PCOD9578854
Probable space group: P -3 C 1
;
_chemical_formula_sum "Si O2"
_cell_formula_units_Z 42
_cell_length_a 10.872867
_cell_length_b 10.872867
_cell_length_c 16.855874
_cell_angle_alpha 90.000000
_cell_angle_beta 90.000000
_cell_angle_gamma 120.000000
_cell_volume 1725.718915
_symmetry_space_group_name_H-M "P -3 C 1"
_symmetry_group_IT_number 165
_symmetry_cell_setting 'hexagonal'
loop_
_space_group_symop_operation_xyz
x,y,z
-y,x-y,z
-x+y,-x,z
x-y,-y,1/2-z
-x,-x+y,1/2-z
y,x,1/2-z
-x,-y,-z
y,-x+y,-z
x-y,x,-z
-x+y,y,1/2+z
x,x-y,1/2+z
-y,-x,1/2+z
loop_
_atom_site_type_symbol
_atom_site_label
_atom_site_fract_x
_atom_site_fract_y
_atom_site_fract_z
Si Si1 0.556821 0.047000 0.902344
Si Si2 0.098741 0.186068 0.875011
Si Si3 0.000000 0.322384 0.250000
Si Si4 0.747550 0.157088 0.493779
O O1 0.620478 0.066320 0.815519
O O2 0.521375 0.893352 0.936212
O O3 0.425194 0.069886 0.919775
O O4 0.687786 0.162006 0.956330
O O5 0.180668 0.285519 0.800474
O O6 0.146184 0.269058 0.957419
O O7 0.152371 0.069804 0.871108
#
# Coordination Sequence:
#
# PCOD9578854 Si02
#       4
#    12  12   6  12
#     4  10  23  42  67 101 137 196 242 306 362 452
#     4   9  20  38  67 106 147 186 231 313 381 452
#     4  10  20  40  60  96 154 184 244 294 380 438
#     4  10  22  41  68  97 141 187 248 296 369 449
#
# _framework density 24.337683999999999
#
# number of rings (size 3 to 8) (size 9 to 14) (size 15 to 20)
#    0.571    1.714    0.000    1.429    8.000    0.000 
#    0.000   22.857    0.000    0.000    0.000    2.000 
#    0.000    0.000    0.000    0.000    0.000    0.000 
#
# Total GULP energy -233853.855242 kJ/mol
# GULP energy per Si atom -5567.948934 kJ/mol
# Density = 2.428229 g / cm^3
# Si number density = 24.337684 Si / 1000 Ang^3
#
#
#
# Elastic Constant Matrix: (Units=GPa)
#
#
# Indices 1 2 3 4 5 6 
#
# 1 86.8081 34.6557 59.4409 3.4723 0.0000 0.0000
# 2 34.6557 86.8081 59.4409 -3.4723 0.0000 0.0000
# 3 59.4409 59.4409 160.6767 0.0000 0.0000 0.0000
# 4 3.4723 -3.4723 0.0000 45.8674 0.0000 0.0000
# 5 0.0000 0.0000 0.0000 0.0000 45.8674 3.4723
# 6 0.0000 0.0000 0.0000 0.0000 3.4723 26.0762
#
#
#
# Elastic Compliance Matrix: (Units=1/GPa)
#
#
# Indices 1 2 3 4 5 6 
#
# 1 0.016138 -0.003232 -0.004774 -0.001466 0.000000 0.000000
# 2 -0.003232 0.016138 -0.004774 0.001466 0.000000 0.000000
# 3 -0.004774 -0.004774 0.009756 0.000000 0.000000 0.000000
# 4 -0.001466 0.001466 0.000000 0.022024 0.000000 0.000000
# 5 0.000000 0.000000 0.000000 0.000000 0.022024 -0.002933
# 6 0.000000 0.000000 0.000000 0.000000 -0.002933 0.038740
#
#
# Mechanical properties :
#
#
# Convention : Reuss Voigt Hill
#
# Bulk Modulus (GPa) = 60.71564 71.26310 65.98937
# Shear Modulus (GPa) = 32.07783 35.61259 33.84521
#
# Velocity S-wave (km/s) = 3.63441 3.82942 3.73319
# Velocity P-wave (km/s) = 6.52788 6.99265 6.76426
#
# Compressibility (1/GPa) = 0.01647022
#
# Stress axis : x y z
#
# Youngs Moduli (GPa) = 61.96632 61.96632 102.49938
#
# Poissons Ratio (x) = 0.20028 0.48937
# Poissons Ratio (y) = 0.20028 0.48937
# Poissons Ratio (z) = 0.29585 0.29585
#
# Static dielectric constant tensor:
#      x y z
#    x 2.049340 0.000000 0.000000 
#    y 0.000000 2.049340 0.000000 
#    z 0.000000 0.000000 1.937280 
# 
# From -- ./inp_files/2489.got.cif
#   From: 2010.05.17/outbox.cif.g08.bks.cpg/sg165_2_cif.got.tgz:2489.got - 2010.05.20 11:02:39.
