data_PCOD9578652
_publ_section_title
;
Structure prediction by ZEFSAII (Michael W. Deem and Ramdas Pophale) SiO2 
 PCOD9578652
Probable space group: P -3 M 1
;
_chemical_formula_sum "Si O2"
_cell_formula_units_Z 48
_cell_length_a 17.219358
_cell_length_b 17.219358
_cell_length_c 9.871166
_cell_angle_alpha 90.000000
_cell_angle_beta 90.000000
_cell_angle_gamma 120.000000
_cell_volume 2534.737545
_symmetry_space_group_name_H-M "P -3 M 1"
_symmetry_group_IT_number 164
_symmetry_cell_setting 'hexagonal'
loop_
_space_group_symop_operation_xyz
x,y,z
-y,x-y,z
-x+y,-x,z
x-y,-y,-z
-x,-x+y,-z
y,x,-z
-x,-y,-z
y,-x+y,-z
x-y,x,-z
-x+y,y,z
x,x-y,z
-y,-x,z
loop_
_atom_site_type_symbol
_atom_site_label
_atom_site_fract_x
_atom_site_fract_y
_atom_site_fract_z
Si Si1 0.614973 0.897165 0.662523
Si Si2 0.601104 0.021426 0.853965
Si Si3 0.999857 0.173659 0.663356
Si Si4 0.482549 0.331524 0.619769
O O1 0.594407 0.797204 0.693436
O O2 0.721337 0.961869 0.688282
O O3 0.583999 0.894428 0.507693
O O4 0.567512 0.934151 0.760162
O O5 0.520798 0.041595 0.876986
O O6 0.669781 0.102904 0.759016
O O7 0.627044 0.000000 0.000000
O O8 0.075397 0.150794 0.713676
O O9 0.000000 0.167837 0.500000
O O10 0.900334 0.099667 0.709649
O O11 0.508371 0.254186 0.621201
O O12 0.570570 0.429430 0.603490
#
# Coordination Sequence:
#
# PCOD9578652 Si02
#       4
#    12  12  12  12
#     4  10  20  33  52  78 105 134 170 215 261 305
#     4  10  21  36  53  74 103 138 171 207 256 311
#     4   9  16  26  42  67  99 132 165 201 242 287
#     4  10  20  35  56  79 103 132 169 213 260 311
#
# _framework density 18.936872000000001
#
# number of rings (size 3 to 8) (size 9 to 14) (size 15 to 20)
#    0.000    2.250    0.000    3.500    0.000    7.000 
#    0.000    0.000    0.000    0.500    0.000    0.000 
#    0.000    5.000    0.000    1.000    0.000    5.000 
#
# Total GULP energy -267391.009692 kJ/mol
# GULP energy per Si atom -5570.646035 kJ/mol
# Density = 1.889377 g / cm^3
# Si number density = 18.936872 Si / 1000 Ang^3
#
#
#
# Elastic Constant Matrix: (Units=GPa)
#
#
# Indices 1 2 3 4 5 6 
#
# 1 52.8849 4.4934 0.6730 -0.9040 0.0000 0.0000
# 2 4.4934 52.8849 0.6730 0.9040 0.0000 0.0000
# 3 0.6730 0.6730 78.6878 0.0000 0.0000 0.0000
# 4 -0.9040 0.9040 0.0000 11.3947 0.0000 0.0000
# 5 0.0000 0.0000 0.0000 0.0000 11.3947 -0.9040
# 6 0.0000 0.0000 0.0000 0.0000 -0.9040 24.1958
#
#
#
# Elastic Compliance Matrix: (Units=1/GPa)
#
#
# Indices 1 2 3 4 5 6 
#
# 1 0.019079 -0.001647 -0.000149 0.001644 0.000000 0.000000
# 2 -0.001647 0.019079 -0.000149 -0.001644 0.000000 0.000000
# 3 -0.000149 -0.000149 0.012711 0.000000 0.000000 0.000000
# 4 0.001644 -0.001644 0.000000 0.088021 0.000000 0.000000
# 5 0.000000 0.000000 0.000000 0.000000 0.088021 0.003288
# 6 0.000000 0.000000 0.000000 0.000000 0.003288 0.041452
#
#
# Mechanical properties :
#
#
# Convention : Reuss Voigt Hill
#
# Bulk Modulus (GPa) = 21.28652 21.79291 21.53971
# Shear Modulus (GPa) = 17.36632 21.30491 19.33561
#
# Velocity S-wave (km/s) = 3.03159 3.35781 3.19886
# Velocity P-wave (km/s) = 4.84966 5.15426 5.00428
#
# Compressibility (1/GPa) = 0.04697808
#
# Stress axis : x y z
#
# Youngs Moduli (GPa) = 52.41377 52.41377 78.67203
#
# Poissons Ratio (x) = 0.08634 0.01173
# Poissons Ratio (y) = 0.08634 0.01173
# Poissons Ratio (z) = 0.00781 0.00781
#
# Static dielectric constant tensor:
#      x y z
#    x 1.701480 0.000000 0.000000 
#    y 0.000000 1.701480 0.000000 
#    z 0.000000 0.000000 1.656640 
# 
# From -- ./inp_files/1231.got.cif
#   From: 2010.05.17/outbox.cif.g08.bks.cpg/sg164_1_cif.got.tgz:1231.got - 2010.05.20 10:58:56.
