data_PCOD9578924
_publ_section_title
;
Structure prediction by ZEFSAII (Michael W. Deem and Ramdas Pophale) SiO2 
 PCOD9578924
Probable space group: P -3 C 1
;
_chemical_formula_sum "Si O2"
_cell_formula_units_Z 36
_cell_length_a 8.614636
_cell_length_b 8.614636
_cell_length_c 29.130216
_cell_angle_alpha 90.000000
_cell_angle_beta 90.000000
_cell_angle_gamma 120.000000
_cell_volume 1872.182580
_symmetry_space_group_name_H-M "P -3 C 1"
_symmetry_group_IT_number 165
_symmetry_cell_setting 'hexagonal'
loop_
_space_group_symop_operation_xyz
x,y,z
-y,x-y,z
-x+y,-x,z
x-y,-y,1/2-z
-x,-x+y,1/2-z
y,x,1/2-z
-x,-y,-z
y,-x+y,-z
x-y,x,-z
-x+y,y,1/2+z
x,x-y,1/2+z
-y,-x,1/2+z
loop_
_atom_site_type_symbol
_atom_site_label
_atom_site_fract_x
_atom_site_fract_y
_atom_site_fract_z
Si Si1 0.660574 0.679227 0.980032
Si Si2 0.453365 0.136807 0.709852
Si Si3 0.224614 0.043620 0.618938
O O1 0.662434 0.731135 0.927079
O O2 0.500000 0.500000 0.000000
O O3 0.672636 0.833825 0.011979
O O4 0.653225 0.160722 0.712391
O O5 0.345812 0.065014 0.662561
O O6 0.336601 0.000000 0.750000
O O7 0.146220 0.181419 0.619390
#
# Coordination Sequence:
#
# PCOD9578924 Si02
#       3
#    12  12  12
#     4  12  24  44  67 100 142 183 226 283 345 418
#     4  10  26  42  67  97 133 168 222 278 341 406
#     4  10  23  42  71  92 129 179 224 273 338 400
#
# _framework density 19.228895000000001
#
# number of rings (size 3 to 8) (size 9 to 14) (size 15 to 20)
#    1.333    0.000    3.333    1.000    9.333    0.000 
#    0.000    0.000    0.000    0.000    0.000    0.000 
#    0.000    0.000    0.000    0.000    0.000    0.000 
#
# Total GULP energy -200445.492738 kJ/mol
# GULP energy per Si atom -5567.930354 kJ/mol
# Density = 1.918513 g / cm^3
# Si number density = 19.228895 Si / 1000 Ang^3
#
#
#
# Elastic Constant Matrix: (Units=GPa)
#
#
# Indices 1 2 3 4 5 6 
#
# 1 78.7282 34.7699 40.0882 8.3107 0.0000 0.0000
# 2 34.7699 78.7282 40.0882 -8.3107 0.0000 0.0000
# 3 40.0882 40.0882 187.0244 0.0000 0.0000 0.0000
# 4 8.3107 -8.3107 0.0000 36.8884 0.0000 0.0000
# 5 0.0000 0.0000 0.0000 0.0000 36.8884 8.3107
# 6 0.0000 0.0000 0.0000 0.0000 8.3107 21.9791
#
#
#
# Elastic Compliance Matrix: (Units=1/GPa)
#
#
# Indices 1 2 3 4 5 6 
#
# 1 0.017625 -0.007242 -0.002226 -0.005602 0.000000 0.000000
# 2 -0.007242 0.017625 -0.002226 0.005602 0.000000 0.000000
# 3 -0.002226 -0.002226 0.006301 0.000000 0.000000 0.000000
# 4 -0.005602 0.005602 0.000000 0.029633 0.000000 0.000000
# 5 0.000000 0.000000 0.000000 0.000000 0.029633 -0.011205
# 6 0.000000 0.000000 0.000000 0.000000 -0.011205 0.049734
#
#
# Mechanical properties :
#
#
# Convention : Reuss Voigt Hill
#
# Bulk Modulus (GPa) = 55.05229 63.81927 59.43578
# Shear Modulus (GPa) = 27.77883 34.45347 31.11615
#
# Velocity S-wave (km/s) = 3.80497 4.23751 4.02705
# Velocity P-wave (km/s) = 6.92790 7.56328 7.25255
#
# Compressibility (1/GPa) = 0.01816455
#
# Stress axis : x y z
#
# Youngs Moduli (GPa) = 56.73744 56.73744 158.70560
#
# Poissons Ratio (x) = 0.41090 0.35321
# Poissons Ratio (y) = 0.41090 0.35321
# Poissons Ratio (z) = 0.12627 0.12627
#
# Static dielectric constant tensor:
#      x y z
#    x 1.628140 0.000000 0.000000 
#    y 0.000000 1.628140 0.000000 
#    z 0.000000 0.000000 1.647850 
# 
# From -- ./inp_files/3037.got.cif
#   From: 2010.05.17/outbox.cif.g08.bks.cpg/sg165_2_cif.got.tgz:3037.got - 2010.05.20 11:02:39.
