data_PCOD9578577
_publ_section_title
;
Structure prediction by ZEFSAII (Michael W. Deem and Ramdas Pophale) SiO2 
 PCOD9578577
Probable space group: P -3 M 1
;
_chemical_formula_sum "Si O2"
_cell_formula_units_Z 66
_cell_length_a 12.685028
_cell_length_b 12.685028
_cell_length_c 29.463436
_cell_angle_alpha 90.000000
_cell_angle_beta 90.000000
_cell_angle_gamma 120.000000
_cell_volume 4105.791437
_symmetry_space_group_name_H-M "P -3 M 1"
_symmetry_group_IT_number 164
_symmetry_cell_setting 'hexagonal'
loop_
_space_group_symop_operation_xyz
x,y,z
-y,x-y,z
-x+y,-x,z
x-y,-y,-z
-x,-x+y,-z
y,x,-z
-x,-y,-z
y,-x+y,-z
x-y,x,-z
-x+y,y,z
x,x-y,z
-y,-x,z
loop_
_atom_site_type_symbol
_atom_site_label
_atom_site_fract_x
_atom_site_fract_y
_atom_site_fract_z
Si Si1 0.333607 0.917241 0.176792
Si Si2 0.252431 0.252275 0.451269
Si Si3 0.917964 0.584215 0.264566
Si Si4 0.749301 0.000000 0.000000
Si Si5 0.252496 0.999983 0.648278
Si Si6 0.584231 0.917377 0.911435
O O1 0.444100 0.888199 0.177261
O O2 0.205106 0.794895 0.175828
O O3 0.349454 0.995919 0.221673
O O4 0.353808 0.999081 0.132446
O O5 0.311532 0.311532 0.500000
O O6 0.238193 0.119097 0.452179
O O7 0.307106 0.305218 0.401855
O O8 0.119924 0.239847 0.450571
O O9 0.789687 0.579374 0.259193
O O10 0.898738 0.449369 0.266593
O O11 0.979330 0.657087 0.310688
O O12 0.665938 0.977120 0.955910
O O13 0.761559 0.880780 0.006401
O O14 0.114084 0.885917 0.649509
O O15 0.252244 0.126122 0.653369
O O16 0.452527 0.905054 0.917068
O O17 0.571423 0.785712 0.904971
#
# Coordination Sequence:
#
# PCOD9578577 Si02
#       6
#    12  12  12   6  12  12
#     4  10  20  34  52  73  96 121 150 186 230 279
#     4   8  12  18  31  54  84 115 144 175 216 269
#     4  10  20  33  49  67  89 119 155 193 229 268
#     4  10  20  34  52  74 102 136 172 210 252 296
#     4   9  16  26  42  65  92 119 146 181 228 280
#     4  10  20  34  53  76 102 132 166 203 240 279
#
# _framework density 16.074853999999998
#
# number of rings (size 3 to 8) (size 9 to 14) (size 15 to 20)
#    0.000    2.545    0.000    2.909    0.000    2.182 
#    0.000    1.818    0.000   11.818    0.000    0.000 
#    0.000    0.000    0.000    0.000    0.000    0.000 
#
# Total GULP energy -367639.669477 kJ/mol
# GULP energy per Si atom -5570.298022 kJ/mol
# Density = 1.603827 g / cm^3
# Si number density = 16.074854 Si / 1000 Ang^3
#
#
#
# Elastic Constant Matrix: (Units=GPa)
#
#
# Indices 1 2 3 4 5 6 
#
# 1 85.9604 58.3975 81.8821 -3.0719 0.0000 0.0000
# 2 58.3975 85.9604 81.8821 3.0719 0.0000 0.0000
# 3 81.8821 81.8821 183.9236 0.0000 0.0000 0.0000
# 4 -3.0719 3.0719 0.0000 18.8565 0.0000 0.0000
# 5 0.0000 0.0000 0.0000 0.0000 18.8565 -3.0719
# 6 0.0000 0.0000 0.0000 0.0000 -3.0719 13.7815
#
#
#
# Elastic Compliance Matrix: (Units=1/GPa)
#
#
# Indices 1 2 3 4 5 6 
#
# 1 0.025822 -0.011826 -0.006231 0.006133 0.000000 0.000000
# 2 -0.011826 0.025822 -0.006231 -0.006133 0.000000 0.000000
# 3 -0.006231 -0.006231 0.010985 0.000000 0.000000 0.000000
# 4 0.006133 -0.006133 0.000000 0.055030 0.000000 0.000000
# 5 0.000000 0.000000 0.000000 0.000000 0.055030 0.012266
# 6 0.000000 0.000000 0.000000 0.000000 0.012266 0.075295
#
#
# Mechanical properties :
#
#
# Convention : Reuss Voigt Hill
#
# Bulk Modulus (GPa) = 71.15928 88.90753 80.03341
# Shear Modulus (GPa) = 16.59783 19.21105 17.90444
#
# Velocity S-wave (km/s) = 3.21679 3.46077 3.34101
# Velocity P-wave (km/s) = 7.62631 8.44972 8.04855
#
# Compressibility (1/GPa) = 0.01405298
#
# Stress axis : x y z
#
# Youngs Moduli (GPa) = 38.72712 38.72712 91.03378
#
# Poissons Ratio (x) = 0.45799 0.56722
# Poissons Ratio (y) = 0.45799 0.56722
# Poissons Ratio (z) = 0.24130 0.24130
#
# Static dielectric constant tensor:
#      x y z
#    x 1.503070 0.000000 0.000000 
#    y 0.000000 1.503070 0.000000 
#    z 0.000000 0.000000 1.569610 
# 
# From -- ./inp_files/5528.got.cif
#   From: 2010.05.17/outbox.cif.g08.bks.cpg/sg164_3_cif.got.tgz:5528.got - 2010.05.20 10:58:56.
