data_PCOD9578790
_publ_section_title
;
Structure prediction by ZEFSAII (Michael W. Deem and Ramdas Pophale) SiO2 
 PCOD9578790
Probable space group: P -3 C 1
;
_chemical_formula_sum "Si O2"
_cell_formula_units_Z 84
_cell_length_a 29.700088
_cell_length_b 29.700088
_cell_length_c 5.484151
_cell_angle_alpha 90.000000
_cell_angle_beta 90.000000
_cell_angle_gamma 120.000000
_cell_volume 4189.435496
_symmetry_space_group_name_H-M "P -3 C 1"
_symmetry_group_IT_number 165
_symmetry_cell_setting 'hexagonal'
loop_
_space_group_symop_operation_xyz
x,y,z
-y,x-y,z
-x+y,-x,z
x-y,-y,1/2-z
-x,-x+y,1/2-z
y,x,1/2-z
-x,-y,-z
y,-x+y,-z
x-y,x,-z
-x+y,y,1/2+z
x,x-y,1/2+z
-y,-x,1/2+z
loop_
_atom_site_type_symbol
_atom_site_label
_atom_site_fract_x
_atom_site_fract_y
_atom_site_fract_z
Si Si1 0.643710 0.727478 0.994752
Si Si2 0.286390 0.127668 0.505722
Si Si3 0.414959 0.028261 0.500817
Si Si4 0.144946 0.388458 0.495558
Si Si5 0.229431 0.507516 0.473095
Si Si6 0.619778 0.222390 0.474933
Si Si7 0.891281 0.470828 0.981517
O O1 0.698786 0.781197 0.990262
O O2 0.635910 0.670464 0.993820
O O3 0.616711 0.731394 0.746004
O O4 0.619097 0.731535 0.250309
O O5 0.260348 0.129593 0.254640
O O6 0.342053 0.183281 0.502393
O O7 0.467508 0.084042 0.494276
O O8 0.414967 0.000000 0.750000
O O9 0.413639 0.000000 0.250000
O O10 0.193539 0.445723 0.483868
O O11 0.266927 0.521788 0.706316
O O12 0.201390 0.540995 0.513911
O O13 0.627067 0.251708 0.223993
O O14 0.562589 0.171352 0.478785
O O15 0.907844 0.452581 0.227721
#
# Coordination Sequence:
#
# PCOD9578790 Si02
#       7
#    12  12  12  12  12  12  12
#     4  10  20  32  53  69 104 131 149 182 234 267
#     4   8  14  27  42  71  95 114 134 167 214 275
#     4  12  26  40  55  76 101 133 175 206 229 258
#     4  10  19  31  53  81 102 119 140 179 232 284
#     4  12  23  36  59  87 108 116 134 177 223 271
#     4  10  23  40  59  81 104 123 161 182 213 267
#     4  10  23  40  59  75  90 127 158 205 229 246
#
# _framework density 20.050433000000002
#
# number of rings (size 3 to 8) (size 9 to 14) (size 15 to 20)
#    0.000    1.714    0.000    6.000    8.000    1.714 
#    0.000    0.000    0.000    5.714    0.000    0.000 
#    0.000    0.000    0.000    0.000    0.000    0.000 
#
# Total GULP energy -468701.017604 kJ/mol
# GULP energy per Si atom -5579.774019 kJ/mol
# Density = 2.000480 g / cm^3
# Si number density = 20.050433 Si / 1000 Ang^3
#
#
#
# Elastic Constant Matrix: (Units=GPa)
#
#
# Indices 1 2 3 4 5 6 
#
# 1 10.0113 7.3363 12.4796 1.2827 0.0000 0.0000
# 2 7.3363 10.0113 12.4796 -1.2827 0.0000 0.0000
# 3 12.4796 12.4796 191.9199 0.0000 0.0000 0.0000
# 4 1.2827 -1.2827 0.0000 15.7048 0.0000 0.0000
# 5 0.0000 0.0000 0.0000 0.0000 15.7048 1.2827
# 6 0.0000 0.0000 0.0000 0.0000 1.2827 1.3375
#
#
#
# Elastic Compliance Matrix: (Units=1/GPa)
#
#
# Indices 1 2 3 4 5 6 
#
# 1 0.234596 -0.171002 -0.004135 -0.033128 0.000000 0.000000
# 2 -0.171002 0.234596 -0.004135 0.033128 0.000000 0.000000
# 3 -0.004135 -0.004135 0.005748 0.000000 0.000000 0.000000
# 4 -0.033128 0.033128 0.000000 0.069087 0.000000 0.000000
# 5 0.000000 0.000000 0.000000 0.000000 0.069087 -0.066257
# 6 0.000000 0.000000 0.000000 0.000000 -0.066257 0.811196
#
#
# Mechanical properties :
#
#
# Convention : Reuss Voigt Hill
#
# Bulk Modulus (GPa) = 8.59136 30.72594 19.65865
# Shear Modulus (GPa) = 2.74476 18.52588 10.63532
#
# Velocity S-wave (km/s) = 1.17128 3.04298 2.30560
# Velocity P-wave (km/s) = 2.47455 5.26345 4.11262
#
# Compressibility (1/GPa) = 0.11639603
#
# Stress axis : x y z
#
# Youngs Moduli (GPa) = 4.26264 4.26264 173.96479
#
# Poissons Ratio (x) = 0.72892 0.71938
# Poissons Ratio (y) = 0.72892 0.71938
# Poissons Ratio (z) = 0.01763 0.01763
#
# Static dielectric constant tensor:
#      x y z
#    x 1.721870 0.000000 0.000000 
#    y 0.000000 1.721870 0.000000 
#    z 0.000000 0.000000 1.830840 
# 
# From -- ./inp_files/247.got.cif
#   From: 2010.05.17/outbox.cif.g08.bks.cpg/sg165_1_cif.got.tgz:247.got - 2010.05.20 11:02:39.
