data_PCOD9578914
_publ_section_title
;
Structure prediction by ZEFSAII (Michael W. Deem and Ramdas Pophale) SiO2 
 PCOD9578914
Probable space group: P -3 C 1
;
_chemical_formula_sum "Si O2"
_cell_formula_units_Z 66
_cell_length_a 21.076627
_cell_length_b 21.076627
_cell_length_c 8.079145
_cell_angle_alpha 90.000000
_cell_angle_beta 90.000000
_cell_angle_gamma 120.000000
_cell_volume 3108.123406
_symmetry_space_group_name_H-M "P -3 C 1"
_symmetry_group_IT_number 165
_symmetry_cell_setting 'hexagonal'
loop_
_space_group_symop_operation_xyz
x,y,z
-y,x-y,z
-x+y,-x,z
x-y,-y,1/2-z
-x,-x+y,1/2-z
y,x,1/2-z
-x,-y,-z
y,-x+y,-z
x-y,x,-z
-x+y,y,1/2+z
x,x-y,1/2+z
-y,-x,1/2+z
loop_
_atom_site_type_symbol
_atom_site_label
_atom_site_fract_x
_atom_site_fract_y
_atom_site_fract_z
Si Si1 0.218739 0.846966 0.348899
Si Si2 0.412807 0.956539 0.508622
Si Si3 0.198184 0.619878 0.970142
Si Si4 0.330128 0.000000 0.250000
Si Si5 0.239838 0.709783 0.677559
Si Si6 0.363744 0.082432 0.790622
O O1 0.259272 0.807617 0.262043
O O2 0.241996 0.876120 0.536747
O O3 0.135965 0.779447 0.340546
O O4 0.252139 0.925254 0.254527
O O5 0.397385 0.881945 0.420877
O O6 0.363886 0.929942 0.678147
O O7 0.500000 0.000000 0.500000
O O8 0.377029 0.996511 0.405967
O O9 0.199717 0.548734 0.031280
O O10 0.227990 0.683707 0.107850
O O11 0.248738 0.661258 0.816725
O O12 0.299517 0.000000 0.750000
#
# Coordination Sequence:
#
# PCOD9578914 Si02
#       6
#    12  12  12   6  12  12
#     4  11  23  47  69  99 142 179 237 295 370 442
#     4  11  24  42  64  98 134 183 237 305 361 435
#     4  12  25  42  69  93 135 177 254 303 377 443
#     4  10  22  42  64 100 134 184 226 290 368 424
#     4  12  23  45  63  96 123 188 233 315 369 443
#     4  11  26  45  72 104 138 192 238 299 371 443
#
# _framework density 21.234679
#
# number of rings (size 3 to 8) (size 9 to 14) (size 15 to 20)
#    0.000    0.727    5.455    2.545    6.364    0.000 
#    3.273    0.000    0.000    0.000    0.000    0.000 
#    0.909    1.455    0.000    0.000    0.000    0.000 
#
# Total GULP energy -367889.056709 kJ/mol
# GULP energy per Si atom -5574.076617 kJ/mol
# Density = 2.118635 g / cm^3
# Si number density = 21.234679 Si / 1000 Ang^3
#
#
#
# Elastic Constant Matrix: (Units=GPa)
#
#
# Indices 1 2 3 4 5 6 
#
# 1 124.5054 47.6525 18.3656 0.3459 0.0000 0.0000
# 2 47.6525 124.5054 18.3656 -0.3459 0.0000 0.0000
# 3 18.3656 18.3656 63.3631 0.0000 0.0000 0.0000
# 4 0.3459 -0.3459 0.0000 29.5789 0.0000 0.0000
# 5 0.0000 0.0000 0.0000 0.0000 29.5789 0.3459
# 6 0.0000 0.0000 0.0000 0.0000 0.3459 38.4264
#
#
#
# Elastic Compliance Matrix: (Units=1/GPa)
#
#
# Indices 1 2 3 4 5 6 
#
# 1 0.009602 -0.003411 -0.001795 -0.000152 0.000000 0.000000
# 2 -0.003411 0.009602 -0.001795 0.000152 0.000000 0.000000
# 3 -0.001795 -0.001795 0.016822 0.000000 0.000000 0.000000
# 4 -0.000152 0.000152 0.000000 0.033811 0.000000 0.000000
# 5 0.000000 0.000000 0.000000 0.000000 0.033811 -0.000304
# 6 0.000000 0.000000 0.000000 0.000000 -0.000304 0.026026
#
#
# Mechanical properties :
#
#
# Convention : Reuss Voigt Hill
#
# Bulk Modulus (GPa) = 45.39876 53.46013 49.42945
# Shear Modulus (GPa) = 33.10844 34.71620 33.91232
#
# Velocity S-wave (km/s) = 3.95291 4.04775 4.00062
# Velocity P-wave (km/s) = 6.50077 6.86121 6.68342
#
# Compressibility (1/GPa) = 0.02202703
#
# Stress axis : x y z
#
# Youngs Moduli (GPa) = 104.14085 104.14085 59.44461
#
# Poissons Ratio (x) = 0.35521 0.10668
# Poissons Ratio (y) = 0.35521 0.10668
# Poissons Ratio (z) = 0.18689 0.18689
#
# Static dielectric constant tensor:
#      x y z
#    x 1.831250 0.000000 0.000000 
#    y 0.000000 1.831250 0.000000 
#    z 0.000000 0.000000 1.984560 
# 
# From -- ./inp_files/687.got.cif
#   From: 2010.05.17/outbox.cif.g08.bks.cpg/sg165_1_cif.got.tgz:687.got - 2010.05.20 11:02:39.
