data_PCOD9578488
_publ_section_title
;
Structure prediction by ZEFSAII (Michael W. Deem and Ramdas Pophale) SiO2 
 PCOD9578488
Probable space group: P -3 M 1
;
_chemical_formula_sum "Si O2"
_cell_formula_units_Z 72
_cell_length_a 22.452914
_cell_length_b 22.452914
_cell_length_c 10.036870
_cell_angle_alpha 90.000000
_cell_angle_beta 90.000000
_cell_angle_gamma 120.000000
_cell_volume 4382.020012
_symmetry_space_group_name_H-M "P -3 M 1"
_symmetry_group_IT_number 164
_symmetry_cell_setting 'hexagonal'
loop_
_space_group_symop_operation_xyz
x,y,z
-y,x-y,z
-x+y,-x,z
x-y,-y,-z
-x,-x+y,-z
y,x,-z
-x,-y,-z
y,-x+y,-z
x-y,x,-z
-x+y,y,z
x,x-y,z
-y,-x,z
loop_
_atom_site_type_symbol
_atom_site_label
_atom_site_fract_x
_atom_site_fract_y
_atom_site_fract_z
Si Si1 0.918953 0.530223 0.732681
Si Si2 0.417875 0.278394 0.511799
Si Si3 0.280163 0.859627 0.036149
Si Si4 0.671347 0.061510 0.232730
Si Si5 0.732276 0.968223 0.132224
Si Si6 0.066382 0.805689 0.410861
O O1 0.919534 0.459767 0.737860
O O2 0.882777 0.536691 0.598789
O O3 0.875876 0.537853 0.853681
O O4 0.997406 0.594503 0.744351
O O5 0.440114 0.220057 0.508823
O O6 0.407003 0.299727 0.364696
O O7 0.343318 0.242176 0.583962
O O8 0.219068 0.780933 0.027638
O O9 0.245694 0.904991 0.083605
O O10 0.317673 0.890919 0.895425
O O11 0.714881 0.024388 0.194655
O O12 0.761306 0.947957 0.257452
O O13 0.776865 0.000000 0.000000
O O14 0.121784 0.878217 0.469581
O O15 0.000000 0.770714 0.500000
#
# Coordination Sequence:
#
# PCOD9578488 Si02
#       6
#    12  12  12  12  12  12
#     4  11  22  35  53  77 108 143 177 219 273 334
#     4  11  20  33  54  78 106 139 175 218 270 323
#     4  10  19  33  52  75 103 140 177 214 263 318
#     4  10  19  32  50  76 109 132 173 217 262 316
#     4   9  17  29  47  74 108 137 169 209 259 313
#     4  11  19  32  51  76 110 144 177 216 261 312
#
# _framework density 16.430778
#
# number of rings (size 3 to 8) (size 9 to 14) (size 15 to 20)
#    0.000    1.667    5.000    3.500    0.000    2.667 
#    0.000    0.833    0.000    2.833    0.000    0.000 
#    0.000    0.667    0.000    0.000    0.000    0.000 
#
# Total GULP energy -401369.538470 kJ/mol
# GULP energy per Si atom -5574.576923 kJ/mol
# Density = 1.639338 g / cm^3
# Si number density = 16.430778 Si / 1000 Ang^3
#
#
#
# Elastic Constant Matrix: (Units=GPa)
#
#
# Indices 1 2 3 4 5 6 
#
# 1 58.2404 42.7573 28.7147 -0.6707 0.0000 0.0000
# 2 42.7573 58.2404 28.7147 0.6707 0.0000 0.0000
# 3 28.7147 28.7147 118.1233 0.0000 0.0000 0.0000
# 4 -0.6707 0.6707 0.0000 11.0159 0.0000 0.0000
# 5 0.0000 0.0000 0.0000 0.0000 11.0159 -0.6707
# 6 0.0000 0.0000 0.0000 0.0000 -0.6707 7.7416
#
#
#
# Elastic Compliance Matrix: (Units=1/GPa)
#
#
# Indices 1 2 3 4 5 6 
#
# 1 0.038209 -0.026720 -0.002793 0.003953 0.000000 0.000000
# 2 -0.026720 0.038209 -0.002793 -0.003953 0.000000 0.000000
# 3 -0.002793 -0.002793 0.009824 0.000000 0.000000 0.000000
# 4 0.003953 -0.003953 0.000000 0.091260 0.000000 0.000000
# 5 0.000000 0.000000 0.000000 0.000000 0.091260 0.007906
# 6 0.000000 0.000000 0.000000 0.000000 0.007906 0.129858
#
#
# Mechanical properties :
#
#
# Convention : Reuss Voigt Hill
#
# Bulk Modulus (GPa) = 46.23104 48.33083 47.28094
# Shear Modulus (GPa) = 10.62833 14.91583 12.77208
#
# Velocity S-wave (km/s) = 2.54609 3.01624 2.79108
# Velocity P-wave (km/s) = 6.06971 6.45050 6.26300
#
# Compressibility (1/GPa) = 0.02163049
#
# Stress axis : x y z
#
# Youngs Moduli (GPa) = 26.17172 26.17172 101.79560
#
# Poissons Ratio (x) = 0.69930 0.28431
# Poissons Ratio (y) = 0.69930 0.28431
# Poissons Ratio (z) = 0.07310 0.07310
#
# Static dielectric constant tensor:
#      x y z
#    x 1.549400 0.000000 0.000000 
#    y 0.000000 1.549400 0.000000 
#    z 0.000000 0.000000 1.584180 
# 
# From -- ./inp_files/1914.got.cif
#   From: 2010.05.17/outbox.cif.g08.bks.cpg/sg164_1_cif.got.tgz:1914.got - 2010.05.20 10:58:56.
