data_PCOD9578148
_publ_section_title
;
Structure prediction by ZEFSAII (Michael W. Deem and Ramdas Pophale) SiO2 
 PCOD9578148
Probable space group: P -3 1 C
;
_chemical_formula_sum "Si O2"
_cell_formula_units_Z 84
_cell_length_a 17.971219
_cell_length_b 17.971219
_cell_length_c 13.663838
_cell_angle_alpha 90.000000
_cell_angle_beta 90.000000
_cell_angle_gamma 120.000000
_cell_volume 3821.715988
_symmetry_space_group_name_H-M "P -3 1 C"
_symmetry_group_IT_number 163
_symmetry_cell_setting 'hexagonal'
loop_
_space_group_symop_operation_xyz
x,y,z
-y,x-y,z
-x+y,-x,z
-y,-x,1/2-z
-x+y,y,1/2-z
x,x-y,1/2-z
-x,-y,-z
y,-x+y,-z
x-y,x,-z
y,x,1/2+z
x-y,-y,1/2+z
-x,-x+y,1/2+z
loop_
_atom_site_type_symbol
_atom_site_label
_atom_site_fract_x
_atom_site_fract_y
_atom_site_fract_z
Si Si1 0.244212 0.919555 0.679857
Si Si2 0.047921 0.606186 0.281778
Si Si3 0.754820 0.164144 0.053101
Si Si4 0.000820 0.156236 0.296565
Si Si5 0.481444 0.903609 0.487979
Si Si6 0.239121 0.991660 0.479731
Si Si7 0.861773 0.304789 0.913586
O O1 0.212758 0.822512 0.641839
O O2 0.345748 0.970670 0.699921
O O3 0.206482 0.949261 0.769051
O O4 0.217029 0.960345 0.590382
O O5 0.016861 0.508431 0.250000
O O6 0.093822 0.619015 0.384972
O O7 0.114893 0.666243 0.198496
O O8 0.771811 0.088091 0.022678
O O9 0.653103 0.127255 0.068161
O O10 0.779927 0.223430 0.957341
O O11 0.094385 0.188769 0.250000
O O12 0.016332 0.178744 0.411941
O O13 0.937841 0.062160 0.250000
O O14 0.380283 0.856551 0.471537
O O15 0.500000 0.000000 0.500000
O O16 0.283084 0.936503 0.442548
#
# Coordination Sequence:
#
# PCOD9578148 Si02
#       7
#    12  12  12  12  12  12  12
#     4  11  23  40  66 103 130 175 231 288 340 409
#     4  10  21  38  67 100 137 175 228 283 345 408
#     4  11  22  39  67  95 139 175 228 285 342 419
#     4  12  27  43  64  93 137 179 228 283 353 414
#     4  11  20  39  64  94 135 181 224 278 340 409
#     4  11  22  41  65  98 126 172 228 285 336 415
#     4  10  22  38  62 102 133 174 226 280 350 402
#
# _framework density 21.979655000000001
#
# number of rings (size 3 to 8) (size 9 to 14) (size 15 to 20)
#    0.000    1.143    5.714    1.000    4.000    0.571 
#    0.857    0.000    0.000    1.714    0.000    0.000 
#    0.000    0.000    0.000    0.000    0.000    0.000 
#
# Total GULP energy -468247.723896 kJ/mol
# GULP energy per Si atom -5574.377665 kJ/mol
# Density = 2.192963 g / cm^3
# Si number density = 21.979655 Si / 1000 Ang^3
#
#
#
# Elastic Constant Matrix: (Units=GPa)
#
#
# Indices 1 2 3 4 5 6 
#
# 1 106.2009 41.6786 18.4407 0.0000 -5.5050 0.0000
# 2 41.6786 106.2009 18.4407 0.0000 5.5050 0.0000
# 3 18.4407 18.4407 90.7748 0.0000 0.0000 0.0000
# 4 0.0000 0.0000 0.0000 25.6453 0.0000 5.5050
# 5 -5.5050 5.5050 0.0000 0.0000 25.6453 0.0000
# 6 0.0000 0.0000 0.0000 5.5050 0.0000 32.2612
#
#
#
# Elastic Compliance Matrix: (Units=1/GPa)
#
#
# Indices 1 2 3 4 5 6 
#
# 1 0.011605 -0.004482 -0.001447 0.000000 0.003453 0.000000
# 2 -0.004482 0.011605 -0.001447 0.000000 -0.003453 0.000000
# 3 -0.001447 -0.001447 0.011604 0.000000 0.000000 0.000000
# 4 0.000000 0.000000 0.000000 0.040476 0.000000 -0.006907
# 5 0.003453 -0.003453 0.000000 0.000000 0.040476 0.000000
# 6 0.000000 0.000000 0.000000 -0.006907 0.000000 0.032176
#
#
# Mechanical properties :
#
#
# Convention : Reuss Voigt Hill
#
# Bulk Modulus (GPa) = 49.84472 51.14407 50.49440
# Shear Modulus (GPa) = 29.51887 31.68480 30.60184
#
# Velocity S-wave (km/s) = 3.66868 3.80090 3.73537
# Velocity P-wave (km/s) = 6.37750 6.52547 6.45191
#
# Compressibility (1/GPa) = 0.02006230
#
# Stress axis : x y z
#
# Youngs Moduli (GPa) = 86.16624 86.16624 86.17570
#
# Poissons Ratio (x) = 0.38622 0.12470
# Poissons Ratio (y) = 0.38622 0.12470
# Poissons Ratio (z) = 0.12469 0.12469
#
# Static dielectric constant tensor:
#      x y z
#    x 1.825790 0.000000 0.000000 
#    y 0.000000 1.825790 0.000000 
#    z 0.000000 0.000000 2.067430 
# 
# From -- ./inp_files/2662.got.cif
#   From: 2010.05.17/outbox.cif.g08.bks.cpg/sg163_2_cif.got.tgz:2662.got - 2010.05.20 10:56:03.
