data_PCOD9578788
_publ_section_title
;
Structure prediction by ZEFSAII (Michael W. Deem and Ramdas Pophale) SiO2 
 PCOD9578788
Probable space group: P -3 C 1
;
_chemical_formula_sum "Si O2"
_cell_formula_units_Z 84
_cell_length_a 32.337492
_cell_length_b 32.337492
_cell_length_c 5.452415
_cell_angle_alpha 90.000000
_cell_angle_beta 90.000000
_cell_angle_gamma 120.000000
_cell_volume 4937.785320
_symmetry_space_group_name_H-M "P -3 C 1"
_symmetry_group_IT_number 165
_symmetry_cell_setting 'hexagonal'
loop_
_space_group_symop_operation_xyz
x,y,z
-y,x-y,z
-x+y,-x,z
x-y,-y,1/2-z
-x,-x+y,1/2-z
y,x,1/2-z
-x,-y,-z
y,-x+y,-z
x-y,x,-z
-x+y,y,1/2+z
x,x-y,1/2+z
-y,-x,1/2+z
loop_
_atom_site_type_symbol
_atom_site_label
_atom_site_fract_x
_atom_site_fract_y
_atom_site_fract_z
Si Si1 0.166951 0.558709 0.427800
Si Si2 0.701212 0.013535 0.001115
Si Si3 0.944086 0.358987 0.999283
Si Si4 0.193945 0.786177 0.472658
Si Si5 0.502104 0.052134 0.085373
Si Si6 0.411535 0.101076 0.501858
Si Si7 0.512931 0.233569 0.035016
O O1 0.178806 0.587299 0.170682
O O2 0.109743 0.524287 0.427062
O O3 0.195196 0.529955 0.446549
O O4 0.716016 0.000000 0.750000
O O5 0.714020 0.068031 0.005258
O O6 0.642204 0.981273 0.001950
O O7 0.716736 0.000000 0.250000
O O8 0.915019 0.343070 0.744488
O O9 0.968959 0.415572 0.022817
O O10 0.912097 0.337746 0.243555
O O11 0.191308 0.810348 0.721549
O O12 0.155345 0.730380 0.479685
O O13 0.246218 0.791012 0.468733
O O14 0.514168 0.042404 0.358894
O O15 0.529047 0.266395 0.279239
#
# Coordination Sequence:
#
# PCOD9578788 Si02
#       7
#    12  12  12  12  12  12  12
#     4  10  21  36  51  66  89 113 136 157 193 239
#     4   8  16  30  46  69  87 117 153 167 188 225
#     4  10  19  31  53  68  94 115 151 170 193 225
#     4  10  21  32  45  75  99 112 135 163 204 244
#     4  10  21  33  47  70  89 115 140 165 199 232
#     4  10  19  31  51  69  94 123 137 169 199 234
#     4  10  21  33  51  71  92 103 127 157 194 233
#
# _framework density 17.011676000000001
#
# number of rings (size 3 to 8) (size 9 to 14) (size 15 to 20)
#    0.000    2.286    0.000    2.571    8.000    0.000 
#    0.000    0.000    0.000   28.857    0.000    0.000 
#    0.000    0.000    0.000    0.000    0.000    0.000 
#
# Total GULP energy -469030.894930 kJ/mol
# GULP energy per Si atom -5583.701130 kJ/mol
# Density = 1.697296 g / cm^3
# Si number density = 17.011676 Si / 1000 Ang^3
#
#
#
# Elastic Constant Matrix: (Units=GPa)
#
#
# Indices 1 2 3 4 5 6 
#
# 1 34.5747 9.0455 20.2070 -0.4323 0.0000 0.0000
# 2 9.0455 34.5747 20.2070 0.4323 0.0000 0.0000
# 3 20.2070 20.2070 177.7586 0.0000 0.0000 0.0000
# 4 -0.4323 0.4323 0.0000 18.3232 0.0000 0.0000
# 5 0.0000 0.0000 0.0000 0.0000 18.3232 -0.4323
# 6 0.0000 0.0000 0.0000 0.0000 -0.4323 12.7646
#
#
#
# Elastic Compliance Matrix: (Units=1/GPa)
#
#
# Indices 1 2 3 4 5 6 
#
# 1 0.032413 -0.006789 -0.002913 0.000925 0.000000 0.000000
# 2 -0.006789 0.032413 -0.002913 -0.000925 0.000000 0.000000
# 3 -0.002913 -0.002913 0.006288 0.000000 0.000000 0.000000
# 4 0.000925 -0.000925 0.000000 0.054619 0.000000 0.000000
# 5 0.000000 0.000000 0.000000 0.000000 0.054619 0.001850
# 6 0.000000 0.000000 0.000000 0.000000 0.001850 0.078404
#
#
# Mechanical properties :
#
#
# Convention : Reuss Voigt Hill
#
# Bulk Modulus (GPa) = 21.79393 38.42520 30.10956
# Shear Modulus (GPa) = 16.70671 23.04545 19.87608
#
# Velocity S-wave (km/s) = 3.13720 3.68460 3.42186
# Velocity P-wave (km/s) = 5.09526 6.38265 5.77494
#
# Compressibility (1/GPa) = 0.04588433
#
# Stress axis : x y z
#
# Youngs Moduli (GPa) = 30.85179 30.85179 159.03687
#
# Poissons Ratio (x) = 0.20946 0.46325
# Poissons Ratio (y) = 0.20946 0.46325
# Poissons Ratio (z) = 0.08987 0.08987
#
# Static dielectric constant tensor:
#      x y z
#    x 1.579250 0.000000 0.000000 
#    y 0.000000 1.579250 0.000000 
#    z 0.000000 0.000000 1.701550 
# 
# From -- ./inp_files/250.got.cif
#   From: 2010.05.17/outbox.cif.g08.bks.cpg/sg165_1_cif.got.tgz:250.got - 2010.05.20 11:02:39.
