data_PCOD9578750
_publ_section_title
;
Structure prediction by ZEFSAII (Michael W. Deem and Ramdas Pophale) SiO2 
 PCOD9578750
Probable space group: P -3 M 1
;
_chemical_formula_sum "Si O2"
_cell_formula_units_Z 96
_cell_length_a 18.000000
_cell_length_b 18.000000
_cell_length_c 21.000000
_cell_angle_alpha 90.000000
_cell_angle_beta 90.000000
_cell_angle_gamma 120.000000
_cell_volume 5892.436847
_symmetry_space_group_name_H-M "P -3 M 1"
_symmetry_group_IT_number 164
_symmetry_cell_setting 'hexagonal'
loop_
_space_group_symop_operation_xyz
x,y,z
-y,x-y,z
-x+y,-x,z
x-y,-y,-z
-x,-x+y,-z
y,x,-z
-x,-y,-z
y,-x+y,-z
x-y,x,-z
-x+y,y,z
x,x-y,z
-y,-x,z
loop_
_atom_site_type_symbol
_atom_site_label
_atom_site_fract_x
_atom_site_fract_y
_atom_site_fract_z
Si Si1 0.833962 0.503491 0.998166
Si Si2 0.935401 0.692982 0.312900
Si Si3 0.999831 0.176157 0.574127
Si Si4 0.357565 0.474630 0.866830
Si Si5 0.087347 0.458660 0.134279
Si Si6 0.178339 0.999819 0.926967
Si Si7 0.669249 0.507564 0.275652
Si Si8 0.764966 0.062643 0.806095
O O1 0.733302 0.466604 0.990115
O O2 0.857891 0.428946 0.001128
O O3 0.879536 0.553071 0.934287
O O4 0.858798 0.550299 0.066233
O O5 0.849095 0.698190 0.302464
O O6 0.980257 0.748450 0.375891
O O7 0.902480 0.591370 0.315981
O O8 0.997440 0.732029 0.252429
O O9 0.078154 0.156307 0.580279
O O10 0.000000 0.200816 0.500000
O O11 0.909468 0.090533 0.587437
O O12 0.422477 0.577524 0.868808
O O13 0.413479 0.428563 0.867013
O O14 0.314695 0.460231 0.798254
O O15 0.120290 0.560145 0.145870
O O16 0.102664 0.399866 0.183478
O O17 0.089944 0.910057 0.916713
O O18 0.161439 0.080720 0.923822
O O19 0.247290 0.016393 0.871675
O O20 0.208251 0.000000 0.000000
O O21 0.740832 0.481664 0.291323
O O22 0.573591 0.426410 0.280832
O O23 0.860401 0.139599 0.794108
#
# Coordination Sequence:
#
# PCOD9578750 Si02
#       8
#    12  12  12  12  12  12  12  12
#     4  10  19  30  44  61  81 107 145 198 256 308
#     4  10  20  33  50  74 104 135 162 194 241 288
#     4   9  17  31  53  81 111 141 170 198 230 274
#     4   9  17  30  46  62  82 111 148 194 248 301
#     4  10  20  34  47  60  83 116 156 198 246 301
#     4   9  18  32  48  65  87 119 157 196 235 277
#     4  10  19  32  50  73  98 128 164 203 246 294
#     4  11  21  33  48  69  94 121 159 201 241 286
#
# _framework density 16.292071
#
# number of rings (size 3 to 8) (size 9 to 14) (size 15 to 20)
#    0.000    2.250    1.250    2.375    0.000    3.500 
#    0.000    2.500    0.000    4.625    0.000    0.000 
#    0.000    0.000    0.000    0.000    0.000    0.625 
#
# Total GULP energy -534735.766534 kJ/mol
# GULP energy per Si atom -5570.164235 kJ/mol
# Density = 1.625499 g / cm^3
# Si number density = 16.292071 Si / 1000 Ang^3
#
#
#
# Elastic Constant Matrix: (Units=GPa)
#
#
# Indices 1 2 3 4 5 6 
#
# 1 94.6571 -5.9911 43.1331 -35.5268 0.0000 0.0000
# 2 -5.9911 94.6571 43.1331 35.5268 0.0000 0.0000
# 3 43.1331 43.1331 88.1651 0.0000 0.0000 0.0000
# 4 -35.5268 35.5268 0.0000 53.8852 0.0000 0.0000
# 5 0.0000 0.0000 0.0000 0.0000 53.8852 -35.5268
# 6 0.0000 0.0000 0.0000 0.0000 -35.5268 50.3241
#
#
#
# Elastic Compliance Matrix: (Units=1/GPa)
#
#
# Indices 1 2 3 4 5 6 
#
# 1 0.020055 0.001468 -0.010530 0.012254 0.000000 0.000000
# 2 0.001468 0.020055 -0.010530 -0.012254 0.000000 0.000000
# 3 -0.010530 -0.010530 0.021645 0.000000 0.000000 0.000000
# 4 0.012254 -0.012254 0.000000 0.034717 0.000000 0.000000
# 5 0.000000 0.000000 0.000000 0.000000 0.034717 0.024509
# 6 0.000000 0.000000 0.000000 0.000000 0.024509 0.037173
#
#
# Mechanical properties :
#
#
# Convention : Reuss Voigt Hill
#
# Bulk Modulus (GPa) = 44.30188 48.66996 46.48592
# Shear Modulus (GPa) = 23.24843 44.76583 34.00713
#
# Velocity S-wave (km/s) = 3.78163 5.24754 4.57370
# Velocity P-wave (km/s) = 6.80581 8.16418 7.51575
#
# Compressibility (1/GPa) = 0.02257241
#
# Stress axis : x y z
#
# Youngs Moduli (GPa) = 49.86330 49.86330 46.19940
#
# Poissons Ratio (x) = -0.07321 0.48647
# Poissons Ratio (y) = -0.07321 0.48647
# Poissons Ratio (z) = 0.52505 0.52505
#
# Static dielectric constant tensor:
#      x y z
#    x 1.570000 0.000000 0.000000 
#    y 0.000000 1.570000 0.000000 
#    z 0.000000 0.000000 1.544830 
# 
# From -- ./inp_files/4806.got.cif
#   From: 2010.05.17/outbox.ucp.g08.bks.cvg/sg164_3_cif.got.tgz:4806.got - 2010.06.11 15:16:10.
