data_PCOD9578639
_publ_section_title
;
Structure prediction by ZEFSAII (Michael W. Deem and Ramdas Pophale) SiO2 
 PCOD9578639
Probable space group: P -3 M 1
;
_chemical_formula_sum "Si O2"
_cell_formula_units_Z 60
_cell_length_a 12.854481
_cell_length_b 12.854481
_cell_length_c 25.943558
_cell_angle_alpha 90.000000
_cell_angle_beta 90.000000
_cell_angle_gamma 120.000000
_cell_volume 3712.523930
_symmetry_space_group_name_H-M "P -3 M 1"
_symmetry_group_IT_number 164
_symmetry_cell_setting 'hexagonal'
loop_
_space_group_symop_operation_xyz
x,y,z
-y,x-y,z
-x+y,-x,z
x-y,-y,-z
-x,-x+y,-z
y,x,-z
-x,-y,-z
y,-x+y,-z
x-y,x,-z
-x+y,y,z
x,x-y,z
-y,-x,z
loop_
_atom_site_type_symbol
_atom_site_label
_atom_site_fract_x
_atom_site_fract_y
_atom_site_fract_z
Si Si1 0.419751 0.086504 0.146245
Si Si2 0.087879 0.666755 0.239299
Si Si3 0.666890 0.088139 0.641046
Si Si4 0.580432 0.666013 0.048934
Si Si5 0.420359 0.333084 0.451705
O O1 0.557755 0.115509 0.145213
O O2 0.413519 0.206760 0.140250
O O3 0.362217 0.018257 0.199706
O O4 0.353095 0.992604 0.100115
O O5 0.117366 0.558683 0.233027
O O6 0.206693 0.793308 0.228477
O O7 0.053703 0.665718 0.299143
O O8 0.558224 0.116447 0.634789
O O9 0.792592 0.207409 0.630535
O O10 0.640471 0.984259 0.600718
O O11 0.588016 0.794008 0.047572
O O12 0.441633 0.558368 0.048136
O O13 0.643883 0.643883 0.000000
O O14 0.357196 0.357196 0.500000
O O15 0.415325 0.207662 0.456237
O O16 0.557598 0.442403 0.451311
#
# Coordination Sequence:
#
# PCOD9578639 Si02
#       5
#    12  12  12  12  12
#     4  10  20  33  50  72  99 131 165 202 244 289
#     4   9  17  30  50  75 100 126 158 199 244 287
#     4   9  17  30  50  75 100 126 157 195 240 287
#     4  10  20  34  54  78 102 128 159 198 243 289
#     4  10  20  33  50  72  97 125 157 195 240 287
#
# _framework density 16.161512999999999
#
# number of rings (size 3 to 8) (size 9 to 14) (size 15 to 20)
#    0.000    2.400    0.000    2.800    0.000    2.400 
#    0.000    6.000    0.000   13.600    0.000    0.000 
#    0.000    0.000    0.000    0.000    0.000    0.000 
#
# Total GULP energy -334709.468174 kJ/mol
# GULP energy per Si atom -5578.491136 kJ/mol
# Density = 1.612473 g / cm^3
# Si number density = 16.161513 Si / 1000 Ang^3
#
#
#
# Elastic Constant Matrix: (Units=GPa)
#
#
# Indices 1 2 3 4 5 6 
#
# 1 119.0611 85.1286 75.1176 0.2723 0.0000 0.0000
# 2 85.1286 119.0611 75.1176 -0.2723 0.0000 0.0000
# 3 75.1176 75.1176 100.5310 0.0000 0.0000 0.0000
# 4 0.2723 -0.2723 0.0000 19.5444 0.0000 0.0000
# 5 0.0000 0.0000 0.0000 0.0000 19.5444 0.2723
# 6 0.0000 0.0000 0.0000 0.0000 0.2723 16.9663
#
#
#
# Elastic Compliance Matrix: (Units=1/GPa)
#
#
# Indices 1 2 3 4 5 6 
#
# 1 0.020177 -0.009300 -0.008128 -0.000411 0.000000 0.000000
# 2 -0.009300 0.020177 -0.008128 0.000411 0.000000 0.000000
# 3 -0.008128 -0.008128 0.022093 0.000000 0.000000 0.000000
# 4 -0.000411 0.000411 0.000000 0.051177 0.000000 0.000000
# 5 0.000000 0.000000 0.000000 0.000000 0.051177 -0.000821
# 6 0.000000 0.000000 0.000000 0.000000 -0.000821 0.058954
#
#
# Mechanical properties :
#
#
# Convention : Reuss Voigt Hill
#
# Bulk Modulus (GPa) = 88.20358 89.93118 89.06738
# Shear Modulus (GPa) = 17.94398 18.09699 18.02049
#
# Velocity S-wave (km/s) = 3.33572 3.34991 3.34282
# Velocity P-wave (km/s) = 8.33851 8.41003 8.37435
#
# Compressibility (1/GPa) = 0.01133741
#
# Stress axis : x y z
#
# Youngs Moduli (GPa) = 49.56090 49.56090 45.26224
#
# Poissons Ratio (x) = 0.46090 0.36788
# Poissons Ratio (y) = 0.46090 0.36788
# Poissons Ratio (z) = 0.40282 0.40282
#
# Static dielectric constant tensor:
#      x y z
#    x 1.507660 0.000000 0.000000 
#    y 0.000000 1.507660 0.000000 
#    z 0.000000 0.000000 1.556850 
# 
# From -- ./inp_files/5162.got.cif
#   From: 2010.05.17/outbox.cif.g08.bks.cpg/sg164_3_cif.got.tgz:5162.got - 2010.05.20 10:58:56.
