data_PCOD9578813
_publ_section_title
;
Structure prediction by ZEFSAII (Michael W. Deem and Ramdas Pophale) SiO2 
 PCOD9578813
Probable space group: P -3 C 1
;
_chemical_formula_sum "Si O2"
_cell_formula_units_Z 60
_cell_length_a 13.985085
_cell_length_b 13.985085
_cell_length_c 15.985644
_cell_angle_alpha 90.000000
_cell_angle_beta 90.000000
_cell_angle_gamma 120.000000
_cell_volume 2707.640424
_symmetry_space_group_name_H-M "P -3 C 1"
_symmetry_group_IT_number 165
_symmetry_cell_setting 'hexagonal'
loop_
_space_group_symop_operation_xyz
x,y,z
-y,x-y,z
-x+y,-x,z
x-y,-y,1/2-z
-x,-x+y,1/2-z
y,x,1/2-z
-x,-y,-z
y,-x+y,-z
x-y,x,-z
-x+y,y,1/2+z
x,x-y,1/2+z
-y,-x,1/2+z
loop_
_atom_site_type_symbol
_atom_site_label
_atom_site_fract_x
_atom_site_fract_y
_atom_site_fract_z
Si Si1 0.457474 0.934461 0.586561
Si Si2 0.554776 0.656571 0.803072
Si Si3 0.900959 0.163907 0.589610
Si Si4 0.242120 0.152910 0.891818
Si Si5 0.232872 0.467577 0.653654
O O1 0.485121 0.838255 0.612196
O O2 0.323724 0.860512 0.590664
O O3 0.500000 0.000000 0.500000
O O4 0.499637 0.035345 0.653749
O O5 0.649367 0.649367 0.750000
O O6 0.620441 0.748817 0.871486
O O7 0.489204 0.692680 0.739145
O O8 0.897196 0.175194 0.489564
O O9 0.021543 0.183060 0.612948
O O10 0.822780 0.040375 0.619705
O O11 0.342941 0.199780 0.828613
#
# Coordination Sequence:
#
# PCOD9578813 Si02
#       5
#    12  12  12  12  12
#     4  11  24  47  77 105 142 200 259 318 392 478
#     4  10  21  44  64  96 145 178 242 308 378 448
#     4  10  19  36  60  97 135 179 219 285 358 452
#     4  10  20  35  64  97 136 175 229 284 361 448
#     4  11  24  45  69 102 142 191 244 320 381 452
#
# _framework density 22.159517000000001
#
# number of rings (size 3 to 8) (size 9 to 14) (size 15 to 20)
#    0.000    1.600    4.000    2.000    2.800    2.400 
#   10.800    0.000    0.000    0.000    0.000    0.000 
#    0.000    0.000    0.000    0.000    0.000    0.000 
#
# Total GULP energy -334068.202702 kJ/mol
# GULP energy per Si atom -5567.803378 kJ/mol
# Density = 2.210908 g / cm^3
# Si number density = 22.159517 Si / 1000 Ang^3
#
#
#
# Elastic Constant Matrix: (Units=GPa)
#
#
# Indices 1 2 3 4 5 6 
#
# 1 85.4743 17.1147 38.1914 -6.2004 0.0000 0.0000
# 2 17.1147 85.4743 38.1914 6.2004 0.0000 0.0000
# 3 38.1914 38.1914 80.5773 0.0000 0.0000 0.0000
# 4 -6.2004 6.2004 0.0000 26.0784 0.0000 0.0000
# 5 0.0000 0.0000 0.0000 0.0000 26.0784 -6.2004
# 6 0.0000 0.0000 0.0000 0.0000 -6.2004 34.1798
#
#
#
# Elastic Compliance Matrix: (Units=1/GPa)
#
#
# Indices 1 2 3 4 5 6 
#
# 1 0.015176 -0.000112 -0.007140 0.003635 0.000000 0.000000
# 2 -0.000112 0.015176 -0.007140 -0.003635 0.000000 0.000000
# 3 -0.007140 -0.007140 0.019178 0.000000 0.000000 0.000000
# 4 0.003635 -0.003635 0.000000 0.040074 0.000000 0.000000
# 5 0.000000 0.000000 0.000000 0.000000 0.040074 0.007270
# 6 0.000000 0.000000 0.000000 0.000000 0.007270 0.030576
#
#
# Mechanical properties :
#
#
# Convention : Reuss Voigt Hill
#
# Bulk Modulus (GPa) = 48.20035 48.72453 48.46244
# Shear Modulus (GPa) = 25.51632 27.80256 26.65944
#
# Velocity S-wave (km/s) = 3.39703 3.54595 3.47229
# Velocity P-wave (km/s) = 6.09797 6.22903 6.16385
#
# Compressibility (1/GPa) = 0.02074674
#
# Stress axis : x y z
#
# Youngs Moduli (GPa) = 65.89484 65.89484 52.14185
#
# Poissons Ratio (x) = 0.00739 0.37228
# Poissons Ratio (y) = 0.00739 0.37228
# Poissons Ratio (z) = 0.47047 0.47047
#
# Static dielectric constant tensor:
#      x y z
#    x 1.885210 0.000000 0.000000 
#    y 0.000000 1.885210 0.000000 
#    z 0.000000 0.000000 1.878620 
# 
# From -- ./inp_files/1683.got.cif
#   From: 2010.05.17/outbox.cif.g08.bks.cpg/sg165_1_cif.got.tgz:1683.got - 2010.05.20 11:02:39.
