data_PCOD9578868
_publ_section_title
;
Structure prediction by ZEFSAII (Michael W. Deem and Ramdas Pophale) SiO2 
 PCOD9578868
Probable space group: P -3 C 1
;
_chemical_formula_sum "Si O2"
_cell_formula_units_Z 52
_cell_length_a 13.407446
_cell_length_b 13.407446
_cell_length_c 16.443182
_cell_angle_alpha 90.000000
_cell_angle_beta 90.000000
_cell_angle_gamma 120.000000
_cell_volume 2559.815170
_symmetry_space_group_name_H-M "P -3 C 1"
_symmetry_group_IT_number 165
_symmetry_cell_setting 'hexagonal'
loop_
_space_group_symop_operation_xyz
x,y,z
-y,x-y,z
-x+y,-x,z
x-y,-y,1/2-z
-x,-x+y,1/2-z
y,x,1/2-z
-x,-y,-z
y,-x+y,-z
x-y,x,-z
-x+y,y,1/2+z
x,x-y,1/2+z
-y,-x,1/2+z
loop_
_atom_site_type_symbol
_atom_site_label
_atom_site_fract_x
_atom_site_fract_y
_atom_site_fract_z
Si Si1 0.000000 0.000000 0.402979
Si Si2 0.105003 0.777057 0.198486
Si Si3 0.323549 0.791052 0.822035
Si Si4 0.765380 0.987773 0.611148
Si Si5 0.253683 0.916493 0.931737
O O1 0.127130 0.033974 0.379310
O O2 0.000000 0.000000 0.500000
O O3 0.141246 0.697884 0.249786
O O4 0.216363 0.900885 0.180774
O O5 0.000000 0.773042 0.250000
O O6 0.039571 0.721326 0.114076
O O7 0.221687 0.657742 0.817344
O O8 0.321431 0.851171 0.906101
O O9 0.701524 0.941146 0.524806
O O10 0.830290 0.126061 0.606181
#
# Coordination Sequence:
#
# PCOD9578868 Si02
#       5
#     4  12  12  12  12
#     4  12  15  30  55  83 142 174 154 227 331 384
#     4  10  21  37  62  93 125 167 214 246 318 405
#     4   9  23  48  62  74 120 172 223 283 313 344
#     4  12  19  34  61  96 136 164 190 250 331 404
#     4  11  20  37  66  95 129 160 205 255 330 398
#
# _framework density 20.313967000000002
#
# number of rings (size 3 to 8) (size 9 to 14) (size 15 to 20)
#    0.462    0.923    6.923    0.000    0.000    3.692 
#   12.462    3.462    0.000    0.000    0.000    0.000 
#    0.000    0.000    0.000    0.000    0.000    0.000 
#
# Total GULP energy -289485.037479 kJ/mol
# GULP energy per Si atom -5567.019952 kJ/mol
# Density = 2.026773 g / cm^3
# Si number density = 20.313967 Si / 1000 Ang^3
#
#
#
# Elastic Constant Matrix: (Units=GPa)
#
#
# Indices 1 2 3 4 5 6 
#
# 1 71.8636 9.3139 21.0685 0.7180 0.0000 0.0000
# 2 9.3139 71.8636 21.0685 -0.7180 0.0000 0.0000
# 3 21.0685 21.0685 61.4558 0.0000 0.0000 0.0000
# 4 0.7180 -0.7180 0.0000 28.5940 0.0000 0.0000
# 5 0.0000 0.0000 0.0000 0.0000 28.5940 0.7180
# 6 0.0000 0.0000 0.0000 0.0000 0.7180 31.2749
#
#
#
# Elastic Compliance Matrix: (Units=1/GPa)
#
#
# Indices 1 2 3 4 5 6 
#
# 1 0.015491 -0.000506 -0.005137 -0.000402 0.000000 0.000000
# 2 -0.000506 0.015491 -0.005137 0.000402 0.000000 0.000000
# 3 -0.005137 -0.005137 0.019794 0.000000 0.000000 0.000000
# 4 -0.000402 0.000402 0.000000 0.034993 0.000000 0.000000
# 5 0.000000 0.000000 0.000000 0.000000 0.034993 -0.000803
# 6 0.000000 0.000000 0.000000 0.000000 -0.000803 0.031993
#
#
# Mechanical properties :
#
#
# Convention : Reuss Voigt Hill
#
# Bulk Modulus (GPa) = 34.22828 34.23164 34.22996
# Shear Modulus (GPa) = 27.16609 27.94141 27.55375
#
# Velocity S-wave (km/s) = 3.66089 3.71277 3.68692
# Velocity P-wave (km/s) = 5.89540 5.93863 5.91706
#
# Compressibility (1/GPa) = 0.02921561
#
# Stress axis : x y z
#
# Youngs Moduli (GPa) = 64.55400 64.55400 50.51977
#
# Poissons Ratio (x) = 0.03264 0.25954
# Poissons Ratio (y) = 0.03264 0.25954
# Poissons Ratio (z) = 0.33163 0.33163
#
# Static dielectric constant tensor:
#      x y z
#    x 1.713030 0.000000 0.000000 
#    y 0.000000 1.713030 0.000000 
#    z 0.000000 0.000000 1.752620 
# 
# From -- ./inp_files/1595.got.cif
#   From: 2010.05.17/outbox.cif.g08.bks.cpg/sg165_1_cif.got.tgz:1595.got - 2010.05.20 11:02:39.
