data_PCOD9578818
_publ_section_title
;
Structure prediction by ZEFSAII (Michael W. Deem and Ramdas Pophale) SiO2 
 PCOD9578818
Probable space group: P -3 C 1
;
_chemical_formula_sum "Si O2"
_cell_formula_units_Z 66
_cell_length_a 17.391177
_cell_length_b 17.391177
_cell_length_c 13.732500
_cell_angle_alpha 90.000000
_cell_angle_beta 90.000000
_cell_angle_gamma 120.000000
_cell_volume 3596.981381
_symmetry_space_group_name_H-M "P -3 C 1"
_symmetry_group_IT_number 165
_symmetry_cell_setting 'hexagonal'
loop_
_space_group_symop_operation_xyz
x,y,z
-y,x-y,z
-x+y,-x,z
x-y,-y,1/2-z
-x,-x+y,1/2-z
y,x,1/2-z
-x,-y,-z
y,-x+y,-z
x-y,x,-z
-x+y,y,1/2+z
x,x-y,1/2+z
-y,-x,1/2+z
loop_
_atom_site_type_symbol
_atom_site_label
_atom_site_fract_x
_atom_site_fract_y
_atom_site_fract_z
Si Si1 0.594357 0.523616 0.661896
Si Si2 0.807846 0.000000 0.250000
Si Si3 0.684459 0.050364 0.467824
Si Si4 0.766465 0.606877 0.779346
Si Si5 0.004606 0.168664 0.955462
Si Si6 0.339461 0.429481 0.812994
O O1 0.559421 0.559421 0.750000
O O2 0.600598 0.583438 0.568520
O O3 0.691262 0.550540 0.699714
O O4 0.528466 0.418704 0.660288
O O5 0.710281 0.913062 0.239481
O O6 0.864463 0.013813 0.155740
O O7 0.726178 0.131898 0.389145
O O8 0.741354 0.000480 0.457733
O O9 0.692251 0.078638 0.580034
O O10 0.841707 0.582728 0.755338
O O11 0.088898 0.177582 0.009634
O O12 0.383968 0.383968 0.750000
#
# Coordination Sequence:
#
# PCOD9578818 Si02
#       6
#    12   6  12  12  12  12
#     4   9  18  40  59  82 120 158 190 242 315 353
#     4  10  20  40  60  78 118 164 184 244 296 354
#     4  10  21  38  61  83 120 161 196 250 306 360
#     4  10  19  40  59  82 120 161 190 233 316 364
#     4  11  23  37  57  84 118 160 207 249 301 358
#     4  11  24  34  61  96 113 149 214 258 278 364
#
# _framework density 18.348718999999999
#
# number of rings (size 3 to 8) (size 9 to 14) (size 15 to 20)
#    0.000    1.818    4.545    1.818    5.091    0.727 
#    1.091    0.000    0.000    0.000    4.727    0.000 
#    0.000    0.000    0.000    0.000    0.000    0.000 
#
# Total GULP energy -367636.806268 kJ/mol
# GULP energy per Si atom -5570.254640 kJ/mol
# Density = 1.830696 g / cm^3
# Si number density = 18.348719 Si / 1000 Ang^3
#
#
#
# Elastic Constant Matrix: (Units=GPa)
#
#
# Indices 1 2 3 4 5 6 
#
# 1 63.0847 33.7207 8.6978 4.4218 0.0000 0.0000
# 2 33.7207 63.0847 8.6978 -4.4218 0.0000 0.0000
# 3 8.6978 8.6978 110.2040 0.0000 0.0000 0.0000
# 4 4.4218 -4.4218 0.0000 19.8301 0.0000 0.0000
# 5 0.0000 0.0000 0.0000 0.0000 19.8301 4.4218
# 6 0.0000 0.0000 0.0000 0.0000 4.4218 14.6820
#
#
#
# Elastic Compliance Matrix: (Units=1/GPa)
#
#
# Indices 1 2 3 4 5 6 
#
# 1 0.023493 -0.013014 -0.000827 -0.008140 0.000000 0.000000
# 2 -0.013014 0.023493 -0.000827 0.008140 0.000000 0.000000
# 3 -0.000827 -0.000827 0.009205 0.000000 0.000000 0.000000
# 4 -0.008140 0.008140 0.000000 0.054059 0.000000 0.000000
# 5 0.000000 0.000000 0.000000 0.000000 0.054059 -0.016281
# 6 0.000000 0.000000 0.000000 0.000000 -0.016281 0.073014
#
#
# Mechanical properties :
#
#
# Convention : Reuss Voigt Hill
#
# Bulk Modulus (GPa) = 37.23872 37.62289 37.43080
# Shear Modulus (GPa) = 18.14159 23.21889 20.68024
#
# Velocity S-wave (km/s) = 3.14779 3.56114 3.36082
# Velocity P-wave (km/s) = 5.79228 6.12028 5.95854
#
# Compressibility (1/GPa) = 0.02685377
#
# Stress axis : x y z
#
# Youngs Moduli (GPa) = 42.56616 42.56616 108.64103
#
# Poissons Ratio (x) = 0.55397 0.08985
# Poissons Ratio (y) = 0.55397 0.08985
# Poissons Ratio (z) = 0.03520 0.03520
#
# Static dielectric constant tensor:
#      x y z
#    x 2.109360 0.000000 0.000000 
#    y 0.000000 2.109360 0.000000 
#    z 0.000000 0.000000 1.664770 
# 
# From -- ./inp_files/1791.got.cif
#   From: 2010.05.17/outbox.cif.g08.bks.cpg/sg165_1_cif.got.tgz:1791.got - 2010.05.20 11:02:39.
