data_PCOD9578860
_publ_section_title
;
Structure prediction by ZEFSAII (Michael W. Deem and Ramdas Pophale) SiO2 
 PCOD9578860
Probable space group: P -3 C 1
;
_chemical_formula_sum "Si O2"
_cell_formula_units_Z 52
_cell_length_a 12.883652
_cell_length_b 12.883652
_cell_length_c 14.778506
_cell_angle_alpha 90.000000
_cell_angle_beta 90.000000
_cell_angle_gamma 120.000000
_cell_volume 2124.413904
_symmetry_space_group_name_H-M "P -3 C 1"
_symmetry_group_IT_number 165
_symmetry_cell_setting 'hexagonal'
loop_
_space_group_symop_operation_xyz
x,y,z
-y,x-y,z
-x+y,-x,z
x-y,-y,1/2-z
-x,-x+y,1/2-z
y,x,1/2-z
-x,-y,-z
y,-x+y,-z
x-y,x,-z
-x+y,y,1/2+z
x,x-y,1/2+z
-y,-x,1/2+z
loop_
_atom_site_type_symbol
_atom_site_label
_atom_site_fract_x
_atom_site_fract_y
_atom_site_fract_z
Si Si1 0.342496 0.538802 0.435371
Si Si2 0.341614 0.898386 0.127492
Si Si3 0.000000 0.000000 0.147465
Si Si4 0.013759 0.218161 0.447154
Si Si5 0.673092 0.124703 0.268934
O O1 0.449745 0.674652 0.448260
O O2 0.355972 0.472920 0.520753
O O3 0.336824 0.501790 0.332046
O O4 0.313479 0.006486 0.119359
O O5 0.456247 0.905904 0.177385
O O6 0.226580 0.784158 0.174273
O O7 0.018625 0.122746 0.112142
O O8 0.000000 0.000000 0.250000
O O9 0.146626 0.253156 0.486197
O O10 0.670548 0.000000 0.250000
#
# Coordination Sequence:
#
# PCOD9578860 Si02
#       5
#    12  12   4  12  12
#     4  10  20  42  69  85 127 182 216 260 328 391
#     4  12  23  45  66  96 136 178 216 275 336 387
#     4   9  19  44  70  90 130 176 217 273 337 383
#     4   9  22  43  66  94 129 173 223 269 329 400
#     4  12  26  42  66 102 134 173 227 274 325 403
#
# _framework density 24.477338
#
# number of rings (size 3 to 8) (size 9 to 14) (size 15 to 20)
#    0.462    0.923    4.615    1.385    3.231    4.615 
#    4.154    0.000    0.000    0.000    0.000    0.000 
#    0.000    0.000    0.000    0.000    0.000    0.000 
#
# Total GULP energy -289871.374699 kJ/mol
# GULP energy per Si atom -5574.449513 kJ/mol
# Density = 2.442163 g / cm^3
# Si number density = 24.477338 Si / 1000 Ang^3
#
#
#
# Elastic Constant Matrix: (Units=GPa)
#
#
# Indices 1 2 3 4 5 6 
#
# 1 30.5121 53.8132 7.5310 -77.2714 0.0000 0.0000
# 2 53.8132 30.5121 7.5310 77.2714 0.0000 0.0000
# 3 7.5310 7.5310 122.9116 0.0000 0.0000 0.0000
# 4 -77.2714 77.2714 0.0000 -135.1696 0.0000 0.0000
# 5 0.0000 0.0000 0.0000 0.0000 -135.1696 -77.2714
# 6 0.0000 0.0000 0.0000 0.0000 -77.2714 -11.6506
#
#
#
# Elastic Compliance Matrix: (Units=1/GPa)
#
#
# Indices 1 2 3 4 5 6 
#
# 1 0.013682 -0.001692 -0.000735 -0.008789 0.000000 0.000000
# 2 -0.001692 0.013682 -0.000735 0.008789 0.000000 0.000000
# 3 -0.000735 -0.000735 0.008226 0.000000 0.000000 0.000000
# 4 -0.008789 0.008789 0.000000 0.002650 0.000000 0.000000
# 5 0.000000 0.000000 0.000000 0.000000 0.002650 -0.017577
# 6 0.000000 0.000000 0.000000 0.000000 -0.017577 0.030748
#
#
# Mechanical properties :
#
#
# Convention : Reuss Voigt Hill
#
# Bulk Modulus (GPa) = 34.16763 35.74292 34.95527
# Shear Modulus (GPa) = 57.00182 -48.72723 4.13729
#
# Velocity S-wave (km/s) = 4.83096 -4.46658 1.30151
# Velocity P-wave (km/s) = 6.71615 3.45923 4.07066
#
# Compressibility (1/GPa) = 0.02926747
#
# Stress axis : x y z
#
# Youngs Moduli (GPa) = 73.08878 73.08878 121.56646
#
# Poissons Ratio (x) = 0.12366 0.08931
# Poissons Ratio (y) = 0.12366 0.08931
# Poissons Ratio (z) = 0.05369 0.05369
#
# Static dielectric constant tensor:
#      x y z
#    x 2.026900 0.000000 0.000000 
#    y 0.000000 2.026900 0.000000 
#    z 0.000000 0.000000 2.131840 
# 
# From -- ./inp_files/1596.got.cif
#   From: 2010.05.17/outbox.cif.g08.bks.cpg/sg165_1_cif.got.tgz:1596.got - 2010.05.20 11:02:39.
