data_PCOD9578549
_publ_section_title
;
Structure prediction by ZEFSAII (Michael W. Deem and Ramdas Pophale) SiO2 
 PCOD9578549
Probable space group: P -3 M 1
;
_chemical_formula_sum "Si O2"
_cell_formula_units_Z 66
_cell_length_a 13.053130
_cell_length_b 13.053130
_cell_length_c 28.203162
_cell_angle_alpha 90.000000
_cell_angle_beta 90.000000
_cell_angle_gamma 120.000000
_cell_volume 4161.575330
_symmetry_space_group_name_H-M "P -3 M 1"
_symmetry_group_IT_number 164
_symmetry_cell_setting 'hexagonal'
loop_
_space_group_symop_operation_xyz
x,y,z
-y,x-y,z
-x+y,-x,z
x-y,-y,-z
-x,-x+y,-z
y,x,-z
-x,-y,-z
y,-x+y,-z
x-y,x,-z
-x+y,y,z
x,x-y,z
-y,-x,z
loop_
_atom_site_type_symbol
_atom_site_label
_atom_site_fract_x
_atom_site_fract_y
_atom_site_fract_z
Si Si1 0.999596 0.758546 0.445241
Si Si2 0.667167 0.576363 0.912456
Si Si3 0.243450 0.000000 0.000000
Si Si4 0.758538 0.758862 0.830844
Si Si5 0.759919 0.759436 0.280283
Si Si6 0.090185 0.423936 0.362050
O O1 0.875415 0.750830 0.435190
O O2 0.000000 0.723255 0.500000
O O3 0.027751 0.684285 0.407954
O O4 0.105769 0.894231 0.440894
O O5 0.772223 0.544446 0.911174
O O6 0.540594 0.459407 0.917624
O O7 0.699077 0.668809 0.955492
O O8 0.678766 0.649314 0.864696
O O9 0.115289 0.884712 0.991041
O O10 0.893439 0.786878 0.838038
O O11 0.730296 0.730488 0.775223
O O12 0.749953 0.874977 0.842057
O O13 0.875454 0.750907 0.291349
O O14 0.653673 0.681226 0.315504
O O15 0.788499 0.894250 0.286901
O O16 0.224374 0.448747 0.361761
O O17 0.087131 0.543566 0.362839
#
# Coordination Sequence:
#
# PCOD9578549 Si02
#       6
#    12  12   6  12  12  12
#     4   9  17  30  50  75  98 118 144 185 238 288
#     4  10  20  33  49  70  98 132 166 196 227 269
#     4  10  20  34  54  78 100 122 152 196 248 294
#     4   9  17  30  50  75 100 124 152 192 242 290
#     4   9  17  30  50  75  98 120 150 193 245 292
#     4  10  20  32  46  65  92 127 163 195 226 266
#
# _framework density 15.859379000000001
#
# number of rings (size 3 to 8) (size 9 to 14) (size 15 to 20)
#    0.000    2.545    0.000    2.364    0.000    3.273 
#    0.000    3.636    0.000    9.091    0.000    0.000 
#    0.000    0.000    0.000    0.000    0.000    0.000 
#
# Total GULP energy -368052.121545 kJ/mol
# GULP energy per Si atom -5576.547296 kJ/mol
# Density = 1.582328 g / cm^3
# Si number density = 15.859379 Si / 1000 Ang^3
#
#
#
# Elastic Constant Matrix: (Units=GPa)
#
#
# Indices 1 2 3 4 5 6 
#
# 1 118.8165 79.0434 74.9120 -0.1044 0.0000 0.0000
# 2 79.0434 118.8165 74.9120 0.1044 0.0000 0.0000
# 3 74.9120 74.9120 87.8835 0.0000 0.0000 0.0000
# 4 -0.1044 0.1044 0.0000 18.2916 0.0000 0.0000
# 5 0.0000 0.0000 0.0000 0.0000 18.2916 -0.1044
# 6 0.0000 0.0000 0.0000 0.0000 -0.1044 19.8866
#
#
#
# Elastic Compliance Matrix: (Units=1/GPa)
#
#
# Indices 1 2 3 4 5 6 
#
# 1 0.019699 -0.005444 -0.012151 0.000143 0.000000 0.000000
# 2 -0.005444 0.019699 -0.012151 -0.000143 0.000000 0.000000
# 3 -0.012151 -0.012151 0.032094 0.000000 0.000000 0.000000
# 4 0.000143 -0.000143 0.000000 0.054672 0.000000 0.000000
# 5 0.000000 0.000000 0.000000 0.000000 0.054672 0.000287
# 6 0.000000 0.000000 0.000000 0.000000 0.000287 0.050287
#
#
# Mechanical properties :
#
#
# Convention : Reuss Voigt Hill
#
# Bulk Modulus (GPa) = 83.33465 87.02793 85.18129
# Shear Modulus (GPa) = 16.97130 17.73724 17.35427
#
# Velocity S-wave (km/s) = 3.27480 3.34789 3.31155
# Velocity P-wave (km/s) = 8.18286 8.36291 8.27338
#
# Compressibility (1/GPa) = 0.01199981
#
# Stress axis : x y z
#
# Youngs Moduli (GPa) = 50.76330 50.76330 31.15847
#
# Poissons Ratio (x) = 0.27636 0.37861
# Poissons Ratio (y) = 0.27636 0.37861
# Poissons Ratio (z) = 0.61683 0.61683
#
# Static dielectric constant tensor:
#      x y z
#    x 1.498780 0.000000 0.000000 
#    y 0.000000 1.498780 0.000000 
#    z 0.000000 0.000000 1.545040 
# 
# From -- ./inp_files/5467.got.cif
#   From: 2010.05.17/outbox.cif.g08.bks.cpg/sg164_3_cif.got.tgz:5467.got - 2010.05.20 10:58:56.
