data_PCOD9578712
_publ_section_title
;
Structure prediction by ZEFSAII (Michael W. Deem and Ramdas Pophale) SiO2 
 PCOD9578712
Probable space group: P -3 M 1
;
_chemical_formula_sum "Si O2"
_cell_formula_units_Z 84
_cell_length_a 17.680645
_cell_length_b 17.680645
_cell_length_c 15.686846
_cell_angle_alpha 90.000000
_cell_angle_beta 90.000000
_cell_angle_gamma 120.000000
_cell_volume 4246.806499
_symmetry_space_group_name_H-M "P -3 M 1"
_symmetry_group_IT_number 164
_symmetry_cell_setting 'hexagonal'
loop_
_space_group_symop_operation_xyz
x,y,z
-y,x-y,z
-x+y,-x,z
x-y,-y,-z
-x,-x+y,-z
y,x,-z
-x,-y,-z
y,-x+y,-z
x-y,x,-z
-x+y,y,z
x,x-y,z
-y,-x,z
loop_
_atom_site_type_symbol
_atom_site_label
_atom_site_fract_x
_atom_site_fract_y
_atom_site_fract_z
Si Si1 0.334092 0.486491 0.985599
Si Si2 0.101214 0.382338 0.329533
Si Si3 0.842972 0.334436 0.507306
Si Si4 0.666983 0.156687 0.207623
Si Si5 0.825149 0.998962 0.896807
Si Si6 0.350648 0.261178 0.358570
Si Si7 0.091662 0.724529 0.140748
O O1 0.248066 0.496131 0.994103
O O2 0.420400 0.579601 0.996437
O O3 0.328383 0.420927 0.058855
O O4 0.334058 0.457356 0.888301
O O5 0.184079 0.368157 0.333077
O O6 0.119051 0.455620 0.399047
O O7 0.093023 0.407296 0.232527
O O8 0.012377 0.294902 0.353439
O O9 0.853403 0.426702 0.483389
O O10 0.741279 0.258722 0.506903
O O11 0.890164 0.302162 0.441267
O O12 0.572844 0.145688 0.226039
O O13 0.740651 0.259349 0.207694
O O14 0.697401 0.112748 0.277951
O O15 0.813977 0.906989 0.870353
O O16 0.751774 0.017861 0.861454
O O17 0.920670 0.079331 0.873451
O O18 0.820072 0.000000 0.000000
O O19 0.316120 0.158060 0.358689
O O20 0.182210 0.817791 0.134349
#
# Coordination Sequence:
#
# PCOD9578712 Si02
#       7
#    12  12  12  12  12  12  12
#     4   9  17  31  51  75 105 143 185 224 262 310
#     4  10  22  39  56  76 107 146 185 226 269 314
#     4  10  21  38  61  88 116 145 177 216 264 318
#     4   9  17  30  51  80 112 143 175 215 266 325
#     4   9  17  30  51  78 105 135 174 223 279 336
#     4  10  21  36  57  85 112 140 175 218 274 334
#     4   9  19  34  50  72 104 142 183 224 266 311
#
# _framework density 19.779568999999999
#
# number of rings (size 3 to 8) (size 9 to 14) (size 15 to 20)
#    0.000    2.571    0.000    1.429    0.000    5.714 
#    0.000    4.286    0.000    4.143    0.000    0.000 
#    0.000    3.429    0.000    0.429    0.000    0.000 
#
# Total GULP energy -469140.117814 kJ/mol
# GULP energy per Si atom -5585.001403 kJ/mol
# Density = 1.973455 g / cm^3
# Si number density = 19.779569 Si / 1000 Ang^3
#
#
#
# Elastic Constant Matrix: (Units=GPa)
#
#
# Indices 1 2 3 4 5 6 
#
# 1 38.0601 4.8956 16.5701 -0.9437 0.0000 0.0000
# 2 4.8956 38.0601 16.5701 0.9437 0.0000 0.0000
# 3 16.5701 16.5701 90.6769 0.0000 0.0000 0.0000
# 4 -0.9437 0.9437 0.0000 16.3059 0.0000 0.0000
# 5 0.0000 0.0000 0.0000 0.0000 16.3059 -0.9437
# 6 0.0000 0.0000 0.0000 0.0000 -0.9437 16.5823
#
#
#
# Elastic Compliance Matrix: (Units=1/GPa)
#
#
# Indices 1 2 3 4 5 6 
#
# 1 0.028676 -0.001576 -0.004952 0.001751 0.000000 0.000000
# 2 -0.001576 0.028676 -0.004952 -0.001751 0.000000 0.000000
# 3 -0.004952 -0.004952 0.012838 0.000000 0.000000 0.000000
# 4 0.001751 -0.001751 0.000000 0.061530 0.000000 0.000000
# 5 0.000000 0.000000 0.000000 0.000000 0.061530 0.003502
# 6 0.000000 0.000000 0.000000 0.000000 0.003502 0.060505
#
#
# Mechanical properties :
#
#
# Convention : Reuss Voigt Hill
#
# Bulk Modulus (GPa) = 21.17299 26.98540 24.07920
# Shear Modulus (GPa) = 17.09634 18.42290 17.75962
#
# Velocity S-wave (km/s) = 2.94316 3.05521 2.99971
# Velocity P-wave (km/s) = 4.71988 5.11062 4.91913
#
# Compressibility (1/GPa) = 0.04722999
#
# Stress axis : x y z
#
# Youngs Moduli (GPa) = 34.87183 34.87183 77.89310
#
# Poissons Ratio (x) = 0.05495 0.38575
# Poissons Ratio (y) = 0.05495 0.38575
# Poissons Ratio (z) = 0.17270 0.17270
#
# Static dielectric constant tensor:
#      x y z
#    x 1.688330 0.000000 0.000000 
#    y 0.000000 1.688330 0.000000 
#    z 0.000000 0.000000 1.717130 
# 
# From -- ./inp_files/3570.got.cif
#   From: 2010.05.17/outbox.cif.g08.bks.cpg/sg164_2_cif.got.tgz:3570.got - 2010.05.20 10:58:56.
